data_PCOD8273465
_publ_section_title
;
Structure prediction by ZEFSAII (Michael W. Deem and Ramdas Pophale) SiO2 
 PCOD8273465
Probable space group: C M M M
;
_chemical_formula_sum "Si O2"
_cell_formula_units_Z 64
_cell_length_a 8.928133
_cell_length_b 16.360968
_cell_length_c 21.895717
_cell_angle_alpha 90.000000
_cell_angle_beta 90.000000
_cell_angle_gamma 90.000000
_cell_volume 3198.370843
_symmetry_space_group_name_H-M "C M M M"
_symmetry_group_IT_number 65
_symmetry_cell_setting 'orthorhombic'
loop_
_space_group_symop_operation_xyz
x,y,z
-x,-y,z
x,-y,-z
-x,y,-z
-x,-y,-z
x,y,-z
-x,y,z
x,-y,z
1/2+x,1/2+y,z
1/2-x,1/2-y,z
1/2+x,1/2-y,-z
1/2-x,1/2+y,-z
1/2-x,1/2-y,-z
1/2+x,1/2+y,-z
1/2-x,1/2+y,z
1/2+x,1/2-y,z
loop_
_atom_site_type_symbol
_atom_site_label
_atom_site_fract_x
_atom_site_fract_y
_atom_site_fract_z
Si Si1 0.837295 0.407067 0.610657
Si Si2 0.327010 0.665196 0.500000
Si Si3 0.679582 0.161144 0.129256
Si Si4 0.325905 0.832038 0.266630
Si Si5 0.827865 0.000000 0.927805
O O1 0.863477 0.500000 0.597397
O O2 0.715652 0.379098 0.562397
O O3 0.782914 0.397082 0.680953
O O4 0.000000 0.362416 0.601467
O O5 0.500000 0.677464 0.500000
O O6 0.250000 0.750000 0.500000
O O7 0.500000 0.165063 0.119609
O O8 0.750000 0.250000 0.109486
O O9 0.728028 0.141701 0.199222
O O10 0.745607 0.083901 0.092652
O O11 0.500000 0.815656 0.262344
O O12 0.250000 0.750000 0.289318
O O13 0.000000 0.000000 0.904174
O O14 0.823145 0.000000 0.000000
#
# Coordination Sequence:
#
# PCOD8273465 Si02
#       5
#    16   8  16  16   8
#     4  10  21  37  58  83 114 149 186 231 289 348
#     4  12  25  40  57  77 107 145 193 242 289 344
#     4  10  21  39  65  94 128 165 207 256 310 368
#     4   9  19  35  58  86 116 150 190 237 288 348
#     4  11  25  43  63  91 127 166 211 258 305 363
#
# _framework density 20.010189
#
# number of rings (size 3 to 8) (size 9 to 14) (size 15 to 20)
#    0.000    1.875    0.000    3.375    1.750    7.500 
#    0.000    0.000    0.000    0.000    0.000    0.000 
#    0.000    0.000    0.000    0.000    0.000    0.000 
#
# Total GULP energy -396480.349069 kJ/mol
# GULP energy per Si atom -12390.010908 kJ/mol
# Density = 1.996464 g / cm^3
# Si number density = 20.010189 Si / 1000 Ang^3
#
#
#
# Elastic Constant Matrix: (Units=GPa)
#
#
# Indices 1 2 3 4 5 6 
#
# 1 104.6733 57.3516 47.9814 0.0000 0.0000 0.0000
# 2 57.3516 124.2975 49.4975 0.0000 0.0000 0.0000
# 3 47.9814 49.4975 98.8792 0.0000 0.0000 0.0000
# 4 0.0000 0.0000 0.0000 37.5474 0.0000 0.0000
# 5 0.0000 0.0000 0.0000 0.0000 28.0068 0.0000
# 6 0.0000 0.0000 0.0000 0.0000 0.0000 32.0350
#
#
#
# Elastic Compliance Matrix: (Units=1/GPa)
#
#
# Indices 1 2 3 4 5 6 
#
# 1 0.014240 -0.004769 -0.004522 0.000000 0.000000 0.000000
# 2 -0.004769 0.011646 -0.003515 0.000000 0.000000 0.000000
# 3 -0.004522 -0.003515 0.014068 0.000000 0.000000 0.000000
# 4 0.000000 0.000000 0.000000 0.026633 0.000000 0.000000
# 5 0.000000 0.000000 0.000000 0.000000 0.035706 0.000000
# 6 0.000000 0.000000 0.000000 0.000000 0.000000 0.031216
#
#
# Mechanical properties :
#
#
# Convention : Reuss Voigt Hill
#
# Bulk Modulus (GPa) = 69.74072 70.83457 70.28765
# Shear Modulus (GPa) = 30.50615 31.05247 30.77931
#
# Velocity S-wave (km/s) = 3.90876 3.94360 3.92622
# Velocity P-wave (km/s) = 7.43636 7.49747 7.46698
#
# Compressibility (1/GPa) = 0.01433883
#
# Stress axis : x y z
#
# Youngs Moduli (GPa) = 70.22584 85.86857 71.08556
#
# Poissons Ratio (x) = 0.40954 0.32148
# Poissons Ratio (y) = 0.33494 0.24989
# Poissons Ratio (z) = 0.31759 0.30185
#
# Static dielectric constant tensor:
#      x y z
#    x 3.621450 0.000000 0.000000 
#    y 0.000000 3.553840 0.000000 
#    z 0.000000 0.000000 3.810750 
# 
# 
# High freq. dielectric constant tensor:
#      x y z
#    x 1.783520 0.000000 0.000000 
#    y 0.000000 1.779960 0.000000 
#    z 0.000000 0.000000 1.790140 
# 
# From -- ./inp_files/58841.got.cif
#   From: 2010.03.12/outbox.cif.g09.slc.cpg/sg65_30_cif.got.tgz:58841.got - 2010.04.10 20:52:16.
