data_PCOD8273772
_publ_section_title
;
Structure prediction by ZEFSAII (Michael W. Deem and Ramdas Pophale) SiO2 
 PCOD8273772
Probable space group: C M M M
;
_chemical_formula_sum "Si O2"
_cell_formula_units_Z 96
_cell_length_a 21.407732
_cell_length_b 13.929152
_cell_length_c 15.496811
_cell_angle_alpha 90.000000
_cell_angle_beta 90.000000
_cell_angle_gamma 90.000000
_cell_volume 4621.018139
_symmetry_space_group_name_H-M "C M M M"
_symmetry_group_IT_number 65
_symmetry_cell_setting 'orthorhombic'
loop_
_space_group_symop_operation_xyz
x,y,z
-x,-y,z
x,-y,-z
-x,y,-z
-x,-y,-z
x,y,-z
-x,y,z
x,-y,z
1/2+x,1/2+y,z
1/2-x,1/2-y,z
1/2+x,1/2-y,-z
1/2-x,1/2+y,-z
1/2-x,1/2-y,-z
1/2+x,1/2+y,-z
1/2-x,1/2+y,z
1/2+x,1/2-y,z
loop_
_atom_site_type_symbol
_atom_site_label
_atom_site_fract_x
_atom_site_fract_y
_atom_site_fract_z
Si Si1 0.428840 0.275095 0.333828
Si Si2 0.810750 0.683486 0.000000
Si Si3 0.571996 0.316194 0.000000
Si Si4 0.236476 0.609351 0.830701
Si Si5 0.610517 0.385102 0.500000
Si Si6 0.750680 0.612178 0.500000
Si Si7 0.831841 0.385720 0.661852
Si Si8 0.624268 0.388620 0.827577
O O1 0.500000 0.247757 0.318816
O O2 0.422913 0.345442 0.415133
O O3 0.395488 0.173072 0.349151
O O4 0.404924 0.328975 0.249363
O O5 0.750000 0.750000 0.000000
O O6 0.806530 0.618686 0.914719
O O7 0.879462 0.728639 0.000000
O O8 0.584110 0.379303 0.914781
O O9 0.500000 0.279918 0.000000
O O10 0.248593 0.500000 0.808628
O O11 0.201243 0.653029 0.748520
O O12 0.305704 0.654747 0.844836
O O13 0.606143 0.500000 0.500000
O O14 0.681330 0.344446 0.500000
O O15 0.743559 0.500000 0.500000
O O16 0.786618 0.646056 0.415251
O O17 0.846518 0.500000 0.661901
O O18 0.625607 0.500000 0.800782
#
# Coordination Sequence:
#
# PCOD8273772 Si02
#       8
#    16   8   8  16   8   8  16  16
#     4  12  26  40  59  87 120 165 210 239 290 369
#     4  12  21  37  63  89 119 162 204 258 304 360
#     4  12  25  38  57  88 123 162 205 246 303 371
#     4  10  21  38  62  92 119 153 203 258 314 367
#     4  11  24  42  63  90 124 157 195 248 302 363
#     4   9  19  39  64  93 117 146 192 246 309 359
#     4  10  22  40  64  90 121 153 197 261 312 353
#     4  11  23  40  61  88 122 159 200 250 303 362
#
# _framework density 20.774642
#
# number of rings (size 3 to 8) (size 9 to 14) (size 15 to 20)
#    0.000    1.167    1.667    4.250    0.000   10.000 
#    0.000    0.000    0.000    4.500    0.000    0.000 
#    0.000    0.000    0.000    0.000    0.000    0.000 
#
# Total GULP energy -595239.098719 kJ/mol
# GULP energy per Si atom -12400.814557 kJ/mol
# Density = 2.072736 g / cm^3
# Si number density = 20.774642 Si / 1000 Ang^3
#
#
#
# Elastic Constant Matrix: (Units=GPa)
#
#
# Indices 1 2 3 4 5 6 
#
# 1 142.3910 32.5839 25.6244 0.0000 0.0000 0.0000
# 2 32.5839 63.0394 18.4848 0.0000 0.0000 0.0000
# 3 25.6244 18.4848 141.6360 0.0000 0.0000 0.0000
# 4 0.0000 0.0000 0.0000 -233.0701 0.0000 0.0000
# 5 0.0000 0.0000 0.0000 0.0000 -95.7984 0.0000
# 6 0.0000 0.0000 0.0000 0.0000 0.0000 27.6646
#
#
#
# Elastic Compliance Matrix: (Units=1/GPa)
#
#
# Indices 1 2 3 4 5 6 
#
# 1 0.008087 -0.003900 -0.000954 0.000000 0.000000 0.000000
# 2 -0.003900 0.018375 -0.001693 0.000000 0.000000 0.000000
# 3 -0.000954 -0.001693 0.007454 0.000000 0.000000 0.000000
# 4 0.000000 0.000000 0.000000 -0.004291 0.000000 0.000000
# 5 0.000000 0.000000 0.000000 0.000000 -0.010439 0.000000
# 6 0.000000 0.000000 0.000000 0.000000 0.000000 0.036147
#
#
# Mechanical properties :
#
#
# Convention : Reuss Voigt Hill
#
# Bulk Modulus (GPa) = 48.02489 55.60583 51.81536
# Shear Modulus (GPa) = 66.34003 -42.21590 12.06207
#
# Velocity S-wave (km/s) = 5.65708 -4.51276 2.41221
# Velocity P-wave (km/s) = 8.11402 0.57360 5.72312
#
# Compressibility (1/GPa) = 0.02082253
#
# Stress axis : x y z
#
# Youngs Moduli (GPa) = 123.65309 54.42057 134.15886
#
# Poissons Ratio (x) = 0.21226 0.12800
# Poissons Ratio (y) = 0.48229 0.22707
# Poissons Ratio (z) = 0.11797 0.09211
#
# Static dielectric constant tensor:
#      x y z
#    x 3.847570 0.000000 0.000000 
#    y 0.000000 3.603540 0.000000 
#    z 0.000000 0.000000 3.820510 
# 
# 
# High freq. dielectric constant tensor:
#      x y z
#    x 1.805870 0.000000 0.000000 
#    y 0.000000 1.810710 0.000000 
#    z 0.000000 0.000000 1.834870 
# 
# From -- ./inp_files/44220.got.cif
#   From: 2010.03.12/outbox.cif.g09.slc.cpg/sg65_23_cif.got.tgz:44220.got - 2010.04.10 20:52:16.
