data_PCOD8273926
_publ_section_title
;
Structure prediction by ZEFSAII (Michael W. Deem and Ramdas Pophale) SiO2 
 PCOD8273926
Probable space group: C M M M
;
_chemical_formula_sum "Si O2"
_cell_formula_units_Z 64
_cell_length_a 9.507786
_cell_length_b 20.470890
_cell_length_c 17.278591
_cell_angle_alpha 90.000000
_cell_angle_beta 90.000000
_cell_angle_gamma 90.000000
_cell_volume 3362.981261
_symmetry_space_group_name_H-M "C M M M"
_symmetry_group_IT_number 65
_symmetry_cell_setting 'orthorhombic'
loop_
_space_group_symop_operation_xyz
x,y,z
-x,-y,z
x,-y,-z
-x,y,-z
-x,-y,-z
x,y,-z
-x,y,z
x,-y,z
1/2+x,1/2+y,z
1/2-x,1/2-y,z
1/2+x,1/2-y,-z
1/2-x,1/2+y,-z
1/2-x,1/2-y,-z
1/2+x,1/2+y,-z
1/2-x,1/2+y,z
1/2+x,1/2-y,z
loop_
_atom_site_type_symbol
_atom_site_label
_atom_site_fract_x
_atom_site_fract_y
_atom_site_fract_z
Si Si1 0.841307 0.422667 0.000000
Si Si2 0.339255 0.621290 0.587489
Si Si3 0.843571 0.500000 0.408499
Si Si4 0.336702 0.575010 0.853337
Si Si5 0.840514 0.189460 0.260677
O O1 0.757306 0.399115 0.075620
O O2 0.846598 0.500000 0.000000
O O3 0.000000 0.393618 0.000000
O O4 0.300851 0.644029 0.500000
O O5 0.500000 0.595964 0.590852
O O6 0.239927 0.563757 0.618229
O O7 0.317274 0.680868 0.646918
O O8 0.853058 0.500000 0.500000
O O9 0.000000 0.500000 0.371695
O O10 0.500000 0.580220 0.877332
O O11 0.299709 0.500000 0.830588
O O12 0.299730 0.621703 0.781332
O O13 0.750000 0.250000 0.230047
O O14 0.000000 0.207934 0.241810
#
# Coordination Sequence:
#
# PCOD8273926 Si02
#       5
#     8  16   8  16  16
#     4   9  17  31  54  85 114 135 165 215 268 317
#     4   9  18  33  53  75 102 141 185 225 268 319
#     4   9  17  29  47  75 105 130 165 220 277 319
#     4   9  18  34  57  81 106 140 179 217 259 316
#     4  10  22  37  54  77 109 145 183 226 270 319
#
# _framework density 19.030733000000001
#
# number of rings (size 3 to 8) (size 9 to 14) (size 15 to 20)
#    0.000    2.750    0.000    0.750    1.750    5.500 
#    0.000    0.625    0.000    0.000    0.000    0.000 
#    0.000    0.000    0.000    0.000    0.000    0.000 
#
# Total GULP energy -396694.200804 kJ/mol
# GULP energy per Si atom -12396.693775 kJ/mol
# Density = 1.898742 g / cm^3
# Si number density = 19.030733 Si / 1000 Ang^3
#
#
#
# Elastic Constant Matrix: (Units=GPa)
#
#
# Indices 1 2 3 4 5 6 
#
# 1 94.1076 51.9676 45.8555 0.0000 0.0000 0.0000
# 2 51.9676 94.7182 45.3018 0.0000 0.0000 0.0000
# 3 45.8555 45.3018 100.4612 0.0000 0.0000 0.0000
# 4 0.0000 0.0000 0.0000 13.1276 0.0000 0.0000
# 5 0.0000 0.0000 0.0000 0.0000 20.2685 0.0000
# 6 0.0000 0.0000 0.0000 0.0000 0.0000 27.0303
#
#
#
# Elastic Compliance Matrix: (Units=1/GPa)
#
#
# Indices 1 2 3 4 5 6 
#
# 1 0.016667 -0.007020 -0.004442 0.000000 0.000000 0.000000
# 2 -0.007020 0.016417 -0.004199 0.000000 0.000000 0.000000
# 3 -0.004442 -0.004199 0.013875 0.000000 0.000000 0.000000
# 4 0.000000 0.000000 0.000000 0.076175 0.000000 0.000000
# 5 0.000000 0.000000 0.000000 0.000000 0.049338 0.000000
# 6 0.000000 0.000000 0.000000 0.000000 0.000000 0.036996
#
#
# Mechanical properties :
#
#
# Convention : Reuss Voigt Hill
#
# Bulk Modulus (GPa) = 63.94839 63.94855 63.94847
# Shear Modulus (GPa) = 20.32497 21.82943 21.07720
#
# Velocity S-wave (km/s) = 3.27158 3.39050 3.33157
# Velocity P-wave (km/s) = 6.92435 7.00022 6.96239
#
# Compressibility (1/GPa) = 0.01563761
#
# Stress axis : x y z
#
# Youngs Moduli (GPa) = 59.99822 60.91082 72.07085
#
# Poissons Ratio (x) = 0.42759 0.32015
# Poissons Ratio (y) = 0.42118 0.30263
# Poissons Ratio (z) = 0.26652 0.25577
#
# Static dielectric constant tensor:
#      x y z
#    x 3.697890 0.000000 0.000000 
#    y 0.000000 3.128990 0.000000 
#    z 0.000000 0.000000 3.432270 
# 
# 
# High freq. dielectric constant tensor:
#      x y z
#    x 1.740160 0.000000 0.000000 
#    y 0.000000 1.708930 0.000000 
#    z 0.000000 0.000000 1.733430 
# 
# From -- ./inp_files/49127.got.cif
#   From: 2010.03.12/outbox.cif.g09.slc.cpg/sg65_25_cif.got.tgz:49127.got - 2010.04.10 20:52:16.
