data_PCOD8273387
_publ_section_title
;
Structure prediction by ZEFSAII (Michael W. Deem and Ramdas Pophale) SiO2 
 PCOD8273387
Probable space group: C M M M
;
_chemical_formula_sum "Si O2"
_cell_formula_units_Z 56
_cell_length_a 14.418107
_cell_length_b 8.613790
_cell_length_c 23.745024
_cell_angle_alpha 90.000000
_cell_angle_beta 90.000000
_cell_angle_gamma 90.000000
_cell_volume 2949.002473
_symmetry_space_group_name_H-M "C M M M"
_symmetry_group_IT_number 65
_symmetry_cell_setting 'orthorhombic'
loop_
_space_group_symop_operation_xyz
x,y,z
-x,-y,z
x,-y,-z
-x,y,-z
-x,-y,-z
x,y,-z
-x,y,z
x,-y,z
1/2+x,1/2+y,z
1/2-x,1/2-y,z
1/2+x,1/2-y,-z
1/2-x,1/2+y,-z
1/2-x,1/2-y,-z
1/2+x,1/2+y,-z
1/2-x,1/2+y,z
1/2+x,1/2-y,z
loop_
_atom_site_type_symbol
_atom_site_label
_atom_site_fract_x
_atom_site_fract_y
_atom_site_fract_z
Si Si1 0.500000 0.682118 0.565782
Si Si2 0.850496 0.319914 0.062748
Si Si3 0.000000 0.817887 0.142037
Si Si4 0.646501 0.815171 0.647061
Si Si5 0.000000 0.814896 0.730306
O O1 0.500000 0.500000 0.579864
O O2 0.500000 0.716217 0.500000
O O3 0.592554 0.758331 0.591426
O O4 0.846673 0.500000 0.076574
O O5 0.750000 0.250000 0.066817
O O6 0.909793 0.238790 0.110135
O O7 0.891772 0.291071 0.000000
O O8 0.000000 0.754894 0.205626
O O9 0.000000 0.000000 0.142765
O O10 0.750000 0.750000 0.646460
O O11 0.592646 0.751802 0.701651
O O12 0.648880 0.000000 0.648496
O O13 0.000000 0.000000 0.725258
#
# Coordination Sequence:
#
# PCOD8273387 Si02
#       5
#     8  16   8  16   8
#     4  10  21  38  60  88 121 152 186 231 277 324
#     4  10  21  37  57  81 110 144 182 226 276 332
#     4  11  23  37  57  83 111 145 182 227 280 333
#     4  11  22  38  61  85 113 151 190 230 278 328
#     4  10  22  40  58  81 112 144 186 234 279 330
#
# _framework density 18.989471999999999
#
# number of rings (size 3 to 8) (size 9 to 14) (size 15 to 20)
#    0.000    1.571    0.000    6.857    0.000    8.571 
#    0.000    0.000    0.000    0.000    0.000    0.000 
#    0.000    0.000    0.000    0.000    0.000    0.000 
#
# Total GULP energy -347243.561149 kJ/mol
# GULP energy per Si atom -12401.555755 kJ/mol
# Density = 1.894625 g / cm^3
# Si number density = 18.989472 Si / 1000 Ang^3
#
#
#
# Elastic Constant Matrix: (Units=GPa)
#
#
# Indices 1 2 3 4 5 6 
#
# 1 141.2549 52.9748 66.6456 0.0000 0.0000 0.0000
# 2 52.9748 116.4311 61.7906 0.0000 0.0000 0.0000
# 3 66.6456 61.7906 160.2092 0.0000 0.0000 0.0000
# 4 0.0000 0.0000 0.0000 32.3333 0.0000 0.0000
# 5 0.0000 0.0000 0.0000 0.0000 19.7945 0.0000
# 6 0.0000 0.0000 0.0000 0.0000 0.0000 39.8948
#
#
#
# Elastic Compliance Matrix: (Units=1/GPa)
#
#
# Indices 1 2 3 4 5 6 
#
# 1 0.009479 -0.002791 -0.002866 0.000000 0.000000 0.000000
# 2 -0.002791 0.011621 -0.003321 0.000000 0.000000 0.000000
# 3 -0.002866 -0.003321 0.008715 0.000000 0.000000 0.000000
# 4 0.000000 0.000000 0.000000 0.030928 0.000000 0.000000
# 5 0.000000 0.000000 0.000000 0.000000 0.050519 0.000000
# 6 0.000000 0.000000 0.000000 0.000000 0.000000 0.025066
#
#
# Mechanical properties :
#
#
# Convention : Reuss Voigt Hill
#
# Bulk Modulus (GPa) = 84.33554 86.74636 85.54095
# Shear Modulus (GPa) = 31.59796 34.17014 32.88405
#
# Velocity S-wave (km/s) = 4.08361 4.24657 4.16588
# Velocity P-wave (km/s) = 8.16962 8.35613 8.26340
#
# Compressibility (1/GPa) = 0.01185740
#
# Stress axis : x y z
#
# Youngs Moduli (GPa) = 105.49979 86.04881 114.74342
#
# Poissons Ratio (x) = 0.24020 0.32890
# Poissons Ratio (y) = 0.29450 0.38106
# Poissons Ratio (z) = 0.30241 0.28576
#
# Static dielectric constant tensor:
#      x y z
#    x 3.132920 0.000000 0.000000 
#    y 0.000000 3.681200 0.000000 
#    z 0.000000 0.000000 3.709130 
# 
# 
# High freq. dielectric constant tensor:
#      x y z
#    x 1.745750 0.000000 0.000000 
#    y 0.000000 1.759290 0.000000 
#    z 0.000000 0.000000 1.743470 
# 
# From -- ./inp_files/62191.got.cif
#   From: 2010.03.12/outbox.cif.g09.slc.cpg/sg65_32_cif.got.tgz:62191.got - 2010.04.10 20:52:16.
