data_PCOD8273637
_publ_section_title
;
Structure prediction by ZEFSAII (Michael W. Deem and Ramdas Pophale) SiO2 
 PCOD8273637
Probable space group: C M M M
;
_chemical_formula_sum "Si O2"
_cell_formula_units_Z 104
_cell_length_a 8.979319
_cell_length_b 20.504120
_cell_length_c 30.222267
_cell_angle_alpha 90.000000
_cell_angle_beta 90.000000
_cell_angle_gamma 90.000000
_cell_volume 5564.313281
_symmetry_space_group_name_H-M "C M M M"
_symmetry_group_IT_number 65
_symmetry_cell_setting 'orthorhombic'
loop_
_space_group_symop_operation_xyz
x,y,z
-x,-y,z
x,-y,-z
-x,y,-z
-x,-y,-z
x,y,-z
-x,y,z
x,-y,z
1/2+x,1/2+y,z
1/2-x,1/2-y,z
1/2+x,1/2-y,-z
1/2-x,1/2+y,-z
1/2-x,1/2-y,-z
1/2+x,1/2+y,-z
1/2-x,1/2+y,z
1/2+x,1/2-y,z
loop_
_atom_site_type_symbol
_atom_site_label
_atom_site_fract_x
_atom_site_fract_y
_atom_site_fract_z
Si Si1 0.175151 0.424068 0.809447
Si Si2 0.674477 0.000000 0.952429
Si Si3 0.824039 0.185667 0.133738
Si Si4 0.333061 0.077919 0.366045
Si Si5 0.333715 0.577127 0.280151
Si Si6 0.826404 0.358683 0.052004
Si Si7 0.167517 0.922467 0.451468
O O1 0.212445 0.500000 0.819286
O O2 0.260704 0.379662 0.844422
O O3 0.230216 0.402995 0.760874
O O4 0.000000 0.411218 0.812898
O O5 0.714229 0.931722 0.929112
O O6 0.500000 0.000000 0.961069
O O7 0.755505 0.000000 0.000000
O O8 0.750000 0.250000 0.155907
O O9 0.777156 0.187381 0.081706
O O10 0.000000 0.188684 0.139153
O O11 0.500000 0.104099 0.360630
O O12 0.236808 0.105746 0.325180
O O13 0.269291 0.106145 0.412259
O O14 0.329706 0.000000 0.366116
O O15 0.500000 0.606038 0.273796
O O16 0.342109 0.500000 0.284074
O O17 0.000000 0.342597 0.060282
O O18 0.787657 0.350926 0.000000
O O19 0.227079 0.899994 0.500000
O O20 0.000000 0.896701 0.444442
O O21 0.168270 0.000000 0.449167
#
# Coordination Sequence:
#
# PCOD8273637 Si02
#       7
#    16   8  16  16  16  16  16
#     4  10  21  38  60  83 107 136 171 213 263 317
#     4   7  12  26  51  81 109 137 169 205 247 295
#     4  12  26  42  59  81 112 145 180 217 259 309
#     4   9  15  21  31  49  74 105 143 190 243 295
#     4   9  16  27  44  66  91 118 153 199 249 299
#     4   9  18  35  59  85 112 143 178 214 255 303
#     4   8  13  20  28  39  60  95 140 188 238 292
#
# _framework density 18.690536000000002
#
# number of rings (size 3 to 8) (size 9 to 14) (size 15 to 20)
#    0.000    2.692    0.000    4.154    1.077    5.538 
#    0.000    1.538    0.000    1.385    0.000    0.000 
#    0.000    0.000    0.000    0.000    0.000    0.769 
#
# Total GULP energy -644333.805033 kJ/mol
# GULP energy per Si atom -12391.034712 kJ/mol
# Density = 1.864800 g / cm^3
# Si number density = 18.690536 Si / 1000 Ang^3
#
#
#
# Elastic Constant Matrix: (Units=GPa)
#
#
# Indices 1 2 3 4 5 6 
#
# 1 133.7342 35.0076 62.0700 0.0000 0.0000 0.0000
# 2 35.0076 46.8172 32.2380 0.0000 0.0000 0.0000
# 3 62.0700 32.2380 117.4492 0.0000 0.0000 0.0000
# 4 0.0000 0.0000 0.0000 3.5295 0.0000 0.0000
# 5 0.0000 0.0000 0.0000 0.0000 36.2358 0.0000
# 6 0.0000 0.0000 0.0000 0.0000 0.0000 16.8057
#
#
#
# Elastic Compliance Matrix: (Units=1/GPa)
#
#
# Indices 1 2 3 4 5 6 
#
# 1 0.010819 -0.005121 -0.004312 0.000000 0.000000 0.000000
# 2 -0.005121 0.028761 -0.005188 0.000000 0.000000 0.000000
# 3 -0.004312 -0.005188 0.012217 0.000000 0.000000 0.000000
# 4 0.000000 0.000000 0.000000 0.283325 0.000000 0.000000
# 5 0.000000 0.000000 0.000000 0.000000 0.027597 0.000000
# 6 0.000000 0.000000 0.000000 0.000000 0.000000 0.059503
#
#
# Mechanical properties :
#
#
# Convention : Reuss Voigt Hill
#
# Bulk Modulus (GPa) = 44.33525 61.84797 53.09161
# Shear Modulus (GPa) = 10.89359 22.55988 16.72674
#
# Velocity S-wave (km/s) = 2.41683 3.47799 2.99478
# Velocity P-wave (km/s) = 5.61785 7.02075 6.35811
#
# Compressibility (1/GPa) = 0.02255541
#
# Stress axis : x y z
#
# Youngs Moduli (GPa) = 92.42581 34.76880 81.85040
#
# Poissons Ratio (x) = 0.17805 0.35297
# Poissons Ratio (y) = 0.47330 0.42466
# Poissons Ratio (z) = 0.39857 0.18039
#
# Static dielectric constant tensor:
#      x y z
#    x 3.442810 0.000000 0.000000 
#    y 0.000000 3.097950 0.000000 
#    z 0.000000 0.000000 3.639440 
# 
# 
# High freq. dielectric constant tensor:
#      x y z
#    x 1.722140 0.000000 0.000000 
#    y 0.000000 1.661240 0.000000 
#    z 0.000000 0.000000 1.733590 
# 
# From -- ./inp_files/76909.got.cif
#   From: 2010.03.12/outbox.cif.g09.slc.cpg/sg65_39_cif.got.tgz:76909.got - 2010.04.10 20:52:16.
