data_PCOD8273820
_publ_section_title
;
Structure prediction by ZEFSAII (Michael W. Deem and Ramdas Pophale) SiO2 
 PCOD8273820
Probable space group: C M M M
;
_chemical_formula_sum "Si O2"
_cell_formula_units_Z 72
_cell_length_a 8.902271
_cell_length_b 30.923702
_cell_length_c 14.084931
_cell_angle_alpha 90.000000
_cell_angle_beta 90.000000
_cell_angle_gamma 90.000000
_cell_volume 3877.457212
_symmetry_space_group_name_H-M "C M M M"
_symmetry_group_IT_number 65
_symmetry_cell_setting 'orthorhombic'
loop_
_space_group_symop_operation_xyz
x,y,z
-x,-y,z
x,-y,-z
-x,y,-z
-x,-y,-z
x,y,-z
-x,y,z
x,-y,z
1/2+x,1/2+y,z
1/2-x,1/2-y,z
1/2+x,1/2-y,-z
1/2-x,1/2+y,-z
1/2-x,1/2-y,-z
1/2+x,1/2+y,-z
1/2-x,1/2+y,z
1/2+x,1/2-y,z
loop_
_atom_site_type_symbol
_atom_site_label
_atom_site_fract_x
_atom_site_fract_y
_atom_site_fract_z
Si Si1 0.823744 0.000000 0.396903
Si Si2 0.327842 0.450842 0.111799
Si Si3 0.324273 0.294090 0.890039
Si Si4 0.675885 0.126652 0.215270
Si Si5 0.824429 0.906181 0.389326
O O1 0.782106 0.045578 0.347481
O O2 0.745011 0.000000 0.500000
O O3 0.000000 0.000000 0.413878
O O4 0.500000 0.439267 0.137564
O O5 0.292575 0.500000 0.144674
O O6 0.218077 0.418139 0.164610
O O7 0.301629 0.446328 0.000000
O O8 0.500000 0.291094 0.871518
O O9 0.250000 0.250000 0.852362
O O10 0.258707 0.334061 0.833900
O O11 0.285451 0.301293 0.000000
O O12 0.500000 0.134243 0.208871
O O13 0.727628 0.126424 0.325596
O O14 0.780120 0.901520 0.500000
O O15 0.000000 0.896412 0.375543
#
# Coordination Sequence:
#
# PCOD8273820 Si02
#       5
#     8  16  16  16  16
#     4   7  12  26  49  73  94 125 176 231 275 314
#     4   9  19  36  55  74 101 142 190 233 271 318
#     4  10  21  39  63  88 113 141 178 225 275 327
#     4  12  24  34  51  81 116 149 181 221 273 333
#     4   9  18  34  55  77 103 141 190 238 279 322
#
# _framework density 18.568871000000001
#
# number of rings (size 3 to 8) (size 9 to 14) (size 15 to 20)
#    0.000    2.333    0.000    5.333    1.556    5.333 
#    0.000    1.111    0.000    2.667    0.000    0.000 
#    0.000    0.000    0.000    0.000    0.000    0.000 
#
# Total GULP energy -446224.878634 kJ/mol
# GULP energy per Si atom -12395.135518 kJ/mol
# Density = 1.852661 g / cm^3
# Si number density = 18.568871 Si / 1000 Ang^3
#
#
#
# Elastic Constant Matrix: (Units=GPa)
#
#
# Indices 1 2 3 4 5 6 
#
# 1 42.8468 34.7724 35.1513 0.0000 0.0000 0.0000
# 2 34.7724 107.2774 54.3304 0.0000 0.0000 0.0000
# 3 35.1513 54.3304 69.2150 0.0000 0.0000 0.0000
# 4 0.0000 0.0000 0.0000 11.2337 0.0000 0.0000
# 5 0.0000 0.0000 0.0000 0.0000 21.3499 0.0000
# 6 0.0000 0.0000 0.0000 0.0000 0.0000 30.8328
#
#
#
# Elastic Compliance Matrix: (Units=1/GPa)
#
#
# Indices 1 2 3 4 5 6 
#
# 1 0.041327 -0.004591 -0.017384 0.000000 0.000000 0.000000
# 2 -0.004591 0.015983 -0.010214 0.000000 0.000000 0.000000
# 3 -0.017384 -0.010214 0.031294 0.000000 0.000000 0.000000
# 4 0.000000 0.000000 0.000000 0.089018 0.000000 0.000000
# 5 0.000000 0.000000 0.000000 0.000000 0.046839 0.000000
# 6 0.000000 0.000000 0.000000 0.000000 0.000000 0.032433
#
#
# Mechanical properties :
#
#
# Convention : Reuss Voigt Hill
#
# Bulk Modulus (GPa) = 41.28030 51.98304 46.63167
# Shear Modulus (GPa) = 15.18157 19.02229 17.10193
#
# Velocity S-wave (km/s) = 2.86244 3.20413 3.03809
# Velocity P-wave (km/s) = 5.76229 6.46096 6.12160
#
# Compressibility (1/GPa) = 0.02422463
#
# Stress axis : x y z
#
# Youngs Moduli (GPa) = 24.19721 62.56801 31.95518
#
# Poissons Ratio (x) = 0.28727 0.55552
# Poissons Ratio (y) = 0.11110 0.32638
# Poissons Ratio (z) = 0.42065 0.63906
#
# Static dielectric constant tensor:
#      x y z
#    x 3.236360 0.000000 0.000000 
#    y 0.000000 3.505020 0.000000 
#    z 0.000000 0.000000 3.419500 
# 
# 
# High freq. dielectric constant tensor:
#      x y z
#    x 1.701840 0.000000 0.000000 
#    y 0.000000 1.710660 0.000000 
#    z 0.000000 0.000000 1.721760 
# 
# From -- ./inp_files/36613.got.cif
#   From: 2010.03.12/outbox.cif.g09.slc.cpg/sg65_19_cif.got.tgz:36613.got - 2010.04.10 20:52:16.
