data_PCOD8273628
_publ_section_title
;
Structure prediction by ZEFSAII (Michael W. Deem and Ramdas Pophale) SiO2 
 PCOD8273628
Probable space group: C M M M
;
_chemical_formula_sum "Si O2"
_cell_formula_units_Z 88
_cell_length_a 23.179561
_cell_length_b 8.829578
_cell_length_c 22.543090
_cell_angle_alpha 90.000000
_cell_angle_beta 90.000000
_cell_angle_gamma 90.000000
_cell_volume 4613.798239
_symmetry_space_group_name_H-M "C M M M"
_symmetry_group_IT_number 65
_symmetry_cell_setting 'orthorhombic'
loop_
_space_group_symop_operation_xyz
x,y,z
-x,-y,z
x,-y,-z
-x,y,-z
-x,-y,-z
x,y,-z
-x,y,z
x,-y,z
1/2+x,1/2+y,z
1/2-x,1/2-y,z
1/2+x,1/2-y,-z
1/2-x,1/2+y,-z
1/2-x,1/2-y,-z
1/2+x,1/2+y,-z
1/2-x,1/2+y,z
1/2+x,1/2-y,z
loop_
_atom_site_type_symbol
_atom_site_label
_atom_site_fract_x
_atom_site_fract_y
_atom_site_fract_z
Si Si1 0.689616 0.677734 0.726465
Si Si2 0.310445 0.676741 0.931205
Si Si3 0.312393 0.678821 0.500000
Si Si4 0.114841 0.823492 0.387694
Si Si5 0.000000 0.320315 0.780333
Si Si6 0.000000 0.321374 0.353603
Si Si7 0.120913 0.680013 0.168351
O O1 0.696877 0.500000 0.737561
O O2 0.750000 0.750000 0.708084
O O3 0.645988 0.714307 0.673699
O O4 0.667156 0.756484 0.785602
O O5 0.307672 0.500000 0.916425
O O6 0.250000 0.750000 0.911388
O O7 0.362930 0.754371 0.895958
O O8 0.322751 0.708091 0.000000
O O9 0.305021 0.500000 0.500000
O O10 0.250000 0.750000 0.500000
O O11 0.346259 0.735077 0.441874
O O12 0.055200 0.734191 0.389748
O O13 0.101457 0.000000 0.394411
O O14 0.943229 0.262194 0.814822
O O15 0.000000 0.500000 0.777380
O O16 0.000000 0.253811 0.713475
O O17 0.000000 0.500000 0.351023
O O18 0.124168 0.500000 0.167588
#
# Coordination Sequence:
#
# PCOD8273628 Si02
#       7
#    16  16   8  16   8   8  16
#     4  11  22  35  54  82 113 146 187 233 287 343
#     4  10  21  38  59  85 117 152 191 234 282 336
#     4  10  22  41  62  85 117 154 194 240 291 348
#     4  10  22  39  59  84 115 152 192 236 289 345
#     4   9  20  37  57  83 113 149 188 234 285 332
#     4  11  21  38  62  86 115 150 194 240 286 339
#     4  11  21  37  59  83 113 148 190 236 285 337
#
# _framework density 19.073222999999999
#
# number of rings (size 3 to 8) (size 9 to 14) (size 15 to 20)
#    0.000    1.636    1.818    3.000    0.000    2.909 
#    0.000    4.091    0.000    2.727    0.000    0.000 
#    0.000    0.000    0.000    0.000    0.000    0.000 
#
# Total GULP energy -545840.809986 kJ/mol
# GULP energy per Si atom -12405.472954 kJ/mol
# Density = 1.902981 g / cm^3
# Si number density = 19.073223 Si / 1000 Ang^3
#
#
#
# Elastic Constant Matrix: (Units=GPa)
#
#
# Indices 1 2 3 4 5 6 
#
# 1 151.6669 54.2481 58.3307 0.0000 0.0000 0.0000
# 2 54.2481 77.3277 41.1124 0.0000 0.0000 0.0000
# 3 58.3307 41.1124 104.9632 0.0000 0.0000 0.0000
# 4 0.0000 0.0000 0.0000 21.5790 0.0000 0.0000
# 5 0.0000 0.0000 0.0000 0.0000 36.5891 0.0000
# 6 0.0000 0.0000 0.0000 0.0000 0.0000 31.9270
#
#
#
# Elastic Compliance Matrix: (Units=1/GPa)
#
#
# Indices 1 2 3 4 5 6 
#
# 1 0.009695 -0.004972 -0.003440 0.000000 0.000000 0.000000
# 2 -0.004972 0.018884 -0.004633 0.000000 0.000000 0.000000
# 3 -0.003440 -0.004633 0.013254 0.000000 0.000000 0.000000
# 4 0.000000 0.000000 0.000000 0.046341 0.000000 0.000000
# 5 0.000000 0.000000 0.000000 0.000000 0.027331 0.000000
# 6 0.000000 0.000000 0.000000 0.000000 0.000000 0.031321
#
#
# Mechanical properties :
#
#
# Convention : Reuss Voigt Hill
#
# Bulk Modulus (GPa) = 63.52874 71.26000 67.39437
# Shear Modulus (GPa) = 28.06407 30.03679 29.05043
#
# Velocity S-wave (km/s) = 3.84003 3.97270 3.90693
# Velocity P-wave (km/s) = 7.28294 7.64758 7.46749
#
# Compressibility (1/GPa) = 0.01574091
#
# Stress axis : x y z
#
# Youngs Moduli (GPa) = 103.14619 52.95621 75.45092
#
# Poissons Ratio (x) = 0.26332 0.25956
# Poissons Ratio (y) = 0.51288 0.34957
# Poissons Ratio (z) = 0.35484 0.24535
#
# Static dielectric constant tensor:
#      x y z
#    x 3.580840 0.000000 0.000000 
#    y 0.000000 3.434400 0.000000 
#    z 0.000000 0.000000 3.573970 
# 
# 
# High freq. dielectric constant tensor:
#      x y z
#    x 1.748020 0.000000 0.000000 
#    y 0.000000 1.740250 0.000000 
#    z 0.000000 0.000000 1.745690 
# 
# From -- ./inp_files/71053.got.cif
#   From: 2010.03.12/outbox.cif.g09.slc.cpg/sg65_36_cif.got.tgz:71053.got - 2010.04.10 20:52:16.
