data_PCOD8273927
_publ_section_title
;
Structure prediction by ZEFSAII (Michael W. Deem and Ramdas Pophale) SiO2 
 PCOD8273927
Probable space group: C M M M
;
_chemical_formula_sum "Si O2"
_cell_formula_units_Z 64
_cell_length_a 26.031001
_cell_length_b 8.006850
_cell_length_c 14.917605
_cell_angle_alpha 90.000000
_cell_angle_beta 90.000000
_cell_angle_gamma 90.000000
_cell_volume 3109.221519
_symmetry_space_group_name_H-M "C M M M"
_symmetry_group_IT_number 65
_symmetry_cell_setting 'orthorhombic'
loop_
_space_group_symop_operation_xyz
x,y,z
-x,-y,z
x,-y,-z
-x,y,-z
-x,-y,-z
x,y,-z
-x,y,z
x,-y,z
1/2+x,1/2+y,z
1/2-x,1/2-y,z
1/2+x,1/2-y,-z
1/2-x,1/2+y,-z
1/2-x,1/2-y,-z
1/2+x,1/2+y,-z
1/2-x,1/2+y,z
1/2+x,1/2-y,z
loop_
_atom_site_type_symbol
_atom_site_label
_atom_site_fract_x
_atom_site_fract_y
_atom_site_fract_z
Si Si1 0.000000 0.189462 0.894081
Si Si2 0.873469 0.691833 0.396829
Si Si3 0.943446 0.000000 0.605633
Si Si4 0.192798 0.692244 0.233052
Si Si5 0.891356 0.695408 0.099865
O O1 0.052360 0.271878 0.856829
O O2 0.000000 0.000000 0.862984
O O3 0.000000 0.214125 0.000000
O O4 0.857247 0.719479 0.500000
O O5 0.893657 0.500000 0.382105
O O6 0.915577 0.827627 0.365677
O O7 0.823410 0.727149 0.335987
O O8 0.948765 0.000000 0.500000
O O9 0.000000 0.000000 0.650398
O O10 0.190840 0.500000 0.211415
O O11 0.250000 0.750000 0.214647
O O12 0.152092 0.777762 0.164307
O O13 0.883088 0.500000 0.092893
O O14 0.886686 0.775929 0.000000
#
# Coordination Sequence:
#
# PCOD8273927 Si02
#       5
#     8  16   8  16  16
#     4   9  17  31  53  81 108 135 174 222 268 318
#     4   9  19  37  57  80 114 149 185 229 277 328
#     4   9  18  34  58  86 113 147 189 226 272 333
#     4  10  22  37  54  79 107 140 184 228 275 329
#     4   9  18  35  56  77 106 143 179 217 268 328
#
# _framework density 20.583929999999999
#
# number of rings (size 3 to 8) (size 9 to 14) (size 15 to 20)
#    0.000    2.750    0.000    0.375    1.750    4.000 
#    2.250    2.500    0.000    0.000    0.000    0.000 
#    0.000    0.000    0.000    0.000    0.000    0.000 
#
# Total GULP energy -396516.151343 kJ/mol
# GULP energy per Si atom -12391.129729 kJ/mol
# Density = 2.053708 g / cm^3
# Si number density = 20.583930 Si / 1000 Ang^3
#
#
#
# Elastic Constant Matrix: (Units=GPa)
#
#
# Indices 1 2 3 4 5 6 
#
# 1 198.1177 39.7319 79.5314 0.0000 0.0000 0.0000
# 2 39.7319 58.6169 26.9883 0.0000 0.0000 0.0000
# 3 79.5314 26.9883 93.1723 0.0000 0.0000 0.0000
# 4 0.0000 0.0000 0.0000 11.3525 0.0000 0.0000
# 5 0.0000 0.0000 0.0000 0.0000 32.5882 0.0000
# 6 0.0000 0.0000 0.0000 0.0000 0.0000 32.7624
#
#
#
# Elastic Compliance Matrix: (Units=1/GPa)
#
#
# Indices 1 2 3 4 5 6 
#
# 1 0.008016 -0.002635 -0.006080 0.000000 0.000000 0.000000
# 2 -0.002635 0.020551 -0.003704 0.000000 0.000000 0.000000
# 3 -0.006080 -0.003704 0.016995 0.000000 0.000000 0.000000
# 4 0.000000 0.000000 0.000000 0.088087 0.000000 0.000000
# 5 0.000000 0.000000 0.000000 0.000000 0.030686 0.000000
# 6 0.000000 0.000000 0.000000 0.000000 0.000000 0.030523
#
#
# Mechanical properties :
#
#
# Convention : Reuss Voigt Hill
#
# Bulk Modulus (GPa) = 48.24769 71.37891 59.81330
# Shear Modulus (GPa) = 22.06497 28.91762 25.49130
#
# Velocity S-wave (km/s) = 3.27762 3.75222 3.52292
# Velocity P-wave (km/s) = 6.14932 7.31604 6.75790
#
# Compressibility (1/GPa) = 0.02072638
#
# Stress axis : x y z
#
# Youngs Moduli (GPa) = 124.74335 48.65926 58.83983
#
# Poissons Ratio (x) = 0.12820 0.35773
# Poissons Ratio (y) = 0.32864 0.21794
# Poissons Ratio (z) = 0.75840 0.18023
#
# Static dielectric constant tensor:
#      x y z
#    x 2.839720 0.000000 0.000000 
#    y 0.000000 3.707300 0.000000 
#    z 0.000000 0.000000 3.789050 
# 
# 
# High freq. dielectric constant tensor:
#      x y z
#    x 1.796320 0.000000 0.000000 
#    y 0.000000 1.796650 0.000000 
#    z 0.000000 0.000000 1.798860 
# 
# From -- ./inp_files/36015.got.cif
#   From: 2010.03.12/outbox.cif.g09.slc.cpg/sg65_19_cif.got.tgz:36015.got - 2010.04.10 20:52:16.
