data_PCOD8273791
_publ_section_title
;
Structure prediction by ZEFSAII (Michael W. Deem and Ramdas Pophale) SiO2 
 PCOD8273791
Probable space group: C M M M
;
_chemical_formula_sum "Si O2"
_cell_formula_units_Z 76
_cell_length_a 13.195006
_cell_length_b 17.928041
_cell_length_c 19.114262
_cell_angle_alpha 90.000000
_cell_angle_beta 90.000000
_cell_angle_gamma 90.000000
_cell_volume 4521.681451
_symmetry_space_group_name_H-M "C M M M"
_symmetry_group_IT_number 65
_symmetry_cell_setting 'orthorhombic'
loop_
_space_group_symop_operation_xyz
x,y,z
-x,-y,z
x,-y,-z
-x,y,-z
-x,-y,-z
x,y,-z
-x,y,z
x,-y,z
1/2+x,1/2+y,z
1/2-x,1/2-y,z
1/2+x,1/2-y,-z
1/2-x,1/2+y,-z
1/2-x,1/2-y,-z
1/2+x,1/2+y,-z
1/2-x,1/2+y,z
1/2+x,1/2-y,z
loop_
_atom_site_type_symbol
_atom_site_label
_atom_site_fract_x
_atom_site_fract_y
_atom_site_fract_z
Si Si1 0.244899 0.000000 0.000000
Si Si2 0.384537 0.298252 0.151481
Si Si3 0.810780 0.356615 0.209686
Si Si4 0.115427 0.851457 0.000000
Si Si5 0.610828 0.911726 0.500000
Si Si6 0.378990 0.085811 0.348983
Si Si7 0.115004 0.500000 0.867161
O O1 0.178939 0.073660 0.000000
O O2 0.313496 0.000000 0.932755
O O3 0.500000 0.322373 0.167755
O O4 0.309196 0.354699 0.192016
O O5 0.365709 0.214684 0.176807
O O6 0.361074 0.301716 0.068418
O O7 0.825034 0.359589 0.293396
O O8 0.865837 0.428187 0.179509
O O9 0.000000 0.877979 0.000000
O O10 0.500000 0.874324 0.500000
O O11 0.663989 0.889420 0.426220
O O12 0.597217 0.000000 0.500000
O O13 0.500000 0.095420 0.345881
O O14 0.349551 0.000000 0.333292
O O15 0.000000 0.500000 0.893515
#
# Coordination Sequence:
#
# PCOD8273791 Si02
#       7
#     4  16  16   8   8  16   8
#     4  12  22  38  52  78 102 132 170 218 266 306
#     4  10  22  38  55  74  97 134 178 214 252 303
#     4  11  21  34  55  76 106 135 167 208 258 310
#     4  10  21  39  58  72  95 134 179 221 255 296
#     4   7  12  22  40  71 105 135 165 198 240 295
#     4   9  15  26  47  75 107 136 164 203 251 298
#     4  12  23  35  51  79 109 134 163 210 265 314
#
# _framework density 16.807908000000001
#
# number of rings (size 3 to 8) (size 9 to 14) (size 15 to 20)
#    0.000    2.000    3.158    3.474    0.000    2.526 
#    0.000    2.632    0.000    2.526    0.000    2.211 
#    0.000    2.526    0.000    0.000    0.000    0.000 
#
# Total GULP energy -470966.719179 kJ/mol
# GULP energy per Si atom -12393.861031 kJ/mol
# Density = 1.676965 g / cm^3
# Si number density = 16.807908 Si / 1000 Ang^3
#
#
#
# Elastic Constant Matrix: (Units=GPa)
#
#
# Indices 1 2 3 4 5 6 
#
# 1 90.6239 27.5051 53.1562 0.0000 0.0000 0.0000
# 2 27.5051 73.9950 51.1955 0.0000 0.0000 0.0000
# 3 53.1562 51.1955 174.6517 0.0000 0.0000 0.0000
# 4 0.0000 0.0000 0.0000 25.1110 0.0000 0.0000
# 5 0.0000 0.0000 0.0000 0.0000 21.3949 0.0000
# 6 0.0000 0.0000 0.0000 0.0000 0.0000 14.9068
#
#
#
# Elastic Compliance Matrix: (Units=1/GPa)
#
#
# Indices 1 2 3 4 5 6 
#
# 1 0.013882 -0.002806 -0.003403 0.000000 0.000000 0.000000
# 2 -0.002806 0.017520 -0.004282 0.000000 0.000000 0.000000
# 3 -0.003403 -0.004282 0.008016 0.000000 0.000000 0.000000
# 4 0.000000 0.000000 0.000000 0.039823 0.000000 0.000000
# 5 0.000000 0.000000 0.000000 0.000000 0.046740 0.000000
# 6 0.000000 0.000000 0.000000 0.000000 0.000000 0.067084
#
#
# Mechanical properties :
#
#
# Convention : Reuss Voigt Hill
#
# Bulk Modulus (GPa) = 54.23602 66.99823 60.61713
# Shear Modulus (GPa) = 22.70753 26.11012 24.40883
#
# Velocity S-wave (km/s) = 3.67959 3.94565 3.81494
# Velocity P-wave (km/s) = 7.09864 7.79135 7.45305
#
# Compressibility (1/GPa) = 0.01843793
#
# Stress axis : x y z
#
# Youngs Moduli (GPa) = 72.03534 57.07840 124.74575
#
# Poissons Ratio (x) = 0.16016 0.42445
# Poissons Ratio (y) = 0.20213 0.53410
# Poissons Ratio (z) = 0.24510 0.24438
#
# Static dielectric constant tensor:
#      x y z
#    x 3.135820 0.000000 0.000000 
#    y 0.000000 3.270470 0.000000 
#    z 0.000000 0.000000 3.646470 
# 
# 
# High freq. dielectric constant tensor:
#      x y z
#    x 1.630720 0.000000 0.000000 
#    y 0.000000 1.626240 0.000000 
#    z 0.000000 0.000000 1.661670 
# 
# From -- ./inp_files/52947.got.cif
#   From: 2010.03.12/outbox.cif.g09.slc.cpg/sg65_27_cif.got.tgz:52947.got - 2010.04.10 20:52:16.
