data_PCOD8273644
_publ_section_title
;
Structure prediction by ZEFSAII (Michael W. Deem and Ramdas Pophale) SiO2 
 PCOD8273644
Probable space group: C M M M
;
_chemical_formula_sum "Si O2"
_cell_formula_units_Z 72
_cell_length_a 28.947011
_cell_length_b 9.039292
_cell_length_c 15.005692
_cell_angle_alpha 90.000000
_cell_angle_beta 90.000000
_cell_angle_gamma 90.000000
_cell_volume 3926.396646
_symmetry_space_group_name_H-M "C M M M"
_symmetry_group_IT_number 65
_symmetry_cell_setting 'orthorhombic'
loop_
_space_group_symop_operation_xyz
x,y,z
-x,-y,z
x,-y,-z
-x,y,-z
-x,-y,-z
x,y,-z
-x,y,z
x,-y,z
1/2+x,1/2+y,z
1/2-x,1/2-y,z
1/2+x,1/2-y,-z
1/2-x,1/2+y,-z
1/2-x,1/2-y,-z
1/2+x,1/2+y,-z
1/2-x,1/2+y,z
1/2+x,1/2-y,z
loop_
_atom_site_type_symbol
_atom_site_label
_atom_site_fract_x
_atom_site_fract_y
_atom_site_fract_z
Si Si1 0.449798 0.674220 0.000000
Si Si2 0.297691 0.173340 0.899664
Si Si3 0.862164 0.325799 0.737748
Si Si4 0.945889 0.826968 0.192852
Si Si5 0.296899 0.671236 0.604299
O O1 0.426421 0.719020 0.093698
O O2 0.456892 0.500000 0.000000
O O3 0.500000 0.749981 0.000000
O O4 0.250000 0.250000 0.872556
O O5 0.336369 0.222114 0.828856
O O6 0.288821 0.000000 0.894960
O O7 0.313221 0.220762 0.000000
O O8 0.861363 0.500000 0.722537
O O9 0.915097 0.269092 0.740003
O O10 0.839364 0.247109 0.653622
O O11 0.000000 0.787307 0.204205
O O12 0.937996 0.000000 0.211343
O O13 0.305446 0.693362 0.500000
O O14 0.293377 0.500000 0.630762
O O15 0.250000 0.750000 0.635531
#
# Coordination Sequence:
#
# PCOD8273644 Si02
#       5
#     8  16  16  16  16
#     4   7  12  26  47  69  94 129 176 225 267 305
#     4   9  19  34  48  67 100 139 176 211 250 301
#     4  11  22  33  52  79 108 142 178 220 265 318
#     4   9  18  33  52  74 103 140 183 229 271 314
#     4  10  21  38  60  84 110 138 171 216 268 321
#
# _framework density 18.337423999999999
#
# number of rings (size 3 to 8) (size 9 to 14) (size 15 to 20)
#    0.000    2.556    0.000    3.333    1.556    5.333 
#    0.000    0.000    0.000    2.667    0.000    4.667 
#    0.000    0.000    0.000    0.000    0.000    0.000 
#
# Total GULP energy -446201.475369 kJ/mol
# GULP energy per Si atom -12394.485427 kJ/mol
# Density = 1.829569 g / cm^3
# Si number density = 18.337424 Si / 1000 Ang^3
#
#
#
# Elastic Constant Matrix: (Units=GPa)
#
#
# Indices 1 2 3 4 5 6 
#
# 1 105.9848 54.1865 49.9117 0.0000 0.0000 0.0000
# 2 54.1865 81.8388 45.6237 0.0000 0.0000 0.0000
# 3 49.9117 45.6237 62.2552 0.0000 0.0000 0.0000
# 4 0.0000 0.0000 0.0000 22.2562 0.0000 0.0000
# 5 0.0000 0.0000 0.0000 0.0000 21.8109 0.0000
# 6 0.0000 0.0000 0.0000 0.0000 0.0000 32.2425
#
#
#
# Elastic Compliance Matrix: (Units=1/GPa)
#
#
# Indices 1 2 3 4 5 6 
#
# 1 0.016789 -0.006108 -0.008984 0.000000 0.000000 0.000000
# 2 -0.006108 0.022882 -0.011872 0.000000 0.000000 0.000000
# 3 -0.008984 -0.011872 0.031966 0.000000 0.000000 0.000000
# 4 0.000000 0.000000 0.000000 0.044931 0.000000 0.000000
# 5 0.000000 0.000000 0.000000 0.000000 0.045849 0.000000
# 6 0.000000 0.000000 0.000000 0.000000 0.000000 0.031015
#
#
# Mechanical properties :
#
#
# Convention : Reuss Voigt Hill
#
# Bulk Modulus (GPa) = 56.46866 61.05807 58.76337
# Shear Modulus (GPa) = 19.74238 21.95238 20.84738
#
# Velocity S-wave (km/s) = 3.28474 3.46372 3.37542
# Velocity P-wave (km/s) = 6.72660 7.02607 6.87797
#
# Compressibility (1/GPa) = 0.01770894
#
# Stress axis : x y z
#
# Youngs Moduli (GPa) = 59.56334 43.70327 31.28300
#
# Poissons Ratio (x) = 0.26692 0.28105
# Poissons Ratio (y) = 0.36379 0.37140
# Poissons Ratio (z) = 0.53512 0.51885
#
# Static dielectric constant tensor:
#      x y z
#    x 3.262100 0.000000 0.000000 
#    y 0.000000 3.254210 0.000000 
#    z 0.000000 0.000000 3.388980 
# 
# 
# High freq. dielectric constant tensor:
#      x y z
#    x 1.702040 0.000000 0.000000 
#    y 0.000000 1.704290 0.000000 
#    z 0.000000 0.000000 1.699050 
# 
# From -- ./inp_files/36587.got.cif
#   From: 2010.03.12/outbox.cif.g09.slc.cpg/sg65_19_cif.got.tgz:36587.got - 2010.04.10 20:52:16.
