data_PCOD8273636
_publ_section_title
;
Structure prediction by ZEFSAII (Michael W. Deem and Ramdas Pophale) SiO2 
 PCOD8273636
Probable space group: C M M M
;
_chemical_formula_sum "Si O2"
_cell_formula_units_Z 80
_cell_length_a 15.611105
_cell_length_b 29.226867
_cell_length_c 8.976452
_cell_angle_alpha 90.000000
_cell_angle_beta 90.000000
_cell_angle_gamma 90.000000
_cell_volume 4095.629109
_symmetry_space_group_name_H-M "C M M M"
_symmetry_group_IT_number 65
_symmetry_cell_setting 'orthorhombic'
loop_
_space_group_symop_operation_xyz
x,y,z
-x,-y,z
x,-y,-z
-x,y,-z
-x,-y,-z
x,y,-z
-x,y,z
x,-y,z
1/2+x,1/2+y,z
1/2-x,1/2-y,z
1/2+x,1/2-y,-z
1/2-x,1/2+y,-z
1/2-x,1/2-y,-z
1/2+x,1/2+y,-z
1/2-x,1/2+y,z
1/2+x,1/2-y,z
loop_
_atom_site_type_symbol
_atom_site_label
_atom_site_fract_x
_atom_site_fract_y
_atom_site_fract_z
Si Si1 0.154754 0.300062 0.173378
Si Si2 0.240726 0.052044 0.176967
Si Si3 0.906131 0.604933 0.177422
Si Si4 0.146234 0.199874 0.174082
Si Si5 0.096215 0.888754 0.670560
O O1 0.103969 0.343302 0.241677
O O2 0.124544 0.250839 0.238224
O O3 0.254123 0.309696 0.201383
O O4 0.136478 0.296279 0.000000
O O5 0.330475 0.072602 0.239162
O O6 0.159805 0.079254 0.238064
O O7 0.235062 0.000000 0.232503
O O8 0.237830 0.055507 0.000000
O O9 0.000000 0.586319 0.226789
O O10 0.899240 0.606525 0.000000
O O11 0.093843 0.162729 0.266350
O O12 0.122959 0.195303 0.000000
O O13 0.126400 0.887743 0.500000
O O14 0.000000 0.908657 0.685027
#
# Coordination Sequence:
#
# PCOD8273636 Si02
#       5
#    16  16  16  16  16
#     4   8  14  26  49  82 114 143 176 217 262 306
#     4  10  21  38  60  83 106 136 178 227 277 327
#     4   9  16  28  51  84 117 142 170 214 266 320
#     4   9  16  30  54  81 109 143 184 224 261 309
#     4  11  24  39  55  78 109 145 183 223 274 330
#
# _framework density 19.533018999999999
#
# number of rings (size 3 to 8) (size 9 to 14) (size 15 to 20)
#    0.000    2.600    2.000    1.800    0.000    3.600 
#    0.000    8.000    0.000    0.600    0.000    1.400 
#    0.000    0.000    0.000    0.000    0.000    0.000 
#
# Total GULP energy -495716.265246 kJ/mol
# GULP energy per Si atom -12392.906631 kJ/mol
# Density = 1.948856 g / cm^3
# Si number density = 19.533019 Si / 1000 Ang^3
#
#
#
# Elastic Constant Matrix: (Units=GPa)
#
#
# Indices 1 2 3 4 5 6 
#
# 1 99.3198 58.2987 17.2972 0.0000 0.0000 0.0000
# 2 58.2987 135.0511 22.4526 0.0000 0.0000 0.0000
# 3 17.2972 22.4526 21.6687 0.0000 0.0000 0.0000
# 4 0.0000 0.0000 0.0000 3.3712 0.0000 0.0000
# 5 0.0000 0.0000 0.0000 0.0000 7.8981 0.0000
# 6 0.0000 0.0000 0.0000 0.0000 0.0000 14.9438
#
#
#
# Elastic Compliance Matrix: (Units=1/GPa)
#
#
# Indices 1 2 3 4 5 6 
#
# 1 0.014099 -0.005092 -0.005978 0.000000 0.000000 0.000000
# 2 -0.005092 0.010785 -0.007110 0.000000 0.000000 0.000000
# 3 -0.005978 -0.007110 0.058289 0.000000 0.000000 0.000000
# 4 0.000000 0.000000 0.000000 0.296630 0.000000 0.000000
# 5 0.000000 0.000000 0.000000 0.000000 0.126612 0.000000
# 6 0.000000 0.000000 0.000000 0.000000 0.000000 0.066918
#
#
# Mechanical properties :
#
#
# Convention : Reuss Voigt Hill
#
# Bulk Modulus (GPa) = 21.36217 50.23742 35.79979
# Shear Modulus (GPa) = 7.99621 15.77536 11.88579
#
# Velocity S-wave (km/s) = 2.02548 2.84496 2.46945
# Velocity P-wave (km/s) = 4.05343 6.04705 5.14767
#
# Compressibility (1/GPa) = 0.04681173
#
# Stress axis : x y z
#
# Youngs Moduli (GPa) = 70.92903 92.72215 17.15600
#
# Poissons Ratio (x) = 0.47216 0.10256
# Poissons Ratio (y) = 0.36119 0.12198
# Poissons Ratio (z) = 0.42400 0.65927
#
# Static dielectric constant tensor:
#      x y z
#    x 3.558770 0.000000 0.000000 
#    y 0.000000 3.714200 0.000000 
#    z 0.000000 0.000000 3.021720 
# 
# 
# High freq. dielectric constant tensor:
#      x y z
#    x 1.764800 0.000000 0.000000 
#    y 0.000000 1.769020 0.000000 
#    z 0.000000 0.000000 1.698170 
# 
# From -- ./inp_files/9897.got.cif
#   From: 2010.03.12/outbox.cif.g09.slc.cpg/sg65_5_cif.got.tgz:9897.got - 2010.04.10 20:52:16.
