data_PCOD8273643
_publ_section_title
;
Structure prediction by ZEFSAII (Michael W. Deem and Ramdas Pophale) SiO2 
 PCOD8273643
Probable space group: C M M M
;
_chemical_formula_sum "Si O2"
_cell_formula_units_Z 72
_cell_length_a 9.136955
_cell_length_b 30.667811
_cell_length_c 14.047736
_cell_angle_alpha 90.000000
_cell_angle_beta 90.000000
_cell_angle_gamma 90.000000
_cell_volume 3936.321851
_symmetry_space_group_name_H-M "C M M M"
_symmetry_group_IT_number 65
_symmetry_cell_setting 'orthorhombic'
loop_
_space_group_symop_operation_xyz
x,y,z
-x,-y,z
x,-y,-z
-x,y,-z
-x,-y,-z
x,y,-z
-x,y,z
x,-y,z
1/2+x,1/2+y,z
1/2-x,1/2-y,z
1/2+x,1/2-y,-z
1/2-x,1/2+y,-z
1/2-x,1/2-y,-z
1/2+x,1/2+y,-z
1/2-x,1/2+y,z
1/2+x,1/2-y,z
loop_
_atom_site_type_symbol
_atom_site_label
_atom_site_fract_x
_atom_site_fract_y
_atom_site_fract_z
Si Si1 0.337029 0.500000 0.886835
Si Si2 0.832997 0.583826 0.893657
Si Si3 0.329277 0.705828 0.610101
Si Si4 0.166353 0.049305 0.387719
Si Si5 0.168315 0.372815 0.294322
O O1 0.500000 0.500000 0.844898
O O2 0.258919 0.456340 0.850809
O O3 0.333926 0.500000 0.000000
O O4 0.814512 0.623938 0.820515
O O5 0.000000 0.568035 0.897545
O O6 0.780444 0.597978 0.000000
O O7 0.297733 0.695172 0.500000
O O8 0.500000 0.711338 0.630475
O O9 0.250000 0.750000 0.641708
O O10 0.267874 0.666718 0.672386
O O11 0.190524 0.050915 0.500000
O O12 0.280762 0.081975 0.340491
O O13 0.000000 0.063474 0.363134
O O14 0.195445 0.000000 0.350116
O O15 0.000000 0.364407 0.323374
#
# Coordination Sequence:
#
# PCOD8273643 Si02
#       5
#     8  16  16  16  16
#     4   9  17  29  47  71  96 127 174 227 269 304
#     4   9  19  35  51  69 101 143 180 217 263 313
#     4  10  21  38  60  84 110 138 168 208 261 317
#     4   9  19  35  51  69 100 142 180 213 257 313
#     4  11  22  33  52  80 106 136 177 220 262 311
#
# _framework density 18.291187999999998
#
# number of rings (size 3 to 8) (size 9 to 14) (size 15 to 20)
#    0.000    2.333    0.000    3.000    1.556    8.000 
#    0.000    1.111    0.000    0.667    0.000    0.000 
#    0.000    0.000    0.000    0.000    0.000    0.000 
#
# Total GULP energy -446408.565539 kJ/mol
# GULP energy per Si atom -12400.237932 kJ/mol
# Density = 1.824956 g / cm^3
# Si number density = 18.291188 Si / 1000 Ang^3
#
#
#
# Elastic Constant Matrix: (Units=GPa)
#
#
# Indices 1 2 3 4 5 6 
#
# 1 99.1876 55.9010 38.9091 0.0000 0.0000 0.0000
# 2 55.9010 110.6637 51.2951 0.0000 0.0000 0.0000
# 3 38.9091 51.2951 60.2139 0.0000 0.0000 0.0000
# 4 0.0000 0.0000 0.0000 21.9230 0.0000 0.0000
# 5 0.0000 0.0000 0.0000 0.0000 21.7076 0.0000
# 6 0.0000 0.0000 0.0000 0.0000 0.0000 37.6542
#
#
#
# Elastic Compliance Matrix: (Units=1/GPa)
#
#
# Indices 1 2 3 4 5 6 
#
# 1 0.015080 -0.005124 -0.005379 0.000000 0.000000 0.000000
# 2 -0.005124 0.016674 -0.010893 0.000000 0.000000 0.000000
# 3 -0.005379 -0.010893 0.029363 0.000000 0.000000 0.000000
# 4 0.000000 0.000000 0.000000 0.045614 0.000000 0.000000
# 5 0.000000 0.000000 0.000000 0.000000 0.046067 0.000000
# 6 0.000000 0.000000 0.000000 0.000000 0.000000 0.026557
#
#
# Mechanical properties :
#
#
# Convention : Reuss Voigt Hill
#
# Bulk Modulus (GPa) = 54.57317 62.47506 58.52411
# Shear Modulus (GPa) = 21.90515 24.52095 23.21305
#
# Velocity S-wave (km/s) = 3.46436 3.66538 3.56629
# Velocity P-wave (km/s) = 6.77517 7.22103 7.00165
#
# Compressibility (1/GPa) = 0.01832402
#
# Stress axis : x y z
#
# Youngs Moduli (GPa) = 66.31312 59.97335 34.05629
#
# Poissons Ratio (x) = 0.30731 0.18320
# Poissons Ratio (y) = 0.33980 0.37098
# Poissons Ratio (z) = 0.35671 0.65330
#
# Static dielectric constant tensor:
#      x y z
#    x 3.474600 0.000000 0.000000 
#    y 0.000000 3.212940 0.000000 
#    z 0.000000 0.000000 3.451640 
# 
# 
# High freq. dielectric constant tensor:
#      x y z
#    x 1.717610 0.000000 0.000000 
#    y 0.000000 1.686750 0.000000 
#    z 0.000000 0.000000 1.710360 
# 
# From -- ./inp_files/36943.got.cif
#   From: 2010.03.12/outbox.cif.g09.slc.cpg/sg65_19_cif.got.tgz:36943.got - 2010.04.10 20:52:16.
