data_PCOD8273685
_publ_section_title
;
Structure prediction by ZEFSAII (Michael W. Deem and Ramdas Pophale) SiO2 
 PCOD8273685
Probable space group: C M M M
;
_chemical_formula_sum "Si O2"
_cell_formula_units_Z 104
_cell_length_a 21.604183
_cell_length_b 25.827207
_cell_length_c 9.103404
_cell_angle_alpha 90.000000
_cell_angle_beta 90.000000
_cell_angle_gamma 90.000000
_cell_volume 5079.478278
_symmetry_space_group_name_H-M "C M M M"
_symmetry_group_IT_number 65
_symmetry_cell_setting 'orthorhombic'
loop_
_space_group_symop_operation_xyz
x,y,z
-x,-y,z
x,-y,-z
-x,y,-z
-x,-y,-z
x,y,-z
-x,y,z
x,-y,z
1/2+x,1/2+y,z
1/2-x,1/2-y,z
1/2+x,1/2-y,-z
1/2-x,1/2+y,-z
1/2-x,1/2-y,-z
1/2+x,1/2+y,-z
1/2-x,1/2+y,z
1/2+x,1/2-y,z
loop_
_atom_site_type_symbol
_atom_site_label
_atom_site_fract_x
_atom_site_fract_y
_atom_site_fract_z
Si Si1 0.156756 0.710758 0.672902
Si Si2 0.615098 0.395222 0.825644
Si Si3 0.748282 0.353127 0.828308
Si Si4 0.339047 0.057420 0.168989
Si Si5 0.931394 0.801825 0.330442
Si Si6 0.431395 0.881752 0.672746
Si Si7 0.572958 0.500000 0.325524
O O1 0.167607 0.711315 0.500000
O O2 0.223519 0.698165 0.747750
O O3 0.123891 0.763946 0.725565
O O4 0.108874 0.666961 0.723819
O O5 0.679365 0.367709 0.779476
O O6 0.565383 0.353916 0.766862
O O7 0.605402 0.449895 0.745604
O O8 0.609573 0.404046 0.000000
O O9 0.786438 0.403398 0.778332
O O10 0.752238 0.341848 0.000000
O O11 0.401890 0.066496 0.259437
O O12 0.313844 0.000000 0.199890
O O13 0.355284 0.065986 0.000000
O O14 0.919171 0.816477 0.500000
O O15 0.000000 0.775706 0.316014
O O16 0.432322 0.887596 0.500000
O O17 0.500000 0.874411 0.735935
O O18 0.500000 0.500000 0.287864
O O19 0.584101 0.500000 0.500000
#
# Coordination Sequence:
#
# PCOD8273685 Si02
#       7
#    16  16  16  16  16  16   8
#     4   9  18  34  57  82 110 148 193 236 279 335
#     4  11  24  40  62  90 119 153 193 239 290 348
#     4   9  20  37  56  80 112 149 188 233 287 341
#     4   9  18  32  50  69  95 135 180 226 274 331
#     4  10  21  38  60  86 118 155 194 238 291 347
#     4   9  17  30  48  71 101 136 177 226 279 331
#     4  11  25  45  67  91 121 155 192 239 294 349
#
# _framework density 20.474544000000002
#
# number of rings (size 3 to 8) (size 9 to 14) (size 15 to 20)
#    0.000    2.385    0.000    1.615    1.077    8.000 
#    0.000    4.615    0.000    2.769    0.000    0.000 
#    0.000    0.000    0.000    0.000    0.000    0.000 
#
# Total GULP energy -644581.806841 kJ/mol
# GULP energy per Si atom -12395.803978 kJ/mol
# Density = 2.042794 g / cm^3
# Si number density = 20.474544 Si / 1000 Ang^3
#
#
#
# Elastic Constant Matrix: (Units=GPa)
#
#
# Indices 1 2 3 4 5 6 
#
# 1 99.2613 39.3871 38.3022 0.0000 0.0000 0.0000
# 2 39.3871 118.3390 42.9447 0.0000 0.0000 0.0000
# 3 38.3022 42.9447 53.5077 0.0000 0.0000 0.0000
# 4 0.0000 0.0000 0.0000 33.4009 0.0000 0.0000
# 5 0.0000 0.0000 0.0000 0.0000 31.2062 0.0000
# 6 0.0000 0.0000 0.0000 0.0000 0.0000 25.4001
#
#
#
# Elastic Compliance Matrix: (Units=1/GPa)
#
#
# Indices 1 2 3 4 5 6 
#
# 1 0.014094 -0.001453 -0.008923 0.000000 0.000000 0.000000
# 2 -0.001453 0.012073 -0.008649 0.000000 0.000000 0.000000
# 3 -0.008923 -0.008649 0.032018 0.000000 0.000000 0.000000
# 4 0.000000 0.000000 0.000000 0.029939 0.000000 0.000000
# 5 0.000000 0.000000 0.000000 0.000000 0.032045 0.000000
# 6 0.000000 0.000000 0.000000 0.000000 0.000000 0.039370
#
#
# Mechanical properties :
#
#
# Convention : Reuss Voigt Hill
#
# Bulk Modulus (GPa) = 49.66590 56.93065 53.29828
# Shear Modulus (GPa) = 24.47378 28.03305 26.25342
#
# Velocity S-wave (km/s) = 3.46110 3.70424 3.58473
# Velocity P-wave (km/s) = 6.34684 6.79420 6.57432
#
# Compressibility (1/GPa) = 0.02013454
#
# Stress axis : x y z
#
# Youngs Moduli (GPa) = 70.95233 82.83153 31.23252
#
# Poissons Ratio (x) = 0.12035 0.27868
# Poissons Ratio (y) = 0.10309 0.27014
# Poissons Ratio (z) = 0.63309 0.71644
#
# Static dielectric constant tensor:
#      x y z
#    x 3.967160 0.000000 0.000000 
#    y 0.000000 3.769810 0.000000 
#    z 0.000000 0.000000 3.525840 
# 
# 
# High freq. dielectric constant tensor:
#      x y z
#    x 1.808190 0.000000 0.000000 
#    y 0.000000 1.802630 0.000000 
#    z 0.000000 0.000000 1.786590 
# 
# From -- ./inp_files/12447.got.cif
#   From: 2010.03.12/outbox.cif.g09.slc.cpg/sg65_7_cif.got.tgz:12447.got - 2010.04.10 20:52:16.
