data_PCOD8273911
_publ_section_title
;
Structure prediction by ZEFSAII (Michael W. Deem and Ramdas Pophale) SiO2 
 PCOD8273911
Probable space group: C M M M
;
_chemical_formula_sum "Si O2"
_cell_formula_units_Z 56
_cell_length_a 29.166987
_cell_length_b 9.438803
_cell_length_c 10.472080
_cell_angle_alpha 90.000000
_cell_angle_beta 90.000000
_cell_angle_gamma 90.000000
_cell_volume 2882.978750
_symmetry_space_group_name_H-M "C M M M"
_symmetry_group_IT_number 65
_symmetry_cell_setting 'orthorhombic'
loop_
_space_group_symop_operation_xyz
x,y,z
-x,-y,z
x,-y,-z
-x,y,-z
-x,-y,-z
x,y,-z
-x,y,z
x,-y,z
1/2+x,1/2+y,z
1/2-x,1/2-y,z
1/2+x,1/2-y,-z
1/2-x,1/2+y,-z
1/2-x,1/2-y,-z
1/2+x,1/2+y,-z
1/2-x,1/2+y,z
1/2+x,1/2-y,z
loop_
_atom_site_type_symbol
_atom_site_label
_atom_site_fract_x
_atom_site_fract_y
_atom_site_fract_z
Si Si1 0.947867 0.330889 0.724874
Si Si2 0.053682 0.347330 0.000000
Si Si3 0.133678 0.161799 0.359194
Si Si4 0.296143 0.334980 0.855500
O O1 0.941852 0.500000 0.719323
O O2 0.934678 0.269098 0.866942
O O3 0.912623 0.254319 0.631659
O O4 0.000000 0.290620 0.686981
O O5 0.078897 0.500000 0.000000
O O6 0.000000 0.377131 0.000000
O O7 0.156913 0.173766 0.500000
O O8 0.167363 0.220028 0.248945
O O9 0.120353 0.000000 0.328682
O O10 0.285396 0.500000 0.834455
O O11 0.250000 0.250000 0.830799
O O12 0.314605 0.307022 0.000000
#
# Coordination Sequence:
#
# PCOD8273911 Si02
#       4
#    16   8  16  16
#     4   9  18  33  53  77 106 141 182 225 265 308
#     4   7  12  26  47  71  98 127 164 215 268 305
#     4  10  22  37  52  76 111 146 177 214 264 316
#     4   9  19  37  59  81 105 134 171 216 265 317
#
# _framework density 19.424354000000001
#
# number of rings (size 3 to 8) (size 9 to 14) (size 15 to 20)
#    0.000    3.000    0.000    1.714    2.000    3.429 
#    0.000    2.857    0.000    2.571    0.000    0.000 
#    0.000    0.000    0.000    0.000    0.000    0.000 
#
# Total GULP energy -346895.999660 kJ/mol
# GULP energy per Si atom -12389.142845 kJ/mol
# Density = 1.938014 g / cm^3
# Si number density = 19.424354 Si / 1000 Ang^3
#
#
#
# Elastic Constant Matrix: (Units=GPa)
#
#
# Indices 1 2 3 4 5 6 
#
# 1 105.6836 42.0231 66.8055 0.0000 0.0000 0.0000
# 2 42.0231 41.6944 32.6504 0.0000 0.0000 0.0000
# 3 66.8055 32.6504 123.7422 0.0000 0.0000 0.0000
# 4 0.0000 0.0000 0.0000 709.8619 0.0000 0.0000
# 5 0.0000 0.0000 0.0000 0.0000 24.9964 0.0000
# 6 0.0000 0.0000 0.0000 0.0000 0.0000 31.6861
#
#
#
# Elastic Compliance Matrix: (Units=1/GPa)
#
#
# Indices 1 2 3 4 5 6 
#
# 1 0.019370 -0.014286 -0.006688 0.000000 0.000000 0.000000
# 2 -0.014286 0.040766 -0.003044 0.000000 0.000000 0.000000
# 3 -0.006688 -0.003044 0.012495 0.000000 0.000000 0.000000
# 4 0.000000 0.000000 0.000000 0.001409 0.000000 0.000000
# 5 0.000000 0.000000 0.000000 0.000000 0.040006 0.000000
# 6 0.000000 0.000000 0.000000 0.000000 0.000000 0.031560
#
#
# Mechanical properties :
#
#
# Convention : Reuss Voigt Hill
#
# Bulk Modulus (GPa) = 40.65699 61.56424 51.11062
# Shear Modulus (GPa) = 24.77206 161.95163 93.36185
#
# Velocity S-wave (km/s) = 3.57502 9.14093 6.94037
# Velocity P-wave (km/s) = 6.16583 11.96545 9.51812
#
# Compressibility (1/GPa) = 0.02459602
#
# Stress axis : x y z
#
# Youngs Moduli (GPa) = 51.62495 24.53026 80.02985
#
# Poissons Ratio (x) = 0.35043 0.53526
# Poissons Ratio (y) = 0.73750 0.24361
# Poissons Ratio (z) = 0.34528 0.07467
#
# Static dielectric constant tensor:
#      x y z
#    x 3.257340 0.000000 0.000000 
#    y 0.000000 3.240730 0.000000 
#    z 0.000000 0.000000 3.960260 
# 
# 
# High freq. dielectric constant tensor:
#      x y z
#    x 1.732350 0.000000 0.000000 
#    y 0.000000 1.729200 0.000000 
#    z 0.000000 0.000000 1.773380 
# 
# From -- ./inp_files/20787.got.cif
#   From: 2010.03.12/outbox.cif.g09.slc.cpg/sg65_11_cif.got.tgz:20787.got - 2010.04.10 20:52:16.
