data_PCOD8273815
_publ_section_title
;
Structure prediction by ZEFSAII (Michael W. Deem and Ramdas Pophale) SiO2 
 PCOD8273815
Probable space group: C M M M
;
_chemical_formula_sum "Si O2"
_cell_formula_units_Z 112
_cell_length_a 15.773680
_cell_length_b 15.092109
_cell_length_c 22.924945
_cell_angle_alpha 90.000000
_cell_angle_beta 90.000000
_cell_angle_gamma 90.000000
_cell_volume 5457.468801
_symmetry_space_group_name_H-M "C M M M"
_symmetry_group_IT_number 65
_symmetry_cell_setting 'orthorhombic'
loop_
_space_group_symop_operation_xyz
x,y,z
-x,-y,z
x,-y,-z
-x,y,-z
-x,-y,-z
x,y,-z
-x,y,z
x,-y,z
1/2+x,1/2+y,z
1/2-x,1/2-y,z
1/2+x,1/2-y,-z
1/2-x,1/2+y,-z
1/2-x,1/2-y,-z
1/2+x,1/2+y,-z
1/2-x,1/2+y,z
1/2+x,1/2-y,z
loop_
_atom_site_type_symbol
_atom_site_label
_atom_site_fract_x
_atom_site_fract_y
_atom_site_fract_z
Si Si1 0.848883 0.601083 0.065763
Si Si2 0.403894 0.898018 0.354672
Si Si3 0.096106 0.898017 0.354672
Si Si4 0.845927 0.250000 0.274353
Si Si5 0.348884 0.398917 0.934237
Si Si6 0.093497 0.250000 0.149561
Si Si7 0.250000 0.104653 0.564722
O O1 0.867717 0.500000 0.083286
O O2 0.749999 0.622370 0.069405
O O3 0.896964 0.663044 0.110527
O O4 0.881118 0.619506 0.000000
O O5 0.500000 0.887125 0.379076
O O6 0.392825 0.838257 0.297248
O O7 0.336047 0.864459 0.402719
O O8 0.386221 0.000000 0.337137
O O9 0.107175 0.838257 0.297248
O O10 0.163954 0.864459 0.402719
O O11 0.000000 0.887125 0.379076
O O12 0.113779 0.000000 0.337137
O O13 0.750000 0.250000 0.297206
O O14 0.843567 0.249999 0.204269
O O15 0.367720 0.500000 0.916716
O O16 0.396966 0.336958 0.889472
O O17 0.381120 0.380492 0.000000
O O18 0.000000 0.250002 0.176434
O O19 0.250000 0.146988 0.500000
O O20 0.250000 0.000000 0.559955
#
# Coordination Sequence:
#
# PCOD8273815 Si02
#       7
#    16  16  16  16  16  16  16
#     4   9  19  38  62  85 112 149 192 237 288 348
#     4  10  21  39  62  88 121 158 197 246 300 352
#     4  10  21  39  62  88 121 158 197 246 300 352
#     4  12  24  41  63  82 112 157 204 249 293 352
#     4   9  19  38  62  85 112 149 192 237 288 348
#     4  12  25  37  54  85 119 150 191 241 292 349
#     4   9  18  35  61  93 124 157 199 240 290 356
#
# _framework density 20.522334000000001
#
# number of rings (size 3 to 8) (size 9 to 14) (size 15 to 20)
#    0.000    1.857    1.429    3.857    0.000    4.571 
#    0.000    5.714    0.000    1.714    0.000    0.000 
#    0.000    0.000    0.000    0.000    0.000    0.000 
#
# Total GULP energy -694410.491165 kJ/mol
# GULP energy per Si atom -12400.187342 kJ/mol
# Density = 2.047562 g / cm^3
# Si number density = 20.522334 Si / 1000 Ang^3
#
#
#
# Elastic Constant Matrix: (Units=GPa)
#
#
# Indices 1 2 3 4 5 6 
#
# 1 124.8016 36.0585 42.5185 0.0000 0.0000 0.0000
# 2 36.0585 103.6260 54.6553 0.0000 0.0000 0.0000
# 3 42.5185 54.6553 121.6103 0.0000 0.0000 0.0000
# 4 0.0000 0.0000 0.0000 129.6789 0.0000 0.0000
# 5 0.0000 0.0000 0.0000 0.0000 22.8573 0.0000
# 6 0.0000 0.0000 0.0000 0.0000 0.0000 26.4120
#
#
#
# Elastic Compliance Matrix: (Units=1/GPa)
#
#
# Indices 1 2 3 4 5 6 
#
# 1 0.009407 -0.002017 -0.002383 0.000000 0.000000 0.000000
# 2 -0.002017 0.013081 -0.005174 0.000000 0.000000 0.000000
# 3 -0.002383 -0.005174 0.011381 0.000000 0.000000 0.000000
# 4 0.000000 0.000000 0.000000 0.007711 0.000000 0.000000
# 5 0.000000 0.000000 0.000000 0.000000 0.043750 0.000000
# 6 0.000000 0.000000 0.000000 0.000000 0.000000 0.037862
#
#
# Mechanical properties :
#
#
# Convention : Reuss Voigt Hill
#
# Bulk Modulus (GPa) = 67.92156 68.50027 68.21091
# Shear Modulus (GPa) = 33.95691 50.24333 42.10012
#
# Velocity S-wave (km/s) = 4.07213 4.95332 4.53418
# Velocity P-wave (km/s) = 7.43491 8.13417 7.79239
#
# Compressibility (1/GPa) = 0.01472287
#
# Stress axis : x y z
#
# Youngs Moduli (GPa) = 106.30225 76.44906 87.86380
#
# Poissons Ratio (x) = 0.15418 0.20935
# Poissons Ratio (y) = 0.21438 0.45458
# Poissons Ratio (z) = 0.25328 0.39553
#
# Static dielectric constant tensor:
#      x y z
#    x 3.786320 0.000000 0.000000 
#    y 0.000000 3.709710 0.000000 
#    z 0.000000 0.000000 3.579910 
# 
# 
# High freq. dielectric constant tensor:
#      x y z
#    x 1.810280 0.000000 0.000000 
#    y 0.000000 1.806370 0.000000 
#    z 0.000000 0.000000 1.784950 
# 
# From -- ./inp_files/69960.got.cif
#   From: 2010.03.12/outbox.cif.g09.slc.cpg/sg65_35_cif.got.tgz:69960.got - 2010.04.10 20:52:16.
