data_PCOD8273743
_publ_section_title
;
Structure prediction by ZEFSAII (Michael W. Deem and Ramdas Pophale) SiO2 
 PCOD8273743
Probable space group: C M M M
;
_chemical_formula_sum "Si O2"
_cell_formula_units_Z 64
_cell_length_a 20.754414
_cell_length_b 17.446659
_cell_length_c 8.806518
_cell_angle_alpha 90.000000
_cell_angle_beta 90.000000
_cell_angle_gamma 90.000000
_cell_volume 3188.797754
_symmetry_space_group_name_H-M "C M M M"
_symmetry_group_IT_number 65
_symmetry_cell_setting 'orthorhombic'
loop_
_space_group_symop_operation_xyz
x,y,z
-x,-y,z
x,-y,-z
-x,y,-z
-x,-y,-z
x,y,-z
-x,y,z
x,-y,z
1/2+x,1/2+y,z
1/2-x,1/2-y,z
1/2+x,1/2-y,-z
1/2-x,1/2+y,-z
1/2-x,1/2-y,-z
1/2+x,1/2+y,-z
1/2-x,1/2+y,z
1/2+x,1/2-y,z
loop_
_atom_site_type_symbol
_atom_site_label
_atom_site_fract_x
_atom_site_fract_y
_atom_site_fract_z
Si Si1 0.074446 0.841739 0.820300
Si Si2 0.423794 0.500000 0.670419
Si Si3 0.000000 0.590232 0.331105
Si Si4 0.370274 0.087818 0.177965
Si Si5 0.178309 0.728588 0.677502
O O1 0.099519 0.923247 0.755709
O O2 0.122807 0.776380 0.762278
O O3 0.000000 0.824745 0.769529
O O4 0.078755 0.845853 0.000000
O O5 0.500000 0.500000 0.666718
O O6 0.395102 0.500000 0.500000
O O7 0.060172 0.616820 0.232547
O O8 0.000000 0.500000 0.350217
O O9 0.000000 0.628045 0.500000
O O10 0.321289 0.140019 0.270843
O O11 0.356846 0.000000 0.221678
O O12 0.364027 0.101676 0.000000
O O13 0.165733 0.737555 0.500000
O O14 0.250000 0.750000 0.725627
#
# Coordination Sequence:
#
# PCOD8273743 Si02
#       5
#    16   8   8  16  16
#     4  10  21  38  63  93 123 158 200 249 304 362
#     4   9  17  33  59  91 125 157 196 247 300 359
#     4   9  17  31  55  87 119 152 191 238 289 345
#     4  10  21  38  61  88 119 156 198 246 299 358
#     4  11  25  43  61  86 121 162 205 252 304 359
#
# _framework density 20.070260999999999
#
# number of rings (size 3 to 8) (size 9 to 14) (size 15 to 20)
#    0.000    2.000    0.000    3.000    1.750    8.000 
#    2.250    0.000    0.000    0.000    0.000    0.000 
#    0.000    0.000    0.000    0.000    0.000    0.000 
#
# Total GULP energy -396708.912750 kJ/mol
# GULP energy per Si atom -12397.153523 kJ/mol
# Density = 2.002458 g / cm^3
# Si number density = 20.070261 Si / 1000 Ang^3
#
#
#
# Elastic Constant Matrix: (Units=GPa)
#
#
# Indices 1 2 3 4 5 6 
#
# 1 107.3312 64.4820 47.2723 0.0000 0.0000 0.0000
# 2 64.4820 111.4904 32.2479 0.0000 0.0000 0.0000
# 3 47.2723 32.2479 60.4361 0.0000 0.0000 0.0000
# 4 0.0000 0.0000 0.0000 38.0065 0.0000 0.0000
# 5 0.0000 0.0000 0.0000 0.0000 11.8273 0.0000
# 6 0.0000 0.0000 0.0000 0.0000 0.0000 38.5472
#
#
#
# Elastic Compliance Matrix: (Units=1/GPa)
#
#
# Indices 1 2 3 4 5 6 
#
# 1 0.018515 -0.007710 -0.010369 0.000000 0.000000 0.000000
# 2 -0.007710 0.013816 -0.001342 0.000000 0.000000 0.000000
# 3 -0.010369 -0.001342 0.025373 0.000000 0.000000 0.000000
# 4 0.000000 0.000000 0.000000 0.026311 0.000000 0.000000
# 5 0.000000 0.000000 0.000000 0.000000 0.084550 0.000000
# 6 0.000000 0.000000 0.000000 0.000000 0.000000 0.025942
#
#
# Mechanical properties :
#
#
# Convention : Reuss Voigt Hill
#
# Bulk Modulus (GPa) = 53.01091 63.02913 58.02002
# Shear Modulus (GPa) = 20.86485 26.69323 23.77904
#
# Velocity S-wave (km/s) = 3.22777 3.65086 3.44581
# Velocity P-wave (km/s) = 6.35305 7.01741 6.69348
#
# Compressibility (1/GPa) = 0.01886404
#
# Stress axis : x y z
#
# Youngs Moduli (GPa) = 54.00892 72.37747 39.41218
#
# Poissons Ratio (x) = 0.55800 0.40866
# Poissons Ratio (y) = 0.41638 0.05289
# Poissons Ratio (z) = 0.56001 0.09713
#
# Static dielectric constant tensor:
#      x y z
#    x 3.411510 0.000000 0.000000 
#    y 0.000000 3.765860 0.000000 
#    z 0.000000 0.000000 3.752050 
# 
# 
# High freq. dielectric constant tensor:
#      x y z
#    x 1.761550 0.000000 0.000000 
#    y 0.000000 1.791450 0.000000 
#    z 0.000000 0.000000 1.797230 
# 
# From -- ./inp_files/10856.got.cif
#   From: 2010.03.12/outbox.cif.g09.slc.cpg/sg65_6_cif.got.tgz:10856.got - 2010.04.10 20:52:16.
