data_PCOD8273526
_publ_section_title
;
Structure prediction by ZEFSAII (Michael W. Deem and Ramdas Pophale) SiO2 
 PCOD8273526
Probable space group: C M M M
;
_chemical_formula_sum "Si O2"
_cell_formula_units_Z 64
_cell_length_a 20.795679
_cell_length_b 17.454206
_cell_length_c 9.090838
_cell_angle_alpha 90.000000
_cell_angle_beta 90.000000
_cell_angle_gamma 90.000000
_cell_volume 3299.720243
_symmetry_space_group_name_H-M "C M M M"
_symmetry_group_IT_number 65
_symmetry_cell_setting 'orthorhombic'
loop_
_space_group_symop_operation_xyz
x,y,z
-x,-y,z
x,-y,-z
-x,y,-z
-x,-y,-z
x,y,-z
-x,y,z
x,-y,z
1/2+x,1/2+y,z
1/2-x,1/2-y,z
1/2+x,1/2-y,-z
1/2-x,1/2+y,-z
1/2-x,1/2-y,-z
1/2+x,1/2+y,-z
1/2-x,1/2+y,z
1/2+x,1/2-y,z
loop_
_atom_site_type_symbol
_atom_site_label
_atom_site_fract_x
_atom_site_fract_y
_atom_site_fract_z
Si Si1 0.424204 0.500000 0.334312
Si Si2 0.575169 0.344097 0.174414
Si Si3 0.620687 0.084200 0.334384
Si Si4 0.500000 0.091070 0.839361
Si Si5 0.821086 0.261375 0.669469
O O1 0.500000 0.500000 0.345643
O O2 0.394500 0.500000 0.500000
O O3 0.402266 0.575679 0.246399
O O4 0.500000 0.325303 0.212721
O O5 0.622666 0.279022 0.237402
O O6 0.584224 0.350240 0.000000
O O7 0.595509 0.076281 0.500000
O O8 0.562844 0.120108 0.241717
O O9 0.676285 0.146238 0.320561
O O10 0.643645 0.000000 0.277212
O O11 0.500000 0.000000 0.844368
O O12 0.500000 0.128674 0.000000
O O13 0.826882 0.233391 0.500000
O O14 0.750000 0.250000 0.735213
#
# Coordination Sequence:
#
# PCOD8273526 Si02
#       5
#     8  16  16   8  16
#     4   9  17  33  59  89 117 147 188 237 286 339
#     4  10  21  37  59  87 118 152 189 234 290 350
#     4   9  18  34  55  77 106 145 185 228 279 334
#     4   9  17  29  49  79 109 134 171 224 273 325
#     4  10  22  39  56  81 115 150 194 242 287 339
#
# _framework density 19.395582999999998
#
# number of rings (size 3 to 8) (size 9 to 14) (size 15 to 20)
#    0.000    2.500    0.000    1.500    1.750    6.000 
#    2.250    0.000    0.000    0.000    0.000    0.000 
#    0.000    0.000    0.000    0.000    0.000    0.000 
#
# Total GULP energy -396539.001185 kJ/mol
# GULP energy per Si atom -12391.843787 kJ/mol
# Density = 1.935144 g / cm^3
# Si number density = 19.395583 Si / 1000 Ang^3
#
#
#
# Elastic Constant Matrix: (Units=GPa)
#
#
# Indices 1 2 3 4 5 6 
#
# 1 109.0951 57.8392 47.7588 0.0000 0.0000 0.0000
# 2 57.8392 115.3681 46.4767 0.0000 0.0000 0.0000
# 3 47.7588 46.4767 99.8276 0.0000 0.0000 0.0000
# 4 0.0000 0.0000 0.0000 26.6894 0.0000 0.0000
# 5 0.0000 0.0000 0.0000 0.0000 24.0324 0.0000
# 6 0.0000 0.0000 0.0000 0.0000 0.0000 23.1937
#
#
#
# Elastic Compliance Matrix: (Units=1/GPa)
#
#
# Indices 1 2 3 4 5 6 
#
# 1 0.013751 -0.005223 -0.004147 0.000000 0.000000 0.000000
# 2 -0.005223 0.012653 -0.003392 0.000000 0.000000 0.000000
# 3 -0.004147 -0.003392 0.013580 0.000000 0.000000 0.000000
# 4 0.000000 0.000000 0.000000 0.037468 0.000000 0.000000
# 5 0.000000 0.000000 0.000000 0.000000 0.041610 0.000000
# 6 0.000000 0.000000 0.000000 0.000000 0.000000 0.043115
#
#
# Mechanical properties :
#
#
# Convention : Reuss Voigt Hill
#
# Bulk Modulus (GPa) = 69.15576 69.82669 69.49122
# Shear Modulus (GPa) = 25.97101 26.26419 26.11760
#
# Velocity S-wave (km/s) = 3.66323 3.68385 3.67355
# Velocity P-wave (km/s) = 7.32292 7.36028 7.34163
#
# Compressibility (1/GPa) = 0.01446011
#
# Stress axis : x y z
#
# Youngs Moduli (GPa) = 72.72221 79.03193 73.63597
#
# Poissons Ratio (x) = 0.41282 0.30535
# Poissons Ratio (y) = 0.37986 0.24977
# Poissons Ratio (z) = 0.30156 0.26807
#
# Static dielectric constant tensor:
#      x y z
#    x 3.300100 0.000000 0.000000 
#    y 0.000000 3.628490 0.000000 
#    z 0.000000 0.000000 3.689070 
# 
# 
# High freq. dielectric constant tensor:
#      x y z
#    x 1.726260 0.000000 0.000000 
#    y 0.000000 1.764290 0.000000 
#    z 0.000000 0.000000 1.754240 
# 
# From -- ./inp_files/10852.got.cif
#   From: 2010.03.12/outbox.cif.g09.slc.cpg/sg65_6_cif.got.tgz:10852.got - 2010.04.10 20:52:16.
