data_PCOD8273852
_publ_section_title
;
Structure prediction by ZEFSAII (Michael W. Deem and Ramdas Pophale) SiO2 
 PCOD8273852
Probable space group: C M M M
;
_chemical_formula_sum "Si O2"
_cell_formula_units_Z 72
_cell_length_a 19.639321
_cell_length_b 8.731493
_cell_length_c 19.517512
_cell_angle_alpha 90.000000
_cell_angle_beta 90.000000
_cell_angle_gamma 90.000000
_cell_volume 3346.874548
_symmetry_space_group_name_H-M "C M M M"
_symmetry_group_IT_number 65
_symmetry_cell_setting 'orthorhombic'
loop_
_space_group_symop_operation_xyz
x,y,z
-x,-y,z
x,-y,-z
-x,y,-z
-x,-y,-z
x,y,-z
-x,y,z
x,-y,z
1/2+x,1/2+y,z
1/2-x,1/2-y,z
1/2+x,1/2-y,-z
1/2-x,1/2+y,-z
1/2-x,1/2-y,-z
1/2+x,1/2+y,-z
1/2-x,1/2+y,z
1/2+x,1/2-y,z
loop_
_atom_site_type_symbol
_atom_site_label
_atom_site_fract_x
_atom_site_fract_y
_atom_site_fract_z
Si Si1 0.000000 0.679251 0.573436
Si Si2 0.322027 0.321510 0.079531
Si Si3 0.921111 0.318526 0.187391
Si Si4 0.352965 0.179139 0.579944
Si Si5 0.317331 0.320993 0.712272
O O1 0.071024 0.721234 0.608900
O O2 0.000000 0.500000 0.559751
O O3 0.000000 0.762907 0.500000
O O4 0.319589 0.500000 0.097537
O O5 0.250000 0.250000 0.101767
O O6 0.384113 0.244723 0.119882
O O7 0.336437 0.290793 0.000000
O O8 0.915997 0.500000 0.188604
O O9 0.884469 0.253283 0.255006
O O10 0.000000 0.265316 0.187427
O O11 0.342081 0.225488 0.500000
O O12 0.308847 0.281841 0.631047
O O13 0.336518 0.000000 0.589704
O O14 0.318601 0.500000 0.724878
O O15 0.250000 0.250000 0.748455
#
# Coordination Sequence:
#
# PCOD8273852 Si02
#       5
#     8  16  16  16  16
#     4   7  12  26  51  81 111 145 182 225 284 353
#     4  10  21  39  66  99 135 173 211 253 302 359
#     4  11  25  44  66  92 125 166 210 257 310 369
#     4   9  18  35  60  89 120 156 200 250 308 373
#     4  12  26  43  63  87 121 162 207 258 314 375
#
# _framework density 21.512608
#
# number of rings (size 3 to 8) (size 9 to 14) (size 15 to 20)
#    0.000    1.889    0.000    5.333    1.556    4.444 
#    0.000    2.222    0.000    2.000    0.000    0.000 
#    0.000    0.000    0.000    0.000    0.000    0.000 
#
# Total GULP energy -446079.396913 kJ/mol
# GULP energy per Si atom -12391.094359 kJ/mol
# Density = 2.146364 g / cm^3
# Si number density = 21.512608 Si / 1000 Ang^3
#
#
#
# Elastic Constant Matrix: (Units=GPa)
#
#
# Indices 1 2 3 4 5 6 
#
# 1 164.7776 68.1608 55.2093 0.0000 0.0000 0.0000
# 2 68.1608 113.1607 47.2517 0.0000 0.0000 0.0000
# 3 55.2093 47.2517 119.1571 0.0000 0.0000 0.0000
# 4 0.0000 0.0000 0.0000 32.9261 0.0000 0.0000
# 5 0.0000 0.0000 0.0000 0.0000 48.6192 0.0000
# 6 0.0000 0.0000 0.0000 0.0000 0.0000 32.2495
#
#
#
# Elastic Compliance Matrix: (Units=1/GPa)
#
#
# Indices 1 2 3 4 5 6 
#
# 1 0.008582 -0.004205 -0.002309 0.000000 0.000000 0.000000
# 2 -0.004205 0.012651 -0.003068 0.000000 0.000000 0.000000
# 3 -0.002309 -0.003068 0.010679 0.000000 0.000000 0.000000
# 4 0.000000 0.000000 0.000000 0.030371 0.000000 0.000000
# 5 0.000000 0.000000 0.000000 0.000000 0.020568 0.000000
# 6 0.000000 0.000000 0.000000 0.000000 0.000000 0.031008
#
#
# Mechanical properties :
#
#
# Convention : Reuss Voigt Hill
#
# Bulk Modulus (GPa) = 78.44847 82.03767 80.24307
# Shear Modulus (GPa) = 36.42391 37.85719 37.14055
#
# Velocity S-wave (km/s) = 4.11924 4.19951 4.15957
# Velocity P-wave (km/s) = 7.69218 7.85697 7.77501
#
# Compressibility (1/GPa) = 0.01274722
#
# Stress axis : x y z
#
# Youngs Moduli (GPa) = 116.52617 79.04432 93.64381
#
# Poissons Ratio (x) = 0.33239 0.21619
# Poissons Ratio (y) = 0.49000 0.28734
# Poissons Ratio (z) = 0.26902 0.24254
#
# Static dielectric constant tensor:
#      x y z
#    x 4.440100 0.000000 0.000000 
#    y 0.000000 3.628930 0.000000 
#    z 0.000000 0.000000 3.823840 
# 
# 
# High freq. dielectric constant tensor:
#      x y z
#    x 1.859590 0.000000 0.000000 
#    y 0.000000 1.828730 0.000000 
#    z 0.000000 0.000000 1.847710 
# 
# From -- ./inp_files/64284.got.cif
#   From: 2010.03.12/outbox.cif.g09.slc.cpg/sg65_33_cif.got.tgz:64284.got - 2010.04.10 20:52:16.
