data_PCOD8273289
_publ_section_title
;
Structure prediction by ZEFSAII (Michael W. Deem and Ramdas Pophale) SiO2 
 PCOD8273289
Probable space group: C M M M
;
_chemical_formula_sum "Si O2"
_cell_formula_units_Z 88
_cell_length_a 19.016715
_cell_length_b 8.790729
_cell_length_c 28.500995
_cell_angle_alpha 90.000000
_cell_angle_beta 90.000000
_cell_angle_gamma 90.000000
_cell_volume 4764.533794
_symmetry_space_group_name_H-M "C M M M"
_symmetry_group_IT_number 65
_symmetry_cell_setting 'orthorhombic'
loop_
_space_group_symop_operation_xyz
x,y,z
-x,-y,z
x,-y,-z
-x,y,-z
-x,-y,-z
x,y,-z
-x,y,z
x,-y,z
1/2+x,1/2+y,z
1/2-x,1/2-y,z
1/2+x,1/2-y,-z
1/2-x,1/2+y,-z
1/2-x,1/2-y,-z
1/2+x,1/2+y,-z
1/2-x,1/2+y,z
1/2+x,1/2-y,z
loop_
_atom_site_type_symbol
_atom_site_label
_atom_site_fract_x
_atom_site_fract_y
_atom_site_fract_z
Si Si1 0.081144 0.824130 0.186670
Si Si2 0.825298 0.177926 0.000000
Si Si3 0.326443 0.679808 0.101031
Si Si4 0.173326 0.819965 0.636270
Si Si5 0.581574 0.822830 0.716191
Si Si6 0.078640 0.819240 0.447839
O O1 0.123398 0.759121 0.142081
O O2 0.103185 0.724609 0.231397
O O3 0.000000 0.802053 0.174335
O O4 0.098598 0.000000 0.197352
O O5 0.750000 0.250000 0.000000
O O6 0.861159 0.225397 0.049848
O O7 0.814338 0.000000 0.000000
O O8 0.319120 0.500000 0.104967
O O9 0.250000 0.750000 0.107745
O O10 0.250000 0.750000 0.638902
O O11 0.128607 0.774500 0.681320
O O12 0.133778 0.754785 0.590017
O O13 0.180196 0.000000 0.634474
O O14 0.500000 0.783499 0.706836
O O15 0.597270 0.000000 0.709054
O O16 0.101140 0.764126 0.500000
O O17 0.000000 0.758568 0.436179
O O18 0.077768 0.000000 0.445892
#
# Coordination Sequence:
#
# PCOD8273289 Si02
#       6
#    16   8  16  16  16  16
#     4   9  18  33  51  71  97 129 164 201 245 298
#     4   8  14  26  43  65  93 123 157 194 236 286
#     4   9  17  29  47  70  95 125 160 199 241 288
#     4  11  22  35  53  78 108 140 172 209 254 300
#     4  10  21  37  56  76  99 130 169 212 256 304
#     4   8  15  30  53  79 104 133 172 212 248 293
#
# _framework density 18.469802999999999
#
# number of rings (size 3 to 8) (size 9 to 14) (size 15 to 20)
#    0.000    2.727    0.000    2.182    0.000    3.636 
#    0.000    2.273    0.000    4.364    0.000    6.364 
#    0.000   10.182    0.000    0.000    0.000    0.000 
#
# Total GULP energy -545309.657295 kJ/mol
# GULP energy per Si atom -12393.401302 kJ/mol
# Density = 1.842777 g / cm^3
# Si number density = 18.469803 Si / 1000 Ang^3
#
#
#
# Elastic Constant Matrix: (Units=GPa)
#
#
# Indices 1 2 3 4 5 6 
#
# 1 92.8066 27.4879 84.2277 0.0000 0.0000 0.0000
# 2 27.4879 35.8021 31.2720 0.0000 0.0000 0.0000
# 3 84.2277 31.2720 163.3948 0.0000 0.0000 0.0000
# 4 0.0000 0.0000 0.0000 16.1249 0.0000 0.0000
# 5 0.0000 0.0000 0.0000 0.0000 27.3785 0.0000
# 6 0.0000 0.0000 0.0000 0.0000 0.0000 18.8487
#
#
#
# Elastic Compliance Matrix: (Units=1/GPa)
#
#
# Indices 1 2 3 4 5 6 
#
# 1 0.022195 -0.008462 -0.009822 0.000000 0.000000 0.000000
# 2 -0.008462 0.036764 -0.002674 0.000000 0.000000 0.000000
# 3 -0.009822 -0.002674 0.011695 0.000000 0.000000 0.000000
# 4 0.000000 0.000000 0.000000 0.062016 0.000000 0.000000
# 5 0.000000 0.000000 0.000000 0.000000 0.036525 0.000000
# 6 0.000000 0.000000 0.000000 0.000000 0.000000 0.053054
#
#
# Mechanical properties :
#
#
# Convention : Reuss Voigt Hill
#
# Bulk Modulus (GPa) = 34.79669 64.21985 49.50827
# Shear Modulus (GPa) = 18.26519 22.40481 20.33500
#
# Velocity S-wave (km/s) = 3.14812 3.48667 3.32171
# Velocity P-wave (km/s) = 5.66524 7.14526 6.44786
#
# Compressibility (1/GPa) = 0.02873836
#
# Stress axis : x y z
#
# Youngs Moduli (GPa) = 45.05461 27.20047 85.50666
#
# Poissons Ratio (x) = 0.23017 0.83983
# Poissons Ratio (y) = 0.38125 0.22867
# Poissons Ratio (z) = 0.44252 0.07274
#
# Static dielectric constant tensor:
#      x y z
#    x 3.328990 0.000000 0.000000 
#    y 0.000000 3.236750 0.000000 
#    z 0.000000 0.000000 3.962510 
# 
# 
# High freq. dielectric constant tensor:
#      x y z
#    x 1.697870 0.000000 0.000000 
#    y 0.000000 1.697040 0.000000 
#    z 0.000000 0.000000 1.738830 
# 
# From -- ./inp_files/73119.got.cif
#   From: 2010.03.12/outbox.cif.g09.slc.cpg/sg65_37_cif.got.tgz:73119.got - 2010.04.10 20:52:16.
