data_PCOD8273470
_publ_section_title
;
Structure prediction by ZEFSAII (Michael W. Deem and Ramdas Pophale) SiO2 
 PCOD8273470
Probable space group: C M M M
;
_chemical_formula_sum "Si O2"
_cell_formula_units_Z 72
_cell_length_a 18.524045
_cell_length_b 8.964378
_cell_length_c 22.941498
_cell_angle_alpha 90.000000
_cell_angle_beta 90.000000
_cell_angle_gamma 90.000000
_cell_volume 3809.585814
_symmetry_space_group_name_H-M "C M M M"
_symmetry_group_IT_number 65
_symmetry_cell_setting 'orthorhombic'
loop_
_space_group_symop_operation_xyz
x,y,z
-x,-y,z
x,-y,-z
-x,y,-z
-x,-y,-z
x,y,-z
-x,y,z
x,-y,z
1/2+x,1/2+y,z
1/2-x,1/2-y,z
1/2+x,1/2-y,-z
1/2-x,1/2+y,-z
1/2-x,1/2-y,-z
1/2+x,1/2+y,-z
1/2-x,1/2+y,z
1/2+x,1/2-y,z
loop_
_atom_site_type_symbol
_atom_site_label
_atom_site_fract_x
_atom_site_fract_y
_atom_site_fract_z
Si Si1 0.676378 0.674560 0.566932
Si Si2 0.417061 0.677943 0.126277
Si Si3 0.914934 0.837981 0.000000
Si Si4 0.416914 0.827047 0.659532
Si Si5 0.327083 0.176205 0.227339
O O1 0.660883 0.717059 0.500000
O O2 0.685226 0.500000 0.575905
O O3 0.750000 0.750000 0.589247
O O4 0.609674 0.733101 0.604375
O O5 0.500000 0.719548 0.140527
O O6 0.406314 0.500000 0.129516
O O7 0.365007 0.760723 0.170282
O O8 0.394599 0.740821 0.061470
O O9 0.000000 0.862169 0.000000
O O10 0.877262 0.000000 0.000000
O O11 0.500000 0.788479 0.670477
O O12 0.374396 0.778196 0.717055
O O13 0.404960 0.000000 0.645294
O O14 0.250000 0.250000 0.235661
O O15 0.318610 0.000000 0.221072
#
# Coordination Sequence:
#
# PCOD8273470 Si02
#       5
#    16  16   8  16  16
#     4  10  21  37  58  84 113 145 181 220 262 311
#     4   9  17  32  56  83 109 139 176 217 264 318
#     4   7  12  26  50  79 108 137 171 213 260 313
#     4  10  22  39  58  81 109 141 177 220 270 320
#     4  11  23  38  55  77 107 141 180 224 269 318
#
# _framework density 18.899691000000001
#
# number of rings (size 3 to 8) (size 9 to 14) (size 15 to 20)
#    0.000    2.333    0.000    4.000    0.000    7.111 
#    0.000    3.333    0.000    2.000    0.000    0.000 
#    0.000    0.000    0.000    0.000    0.000    0.000 
#
# Total GULP energy -446322.670854 kJ/mol
# GULP energy per Si atom -12397.851968 kJ/mol
# Density = 1.885667 g / cm^3
# Si number density = 18.899691 Si / 1000 Ang^3
#
#
#
# Elastic Constant Matrix: (Units=GPa)
#
#
# Indices 1 2 3 4 5 6 
#
# 1 130.9401 52.4690 80.2387 0.0000 0.0000 0.0000
# 2 52.4690 64.3347 55.6596 0.0000 0.0000 0.0000
# 3 80.2387 55.6596 141.1096 0.0000 0.0000 0.0000
# 4 0.0000 0.0000 0.0000 24.4379 0.0000 0.0000
# 5 0.0000 0.0000 0.0000 0.0000 24.6459 0.0000
# 6 0.0000 0.0000 0.0000 0.0000 0.0000 16.6618
#
#
#
# Elastic Compliance Matrix: (Units=1/GPa)
#
#
# Indices 1 2 3 4 5 6 
#
# 1 0.013318 -0.006542 -0.004992 0.000000 0.000000 0.000000
# 2 -0.006542 0.026810 -0.006855 0.000000 0.000000 0.000000
# 3 -0.004992 -0.006855 0.012629 0.000000 0.000000 0.000000
# 4 0.000000 0.000000 0.000000 0.040920 0.000000 0.000000
# 5 0.000000 0.000000 0.000000 0.000000 0.040575 0.000000
# 6 0.000000 0.000000 0.000000 0.000000 0.000000 0.060017
#
#
# Mechanical properties :
#
#
# Convention : Reuss Voigt Hill
#
# Bulk Modulus (GPa) = 62.58583 79.23543 70.91063
# Shear Modulus (GPa) = 21.15289 23.01694 22.08491
#
# Velocity S-wave (km/s) = 3.34910 3.49355 3.42209
# Velocity P-wave (km/s) = 6.93844 7.63469 7.29487
#
# Compressibility (1/GPa) = 0.01597806
#
# Stress axis : x y z
#
# Youngs Moduli (GPa) = 75.08661 37.29964 79.18137
#
# Poissons Ratio (x) = 0.24403 0.39530
# Poissons Ratio (y) = 0.49125 0.54277
# Poissons Ratio (z) = 0.37486 0.25568
#
# Static dielectric constant tensor:
#      x y z
#    x 3.368250 0.000000 0.000000 
#    y 0.000000 3.310820 0.000000 
#    z 0.000000 0.000000 3.782300 
# 
# 
# High freq. dielectric constant tensor:
#      x y z
#    x 1.724620 0.000000 0.000000 
#    y 0.000000 1.721670 0.000000 
#    z 0.000000 0.000000 1.753050 
# 
# From -- ./inp_files/64321.got.cif
#   From: 2010.03.12/outbox.cif.g09.slc.cpg/sg65_33_cif.got.tgz:64321.got - 2010.04.10 20:52:16.
