data_PCOD8273021
_publ_section_title
;
Structure prediction by ZEFSAII (Michael W. Deem and Ramdas Pophale) SiO2 
 PCOD8273021
Probable space group: C M M M
;
_chemical_formula_sum "Si O2"
_cell_formula_units_Z 104
_cell_length_a 24.013269
_cell_length_b 18.718279
_cell_length_c 13.164195
_cell_angle_alpha 90.000000
_cell_angle_beta 90.000000
_cell_angle_gamma 90.000000
_cell_volume 5917.135424
_symmetry_space_group_name_H-M "C M M M"
_symmetry_group_IT_number 65
_symmetry_cell_setting 'orthorhombic'
loop_
_space_group_symop_operation_xyz
x,y,z
-x,-y,z
x,-y,-z
-x,y,-z
-x,-y,-z
x,y,-z
-x,y,z
x,-y,z
1/2+x,1/2+y,z
1/2-x,1/2-y,z
1/2+x,1/2-y,-z
1/2-x,1/2+y,-z
1/2-x,1/2-y,-z
1/2+x,1/2+y,-z
1/2-x,1/2+y,z
1/2+x,1/2-y,z
loop_
_atom_site_type_symbol
_atom_site_label
_atom_site_fract_x
_atom_site_fract_y
_atom_site_fract_z
Si Si1 0.838397 0.080453 0.387920
Si Si2 0.762994 0.332140 0.620443
Si Si3 0.935028 0.633770 0.880195
Si Si4 0.633120 0.082964 0.693266
Si Si5 0.434797 0.294058 0.109601
Si Si6 0.561537 0.915852 0.500000
Si Si7 0.936308 0.079450 0.244302
O O1 0.845380 0.111144 0.500000
O O2 0.791177 0.127712 0.334646
O O3 0.900079 0.085241 0.344386
O O4 0.815886 0.000000 0.385756
O O5 0.773272 0.346468 0.500000
O O6 0.750000 0.250000 0.643431
O O7 0.814320 0.363698 0.685517
O O8 0.896965 0.587837 0.803747
O O9 0.923983 0.715563 0.845220
O O10 0.000000 0.613507 0.865330
O O11 0.919339 0.621784 0.000000
O O12 0.592380 0.108588 0.602815
O O13 0.651181 0.000000 0.678225
O O14 0.500000 0.307035 0.098145
O O15 0.410039 0.359608 0.173081
O O16 0.405821 0.298303 0.000000
O O17 0.500000 0.880725 0.500000
O O18 0.556026 0.000000 0.500000
O O19 0.000000 0.095456 0.274170
O O20 0.930801 0.000000 0.194642
#
# Coordination Sequence:
#
# PCOD8273021 Si02
#       7
#    16  16  16  16  16   8  16
#     4   9  18  32  50  70  99 137 172 209 255 311
#     4  10  21  36  54  77 103 137 180 225 263 313
#     4   9  19  35  55  81 112 148 185 218 263 326
#     4  11  21  34  56  81 109 144 180 225 274 322
#     4   8  15  29  48  69  98 136 171 208 256 311
#     4   9  18  32  51  80 114 142 169 210 274 333
#     4   9  17  28  46  75 104 131 169 216 265 319
#
# _framework density 17.576073000000001
#
# number of rings (size 3 to 8) (size 9 to 14) (size 15 to 20)
#    0.000    2.692    0.769    1.846    2.154    2.462 
#    0.000    3.846    0.000    1.385    0.000    2.154 
#    0.000    0.000    0.000    0.000    0.000    0.000 
#
# Total GULP energy -644257.530386 kJ/mol
# GULP energy per Si atom -12389.567892 kJ/mol
# Density = 1.753607 g / cm^3
# Si number density = 17.576073 Si / 1000 Ang^3
#
#
#
# Elastic Constant Matrix: (Units=GPa)
#
#
# Indices 1 2 3 4 5 6 
#
# 1 85.2364 40.8264 37.4906 0.0000 0.0000 0.0000
# 2 40.8264 82.5309 30.5000 0.0000 0.0000 0.0000
# 3 37.4906 30.5000 72.9173 0.0000 0.0000 0.0000
# 4 0.0000 0.0000 0.0000 23.4595 0.0000 0.0000
# 5 0.0000 0.0000 0.0000 0.0000 19.5382 0.0000
# 6 0.0000 0.0000 0.0000 0.0000 0.0000 24.9055
#
#
#
# Elastic Compliance Matrix: (Units=1/GPa)
#
#
# Indices 1 2 3 4 5 6 
#
# 1 0.017575 -0.006334 -0.006387 0.000000 0.000000 0.000000
# 2 -0.006334 0.016615 -0.003693 0.000000 0.000000 0.000000
# 3 -0.006387 -0.003693 0.018543 0.000000 0.000000 0.000000
# 4 0.000000 0.000000 0.000000 0.042627 0.000000 0.000000
# 5 0.000000 0.000000 0.000000 0.000000 0.051182 0.000000
# 6 0.000000 0.000000 0.000000 0.000000 0.000000 0.040152
#
#
# Mechanical properties :
#
#
# Convention : Reuss Voigt Hill
#
# Bulk Modulus (GPa) = 50.23881 50.92428 50.58155
# Shear Modulus (GPa) = 22.10872 22.37183 22.24028
#
# Velocity S-wave (km/s) = 3.55052 3.57158 3.56107
# Velocity P-wave (km/s) = 6.74195 6.78563 6.76383
#
# Compressibility (1/GPa) = 0.01990493
#
# Stress axis : x y z
#
# Youngs Moduli (GPa) = 56.89889 60.18794 53.92922
#
# Poissons Ratio (x) = 0.38121 0.34445
# Poissons Ratio (y) = 0.36038 0.19917
# Poissons Ratio (z) = 0.36341 0.22228
#
# Static dielectric constant tensor:
#      x y z
#    x 3.133680 0.000000 0.000000 
#    y 0.000000 3.369580 0.000000 
#    z 0.000000 0.000000 3.293550 
# 
# 
# High freq. dielectric constant tensor:
#      x y z
#    x 1.661550 0.000000 0.000000 
#    y 0.000000 1.684550 0.000000 
#    z 0.000000 0.000000 1.658540 
# 
# From -- ./inp_files/32547.got.cif
#   From: 2010.03.12/outbox.cif.g09.slc.cpg/sg65_17_cif.got.tgz:32547.got - 2010.04.10 20:52:16.
