data_PCOD8273359
_publ_section_title
;
Structure prediction by ZEFSAII (Michael W. Deem and Ramdas Pophale) SiO2 
 PCOD8273359
Probable space group: C M M M
;
_chemical_formula_sum "Si O2"
_cell_formula_units_Z 104
_cell_length_a 25.622250
_cell_length_b 8.781998
_cell_length_c 25.768033
_cell_angle_alpha 90.000000
_cell_angle_beta 90.000000
_cell_angle_gamma 90.000000
_cell_volume 5798.182305
_symmetry_space_group_name_H-M "C M M M"
_symmetry_group_IT_number 65
_symmetry_cell_setting 'orthorhombic'
loop_
_space_group_symop_operation_xyz
x,y,z
-x,-y,z
x,-y,-z
-x,y,-z
-x,-y,-z
x,y,-z
-x,y,z
x,-y,z
1/2+x,1/2+y,z
1/2-x,1/2-y,z
1/2+x,1/2-y,-z
1/2-x,1/2+y,-z
1/2-x,1/2-y,-z
1/2+x,1/2+y,-z
1/2-x,1/2+y,z
1/2+x,1/2-y,z
loop_
_atom_site_type_symbol
_atom_site_label
_atom_site_fract_x
_atom_site_fract_y
_atom_site_fract_z
Si Si1 0.195224 0.180262 0.664305
Si Si2 0.441834 0.179983 0.500000
Si Si3 0.602833 0.176377 0.843847
Si Si4 0.804040 0.821676 0.217266
Si Si5 0.000000 0.179432 0.669767
Si Si6 0.596917 0.180887 0.389455
Si Si7 0.940071 0.176541 0.058755
Si Si8 0.000000 0.323686 0.220542
O O1 0.250000 0.250000 0.646067
O O2 0.183460 0.228126 0.723668
O O3 0.151755 0.252541 0.627934
O O4 0.196185 0.000000 0.657124
O O5 0.500000 0.251832 0.500000
O O6 0.411203 0.233912 0.551137
O O7 0.447132 0.000000 0.500000
O O8 0.649948 0.269324 0.819668
O O9 0.596030 0.223871 0.903651
O O10 0.550321 0.216677 0.813272
O O11 0.616729 0.000000 0.840536
O O12 0.750000 0.750000 0.197919
O O13 0.797657 0.000000 0.213278
O O14 0.948727 0.252122 0.645500
O O15 0.000000 0.213210 0.730570
O O16 0.000000 0.000000 0.660261
O O17 0.596544 0.000000 0.383378
O O18 0.000000 0.228224 0.064683
O O19 0.934285 0.000000 0.073423
O O20 0.921088 0.205934 0.000000
O O21 0.000000 0.500000 0.238150
#
# Coordination Sequence:
#
# PCOD8273359 Si02
#       8
#    16   8  16  16   8  16  16   8
#     4  10  21  38  59  85 113 144 184 226 274 328
#     4   9  18  36  59  82 107 142 187 225 270 330
#     4  11  21  34  53  80 112 144 182 227 273 324
#     4  10  21  37  57  80 108 145 184 225 270 324
#     4  12  24  35  51  79 112 144 182 224 272 331
#     4  11  21  37  60  82 108 144 183 227 275 327
#     4   9  18  33  53  77 107 146 188 227 272 325
#     4  10  22  36  50  76 112 149 181 217 272 329
#
# _framework density 17.936657
#
# number of rings (size 3 to 8) (size 9 to 14) (size 15 to 20)
#    0.000    1.769    1.538    3.923    0.000    5.846 
#    0.000    3.077    0.000    0.462    0.000    0.000 
#    0.000    0.000    0.000    0.000    0.000    0.000 
#
# Total GULP energy -644998.473953 kJ/mol
# GULP energy per Si atom -12403.816807 kJ/mol
# Density = 1.789583 g / cm^3
# Si number density = 17.936657 Si / 1000 Ang^3
#
#
#
# Elastic Constant Matrix: (Units=GPa)
#
#
# Indices 1 2 3 4 5 6 
#
# 1 132.5123 41.3409 62.1577 0.0000 0.0000 0.0000
# 2 41.3409 67.6446 35.1479 0.0000 0.0000 0.0000
# 3 62.1577 35.1479 109.0948 0.0000 0.0000 0.0000
# 4 0.0000 0.0000 0.0000 24.6173 0.0000 0.0000
# 5 0.0000 0.0000 0.0000 0.0000 -161.2813 0.0000
# 6 0.0000 0.0000 0.0000 0.0000 0.0000 32.8216
#
#
#
# Elastic Compliance Matrix: (Units=1/GPa)
#
#
# Indices 1 2 3 4 5 6 
#
# 1 0.011232 -0.004251 -0.005030 0.000000 0.000000 0.000000
# 2 -0.004251 0.019364 -0.003817 0.000000 0.000000 0.000000
# 3 -0.005030 -0.003817 0.013262 0.000000 0.000000 0.000000
# 4 0.000000 0.000000 0.000000 0.040622 0.000000 0.000000
# 5 0.000000 0.000000 0.000000 0.000000 -0.006200 0.000000
# 6 0.000000 0.000000 0.000000 0.000000 0.000000 0.030468
#
#
# Mechanical properties :
#
#
# Convention : Reuss Voigt Hill
#
# Bulk Modulus (GPa) = 56.61581 65.17163 60.89372
# Shear Modulus (GPa) = 35.50367 -9.39481 13.05443
#
# Velocity S-wave (km/s) = 4.45386 -2.29110 2.70072
# Velocity P-wave (km/s) = 7.62116 5.42350 6.61424
#
# Compressibility (1/GPa) = 0.01766291
#
# Stress axis : x y z
#
# Youngs Moduli (GPa) = 89.03059 51.64158 75.40392
#
# Poissons Ratio (x) = 0.21952 0.37928
# Poissons Ratio (y) = 0.37846 0.28780
# Poissons Ratio (z) = 0.44783 0.19710
#
# Static dielectric constant tensor:
#      x y z
#    x 3.338770 0.000000 0.000000 
#    y 0.000000 3.308530 0.000000 
#    z 0.000000 0.000000 3.411490 
# 
# 
# High freq. dielectric constant tensor:
#      x y z
#    x 1.690240 0.000000 0.000000 
#    y 0.000000 1.699020 0.000000 
#    z 0.000000 0.000000 1.694320 
# 
# From -- ./inp_files/71934.got.cif
#   From: 2010.03.12/outbox.cif.g09.slc.cpg/sg65_36_cif.got.tgz:71934.got - 2010.04.10 20:52:16.
