data_PCOD8273487
_publ_section_title
;
Structure prediction by ZEFSAII (Michael W. Deem and Ramdas Pophale) SiO2 
 PCOD8273487
Probable space group: C M M M
;
_chemical_formula_sum "Si O2"
_cell_formula_units_Z 88
_cell_length_a 21.865995
_cell_length_b 15.755837
_cell_length_c 13.154923
_cell_angle_alpha 90.000000
_cell_angle_beta 90.000000
_cell_angle_gamma 90.000000
_cell_volume 4532.095305
_symmetry_space_group_name_H-M "C M M M"
_symmetry_group_IT_number 65
_symmetry_cell_setting 'orthorhombic'
loop_
_space_group_symop_operation_xyz
x,y,z
-x,-y,z
x,-y,-z
-x,y,-z
-x,-y,-z
x,y,-z
-x,y,z
x,-y,z
1/2+x,1/2+y,z
1/2-x,1/2-y,z
1/2+x,1/2-y,-z
1/2-x,1/2+y,-z
1/2-x,1/2-y,-z
1/2+x,1/2+y,-z
1/2-x,1/2+y,z
1/2+x,1/2-y,z
loop_
_atom_site_type_symbol
_atom_site_label
_atom_site_fract_x
_atom_site_fract_y
_atom_site_fract_z
Si Si1 0.357422 0.852833 0.616611
Si Si2 0.743559 0.847302 0.782376
Si Si3 0.324716 0.000000 0.883319
Si Si4 0.069366 0.898518 0.000000
Si Si5 0.927271 0.500000 0.719863
Si Si6 0.877781 0.097613 0.207726
Si Si7 0.068297 0.185906 0.612075
O O1 0.341722 0.873137 0.500000
O O2 0.294412 0.855829 0.678430
O O3 0.408436 0.918024 0.655366
O O4 0.384272 0.760274 0.632477
O O5 0.750000 0.750000 0.823420
O O6 0.811220 0.876121 0.755907
O O7 0.713956 0.913652 0.862172
O O8 0.389153 0.000000 0.824544
O O9 0.342514 0.000000 0.000000
O O10 0.102332 0.859232 0.899539
O O11 0.000000 0.865621 0.000000
O O12 0.071321 0.000000 0.000000
O O13 0.000000 0.500000 0.741613
O O14 0.924032 0.117128 0.299509
O O15 0.881101 0.000000 0.184967
O O16 0.079935 0.145485 0.500000
O O17 0.000000 0.223201 0.617383
#
# Coordination Sequence:
#
# PCOD8273487 Si02
#       7
#    16  16   8   8   8  16  16
#     4  10  21  37  59  88 120 157 198 246 296 351
#     4  11  22  39  61  89 120 158 199 244 299 362
#     4  10  24  42  63  90 122 156 199 253 305 365
#     4   9  20  38  61  86 112 151 198 249 297 340
#     4  10  21  39  62  89 119 156 205 251 297 356
#     4  11  22  38  60  86 118 154 197 247 298 356
#     4  10  21  37  58  85 119 157 195 242 303 365
#
# _framework density 19.417066999999999
#
# number of rings (size 3 to 8) (size 9 to 14) (size 15 to 20)
#    0.000    1.727    2.727    1.364    1.273    4.545 
#    0.000    0.909    0.000    0.000    0.000    0.000 
#    0.000    0.000    0.000    0.000    0.000    0.000 
#
# Total GULP energy -545428.806877 kJ/mol
# GULP energy per Si atom -12396.109247 kJ/mol
# Density = 1.937287 g / cm^3
# Si number density = 19.417067 Si / 1000 Ang^3
#
#
#
# Elastic Constant Matrix: (Units=GPa)
#
#
# Indices 1 2 3 4 5 6 
#
# 1 129.7785 27.9065 67.5316 0.0000 0.0000 0.0000
# 2 27.9065 79.7210 43.9578 0.0000 0.0000 0.0000
# 3 67.5316 43.9578 126.4706 0.0000 0.0000 0.0000
# 4 0.0000 0.0000 0.0000 20.4342 0.0000 0.0000
# 5 0.0000 0.0000 0.0000 0.0000 30.0063 0.0000
# 6 0.0000 0.0000 0.0000 0.0000 0.0000 -71.6394
#
#
#
# Elastic Compliance Matrix: (Units=1/GPa)
#
#
# Indices 1 2 3 4 5 6 
#
# 1 0.010705 -0.000737 -0.005460 0.000000 0.000000 0.000000
# 2 -0.000737 0.015568 -0.005018 0.000000 0.000000 0.000000
# 3 -0.005460 -0.005018 0.012567 0.000000 0.000000 0.000000
# 4 0.000000 0.000000 0.000000 0.048938 0.000000 0.000000
# 5 0.000000 0.000000 0.000000 0.000000 0.033326 0.000000
# 6 0.000000 0.000000 0.000000 0.000000 0.000000 -0.013959
#
#
# Mechanical properties :
#
#
# Convention : Reuss Voigt Hill
#
# Bulk Modulus (GPa) = 60.93527 68.30689 64.62108
# Shear Modulus (GPa) = 37.02476 8.86517 22.94496
#
# Velocity S-wave (km/s) = 4.37145 2.13906 3.44130
# Velocity P-wave (km/s) = 7.54519 6.43086 7.01020
#
# Compressibility (1/GPa) = 0.01641086
#
# Stress axis : x y z
#
# Youngs Moduli (GPa) = 93.41344 64.23266 79.57590
#
# Poissons Ratio (x) = 0.04732 0.43450
# Poissons Ratio (y) = 0.06881 0.39930
# Poissons Ratio (z) = 0.51005 0.32231
#
# Static dielectric constant tensor:
#      x y z
#    x 1.387430 0.000000 0.000000 
#    y 0.000000 3.605160 0.000000 
#    z 0.000000 0.000000 3.603140 
# 
# 
# High freq. dielectric constant tensor:
#      x y z
#    x 1.765400 0.000000 0.000000 
#    y 0.000000 1.743870 0.000000 
#    z 0.000000 0.000000 1.759980 
# 
# From -- ./inp_files/28743.got.cif
#   From: 2010.03.12/outbox.cif.g09.slc.cpg/sg65_15_cif.got.tgz:28743.got - 2010.04.10 20:52:16.
