data_PCOD8273056
_publ_section_title
;
Structure prediction by ZEFSAII (Michael W. Deem and Ramdas Pophale) SiO2 
 PCOD8273056
Probable space group: C M M M
;
_chemical_formula_sum "Si O2"
_cell_formula_units_Z 72
_cell_length_a 26.768142
_cell_length_b 9.000770
_cell_length_c 16.042339
_cell_angle_alpha 90.000000
_cell_angle_beta 90.000000
_cell_angle_gamma 90.000000
_cell_volume 3865.143131
_symmetry_space_group_name_H-M "C M M M"
_symmetry_group_IT_number 65
_symmetry_cell_setting 'orthorhombic'
loop_
_space_group_symop_operation_xyz
x,y,z
-x,-y,z
x,-y,-z
-x,y,-z
-x,-y,-z
x,y,-z
-x,y,z
x,-y,z
1/2+x,1/2+y,z
1/2-x,1/2-y,z
1/2+x,1/2-y,-z
1/2-x,1/2+y,-z
1/2-x,1/2-y,-z
1/2+x,1/2+y,-z
1/2-x,1/2+y,z
1/2+x,1/2-y,z
loop_
_atom_site_type_symbol
_atom_site_label
_atom_site_fract_x
_atom_site_fract_y
_atom_site_fract_z
Si Si1 0.653519 0.326943 0.094102
Si Si2 0.944635 0.830746 0.186350
Si Si3 0.098932 0.326661 0.661847
Si Si4 0.700226 0.826423 0.752614
Si Si5 0.942520 0.176072 0.500000
O O1 0.665882 0.500000 0.104983
O O2 0.595382 0.294139 0.114662
O O3 0.689013 0.235506 0.155259
O O4 0.663627 0.273467 0.000000
O O5 0.938138 0.723009 0.264968
O O6 0.000000 0.805729 0.148920
O O7 0.937832 0.000000 0.217987
O O8 0.091298 0.500000 0.644610
O O9 0.155607 0.289245 0.688923
O O10 0.086582 0.236351 0.579581
O O11 0.750000 0.750000 0.716650
O O12 0.709313 0.000000 0.760789
O O13 0.000000 0.231222 0.500000
O O14 0.939947 0.000000 0.500000
#
# Coordination Sequence:
#
# PCOD8273056 Si02
#       5
#    16  16  16  16   8
#     4   9  18  32  50  74 104 137 174 216 260 306
#     4   9  17  30  49  73 103 139 176 213 255 305
#     4  10  21  36  54  78 106 135 171 213 255 303
#     4  10  21  37  57  78 101 133 172 214 261 310
#     4  11  23  37  56  83 112 141 172 205 244 293
#
# _framework density 18.628029000000002
#
# number of rings (size 3 to 8) (size 9 to 14) (size 15 to 20)
#    0.000    2.333    0.000    2.333    0.000    8.000 
#    0.000    2.778    0.000    0.000    0.000    6.222 
#    0.000    0.000    0.000    0.000    0.000    0.000 
#
# Total GULP energy -446460.639542 kJ/mol
# GULP energy per Si atom -12401.684432 kJ/mol
# Density = 1.858563 g / cm^3
# Si number density = 18.628029 Si / 1000 Ang^3
#
#
#
# Elastic Constant Matrix: (Units=GPa)
#
#
# Indices 1 2 3 4 5 6 
#
# 1 110.2803 46.2927 34.9128 0.0000 0.0000 0.0000
# 2 46.2927 77.9502 46.6393 0.0000 0.0000 0.0000
# 3 34.9128 46.6393 104.1528 0.0000 0.0000 0.0000
# 4 0.0000 0.0000 0.0000 23.1419 0.0000 0.0000
# 5 0.0000 0.0000 0.0000 0.0000 13.3556 0.0000
# 6 0.0000 0.0000 0.0000 0.0000 0.0000 29.3487
#
#
#
# Elastic Compliance Matrix: (Units=1/GPa)
#
#
# Indices 1 2 3 4 5 6 
#
# 1 0.012179 -0.006544 -0.001152 0.000000 0.000000 0.000000
# 2 -0.006544 0.021039 -0.007228 0.000000 0.000000 0.000000
# 3 -0.001152 -0.007228 0.013224 0.000000 0.000000 0.000000
# 4 0.000000 0.000000 0.000000 0.043212 0.000000 0.000000
# 5 0.000000 0.000000 0.000000 0.000000 0.074875 0.000000
# 6 0.000000 0.000000 0.000000 0.000000 0.000000 0.034073
#
#
# Mechanical properties :
#
#
# Convention : Reuss Voigt Hill
#
# Bulk Modulus (GPa) = 60.25835 60.89698 60.57766
# Shear Modulus (GPa) = 21.36913 24.13848 22.75380
#
# Velocity S-wave (km/s) = 3.39063 3.60365 3.49876
# Velocity P-wave (km/s) = 6.90992 7.07651 6.99371
#
# Compressibility (1/GPa) = 0.01659521
#
# Stress axis : x y z
#
# Youngs Moduli (GPa) = 82.10559 47.53000 75.61871
#
# Poissons Ratio (x) = 0.31101 0.08715
# Poissons Ratio (y) = 0.53726 0.54657
# Poissons Ratio (z) = 0.09462 0.34354
#
# Static dielectric constant tensor:
#      x y z
#    x 3.543430 0.000000 0.000000 
#    y 0.000000 3.452760 0.000000 
#    z 0.000000 0.000000 3.350290 
# 
# 
# High freq. dielectric constant tensor:
#      x y z
#    x 1.730530 0.000000 0.000000 
#    y 0.000000 1.726760 0.000000 
#    z 0.000000 0.000000 1.707360 
# 
# From -- ./inp_files/36526.got.cif
#   From: 2010.03.12/outbox.cif.g09.slc.cpg/sg65_19_cif.got.tgz:36526.got - 2010.04.10 20:52:16.
