data_PCOD8273744
_publ_section_title
;
Structure prediction by ZEFSAII (Michael W. Deem and Ramdas Pophale) SiO2 
 PCOD8273744
Probable space group: C M M M
;
_chemical_formula_sum "Si O2"
_cell_formula_units_Z 72
_cell_length_a 8.671891
_cell_length_b 17.822385
_cell_length_c 22.662133
_cell_angle_alpha 90.000000
_cell_angle_beta 90.000000
_cell_angle_gamma 90.000000
_cell_volume 3502.518320
_symmetry_space_group_name_H-M "C M M M"
_symmetry_group_IT_number 65
_symmetry_cell_setting 'orthorhombic'
loop_
_space_group_symop_operation_xyz
x,y,z
-x,-y,z
x,-y,-z
-x,y,-z
-x,-y,-z
x,y,-z
-x,y,z
x,-y,z
1/2+x,1/2+y,z
1/2-x,1/2-y,z
1/2+x,1/2-y,-z
1/2-x,1/2+y,-z
1/2-x,1/2-y,-z
1/2+x,1/2+y,-z
1/2-x,1/2+y,z
1/2+x,1/2-y,z
loop_
_atom_site_type_symbol
_atom_site_label
_atom_site_fract_x
_atom_site_fract_y
_atom_site_fract_z
Si Si1 0.681933 0.331575 0.780084
Si Si2 0.176122 0.411655 0.889006
Si Si3 0.680211 0.086514 0.671417
Si Si4 0.680616 0.329875 0.431957
Si Si5 0.181007 0.168220 0.000000
O O1 0.500000 0.327577 0.786380
O O2 0.750000 0.250000 0.792306
O O3 0.749669 0.389383 0.827134
O O4 0.726411 0.360426 0.715526
O O5 0.187213 0.500000 0.896081
O O6 0.267985 0.375064 0.942046
O O7 0.000000 0.383889 0.890911
O O8 0.500000 0.103233 0.678332
O O9 0.735853 0.105604 0.605496
O O10 0.717710 0.000000 0.684725
O O11 0.715865 0.347818 0.500000
O O12 0.500000 0.329274 0.418458
O O13 0.750000 0.250000 0.413418
O O14 0.250000 0.250000 0.000000
O O15 0.000000 0.175175 0.000000
#
# Coordination Sequence:
#
# PCOD8273744 Si02
#       5
#    16  16  16  16   8
#     4  12  25  42  65  91 122 159 202 250 300 358
#     4  11  24  43  66  93 127 163 201 249 305 360
#     4  11  24  41  61  87 121 159 199 246 301 359
#     4  10  21  38  61  88 119 156 199 247 298 355
#     4  12  25  42  65  93 127 165 209 254 299 356
#
# _framework density 20.556638
#
# number of rings (size 3 to 8) (size 9 to 14) (size 15 to 20)
#    0.000    0.889    0.000    7.333    0.000    9.333 
#    0.000    2.222    0.000    0.000    0.000    0.000 
#    0.000    0.000    0.000    0.000    0.000    0.000 
#
# Total GULP energy -446702.288479 kJ/mol
# GULP energy per Si atom -12408.396902 kJ/mol
# Density = 2.050985 g / cm^3
# Si number density = 20.556638 Si / 1000 Ang^3
#
#
#
# Elastic Constant Matrix: (Units=GPa)
#
#
# Indices 1 2 3 4 5 6 
#
# 1 163.0802 61.7579 43.4441 0.0000 0.0000 0.0000
# 2 61.7579 84.0597 36.0579 0.0000 0.0000 0.0000
# 3 43.4441 36.0579 103.2959 0.0000 0.0000 0.0000
# 4 0.0000 0.0000 0.0000 49.7705 0.0000 0.0000
# 5 0.0000 0.0000 0.0000 0.0000 44.9842 0.0000
# 6 0.0000 0.0000 0.0000 0.0000 0.0000 35.7786
#
#
#
# Elastic Compliance Matrix: (Units=1/GPa)
#
#
# Indices 1 2 3 4 5 6 
#
# 1 0.008739 -0.005697 -0.001687 0.000000 0.000000 0.000000
# 2 -0.005697 0.017705 -0.003784 0.000000 0.000000 0.000000
# 3 -0.001687 -0.003784 0.011711 0.000000 0.000000 0.000000
# 4 0.000000 0.000000 0.000000 0.020092 0.000000 0.000000
# 5 0.000000 0.000000 0.000000 0.000000 0.022230 0.000000
# 6 0.000000 0.000000 0.000000 0.000000 0.000000 0.027950
#
#
# Mechanical properties :
#
#
# Convention : Reuss Voigt Hill
#
# Bulk Modulus (GPa) = 63.21392 70.32840 66.77116
# Shear Modulus (GPa) = 36.75512 40.05173 38.40343
#
# Velocity S-wave (km/s) = 4.23305 4.41881 4.32693
# Velocity P-wave (km/s) = 7.39659 7.76665 7.58388
#
# Compressibility (1/GPa) = 0.01581930
#
# Stress axis : x y z
#
# Youngs Moduli (GPa) = 114.43497 56.48147 85.38710
#
# Poissons Ratio (x) = 0.32175 0.14402
# Poissons Ratio (y) = 0.65189 0.32314
# Poissons Ratio (z) = 0.19302 0.21375
#
# Static dielectric constant tensor:
#      x y z
#    x 3.967570 0.000000 0.000000 
#    y 0.000000 3.671250 0.000000 
#    z 0.000000 0.000000 3.746420 
# 
# 
# High freq. dielectric constant tensor:
#      x y z
#    x 1.823230 0.000000 0.000000 
#    y 0.000000 1.812160 0.000000 
#    z 0.000000 0.000000 1.819870 
# 
# From -- ./inp_files/67071.got.cif
#   From: 2010.03.12/outbox.cif.g09.slc.cpg/sg65_34_cif.got.tgz:67071.got - 2010.04.10 20:52:16.
