data_PCOD8273632
_publ_section_title
;
Structure prediction by ZEFSAII (Michael W. Deem and Ramdas Pophale) SiO2 
 PCOD8273632
Probable space group: C M M M
;
_chemical_formula_sum "Si O2"
_cell_formula_units_Z 68
_cell_length_a 21.814988
_cell_length_b 16.950881
_cell_length_c 8.965057
_cell_angle_alpha 90.000000
_cell_angle_beta 90.000000
_cell_angle_gamma 90.000000
_cell_volume 3315.128054
_symmetry_space_group_name_H-M "C M M M"
_symmetry_group_IT_number 65
_symmetry_cell_setting 'orthorhombic'
loop_
_space_group_symop_operation_xyz
x,y,z
-x,-y,z
x,-y,-z
-x,y,-z
-x,-y,-z
x,y,-z
-x,y,z
x,-y,z
1/2+x,1/2+y,z
1/2-x,1/2-y,z
1/2+x,1/2-y,-z
1/2-x,1/2+y,-z
1/2-x,1/2-y,-z
1/2+x,1/2+y,-z
1/2-x,1/2+y,z
1/2+x,1/2-y,z
loop_
_atom_site_type_symbol
_atom_site_label
_atom_site_fract_x
_atom_site_fract_y
_atom_site_fract_z
Si Si1 0.333848 0.909761 0.825365
Si Si2 0.500000 0.329953 0.322179
Si Si3 0.135197 0.000000 0.340100
Si Si4 0.697113 0.638329 0.823925
Si Si5 0.121799 0.735755 0.675307
Si Si6 0.500000 0.500000 0.703030
O O1 0.264808 0.888152 0.777986
O O2 0.380398 0.854413 0.733349
O O3 0.347261 0.000000 0.781187
O O4 0.343892 0.895866 0.000000
O O5 0.500000 0.351061 0.500000
O O6 0.441111 0.278147 0.279276
O O7 0.500000 0.411481 0.221704
O O8 0.149569 0.076748 0.244706
O O9 0.063774 0.000000 0.385264
O O10 0.170457 0.000000 0.500000
O O11 0.679932 0.723379 0.756693
O O12 0.689048 0.640596 0.000000
O O13 0.132748 0.737963 0.500000
#
# Coordination Sequence:
#
# PCOD8273632 Si02
#       6
#    16   8   8  16  16   4
#     4  10  22  42  63  84 117 160 196 238 304 363
#     4  10  21  38  59  86 122 159 193 238 300 353
#     4  12  22  35  60  91 122 160 203 245 285 342
#     4  11  22  39  60  87 124 161 194 239 298 356
#     4  11  23  39  61  90 119 154 200 248 294 349
#     4  12  21  38  63  86 125 168 195 234 297 346
#
# _framework density 20.512027
#
# number of rings (size 3 to 8) (size 9 to 14) (size 15 to 20)
#    0.000    1.176    3.529    3.529    0.000    5.176 
#    0.000    5.294    0.000    3.529    0.000    0.000 
#    0.000    0.000    0.000    0.000    0.000    0.000 
#
# Total GULP energy -421380.073682 kJ/mol
# GULP energy per Si atom -12393.531579 kJ/mol
# Density = 2.046534 g / cm^3
# Si number density = 20.512027 Si / 1000 Ang^3
#
#
#
# Elastic Constant Matrix: (Units=GPa)
#
#
# Indices 1 2 3 4 5 6 
#
# 1 82.8952 63.8054 34.4394 0.0000 0.0000 0.0000
# 2 63.8054 175.2019 52.8727 0.0000 0.0000 0.0000
# 3 34.4394 52.8727 74.5303 0.0000 0.0000 0.0000
# 4 0.0000 0.0000 0.0000 22.5776 0.0000 0.0000
# 5 0.0000 0.0000 0.0000 0.0000 7.7138 0.0000
# 6 0.0000 0.0000 0.0000 0.0000 0.0000 36.8979
#
#
#
# Elastic Compliance Matrix: (Units=1/GPa)
#
#
# Indices 1 2 3 4 5 6 
#
# 1 0.017946 -0.005132 -0.004652 0.000000 0.000000 0.000000
# 2 -0.005132 0.008730 -0.003822 0.000000 0.000000 0.000000
# 3 -0.004652 -0.003822 0.018278 0.000000 0.000000 0.000000
# 4 0.000000 0.000000 0.000000 0.044292 0.000000 0.000000
# 5 0.000000 0.000000 0.000000 0.000000 0.129638 0.000000
# 6 0.000000 0.000000 0.000000 0.000000 0.000000 0.027102
#
#
# Mechanical properties :
#
#
# Convention : Reuss Voigt Hill
#
# Bulk Modulus (GPa) = 56.36032 70.54025 63.45029
# Shear Modulus (GPa) = 17.91399 25.53853 21.72626
#
# Velocity S-wave (km/s) = 2.95844 3.53236 3.25806
# Velocity P-wave (km/s) = 6.26148 7.14850 6.71965
#
# Compressibility (1/GPa) = 0.01774298
#
# Stress axis : x y z
#
# Youngs Moduli (GPa) = 55.72233 114.54840 54.70966
#
# Poissons Ratio (x) = 0.58783 0.25452
# Poissons Ratio (y) = 0.28595 0.20909
# Poissons Ratio (z) = 0.25923 0.43778
#
# Static dielectric constant tensor:
#      x y z
#    x 3.640460 0.000000 0.000000 
#    y 0.000000 4.233000 0.000000 
#    z 0.000000 0.000000 3.438640 
# 
# 
# High freq. dielectric constant tensor:
#      x y z
#    x 1.790130 0.000000 0.000000 
#    y 0.000000 1.821020 0.000000 
#    z 0.000000 0.000000 1.783690 
# 
# From -- ./inp_files/10985.got.cif
#   From: 2010.03.12/outbox.cif.g09.slc.cpg/sg65_6_cif.got.tgz:10985.got - 2010.04.10 20:52:16.
