data_PCOD8273702
_publ_section_title
;
Structure prediction by ZEFSAII (Michael W. Deem and Ramdas Pophale) SiO2 
 PCOD8273702
Probable space group: C M M M
;
_chemical_formula_sum "Si O2"
_cell_formula_units_Z 72
_cell_length_a 19.182859
_cell_length_b 21.796183
_cell_length_c 8.620981
_cell_angle_alpha 90.000000
_cell_angle_beta 90.000000
_cell_angle_gamma 90.000000
_cell_volume 3604.545136
_symmetry_space_group_name_H-M "C M M M"
_symmetry_group_IT_number 65
_symmetry_cell_setting 'orthorhombic'
loop_
_space_group_symop_operation_xyz
x,y,z
-x,-y,z
x,-y,-z
-x,y,-z
-x,-y,-z
x,y,-z
-x,y,z
x,-y,z
1/2+x,1/2+y,z
1/2-x,1/2-y,z
1/2+x,1/2-y,-z
1/2-x,1/2+y,-z
1/2-x,1/2-y,-z
1/2+x,1/2+y,-z
1/2-x,1/2+y,z
1/2+x,1/2-y,z
loop_
_atom_site_type_symbol
_atom_site_label
_atom_site_fract_x
_atom_site_fract_y
_atom_site_fract_z
Si Si1 0.665720 0.115174 0.682084
Si Si2 0.580312 0.777201 0.819723
Si Si3 0.420413 0.351625 0.320789
Si Si4 0.695982 0.570229 0.181292
Si Si5 0.577749 0.000000 0.684332
O O1 0.679111 0.109127 0.500000
O O2 0.628901 0.179116 0.718414
O O3 0.739405 0.112373 0.768427
O O4 0.617206 0.060231 0.745380
O O5 0.500000 0.789796 0.774462
O O6 0.600540 0.707641 0.779708
O O7 0.594009 0.789390 0.000000
O O8 0.408404 0.335502 0.500000
O O9 0.500000 0.370911 0.288425
O O10 0.373058 0.408447 0.270361
O O11 0.711231 0.500000 0.228571
O O12 0.682833 0.577406 0.000000
O O13 0.500000 0.000000 0.755121
O O14 0.574261 0.000000 0.500000
#
# Coordination Sequence:
#
# PCOD8273702 Si02
#       5
#    16  16  16  16   8
#     4  11  21  36  59  86 120 159 201 246 292 346
#     4  10  21  38  60  88 123 159 196 242 297 355
#     4  10  22  41  65  91 117 149 195 248 298 352
#     4  11  24  41  61  86 121 159 196 242 297 357
#     4   9  18  32  53  83 116 153 196 241 287 336
#
# _framework density 19.974779999999999
#
# number of rings (size 3 to 8) (size 9 to 14) (size 15 to 20)
#    0.000    1.667    1.111    3.333    0.000    6.222 
#    0.000    6.667    0.000    2.667    0.000    0.000 
#    0.000    0.000    0.000    0.000    0.000    0.000 
#
# Total GULP energy -446646.769542 kJ/mol
# GULP energy per Si atom -12406.854710 kJ/mol
# Density = 1.992932 g / cm^3
# Si number density = 19.974780 Si / 1000 Ang^3
#
#
#
# Elastic Constant Matrix: (Units=GPa)
#
#
# Indices 1 2 3 4 5 6 
#
# 1 114.3483 43.7113 30.6548 0.0000 0.0000 0.0000
# 2 43.7113 67.8442 20.4256 0.0000 0.0000 0.0000
# 3 30.6548 20.4256 53.2016 0.0000 0.0000 0.0000
# 4 0.0000 0.0000 0.0000 31.9265 0.0000 0.0000
# 5 0.0000 0.0000 0.0000 0.0000 32.3783 0.0000
# 6 0.0000 0.0000 0.0000 0.0000 0.0000 38.2371
#
#
#
# Elastic Compliance Matrix: (Units=1/GPa)
#
#
# Indices 1 2 3 4 5 6 
#
# 1 0.012550 -0.006681 -0.004666 0.000000 0.000000 0.000000
# 2 -0.006681 0.020223 -0.003914 0.000000 0.000000 0.000000
# 3 -0.004666 -0.003914 0.022988 0.000000 0.000000 0.000000
# 4 0.000000 0.000000 0.000000 0.031322 0.000000 0.000000
# 5 0.000000 0.000000 0.000000 0.000000 0.030885 0.000000
# 6 0.000000 0.000000 0.000000 0.000000 0.000000 0.026153
#
#
# Mechanical properties :
#
#
# Convention : Reuss Voigt Hill
#
# Bulk Modulus (GPa) = 39.62404 47.21973 43.42189
# Shear Modulus (GPa) = 27.31402 29.88190 28.59796
#
# Velocity S-wave (km/s) = 3.70188 3.87199 3.78789
# Velocity P-wave (km/s) = 6.17673 6.60914 6.39659
#
# Compressibility (1/GPa) = 0.02523720
#
# Stress axis : x y z
#
# Youngs Moduli (GPa) = 79.68065 49.44950 43.50084
#
# Poissons Ratio (x) = 0.33037 0.20299
# Poissons Ratio (y) = 0.53235 0.17028
# Poissons Ratio (z) = 0.37182 0.19357
#
# Static dielectric constant tensor:
#      x y z
#    x 3.663090 0.000000 0.000000 
#    y 0.000000 3.558530 0.000000 
#    z 0.000000 0.000000 3.509050 
# 
# 
# High freq. dielectric constant tensor:
#      x y z
#    x 1.785140 0.000000 0.000000 
#    y 0.000000 1.777980 0.000000 
#    z 0.000000 0.000000 1.779210 
# 
# From -- ./inp_files/11238.got.cif
#   From: 2010.03.12/outbox.cif.g09.slc.cpg/sg65_6_cif.got.tgz:11238.got - 2010.04.10 20:52:16.
