data_PCOD8273109
_publ_section_title
;
Structure prediction by ZEFSAII (Michael W. Deem and Ramdas Pophale) SiO2 
 PCOD8273109
Probable space group: C M M M
;
_chemical_formula_sum "Si O2"
_cell_formula_units_Z 112
_cell_length_a 17.856929
_cell_length_b 25.377219
_cell_length_c 14.096521
_cell_angle_alpha 90.000000
_cell_angle_beta 90.000000
_cell_angle_gamma 90.000000
_cell_volume 6387.968150
_symmetry_space_group_name_H-M "C M M M"
_symmetry_group_IT_number 65
_symmetry_cell_setting 'orthorhombic'
loop_
_space_group_symop_operation_xyz
x,y,z
-x,-y,z
x,-y,-z
-x,y,-z
-x,-y,-z
x,y,-z
-x,y,z
x,-y,z
1/2+x,1/2+y,z
1/2-x,1/2-y,z
1/2+x,1/2-y,-z
1/2-x,1/2+y,-z
1/2-x,1/2-y,-z
1/2+x,1/2+y,-z
1/2-x,1/2+y,z
1/2+x,1/2-y,z
loop_
_atom_site_type_symbol
_atom_site_label
_atom_site_fract_x
_atom_site_fract_y
_atom_site_fract_z
Si Si1 0.086148 0.404665 0.392853
Si Si2 0.414017 0.844693 0.107621
Si Si3 0.652227 0.059740 0.206732
Si Si4 0.161989 0.249651 0.787525
Si Si5 0.694854 0.439970 0.891009
Si Si6 0.585323 0.652552 0.110819
Si Si7 0.414288 0.219112 0.393289
O O1 0.108883 0.420682 0.500000
O O2 0.140626 0.434849 0.320047
O O3 0.096514 0.342775 0.377418
O O4 0.000000 0.420734 0.373797
O O5 0.500000 0.827532 0.113519
O O6 0.405477 0.902494 0.152546
O O7 0.366647 0.802895 0.165293
O O8 0.385139 0.845727 0.000000
O O9 0.736767 0.075305 0.178147
O O10 0.635697 0.000000 0.174620
O O11 0.250000 0.250000 0.797906
O O12 0.128263 0.198865 0.836999
O O13 0.138858 0.248585 0.677200
O O14 0.668731 0.500000 0.873956
O O15 0.624916 0.402879 0.865820
O O16 0.720800 0.431671 0.000000
O O17 0.500000 0.648878 0.146967
O O18 0.588018 0.665511 0.000000
O O19 0.391838 0.235049 0.500000
O O20 0.500000 0.234544 0.372604
#
# Coordination Sequence:
#
# PCOD8273109 Si02
#       7
#    16  16  16  16  16  16  16
#     4   9  18  33  53  75 100 135 178 220 261 306
#     4  11  23  37  52  71 101 142 183 217 253 304
#     4  11  21  33  52  77 106 138 174 216 261 312
#     4  12  23  34  54  80 108 139 171 212 267 315
#     4   9  19  36  56  78 107 140 172 211 262 313
#     4  10  21  36  55  80 107 136 177 222 257 302
#     4   9  18  35  57  76 100 137 175 211 256 311
#
# _framework density 17.532961
#
# number of rings (size 3 to 8) (size 9 to 14) (size 15 to 20)
#    0.000    1.857    1.429    4.286    0.000    6.286 
#    0.000    2.857    0.000    0.000    0.000    0.000 
#    0.000    0.000    0.000    6.143    0.000    0.286 
#
# Total GULP energy -694525.758125 kJ/mol
# GULP energy per Si atom -12402.245681 kJ/mol
# Density = 1.749306 g / cm^3
# Si number density = 17.532961 Si / 1000 Ang^3
#
#
#
# Elastic Constant Matrix: (Units=GPa)
#
#
# Indices 1 2 3 4 5 6 
#
# 1 119.7321 52.7674 60.8980 0.0000 0.0000 0.0000
# 2 52.7674 86.2796 43.3189 0.0000 0.0000 0.0000
# 3 60.8980 43.3189 104.9632 0.0000 0.0000 0.0000
# 4 0.0000 0.0000 0.0000 21.8810 0.0000 0.0000
# 5 0.0000 0.0000 0.0000 0.0000 28.4500 0.0000
# 6 0.0000 0.0000 0.0000 0.0000 0.0000 -2.9330
#
#
#
# Elastic Compliance Matrix: (Units=1/GPa)
#
#
# Indices 1 2 3 4 5 6 
#
# 1 0.013655 -0.005516 -0.005645 0.000000 0.000000 0.000000
# 2 -0.005516 0.016848 -0.003753 0.000000 0.000000 0.000000
# 3 -0.005645 -0.003753 0.014351 0.000000 0.000000 0.000000
# 4 0.000000 0.000000 0.000000 0.045702 0.000000 0.000000
# 5 0.000000 0.000000 0.000000 0.000000 0.035149 0.000000
# 6 0.000000 0.000000 0.000000 0.000000 0.000000 -0.340945
#
#
# Mechanical properties :
#
#
# Convention : Reuss Voigt Hill
#
# Bulk Modulus (GPa) = 66.55726 69.43816 67.99771
# Shear Modulus (GPa) = -27.71586 19.74566 -3.98510
#
# Velocity S-wave (km/s) = -3.98022 3.35953 -1.50926
# Velocity P-wave (km/s) = 4.11348 7.39858 5.98580
#
# Compressibility (1/GPa) = 0.01502466
#
# Stress axis : x y z
#
# Youngs Moduli (GPa) = 73.23570 59.35360 69.67988
#
# Poissons Ratio (x) = 0.32742 0.39338
# Poissons Ratio (y) = 0.40400 0.26149
# Poissons Ratio (z) = 0.41345 0.22274
#
# Static dielectric constant tensor:
#      x y z
#    x 3.189840 0.000000 0.000000 
#    y 0.000000 3.263970 0.000000 
#    z 0.000000 0.000000 3.427740 
# 
# 
# High freq. dielectric constant tensor:
#      x y z
#    x 1.666840 0.000000 0.000000 
#    y 0.000000 1.674340 0.000000 
#    z 0.000000 0.000000 1.679540 
# 
# From -- ./inp_files/41117.got.cif
#   From: 2010.03.12/outbox.cif.g09.slc.cpg/sg65_21_cif.got.tgz:41117.got - 2010.04.10 20:52:16.
