data_PCOD8273659
_publ_section_title
;
Structure prediction by ZEFSAII (Michael W. Deem and Ramdas Pophale) SiO2 
 PCOD8273659
Probable space group: C M M M
;
_chemical_formula_sum "Si O2"
_cell_formula_units_Z 104
_cell_length_a 20.395247
_cell_length_b 8.844010
_cell_length_c 29.890671
_cell_angle_alpha 90.000000
_cell_angle_beta 90.000000
_cell_angle_gamma 90.000000
_cell_volume 5391.552750
_symmetry_space_group_name_H-M "C M M M"
_symmetry_group_IT_number 65
_symmetry_cell_setting 'orthorhombic'
loop_
_space_group_symop_operation_xyz
x,y,z
-x,-y,z
x,-y,-z
-x,y,-z
-x,-y,-z
x,y,-z
-x,y,z
x,-y,z
1/2+x,1/2+y,z
1/2-x,1/2-y,z
1/2+x,1/2-y,-z
1/2-x,1/2+y,-z
1/2-x,1/2-y,-z
1/2+x,1/2+y,-z
1/2-x,1/2+y,z
1/2+x,1/2-y,z
loop_
_atom_site_type_symbol
_atom_site_label
_atom_site_fract_x
_atom_site_fract_y
_atom_site_fract_z
Si Si1 0.866576 0.678283 0.448549
Si Si2 0.923674 0.324049 0.694179
Si Si3 0.577529 0.667128 0.783412
Si Si4 0.500000 0.668588 0.447369
Si Si5 0.184938 0.178451 0.365447
Si Si6 0.682126 0.678665 0.050949
Si Si7 0.073184 0.180158 0.118562
O O1 0.851910 0.722179 0.500000
O O2 0.862926 0.500000 0.441111
O O3 0.815089 0.762895 0.416823
O O4 0.937451 0.735845 0.432271
O O5 0.910960 0.500000 0.686740
O O6 0.900440 0.280742 0.744311
O O7 0.880732 0.231016 0.659254
O O8 0.000000 0.281618 0.686619
O O9 0.500000 0.652746 0.784976
O O10 0.607578 0.500000 0.773979
O O11 0.599566 0.729758 0.832155
O O12 0.500000 0.500000 0.425527
O O13 0.500000 0.650288 0.500000
O O14 0.250000 0.250000 0.342574
O O15 0.189954 0.000000 0.364184
O O16 0.688014 0.500000 0.055663
O O17 0.750000 0.750000 0.067815
O O18 0.623119 0.743513 0.081359
O O19 0.667280 0.727318 0.000000
O O20 0.000000 0.245144 0.109030
O O21 0.070262 0.000000 0.116995
#
# Coordination Sequence:
#
# PCOD8273659 Si02
#       7
#    16  16  16   8  16  16  16
#     4  10  21  38  60  85 115 150 186 226 273 322
#     4  10  21  38  61  87 114 144 181 223 269 325
#     4   8  14  28  51  77 104 134 171 216 267 320
#     4   9  17  31  53  83 115 145 181 225 269 311
#     4  12  26  43  62  84 115 149 186 228 275 329
#     4   9  17  29  45  66  96 135 176 217 263 316
#     4   8  14  26  47  74 100 128 169 222 270 310
#
# _framework density 19.289434
#
# number of rings (size 3 to 8) (size 9 to 14) (size 15 to 20)
#    0.000    2.538    0.000    3.462    1.077    3.385 
#    0.000    3.077    0.000    3.231    0.000    2.154 
#    0.000    0.000    0.000    0.000    0.000    0.000 
#
# Total GULP energy -644636.951627 kJ/mol
# GULP energy per Si atom -12396.864454 kJ/mol
# Density = 1.924553 g / cm^3
# Si number density = 19.289434 Si / 1000 Ang^3
#
#
#
# Elastic Constant Matrix: (Units=GPa)
#
#
# Indices 1 2 3 4 5 6 
#
# 1 98.5695 42.7505 60.4716 0.0000 0.0000 0.0000
# 2 42.7505 95.4025 42.0016 0.0000 0.0000 0.0000
# 3 60.4716 42.0016 113.0389 0.0000 0.0000 0.0000
# 4 0.0000 0.0000 0.0000 23.0260 0.0000 0.0000
# 5 0.0000 0.0000 0.0000 0.0000 15.0984 0.0000
# 6 0.0000 0.0000 0.0000 0.0000 0.0000 28.3575
#
#
#
# Elastic Compliance Matrix: (Units=1/GPa)
#
#
# Indices 1 2 3 4 5 6 
#
# 1 0.016376 -0.004162 -0.007214 0.000000 0.000000 0.000000
# 2 -0.004162 0.013590 -0.002823 0.000000 0.000000 0.000000
# 3 -0.007214 -0.002823 0.013755 0.000000 0.000000 0.000000
# 4 0.000000 0.000000 0.000000 0.043429 0.000000 0.000000
# 5 0.000000 0.000000 0.000000 0.000000 0.066232 0.000000
# 6 0.000000 0.000000 0.000000 0.000000 0.000000 0.035264
#
#
# Mechanical properties :
#
#
# Convention : Reuss Voigt Hill
#
# Bulk Modulus (GPa) = 65.26463 66.38424 65.82443
# Shear Modulus (GPa) = 22.50715 24.08220 23.29468
#
# Velocity S-wave (km/s) = 3.41957 3.53720 3.47888
# Velocity P-wave (km/s) = 7.03556 7.15345 7.09475
#
# Compressibility (1/GPa) = 0.01532223
#
# Stress axis : x y z
#
# Youngs Moduli (GPa) = 61.06476 73.58452 72.70264
#
# Poissons Ratio (x) = 0.30627 0.52448
# Poissons Ratio (y) = 0.25416 0.20523
# Poissons Ratio (z) = 0.44052 0.20772
#
# Static dielectric constant tensor:
#      x y z
#    x 3.545100 0.000000 0.000000 
#    y 0.000000 3.368440 0.000000 
#    z 0.000000 0.000000 3.807870 
# 
# 
# High freq. dielectric constant tensor:
#      x y z
#    x 1.734350 0.000000 0.000000 
#    y 0.000000 1.735600 0.000000 
#    z 0.000000 0.000000 1.750960 
# 
# From -- ./inp_files/78262.got.cif
#   From: 2010.03.12/outbox.cif.g09.slc.cpg/sg65_40_cif.got.tgz:78262.got - 2010.04.10 20:52:16.
