data_PCOD8273559
_publ_section_title
;
Structure prediction by ZEFSAII (Michael W. Deem and Ramdas Pophale) SiO2 
 PCOD8273559
Probable space group: C M M M
;
_chemical_formula_sum "Si O2"
_cell_formula_units_Z 80
_cell_length_a 14.027203
_cell_length_b 18.437656
_cell_length_c 15.617365
_cell_angle_alpha 90.000000
_cell_angle_beta 90.000000
_cell_angle_gamma 90.000000
_cell_volume 4039.099488
_symmetry_space_group_name_H-M "C M M M"
_symmetry_group_IT_number 65
_symmetry_cell_setting 'orthorhombic'
loop_
_space_group_symop_operation_xyz
x,y,z
-x,-y,z
x,-y,-z
-x,y,-z
-x,-y,-z
x,y,-z
-x,y,z
x,-y,z
1/2+x,1/2+y,z
1/2-x,1/2-y,z
1/2+x,1/2-y,-z
1/2-x,1/2+y,-z
1/2-x,1/2-y,-z
1/2+x,1/2+y,-z
1/2-x,1/2+y,z
1/2+x,1/2-y,z
loop_
_atom_site_type_symbol
_atom_site_label
_atom_site_fract_x
_atom_site_fract_y
_atom_site_fract_z
Si Si1 0.387325 0.769013 0.592754
Si Si2 0.388205 0.308900 0.763114
Si Si3 0.263679 0.918823 0.180889
Si Si4 0.391658 0.811021 0.095815
Si Si5 0.110921 0.578616 0.346930
O O1 0.351748 0.738722 0.500000
O O2 0.500000 0.765813 0.597695
O O3 0.347779 0.721123 0.671661
O O4 0.353540 0.853217 0.597134
O O5 0.500000 0.326669 0.758399
O O6 0.334377 0.382251 0.787722
O O7 0.364652 0.249916 0.835326
O O8 0.316119 0.876380 0.104182
O O9 0.338543 0.919305 0.256731
O O10 0.238437 0.000000 0.150025
O O11 0.500000 0.838405 0.111220
O O12 0.381472 0.778688 0.000000
O O13 0.130825 0.500000 0.392326
O O14 0.000000 0.587933 0.327058
#
# Coordination Sequence:
#
# PCOD8273559 Si02
#       5
#    16  16  16  16  16
#     4   9  17  31  54  81 107 144 192 235 279 329
#     4  10  21  38  57  80 113 148 190 239 277 321
#     4  11  22  35  55  81 112 150 187 225 276 333
#     4  10  21  38  62  89 114 143 180 225 281 339
#     4   9  17  30  49  76 111 144 175 221 281 340
#
# _framework density 19.806394999999998
#
# number of rings (size 3 to 8) (size 9 to 14) (size 15 to 20)
#    0.000    2.200    2.000    1.200    0.000    4.000 
#    0.000    5.000    0.000    1.800    0.000    7.000 
#    0.000    0.000    0.000    0.000    0.000    0.000 
#
# Total GULP energy -495715.595160 kJ/mol
# GULP energy per Si atom -12392.889879 kJ/mol
# Density = 1.976131 g / cm^3
# Si number density = 19.806395 Si / 1000 Ang^3
#
#
#
# Elastic Constant Matrix: (Units=GPa)
#
#
# Indices 1 2 3 4 5 6 
#
# 1 55.3877 40.3087 19.0405 0.0000 0.0000 0.0000
# 2 40.3087 103.9538 38.3208 0.0000 0.0000 0.0000
# 3 19.0405 38.3208 125.5701 0.0000 0.0000 0.0000
# 4 0.0000 0.0000 0.0000 5.0491 0.0000 0.0000
# 5 0.0000 0.0000 0.0000 0.0000 -0.5748 0.0000
# 6 0.0000 0.0000 0.0000 0.0000 0.0000 29.9589
#
#
#
# Elastic Compliance Matrix: (Units=1/GPa)
#
#
# Indices 1 2 3 4 5 6 
#
# 1 0.025252 -0.009442 -0.000947 0.000000 0.000000 0.000000
# 2 -0.009442 0.014370 -0.002954 0.000000 0.000000 0.000000
# 3 -0.000947 -0.002954 0.009009 0.000000 0.000000 0.000000
# 4 0.000000 0.000000 0.000000 0.198054 0.000000 0.000000
# 5 0.000000 0.000000 0.000000 0.000000 -1.739879 0.000000
# 6 0.000000 0.000000 0.000000 0.000000 0.000000 0.033379
#
#
# Mechanical properties :
#
#
# Convention : Reuss Voigt Hill
#
# Bulk Modulus (GPa) = 45.57100 53.36126 49.46613
# Shear Modulus (GPa) = -3.50677 19.36943 7.93133
#
# Velocity S-wave (km/s) = -1.33205 3.13059 2.00328
# Velocity P-wave (km/s) = 4.54888 6.32988 5.51179
#
# Compressibility (1/GPa) = 0.02194378
#
# Stress axis : x y z
#
# Youngs Moduli (GPa) = 39.60092 69.59070 111.00404
#
# Poissons Ratio (x) = 0.65710 0.10517
# Poissons Ratio (y) = 0.37392 0.32785
# Poissons Ratio (z) = 0.03752 0.20554
#
# Static dielectric constant tensor:
#      x y z
#    x 3.494200 0.000000 0.000000 
#    y 0.000000 3.826670 0.000000 
#    z 0.000000 0.000000 3.757320 
# 
# 
# High freq. dielectric constant tensor:
#      x y z
#    x 1.767960 0.000000 0.000000 
#    y 0.000000 1.754850 0.000000 
#    z 0.000000 0.000000 1.768180 
# 
# From -- ./inp_files/43902.got.cif
#   From: 2010.03.12/outbox.cif.g09.slc.cpg/sg65_22_cif.got.tgz:43902.got - 2010.04.10 20:52:16.
