data_PCOD8273814
_publ_section_title
;
Structure prediction by ZEFSAII (Michael W. Deem and Ramdas Pophale) SiO2 
 PCOD8273814
Probable space group: C M M M
;
_chemical_formula_sum "Si O2"
_cell_formula_units_Z 64
_cell_length_a 22.138755
_cell_length_b 16.606597
_cell_length_c 8.725417
_cell_angle_alpha 90.000000
_cell_angle_beta 90.000000
_cell_angle_gamma 90.000000
_cell_volume 3207.894171
_symmetry_space_group_name_H-M "C M M M"
_symmetry_group_IT_number 65
_symmetry_cell_setting 'orthorhombic'
loop_
_space_group_symop_operation_xyz
x,y,z
-x,-y,z
x,-y,-z
-x,y,-z
-x,-y,-z
x,y,-z
-x,y,z
x,-y,z
1/2+x,1/2+y,z
1/2-x,1/2-y,z
1/2+x,1/2-y,-z
1/2-x,1/2+y,-z
1/2-x,1/2-y,-z
1/2+x,1/2+y,-z
1/2-x,1/2+y,z
1/2+x,1/2-y,z
loop_
_atom_site_type_symbol
_atom_site_label
_atom_site_fract_x
_atom_site_fract_y
_atom_site_fract_z
Si Si1 0.067882 0.000000 0.318050
Si Si2 0.613898 0.177817 0.820253
Si Si3 0.357585 0.653794 0.680691
Si Si4 0.000000 0.409235 0.319052
Si Si5 0.238130 0.593645 0.821269
O O1 0.103065 0.921428 0.259032
O O2 0.066473 0.000000 0.500000
O O3 0.000000 0.000000 0.250878
O O4 0.616786 0.269515 0.767616
O O5 0.559068 0.135490 0.737341
O O6 0.674470 0.131150 0.773058
O O7 0.602718 0.174028 0.000000
O O8 0.363940 0.666660 0.500000
O O9 0.287990 0.639564 0.722304
O O10 0.000000 0.500000 0.253918
O O11 0.000000 0.408883 0.500000
O O12 0.237652 0.500000 0.778299
O O13 0.251773 0.607749 0.000000
#
# Coordination Sequence:
#
# PCOD8273814 Si02
#       5
#     8  16  16   8  16
#     4   9  20  38  59  85 121 164 202 247 308 368
#     4  11  24  41  63  91 124 165 208 252 309 372
#     4  11  22  38  62  92 123 161 208 259 314 366
#     4  11  25  45  67  94 125 160 203 255 310 364
#     4  10  21  39  62  87 121 164 207 254 308 370
#
# _framework density 19.950782
#
# number of rings (size 3 to 8) (size 9 to 14) (size 15 to 20)
#    0.000    1.500    1.250    3.375    1.750    7.000 
#    0.000    0.000    0.000    3.000    0.000    0.000 
#    0.000    0.000    0.000    0.000    0.000    0.000 
#
# Total GULP energy -397000.545793 kJ/mol
# GULP energy per Si atom -12406.267056 kJ/mol
# Density = 1.990537 g / cm^3
# Si number density = 19.950782 Si / 1000 Ang^3
#
#
#
# Elastic Constant Matrix: (Units=GPa)
#
#
# Indices 1 2 3 4 5 6 
#
# 1 146.0176 62.7743 25.7849 0.0000 0.0000 0.0000
# 2 62.7743 145.7794 18.3771 0.0000 0.0000 0.0000
# 3 25.7849 18.3771 31.9928 0.0000 0.0000 0.0000
# 4 0.0000 0.0000 0.0000 32.3182 0.0000 0.0000
# 5 0.0000 0.0000 0.0000 0.0000 36.3592 0.0000
# 6 0.0000 0.0000 0.0000 0.0000 0.0000 30.5266
#
#
#
# Elastic Compliance Matrix: (Units=1/GPa)
#
#
# Indices 1 2 3 4 5 6 
#
# 1 0.009240 -0.003277 -0.005565 0.000000 0.000000 0.000000
# 2 -0.003277 0.008558 -0.002274 0.000000 0.000000 0.000000
# 3 -0.005565 -0.002274 0.037048 0.000000 0.000000 0.000000
# 4 0.000000 0.000000 0.000000 0.030942 0.000000 0.000000
# 5 0.000000 0.000000 0.000000 0.000000 0.027503 0.000000
# 6 0.000000 0.000000 0.000000 0.000000 0.000000 0.032758
#
#
# Mechanical properties :
#
#
# Convention : Reuss Voigt Hill
#
# Bulk Modulus (GPa) = 30.66199 59.74026 45.20113
# Shear Modulus (GPa) = 27.90901 34.29769 31.10335
#
# Velocity S-wave (km/s) = 3.74424 4.15072 3.95271
# Velocity P-wave (km/s) = 5.83906 7.27874 6.59828
#
# Compressibility (1/GPa) = 0.03261367
#
# Stress axis : x y z
#
# Youngs Moduli (GPa) = 108.22365 116.85438 26.99185
#
# Poissons Ratio (x) = 0.38298 0.15020
# Poissons Ratio (y) = 0.35470 0.06138
# Poissons Ratio (z) = 0.60222 0.26575
#
# Static dielectric constant tensor:
#      x y z
#    x 3.727640 0.000000 0.000000 
#    y 0.000000 3.886670 0.000000 
#    z 0.000000 0.000000 3.511150 
# 
# 
# High freq. dielectric constant tensor:
#      x y z
#    x 1.792240 0.000000 0.000000 
#    y 0.000000 1.797810 0.000000 
#    z 0.000000 0.000000 1.770630 
# 
# From -- ./inp_files/13351.got.cif
#   From: 2010.03.12/outbox.cif.g09.slc.cpg/sg65_7_cif.got.tgz:13351.got - 2010.04.10 20:52:16.
