data_PCOD8273099
_publ_section_title
;
Structure prediction by ZEFSAII (Michael W. Deem and Ramdas Pophale) SiO2 
 PCOD8273099
Probable space group: C M M M
;
_chemical_formula_sum "Si O2"
_cell_formula_units_Z 72
_cell_length_a 18.639364
_cell_length_b 9.191938
_cell_length_c 22.335925
_cell_angle_alpha 90.000000
_cell_angle_beta 90.000000
_cell_angle_gamma 90.000000
_cell_volume 3826.855983
_symmetry_space_group_name_H-M "C M M M"
_symmetry_group_IT_number 65
_symmetry_cell_setting 'orthorhombic'
loop_
_space_group_symop_operation_xyz
x,y,z
-x,-y,z
x,-y,-z
-x,y,-z
-x,-y,-z
x,y,-z
-x,y,z
x,-y,z
1/2+x,1/2+y,z
1/2-x,1/2-y,z
1/2+x,1/2-y,-z
1/2-x,1/2+y,-z
1/2-x,1/2-y,-z
1/2+x,1/2+y,-z
1/2-x,1/2+y,z
1/2+x,1/2-y,z
loop_
_atom_site_type_symbol
_atom_site_label
_atom_site_fract_x
_atom_site_fract_y
_atom_site_fract_z
Si Si1 0.825623 0.829731 0.000000
Si Si2 0.821078 0.331547 0.344933
Si Si3 0.915391 0.163507 0.566936
Si Si4 0.177214 0.329642 0.206619
Si Si5 0.416815 0.330578 0.884643
O O1 0.750000 0.750000 0.000000
O O2 0.871702 0.783231 0.942538
O O3 0.810010 0.000000 0.000000
O O4 0.808628 0.500000 0.356217
O O5 0.750000 0.250000 0.366093
O O6 0.886105 0.277207 0.385255
O O7 0.838847 0.298165 0.275965
O O8 0.888037 0.202286 0.500000
O O9 0.000000 0.175317 0.569047
O O10 0.890828 0.000000 0.583827
O O11 0.185754 0.500000 0.193018
O O12 0.250000 0.250000 0.185718
O O13 0.110030 0.264590 0.171050
O O14 0.500000 0.295484 0.896643
O O15 0.405753 0.500000 0.869678
#
# Coordination Sequence:
#
# PCOD8273099 Si02
#       5
#     8  16  16  16  16
#     4  10  21  37  57  81 109 142 181 222 264 314
#     4  10  21  36  55  79 107 140 178 221 267 315
#     4   9  19  36  56  78 106 140 177 218 265 318
#     4  10  21  37  56  79 108 141 179 222 266 316
#     4  10  21  37  57  81 110 144 180 219 265 316
#
# _framework density 18.814399999999999
#
# number of rings (size 3 to 8) (size 9 to 14) (size 15 to 20)
#    0.000    2.222    0.000    3.000    0.000    9.333 
#    0.000    5.556    0.000    2.000    0.000    0.000 
#    0.000    0.000    0.000    0.000    0.000    0.000 
#
# Total GULP energy -446529.201931 kJ/mol
# GULP energy per Si atom -12403.588943 kJ/mol
# Density = 1.877158 g / cm^3
# Si number density = 18.814400 Si / 1000 Ang^3
#
#
#
# Elastic Constant Matrix: (Units=GPa)
#
#
# Indices 1 2 3 4 5 6 
#
# 1 112.0317 56.4015 61.8093 0.0000 0.0000 0.0000
# 2 56.4015 92.5019 60.9366 0.0000 0.0000 0.0000
# 3 61.8093 60.9366 98.1871 0.0000 0.0000 0.0000
# 4 0.0000 0.0000 0.0000 30.5758 0.0000 0.0000
# 5 0.0000 0.0000 0.0000 0.0000 36.8291 0.0000
# 6 0.0000 0.0000 0.0000 0.0000 0.0000 37.9846
#
#
#
# Elastic Compliance Matrix: (Units=1/GPa)
#
#
# Indices 1 2 3 4 5 6 
#
# 1 0.014888 -0.004912 -0.006323 0.000000 0.000000 0.000000
# 2 -0.004912 0.019908 -0.009263 0.000000 0.000000 0.000000
# 3 -0.006323 -0.009263 0.019914 0.000000 0.000000 0.000000
# 4 0.000000 0.000000 0.000000 0.032706 0.000000 0.000000
# 5 0.000000 0.000000 0.000000 0.000000 0.027152 0.000000
# 6 0.000000 0.000000 0.000000 0.000000 0.000000 0.026326
#
#
# Mechanical properties :
#
#
# Convention : Reuss Voigt Hill
#
# Bulk Modulus (GPa) = 72.92497 73.44615 73.18556
# Shear Modulus (GPa) = 26.81524 29.31610 28.06567
#
# Velocity S-wave (km/s) = 3.77935 3.95165 3.86646
# Velocity P-wave (km/s) = 7.60848 7.74227 7.67566
#
# Compressibility (1/GPa) = 0.01371272
#
# Stress axis : x y z
#
# Youngs Moduli (GPa) = 67.17007 50.23217 50.21588
#
# Poissons Ratio (x) = 0.24673 0.31754
# Poissons Ratio (y) = 0.32993 0.46515
# Poissons Ratio (z) = 0.42475 0.46530
#
# Static dielectric constant tensor:
#      x y z
#    x 3.353450 0.000000 0.000000 
#    y 0.000000 3.516600 0.000000 
#    z 0.000000 0.000000 3.523890 
# 
# 
# High freq. dielectric constant tensor:
#      x y z
#    x 1.729800 0.000000 0.000000 
#    y 0.000000 1.732280 0.000000 
#    z 0.000000 0.000000 1.737640 
# 
# From -- ./inp_files/59226.got.cif
#   From: 2010.03.12/outbox.cif.g09.slc.cpg/sg65_30_cif.got.tgz:59226.got - 2010.04.10 20:52:16.
