data_PCOD8273545
_publ_section_title
;
Structure prediction by ZEFSAII (Michael W. Deem and Ramdas Pophale) SiO2 
 PCOD8273545
Probable space group: C M M M
;
_chemical_formula_sum "Si O2"
_cell_formula_units_Z 96
_cell_length_a 22.088740
_cell_length_b 14.150247
_cell_length_c 14.786599
_cell_angle_alpha 90.000000
_cell_angle_beta 90.000000
_cell_angle_gamma 90.000000
_cell_volume 4621.716047
_symmetry_space_group_name_H-M "C M M M"
_symmetry_group_IT_number 65
_symmetry_cell_setting 'orthorhombic'
loop_
_space_group_symop_operation_xyz
x,y,z
-x,-y,z
x,-y,-z
-x,y,-z
-x,-y,-z
x,y,-z
-x,y,z
x,-y,z
1/2+x,1/2+y,z
1/2-x,1/2-y,z
1/2+x,1/2-y,-z
1/2-x,1/2+y,-z
1/2-x,1/2-y,-z
1/2+x,1/2+y,-z
1/2-x,1/2+y,z
1/2+x,1/2-y,z
loop_
_atom_site_type_symbol
_atom_site_label
_atom_site_fract_x
_atom_site_fract_y
_atom_site_fract_z
Si Si1 0.432110 0.249887 0.352771
Si Si2 0.828811 0.604301 0.897235
Si Si3 0.928678 0.895790 0.500000
Si Si4 0.383241 0.712778 0.826491
Si Si5 0.271095 0.606578 0.248623
Si Si6 0.174271 0.610267 0.396117
Si Si7 0.068445 0.111517 0.000000
O O1 0.500000 0.220566 0.383862
O O2 0.407784 0.338261 0.411562
O O3 0.436075 0.282632 0.248119
O O4 0.387004 0.162423 0.366177
O O5 0.858540 0.500000 0.885844
O O6 0.876323 0.681515 0.863959
O O7 0.767117 0.610180 0.842670
O O8 0.810629 0.624910 0.000000
O O9 0.000000 0.909198 0.500000
O O10 0.897650 0.000000 0.500000
O O11 0.325400 0.678685 0.768524
O O12 0.397932 0.644164 0.909282
O O13 0.295185 0.500000 0.265991
O O14 0.230882 0.641753 0.333853
O O15 0.190734 0.632700 0.500000
O O16 0.161164 0.500000 0.380256
O O17 0.000000 0.151211 0.000000
O O18 0.069373 0.000000 0.000000
#
# Coordination Sequence:
#
# PCOD8273545 Si02
#       7
#    16  16   8  16  16  16   8
#     4  11  23  39  62  93 125 164 216 264 316 383
#     4  10  21  37  60  91 127 162 202 257 318 377
#     4   9  20  40  61  82 115 159 210 266 314 365
#     4  12  23  40  66  93 124 172 215 260 320 380
#     4  10  22  39  61  95 129 161 208 261 319 386
#     4  10  21  40  65  93 130 168 205 261 325 382
#     4  11  26  46  66  95 133 169 215 273 323 374
#
# _framework density 20.771505000000001
#
# number of rings (size 3 to 8) (size 9 to 14) (size 15 to 20)
#    0.000    1.500    3.333    1.500    1.167    2.333 
#    1.500    3.333    0.000    2.000    0.000    0.000 
#    0.000    0.000    0.000    0.000    0.000    0.000 
#
# Total GULP energy -595172.660891 kJ/mol
# GULP energy per Si atom -12399.430435 kJ/mol
# Density = 2.072423 g / cm^3
# Si number density = 20.771505 Si / 1000 Ang^3
#
#
#
# Elastic Constant Matrix: (Units=GPa)
#
#
# Indices 1 2 3 4 5 6 
#
# 1 84.9075 43.6965 48.3791 0.0000 0.0000 0.0000
# 2 43.6965 106.2804 42.3172 0.0000 0.0000 0.0000
# 3 48.3791 42.3172 164.2873 0.0000 0.0000 0.0000
# 4 0.0000 0.0000 0.0000 27.2101 0.0000 0.0000
# 5 0.0000 0.0000 0.0000 0.0000 24.0247 0.0000
# 6 0.0000 0.0000 0.0000 0.0000 0.0000 22.8680
#
#
#
# Elastic Compliance Matrix: (Units=1/GPa)
#
#
# Indices 1 2 3 4 5 6 
#
# 1 0.016548 -0.005419 -0.003477 0.000000 0.000000 0.000000
# 2 -0.005419 0.012259 -0.001562 0.000000 0.000000 0.000000
# 3 -0.003477 -0.001562 0.007513 0.000000 0.000000 0.000000
# 4 0.000000 0.000000 0.000000 0.036751 0.000000 0.000000
# 5 0.000000 0.000000 0.000000 0.000000 0.041624 0.000000
# 6 0.000000 0.000000 0.000000 0.000000 0.000000 0.043729
#
#
# Mechanical properties :
#
#
# Convention : Reuss Voigt Hill
#
# Bulk Modulus (GPa) = 64.91931 69.36230 67.14081
# Shear Modulus (GPa) = 27.10408 29.55940 28.33174
#
# Velocity S-wave (km/s) = 3.61622 3.77646 3.69721
# Velocity P-wave (km/s) = 6.98269 7.24438 7.11474
#
# Compressibility (1/GPa) = 0.01540374
#
# Stress axis : x y z
#
# Youngs Moduli (GPa) = 60.43209 81.57321 133.10030
#
# Poissons Ratio (x) = 0.44204 0.46280
# Poissons Ratio (y) = 0.32748 0.20789
# Poissons Ratio (z) = 0.21013 0.12741
#
# Static dielectric constant tensor:
#      x y z
#    x 3.461130 0.000000 0.000000 
#    y 0.000000 4.003240 0.000000 
#    z 0.000000 0.000000 4.137710 
# 
# 
# High freq. dielectric constant tensor:
#      x y z
#    x 1.784250 0.000000 0.000000 
#    y 0.000000 1.823290 0.000000 
#    z 0.000000 0.000000 1.836060 
# 
# From -- ./inp_files/45665.got.cif
#   From: 2010.03.12/outbox.cif.g09.slc.cpg/sg65_23_cif.got.tgz:45665.got - 2010.04.10 20:52:16.
