data_PCOD8273032
_publ_section_title
;
Structure prediction by ZEFSAII (Michael W. Deem and Ramdas Pophale) SiO2 
 PCOD8273032
Probable space group: C M M M
;
_chemical_formula_sum "Si O2"
_cell_formula_units_Z 72
_cell_length_a 18.356340
_cell_length_b 9.205872
_cell_length_c 22.763906
_cell_angle_alpha 90.000000
_cell_angle_beta 90.000000
_cell_angle_gamma 90.000000
_cell_volume 3846.784070
_symmetry_space_group_name_H-M "C M M M"
_symmetry_group_IT_number 65
_symmetry_cell_setting 'orthorhombic'
loop_
_space_group_symop_operation_xyz
x,y,z
-x,-y,z
x,-y,-z
-x,y,-z
-x,-y,-z
x,y,-z
-x,y,z
x,-y,z
1/2+x,1/2+y,z
1/2-x,1/2-y,z
1/2+x,1/2-y,-z
1/2-x,1/2+y,-z
1/2-x,1/2-y,-z
1/2+x,1/2+y,-z
1/2-x,1/2+y,z
1/2+x,1/2-y,z
loop_
_atom_site_type_symbol
_atom_site_label
_atom_site_fract_x
_atom_site_fract_y
_atom_site_fract_z
Si Si1 0.676848 0.668749 0.568315
Si Si2 0.415828 0.830385 0.114137
Si Si3 0.913355 0.835998 0.000000
Si Si4 0.415661 0.832109 0.658045
Si Si5 0.326209 0.170635 0.227565
O O1 0.660955 0.695041 0.500000
O O2 0.686236 0.500000 0.583273
O O3 0.750000 0.750000 0.588631
O O4 0.609051 0.734491 0.603351
O O5 0.500000 0.792122 0.126171
O O6 0.370456 0.778682 0.170365
O O7 0.406164 0.000000 0.101369
O O8 0.384244 0.744677 0.058035
O O9 0.000000 0.830461 0.000000
O O10 0.883603 0.000000 0.000000
O O11 0.500000 0.802602 0.670248
O O12 0.372440 0.783309 0.715805
O O13 0.401112 0.000000 0.642629
O O14 0.250000 0.250000 0.229709
O O15 0.312286 0.000000 0.226308
#
# Coordination Sequence:
#
# PCOD8273032 Si02
#       5
#    16  16   8  16  16
#     4  10  21  37  57  81 110 144 181 220 263 314
#     4   9  17  32  54  76 100 134 174 211 251 305
#     4   9  17  29  48  77 108 133 163 209 260 305
#     4  10  21  37  57  81 109 141 178 221 268 317
#     4  10  21  36  54  77 105 137 174 216 262 313
#
# _framework density 18.716933999999998
#
# number of rings (size 3 to 8) (size 9 to 14) (size 15 to 20)
#    0.000    2.333    0.000    2.333    0.000    9.778 
#    0.000    2.778    0.000    4.000    0.000    0.000 
#    0.000    0.000    0.000    0.000    0.000    0.000 
#
# Total GULP energy -446547.706313 kJ/mol
# GULP energy per Si atom -12404.102953 kJ/mol
# Density = 1.867433 g / cm^3
# Si number density = 18.716934 Si / 1000 Ang^3
#
#
#
# Elastic Constant Matrix: (Units=GPa)
#
#
# Indices 1 2 3 4 5 6 
#
# 1 114.0160 54.5772 71.7087 0.0000 0.0000 0.0000
# 2 54.5772 82.9735 67.3127 0.0000 0.0000 0.0000
# 3 71.7087 67.3127 132.1261 0.0000 0.0000 0.0000
# 4 0.0000 0.0000 0.0000 23.0801 0.0000 0.0000
# 5 0.0000 0.0000 0.0000 0.0000 27.2488 0.0000
# 6 0.0000 0.0000 0.0000 0.0000 0.0000 31.9966
#
#
#
# Elastic Compliance Matrix: (Units=1/GPa)
#
#
# Indices 1 2 3 4 5 6 
#
# 1 0.014618 -0.005419 -0.005173 0.000000 0.000000 0.000000
# 2 -0.005419 0.022551 -0.008548 0.000000 0.000000 0.000000
# 3 -0.005173 -0.008548 0.014731 0.000000 0.000000 0.000000
# 4 0.000000 0.000000 0.000000 0.043327 0.000000 0.000000
# 5 0.000000 0.000000 0.000000 0.000000 0.036699 0.000000
# 6 0.000000 0.000000 0.000000 0.000000 0.000000 0.031253
#
#
# Mechanical properties :
#
#
# Convention : Reuss Voigt Hill
#
# Bulk Modulus (GPa) = 73.41806 79.59029 76.50417
# Shear Modulus (GPa) = 24.27208 25.49957 24.88582
#
# Velocity S-wave (km/s) = 3.60501 3.69505 3.65031
# Velocity P-wave (km/s) = 7.52588 7.79872 7.66351
#
# Compressibility (1/GPa) = 0.01362063
#
# Stress axis : x y z
#
# Youngs Moduli (GPa) = 68.40884 44.34470 67.88469
#
# Poissons Ratio (x) = 0.24028 0.35117
# Poissons Ratio (y) = 0.37067 0.58026
# Poissons Ratio (z) = 0.35389 0.37905
#
# Static dielectric constant tensor:
#      x y z
#    x 3.276870 0.000000 0.000000 
#    y 0.000000 3.426860 0.000000 
#    z 0.000000 0.000000 3.581140 
# 
# 
# High freq. dielectric constant tensor:
#      x y z
#    x 1.714420 0.000000 0.000000 
#    y 0.000000 1.723660 0.000000 
#    z 0.000000 0.000000 1.740000 
# 
# From -- ./inp_files/59232.got.cif
#   From: 2010.03.12/outbox.cif.g09.slc.cpg/sg65_30_cif.got.tgz:59232.got - 2010.04.10 20:52:16.
