data_PCOD8273990
_publ_section_title
;
Structure prediction by ZEFSAII (Michael W. Deem and Ramdas Pophale) SiO2 
 PCOD8273990
Probable space group: C M M M
;
_chemical_formula_sum "Si O2"
_cell_formula_units_Z 80
_cell_length_a 26.595952
_cell_length_b 9.356332
_cell_length_c 16.794236
_cell_angle_alpha 90.000000
_cell_angle_beta 90.000000
_cell_angle_gamma 90.000000
_cell_volume 4179.087037
_symmetry_space_group_name_H-M "C M M M"
_symmetry_group_IT_number 65
_symmetry_cell_setting 'orthorhombic'
loop_
_space_group_symop_operation_xyz
x,y,z
-x,-y,z
x,-y,-z
-x,y,-z
-x,-y,-z
x,y,-z
-x,y,z
x,-y,z
1/2+x,1/2+y,z
1/2-x,1/2-y,z
1/2+x,1/2-y,-z
1/2-x,1/2+y,-z
1/2-x,1/2-y,-z
1/2+x,1/2+y,-z
1/2-x,1/2+y,z
1/2+x,1/2-y,z
loop_
_atom_site_type_symbol
_atom_site_label
_atom_site_fract_x
_atom_site_fract_y
_atom_site_fract_z
Si Si1 0.849359 0.773911 0.182492
Si Si2 0.056410 0.160493 0.721196
Si Si3 0.301075 0.327133 0.349115
Si Si4 0.107771 0.334857 0.410731
Si Si5 0.711528 0.500000 0.092640
Si Si6 0.325958 0.000000 0.904374
O O1 0.905328 0.826014 0.204729
O O2 0.815297 0.773891 0.261192
O O3 0.820185 0.864941 0.117802
O O4 0.855639 0.626612 0.137559
O O5 0.067226 0.274258 0.651519
O O6 0.000000 0.187331 0.753005
O O7 0.062054 0.000000 0.686079
O O8 0.297554 0.500000 0.353955
O O9 0.250000 0.250000 0.374900
O O10 0.342975 0.265335 0.408429
O O11 0.085510 0.326395 0.500000
O O12 0.120451 0.500000 0.388504
O O13 0.768225 0.500000 0.126539
O O14 0.717931 0.500000 0.000000
O O15 0.331516 0.000000 0.000000
#
# Coordination Sequence:
#
# PCOD8273990 Si02
#       6
#    16  16  16  16   8   8
#     4  11  21  37  57  85 118 154 193 244 286 345
#     4  10  22  41  64  87 111 150 201 248 297 347
#     4  11  22  35  57  85 116 161 205 241 288 346
#     4  10  22  39  58  86 121 152 190 241 295 352
#     4  11  20  36  59  85 120 157 191 229 283 345
#     4  11  24  36  55  89 124 157 191 231 291 355
#
# _framework density 19.142937
#
# number of rings (size 3 to 8) (size 9 to 14) (size 15 to 20)
#    0.000    1.400    2.000    4.800    7.000    4.400 
#    0.000    2.000    0.000    3.600    0.000    0.000 
#    0.000    0.000    0.000    0.000    0.000    0.000 
#
# Total GULP energy -495805.478565 kJ/mol
# GULP energy per Si atom -12395.136964 kJ/mol
# Density = 1.909937 g / cm^3
# Si number density = 19.142937 Si / 1000 Ang^3
#
#
#
# Elastic Constant Matrix: (Units=GPa)
#
#
# Indices 1 2 3 4 5 6 
#
# 1 117.5508 22.8661 26.7812 0.0000 0.0000 0.0000
# 2 22.8661 125.2967 39.8417 0.0000 0.0000 0.0000
# 3 26.7812 39.8417 62.5285 0.0000 0.0000 0.0000
# 4 0.0000 0.0000 0.0000 34.3436 0.0000 0.0000
# 5 0.0000 0.0000 0.0000 0.0000 13.7427 0.0000
# 6 0.0000 0.0000 0.0000 0.0000 0.0000 29.3682
#
#
#
# Elastic Compliance Matrix: (Units=1/GPa)
#
#
# Indices 1 2 3 4 5 6 
#
# 1 0.009457 -0.000549 -0.003700 0.000000 0.000000 0.000000
# 2 -0.000549 0.010041 -0.006163 0.000000 0.000000 0.000000
# 3 -0.003700 -0.006163 0.021504 0.000000 0.000000 0.000000
# 4 0.000000 0.000000 0.000000 0.029117 0.000000 0.000000
# 5 0.000000 0.000000 0.000000 0.000000 0.072766 0.000000
# 6 0.000000 0.000000 0.000000 0.000000 0.000000 0.034050
#
#
# Mechanical properties :
#
#
# Convention : Reuss Voigt Hill
#
# Bulk Modulus (GPa) = 49.56011 53.81711 51.68861
# Shear Modulus (GPa) = 24.45151 29.88337 27.16744
#
# Velocity S-wave (km/s) = 3.57783 3.95532 3.77130
# Velocity P-wave (km/s) = 6.55847 7.00241 6.78407
#
# Compressibility (1/GPa) = 0.02017752
#
# Stress axis : x y z
#
# Youngs Moduli (GPa) = 105.74346 99.59313 46.50234
#
# Poissons Ratio (x) = 0.05469 0.17208
# Poissons Ratio (y) = 0.05807 0.28658
# Poissons Ratio (z) = 0.39130 0.61375
#
# Static dielectric constant tensor:
#      x y z
#    x 3.484800 0.000000 0.000000 
#    y 0.000000 3.068990 0.000000 
#    z 0.000000 0.000000 3.385120 
# 
# 
# High freq. dielectric constant tensor:
#      x y z
#    x 1.735290 0.000000 0.000000 
#    y 0.000000 1.763800 0.000000 
#    z 0.000000 0.000000 1.732430 
# 
# From -- ./inp_files/57331.got.cif
#   From: 2010.03.12/outbox.cif.g09.slc.cpg/sg65_29_cif.got.tgz:57331.got - 2010.04.10 20:52:16.
