data_PCOD8273770
_publ_section_title
;
Structure prediction by ZEFSAII (Michael W. Deem and Ramdas Pophale) SiO2 
 PCOD8273770
Probable space group: C M M M
;
_chemical_formula_sum "Si O2"
_cell_formula_units_Z 56
_cell_length_a 10.057276
_cell_length_b 26.768752
_cell_length_c 11.249278
_cell_angle_alpha 90.000000
_cell_angle_beta 90.000000
_cell_angle_gamma 90.000000
_cell_volume 3028.538802
_symmetry_space_group_name_H-M "C M M M"
_symmetry_group_IT_number 65
_symmetry_cell_setting 'orthorhombic'
loop_
_space_group_symop_operation_xyz
x,y,z
-x,-y,z
x,-y,-z
-x,y,-z
-x,-y,-z
x,y,-z
-x,y,z
x,-y,z
1/2+x,1/2+y,z
1/2-x,1/2-y,z
1/2+x,1/2-y,-z
1/2-x,1/2+y,-z
1/2-x,1/2-y,-z
1/2+x,1/2+y,-z
1/2-x,1/2+y,z
1/2+x,1/2-y,z
loop_
_atom_site_type_symbol
_atom_site_label
_atom_site_fract_x
_atom_site_fract_y
_atom_site_fract_z
Si Si1 0.659016 0.940461 0.000000
Si Si2 0.656407 0.202464 0.363591
Si Si3 0.742170 0.104915 0.244018
Si Si4 0.500000 0.558950 0.640954
Si Si5 0.000000 0.556596 0.365643
O O1 0.728749 0.911411 0.892184
O O2 0.500000 0.932392 0.000000
O O3 0.691798 0.000000 0.000000
O O4 0.669247 0.183015 0.500000
O O5 0.500000 0.213812 0.335845
O O6 0.750000 0.250000 0.345643
O O7 0.716407 0.163452 0.268114
O O8 0.631599 0.077010 0.314288
O O9 0.878750 0.086644 0.298207
O O10 0.500000 0.500000 0.669793
O O11 0.500000 0.568163 0.500000
O O12 0.000000 0.500000 0.333315
O O13 0.000000 0.571174 0.500000
#
# Coordination Sequence:
#
# PCOD8273770 Si02
#       5
#     8  16  16   8   8
#     4  11  22  39  64  91 123 168 216 257 299 364
#     4  10  21  38  62  91 121 157 205 263 325 380
#     4  12  23  39  61  88 126 165 208 255 309 367
#     4  11  24  39  58  90 129 165 203 256 322 382
#     4  11  20  33  58  88 117 153 199 254 312 370
#
# _framework density 18.490763999999999
#
# number of rings (size 3 to 8) (size 9 to 14) (size 15 to 20)
#    0.000    1.000    2.857    5.143    2.000    2.857 
#    0.000    2.143    0.000    0.000    0.000    0.000 
#    0.000    0.000    0.000    0.000    0.000    0.000 
#
# Total GULP energy -346995.539592 kJ/mol
# GULP energy per Si atom -12392.697843 kJ/mol
# Density = 1.844868 g / cm^3
# Si number density = 18.490764 Si / 1000 Ang^3
#
#
#
# Elastic Constant Matrix: (Units=GPa)
#
#
# Indices 1 2 3 4 5 6 
#
# 1 169.6516 66.6746 63.5177 0.0000 0.0000 0.0000
# 2 66.6746 138.9236 64.4497 0.0000 0.0000 0.0000
# 3 63.5177 64.4497 148.2760 0.0000 0.0000 0.0000
# 4 0.0000 0.0000 0.0000 33.0364 0.0000 0.0000
# 5 0.0000 0.0000 0.0000 0.0000 18.8129 0.0000
# 6 0.0000 0.0000 0.0000 0.0000 0.0000 38.6627
#
#
#
# Elastic Compliance Matrix: (Units=1/GPa)
#
#
# Indices 1 2 3 4 5 6 
#
# 1 0.007771 -0.002737 -0.002139 0.000000 0.000000 0.000000
# 2 -0.002737 0.009980 -0.003166 0.000000 0.000000 0.000000
# 3 -0.002139 -0.003166 0.009036 0.000000 0.000000 0.000000
# 4 0.000000 0.000000 0.000000 0.030270 0.000000 0.000000
# 5 0.000000 0.000000 0.000000 0.000000 0.053155 0.000000
# 6 0.000000 0.000000 0.000000 0.000000 0.000000 0.025865
#
#
# Mechanical properties :
#
#
# Convention : Reuss Voigt Hill
#
# Bulk Modulus (GPa) = 93.42182 94.01502 93.71842
# Shear Modulus (GPa) = 32.10700 35.58302 33.84501
#
# Velocity S-wave (km/s) = 4.17151 4.39152 4.28293
# Velocity P-wave (km/s) = 8.59274 8.75606 8.67479
#
# Compressibility (1/GPa) = 0.01070414
#
# Stress axis : x y z
#
# Youngs Moduli (GPa) = 128.68201 100.19569 110.66247
#
# Poissons Ratio (x) = 0.27426 0.23673
# Poissons Ratio (y) = 0.35223 0.35031
# Poissons Ratio (z) = 0.27527 0.31717
#
# Static dielectric constant tensor:
#      x y z
#    x 3.529310 0.000000 0.000000 
#    y 0.000000 4.948720 0.000000 
#    z 0.000000 0.000000 3.250280 
# 
# 
# High freq. dielectric constant tensor:
#      x y z
#    x 1.734570 0.000000 0.000000 
#    y 0.000000 1.722190 0.000000 
#    z 0.000000 0.000000 1.713340 
# 
# From -- ./inp_files/20507.got.cif
#   From: 2010.03.12/outbox.cif.g09.slc.cpg/sg65_11_cif.got.tgz:20507.got - 2010.04.10 20:52:16.
