data_PCOD8273350
_publ_section_title
;
Structure prediction by ZEFSAII (Michael W. Deem and Ramdas Pophale) SiO2 
 PCOD8273350
Probable space group: C M M M
;
_chemical_formula_sum "Si O2"
_cell_formula_units_Z 104
_cell_length_a 8.948568
_cell_length_b 26.496346
_cell_length_c 22.545710
_cell_angle_alpha 90.000000
_cell_angle_beta 90.000000
_cell_angle_gamma 90.000000
_cell_volume 5345.686004
_symmetry_space_group_name_H-M "C M M M"
_symmetry_group_IT_number 65
_symmetry_cell_setting 'orthorhombic'
loop_
_space_group_symop_operation_xyz
x,y,z
-x,-y,z
x,-y,-z
-x,y,-z
-x,-y,-z
x,y,-z
-x,y,z
x,-y,z
1/2+x,1/2+y,z
1/2-x,1/2-y,z
1/2+x,1/2-y,-z
1/2-x,1/2+y,-z
1/2-x,1/2-y,-z
1/2+x,1/2+y,-z
1/2-x,1/2+y,z
1/2+x,1/2-y,z
loop_
_atom_site_type_symbol
_atom_site_label
_atom_site_fract_x
_atom_site_fract_y
_atom_site_fract_z
Si Si1 0.828409 0.500000 0.570083
Si Si2 0.173464 0.700548 0.174343
Si Si3 0.669971 0.555961 0.139268
Si Si4 0.675459 0.698781 0.568260
Si Si5 0.324993 0.651554 0.933150
Si Si6 0.173553 0.398863 0.754336
Si Si7 0.822701 0.904310 0.370483
O O1 0.815451 0.500000 0.500000
O O2 0.749229 0.449749 0.593212
O O3 0.000000 0.500000 0.591471
O O4 0.250000 0.750000 0.201591
O O5 0.240430 0.690226 0.109369
O O6 0.208665 0.656597 0.220774
O O7 0.000000 0.709904 0.166240
O O8 0.500000 0.565678 0.160660
O O9 0.689848 0.500000 0.112940
O O10 0.712859 0.594504 0.087068
O O11 0.778318 0.561358 0.195654
O O12 0.722177 0.691000 0.500000
O O13 0.500000 0.705342 0.575749
O O14 0.750000 0.750000 0.593799
O O15 0.732789 0.649559 0.603653
O O16 0.500000 0.662811 0.929108
O O17 0.265769 0.658593 0.000000
O O18 0.272883 0.408539 0.697117
O O19 0.000000 0.406328 0.738866
O O20 0.000000 0.909244 0.375511
#
# Coordination Sequence:
#
# PCOD8273350 Si02
#       7
#     8  16  16  16  16  16  16
#     4  11  25  43  63  89 121 157 196 241 292 343
#     4  10  21  37  57  79 107 146 187 231 284 337
#     4   9  18  33  54  78 106 141 180 223 274 331
#     4   9  19  36  58  84 113 146 184 227 277 333
#     4   9  18  33  53  79 110 142 180 227 277 334
#     4  10  22  38  55  79 110 143 183 230 278 330
#     4  11  23  39  61  87 117 154 195 238 286 344
#
# _framework density 19.454940000000001
#
# number of rings (size 3 to 8) (size 9 to 14) (size 15 to 20)
#    0.000    2.231    0.000    2.077    1.077    6.154 
#    0.000    6.154    0.000    0.000    0.000    4.308 
#    0.000    0.000    0.000    0.000    0.000    0.000 
#
# Total GULP energy -644907.465637 kJ/mol
# GULP energy per Si atom -12402.066647 kJ/mol
# Density = 1.941066 g / cm^3
# Si number density = 19.454940 Si / 1000 Ang^3
#
#
#
# Elastic Constant Matrix: (Units=GPa)
#
#
# Indices 1 2 3 4 5 6 
#
# 1 70.4209 37.6036 29.9516 0.0000 0.0000 0.0000
# 2 37.6036 102.0799 13.2209 0.0000 0.0000 0.0000
# 3 29.9516 13.2209 69.1557 0.0000 0.0000 0.0000
# 4 0.0000 0.0000 0.0000 12.7929 0.0000 0.0000
# 5 0.0000 0.0000 0.0000 0.0000 26.8790 0.0000
# 6 0.0000 0.0000 0.0000 0.0000 0.0000 32.6991
#
#
#
# Elastic Compliance Matrix: (Units=1/GPa)
#
#
# Indices 1 2 3 4 5 6 
#
# 1 0.021168 -0.006778 -0.007872 0.000000 0.000000 0.000000
# 2 -0.006778 0.012215 0.000600 0.000000 0.000000 0.000000
# 3 -0.007872 0.000600 0.017755 0.000000 0.000000 0.000000
# 4 0.000000 0.000000 0.000000 0.078168 0.000000 0.000000
# 5 0.000000 0.000000 0.000000 0.000000 0.037204 0.000000
# 6 0.000000 0.000000 0.000000 0.000000 0.000000 0.030582
#
#
# Mechanical properties :
#
#
# Convention : Reuss Voigt Hill
#
# Bulk Modulus (GPa) = 43.40594 44.80097 44.10346
# Shear Modulus (GPa) = 21.47109 25.19956 23.33532
#
# Velocity S-wave (km/s) = 3.32570 3.60290 3.46707
# Velocity P-wave (km/s) = 6.09151 6.35499 6.22464
#
# Compressibility (1/GPa) = 0.02303832
#
# Stress axis : x y z
#
# Youngs Moduli (GPa) = 47.24122 81.86392 56.32279
#
# Poissons Ratio (x) = 0.55489 0.44338
# Poissons Ratio (y) = 0.32021 -0.03381
# Poissons Ratio (z) = 0.37189 -0.04915
#
# Static dielectric constant tensor:
#      x y z
#    x 3.563660 0.000000 0.000000 
#    y 0.000000 3.765580 0.000000 
#    z 0.000000 0.000000 3.464230 
# 
# 
# High freq. dielectric constant tensor:
#      x y z
#    x 1.757780 0.000000 0.000000 
#    y 0.000000 1.769040 0.000000 
#    z 0.000000 0.000000 1.750100 
# 
# From -- ./inp_files/60443.got.cif
#   From: 2010.03.12/outbox.cif.g09.slc.cpg/sg65_31_cif.got.tgz:60443.got - 2010.04.10 20:52:16.
