data_PCOD8273171
_publ_section_title
;
Structure prediction by ZEFSAII (Michael W. Deem and Ramdas Pophale) SiO2 
 PCOD8273171
Probable space group: C M M M
;
_chemical_formula_sum "Si O2"
_cell_formula_units_Z 104
_cell_length_a 28.474821
_cell_length_b 20.755736
_cell_length_c 9.037592
_cell_angle_alpha 90.000000
_cell_angle_beta 90.000000
_cell_angle_gamma 90.000000
_cell_volume 5341.360274
_symmetry_space_group_name_H-M "C M M M"
_symmetry_group_IT_number 65
_symmetry_cell_setting 'orthorhombic'
loop_
_space_group_symop_operation_xyz
x,y,z
-x,-y,z
x,-y,-z
-x,y,-z
-x,-y,-z
x,y,-z
-x,y,z
x,-y,z
1/2+x,1/2+y,z
1/2-x,1/2-y,z
1/2+x,1/2-y,-z
1/2-x,1/2+y,-z
1/2-x,1/2-y,-z
1/2+x,1/2+y,-z
1/2-x,1/2+y,z
1/2+x,1/2-y,z
loop_
_atom_site_type_symbol
_atom_site_label
_atom_site_fract_x
_atom_site_fract_y
_atom_site_fract_z
Si Si1 0.363380 0.928250 0.669470
Si Si2 0.555153 0.500000 0.175952
Si Si3 0.945844 0.246164 0.668330
Si Si4 0.391527 0.617885 0.674193
Si Si5 0.053138 0.374235 0.825900
Si Si6 0.191818 0.179091 0.828953
Si Si7 0.800830 0.325173 0.829103
O O1 0.372691 0.911371 0.500000
O O2 0.413258 0.926821 0.753174
O O3 0.327186 0.877237 0.732402
O O4 0.342470 0.000000 0.689086
O O5 0.500000 0.500000 0.221939
O O6 0.581362 0.561702 0.241672
O O7 0.560456 0.500000 0.000000
O O8 0.935248 0.266642 0.500000
O O9 0.917989 0.183212 0.714740
O O10 0.929526 0.303720 0.774719
O O11 0.000000 0.229542 0.692197
O O12 0.390936 0.602470 0.500000
O O13 0.338485 0.628567 0.732505
O O14 0.000000 0.387047 0.771627
O O15 0.057250 0.378865 0.000000
O O16 0.184010 0.253321 0.778760
O O17 0.245985 0.162279 0.803573
O O18 0.177961 0.170787 0.000000
O O19 0.814104 0.335127 0.000000
#
# Coordination Sequence:
#
# PCOD8273171 Si02
#       7
#    16   8  16  16  16  16  16
#     4  11  24  39  55  79 112 150 188 228 278 334
#     4  11  25  43  61  81 111 155 203 249 298 353
#     4   9  18  33  54  81 113 147 183 226 279 336
#     4  11  22  36  57  86 116 151 191 235 288 346
#     4  10  21  36  56  83 112 144 186 234 278 326
#     4   9  19  37  61  89 118 146 184 234 286 339
#     4   9  19  38  63  88 114 148 189 234 283 337
#
# _framework density 19.470694999999999
#
# number of rings (size 3 to 8) (size 9 to 14) (size 15 to 20)
#    0.000    2.077    0.000    3.923    0.000    8.615 
#    1.385    4.615    0.000    0.000    0.000    0.000 
#    0.000    0.000    0.000    0.000    0.000    0.000 
#
# Total GULP energy -644869.369510 kJ/mol
# GULP energy per Si atom -12401.334029 kJ/mol
# Density = 1.942638 g / cm^3
# Si number density = 19.470695 Si / 1000 Ang^3
#
#
#
# Elastic Constant Matrix: (Units=GPa)
#
#
# Indices 1 2 3 4 5 6 
#
# 1 90.5260 56.9393 47.6197 0.0000 0.0000 0.0000
# 2 56.9393 92.8274 54.2978 0.0000 0.0000 0.0000
# 3 47.6197 54.2978 93.8471 0.0000 0.0000 0.0000
# 4 0.0000 0.0000 0.0000 33.2540 0.0000 0.0000
# 5 0.0000 0.0000 0.0000 0.0000 30.5111 0.0000
# 6 0.0000 0.0000 0.0000 0.0000 0.0000 27.6533
#
#
#
# Elastic Compliance Matrix: (Units=1/GPa)
#
#
# Indices 1 2 3 4 5 6 
#
# 1 0.019120 -0.009150 -0.004408 0.000000 0.000000 0.000000
# 2 -0.009150 0.020662 -0.007312 0.000000 0.000000 0.000000
# 3 -0.004408 -0.007312 0.017123 0.000000 0.000000 0.000000
# 4 0.000000 0.000000 0.000000 0.030072 0.000000 0.000000
# 5 0.000000 0.000000 0.000000 0.000000 0.032775 0.000000
# 6 0.000000 0.000000 0.000000 0.000000 0.000000 0.036162
#
#
# Mechanical properties :
#
#
# Convention : Reuss Voigt Hill
#
# Bulk Modulus (GPa) = 65.93804 66.10156 66.01980
# Shear Modulus (GPa) = 24.66594 26.17325 25.41959
#
# Velocity S-wave (km/s) = 3.56311 3.67036 3.61713
# Velocity P-wave (km/s) = 7.13207 7.21007 7.17117
#
# Compressibility (1/GPa) = 0.01516575
#
# Stress axis : x y z
#
# Youngs Moduli (GPa) = 52.29997 48.39820 58.40144
#
# Poissons Ratio (x) = 0.44283 0.25745
# Poissons Ratio (y) = 0.47853 0.42702
# Poissons Ratio (z) = 0.23055 0.35388
#
# Static dielectric constant tensor:
#      x y z
#    x 3.665870 0.000000 0.000000 
#    y 0.000000 3.542700 0.000000 
#    z 0.000000 0.000000 3.528520 
# 
# 
# High freq. dielectric constant tensor:
#      x y z
#    x 1.766800 0.000000 0.000000 
#    y 0.000000 1.752520 0.000000 
#    z 0.000000 0.000000 1.760550 
# 
# From -- ./inp_files/16476.got.cif
#   From: 2010.03.12/outbox.cif.g09.slc.cpg/sg65_9_cif.got.tgz:16476.got - 2010.04.10 20:52:16.
