data_PCOD8273721
_publ_section_title
;
Structure prediction by ZEFSAII (Michael W. Deem and Ramdas Pophale) SiO2 
 PCOD8273721
Probable space group: C M M M
;
_chemical_formula_sum "Si O2"
_cell_formula_units_Z 72
_cell_length_a 18.866161
_cell_length_b 8.585304
_cell_length_c 22.502240
_cell_angle_alpha 90.000000
_cell_angle_beta 90.000000
_cell_angle_gamma 90.000000
_cell_volume 3644.726685
_symmetry_space_group_name_H-M "C M M M"
_symmetry_group_IT_number 65
_symmetry_cell_setting 'orthorhombic'
loop_
_space_group_symop_operation_xyz
x,y,z
-x,-y,z
x,-y,-z
-x,y,-z
-x,-y,-z
x,y,-z
-x,y,z
x,-y,z
1/2+x,1/2+y,z
1/2-x,1/2-y,z
1/2+x,1/2-y,-z
1/2-x,1/2+y,-z
1/2-x,1/2-y,-z
1/2+x,1/2+y,-z
1/2-x,1/2+y,z
1/2+x,1/2-y,z
loop_
_atom_site_type_symbol
_atom_site_label
_atom_site_fract_x
_atom_site_fract_y
_atom_site_fract_z
Si Si1 0.917342 0.319585 0.831665
Si Si2 0.825531 0.181550 0.068970
Si Si3 0.675098 0.682670 0.730612
Si Si4 0.326154 0.816092 0.603439
Si Si5 0.583192 0.680758 0.500000
O O1 0.901149 0.500000 0.819717
O O2 0.886315 0.269611 0.895092
O O3 0.883809 0.217399 0.779484
O O4 0.000000 0.283496 0.833047
O O5 0.750000 0.250000 0.088181
O O6 0.826361 0.000000 0.084669
O O7 0.840764 0.213080 0.000000
O O8 0.682891 0.500000 0.720469
O O9 0.750000 0.750000 0.753037
O O10 0.651883 0.760235 0.668869
O O11 0.250000 0.750000 0.584047
O O12 0.385801 0.759061 0.558657
O O13 0.321719 0.000000 0.602230
O O14 0.602818 0.500000 0.500000
O O15 0.500000 0.710478 0.500000
#
# Coordination Sequence:
#
# PCOD8273721 Si02
#       5
#    16  16  16  16   8
#     4  11  24  40  58  83 117 155 193 235 286 343
#     4  10  21  38  61  87 115 149 191 238 286 339
#     4  11  22  39  63  88 116 150 192 239 287 340
#     4  11  22  39  63  89 118 151 193 240 287 340
#     4  11  24  41  60  85 119 157 196 237 286 343
#
# _framework density 19.754567999999999
#
# number of rings (size 3 to 8) (size 9 to 14) (size 15 to 20)
#    0.000    1.222    0.000    8.000    0.000    5.333 
#    0.000    2.222    0.000    0.000    0.000    0.000 
#    0.000    0.000    0.000    0.000    0.000    0.000 
#
# Total GULP energy -446663.687814 kJ/mol
# GULP energy per Si atom -12407.324661 kJ/mol
# Density = 1.970961 g / cm^3
# Si number density = 19.754568 Si / 1000 Ang^3
#
#
#
# Elastic Constant Matrix: (Units=GPa)
#
#
# Indices 1 2 3 4 5 6 
#
# 1 114.4383 66.5718 71.1206 0.0000 0.0000 0.0000
# 2 66.5718 150.8702 48.9153 0.0000 0.0000 0.0000
# 3 71.1206 48.9153 109.4890 0.0000 0.0000 0.0000
# 4 0.0000 0.0000 0.0000 33.5208 0.0000 0.0000
# 5 0.0000 0.0000 0.0000 0.0000 17.0040 0.0000
# 6 0.0000 0.0000 0.0000 0.0000 0.0000 32.6533
#
#
#
# Elastic Compliance Matrix: (Units=1/GPa)
#
#
# Indices 1 2 3 4 5 6 
#
# 1 0.016991 -0.004583 -0.008989 0.000000 0.000000 0.000000
# 2 -0.004583 0.008987 -0.001038 0.000000 0.000000 0.000000
# 3 -0.008989 -0.001038 0.015436 0.000000 0.000000 0.000000
# 4 0.000000 0.000000 0.000000 0.029832 0.000000 0.000000
# 5 0.000000 0.000000 0.000000 0.000000 0.058810 0.000000
# 6 0.000000 0.000000 0.000000 0.000000 0.000000 0.030625
#
#
# Mechanical properties :
#
#
# Convention : Reuss Voigt Hill
#
# Bulk Modulus (GPa) = 82.01020 83.11256 82.56138
# Shear Modulus (GPa) = 25.77768 29.18159 27.47963
#
# Velocity S-wave (km/s) = 3.61625 3.84761 3.73373
# Velocity P-wave (km/s) = 7.68382 7.86783 7.77637
#
# Compressibility (1/GPa) = 0.01219361
#
# Stress axis : x y z
#
# Youngs Moduli (GPa) = 58.85502 111.27225 64.78200
#
# Poissons Ratio (x) = 0.50993 0.58235
# Poissons Ratio (y) = 0.26972 0.06726
# Poissons Ratio (z) = 0.52907 0.11553
#
# Static dielectric constant tensor:
#      x y z
#    x 3.572560 0.000000 0.000000 
#    y 0.000000 3.823350 0.000000 
#    z 0.000000 0.000000 3.647670 
# 
# 
# High freq. dielectric constant tensor:
#      x y z
#    x 1.765530 0.000000 0.000000 
#    y 0.000000 1.792230 0.000000 
#    z 0.000000 0.000000 1.783390 
# 
# From -- ./inp_files/64315.got.cif
#   From: 2010.03.12/outbox.cif.g09.slc.cpg/sg65_33_cif.got.tgz:64315.got - 2010.04.10 20:52:16.
