data_PCOD8273096
_publ_section_title
;
Structure prediction by ZEFSAII (Michael W. Deem and Ramdas Pophale) SiO2 
 PCOD8273096
Probable space group: C M M M
;
_chemical_formula_sum "Si O2"
_cell_formula_units_Z 64
_cell_length_a 27.233032
_cell_length_b 10.060766
_cell_length_c 13.697445
_cell_angle_alpha 90.000000
_cell_angle_beta 90.000000
_cell_angle_gamma 90.000000
_cell_volume 3752.896693
_symmetry_space_group_name_H-M "C M M M"
_symmetry_group_IT_number 65
_symmetry_cell_setting 'orthorhombic'
loop_
_space_group_symop_operation_xyz
x,y,z
-x,-y,z
x,-y,-z
-x,y,-z
-x,-y,-z
x,y,-z
-x,y,z
x,-y,z
1/2+x,1/2+y,z
1/2-x,1/2-y,z
1/2+x,1/2-y,-z
1/2-x,1/2+y,-z
1/2-x,1/2-y,-z
1/2+x,1/2+y,-z
1/2-x,1/2+y,z
1/2+x,1/2-y,z
loop_
_atom_site_type_symbol
_atom_site_label
_atom_site_fract_x
_atom_site_fract_y
_atom_site_fract_z
Si Si1 0.443544 0.344536 0.111525
Si Si2 0.796554 0.844029 0.612216
Si Si3 0.557193 0.000000 0.616079
Si Si4 0.055541 0.000000 0.387263
Si Si5 0.893479 0.245167 0.706151
O O1 0.500000 0.304708 0.133005
O O2 0.435923 0.500000 0.133451
O O3 0.406321 0.258785 0.178409
O O4 0.430121 0.311643 0.000000
O O5 0.814865 0.834088 0.500000
O O6 0.750000 0.750000 0.628076
O O7 0.836199 0.780736 0.685895
O O8 0.785770 0.000000 0.637523
O O9 0.587146 0.878273 0.658707
O O10 0.500000 0.000000 0.649165
O O11 0.560588 0.000000 0.500000
O O12 0.077453 0.130187 0.344482
O O13 0.066037 0.000000 0.500000
O O14 0.000000 0.000000 0.356927
#
# Coordination Sequence:
#
# PCOD8273096 Si02
#       5
#    16  16   8   8  16
#     4   9  17  31  54  83 110 138 179 229 276 324
#     4  10  21  36  55  79 105 138 184 233 280 331
#     4  11  24  36  48  76 118 155 182 214 268 335
#     4  11  20  30  50  78 106 137 176 218 260 323
#     4  12  21  35  55  77 108 148 185 223 272 327
#
# _framework density 17.053494000000001
#
# number of rings (size 3 to 8) (size 9 to 14) (size 15 to 20)
#    0.000    1.500    2.500    5.250    1.750    2.000 
#    0.000    0.625    0.000    3.000    0.000    0.000 
#    0.000    0.000    0.000    0.000    0.000    0.000 
#
# Total GULP energy -396677.642036 kJ/mol
# GULP energy per Si atom -12396.176314 kJ/mol
# Density = 1.701468 g / cm^3
# Si number density = 17.053494 Si / 1000 Ang^3
#
#
#
# Elastic Constant Matrix: (Units=GPa)
#
#
# Indices 1 2 3 4 5 6 
#
# 1 117.3051 54.0143 51.9877 0.0000 0.0000 0.0000
# 2 54.0143 125.2840 39.6069 0.0000 0.0000 0.0000
# 3 51.9877 39.6069 105.6714 0.0000 0.0000 0.0000
# 4 0.0000 0.0000 0.0000 22.0761 0.0000 0.0000
# 5 0.0000 0.0000 0.0000 0.0000 28.0379 0.0000
# 6 0.0000 0.0000 0.0000 0.0000 0.0000 31.8617
#
#
#
# Elastic Compliance Matrix: (Units=1/GPa)
#
#
# Indices 1 2 3 4 5 6 
#
# 1 0.012356 -0.003863 -0.004631 0.000000 0.000000 0.000000
# 2 -0.003863 0.010263 -0.001946 0.000000 0.000000 0.000000
# 3 -0.004631 -0.001946 0.012471 0.000000 0.000000 0.000000
# 4 0.000000 0.000000 0.000000 0.045298 0.000000 0.000000
# 5 0.000000 0.000000 0.000000 0.000000 0.035666 0.000000
# 6 0.000000 0.000000 0.000000 0.000000 0.000000 0.031386
#
#
# Mechanical properties :
#
#
# Convention : Reuss Voigt Hill
#
# Bulk Modulus (GPa) = 70.37521 71.05313 70.71417
# Shear Modulus (GPa) = 28.89250 29.90525 29.39887
#
# Velocity S-wave (km/s) = 4.12056 4.19216 4.15652
# Velocity P-wave (km/s) = 7.99973 8.07388 8.03689
#
# Compressibility (1/GPa) = 0.01420955
#
# Stress axis : x y z
#
# Youngs Moduli (GPa) = 80.93310 97.44148 80.18637
#
# Poissons Ratio (x) = 0.37642 0.37133
# Poissons Ratio (y) = 0.31265 0.15604
# Poissons Ratio (z) = 0.37479 0.18962
#
# Static dielectric constant tensor:
#      x y z
#    x 3.430060 0.000000 0.000000 
#    y 0.000000 3.202150 0.000000 
#    z 0.000000 0.000000 3.460520 
# 
# 
# High freq. dielectric constant tensor:
#      x y z
#    x 1.648140 0.000000 0.000000 
#    y 0.000000 1.659440 0.000000 
#    z 0.000000 0.000000 1.651830 
# 
# From -- ./inp_files/46376.got.cif
#   From: 2010.03.12/outbox.cif.g09.slc.cpg/sg65_24_cif.got.tgz:46376.got - 2010.04.10 20:52:16.
