data_PCOD8273184
_publ_section_title
;
Structure prediction by ZEFSAII (Michael W. Deem and Ramdas Pophale) SiO2 
 PCOD8273184
Probable space group: C M M M
;
_chemical_formula_sum "Si O2"
_cell_formula_units_Z 104
_cell_length_a 18.422487
_cell_length_b 14.803348
_cell_length_c 19.494002
_cell_angle_alpha 90.000000
_cell_angle_beta 90.000000
_cell_angle_gamma 90.000000
_cell_volume 5316.296737
_symmetry_space_group_name_H-M "C M M M"
_symmetry_group_IT_number 65
_symmetry_cell_setting 'orthorhombic'
loop_
_space_group_symop_operation_xyz
x,y,z
-x,-y,z
x,-y,-z
-x,y,-z
-x,-y,-z
x,y,-z
-x,y,z
x,-y,z
1/2+x,1/2+y,z
1/2-x,1/2-y,z
1/2+x,1/2-y,-z
1/2-x,1/2+y,-z
1/2-x,1/2-y,-z
1/2+x,1/2+y,-z
1/2-x,1/2+y,z
1/2+x,1/2-y,z
loop_
_atom_site_type_symbol
_atom_site_label
_atom_site_fract_x
_atom_site_fract_y
_atom_site_fract_z
Si Si1 0.583585 0.273993 0.421856
Si Si2 0.304167 0.103750 0.921863
Si Si3 0.331304 0.101207 0.578341
Si Si4 0.084371 0.899749 0.000000
Si Si5 0.585790 0.256789 0.114121
Si Si6 0.310304 0.600818 0.343342
Si Si7 0.297722 0.331019 0.199642
O O1 0.602974 0.301836 0.500000
O O2 0.500000 0.288183 0.406009
O O3 0.601902 0.168685 0.409459
O O4 0.625711 0.335554 0.368398
O O5 0.375944 0.164776 0.911479
O O6 0.240208 0.129748 0.869117
O O7 0.327380 0.000000 0.909774
O O8 0.274903 0.117786 0.000000
O O9 0.304254 0.104338 0.500000
O O10 0.265292 0.135073 0.625263
O O11 0.356821 0.000000 0.598577
O O12 0.104996 0.840628 0.065370
O O13 0.000000 0.918666 0.000000
O O14 0.123161 0.000000 0.000000
O O15 0.500000 0.238569 0.121800
O O16 0.622260 0.289975 0.184633
O O17 0.326489 0.500000 0.369605
O O18 0.305500 0.597237 0.260550
O O19 0.250000 0.250000 0.229894
#
# Coordination Sequence:
#
# PCOD8273184 Si02
#       7
#    16  16  16   8  16  16  16
#     4  10  21  36  56  84 118 152 185 227 280 333
#     4  10  21  37  59  86 115 146 179 223 282 344
#     4   9  18  34  59  87 112 144 188 235 279 326
#     4   9  18  32  50  73 103 139 175 216 264 312
#     4  10  21  37  57  83 112 141 182 229 275 334
#     4  11  22  37  57  81 111 150 194 235 274 326
#     4  10  22  37  57  80 111 148 188 233 282 329
#
# _framework density 19.562491000000001
#
# number of rings (size 3 to 8) (size 9 to 14) (size 15 to 20)
#    0.000    2.077    0.769    2.308    1.077    5.846 
#    0.000    3.077    0.000    0.000    0.000    4.308 
#    0.000    0.000    0.000    0.000    0.000    0.000 
#
# Total GULP energy -644611.179512 kJ/mol
# GULP energy per Si atom -12396.368837 kJ/mol
# Density = 1.951797 g / cm^3
# Si number density = 19.562491 Si / 1000 Ang^3
#
#
#
# Elastic Constant Matrix: (Units=GPa)
#
#
# Indices 1 2 3 4 5 6 
#
# 1 90.4581 38.1364 40.7497 0.0000 0.0000 0.0000
# 2 38.1364 110.0092 30.1785 0.0000 0.0000 0.0000
# 3 40.7497 30.1785 89.0694 0.0000 0.0000 0.0000
# 4 0.0000 0.0000 0.0000 29.2326 0.0000 0.0000
# 5 0.0000 0.0000 0.0000 0.0000 3.9498 0.0000
# 6 0.0000 0.0000 0.0000 0.0000 0.0000 21.6246
#
#
#
# Elastic Compliance Matrix: (Units=1/GPa)
#
#
# Indices 1 2 3 4 5 6 
#
# 1 0.015178 -0.003701 -0.005690 0.000000 0.000000 0.000000
# 2 -0.003701 0.010924 -0.002008 0.000000 0.000000 0.000000
# 3 -0.005690 -0.002008 0.014511 0.000000 0.000000 0.000000
# 4 0.000000 0.000000 0.000000 0.034208 0.000000 0.000000
# 5 0.000000 0.000000 0.000000 0.000000 0.253176 0.000000
# 6 0.000000 0.000000 0.000000 0.000000 0.000000 0.046244
#
#
# Mechanical properties :
#
#
# Convention : Reuss Voigt Hill
#
# Bulk Modulus (GPa) = 56.13289 56.40730 56.27010
# Shear Modulus (GPa) = 12.40764 22.99290 17.70027
#
# Velocity S-wave (km/s) = 2.52118 3.43207 3.01126
# Velocity P-wave (km/s) = 6.10177 6.67851 6.39664
#
# Compressibility (1/GPa) = 0.01781487
#
# Stress axis : x y z
#
# Youngs Moduli (GPa) = 65.88279 91.54169 68.91360
#
# Poissons Ratio (x) = 0.33878 0.39214
# Poissons Ratio (y) = 0.24382 0.13839
# Poissons Ratio (z) = 0.37489 0.18383
#
# Static dielectric constant tensor:
#      x y z
#    x 3.383310 0.000000 0.000000 
#    y 0.000000 3.737530 0.000000 
#    z 0.000000 0.000000 3.488450 
# 
# 
# High freq. dielectric constant tensor:
#      x y z
#    x 1.750160 0.000000 0.000000 
#    y 0.000000 1.773320 0.000000 
#    z 0.000000 0.000000 1.756130 
# 
# From -- ./inp_files/63838.got.cif
#   From: 2010.03.12/outbox.cif.g09.slc.cpg/sg65_32_cif.got.tgz:63838.got - 2010.04.10 20:52:16.
