data_PCOD8273367
_publ_section_title
;
Structure prediction by ZEFSAII (Michael W. Deem and Ramdas Pophale) SiO2 
 PCOD8273367
Probable space group: C M M M
;
_chemical_formula_sum "Si O2"
_cell_formula_units_Z 96
_cell_length_a 19.370287
_cell_length_b 8.730478
_cell_length_c 31.179984
_cell_angle_alpha 90.000000
_cell_angle_beta 90.000000
_cell_angle_gamma 90.000000
_cell_volume 5272.905230
_symmetry_space_group_name_H-M "C M M M"
_symmetry_group_IT_number 65
_symmetry_cell_setting 'orthorhombic'
loop_
_space_group_symop_operation_xyz
x,y,z
-x,-y,z
x,-y,-z
-x,y,-z
-x,-y,-z
x,y,-z
-x,y,z
x,-y,z
1/2+x,1/2+y,z
1/2-x,1/2-y,z
1/2+x,1/2-y,-z
1/2-x,1/2+y,-z
1/2-x,1/2-y,-z
1/2+x,1/2+y,-z
1/2-x,1/2+y,z
1/2+x,1/2-y,z
loop_
_atom_site_type_symbol
_atom_site_label
_atom_site_fract_x
_atom_site_fract_y
_atom_site_fract_z
Si Si1 0.673995 0.818773 0.363044
Si Si2 0.080437 0.824302 0.117209
Si Si3 0.080365 0.678083 0.206119
Si Si4 0.177897 0.321137 0.950232
Si Si5 0.174195 0.180150 0.722406
Si Si6 0.174906 0.679840 0.545375
O O1 0.750000 0.750000 0.364594
O O2 0.637942 0.742371 0.321647
O O3 0.637284 0.775497 0.409266
O O4 0.676227 0.000000 0.355887
O O5 0.103159 0.726845 0.158547
O O6 0.117222 0.759649 0.075420
O O7 0.000000 0.805630 0.108225
O O8 0.101090 0.000000 0.125161
O O9 0.096559 0.500000 0.212626
O O10 0.124443 0.776551 0.239009
O O11 0.000000 0.715638 0.213629
O O12 0.178725 0.500000 0.940166
O O13 0.250000 0.250000 0.935007
O O14 0.164468 0.286514 0.000000
O O15 0.250000 0.250000 0.729635
O O16 0.182037 0.000000 0.719558
O O17 0.136510 0.727443 0.500000
O O18 0.185408 0.500000 0.546111
O O19 0.250000 0.750000 0.544826
#
# Coordination Sequence:
#
# PCOD8273367 Si02
#       6
#    16  16  16  16  16  16
#     4   9  15  24  38  57  85 119 156 197 242 290
#     4  10  21  37  57  81 108 137 170 208 251 299
#     4  10  21  38  58  78 102 131 165 207 254 302
#     4  10  21  37  57  81 110 143 178 215 254 296
#     4  11  21  33  50  72 100 131 167 207 248 297
#     4   8  13  20  31  49  75 110 150 190 233 283
#
# _framework density 18.206281000000001
#
# number of rings (size 3 to 8) (size 9 to 14) (size 15 to 20)
#    0.000    2.333    0.000    4.500    0.000    4.667 
#    0.000    5.000    0.000    0.000    0.000    0.000 
#    0.000    0.667    0.000    7.667    0.000    5.000 
#
# Total GULP energy -594710.103032 kJ/mol
# GULP energy per Si atom -12389.793813 kJ/mol
# Density = 1.816484 g / cm^3
# Si number density = 18.206281 Si / 1000 Ang^3
#
#
#
# Elastic Constant Matrix: (Units=GPa)
#
#
# Indices 1 2 3 4 5 6 
#
# 1 39.7792 32.6106 49.7427 0.0000 0.0000 0.0000
# 2 32.6106 96.3883 45.7495 0.0000 0.0000 0.0000
# 3 49.7427 45.7495 127.3706 0.0000 0.0000 0.0000
# 4 0.0000 0.0000 0.0000 29.4513 0.0000 0.0000
# 5 0.0000 0.0000 0.0000 0.0000 -1.0146 0.0000
# 6 0.0000 0.0000 0.0000 0.0000 0.0000 23.3194
#
#
#
# Elastic Compliance Matrix: (Units=1/GPa)
#
#
# Indices 1 2 3 4 5 6 
#
# 1 0.056708 -0.010457 -0.018391 0.000000 0.000000 0.000000
# 2 -0.010457 0.014435 -0.001101 0.000000 0.000000 0.000000
# 3 -0.018391 -0.001101 0.015429 0.000000 0.000000 0.000000
# 4 0.000000 0.000000 0.000000 0.033954 0.000000 0.000000
# 5 0.000000 0.000000 0.000000 0.000000 -0.985628 0.000000
# 6 0.000000 0.000000 0.000000 0.000000 0.000000 0.042883
#
#
# Mechanical properties :
#
#
# Convention : Reuss Voigt Hill
#
# Bulk Modulus (GPa) = 37.48841 57.74932 47.61886
# Shear Modulus (GPa) = -6.63632 19.38024 6.37196
#
# Velocity S-wave (km/s) = -1.91128 3.26618 1.87282
# Velocity P-wave (km/s) = 3.97051 6.78323 5.55775
#
# Compressibility (1/GPa) = 0.02667491
#
# Stress axis : x y z
#
# Youngs Moduli (GPa) = 17.63412 69.27523 64.81400
#
# Poissons Ratio (x) = 0.72441 1.19197
# Poissons Ratio (y) = 0.18440 0.07136
# Poissons Ratio (z) = 0.32430 0.07628
#
# Static dielectric constant tensor:
#      x y z
#    x 2.894030 0.000000 0.000000 
#    y 0.000000 3.393510 0.000000 
#    z 0.000000 0.000000 4.163780 
# 
# 
# High freq. dielectric constant tensor:
#      x y z
#    x 1.646870 0.000000 0.000000 
#    y 0.000000 1.721340 0.000000 
#    z 0.000000 0.000000 1.735630 
# 
# From -- ./inp_files/75357.got.cif
#   From: 2010.03.12/outbox.cif.g09.slc.cpg/sg65_38_cif.got.tgz:75357.got - 2010.04.10 20:52:16.
