data_PCOD8273502
_publ_section_title
;
Structure prediction by ZEFSAII (Michael W. Deem and Ramdas Pophale) SiO2 
 PCOD8273502
Probable space group: C M M M
;
_chemical_formula_sum "Si O2"
_cell_formula_units_Z 64
_cell_length_a 8.716584
_cell_length_b 14.671112
_cell_length_c 25.728080
_cell_angle_alpha 90.000000
_cell_angle_beta 90.000000
_cell_angle_gamma 90.000000
_cell_volume 3290.157815
_symmetry_space_group_name_H-M "C M M M"
_symmetry_group_IT_number 65
_symmetry_cell_setting 'orthorhombic'
loop_
_space_group_symop_operation_xyz
x,y,z
-x,-y,z
x,-y,-z
-x,y,-z
-x,-y,-z
x,y,-z
-x,y,z
x,-y,z
1/2+x,1/2+y,z
1/2-x,1/2-y,z
1/2+x,1/2-y,-z
1/2-x,1/2+y,-z
1/2-x,1/2-y,-z
1/2+x,1/2+y,-z
1/2-x,1/2+y,z
1/2+x,1/2-y,z
loop_
_atom_site_type_symbol
_atom_site_label
_atom_site_fract_x
_atom_site_fract_y
_atom_site_fract_z
Si Si1 0.177679 0.500000 0.060936
Si Si2 0.181479 0.156710 0.608205
Si Si3 0.820866 0.850444 0.130720
Si Si4 0.320433 0.000000 0.324868
Si Si5 0.672045 0.892677 0.500000
Si Si6 0.176023 0.000000 0.215499
O O1 0.251085 0.407083 0.082897
O O2 0.000000 0.500000 0.075876
O O3 0.206573 0.500000 0.000000
O O4 0.250000 0.250000 0.629179
O O5 0.237467 0.140042 0.549993
O O6 0.000000 0.156655 0.608530
O O7 0.243243 0.086089 0.649306
O O8 0.750000 0.750000 0.135952
O O9 0.789249 0.908646 0.182780
O O10 0.000000 0.839534 0.120208
O O11 0.290885 0.000000 0.263647
O O12 0.500000 0.000000 0.336777
O O13 0.500000 0.850913 0.500000
O O14 0.662239 0.000000 0.500000
O O15 0.000000 0.000000 0.234633
#
# Coordination Sequence:
#
# PCOD8273502 Si02
#       6
#     8  16  16   8   8   8
#     4  10  21  37  58  87 124 163 204 250 299 350
#     4  12  25  42  64  89 120 156 196 240 292 351
#     4  10  21  38  62  89 120 158 202 248 296 353
#     4  12  25  42  63  90 121 154 194 243 299 354
#     4  11  22  39  64  90 121 155 193 237 288 352
#     4   9  21  41  61  85 117 155 198 246 298 350
#
# _framework density 19.451955000000002
#
# number of rings (size 3 to 8) (size 9 to 14) (size 15 to 20)
#    0.000    1.250    1.250    6.000    0.000    6.000 
#    0.000    2.500    0.000    0.000    0.000    0.000 
#    0.000    0.000    0.000    0.000    0.000    0.000 
#
# Total GULP energy -396888.447486 kJ/mol
# GULP energy per Si atom -12402.763984 kJ/mol
# Density = 1.940768 g / cm^3
# Si number density = 19.451955 Si / 1000 Ang^3
#
#
#
# Elastic Constant Matrix: (Units=GPa)
#
#
# Indices 1 2 3 4 5 6 
#
# 1 190.1774 80.5708 71.5154 0.0000 0.0000 0.0000
# 2 80.5708 179.1105 63.7231 0.0000 0.0000 0.0000
# 3 71.5154 63.7231 113.9388 0.0000 0.0000 0.0000
# 4 0.0000 0.0000 0.0000 24.2316 0.0000 0.0000
# 5 0.0000 0.0000 0.0000 0.0000 35.7022 0.0000
# 6 0.0000 0.0000 0.0000 0.0000 0.0000 37.8228
#
#
#
# Elastic Compliance Matrix: (Units=1/GPa)
#
#
# Indices 1 2 3 4 5 6 
#
# 1 0.007473 -0.002113 -0.003509 0.000000 0.000000 0.000000
# 2 -0.002113 0.007568 -0.002906 0.000000 0.000000 0.000000
# 3 -0.003509 -0.002906 0.012604 0.000000 0.000000 0.000000
# 4 0.000000 0.000000 0.000000 0.041268 0.000000 0.000000
# 5 0.000000 0.000000 0.000000 0.000000 0.028009 0.000000
# 6 0.000000 0.000000 0.000000 0.000000 0.000000 0.026439
#
#
# Mechanical properties :
#
#
# Convention : Reuss Voigt Hill
#
# Bulk Modulus (GPa) = 94.43776 101.64948 98.04362
# Shear Modulus (GPa) = 34.73499 37.37915 36.05707
#
# Velocity S-wave (km/s) = 4.23032 4.38838 4.31007
# Velocity P-wave (km/s) = 8.51560 8.83444 8.67648
#
# Compressibility (1/GPa) = 0.01058898
#
# Stress axis : x y z
#
# Youngs Moduli (GPa) = 133.81530 132.14091 79.33954
#
# Poissons Ratio (x) = 0.27926 0.27837
# Poissons Ratio (y) = 0.28280 0.23055
# Poissons Ratio (z) = 0.46950 0.38399
#
# Static dielectric constant tensor:
#      x y z
#    x 3.785310 0.000000 0.000000 
#    y 0.000000 3.890380 0.000000 
#    z 0.000000 0.000000 3.478710 
# 
# 
# High freq. dielectric constant tensor:
#      x y z
#    x 1.777680 0.000000 0.000000 
#    y 0.000000 1.773290 0.000000 
#    z 0.000000 0.000000 1.755330 
# 
# From -- ./inp_files/66873.got.cif
#   From: 2010.03.12/outbox.cif.g09.slc.cpg/sg65_34_cif.got.tgz:66873.got - 2010.04.10 20:52:16.
