data_PCOD8273873
_publ_section_title
;
Structure prediction by ZEFSAII (Michael W. Deem and Ramdas Pophale) SiO2 
 PCOD8273873
Probable space group: C M M M
;
_chemical_formula_sum "Si O2"
_cell_formula_units_Z 64
_cell_length_a 23.886028
_cell_length_b 15.507507
_cell_length_c 8.771646
_cell_angle_alpha 90.000000
_cell_angle_beta 90.000000
_cell_angle_gamma 90.000000
_cell_volume 3249.129485
_symmetry_space_group_name_H-M "C M M M"
_symmetry_group_IT_number 65
_symmetry_cell_setting 'orthorhombic'
loop_
_space_group_symop_operation_xyz
x,y,z
-x,-y,z
x,-y,-z
-x,y,-z
-x,-y,-z
x,y,-z
-x,y,z
x,-y,z
1/2+x,1/2+y,z
1/2-x,1/2-y,z
1/2+x,1/2-y,-z
1/2-x,1/2+y,-z
1/2-x,1/2-y,-z
1/2+x,1/2+y,-z
1/2-x,1/2+y,z
1/2+x,1/2-y,z
loop_
_atom_site_type_symbol
_atom_site_label
_atom_site_fract_x
_atom_site_fract_y
_atom_site_fract_z
Si Si1 0.583649 0.500000 0.180907
Si Si2 0.000000 0.128216 0.320449
Si Si3 0.788255 0.000000 0.820417
Si Si4 0.500000 0.189106 0.176363
Si Si5 0.224406 0.340830 0.678973
Si Si6 0.615486 0.900976 0.822360
O O1 0.555233 0.585501 0.248557
O O2 0.647674 0.500000 0.233256
O O3 0.576563 0.500000 0.000000
O O4 0.000000 0.112569 0.500000
O O5 0.000000 0.228599 0.284417
O O6 0.758843 0.915227 0.759772
O O7 0.782840 0.000000 0.000000
O O8 0.553622 0.131656 0.215969
O O9 0.500000 0.218330 0.000000
O O10 0.229213 0.354061 0.500000
O O11 0.250000 0.250000 0.731250
O O12 0.159648 0.343979 0.728700
O O13 0.620329 0.000000 0.770449
O O14 0.629105 0.891150 0.000000
#
# Coordination Sequence:
#
# PCOD8273873 Si02
#       6
#     8   8   8   8  16  16
#     4  10  22  41  64  88 119 157 203 252 305 360
#     4  11  23  39  60  90 124 161 201 246 304 365
#     4  11  24  42  67  95 121 162 213 258 308 367
#     4  10  22  39  62  91 123 159 203 254 304 357
#     4  11  25  42  62  92 130 167 203 251 314 376
#     4  10  21  40  65  91 120 158 205 254 304 360
#
# _framework density 19.697583000000002
#
# number of rings (size 3 to 8) (size 9 to 14) (size 15 to 20)
#    0.000    1.500    1.250    3.750    3.500    6.500 
#    0.000    0.000    0.000    2.250    0.000    0.000 
#    0.000    0.000    0.000    0.000    0.000    0.000 
#
# Total GULP energy -396987.891199 kJ/mol
# GULP energy per Si atom -12405.871600 kJ/mol
# Density = 1.965275 g / cm^3
# Si number density = 19.697583 Si / 1000 Ang^3
#
#
#
# Elastic Constant Matrix: (Units=GPa)
#
#
# Indices 1 2 3 4 5 6 
#
# 1 168.3529 64.0284 44.9453 0.0000 0.0000 0.0000
# 2 64.0284 132.2432 37.8543 0.0000 0.0000 0.0000
# 3 44.9453 37.8543 65.7436 0.0000 0.0000 0.0000
# 4 0.0000 0.0000 0.0000 35.5970 0.0000 0.0000
# 5 0.0000 0.0000 0.0000 0.0000 1.9183 0.0000
# 6 0.0000 0.0000 0.0000 0.0000 0.0000 72.3903
#
#
#
# Elastic Compliance Matrix: (Units=1/GPa)
#
#
# Indices 1 2 3 4 5 6 
#
# 1 0.008035 -0.002776 -0.003895 0.000000 0.000000 0.000000
# 2 -0.002776 0.010013 -0.003868 0.000000 0.000000 0.000000
# 3 -0.003895 -0.003868 0.020101 0.000000 0.000000 0.000000
# 4 0.000000 0.000000 0.000000 0.028092 0.000000 0.000000
# 5 0.000000 0.000000 0.000000 0.000000 0.521291 0.000000
# 6 0.000000 0.000000 0.000000 0.000000 0.000000 0.013814
#
#
# Mechanical properties :
#
#
# Convention : Reuss Voigt Hill
#
# Bulk Modulus (GPa) = 58.57647 73.33287 65.95467
# Shear Modulus (GPa) = 7.96034 36.61524 22.28779
#
# Velocity S-wave (km/s) = 2.01247 4.31614 3.36743
# Velocity P-wave (km/s) = 5.93317 7.88346 6.97680
#
# Compressibility (1/GPa) = 0.01707170
#
# Stress axis : x y z
#
# Youngs Moduli (GPa) = 124.44906 99.87231 49.74979
#
# Poissons Ratio (x) = 0.27720 0.19379
# Poissons Ratio (y) = 0.34541 0.19242
# Poissons Ratio (z) = 0.48476 0.38628
#
# Static dielectric constant tensor:
#      x y z
#    x 3.825900 0.000000 0.000000 
#    y 0.000000 3.139080 0.000000 
#    z 0.000000 0.000000 3.588260 
# 
# 
# High freq. dielectric constant tensor:
#      x y z
#    x 1.784300 0.000000 0.000000 
#    y 0.000000 1.775360 0.000000 
#    z 0.000000 0.000000 1.769290 
# 
# From -- ./inp_files/13410.got.cif
#   From: 2010.03.12/outbox.cif.g09.slc.cpg/sg65_7_cif.got.tgz:13410.got - 2010.04.10 20:52:16.
