data_PCOD8273238
_publ_section_title
;
Structure prediction by ZEFSAII (Michael W. Deem and Ramdas Pophale) SiO2 
 PCOD8273238
Probable space group: C M M M
;
_chemical_formula_sum "Si O2"
_cell_formula_units_Z 88
_cell_length_a 9.058307
_cell_length_b 27.653680
_cell_length_c 22.055926
_cell_angle_alpha 90.000000
_cell_angle_beta 90.000000
_cell_angle_gamma 90.000000
_cell_volume 5524.910721
_symmetry_space_group_name_H-M "C M M M"
_symmetry_group_IT_number 65
_symmetry_cell_setting 'orthorhombic'
loop_
_space_group_symop_operation_xyz
x,y,z
-x,-y,z
x,-y,-z
-x,y,-z
-x,-y,-z
x,y,-z
-x,y,z
x,-y,z
1/2+x,1/2+y,z
1/2-x,1/2-y,z
1/2+x,1/2-y,-z
1/2-x,1/2+y,-z
1/2-x,1/2-y,-z
1/2+x,1/2+y,-z
1/2-x,1/2+y,z
1/2+x,1/2-y,z
loop_
_atom_site_type_symbol
_atom_site_label
_atom_site_fract_x
_atom_site_fract_y
_atom_site_fract_z
Si Si1 0.665235 0.057255 0.382494
Si Si2 0.673775 0.444663 0.260222
Si Si3 0.673874 0.199497 0.069379
Si Si4 0.170039 0.119218 0.147070
Si Si5 0.660481 0.056374 0.933482
Si Si6 0.333497 0.557756 0.500000
O O1 0.500000 0.078787 0.381633
O O2 0.748110 0.072602 0.321469
O O3 0.751423 0.078400 0.440546
O O4 0.659893 0.000000 0.387803
O O5 0.500000 0.444796 0.271125
O O6 0.723180 0.500000 0.241630
O O7 0.718049 0.402933 0.212050
O O8 0.500000 0.205489 0.077113
O O9 0.750000 0.250000 0.084077
O O10 0.730266 0.162629 0.121208
O O11 0.713190 0.183263 0.000000
O O12 0.197994 0.074348 0.102766
O O13 0.000000 0.135141 0.146413
O O14 0.500000 0.070770 0.904274
O O15 0.674505 0.000000 0.938596
O O16 0.665706 0.079958 0.000000
O O17 0.332975 0.500000 0.500000
O O18 0.500000 0.577630 0.500000
#
# Coordination Sequence:
#
# PCOD8273238 Si02
#       6
#    16  16  16  16  16   8
#     4   9  16  25  38  57  80 108 147 191 225 253
#     4   9  18  31  43  58  86 122 155 184 216 257
#     4  10  21  37  55  72  89 109 137 177 225 275
#     4  11  21  31  46  67  89 114 144 178 218 266
#     4   9  18  31  44  59  82 112 145 180 216 254
#     4   9  15  23  37  55  77 109 146 183 224 263
#
# _framework density 15.927859
#
# number of rings (size 3 to 8) (size 9 to 14) (size 15 to 20)
#    0.000    2.455    0.000    3.545    0.000    9.455 
#    0.000    2.727    0.000    0.000    0.000    0.000 
#    0.000    0.000    0.000    0.818    0.000   11.000 
#
# Total GULP energy -545142.601777 kJ/mol
# GULP energy per Si atom -12389.604586 kJ/mol
# Density = 1.589161 g / cm^3
# Si number density = 15.927859 Si / 1000 Ang^3
#
#
#
# Elastic Constant Matrix: (Units=GPa)
#
#
# Indices 1 2 3 4 5 6 
#
# 1 78.1787 37.6298 62.0866 0.0000 0.0000 0.0000
# 2 37.6298 51.8331 49.9403 0.0000 0.0000 0.0000
# 3 62.0866 49.9403 124.1939 0.0000 0.0000 0.0000
# 4 0.0000 0.0000 0.0000 14.8053 0.0000 0.0000
# 5 0.0000 0.0000 0.0000 0.0000 29.5189 0.0000
# 6 0.0000 0.0000 0.0000 0.0000 0.0000 22.3095
#
#
#
# Elastic Compliance Matrix: (Units=1/GPa)
#
#
# Indices 1 2 3 4 5 6 
#
# 1 0.023759 -0.009476 -0.008067 0.000000 0.000000 0.000000
# 2 -0.009476 0.035274 -0.009447 0.000000 0.000000 0.000000
# 3 -0.008067 -0.009447 0.015884 0.000000 0.000000 0.000000
# 4 0.000000 0.000000 0.000000 0.067543 0.000000 0.000000
# 5 0.000000 0.000000 0.000000 0.000000 0.033877 0.000000
# 6 0.000000 0.000000 0.000000 0.000000 0.000000 0.044824
#
#
# Mechanical properties :
#
#
# Convention : Reuss Voigt Hill
#
# Bulk Modulus (GPa) = 47.76369 61.50213 54.63291
# Shear Modulus (GPa) = 17.72299 20.29667 19.00983
#
# Velocity S-wave (km/s) = 3.33934 3.57359 3.45845
# Velocity P-wave (km/s) = 6.70230 7.46486 7.09384
#
# Compressibility (1/GPa) = 0.02093641
#
# Stress axis : x y z
#
# Youngs Moduli (GPa) = 42.08965 28.34930 62.95817
#
# Poissons Ratio (x) = 0.26864 0.50788
# Poissons Ratio (y) = 0.39884 0.59477
# Poissons Ratio (z) = 0.33954 0.26782
#
# Static dielectric constant tensor:
#      x y z
#    x 3.229690 0.000000 0.000000 
#    y 0.000000 2.719300 0.000000 
#    z 0.000000 0.000000 3.112720 
# 
# 
# High freq. dielectric constant tensor:
#      x y z
#    x 1.625210 0.000000 0.000000 
#    y 0.000000 1.561100 0.000000 
#    z 0.000000 0.000000 1.606030 
# 
# From -- ./inp_files/60143.got.cif
#   From: 2010.03.12/outbox.cif.g09.slc.cpg/sg65_31_cif.got.tgz:60143.got - 2010.04.10 20:52:16.
