data_PCOD8273384
_publ_section_title
;
Structure prediction by ZEFSAII (Michael W. Deem and Ramdas Pophale) SiO2 
 PCOD8273384
Probable space group: C M M M
;
_chemical_formula_sum "Si O2"
_cell_formula_units_Z 104
_cell_length_a 18.578689
_cell_length_b 8.836147
_cell_length_c 32.578684
_cell_angle_alpha 90.000000
_cell_angle_beta 90.000000
_cell_angle_gamma 90.000000
_cell_volume 5348.247962
_symmetry_space_group_name_H-M "C M M M"
_symmetry_group_IT_number 65
_symmetry_cell_setting 'orthorhombic'
loop_
_space_group_symop_operation_xyz
x,y,z
-x,-y,z
x,-y,-z
-x,y,-z
-x,-y,-z
x,y,-z
-x,y,z
x,-y,z
1/2+x,1/2+y,z
1/2-x,1/2-y,z
1/2+x,1/2-y,-z
1/2-x,1/2+y,-z
1/2-x,1/2-y,-z
1/2+x,1/2+y,-z
1/2-x,1/2+y,z
1/2+x,1/2-y,z
loop_
_atom_site_type_symbol
_atom_site_label
_atom_site_fract_x
_atom_site_fract_y
_atom_site_fract_z
Si Si1 0.824255 0.176320 0.263266
Si Si2 0.825547 0.178077 0.358205
Si Si3 0.329005 0.680001 0.500000
Si Si4 0.584233 0.822246 0.573998
Si Si5 0.085228 0.328922 0.196348
Si Si6 0.914730 0.171111 0.885772
Si Si7 0.675657 0.177929 0.046811
O O1 0.750000 0.250000 0.248656
O O2 0.840010 0.213067 0.310643
O O3 0.888753 0.244384 0.236975
O O4 0.818929 0.000000 0.255053
O O5 0.750000 0.250000 0.372572
O O6 0.890255 0.259201 0.382137
O O7 0.823955 0.000000 0.367688
O O8 0.322643 0.500000 0.500000
O O9 0.250000 0.750000 0.500000
O O10 0.371966 0.733459 0.460298
O O11 0.500000 0.788312 0.568673
O O12 0.600321 0.000000 0.570520
O O13 0.114024 0.500000 0.196308
O O14 0.115651 0.247547 0.155646
O O15 0.000000 0.322889 0.196932
O O16 0.888667 0.261193 0.925488
O O17 0.000000 0.177355 0.886236
O O18 0.885981 0.000000 0.887336
O O19 0.750000 0.250000 0.062217
O O20 0.681513 0.000000 0.051551
O O21 0.659355 0.226090 0.000000
#
# Coordination Sequence:
#
# PCOD8273384 Si02
#       7
#    16  16   8  16  16  16  16
#     4  10  21  37  58  84 114 148 188 234 280 330
#     4  10  21  38  60  85 115 151 191 234 280 333
#     4  12  25  42  65  89 117 153 193 236 283 338
#     4  11  24  41  61  87 120 154 190 235 284 334
#     4  10  21  37  57  81 111 146 184 228 278 332
#     4  10  21  37  57  81 110 144 183 227 274 327
#     4  10  21  37  57  81 110 143 180 224 273 326
#
# _framework density 19.445620000000002
#
# number of rings (size 3 to 8) (size 9 to 14) (size 15 to 20)
#    0.000    1.692    0.000    4.154    0.000    8.308 
#    0.000    7.692    0.000    0.000    0.000    0.000 
#    0.000    0.000    0.000    0.000    0.000    0.000 
#
# Total GULP energy -645083.221231 kJ/mol
# GULP energy per Si atom -12405.446562 kJ/mol
# Density = 1.940136 g / cm^3
# Si number density = 19.445620 Si / 1000 Ang^3
#
#
#
# Elastic Constant Matrix: (Units=GPa)
#
#
# Indices 1 2 3 4 5 6 
#
# 1 70.1546 51.2507 49.3883 0.0000 0.0000 0.0000
# 2 51.2507 134.0574 61.2100 0.0000 0.0000 0.0000
# 3 49.3883 61.2100 107.5303 0.0000 0.0000 0.0000
# 4 0.0000 0.0000 0.0000 38.7569 0.0000 0.0000
# 5 0.0000 0.0000 0.0000 0.0000 52.3325 0.0000
# 6 0.0000 0.0000 0.0000 0.0000 0.0000 36.6837
#
#
#
# Elastic Compliance Matrix: (Units=1/GPa)
#
#
# Indices 1 2 3 4 5 6 
#
# 1 0.023767 -0.005543 -0.007761 0.000000 0.000000 0.000000
# 2 -0.005543 0.011372 -0.003927 0.000000 0.000000 0.000000
# 3 -0.007761 -0.003927 0.015100 0.000000 0.000000 0.000000
# 4 0.000000 0.000000 0.000000 0.025802 0.000000 0.000000
# 5 0.000000 0.000000 0.000000 0.000000 0.019109 0.000000
# 6 0.000000 0.000000 0.000000 0.000000 0.000000 0.027260
#
#
# Mechanical properties :
#
#
# Convention : Reuss Voigt Hill
#
# Bulk Modulus (GPa) = 63.38558 70.60448 66.99503
# Shear Modulus (GPa) = 30.83938 35.54750 33.19344
#
# Velocity S-wave (km/s) = 3.98669 4.28020 4.13605
# Velocity P-wave (km/s) = 7.33885 7.79836 7.57209
#
# Compressibility (1/GPa) = 0.01577646
#
# Stress axis : x y z
#
# Youngs Moduli (GPa) = 42.07509 87.93751 66.22511
#
# Poissons Ratio (x) = 0.48740 0.51398
# Poissons Ratio (y) = 0.23320 0.26010
# Poissons Ratio (z) = 0.32655 0.34537
#
# Static dielectric constant tensor:
#      x y z
#    x 3.435890 0.000000 0.000000 
#    y 0.000000 3.796920 0.000000 
#    z 0.000000 0.000000 3.669570 
# 
# 
# High freq. dielectric constant tensor:
#      x y z
#    x 1.750840 0.000000 0.000000 
#    y 0.000000 1.777560 0.000000 
#    z 0.000000 0.000000 1.767350 
# 
# From -- ./inp_files/75471.got.cif
#   From: 2010.03.12/outbox.cif.g09.slc.cpg/sg65_38_cif.got.tgz:75471.got - 2010.04.10 20:52:16.
