data_PCOD8273017
_publ_section_title
;
Structure prediction by ZEFSAII (Michael W. Deem and Ramdas Pophale) SiO2 
 PCOD8273017
Probable space group: C M M M
;
_chemical_formula_sum "Si O2"
_cell_formula_units_Z 88
_cell_length_a 8.769340
_cell_length_b 24.590106
_cell_length_c 22.376650
_cell_angle_alpha 90.000000
_cell_angle_beta 90.000000
_cell_angle_gamma 90.000000
_cell_volume 4825.278433
_symmetry_space_group_name_H-M "C M M M"
_symmetry_group_IT_number 65
_symmetry_cell_setting 'orthorhombic'
loop_
_space_group_symop_operation_xyz
x,y,z
-x,-y,z
x,-y,-z
-x,y,-z
-x,-y,-z
x,y,-z
-x,y,z
x,-y,z
1/2+x,1/2+y,z
1/2-x,1/2-y,z
1/2+x,1/2-y,-z
1/2-x,1/2+y,-z
1/2-x,1/2-y,-z
1/2+x,1/2+y,-z
1/2-x,1/2+y,z
1/2+x,1/2-y,z
loop_
_atom_site_type_symbol
_atom_site_label
_atom_site_fract_x
_atom_site_fract_y
_atom_site_fract_z
Si Si1 0.679735 0.616111 0.070014
Si Si2 0.680701 0.000000 0.569658
Si Si3 0.823039 0.000000 0.068959
Si Si4 0.676868 0.195255 0.838685
Si Si5 0.320771 0.690091 0.500000
Si Si6 0.681462 0.614081 0.391075
Si Si7 0.681463 0.191881 0.296376
O O1 0.500000 0.624371 0.081296
O O2 0.739584 0.556963 0.093649
O O3 0.780356 0.652972 0.111276
O O4 0.716002 0.625617 0.000000
O O5 0.748990 0.945967 0.600204
O O6 0.500000 0.000000 0.578689
O O7 0.726489 0.000000 0.500000
O O8 0.000000 0.000000 0.080974
O O9 0.787309 0.000000 0.000000
O O10 0.500000 0.204205 0.836878
O O11 0.750000 0.250000 0.861858
O O12 0.732362 0.180369 0.771932
O O13 0.500000 0.698341 0.500000
O O14 0.250000 0.750000 0.500000
O O15 0.266383 0.655050 0.556630
O O16 0.500000 0.608238 0.387978
O O17 0.746453 0.641061 0.331154
O O18 0.500000 0.193439 0.305644
O O19 0.750000 0.250000 0.318016
#
# Coordination Sequence:
#
# PCOD8273017 Si02
#       7
#    16   8   8  16   8  16  16
#     4   9  17  31  53  79 106 138 179 226 274 328
#     4  11  23  39  60  85 114 153 189 225 274 327
#     4   7  12  26  48  73 100 131 166 206 255 310
#     4  10  21  36  54  76 106 143 181 224 273 327
#     4  10  22  35  52  81 113 140 172 218 267 316
#     4  11  22  38  59  83 112 147 184 226 272 325
#     4  10  21  38  58  81 108 142 185 230 278 332
#
# _framework density 18.237290000000002
#
# number of rings (size 3 to 8) (size 9 to 14) (size 15 to 20)
#    0.000    2.182    0.909    3.545    0.000    6.182 
#    0.000    1.364    0.000    6.000    0.000    0.000 
#    0.000    0.000    0.000    0.000    0.000    0.000 
#
# Total GULP energy -545255.646138 kJ/mol
# GULP energy per Si atom -12392.173776 kJ/mol
# Density = 1.819578 g / cm^3
# Si number density = 18.237290 Si / 1000 Ang^3
#
#
#
# Elastic Constant Matrix: (Units=GPa)
#
#
# Indices 1 2 3 4 5 6 
#
# 1 56.9440 42.7807 26.6871 0.0000 0.0000 0.0000
# 2 42.7807 165.8360 65.2072 0.0000 0.0000 0.0000
# 3 26.6871 65.2072 75.0361 0.0000 0.0000 0.0000
# 4 0.0000 0.0000 0.0000 13.4319 0.0000 0.0000
# 5 0.0000 0.0000 0.0000 0.0000 28.1544 0.0000
# 6 0.0000 0.0000 0.0000 0.0000 0.0000 34.4891
#
#
#
# Elastic Compliance Matrix: (Units=1/GPa)
#
#
# Indices 1 2 3 4 5 6 
#
# 1 0.022760 -0.004084 -0.004546 0.000000 0.000000 0.000000
# 2 -0.004084 0.009893 -0.007144 0.000000 0.000000 0.000000
# 3 -0.004546 -0.007144 0.021152 0.000000 0.000000 0.000000
# 4 0.000000 0.000000 0.000000 0.074450 0.000000 0.000000
# 5 0.000000 0.000000 0.000000 0.000000 0.035518 0.000000
# 6 0.000000 0.000000 0.000000 0.000000 0.000000 0.028995
#
#
# Mechanical properties :
#
#
# Convention : Reuss Voigt Hill
#
# Bulk Modulus (GPa) = 44.93055 63.01845 53.97450
# Shear Modulus (GPa) = 21.57644 26.09116 23.83380
#
# Velocity S-wave (km/s) = 3.44335 3.78650 3.61899
# Velocity P-wave (km/s) = 6.36388 7.33120 6.86460
#
# Compressibility (1/GPa) = 0.02225657
#
# Stress axis : x y z
#
# Youngs Moduli (GPa) = 43.93753 101.08335 47.27632
#
# Poissons Ratio (x) = 0.41282 0.21490
# Poissons Ratio (y) = 0.17944 0.33777
# Poissons Ratio (z) = 0.19972 0.72219
#
# Static dielectric constant tensor:
#      x y z
#    x 3.282260 0.000000 0.000000 
#    y 0.000000 3.573380 0.000000 
#    z 0.000000 0.000000 3.385160 
# 
# 
# High freq. dielectric constant tensor:
#      x y z
#    x 1.704770 0.000000 0.000000 
#    y 0.000000 1.720210 0.000000 
#    z 0.000000 0.000000 1.697550 
# 
# From -- ./inp_files/67671.got.cif
#   From: 2010.03.12/outbox.cif.g09.slc.cpg/sg65_34_cif.got.tgz:67671.got - 2010.04.10 20:52:16.
