data_PCOD8273882
_publ_section_title
;
Structure prediction by ZEFSAII (Michael W. Deem and Ramdas Pophale) SiO2 
 PCOD8273882
Probable space group: C M M M
;
_chemical_formula_sum "Si O2"
_cell_formula_units_Z 64
_cell_length_a 15.274970
_cell_length_b 9.602219
_cell_length_c 21.799218
_cell_angle_alpha 90.000000
_cell_angle_beta 90.000000
_cell_angle_gamma 90.000000
_cell_volume 3197.369937
_symmetry_space_group_name_H-M "C M M M"
_symmetry_group_IT_number 65
_symmetry_cell_setting 'orthorhombic'
loop_
_space_group_symop_operation_xyz
x,y,z
-x,-y,z
x,-y,-z
-x,y,-z
-x,-y,-z
x,y,-z
-x,y,z
x,-y,z
1/2+x,1/2+y,z
1/2-x,1/2-y,z
1/2+x,1/2-y,-z
1/2-x,1/2+y,-z
1/2-x,1/2-y,-z
1/2+x,1/2+y,-z
1/2-x,1/2+y,z
1/2+x,1/2-y,z
loop_
_atom_site_type_symbol
_atom_site_label
_atom_site_fract_x
_atom_site_fract_y
_atom_site_fract_z
Si Si1 0.102572 0.500000 0.571275
Si Si2 0.334971 0.337305 0.072712
Si Si3 0.500000 0.160375 0.733805
Si Si4 0.000000 0.334838 0.878662
Si Si5 0.603149 0.500000 0.431022
Si Si6 0.653549 0.247084 0.348635
O O1 0.122523 0.500000 0.500000
O O2 0.149269 0.372282 0.601860
O O3 0.000000 0.500000 0.585476
O O4 0.333654 0.500000 0.096639
O O5 0.250000 0.250000 0.094822
O O6 0.416523 0.248572 0.096908
O O7 0.340224 0.340774 0.000000
O O8 0.500000 0.175738 0.805974
O O9 0.414041 0.234879 0.707360
O O10 0.500000 0.000000 0.712803
O O11 0.000000 0.500000 0.898939
O O12 0.500000 0.500000 0.437262
O O13 0.643564 0.500000 0.500000
O O14 0.635559 0.374913 0.391164
O O15 0.750000 0.250000 0.318423
#
# Coordination Sequence:
#
# PCOD8273882 Si02
#       6
#     8  16   8   8   8  16
#     4  11  21  39  67  88 113 157 198 243 310 388
#     4  10  21  40  67 102 140 173 212 263 318 380
#     4  11  24  47  62  83 120 164 217 260 297 364
#     4  11  24  40  65  91 129 177 224 275 324 375
#     4  11  23  39  59  90 127 149 184 255 326 382
#     4  12  23  40  63  86 117 156 200 253 312 375
#
# _framework density 20.016451
#
# number of rings (size 3 to 8) (size 9 to 14) (size 15 to 20)
#    0.000    1.000    3.750    3.000    0.000    9.000 
#    4.500    0.000    0.000    0.000    0.000    0.000 
#    0.000    0.000    0.000    0.000    0.000    0.000 
#
# Total GULP energy -396612.133037 kJ/mol
# GULP energy per Si atom -12394.129157 kJ/mol
# Density = 1.997089 g / cm^3
# Si number density = 20.016451 Si / 1000 Ang^3
#
#
#
# Elastic Constant Matrix: (Units=GPa)
#
#
# Indices 1 2 3 4 5 6 
#
# 1 175.9279 63.7295 35.1436 0.0000 0.0000 0.0000
# 2 63.7295 182.4494 33.0941 0.0000 0.0000 0.0000
# 3 35.1436 33.0941 40.4396 0.0000 0.0000 0.0000
# 4 0.0000 0.0000 0.0000 33.7460 0.0000 0.0000
# 5 0.0000 0.0000 0.0000 0.0000 43.0402 0.0000
# 6 0.0000 0.0000 0.0000 0.0000 0.0000 39.2543
#
#
#
# Elastic Compliance Matrix: (Units=1/GPa)
#
#
# Indices 1 2 3 4 5 6 
#
# 1 0.007272 -0.001637 -0.004980 0.000000 0.000000 0.000000
# 2 -0.001637 0.006805 -0.004146 0.000000 0.000000 0.000000
# 3 -0.004980 -0.004146 0.032449 0.000000 0.000000 0.000000
# 4 0.000000 0.000000 0.000000 0.029633 0.000000 0.000000
# 5 0.000000 0.000000 0.000000 0.000000 0.023234 0.000000
# 6 0.000000 0.000000 0.000000 0.000000 0.000000 0.025475
#
#
# Mechanical properties :
#
#
# Convention : Reuss Voigt Hill
#
# Bulk Modulus (GPa) = 40.00068 73.63903 56.81986
# Shear Modulus (GPa) = 32.31482 40.99808 36.65645
#
# Velocity S-wave (km/s) = 4.02234 4.53064 4.28403
# Velocity P-wave (km/s) = 6.44977 8.01486 7.27453
#
# Compressibility (1/GPa) = 0.02499957
#
# Stress axis : x y z
#
# Youngs Moduli (GPa) = 137.51598 146.95540 30.81728
#
# Poissons Ratio (x) = 0.24053 0.15347
# Poissons Ratio (y) = 0.22508 0.12778
# Poissons Ratio (z) = 0.68484 0.60933
#
# Static dielectric constant tensor:
#      x y z
#    x 3.967350 0.000000 0.000000 
#    y 0.000000 3.989740 0.000000 
#    z 0.000000 0.000000 3.527300 
# 
# 
# High freq. dielectric constant tensor:
#      x y z
#    x 1.796680 0.000000 0.000000 
#    y 0.000000 1.802680 0.000000 
#    z 0.000000 0.000000 1.771070 
# 
# From -- ./inp_files/69610.got.cif
#   From: 2010.03.12/outbox.cif.g09.slc.cpg/sg65_35_cif.got.tgz:69610.got - 2010.04.10 20:52:16.
