data_PCOD8273825
_publ_section_title
;
Structure prediction by ZEFSAII (Michael W. Deem and Ramdas Pophale) SiO2 
 PCOD8273825
Probable space group: C M M M
;
_chemical_formula_sum "Si O2"
_cell_formula_units_Z 96
_cell_length_a 22.634451
_cell_length_b 23.971252
_cell_length_c 8.740466
_cell_angle_alpha 90.000000
_cell_angle_beta 90.000000
_cell_angle_gamma 90.000000
_cell_volume 4742.368206
_symmetry_space_group_name_H-M "C M M M"
_symmetry_group_IT_number 65
_symmetry_cell_setting 'orthorhombic'
loop_
_space_group_symop_operation_xyz
x,y,z
-x,-y,z
x,-y,-z
-x,y,-z
-x,-y,-z
x,y,-z
-x,y,z
x,-y,z
1/2+x,1/2+y,z
1/2-x,1/2-y,z
1/2+x,1/2-y,-z
1/2-x,1/2+y,-z
1/2-x,1/2-y,-z
1/2+x,1/2+y,-z
1/2-x,1/2+y,z
1/2+x,1/2-y,z
loop_
_atom_site_type_symbol
_atom_site_label
_atom_site_fract_x
_atom_site_fract_y
_atom_site_fract_z
Si Si1 0.500000 0.393240 0.180983
Si Si2 0.697493 0.680413 0.822651
Si Si3 0.189193 0.500000 0.166304
Si Si4 0.500000 0.266040 0.181155
Si Si5 0.876259 0.285373 0.179801
Si Si6 0.690073 0.118842 0.320081
Si Si7 0.323965 0.500000 0.167296
Si Si8 0.882226 0.098188 0.320527
O O1 0.500000 0.329475 0.238847
O O2 0.555632 0.423812 0.256502
O O3 0.500000 0.400501 0.000000
O O4 0.682211 0.745690 0.791636
O O5 0.750129 0.650555 0.732186
O O6 0.635177 0.653829 0.770868
O O7 0.710044 0.669287 0.000000
O O8 0.175794 0.557124 0.256927
O O9 0.256831 0.500000 0.125914
O O10 0.155956 0.500000 0.000000
O O11 0.560514 0.237254 0.241816
O O12 0.500000 0.265568 0.000000
O O13 0.864693 0.342739 0.268601
O O14 0.880826 0.297025 0.000000
O O15 0.693621 0.113548 0.500000
O O16 0.334638 0.552402 0.275485
O O17 0.357463 0.500000 0.000000
O O18 0.883266 0.109060 0.500000
#
# Coordination Sequence:
#
# PCOD8273825 Si02
#       8
#     8  16   8   8  16  16   8  16
#     4  11  21  40  62  83 114 160 210 249 290 350
#     4  11  21  37  61  88 120 162 205 244 290 352
#     4  11  23  41  66  87 113 156 204 242 289 359
#     4   9  18  37  64  89 114 155 203 245 283 342
#     4  10  21  39  63  90 121 159 204 245 288 349
#     4  12  25  39  59  91 128 158 193 245 305 356
#     4  11  23  40  62  83 109 157 209 248 292 356
#     4  12  24  37  57  87 120 154 197 255 308 350
#
# _framework density 20.24305
#
# number of rings (size 3 to 8) (size 9 to 14) (size 15 to 20)
#    0.000    1.000    3.333    4.750    0.000    4.333 
#    0.000    2.083    0.000    0.500    0.000    3.500 
#    0.000    0.000    0.000    0.000    0.000    0.000 
#
# Total GULP energy -594869.483864 kJ/mol
# GULP energy per Si atom -12393.114247 kJ/mol
# Density = 2.019698 g / cm^3
# Si number density = 20.243050 Si / 1000 Ang^3
#
#
#
# Elastic Constant Matrix: (Units=GPa)
#
#
# Indices 1 2 3 4 5 6 
#
# 1 49.0842 14.0197 13.2233 0.0000 0.0000 0.0000
# 2 14.0197 104.7960 65.9260 0.0000 0.0000 0.0000
# 3 13.2233 65.9260 97.4000 0.0000 0.0000 0.0000
# 4 0.0000 0.0000 0.0000 26.9841 0.0000 0.0000
# 5 0.0000 0.0000 0.0000 0.0000 20.9947 0.0000
# 6 0.0000 0.0000 0.0000 0.0000 0.0000 23.3244
#
#
#
# Elastic Compliance Matrix: (Units=1/GPa)
#
#
# Indices 1 2 3 4 5 6 
#
# 1 0.021339 -0.001798 -0.001680 0.000000 0.000000 0.000000
# 2 -0.001798 0.016770 -0.011107 0.000000 0.000000 0.000000
# 3 -0.001680 -0.011107 0.018013 0.000000 0.000000 0.000000
# 4 0.000000 0.000000 0.000000 0.037059 0.000000 0.000000
# 5 0.000000 0.000000 0.000000 0.000000 0.047631 0.000000
# 6 0.000000 0.000000 0.000000 0.000000 0.000000 0.042874
#
#
# Mechanical properties :
#
#
# Convention : Reuss Voigt Hill
#
# Bulk Modulus (GPa) = 37.10242 48.62424 42.86333
# Shear Modulus (GPa) = 22.53881 24.80140 23.67011
#
# Velocity S-wave (km/s) = 3.34040 3.50406 3.42321
# Velocity P-wave (km/s) = 5.76593 6.35953 6.06999
#
# Compressibility (1/GPa) = 0.02695242
#
# Stress axis : x y z
#
# Youngs Moduli (GPa) = 46.86184 59.63000 55.51593
#
# Poissons Ratio (x) = 0.10720 0.09328
# Poissons Ratio (y) = 0.08425 0.61661
# Poissons Ratio (z) = 0.07874 0.66230
#
# Static dielectric constant tensor:
#      x y z
#    x 3.701490 0.000000 0.000000 
#    y 0.000000 3.778080 0.000000 
#    z 0.000000 0.000000 3.532540 
# 
# 
# High freq. dielectric constant tensor:
#      x y z
#    x 1.774260 0.000000 0.000000 
#    y 0.000000 1.791990 0.000000 
#    z 0.000000 0.000000 1.787510 
# 
# From -- ./inp_files/14452.got.cif
#   From: 2010.03.12/outbox.cif.g09.slc.cpg/sg65_8_cif.got.tgz:14452.got - 2010.04.10 20:52:16.
