data_PCOD8273337
_publ_section_title
;
Structure prediction by ZEFSAII (Michael W. Deem and Ramdas Pophale) SiO2 
 PCOD8273337
Probable space group: C M M M
;
_chemical_formula_sum "Si O2"
_cell_formula_units_Z 64
_cell_length_a 20.580906
_cell_length_b 7.977248
_cell_length_c 18.684633
_cell_angle_alpha 90.000000
_cell_angle_beta 90.000000
_cell_angle_gamma 90.000000
_cell_volume 3067.624197
_symmetry_space_group_name_H-M "C M M M"
_symmetry_group_IT_number 65
_symmetry_cell_setting 'orthorhombic'
loop_
_space_group_symop_operation_xyz
x,y,z
-x,-y,z
x,-y,-z
-x,y,-z
-x,-y,-z
x,y,-z
-x,y,z
x,-y,z
1/2+x,1/2+y,z
1/2-x,1/2-y,z
1/2+x,1/2-y,-z
1/2-x,1/2+y,-z
1/2-x,1/2-y,-z
1/2+x,1/2+y,-z
1/2-x,1/2+y,z
1/2+x,1/2-y,z
loop_
_atom_site_type_symbol
_atom_site_label
_atom_site_fract_x
_atom_site_fract_y
_atom_site_fract_z
Si Si1 0.423331 0.500000 0.079419
Si Si2 0.137978 0.692720 0.580494
Si Si3 0.180636 0.189965 0.276363
Si Si4 0.425324 0.188995 0.824200
Si Si5 0.500000 0.684519 0.416220
O O1 0.500000 0.500000 0.073031
O O2 0.401243 0.671340 0.118931
O O3 0.392052 0.500000 0.000000
O O4 0.149088 0.765217 0.500000
O O5 0.157870 0.500000 0.582775
O O6 0.181713 0.792688 0.637239
O O7 0.063425 0.712034 0.605916
O O8 0.250000 0.250000 0.245854
O O9 0.122001 0.300163 0.244214
O O10 0.169166 0.000000 0.253360
O O11 0.500000 0.224727 0.800503
O O12 0.419883 0.000000 0.856454
O O13 0.500000 0.500000 0.379032
O O14 0.500000 0.658378 0.500000
#
# Coordination Sequence:
#
# PCOD8273337 Si02
#       5
#     8  16  16  16   8
#     4   9  18  36  64 100 135 165 202 248 302 359
#     4  10  21  37  56  80 112 151 201 258 313 371
#     4  12  25  41  61  86 118 162 209 256 315 371
#     4  10  21  39  64  96 130 166 208 253 303 364
#     4   9  17  31  51  77 107 143 185 240 309 364
#
# _framework density 20.863052
#
# number of rings (size 3 to 8) (size 9 to 14) (size 15 to 20)
#    0.000    1.750    1.250    3.375    1.750    4.000 
#    0.000    2.500    0.000    0.750    0.000    0.000 
#    0.000    0.000    0.000    0.000    0.000    0.000 
#
# Total GULP energy -396714.457303 kJ/mol
# GULP energy per Si atom -12397.326791 kJ/mol
# Density = 2.081557 g / cm^3
# Si number density = 20.863052 Si / 1000 Ang^3
#
#
#
# Elastic Constant Matrix: (Units=GPa)
#
#
# Indices 1 2 3 4 5 6 
#
# 1 88.8516 28.4291 36.3360 0.0000 0.0000 0.0000
# 2 28.4291 133.6463 39.2792 0.0000 0.0000 0.0000
# 3 36.3360 39.2792 95.6280 0.0000 0.0000 0.0000
# 4 0.0000 0.0000 0.0000 25.1650 0.0000 0.0000
# 5 0.0000 0.0000 0.0000 0.0000 11.7378 0.0000
# 6 0.0000 0.0000 0.0000 0.0000 0.0000 27.7099
#
#
#
# Elastic Compliance Matrix: (Units=1/GPa)
#
#
# Indices 1 2 3 4 5 6 
#
# 1 0.013607 -0.001564 -0.004528 0.000000 0.000000 0.000000
# 2 -0.001564 0.008689 -0.002975 0.000000 0.000000 0.000000
# 3 -0.004528 -0.002975 0.013400 0.000000 0.000000 0.000000
# 4 0.000000 0.000000 0.000000 0.039738 0.000000 0.000000
# 5 0.000000 0.000000 0.000000 0.000000 0.085195 0.000000
# 6 0.000000 0.000000 0.000000 0.000000 0.000000 0.036088
#
#
# Mechanical properties :
#
#
# Convention : Reuss Voigt Hill
#
# Bulk Modulus (GPa) = 56.93906 58.46827 57.70366
# Shear Modulus (GPa) = 22.65474 27.19462 24.92468
#
# Velocity S-wave (km/s) = 3.29884 3.61429 3.46016
# Velocity P-wave (km/s) = 6.47000 6.74560 6.60924
#
# Compressibility (1/GPa) = 0.01756264
#
# Stress axis : x y z
#
# Youngs Moduli (GPa) = 73.49307 115.08229 74.62867
#
# Poissons Ratio (x) = 0.17995 0.33791
# Poissons Ratio (y) = 0.11492 0.22202
# Poissons Ratio (z) = 0.33277 0.34238
#
# Static dielectric constant tensor:
#      x y z
#    x 3.676690 0.000000 0.000000 
#    y 0.000000 3.827320 0.000000 
#    z 0.000000 0.000000 3.631750 
# 
# 
# High freq. dielectric constant tensor:
#      x y z
#    x 1.800600 0.000000 0.000000 
#    y 0.000000 1.827490 0.000000 
#    z 0.000000 0.000000 1.782810 
# 
# From -- ./inp_files/63290.got.cif
#   From: 2010.03.12/outbox.cif.g09.slc.cpg/sg65_32_cif.got.tgz:63290.got - 2010.04.10 20:52:16.
