data_PCOD8273936
_publ_section_title
;
Structure prediction by ZEFSAII (Michael W. Deem and Ramdas Pophale) SiO2 
 PCOD8273936
Probable space group: C M M M
;
_chemical_formula_sum "Si O2"
_cell_formula_units_Z 72
_cell_length_a 10.328609
_cell_length_b 18.509395
_cell_length_c 19.628394
_cell_angle_alpha 90.000000
_cell_angle_beta 90.000000
_cell_angle_gamma 90.000000
_cell_volume 3752.483814
_symmetry_space_group_name_H-M "C M M M"
_symmetry_group_IT_number 65
_symmetry_cell_setting 'orthorhombic'
loop_
_space_group_symop_operation_xyz
x,y,z
-x,-y,z
x,-y,-z
-x,y,-z
-x,-y,-z
x,y,-z
-x,y,z
x,-y,z
1/2+x,1/2+y,z
1/2-x,1/2-y,z
1/2+x,1/2-y,-z
1/2-x,1/2+y,-z
1/2-x,1/2-y,-z
1/2+x,1/2+y,-z
1/2-x,1/2+y,z
1/2+x,1/2-y,z
loop_
_atom_site_type_symbol
_atom_site_label
_atom_site_fract_x
_atom_site_fract_y
_atom_site_fract_z
Si Si1 0.853636 0.809441 0.577639
Si Si2 0.646202 0.416442 0.697096
Si Si3 0.755526 0.664821 0.078553
Si Si4 0.000000 0.919091 0.919860
Si Si5 0.643067 0.917398 0.803558
O O1 0.828176 0.833901 0.500000
O O2 0.750000 0.750000 0.600623
O O3 0.832565 0.878549 0.624881
O O4 0.000000 0.778611 0.585924
O O5 0.500000 0.403231 0.724963
O O6 0.673423 0.500000 0.683417
O O7 0.749613 0.386033 0.751598
O O8 0.750000 0.750000 0.090397
O O9 0.623203 0.626991 0.103038
O O10 0.862675 0.630006 0.127401
O O11 0.789251 0.647539 0.000000
O O12 0.000000 0.000000 0.886397
O O13 0.000000 0.928041 0.000000
O O14 0.500000 0.912053 0.770210
O O15 0.676616 0.000000 0.822947
#
# Coordination Sequence:
#
# PCOD8273936 Si02
#       5
#    16  16  16   8  16
#     4   9  18  33  54  82 114 146 181 221 267 320
#     4   9  19  36  57  80 107 143 185 227 270 319
#     4  10  22  37  56  81 110 141 180 232 287 339
#     4   9  18  34  56  80 105 139 182 226 277 338
#     4  10  22  38  56  79 108 143 181 225 278 336
#
# _framework density 19.187290999999998
#
# number of rings (size 3 to 8) (size 9 to 14) (size 15 to 20)
#    0.000    2.556    0.000    0.667    3.111    4.000 
#    0.000    5.556    0.000    0.000    0.000    6.222 
#    0.000    0.000    0.000    0.000    0.000    0.000 
#
# Total GULP energy -446328.725461 kJ/mol
# GULP energy per Si atom -12398.020152 kJ/mol
# Density = 1.914362 g / cm^3
# Si number density = 19.187291 Si / 1000 Ang^3
#
#
#
# Elastic Constant Matrix: (Units=GPa)
#
#
# Indices 1 2 3 4 5 6 
#
# 1 118.1940 51.3761 56.9225 0.0000 0.0000 0.0000
# 2 51.3761 90.1198 47.0690 0.0000 0.0000 0.0000
# 3 56.9225 47.0690 92.7213 0.0000 0.0000 0.0000
# 4 0.0000 0.0000 0.0000 53.7504 0.0000 0.0000
# 5 0.0000 0.0000 0.0000 0.0000 25.6113 0.0000
# 6 0.0000 0.0000 0.0000 0.0000 0.0000 29.0040
#
#
#
# Elastic Compliance Matrix: (Units=1/GPa)
#
#
# Indices 1 2 3 4 5 6 
#
# 1 0.013224 -0.004489 -0.005840 0.000000 0.000000 0.000000
# 2 -0.004489 0.016624 -0.005683 0.000000 0.000000 0.000000
# 3 -0.005840 -0.005683 0.017255 0.000000 0.000000 0.000000
# 4 0.000000 0.000000 0.000000 0.018605 0.000000 0.000000
# 5 0.000000 0.000000 0.000000 0.000000 0.039045 0.000000
# 6 0.000000 0.000000 0.000000 0.000000 0.000000 0.034478
#
#
# Mechanical properties :
#
#
# Convention : Reuss Voigt Hill
#
# Bulk Modulus (GPa) = 66.31508 67.97449 67.14479
# Shear Modulus (GPa) = 28.36383 31.38430 29.87407
#
# Velocity S-wave (km/s) = 3.84899 4.04874 3.95013
# Velocity P-wave (km/s) = 7.37495 7.57365 7.47496
#
# Compressibility (1/GPa) = 0.01507953
#
# Stress axis : x y z
#
# Youngs Moduli (GPa) = 75.61805 60.15532 57.95409
#
# Poissons Ratio (x) = 0.27003 0.33844
# Poissons Ratio (y) = 0.33945 0.32935
# Poissons Ratio (z) = 0.44159 0.34186
#
# Static dielectric constant tensor:
#      x y z
#    x 3.685240 0.000000 0.000000 
#    y 0.000000 3.376230 0.000000 
#    z 0.000000 0.000000 3.394460 
# 
# 
# High freq. dielectric constant tensor:
#      x y z
#    x 1.754430 0.000000 0.000000 
#    y 0.000000 1.735810 0.000000 
#    z 0.000000 0.000000 1.737300 
# 
# From -- ./inp_files/59291.got.cif
#   From: 2010.03.12/outbox.cif.g09.slc.cpg/sg65_30_cif.got.tgz:59291.got - 2010.04.10 20:52:16.
