data_PCOD8273634
_publ_section_title
;
Structure prediction by ZEFSAII (Michael W. Deem and Ramdas Pophale) SiO2 
 PCOD8273634
Probable space group: C M M M
;
_chemical_formula_sum "Si O2"
_cell_formula_units_Z 72
_cell_length_a 8.907297
_cell_length_b 16.427894
_cell_length_c 24.259114
_cell_angle_alpha 90.000000
_cell_angle_beta 90.000000
_cell_angle_gamma 90.000000
_cell_volume 3549.790810
_symmetry_space_group_name_H-M "C M M M"
_symmetry_group_IT_number 65
_symmetry_cell_setting 'orthorhombic'
loop_
_space_group_symop_operation_xyz
x,y,z
-x,-y,z
x,-y,-z
-x,y,-z
-x,-y,-z
x,y,-z
-x,y,z
x,-y,z
1/2+x,1/2+y,z
1/2-x,1/2-y,z
1/2+x,1/2-y,-z
1/2-x,1/2+y,-z
1/2-x,1/2-y,-z
1/2+x,1/2+y,-z
1/2-x,1/2+y,z
1/2+x,1/2-y,z
loop_
_atom_site_type_symbol
_atom_site_label
_atom_site_fract_x
_atom_site_fract_y
_atom_site_fract_z
Si Si1 0.327496 0.500000 0.434835
Si Si2 0.175321 0.333045 0.258460
Si Si3 0.661288 0.591808 0.162070
Si Si4 0.678032 0.162493 0.385522
Si Si5 0.673528 0.163789 0.060843
O O1 0.500000 0.500000 0.413691
O O2 0.321198 0.500000 0.500000
O O3 0.246801 0.583702 0.415844
O O4 0.250000 0.250000 0.238972
O O5 0.243891 0.399467 0.218086
O O6 0.214977 0.352956 0.321572
O O7 0.000000 0.327332 0.249519
O O8 0.500000 0.639926 0.163840
O O9 0.617371 0.500000 0.157953
O O10 0.756546 0.609626 0.108058
O O11 0.500000 0.166821 0.397240
O O12 0.750000 0.250000 0.404416
O O13 0.500000 0.175200 0.073936
O O14 0.750000 0.250000 0.062921
O O15 0.698028 0.124204 0.000000
#
# Coordination Sequence:
#
# PCOD8273634 Si02
#       5
#     8  16  16  16  16
#     4  11  25  43  65  95 131 173 216 261 314 371
#     4  10  21  38  61  87 117 152 194 242 294 352
#     4  11  24  38  54  81 115 152 190 233 290 349
#     4  10  22  41  66  96 128 168 214 263 319 375
#     4  10  21  38  60  82 106 142 187 236 289 346
#
# _framework density 20.282886000000001
#
# number of rings (size 3 to 8) (size 9 to 14) (size 15 to 20)
#    0.000    1.667    0.000    3.667    1.556    7.556 
#    0.000    2.222    0.000    0.000    0.000    0.000 
#    0.000    0.000    0.000    0.000    0.000    0.000 
#
# Total GULP energy -446152.739611 kJ/mol
# GULP energy per Si atom -12393.131656 kJ/mol
# Density = 2.023672 g / cm^3
# Si number density = 20.282886 Si / 1000 Ang^3
#
#
#
# Elastic Constant Matrix: (Units=GPa)
#
#
# Indices 1 2 3 4 5 6 
#
# 1 147.1399 59.0650 60.0210 0.0000 0.0000 0.0000
# 2 59.0650 112.3906 49.0427 0.0000 0.0000 0.0000
# 3 60.0210 49.0427 98.7598 0.0000 0.0000 0.0000
# 4 0.0000 0.0000 0.0000 32.8960 0.0000 0.0000
# 5 0.0000 0.0000 0.0000 0.0000 34.9425 0.0000
# 6 0.0000 0.0000 0.0000 0.0000 0.0000 27.8194
#
#
#
# Elastic Compliance Matrix: (Units=1/GPa)
#
#
# Indices 1 2 3 4 5 6 
#
# 1 0.009907 -0.003293 -0.004386 0.000000 0.000000 0.000000
# 2 -0.003293 0.012453 -0.004183 0.000000 0.000000 0.000000
# 3 -0.004386 -0.004183 0.014868 0.000000 0.000000 0.000000
# 4 0.000000 0.000000 0.000000 0.030399 0.000000 0.000000
# 5 0.000000 0.000000 0.000000 0.000000 0.028618 0.000000
# 6 0.000000 0.000000 0.000000 0.000000 0.000000 0.035946
#
#
# Mechanical properties :
#
#
# Convention : Reuss Voigt Hill
#
# Bulk Modulus (GPa) = 74.04393 77.17197 75.60795
# Shear Modulus (GPa) = 31.16877 31.80903 31.48890
#
# Velocity S-wave (km/s) = 3.92433 3.96443 3.94443
# Velocity P-wave (km/s) = 7.55769 7.68675 7.62249
#
# Compressibility (1/GPa) = 0.01350550
#
# Stress axis : x y z
#
# Youngs Moduli (GPa) = 100.93785 80.30042 67.25714
#
# Poissons Ratio (x) = 0.26440 0.29498
# Poissons Ratio (y) = 0.33236 0.28134
# Poissons Ratio (z) = 0.44270 0.33590
#
# Static dielectric constant tensor:
#      x y z
#    x 3.942450 0.000000 0.000000 
#    y 0.000000 3.681660 0.000000 
#    z 0.000000 0.000000 3.899620 
# 
# 
# High freq. dielectric constant tensor:
#      x y z
#    x 1.817850 0.000000 0.000000 
#    y 0.000000 1.784440 0.000000 
#    z 0.000000 0.000000 1.798510 
# 
# From -- ./inp_files/67137.got.cif
#   From: 2010.03.12/outbox.cif.g09.slc.cpg/sg65_34_cif.got.tgz:67137.got - 2010.04.10 20:52:16.
