data_PCOD8273575
_publ_section_title
;
Structure prediction by ZEFSAII (Michael W. Deem and Ramdas Pophale) SiO2 
 PCOD8273575
Probable space group: C M M M
;
_chemical_formula_sum "Si O2"
_cell_formula_units_Z 72
_cell_length_a 14.307655
_cell_length_b 29.609214
_cell_length_c 8.966835
_cell_angle_alpha 90.000000
_cell_angle_beta 90.000000
_cell_angle_gamma 90.000000
_cell_volume 3798.695800
_symmetry_space_group_name_H-M "C M M M"
_symmetry_group_IT_number 65
_symmetry_cell_setting 'orthorhombic'
loop_
_space_group_symop_operation_xyz
x,y,z
-x,-y,z
x,-y,-z
-x,y,-z
-x,-y,-z
x,y,-z
-x,y,z
x,-y,z
1/2+x,1/2+y,z
1/2-x,1/2-y,z
1/2+x,1/2-y,-z
1/2-x,1/2+y,-z
1/2-x,1/2-y,-z
1/2+x,1/2+y,-z
1/2-x,1/2+y,z
1/2+x,1/2-y,z
loop_
_atom_site_type_symbol
_atom_site_label
_atom_site_fract_x
_atom_site_fract_y
_atom_site_fract_z
Si Si1 0.297784 0.053568 0.172266
Si Si2 0.000000 0.162302 0.176697
Si Si3 0.000000 0.450678 0.823720
Si Si4 0.182642 0.874188 0.326659
Si Si5 0.000000 0.265447 0.823721
Si Si6 0.185771 0.291099 0.326560
O O1 0.401452 0.072732 0.221268
O O2 0.220755 0.077340 0.274539
O O3 0.292011 0.000000 0.198394
O O4 0.277975 0.065397 0.000000
O O5 0.090143 0.136684 0.236007
O O6 0.000000 0.213878 0.235264
O O7 0.000000 0.160632 0.000000
O O8 0.000000 0.500000 0.748594
O O9 0.000000 0.456938 0.000000
O O10 0.157061 0.875696 0.500000
O O11 0.261435 0.837331 0.291452
O O12 0.090232 0.291655 0.764701
O O13 0.000000 0.267365 0.000000
O O14 0.161920 0.285182 0.500000
O O15 0.250000 0.250000 0.269988
#
# Coordination Sequence:
#
# PCOD8273575 Si02
#       6
#    16   8   8  16   8  16
#     4   9  18  35  59  86 118 154 190 233 286 340
#     4  11  23  39  59  83 111 147 190 238 291 344
#     4   7  12  27  53  80 106 143 184 217 264 331
#     4  11  23  38  59  85 113 150 194 237 282 337
#     4  11  23  36  58  88 116 147 190 245 288 329
#     4  10  21  38  58  80 113 155 190 225 278 345
#
# _framework density 18.953873000000002
#
# number of rings (size 3 to 8) (size 9 to 14) (size 15 to 20)
#    0.000    2.111    2.222    2.667    0.000    4.444 
#    0.000    3.333    0.000    5.333    0.000    0.000 
#    0.000    0.000    0.000    0.000    0.000    0.000 
#
# Total GULP energy -446339.583700 kJ/mol
# GULP energy per Si atom -12398.321769 kJ/mol
# Density = 1.891073 g / cm^3
# Si number density = 18.953873 Si / 1000 Ang^3
#
#
#
# Elastic Constant Matrix: (Units=GPa)
#
#
# Indices 1 2 3 4 5 6 
#
# 1 136.9429 40.6430 55.0443 0.0000 0.0000 0.0000
# 2 40.6430 68.4597 33.7170 0.0000 0.0000 0.0000
# 3 55.0443 33.7170 64.7300 0.0000 0.0000 0.0000
# 4 0.0000 0.0000 0.0000 28.2087 0.0000 0.0000
# 5 0.0000 0.0000 0.0000 0.0000 25.3324 0.0000
# 6 0.0000 0.0000 0.0000 0.0000 0.0000 33.3712
#
#
#
# Elastic Compliance Matrix: (Units=1/GPa)
#
#
# Indices 1 2 3 4 5 6 
#
# 1 0.011452 -0.002694 -0.008336 0.000000 0.000000 0.000000
# 2 -0.002694 0.020281 -0.008274 0.000000 0.000000 0.000000
# 3 -0.008336 -0.008274 0.026847 0.000000 0.000000 0.000000
# 4 0.000000 0.000000 0.000000 0.035450 0.000000 0.000000
# 5 0.000000 0.000000 0.000000 0.000000 0.039475 0.000000
# 6 0.000000 0.000000 0.000000 0.000000 0.000000 0.029966
#
#
# Mechanical properties :
#
#
# Convention : Reuss Voigt Hill
#
# Bulk Modulus (GPa) = 50.06385 58.77125 54.41755
# Shear Modulus (GPa) = 23.95386 26.76436 25.35911
#
# Velocity S-wave (km/s) = 3.55885 3.76184 3.66175
# Velocity P-wave (km/s) = 6.58468 7.06707 6.83014
#
# Compressibility (1/GPa) = 0.01997449
#
# Stress axis : x y z
#
# Youngs Moduli (GPa) = 87.31930 49.30705 37.24860
#
# Poissons Ratio (x) = 0.13281 0.31049
# Poissons Ratio (y) = 0.23520 0.30818
# Poissons Ratio (z) = 0.72785 0.40795
#
# Static dielectric constant tensor:
#      x y z
#    x 3.878250 0.000000 0.000000 
#    y 0.000000 3.318120 0.000000 
#    z 0.000000 0.000000 3.287750 
# 
# 
# High freq. dielectric constant tensor:
#      x y z
#    x 1.747370 0.000000 0.000000 
#    y 0.000000 1.723470 0.000000 
#    z 0.000000 0.000000 1.724920 
# 
# From -- ./inp_files/7397.got.cif
#   From: 2010.03.12/outbox.cif.g09.slc.cpg/sg65_4_cif.got.tgz:7397.got - 2010.04.10 20:52:16.
