data_PCOD8273587
_publ_section_title
;
Structure prediction by ZEFSAII (Michael W. Deem and Ramdas Pophale) SiO2 
 PCOD8273587
Probable space group: C M M M
;
_chemical_formula_sum "Si O2"
_cell_formula_units_Z 112
_cell_length_a 15.379241
_cell_length_b 24.868764
_cell_length_c 13.400919
_cell_angle_alpha 90.000000
_cell_angle_beta 90.000000
_cell_angle_gamma 90.000000
_cell_volume 5125.351863
_symmetry_space_group_name_H-M "C M M M"
_symmetry_group_IT_number 65
_symmetry_cell_setting 'orthorhombic'
loop_
_space_group_symop_operation_xyz
x,y,z
-x,-y,z
x,-y,-z
-x,y,-z
-x,-y,-z
x,y,-z
-x,y,z
x,-y,z
1/2+x,1/2+y,z
1/2-x,1/2-y,z
1/2+x,1/2-y,-z
1/2-x,1/2+y,-z
1/2-x,1/2-y,-z
1/2+x,1/2+y,-z
1/2-x,1/2+y,z
1/2+x,1/2-y,z
loop_
_atom_site_type_symbol
_atom_site_label
_atom_site_fract_x
_atom_site_fract_y
_atom_site_fract_z
Si Si1 0.901930 0.365274 0.116277
Si Si2 0.250000 0.886131 0.383417
Si Si3 0.903512 0.690794 0.618350
Si Si4 0.250000 0.560930 0.193462
Si Si5 0.352407 0.250000 0.885077
Si Si6 0.096488 0.190794 0.381650
Si Si7 0.598070 0.365274 0.883723
O O1 0.836560 0.409712 0.156864
O O2 0.888481 0.305469 0.165800
O O3 0.000000 0.385008 0.137217
O O4 0.881857 0.359207 0.000000
O O5 0.250000 0.901383 0.500000
O O6 0.333902 0.852743 0.347153
O O7 0.250000 0.939242 0.315108
O O8 0.166098 0.852743 0.347153
O O9 0.899145 0.695368 0.500000
O O10 0.881154 0.750000 0.662861
O O11 0.000000 0.672059 0.652079
O O12 0.250000 0.500000 0.154253
O O13 0.336560 0.590288 0.156864
O O14 0.250000 0.250000 0.876194
O O15 0.388481 0.305469 0.834200
O O16 0.383786 0.250000 0.000000
O O17 0.100855 0.195368 0.500000
O O18 0.000000 0.172059 0.347921
O O19 0.500000 0.385008 0.862783
O O20 0.618143 0.359207 0.000000
#
# Coordination Sequence:
#
# PCOD8273587 Si02
#       7
#    16  16  16  16  16  16  16
#     4  10  21  40  67  96 126 160 196 240 302 370
#     4  10  21  38  59  79 108 156 206 250 300 350
#     4   8  14  28  53  83 112 141 177 229 296 365
#     4  12  27  43  59  84 121 161 211 268 305 346
#     4   9  15  31  63  98 131 162 190 230 290 365
#     4   8  14  28  53  83 112 141 177 229 296 365
#     4  10  21  40  67  96 126 160 196 240 302 370
#
# _framework density 21.852159
#
# number of rings (size 3 to 8) (size 9 to 14) (size 15 to 20)
#    0.000    2.429    1.429    2.143    0.000    6.571 
#    5.143    1.429    0.000    0.000    0.000    6.000 
#    0.000    0.000    0.000    0.000    0.000    0.000 
#
# Total GULP energy -694194.649742 kJ/mol
# GULP energy per Si atom -12396.333031 kJ/mol
# Density = 2.180242 g / cm^3
# Si number density = 21.852159 Si / 1000 Ang^3
#
#
#
# Elastic Constant Matrix: (Units=GPa)
#
#
# Indices 1 2 3 4 5 6 
#
# 1 145.8941 71.5415 24.3633 0.0000 0.0000 0.0000
# 2 71.5415 152.6211 40.4806 0.0000 0.0000 0.0000
# 3 24.3633 40.4806 36.5970 0.0000 0.0000 0.0000
# 4 0.0000 0.0000 0.0000 23.7034 0.0000 0.0000
# 5 0.0000 0.0000 0.0000 0.0000 2.8207 0.0000
# 6 0.0000 0.0000 0.0000 0.0000 0.0000 1.0622
#
#
#
# Elastic Compliance Matrix: (Units=1/GPa)
#
#
# Indices 1 2 3 4 5 6 
#
# 1 0.008990 -0.003717 -0.001873 0.000000 0.000000 0.000000
# 2 -0.003717 0.010810 -0.009482 0.000000 0.000000 0.000000
# 3 -0.001873 -0.009482 0.039060 0.000000 0.000000 0.000000
# 4 0.000000 0.000000 0.000000 0.042188 0.000000 0.000000
# 5 0.000000 0.000000 0.000000 0.000000 0.354527 0.000000
# 6 0.000000 0.000000 0.000000 0.000000 0.000000 0.941468
#
#
# Mechanical properties :
#
#
# Convention : Reuss Voigt Hill
#
# Bulk Modulus (GPa) = 34.82544 67.54256 51.18400
# Shear Modulus (GPa) = 3.48005 18.76570 11.12288
#
# Velocity S-wave (km/s) = 1.26333 2.93364 2.25856
# Velocity P-wave (km/s) = 4.25434 6.51544 5.50229
#
# Compressibility (1/GPa) = 0.02871464
#
# Stress axis : x y z
#
# Youngs Moduli (GPa) = 111.23633 92.51005 25.60176
#
# Poissons Ratio (x) = 0.34388 0.04795
# Poissons Ratio (y) = 0.41349 0.24276
# Poissons Ratio (z) = 0.20835 0.87719
#
# Static dielectric constant tensor:
#      x y z
#    x 4.138180 0.000000 0.000000 
#    y 0.000000 3.613370 0.000000 
#    z 0.000000 0.000000 3.974430 
# 
# 
# High freq. dielectric constant tensor:
#      x y z
#    x 1.869060 0.000000 0.000000 
#    y 0.000000 1.813640 0.000000 
#    z 0.000000 0.000000 1.879040 
# 
# From -- ./inp_files/40834.got.cif
#   From: 2010.03.12/outbox.cif.g09.slc.cpg/sg65_21_cif.got.tgz:40834.got - 2010.04.10 20:52:16.
