data_PCOD8273669
_publ_section_title
;
Structure prediction by ZEFSAII (Michael W. Deem and Ramdas Pophale) SiO2 
 PCOD8273669
Probable space group: C M M M
;
_chemical_formula_sum "Si O2"
_cell_formula_units_Z 64
_cell_length_a 8.738714
_cell_length_b 15.533728
_cell_length_c 23.514613
_cell_angle_alpha 90.000000
_cell_angle_beta 90.000000
_cell_angle_gamma 90.000000
_cell_volume 3191.986588
_symmetry_space_group_name_H-M "C M M M"
_symmetry_group_IT_number 65
_symmetry_cell_setting 'orthorhombic'
loop_
_space_group_symop_operation_xyz
x,y,z
-x,-y,z
x,-y,-z
-x,y,-z
-x,-y,-z
x,y,-z
-x,y,z
x,-y,z
1/2+x,1/2+y,z
1/2-x,1/2-y,z
1/2+x,1/2-y,-z
1/2-x,1/2+y,-z
1/2-x,1/2-y,-z
1/2+x,1/2+y,-z
1/2-x,1/2+y,z
1/2+x,1/2-y,z
loop_
_atom_site_type_symbol
_atom_site_label
_atom_site_fract_x
_atom_site_fract_y
_atom_site_fract_z
Si Si1 0.324239 0.600966 0.564197
Si Si2 0.820526 0.338800 0.674002
Si Si3 0.818567 0.500000 0.861420
Si Si4 0.680636 0.500000 0.261843
Si Si5 0.180477 0.338372 0.064288
O O1 0.280494 0.627658 0.500000
O O2 0.500000 0.624897 0.577335
O O3 0.298533 0.500000 0.573036
O O4 0.214897 0.652244 0.606879
O O5 0.750000 0.250000 0.697208
O O6 0.745873 0.415810 0.708475
O O7 0.000000 0.338999 0.684672
O O8 0.727013 0.500000 0.803394
O O9 0.765191 0.416627 0.896519
O O10 0.000000 0.500000 0.850057
O O11 0.500000 0.500000 0.268860
O O12 0.250000 0.250000 0.088816
O O13 0.000000 0.330348 0.065174
O O14 0.239437 0.354973 0.000000
#
# Coordination Sequence:
#
# PCOD8273669 Si02
#       5
#    16  16   8   8  16
#     4   9  18  35  61  91 124 159 194 239 297 359
#     4  12  25  42  65  91 119 157 202 250 304 363
#     4  10  21  38  60  85 117 158 203 244 291 355
#     4  12  26  45  64  86 120 158 203 257 307 358
#     4   9  18  34  58  88 122 158 195 239 291 347
#
# _framework density 20.050211000000001
#
# number of rings (size 3 to 8) (size 9 to 14) (size 15 to 20)
#    0.000    1.750    1.250    4.500    0.000    4.500 
#    0.000    3.750    0.000    3.750    0.000    0.000 
#    0.000    0.000    0.000    0.000    0.000    0.000 
#
# Total GULP energy -396910.057807 kJ/mol
# GULP energy per Si atom -12403.439306 kJ/mol
# Density = 2.000458 g / cm^3
# Si number density = 20.050211 Si / 1000 Ang^3
#
#
#
# Elastic Constant Matrix: (Units=GPa)
#
#
# Indices 1 2 3 4 5 6 
#
# 1 117.4337 68.5862 53.9912 0.0000 0.0000 0.0000
# 2 68.5862 173.8015 80.4176 0.0000 0.0000 0.0000
# 3 53.9912 80.4176 118.1300 0.0000 0.0000 0.0000
# 4 0.0000 0.0000 0.0000 15.8539 0.0000 0.0000
# 5 0.0000 0.0000 0.0000 0.0000 34.0311 0.0000
# 6 0.0000 0.0000 0.0000 0.0000 0.0000 34.6349
#
#
#
# Elastic Compliance Matrix: (Units=1/GPa)
#
#
# Indices 1 2 3 4 5 6 
#
# 1 0.011870 -0.003174 -0.003265 0.000000 0.000000 0.000000
# 2 -0.003174 0.009248 -0.004845 0.000000 0.000000 0.000000
# 3 -0.003265 -0.004845 0.013256 0.000000 0.000000 0.000000
# 4 0.000000 0.000000 0.000000 0.063076 0.000000 0.000000
# 5 0.000000 0.000000 0.000000 0.000000 0.029385 0.000000
# 6 0.000000 0.000000 0.000000 0.000000 0.000000 0.028873
#
#
# Mechanical properties :
#
#
# Convention : Reuss Voigt Hill
#
# Bulk Modulus (GPa) = 84.69703 90.59502 87.64603
# Shear Modulus (GPa) = 27.44100 30.66200 29.05150
#
# Velocity S-wave (km/s) = 3.70349 3.91482 3.81062
# Velocity P-wave (km/s) = 7.78601 8.10658 7.94791
#
# Compressibility (1/GPa) = 0.01180679
#
# Stress axis : x y z
#
# Youngs Moduli (GPa) = 84.24655 108.13318 75.43947
#
# Poissons Ratio (x) = 0.34317 0.24629
# Poissons Ratio (y) = 0.26736 0.36551
# Poissons Ratio (z) = 0.27504 0.52391
#
# Static dielectric constant tensor:
#      x y z
#    x 3.520370 0.000000 0.000000 
#    y 0.000000 3.822790 0.000000 
#    z 0.000000 0.000000 3.768600 
# 
# 
# High freq. dielectric constant tensor:
#      x y z
#    x 1.775420 0.000000 0.000000 
#    y 0.000000 1.793770 0.000000 
#    z 0.000000 0.000000 1.781490 
# 
# From -- ./inp_files/66775.got.cif
#   From: 2010.03.12/outbox.cif.g09.slc.cpg/sg65_34_cif.got.tgz:66775.got - 2010.04.10 20:52:16.
