data_PCOD8273198
_publ_section_title
;
Structure prediction by ZEFSAII (Michael W. Deem and Ramdas Pophale) SiO2 
 PCOD8273198
Probable space group: C M M M
;
_chemical_formula_sum "Si O2"
_cell_formula_units_Z 56
_cell_length_a 13.634600
_cell_length_b 16.560758
_cell_length_c 12.348739
_cell_angle_alpha 90.000000
_cell_angle_beta 90.000000
_cell_angle_gamma 90.000000
_cell_volume 2788.336758
_symmetry_space_group_name_H-M "C M M M"
_symmetry_group_IT_number 65
_symmetry_cell_setting 'orthorhombic'
loop_
_space_group_symop_operation_xyz
x,y,z
-x,-y,z
x,-y,-z
-x,y,-z
-x,-y,-z
x,y,-z
-x,y,z
x,-y,z
1/2+x,1/2+y,z
1/2-x,1/2-y,z
1/2+x,1/2-y,-z
1/2-x,1/2+y,-z
1/2-x,1/2-y,-z
1/2+x,1/2+y,-z
1/2-x,1/2+y,z
1/2+x,1/2-y,z
loop_
_atom_site_type_symbol
_atom_site_label
_atom_site_fract_x
_atom_site_fract_y
_atom_site_fract_z
Si Si1 0.500000 0.591865 0.374186
Si Si2 0.729333 0.911180 0.164286
Si Si3 0.790901 0.159784 0.376623
Si Si4 0.390373 0.814291 0.000000
Si Si5 0.611114 0.376217 0.000000
O O1 0.500000 0.500000 0.321522
O O2 0.500000 0.576383 0.500000
O O3 0.405379 0.647038 0.344011
O O4 0.731402 0.895289 0.292703
O O5 0.684717 0.000000 0.146532
O O6 0.660568 0.845724 0.108390
O O7 0.836811 0.908187 0.108836
O O8 0.772066 0.130413 0.500000
O O9 0.750000 0.250000 0.362190
O O10 0.383151 0.719387 0.000000
O O11 0.500000 0.846569 0.000000
O O12 0.500000 0.408025 0.000000
#
# Coordination Sequence:
#
# PCOD8273198 Si02
#       5
#     8  16  16   8   8
#     4   9  18  34  58  87 116 152 199 245 295 353
#     4  11  22  36  57  85 118 150 190 241 294 353
#     4  10  21  38  59  86 122 160 199 244 295 358
#     4  10  21  40  63  81 110 154 199 241 286 354
#     4  10  21  36  57  85 114 146 187 241 294 344
#
# _framework density 20.083658
#
# number of rings (size 3 to 8) (size 9 to 14) (size 15 to 20)
#    0.000    1.857    0.000    6.000    2.000    4.000 
#    2.571    0.000    0.000    0.000    0.000    2.000 
#    0.000    0.000    0.000    0.000    0.000    0.000 
#
# Total GULP energy -347000.866056 kJ/mol
# GULP energy per Si atom -12392.888073 kJ/mol
# Density = 2.003795 g / cm^3
# Si number density = 20.083658 Si / 1000 Ang^3
#
#
#
# Elastic Constant Matrix: (Units=GPa)
#
#
# Indices 1 2 3 4 5 6 
#
# 1 97.2094 42.1372 21.7871 0.0000 0.0000 0.0000
# 2 42.1372 97.6899 22.8903 0.0000 0.0000 0.0000
# 3 21.7871 22.8903 123.9075 0.0000 0.0000 0.0000
# 4 0.0000 0.0000 0.0000 27.5205 0.0000 0.0000
# 5 0.0000 0.0000 0.0000 0.0000 6.7034 0.0000
# 6 0.0000 0.0000 0.0000 0.0000 0.0000 -11.4432
#
#
#
# Elastic Compliance Matrix: (Units=1/GPa)
#
#
# Indices 1 2 3 4 5 6 
#
# 1 0.012847 -0.005239 -0.001291 0.000000 0.000000 0.000000
# 2 -0.005239 0.012836 -0.001450 0.000000 0.000000 0.000000
# 3 -0.001291 -0.001450 0.008565 0.000000 0.000000 0.000000
# 4 0.000000 0.000000 0.000000 0.036336 0.000000 0.000000
# 5 0.000000 0.000000 0.000000 0.000000 0.149179 0.000000
# 6 0.000000 0.000000 0.000000 0.000000 0.000000 -0.087388
#
#
# Mechanical properties :
#
#
# Convention : Reuss Voigt Hill
#
# Bulk Modulus (GPa) = 54.67965 54.71512 54.69738
# Shear Modulus (GPa) = 32.37647 20.02228 26.19938
#
# Velocity S-wave (km/s) = 4.01943 3.16087 3.61572
# Velocity P-wave (km/s) = 6.98757 6.37371 6.68769
#
# Compressibility (1/GPa) = 0.01828834
#
# Stress axis : x y z
#
# Youngs Moduli (GPa) = 77.83681 77.90575 116.74809
#
# Poissons Ratio (x) = 0.40815 0.15074
# Poissons Ratio (y) = 0.40779 0.16930
# Poissons Ratio (z) = 0.10050 0.11297
#
# Static dielectric constant tensor:
#      x y z
#    x 3.922160 0.000000 0.000000 
#    y 0.000000 3.687590 0.000000 
#    z 0.000000 0.000000 3.729190 
# 
# 
# High freq. dielectric constant tensor:
#      x y z
#    x 1.766400 0.000000 0.000000 
#    y 0.000000 1.791800 0.000000 
#    z 0.000000 0.000000 1.788280 
# 
# From -- ./inp_files/23820.got.cif
#   From: 2010.03.12/outbox.cif.g09.slc.cpg/sg65_12_cif.got.tgz:23820.got - 2010.04.10 20:52:16.
