data_PCOD8273425
_publ_section_title
;
Structure prediction by ZEFSAII (Michael W. Deem and Ramdas Pophale) SiO2 
 PCOD8273425
Probable space group: C M M M
;
_chemical_formula_sum "Si O2"
_cell_formula_units_Z 72
_cell_length_a 23.343089
_cell_length_b 18.036276
_cell_length_c 8.868404
_cell_angle_alpha 90.000000
_cell_angle_beta 90.000000
_cell_angle_gamma 90.000000
_cell_volume 3733.796700
_symmetry_space_group_name_H-M "C M M M"
_symmetry_group_IT_number 65
_symmetry_cell_setting 'orthorhombic'
loop_
_space_group_symop_operation_xyz
x,y,z
-x,-y,z
x,-y,-z
-x,y,-z
-x,-y,-z
x,y,-z
-x,y,z
x,-y,z
1/2+x,1/2+y,z
1/2-x,1/2-y,z
1/2+x,1/2-y,-z
1/2-x,1/2+y,-z
1/2-x,1/2-y,-z
1/2+x,1/2+y,-z
1/2-x,1/2+y,z
1/2+x,1/2-y,z
loop_
_atom_site_type_symbol
_atom_site_label
_atom_site_fract_x
_atom_site_fract_y
_atom_site_fract_z
Si Si1 0.432254 0.500000 0.170702
Si Si2 0.265687 0.586363 0.173176
Si Si3 0.374936 0.639377 0.677625
Si Si4 0.362456 0.918600 0.178919
Si Si5 0.933532 0.279031 0.822438
O O1 0.500000 0.500000 0.172949
O O2 0.411021 0.426836 0.252137
O O3 0.408547 0.500000 0.000000
O O4 0.281736 0.500000 0.190703
O O5 0.308795 0.635115 0.272472
O O6 0.201630 0.601619 0.234884
O O7 0.271588 0.611420 0.000000
O O8 0.379329 0.633984 0.500000
O O9 0.401093 0.716114 0.732102
O O10 0.407855 0.857597 0.233156
O O11 0.380529 0.000000 0.241862
O O12 0.360363 0.922864 0.000000
O O13 0.000000 0.278095 0.779865
O O14 0.923949 0.266853 0.000000
#
# Coordination Sequence:
#
# PCOD8273425 Si02
#       5
#     8  16  16  16  16
#     4  11  23  39  59  81 107 145 192 233 276 333
#     4   9  17  33  58  83 111 146 186 231 278 334
#     4  12  24  36  54  81 115 151 188 232 277 328
#     4   8  16  33  59  89 113 140 185 236 285 333
#     4  10  21  37  57  82 114 150 189 234 281 332
#
# _framework density 19.283321000000001
#
# number of rings (size 3 to 8) (size 9 to 14) (size 15 to 20)
#    0.000    2.111    1.111    4.333    0.000    5.333 
#    0.000    7.778    0.000    2.000    0.000    1.556 
#    0.000    0.000    0.000    0.000    0.000    0.000 
#
# Total GULP energy -446418.282419 kJ/mol
# GULP energy per Si atom -12400.507845 kJ/mol
# Density = 1.923943 g / cm^3
# Si number density = 19.283321 Si / 1000 Ang^3
#
#
#
# Elastic Constant Matrix: (Units=GPa)
#
#
# Indices 1 2 3 4 5 6 
#
# 1 79.7471 48.2639 29.0203 0.0000 0.0000 0.0000
# 2 48.2639 122.4077 44.4705 0.0000 0.0000 0.0000
# 3 29.0203 44.4705 79.4977 0.0000 0.0000 0.0000
# 4 0.0000 0.0000 0.0000 215.7169 0.0000 0.0000
# 5 0.0000 0.0000 0.0000 0.0000 -0.8972 0.0000
# 6 0.0000 0.0000 0.0000 0.0000 0.0000 57.8237
#
#
#
# Elastic Compliance Matrix: (Units=1/GPa)
#
#
# Indices 1 2 3 4 5 6 
#
# 1 0.017055 -0.005601 -0.003093 0.000000 0.000000 0.000000
# 2 -0.005601 0.012093 -0.004720 0.000000 0.000000 0.000000
# 3 -0.003093 -0.004720 0.016348 0.000000 0.000000 0.000000
# 4 0.000000 0.000000 0.000000 0.004636 0.000000 0.000000
# 5 0.000000 0.000000 0.000000 0.000000 -1.114521 0.000000
# 6 0.000000 0.000000 0.000000 0.000000 0.000000 0.017294
#
#
# Mechanical properties :
#
#
# Convention : Reuss Voigt Hill
#
# Bulk Modulus (GPa) = 53.56588 58.35131 55.95860
# Shear Modulus (GPa) = -4.93074 65.18852 30.12889
#
# Velocity S-wave (km/s) = -1.60080 5.82057 3.95705
# Velocity P-wave (km/s) = 4.94185 8.68894 7.06823
#
# Compressibility (1/GPa) = 0.01866860
#
# Stress axis : x y z
#
# Youngs Moduli (GPa) = 58.63441 82.69560 61.16874
#
# Poissons Ratio (x) = 0.46317 0.18917
# Poissons Ratio (y) = 0.32841 0.28871
# Poissons Ratio (z) = 0.18134 0.39031
#
# Static dielectric constant tensor:
#      x y z
#    x 3.727430 0.000000 0.000000 
#    y 0.000000 3.570100 0.000000 
#    z 0.000000 0.000000 3.234160 
# 
# 
# High freq. dielectric constant tensor:
#      x y z
#    x 1.763450 0.000000 0.000000 
#    y 0.000000 1.751850 0.000000 
#    z 0.000000 0.000000 1.717050 
# 
# From -- ./inp_files/9253.got.cif
#   From: 2010.03.12/outbox.cif.g09.slc.cpg/sg65_5_cif.got.tgz:9253.got - 2010.04.10 20:52:16.
