data_PCOD8273638
_publ_section_title
;
Structure prediction by ZEFSAII (Michael W. Deem and Ramdas Pophale) SiO2 
 PCOD8273638
Probable space group: C M M M
;
_chemical_formula_sum "Si O2"
_cell_formula_units_Z 88
_cell_length_a 27.496031
_cell_length_b 18.477372
_cell_length_c 8.967148
_cell_angle_alpha 90.000000
_cell_angle_beta 90.000000
_cell_angle_gamma 90.000000
_cell_volume 4555.798937
_symmetry_space_group_name_H-M "C M M M"
_symmetry_group_IT_number 65
_symmetry_cell_setting 'orthorhombic'
loop_
_space_group_symop_operation_xyz
x,y,z
-x,-y,z
x,-y,-z
-x,y,-z
-x,-y,-z
x,y,-z
-x,y,z
x,-y,z
1/2+x,1/2+y,z
1/2-x,1/2-y,z
1/2+x,1/2-y,-z
1/2-x,1/2+y,-z
1/2-x,1/2-y,-z
1/2+x,1/2+y,-z
1/2-x,1/2+y,z
1/2+x,1/2-y,z
loop_
_atom_site_type_symbol
_atom_site_label
_atom_site_fract_x
_atom_site_fract_y
_atom_site_fract_z
Si Si1 0.258022 0.583024 0.325675
Si Si2 0.821271 0.319540 0.825809
Si Si3 0.919380 0.340236 0.324284
Si Si4 0.500000 0.082327 0.161890
Si Si5 0.553762 0.695998 0.828981
Si Si6 0.658099 0.347050 0.171185
O O1 0.252205 0.598042 0.500000
O O2 0.243809 0.500000 0.287528
O O3 0.226551 0.641327 0.235331
O O4 0.313873 0.596699 0.276895
O O5 0.866411 0.354749 0.741623
O O6 0.821830 0.233661 0.794575
O O7 0.825401 0.335468 0.000000
O O8 0.916551 0.345210 0.500000
O O9 0.943340 0.264503 0.277920
O O10 0.952701 0.402598 0.259438
O O11 0.500000 0.000000 0.122427
O O12 0.500000 0.123998 0.000000
O O13 0.500000 0.659060 0.806215
O O14 0.600059 0.644692 0.792460
O O15 0.559873 0.722330 0.000000
O O16 0.668360 0.367382 0.000000
#
# Coordination Sequence:
#
# PCOD8273638 Si02
#       6
#    16  16  16   8  16  16
#     4  11  24  39  55  79 112 148 185 229 282 336
#     4  10  21  38  60  83 108 142 184 230 277 330
#     4  11  21  33  52  79 108 137 175 224 272 322
#     4  11  23  37  51  67  97 145 190 225 268 321
#     4   9  17  32  56  82 112 143 174 219 271 323
#     4   9  19  35  57  86 112 142 185 228 273 330
#
# _framework density 19.316040999999998
#
# number of rings (size 3 to 8) (size 9 to 14) (size 15 to 20)
#    0.000    1.909    0.909    4.636    0.000    8.727 
#    0.000    0.000    0.000    0.545    0.000    3.818 
#    0.000    0.000    0.000    0.000    0.000    0.000 
#
# Total GULP energy -545427.412768 kJ/mol
# GULP energy per Si atom -12396.077563 kJ/mol
# Density = 1.927208 g / cm^3
# Si number density = 19.316041 Si / 1000 Ang^3
#
#
#
# Elastic Constant Matrix: (Units=GPa)
#
#
# Indices 1 2 3 4 5 6 
#
# 1 122.9551 20.5643 47.2015 0.0000 0.0000 0.0000
# 2 20.5643 32.9112 29.2424 0.0000 0.0000 0.0000
# 3 47.2015 29.2424 120.1519 0.0000 0.0000 0.0000
# 4 0.0000 0.0000 0.0000 23.5639 0.0000 0.0000
# 5 0.0000 0.0000 0.0000 0.0000 33.8958 0.0000
# 6 0.0000 0.0000 0.0000 0.0000 0.0000 31.8431
#
#
#
# Elastic Compliance Matrix: (Units=1/GPa)
#
#
# Indices 1 2 3 4 5 6 
#
# 1 0.009880 -0.003476 -0.003035 0.000000 0.000000 0.000000
# 2 -0.003476 0.039992 -0.008367 0.000000 0.000000 0.000000
# 3 -0.003035 -0.008367 0.011552 0.000000 0.000000 0.000000
# 4 0.000000 0.000000 0.000000 0.042438 0.000000 0.000000
# 5 0.000000 0.000000 0.000000 0.000000 0.029502 0.000000
# 6 0.000000 0.000000 0.000000 0.000000 0.000000 0.031404
#
#
# Mechanical properties :
#
#
# Convention : Reuss Voigt Hill
#
# Bulk Modulus (GPa) = 31.58067 52.22608 41.90337
# Shear Modulus (GPa) = 24.38077 29.79456 27.08767
#
# Velocity S-wave (km/s) = 3.55660 3.93170 3.74885
# Velocity P-wave (km/s) = 5.76636 6.90705 6.36232
#
# Compressibility (1/GPa) = 0.03166494
#
# Stress axis : x y z
#
# Youngs Moduli (GPa) = 101.21823 25.00524 86.56821
#
# Poissons Ratio (x) = 0.08693 0.26274
# Poissons Ratio (y) = 0.35188 0.72435
# Poissons Ratio (z) = 0.30721 0.20923
#
# Static dielectric constant tensor:
#      x y z
#    x 3.862530 0.000000 0.000000 
#    y 0.000000 3.129400 0.000000 
#    z 0.000000 0.000000 3.541170 
# 
# 
# High freq. dielectric constant tensor:
#      x y z
#    x 1.770750 0.000000 0.000000 
#    y 0.000000 1.706590 0.000000 
#    z 0.000000 0.000000 1.758070 
# 
# From -- ./inp_files/18349.got.cif
#   From: 2010.03.12/outbox.cif.g09.slc.cpg/sg65_10_cif.got.tgz:18349.got - 2010.04.10 20:52:16.
