data_PCOD8273269
_publ_section_title
;
Structure prediction by ZEFSAII (Michael W. Deem and Ramdas Pophale) SiO2 
 PCOD8273269
Probable space group: C M M M
;
_chemical_formula_sum "Si O2"
_cell_formula_units_Z 72
_cell_length_a 10.075027
_cell_length_b 17.614630
_cell_length_c 21.870411
_cell_angle_alpha 90.000000
_cell_angle_beta 90.000000
_cell_angle_gamma 90.000000
_cell_volume 3881.295318
_symmetry_space_group_name_H-M "C M M M"
_symmetry_group_IT_number 65
_symmetry_cell_setting 'orthorhombic'
loop_
_space_group_symop_operation_xyz
x,y,z
-x,-y,z
x,-y,-z
-x,y,-z
-x,-y,-z
x,y,-z
-x,y,z
x,-y,z
1/2+x,1/2+y,z
1/2-x,1/2-y,z
1/2+x,1/2-y,-z
1/2-x,1/2+y,-z
1/2-x,1/2-y,-z
1/2+x,1/2+y,-z
1/2-x,1/2+y,z
1/2+x,1/2-y,z
loop_
_atom_site_type_symbol
_atom_site_label
_atom_site_fract_x
_atom_site_fract_y
_atom_site_fract_z
Si Si1 0.150895 0.088854 0.877948
Si Si2 0.000000 0.409415 0.567541
Si Si3 0.000000 0.909328 0.429786
Si Si4 0.651923 0.319909 0.000000
Si Si5 0.753602 0.409590 0.642579
Si Si6 0.151987 0.590417 0.227104
O O1 0.182308 0.129587 0.941154
O O2 0.256951 0.119952 0.828595
O O3 0.000000 0.105493 0.855522
O O4 0.171036 0.000000 0.888897
O O5 0.127017 0.377941 0.602233
O O6 0.000000 0.500000 0.566093
O O7 0.000000 0.375097 0.500000
O O8 0.123267 0.877666 0.390650
O O9 0.000000 0.878626 0.500000
O O10 0.000000 0.000000 0.432203
O O11 0.750000 0.250000 0.000000
O O12 0.500000 0.290982 0.000000
O O13 0.749985 0.500000 0.643538
O O14 0.776012 0.379136 0.711436
O O15 0.148284 0.500000 0.228380
O O16 0.000000 0.621134 0.221481
#
# Coordination Sequence:
#
# PCOD8273269 Si02
#       6
#    16   8   8   8  16  16
#     4   9  18  32  52  74  97 126 162 201 238 280
#     4   9  14  20  30  42  62  99 143 184 228 275
#     4   9  16  22  28  42  66  99 143 192 234 275
#     4  10  21  37  55  77 103 130 160 192 236 288
#     4   9  15  22  31  45  69 101 142 190 233 272
#     4   9  16  26  39  59  85 113 149 195 241 282
#
# _framework density 18.550508000000001
#
# number of rings (size 3 to 8) (size 9 to 14) (size 15 to 20)
#    0.000    2.889    1.111    1.000    1.556    4.889 
#    0.000    0.000    0.000    3.333    0.000    0.000 
#    0.000    0.000    0.000    0.000    0.000    6.667 
#
# Total GULP energy -446180.818111 kJ/mol
# GULP energy per Si atom -12393.911614 kJ/mol
# Density = 1.850829 g / cm^3
# Si number density = 18.550508 Si / 1000 Ang^3
#
#
#
# Elastic Constant Matrix: (Units=GPa)
#
#
# Indices 1 2 3 4 5 6 
#
# 1 182.0894 22.6403 116.3521 0.0000 0.0000 0.0000
# 2 22.6403 16.2129 23.9266 0.0000 0.0000 0.0000
# 3 116.3521 23.9266 196.6550 0.0000 0.0000 0.0000
# 4 0.0000 0.0000 0.0000 -1.4242 0.0000 0.0000
# 5 0.0000 0.0000 0.0000 0.0000 42.5444 0.0000
# 6 0.0000 0.0000 0.0000 0.0000 0.0000 12.5553
#
#
#
# Elastic Compliance Matrix: (Units=1/GPa)
#
#
# Indices 1 2 3 4 5 6 
#
# 1 0.009273 -0.005915 -0.004767 0.000000 0.000000 0.000000
# 2 -0.005915 0.078950 -0.006106 0.000000 0.000000 0.000000
# 3 -0.004767 -0.006106 0.008648 0.000000 0.000000 0.000000
# 4 0.000000 0.000000 0.000000 -0.702171 0.000000 0.000000
# 5 0.000000 0.000000 0.000000 0.000000 0.023505 0.000000
# 6 0.000000 0.000000 0.000000 0.000000 0.000000 0.079648
#
#
# Mechanical properties :
#
#
# Convention : Reuss Voigt Hill
#
# Bulk Modulus (GPa) = 15.79873 80.08838 47.94356
# Shear Modulus (GPa) = -11.17388 26.20431 7.51522
#
# Velocity S-wave (km/s) = -2.45694 3.76252 2.01495
# Velocity P-wave (km/s) = 0.69738 7.88304 5.59592
#
# Compressibility (1/GPa) = 0.06329622
#
# Stress axis : x y z
#
# Youngs Moduli (GPa) = 107.83778 12.66620 115.62859
#
# Poissons Ratio (x) = 0.07491 0.55119
# Poissons Ratio (y) = 0.63781 0.70607
# Poissons Ratio (z) = 0.51405 0.07734
#
# Static dielectric constant tensor:
#      x y z
#    x 3.756320 0.000000 0.000000 
#    y 0.000000 2.622550 0.000000 
#    z 0.000000 0.000000 3.659780 
# 
# 
# High freq. dielectric constant tensor:
#      x y z
#    x 1.734660 0.000000 0.000000 
#    y 0.000000 1.636030 0.000000 
#    z 0.000000 0.000000 1.737180 
# 
# From -- ./inp_files/67152.got.cif
#   From: 2010.03.12/outbox.cif.g09.slc.cpg/sg65_34_cif.got.tgz:67152.got - 2010.04.10 20:52:16.
