data_PCOD8273237
_publ_section_title
;
Structure prediction by ZEFSAII (Michael W. Deem and Ramdas Pophale) SiO2 
 PCOD8273237
Probable space group: C M M M
;
_chemical_formula_sum "Si O2"
_cell_formula_units_Z 96
_cell_length_a 28.190310
_cell_length_b 9.199778
_cell_length_c 24.236938
_cell_angle_alpha 90.000000
_cell_angle_beta 90.000000
_cell_angle_gamma 90.000000
_cell_volume 6285.718839
_symmetry_space_group_name_H-M "C M M M"
_symmetry_group_IT_number 65
_symmetry_cell_setting 'orthorhombic'
loop_
_space_group_symop_operation_xyz
x,y,z
-x,-y,z
x,-y,-z
-x,y,-z
-x,-y,-z
x,y,-z
-x,y,z
x,-y,z
1/2+x,1/2+y,z
1/2-x,1/2-y,z
1/2+x,1/2-y,-z
1/2-x,1/2+y,-z
1/2-x,1/2-y,-z
1/2+x,1/2+y,-z
1/2-x,1/2+y,z
1/2+x,1/2-y,z
loop_
_atom_site_type_symbol
_atom_site_label
_atom_site_fract_x
_atom_site_fract_y
_atom_site_fract_z
Si Si1 0.056280 0.162059 0.163939
Si Si2 0.056406 0.663205 0.939200
Si Si3 0.051554 0.842119 0.564181
Si Si4 0.621024 0.169082 0.625969
Si Si5 0.700353 0.329900 0.437201
Si Si6 0.445555 0.171057 0.726954
O O1 0.077952 0.234691 0.108593
O O2 0.071788 0.252863 0.217218
O O3 0.000000 0.158506 0.159504
O O4 0.077139 0.000000 0.168900
O O5 0.075544 0.500000 0.930008
O O6 0.000000 0.662287 0.935422
O O7 0.072137 0.720071 0.000000
O O8 0.044764 0.845172 0.500000
O O9 0.083765 0.704703 0.578097
O O10 0.000000 0.821642 0.592217
O O11 0.073198 0.000000 0.583320
O O12 0.667421 0.262662 0.611021
O O13 0.593628 0.218384 0.681651
O O14 0.634378 0.000000 0.626322
O O15 0.680094 0.306768 0.500000
O O16 0.707127 0.500000 0.425262
O O17 0.750000 0.250000 0.431961
O O18 0.500000 0.217156 0.711228
O O19 0.443852 0.000000 0.736438
#
# Coordination Sequence:
#
# PCOD8273237 Si02
#       6
#    16  16  16  16  16  16
#     4   9  16  24  35  52  73  99 134 176 216 247
#     4   8  13  21  33  48  67  95 131 169 210 253
#     4   9  18  31  44  59  82 111 139 167 202 243
#     4  11  21  31  46  67  87 108 137 171 207 248
#     4  10  21  37  55  72  89 108 131 163 206 255
#     4   9  18  31  43  56  80 114 147 176 206 244
#
# _framework density 15.272716000000001
#
# number of rings (size 3 to 8) (size 9 to 14) (size 15 to 20)
#    0.000    2.667    0.000    3.500    0.000    8.000 
#    0.000    4.167    0.000    0.000    0.000    0.000 
#    0.000    0.000    0.000    0.000    0.000    0.833 
#
# Total GULP energy -594657.757340 kJ/mol
# GULP energy per Si atom -12388.703278 kJ/mol
# Density = 1.523795 g / cm^3
# Si number density = 15.272716 Si / 1000 Ang^3
#
#
#
# Elastic Constant Matrix: (Units=GPa)
#
#
# Indices 1 2 3 4 5 6 
#
# 1 46.4908 32.0068 40.1969 0.0000 0.0000 0.0000
# 2 32.0068 75.1848 54.9682 0.0000 0.0000 0.0000
# 3 40.1969 54.9682 103.3065 0.0000 0.0000 0.0000
# 4 0.0000 0.0000 0.0000 22.2547 0.0000 0.0000
# 5 0.0000 0.0000 0.0000 0.0000 -14.8492 0.0000
# 6 0.0000 0.0000 0.0000 0.0000 0.0000 16.9949
#
#
#
# Elastic Compliance Matrix: (Units=1/GPa)
#
#
# Indices 1 2 3 4 5 6 
#
# 1 0.035217 -0.008141 -0.009371 0.000000 0.000000 0.000000
# 2 -0.008141 0.023651 -0.009417 0.000000 0.000000 0.000000
# 3 -0.009371 -0.009417 0.018337 0.000000 0.000000 0.000000
# 4 0.000000 0.000000 0.000000 0.044934 0.000000 0.000000
# 5 0.000000 0.000000 0.000000 0.000000 -0.067343 0.000000
# 6 0.000000 0.000000 0.000000 0.000000 0.000000 0.058841
#
#
# Mechanical properties :
#
#
# Convention : Reuss Voigt Hill
#
# Bulk Modulus (GPa) = 42.83221 53.25842 48.04531
# Shear Modulus (GPa) = 28.52638 11.40075 19.96356
#
# Velocity S-wave (km/s) = 4.32649 2.73514 3.61936
# Velocity P-wave (km/s) = 7.28449 6.70238 6.99949
#
# Compressibility (1/GPa) = 0.02334692
#
# Stress axis : x y z
#
# Youngs Moduli (GPa) = 28.39559 42.28193 54.53458
#
# Poissons Ratio (x) = 0.34420 0.51107
# Poissons Ratio (y) = 0.23115 0.51354
# Poissons Ratio (z) = 0.26611 0.39816
#
# Static dielectric constant tensor:
#      x y z
#    x 2.591360 0.000000 0.000000 
#    y 0.000000 3.126820 0.000000 
#    z 0.000000 0.000000 3.039330 
# 
# 
# High freq. dielectric constant tensor:
#      x y z
#    x 1.526470 0.000000 0.000000 
#    y 0.000000 1.596870 0.000000 
#    z 0.000000 0.000000 1.579120 
# 
# From -- ./inp_files/71679.got.cif
#   From: 2010.03.12/outbox.cif.g09.slc.cpg/sg65_36_cif.got.tgz:71679.got - 2010.04.10 20:52:16.
