data_PCOD8273268
_publ_section_title
;
Structure prediction by ZEFSAII (Michael W. Deem and Ramdas Pophale) SiO2 
 PCOD8273268
Probable space group: C M M M
;
_chemical_formula_sum "Si O2"
_cell_formula_units_Z 72
_cell_length_a 15.427602
_cell_length_b 8.836653
_cell_length_c 27.608391
_cell_angle_alpha 90.000000
_cell_angle_beta 90.000000
_cell_angle_gamma 90.000000
_cell_volume 3763.806819
_symmetry_space_group_name_H-M "C M M M"
_symmetry_group_IT_number 65
_symmetry_cell_setting 'orthorhombic'
loop_
_space_group_symop_operation_xyz
x,y,z
-x,-y,z
x,-y,-z
-x,y,-z
-x,-y,-z
x,y,-z
-x,y,z
x,-y,z
1/2+x,1/2+y,z
1/2-x,1/2-y,z
1/2+x,1/2-y,-z
1/2-x,1/2+y,-z
1/2-x,1/2-y,-z
1/2+x,1/2+y,-z
1/2-x,1/2+y,z
1/2+x,1/2-y,z
loop_
_atom_site_type_symbol
_atom_site_label
_atom_site_fract_x
_atom_site_fract_y
_atom_site_fract_z
Si Si1 0.500000 0.179081 0.276836
Si Si2 0.500000 0.173361 0.057195
Si Si3 0.338207 0.321893 0.554741
Si Si4 0.500000 0.679021 0.619108
Si Si5 0.340801 0.322736 0.778615
Si Si6 0.840206 0.823548 0.109119
O O1 0.500000 0.225362 0.332411
O O2 0.584840 0.245582 0.252102
O O3 0.500000 0.000000 0.271224
O O4 0.415157 0.253049 0.077249
O O5 0.500000 0.000000 0.074124
O O6 0.500000 0.189423 0.000000
O O7 0.356572 0.264834 0.500000
O O8 0.327604 0.500000 0.555588
O O9 0.250000 0.250000 0.575290
O O10 0.416476 0.270310 0.588671
O O11 0.500000 0.500000 0.630177
O O12 0.338251 0.500000 0.767114
O O13 0.250000 0.250000 0.762834
O O14 0.360176 0.290572 0.834798
O O15 0.750000 0.750000 0.093048
O O16 0.834708 0.000000 0.098300
#
# Coordination Sequence:
#
# PCOD8273268 Si02
#       6
#     8   8  16   8  16  16
#     4  12  25  38  55  82 116 153 190 229 278 334
#     4  11  24  39  56  82 117 155 192 231 277 330
#     4   9  18  34  57  82 106 137 179 225 274 327
#     4  10  21  37  55  76 109 149 184 223 273 330
#     4  10  21  39  62  87 113 144 186 233 282 334
#     4  10  21  38  62  88 113 145 186 233 282 334
#
# _framework density 19.129567999999999
#
# number of rings (size 3 to 8) (size 9 to 14) (size 15 to 20)
#    0.000    1.889    0.000    3.667    0.000    9.778 
#    0.000    2.222    0.000    3.333    0.000    0.000 
#    0.000    0.000    0.000    0.000    0.000    0.000 
#
# Total GULP energy -446560.840774 kJ/mol
# GULP energy per Si atom -12404.467799 kJ/mol
# Density = 1.908603 g / cm^3
# Si number density = 19.129568 Si / 1000 Ang^3
#
#
#
# Elastic Constant Matrix: (Units=GPa)
#
#
# Indices 1 2 3 4 5 6 
#
# 1 186.0228 78.5605 84.1477 0.0000 0.0000 0.0000
# 2 78.5605 104.1749 58.8054 0.0000 0.0000 0.0000
# 3 84.1477 58.8054 89.9294 0.0000 0.0000 0.0000
# 4 0.0000 0.0000 0.0000 29.9927 0.0000 0.0000
# 5 0.0000 0.0000 0.0000 0.0000 -1.4856 0.0000
# 6 0.0000 0.0000 0.0000 0.0000 0.0000 38.8952
#
#
#
# Elastic Compliance Matrix: (Units=1/GPa)
#
#
# Indices 1 2 3 4 5 6 
#
# 1 0.010116 -0.003623 -0.007096 0.000000 0.000000 0.000000
# 2 -0.003623 0.016513 -0.007408 0.000000 0.000000 0.000000
# 3 -0.007096 -0.007408 0.022604 0.000000 0.000000 0.000000
# 4 0.000000 0.000000 0.000000 0.033341 0.000000 0.000000
# 5 0.000000 0.000000 0.000000 0.000000 -0.673143 0.000000
# 6 0.000000 0.000000 0.000000 0.000000 0.000000 0.025710
#
#
# Mechanical properties :
#
#
# Convention : Reuss Voigt Hill
#
# Bulk Modulus (GPa) = 77.05124 91.46158 84.25641
# Shear Modulus (GPa) = -9.53693 24.05471 7.25889
#
# Velocity S-wave (km/s) = -2.23523 3.54992 1.95008
# Velocity P-wave (km/s) = 5.80555 8.04475 7.01507
#
# Compressibility (1/GPa) = 0.01297838
#
# Stress axis : x y z
#
# Youngs Moduli (GPa) = 98.85668 60.55845 44.23919
#
# Poissons Ratio (x) = 0.21938 0.31394
# Poissons Ratio (y) = 0.35811 0.32774
# Poissons Ratio (z) = 0.70154 0.44863
#
# Static dielectric constant tensor:
#      x y z
#    x 3.732300 0.000000 0.000000 
#    y 0.000000 3.584470 0.000000 
#    z 0.000000 0.000000 3.525800 
# 
# 
# High freq. dielectric constant tensor:
#      x y z
#    x 1.761950 0.000000 0.000000 
#    y 0.000000 1.751630 0.000000 
#    z 0.000000 0.000000 1.740660 
# 
# From -- ./inp_files/74635.got.cif
#   From: 2010.03.12/outbox.cif.g09.slc.cpg/sg65_38_cif.got.tgz:74635.got - 2010.04.10 20:52:16.
