data_PCOD8273889
_publ_section_title
;
Structure prediction by ZEFSAII (Michael W. Deem and Ramdas Pophale) SiO2 
 PCOD8273889
Probable space group: C M M M
;
_chemical_formula_sum "Si O2"
_cell_formula_units_Z 88
_cell_length_a 21.515656
_cell_length_b 18.485657
_cell_length_c 11.324590
_cell_angle_alpha 90.000000
_cell_angle_beta 90.000000
_cell_angle_gamma 90.000000
_cell_volume 4504.140924
_symmetry_space_group_name_H-M "C M M M"
_symmetry_group_IT_number 65
_symmetry_cell_setting 'orthorhombic'
loop_
_space_group_symop_operation_xyz
x,y,z
-x,-y,z
x,-y,-z
-x,y,-z
-x,-y,-z
x,y,-z
-x,y,z
x,-y,z
1/2+x,1/2+y,z
1/2-x,1/2-y,z
1/2+x,1/2-y,-z
1/2-x,1/2+y,-z
1/2-x,1/2-y,-z
1/2+x,1/2+y,-z
1/2-x,1/2+y,z
1/2+x,1/2-y,z
loop_
_atom_site_type_symbol
_atom_site_label
_atom_site_fract_x
_atom_site_fract_y
_atom_site_fract_z
Si Si1 0.500000 0.419980 0.361938
Si Si2 0.429418 0.585045 0.000000
Si Si3 0.427711 0.799040 0.136443
Si Si4 0.930551 0.586054 0.500000
Si Si5 0.638588 0.916511 0.730286
Si Si6 0.887955 0.151760 0.762801
Si Si7 0.725238 0.416914 0.362030
O O1 0.500000 0.500000 0.302411
O O2 0.500000 0.428867 0.500000
O O3 0.439780 0.376645 0.325196
O O4 0.391504 0.610299 0.113472
O O5 0.433496 0.500000 0.000000
O O6 0.500000 0.618093 0.000000
O O7 0.500000 0.811584 0.168706
O O8 0.387576 0.871410 0.159059
O O9 0.397869 0.736664 0.217053
O O10 0.420816 0.776876 0.000000
O O11 0.928247 0.500000 0.500000
O O12 0.896183 0.614998 0.615535
O O13 0.000000 0.616815 0.500000
O O14 0.711516 0.906224 0.710246
O O15 0.622133 0.000000 0.754089
O O16 0.822531 0.137531 0.699640
O O17 0.734560 0.397186 0.500000
O O18 0.702090 0.500000 0.351092
#
# Coordination Sequence:
#
# PCOD8273889 Si02
#       7
#     8   8  16   8  16  16  16
#     4  11  22  37  59  91 128 162 208 266 310 362
#     4  11  20  34  60  87 115 161 220 273 311 357
#     4  11  24  44  64  87 126 168 207 267 327 370
#     4   9  16  32  62  95 120 145 193 260 313 363
#     4  10  21  41  66  94 124 160 210 259 313 382
#     4  12  22  39  60  91 126 167 211 255 312 382
#     4  10  21  41  66  92 129 170 206 253 314 381
#
# _framework density 19.537576000000001
#
# number of rings (size 3 to 8) (size 9 to 14) (size 15 to 20)
#    0.000    1.364    3.636    2.727    0.000    3.636 
#    4.909    2.727    0.000    0.000    0.000    0.000 
#    0.000    0.000    0.000    0.000    0.000    0.000 
#
# Total GULP energy -545729.929531 kJ/mol
# GULP energy per Si atom -12402.952944 kJ/mol
# Density = 1.949311 g / cm^3
# Si number density = 19.537576 Si / 1000 Ang^3
#
#
#
# Elastic Constant Matrix: (Units=GPa)
#
#
# Indices 1 2 3 4 5 6 
#
# 1 115.1575 53.5161 33.8366 0.0000 0.0000 0.0000
# 2 53.5161 106.0808 39.3338 0.0000 0.0000 0.0000
# 3 33.8366 39.3338 72.4016 0.0000 0.0000 0.0000
# 4 0.0000 0.0000 0.0000 39.7008 0.0000 0.0000
# 5 0.0000 0.0000 0.0000 0.0000 36.0652 0.0000
# 6 0.0000 0.0000 0.0000 0.0000 0.0000 38.7076
#
#
#
# Elastic Compliance Matrix: (Units=1/GPa)
#
#
# Indices 1 2 3 4 5 6 
#
# 1 0.011796 -0.004892 -0.002855 0.000000 0.000000 0.000000
# 2 -0.004892 0.013834 -0.005229 0.000000 0.000000 0.000000
# 3 -0.002855 -0.005229 0.017987 0.000000 0.000000 0.000000
# 4 0.000000 0.000000 0.000000 0.025188 0.000000 0.000000
# 5 0.000000 0.000000 0.000000 0.000000 0.027728 0.000000
# 6 0.000000 0.000000 0.000000 0.000000 0.000000 0.025835
#
#
# Mechanical properties :
#
#
# Convention : Reuss Voigt Hill
#
# Bulk Modulus (GPa) = 56.61233 60.77919 58.69576
# Shear Modulus (GPa) = 32.42359 34.02496 33.22427
#
# Velocity S-wave (km/s) = 4.07818 4.17767 4.12822
# Velocity P-wave (km/s) = 7.15642 7.37882 7.26847
#
# Compressibility (1/GPa) = 0.01766400
#
# Stress axis : x y z
#
# Youngs Moduli (GPa) = 84.77263 72.28660 55.59587
#
# Poissons Ratio (x) = 0.35366 0.15873
# Poissons Ratio (y) = 0.41474 0.29072
# Poissons Ratio (z) = 0.24203 0.37799
#
# Static dielectric constant tensor:
#      x y z
#    x 3.510110 0.000000 0.000000 
#    y 0.000000 3.440230 0.000000 
#    z 0.000000 0.000000 3.549290 
# 
# 
# High freq. dielectric constant tensor:
#      x y z
#    x 1.761620 0.000000 0.000000 
#    y 0.000000 1.752770 0.000000 
#    z 0.000000 0.000000 1.763070 
# 
# From -- ./inp_files/28765.got.cif
#   From: 2010.03.12/outbox.cif.g09.slc.cpg/sg65_15_cif.got.tgz:28765.got - 2010.04.10 20:52:16.
