data_PCOD8273536
_publ_section_title
;
Structure prediction by ZEFSAII (Michael W. Deem and Ramdas Pophale) SiO2 
 PCOD8273536
Probable space group: C M M M
;
_chemical_formula_sum "Si O2"
_cell_formula_units_Z 72
_cell_length_a 8.783594
_cell_length_b 28.826708
_cell_length_c 14.596240
_cell_angle_alpha 90.000000
_cell_angle_beta 90.000000
_cell_angle_gamma 90.000000
_cell_volume 3695.798612
_symmetry_space_group_name_H-M "C M M M"
_symmetry_group_IT_number 65
_symmetry_cell_setting 'orthorhombic'
loop_
_space_group_symop_operation_xyz
x,y,z
-x,-y,z
x,-y,-z
-x,y,-z
-x,-y,-z
x,y,-z
-x,y,z
x,-y,z
1/2+x,1/2+y,z
1/2-x,1/2-y,z
1/2+x,1/2-y,-z
1/2-x,1/2+y,-z
1/2-x,1/2-y,-z
1/2+x,1/2+y,-z
1/2-x,1/2+y,z
1/2+x,1/2-y,z
loop_
_atom_site_type_symbol
_atom_site_label
_atom_site_fract_x
_atom_site_fract_y
_atom_site_fract_z
Si Si1 0.680163 0.800739 0.000000
Si Si2 0.178773 0.699974 0.500000
Si Si3 0.678371 0.631707 0.636434
Si Si4 0.324460 0.863713 0.830374
Si Si5 0.167172 0.949442 0.107285
Si Si6 0.820947 0.052443 0.500000
O O1 0.750000 0.750000 0.000000
O O2 0.733752 0.827592 0.092001
O O3 0.500000 0.797296 0.000000
O O4 0.250000 0.750000 0.500000
O O5 0.231658 0.673201 0.410157
O O6 0.000000 0.704921 0.500000
O O7 0.500000 0.638977 0.620415
O O8 0.717679 0.637625 0.742258
O O9 0.728196 0.582059 0.590920
O O10 0.500000 0.854850 0.804986
O O11 0.304552 0.915393 0.868562
O O12 0.000000 0.932322 0.143800
O O13 0.203041 0.000000 0.150546
O O14 0.157587 0.954365 0.000000
O O15 0.000000 0.046140 0.500000
O O16 0.747587 0.000000 0.500000
#
# Coordination Sequence:
#
# PCOD8273536 Si02
#       6
#     8   8  16  16  16   8
#     4  10  24  42  59  80 109 149 196 245 297 354
#     4  11  22  40  64  88 115 148 186 238 297 355
#     4  10  21  37  59  89 119 153 196 240 290 349
#     4  11  22  38  57  83 118 154 194 243 297 352
#     4   9  18  33  54  80 109 146 193 238 282 337
#     4   8  16  34  59  85 116 152 190 234 282 335
#
# _framework density 19.481580000000001
#
# number of rings (size 3 to 8) (size 9 to 14) (size 15 to 20)
#    0.000    2.111    1.111    3.667    0.000    4.000 
#    0.000    5.556    0.000   11.333    0.000    0.000 
#    0.000    0.000    0.000    0.000    0.000    0.000 
#
# Total GULP energy -446142.439030 kJ/mol
# GULP energy per Si atom -12392.845529 kJ/mol
# Density = 1.943724 g / cm^3
# Si number density = 19.481580 Si / 1000 Ang^3
#
#
#
# Elastic Constant Matrix: (Units=GPa)
#
#
# Indices 1 2 3 4 5 6 
#
# 1 75.3478 46.6210 31.9968 0.0000 0.0000 0.0000
# 2 46.6210 164.7449 63.7737 0.0000 0.0000 0.0000
# 3 31.9968 63.7737 120.4987 0.0000 0.0000 0.0000
# 4 0.0000 0.0000 0.0000 4.5125 0.0000 0.0000
# 5 0.0000 0.0000 0.0000 0.0000 32.0298 0.0000
# 6 0.0000 0.0000 0.0000 0.0000 0.0000 28.1896
#
#
#
# Elastic Compliance Matrix: (Units=1/GPa)
#
#
# Indices 1 2 3 4 5 6 
#
# 1 0.016632 -0.003769 -0.002422 0.000000 0.000000 0.000000
# 2 -0.003769 0.008488 -0.003491 0.000000 0.000000 0.000000
# 3 -0.002422 -0.003491 0.010790 0.000000 0.000000 0.000000
# 4 0.000000 0.000000 0.000000 0.221605 0.000000 0.000000
# 5 0.000000 0.000000 0.000000 0.000000 0.031221 0.000000
# 6 0.000000 0.000000 0.000000 0.000000 0.000000 0.035474
#
#
# Mechanical properties :
#
#
# Convention : Reuss Voigt Hill
#
# Bulk Modulus (GPa) = 60.43936 71.70825 66.07380
# Shear Modulus (GPa) = 14.32295 27.49305 20.90800
#
# Velocity S-wave (km/s) = 2.71441 3.76071 3.27956
# Velocity P-wave (km/s) = 6.39650 7.46629 6.95200
#
# Compressibility (1/GPa) = 0.01654551
#
# Stress axis : x y z
#
# Youngs Moduli (GPa) = 60.12362 117.80980 92.68078
#
# Poissons Ratio (x) = 0.44407 0.22443
# Poissons Ratio (y) = 0.22663 0.32359
# Poissons Ratio (z) = 0.14559 0.41133
#
# Static dielectric constant tensor:
#      x y z
#    x 3.461880 0.000000 0.000000 
#    y 0.000000 4.193760 0.000000 
#    z 0.000000 0.000000 -2.266270 
# 
# 
# High freq. dielectric constant tensor:
#      x y z
#    x 1.746610 0.000000 0.000000 
#    y 0.000000 1.763090 0.000000 
#    z 0.000000 0.000000 1.757190 
# 
# From -- ./inp_files/36639.got.cif
#   From: 2010.03.12/outbox.cif.g09.slc.cpg/sg65_19_cif.got.tgz:36639.got - 2010.04.10 20:52:16.
