data_PCOD8273650
_publ_section_title
;
Structure prediction by ZEFSAII (Michael W. Deem and Ramdas Pophale) SiO2 
 PCOD8273650
Probable space group: C M M M
;
_chemical_formula_sum "Si O2"
_cell_formula_units_Z 72
_cell_length_a 8.953423
_cell_length_b 15.449165
_cell_length_c 26.195038
_cell_angle_alpha 90.000000
_cell_angle_beta 90.000000
_cell_angle_gamma 90.000000
_cell_volume 3623.373864
_symmetry_space_group_name_H-M "C M M M"
_symmetry_group_IT_number 65
_symmetry_cell_setting 'orthorhombic'
loop_
_space_group_symop_operation_xyz
x,y,z
-x,-y,z
x,-y,-z
-x,y,-z
-x,-y,-z
x,y,-z
-x,y,z
x,-y,z
1/2+x,1/2+y,z
1/2-x,1/2-y,z
1/2+x,1/2-y,-z
1/2-x,1/2+y,-z
1/2-x,1/2-y,-z
1/2+x,1/2+y,-z
1/2-x,1/2+y,z
1/2+x,1/2-y,z
loop_
_atom_site_type_symbol
_atom_site_label
_atom_site_fract_x
_atom_site_fract_y
_atom_site_fract_z
Si Si1 0.675200 0.662968 0.442194
Si Si2 0.677860 0.000000 0.733906
Si Si3 0.323502 0.338706 0.210215
Si Si4 0.173059 0.098294 0.099816
Si Si5 0.831017 0.602936 0.000000
Si Si6 0.823764 0.000000 0.625373
O O1 0.729637 0.644139 0.500000
O O2 0.500000 0.676831 0.440693
O O3 0.750000 0.750000 0.420489
O O4 0.723289 0.583526 0.407023
O O5 0.746282 0.915773 0.759848
O O6 0.500000 0.000000 0.739915
O O7 0.723517 0.000000 0.675241
O O8 0.500000 0.339928 0.221529
O O9 0.250000 0.250000 0.229859
O O10 0.289530 0.347140 0.150083
O O11 0.000000 0.099759 0.086577
O O12 0.227487 0.000000 0.109679
O O13 0.256655 0.140645 0.051380
O O14 0.811195 0.500000 0.000000
O O15 0.000000 0.633793 0.000000
O O16 0.000000 0.000000 0.638631
#
# Coordination Sequence:
#
# PCOD8273650 Si02
#       6
#    16   8  16  16   8   8
#     4   9  18  34  58  88 121 158 198 240 290 346
#     4  12  26  43  63  88 119 158 202 253 305 357
#     4  11  23  42  65  90 117 152 198 248 304 362
#     4   9  17  33  56  80 111 150 188 231 287 353
#     4   9  17  27  46  81 116 146 184 232 282 340
#     4  10  21  38  60  84 117 159 200 245 294 351
#
# _framework density 19.870982999999999
#
# number of rings (size 3 to 8) (size 9 to 14) (size 15 to 20)
#    0.000    2.111    1.111    2.333    0.000    6.222 
#    0.000    2.778    0.000    3.333    0.000    0.000 
#    0.000    0.000    0.000    0.000    0.000    0.000 
#
# Total GULP energy -446466.621375 kJ/mol
# GULP energy per Si atom -12401.850594 kJ/mol
# Density = 1.982576 g / cm^3
# Si number density = 19.870983 Si / 1000 Ang^3
#
#
#
# Elastic Constant Matrix: (Units=GPa)
#
#
# Indices 1 2 3 4 5 6 
#
# 1 100.7114 67.3357 69.3957 0.0000 0.0000 0.0000
# 2 67.3357 149.7004 71.5668 0.0000 0.0000 0.0000
# 3 69.3957 71.5668 120.9127 0.0000 0.0000 0.0000
# 4 0.0000 0.0000 0.0000 6.2456 0.0000 0.0000
# 5 0.0000 0.0000 0.0000 0.0000 29.6278 0.0000
# 6 0.0000 0.0000 0.0000 0.0000 0.0000 31.1157
#
#
#
# Elastic Compliance Matrix: (Units=1/GPa)
#
#
# Indices 1 2 3 4 5 6 
#
# 1 0.018363 -0.004492 -0.007880 0.000000 0.000000 0.000000
# 2 -0.004492 0.010415 -0.003586 0.000000 0.000000 0.000000
# 3 -0.007880 -0.003586 0.014916 0.000000 0.000000 0.000000
# 4 0.000000 0.000000 0.000000 0.160113 0.000000 0.000000
# 5 0.000000 0.000000 0.000000 0.000000 0.033752 0.000000
# 6 0.000000 0.000000 0.000000 0.000000 0.000000 0.032138
#
#
# Mechanical properties :
#
#
# Convention : Reuss Voigt Hill
#
# Bulk Modulus (GPa) = 84.91662 87.54676 86.23169
# Shear Modulus (GPa) = 16.36450 24.26625 20.31538
#
# Velocity S-wave (km/s) = 2.87285 3.49834 3.20091
# Velocity P-wave (km/s) = 7.33697 7.77632 7.55983
#
# Compressibility (1/GPa) = 0.01177626
#
# Stress axis : x y z
#
# Youngs Moduli (GPa) = 54.45819 96.01338 67.04383
#
# Poissons Ratio (x) = 0.43134 0.52830
# Poissons Ratio (y) = 0.24465 0.24044
# Poissons Ratio (z) = 0.42913 0.34433
#
# Static dielectric constant tensor:
#      x y z
#    x 3.539920 0.000000 0.000000 
#    y 0.000000 3.299720 0.000000 
#    z 0.000000 0.000000 3.712390 
# 
# 
# High freq. dielectric constant tensor:
#      x y z
#    x 1.771220 0.000000 0.000000 
#    y 0.000000 1.772520 0.000000 
#    z 0.000000 0.000000 1.776740 
# 
# From -- ./inp_files/72623.got.cif
#   From: 2010.03.12/outbox.cif.g09.slc.cpg/sg65_37_cif.got.tgz:72623.got - 2010.04.10 20:52:16.
