data_PCOD8273819
_publ_section_title
;
Structure prediction by ZEFSAII (Michael W. Deem and Ramdas Pophale) SiO2 
 PCOD8273819
Probable space group: C M M M
;
_chemical_formula_sum "Si O2"
_cell_formula_units_Z 72
_cell_length_a 14.789897
_cell_length_b 30.306079
_cell_length_c 7.954886
_cell_angle_alpha 90.000000
_cell_angle_beta 90.000000
_cell_angle_gamma 90.000000
_cell_volume 3565.569127
_symmetry_space_group_name_H-M "C M M M"
_symmetry_group_IT_number 65
_symmetry_cell_setting 'orthorhombic'
loop_
_space_group_symop_operation_xyz
x,y,z
-x,-y,z
x,-y,-z
-x,y,-z
-x,-y,-z
x,y,-z
-x,y,z
x,-y,z
1/2+x,1/2+y,z
1/2-x,1/2-y,z
1/2+x,1/2-y,-z
1/2-x,1/2+y,-z
1/2-x,1/2-y,-z
1/2+x,1/2+y,-z
1/2-x,1/2+y,z
1/2+x,1/2-y,z
loop_
_atom_site_type_symbol
_atom_site_label
_atom_site_fract_x
_atom_site_fract_y
_atom_site_fract_z
Si Si1 0.500000 0.271282 0.199377
Si Si2 0.282552 0.449722 0.312072
Si Si3 0.302132 0.293864 0.303909
Si Si4 0.098556 0.947932 0.000000
Si Si5 0.181116 0.628339 0.806186
Si Si6 0.000000 0.327739 0.799989
O O1 0.409115 0.294103 0.267107
O O2 0.500000 0.221679 0.271080
O O3 0.500000 0.272956 0.000000
O O4 0.325066 0.446596 0.500000
O O5 0.251158 0.500000 0.275454
O O6 0.352738 0.432727 0.171125
O O7 0.198355 0.416528 0.298338
O O8 0.284246 0.299337 0.500000
O O9 0.250000 0.250000 0.236342
O O10 0.261210 0.336187 0.210999
O O11 0.000000 0.925583 0.000000
O O12 0.089573 0.000000 0.000000
O O13 0.088712 0.647964 0.730926
O O14 0.170225 0.615295 0.000000
O O15 0.000000 0.326265 0.000000
#
# Coordination Sequence:
#
# PCOD8273819 Si02
#       6
#     8  16  16   8  16   8
#     4  11  21  39  61  84 115 156 202 247 300 359
#     4  10  21  39  62  89 124 163 203 253 309 363
#     4  11  23  38  57  85 121 156 195 244 301 361
#     4   9  18  36  62  89 116 153 201 249 303 363
#     4  11  21  39  63  89 119 158 205 252 305 363
#     4   9  20  35  60  90 117 152 203 253 302 364
#
# _framework density 20.193128999999999
#
# number of rings (size 3 to 8) (size 9 to 14) (size 15 to 20)
#    0.000    1.667    3.333    1.667    0.000    1.333 
#    2.000    5.000    0.000    3.333    0.000    0.000 
#    0.000    0.000    0.000    0.000    0.000    0.000 
#
# Total GULP energy -446382.986091 kJ/mol
# GULP energy per Si atom -12399.527391 kJ/mol
# Density = 2.014717 g / cm^3
# Si number density = 20.193129 Si / 1000 Ang^3
#
#
#
# Elastic Constant Matrix: (Units=GPa)
#
#
# Indices 1 2 3 4 5 6 
#
# 1 149.3066 53.3663 21.6134 0.0000 0.0000 0.0000
# 2 53.3663 106.4819 23.7036 0.0000 0.0000 0.0000
# 3 21.6134 23.7036 93.8457 0.0000 0.0000 0.0000
# 4 0.0000 0.0000 0.0000 27.2936 0.0000 0.0000
# 5 0.0000 0.0000 0.0000 0.0000 15.8302 0.0000
# 6 0.0000 0.0000 0.0000 0.0000 0.0000 22.8595
#
#
#
# Elastic Compliance Matrix: (Units=1/GPa)
#
#
# Indices 1 2 3 4 5 6 
#
# 1 0.008231 -0.003924 -0.000905 0.000000 0.000000 0.000000
# 2 -0.003924 0.011821 -0.002082 0.000000 0.000000 0.000000
# 3 -0.000905 -0.002082 0.011390 0.000000 0.000000 0.000000
# 4 0.000000 0.000000 0.000000 0.036639 0.000000 0.000000
# 5 0.000000 0.000000 0.000000 0.000000 0.063170 0.000000
# 6 0.000000 0.000000 0.000000 0.000000 0.000000 0.043745
#
#
# Mechanical properties :
#
#
# Convention : Reuss Voigt Hill
#
# Bulk Modulus (GPa) = 56.74971 60.77789 58.76380
# Shear Modulus (GPa) = 25.68161 29.92673 27.80417
#
# Velocity S-wave (km/s) = 3.57010 3.85388 3.71470
# Velocity P-wave (km/s) = 6.72002 7.06873 6.89658
#
# Compressibility (1/GPa) = 0.01762124
#
# Stress axis : x y z
#
# Youngs Moduli (GPa) = 121.49086 84.59298 87.79612
#
# Poissons Ratio (x) = 0.33193 0.07942
# Poissons Ratio (y) = 0.47671 0.18280
# Poissons Ratio (z) = 0.10990 0.17613
#
# Static dielectric constant tensor:
#      x y z
#    x 3.768460 0.000000 0.000000 
#    y 0.000000 3.643210 0.000000 
#    z 0.000000 0.000000 3.634220 
# 
# 
# High freq. dielectric constant tensor:
#      x y z
#    x 1.777780 0.000000 0.000000 
#    y 0.000000 1.783620 0.000000 
#    z 0.000000 0.000000 1.792730 
# 
# From -- ./inp_files/7713.got.cif
#   From: 2010.03.12/outbox.cif.g09.slc.cpg/sg65_4_cif.got.tgz:7713.got - 2010.04.10 20:52:16.
