data_PCOD8273288
_publ_section_title
;
Structure prediction by ZEFSAII (Michael W. Deem and Ramdas Pophale) SiO2 
 PCOD8273288
Probable space group: C M M M
;
_chemical_formula_sum "Si O2"
_cell_formula_units_Z 88
_cell_length_a 20.341166
_cell_length_b 24.515947
_cell_length_c 8.671789
_cell_angle_alpha 90.000000
_cell_angle_beta 90.000000
_cell_angle_gamma 90.000000
_cell_volume 4324.473299
_symmetry_space_group_name_H-M "C M M M"
_symmetry_group_IT_number 65
_symmetry_cell_setting 'orthorhombic'
loop_
_space_group_symop_operation_xyz
x,y,z
-x,-y,z
x,-y,-z
-x,y,-z
-x,-y,-z
x,y,-z
-x,y,z
x,-y,z
1/2+x,1/2+y,z
1/2-x,1/2-y,z
1/2+x,1/2-y,-z
1/2-x,1/2+y,-z
1/2-x,1/2-y,-z
1/2+x,1/2+y,-z
1/2-x,1/2+y,z
1/2+x,1/2-y,z
loop_
_atom_site_type_symbol
_atom_site_label
_atom_site_fract_x
_atom_site_fract_y
_atom_site_fract_z
Si Si1 0.881387 0.558768 0.817165
Si Si2 0.571817 0.828075 0.816526
Si Si3 0.126091 0.869267 0.321613
Si Si4 0.731789 0.437896 0.172556
Si Si5 0.824443 0.758397 0.817161
Si Si6 0.500000 0.437095 0.316473
O O1 0.906668 0.500000 0.750989
O O2 0.921657 0.610103 0.750903
O O3 0.806037 0.567472 0.770347
O O4 0.887174 0.556407 0.000000
O O5 0.500000 0.805846 0.765410
O O6 0.629902 0.790250 0.750377
O O7 0.577379 0.829384 0.000000
O O8 0.116341 0.855416 0.500000
O O9 0.189391 0.906620 0.298159
O O10 0.139109 0.813451 0.231911
O O11 0.063216 0.902895 0.256754
O O12 0.708433 0.500000 0.169128
O O13 0.723449 0.412503 0.000000
O O14 0.750000 0.750000 0.751350
O O15 0.821650 0.756934 0.000000
O O16 0.500000 0.500000 0.252211
O O17 0.500000 0.440121 0.500000
#
# Coordination Sequence:
#
# PCOD8273288 Si02
#       6
#    16  16  16  16  16   8
#     4   8  14  26  46  72 102 134 166 203 253 312
#     4   9  17  28  45  71 101 133 171 213 256 305
#     4  11  22  35  55  79 105 140 183 228 275 327
#     4   9  17  31  52  77 105 138 175 214 261 318
#     4  10  21  37  56  76 104 144 183 224 279 333
#     4   9  20  38  55  75 109 149 182 219 280 348
#
# _framework density 20.349299999999999
#
# number of rings (size 3 to 8) (size 9 to 14) (size 15 to 20)
#    0.000    2.636    0.000    3.273    1.273    4.727 
#    0.000    3.182    0.000    3.273    0.000    0.000 
#    0.000    0.000    0.000   11.091    0.000   10.909 
#
# Total GULP energy -545244.235321 kJ/mol
# GULP energy per Si atom -12391.914439 kJ/mol
# Density = 2.030298 g / cm^3
# Si number density = 20.349300 Si / 1000 Ang^3
#
#
#
# Elastic Constant Matrix: (Units=GPa)
#
#
# Indices 1 2 3 4 5 6 
#
# 1 131.4184 90.3702 12.1045 0.0000 0.0000 0.0000
# 2 90.3702 146.7653 5.7711 0.0000 0.0000 0.0000
# 3 12.1045 5.7711 9.8299 0.0000 0.0000 0.0000
# 4 0.0000 0.0000 0.0000 17.4091 0.0000 0.0000
# 5 0.0000 0.0000 0.0000 0.0000 14.8367 0.0000
# 6 0.0000 0.0000 0.0000 0.0000 0.0000 37.1751
#
#
#
# Elastic Compliance Matrix: (Units=1/GPa)
#
#
# Indices 1 2 3 4 5 6 
#
# 1 0.014672 -0.008520 -0.013064 0.000000 0.000000 0.000000
# 2 -0.008520 0.011923 0.003492 0.000000 0.000000 0.000000
# 3 -0.013064 0.003492 0.115768 0.000000 0.000000 0.000000
# 4 0.000000 0.000000 0.000000 0.057441 0.000000 0.000000
# 5 0.000000 0.000000 0.000000 0.000000 0.067401 0.000000
# 6 0.000000 0.000000 0.000000 0.000000 0.000000 0.026900
#
#
# Mechanical properties :
#
#
# Convention : Reuss Voigt Hill
#
# Bulk Modulus (GPa) = 9.41825 56.05613 32.73719
# Shear Modulus (GPa) = 13.67314 25.86869 19.77091
#
# Velocity S-wave (km/s) = 2.59496 3.56930 3.12039
# Velocity P-wave (km/s) = 3.69009 6.67782 5.39491
#
# Compressibility (1/GPa) = 0.10617683
#
# Stress axis : x y z
#
# Youngs Moduli (GPa) = 68.15915 83.87443 8.63800
#
# Poissons Ratio (x) = 0.71463 0.11285
# Poissons Ratio (y) = 0.58073 -0.03016
# Poissons Ratio (z) = 0.89045 -0.29289
#
# Static dielectric constant tensor:
#      x y z
#    x 3.906250 0.000000 0.000000 
#    y 0.000000 4.186170 0.000000 
#    z 0.000000 0.000000 3.046720 
# 
# 
# High freq. dielectric constant tensor:
#      x y z
#    x 1.802120 0.000000 0.000000 
#    y 0.000000 1.811360 0.000000 
#    z 0.000000 0.000000 1.726760 
# 
# From -- ./inp_files/11759.got.cif
#   From: 2010.03.12/outbox.cif.g09.slc.cpg/sg65_6_cif.got.tgz:11759.got - 2010.04.10 20:52:16.
