data_PCOD8273247
_publ_section_title
;
Structure prediction by ZEFSAII (Michael W. Deem and Ramdas Pophale) SiO2 
 PCOD8273247
Probable space group: C M M M
;
_chemical_formula_sum "Si O2"
_cell_formula_units_Z 96
_cell_length_a 9.043259
_cell_length_b 25.511668
_cell_length_c 27.172244
_cell_angle_alpha 90.000000
_cell_angle_beta 90.000000
_cell_angle_gamma 90.000000
_cell_volume 6268.870949
_symmetry_space_group_name_H-M "C M M M"
_symmetry_group_IT_number 65
_symmetry_cell_setting 'orthorhombic'
loop_
_space_group_symop_operation_xyz
x,y,z
-x,-y,z
x,-y,-z
-x,y,-z
-x,-y,-z
x,y,-z
-x,y,z
x,-y,z
1/2+x,1/2+y,z
1/2-x,1/2-y,z
1/2+x,1/2-y,-z
1/2-x,1/2+y,-z
1/2-x,1/2-y,-z
1/2+x,1/2+y,-z
1/2-x,1/2+y,z
1/2+x,1/2-y,z
loop_
_atom_site_type_symbol
_atom_site_label
_atom_site_fract_x
_atom_site_fract_y
_atom_site_fract_z
Si Si1 0.173499 0.901367 0.105519
Si Si2 0.833230 0.437504 0.500000
Si Si3 0.171974 0.695542 0.057023
Si Si4 0.833284 0.562465 0.692128
Si Si5 0.830060 0.059783 0.788015
Si Si6 0.833259 0.937481 0.403700
Si Si7 0.669152 0.000000 0.058284
O O1 0.248106 0.847727 0.089490
O O2 0.200950 0.906078 0.163766
O O3 0.248365 0.948860 0.077126
O O4 0.000000 0.901373 0.092821
O O5 0.831647 0.500000 0.500000
O O6 0.751467 0.415786 0.548428
O O7 0.000000 0.416072 0.500000
O O8 0.250000 0.750000 0.069434
O O9 0.000000 0.699108 0.071255
O O10 0.191972 0.680661 0.000000
O O11 0.825610 0.500000 0.691979
O O12 0.763332 0.583590 0.742868
O O13 0.744694 0.584799 0.645294
O O14 0.000000 0.583062 0.688437
O O15 0.000000 0.062066 0.771940
O O16 0.783433 0.000000 0.799892
O O17 0.000000 0.916243 0.405135
O O18 0.830314 0.000000 0.403547
O O19 0.500000 0.000000 0.077301
O O20 0.673886 0.000000 0.000000
#
# Coordination Sequence:
#
# PCOD8273247 Si02
#       7
#    16   8  16  16  16  16   8
#     4  11  21  34  51  71  93 119 148 181 220 264
#     4   9  15  21  29  41  59  81 111 157 204 245
#     4  10  21  37  55  74  94 117 146 180 218 261
#     4   9  16  24  35  51  69  93 127 164 203 245
#     4   9  17  30  43  58  82 110 139 170 208 254
#     4   9  15  22  31  43  60  86 118 155 201 249
#     4  11  23  35  47  67  95 123 149 178 215 262
#
# _framework density 15.313762000000001
#
# number of rings (size 3 to 8) (size 9 to 14) (size 15 to 20)
#    0.000    2.333    0.833    3.000    0.000   10.000 
#    0.000    0.000    0.000    0.000    0.000    0.000 
#    0.000    0.000    0.000    0.000    0.000    0.000 
#
# Total GULP energy -595221.853264 kJ/mol
# GULP energy per Si atom -12400.455276 kJ/mol
# Density = 1.527891 g / cm^3
# Si number density = 15.313762 Si / 1000 Ang^3
#
#
#
# Elastic Constant Matrix: (Units=GPa)
#
#
# Indices 1 2 3 4 5 6 
#
# 1 148.2642 41.7020 81.1325 0.0000 0.0000 0.0000
# 2 41.7020 52.5195 41.0642 0.0000 0.0000 0.0000
# 3 81.1325 41.0642 118.6960 0.0000 0.0000 0.0000
# 4 0.0000 0.0000 0.0000 56.1118 0.0000 0.0000
# 5 0.0000 0.0000 0.0000 0.0000 31.5318 0.0000
# 6 0.0000 0.0000 0.0000 0.0000 0.0000 19.8749
#
#
#
# Elastic Compliance Matrix: (Units=1/GPa)
#
#
# Indices 1 2 3 4 5 6 
#
# 1 0.011369 -0.004046 -0.006372 0.000000 0.000000 0.000000
# 2 -0.004046 0.027541 -0.006763 0.000000 0.000000 0.000000
# 3 -0.006372 -0.006763 0.015120 0.000000 0.000000 0.000000
# 4 0.000000 0.000000 0.000000 0.017822 0.000000 0.000000
# 5 0.000000 0.000000 0.000000 0.000000 0.031714 0.000000
# 6 0.000000 0.000000 0.000000 0.000000 0.000000 0.050315
#
#
# Mechanical properties :
#
#
# Convention : Reuss Voigt Hill
#
# Bulk Modulus (GPa) = 50.83961 71.91965 61.37963
# Shear Modulus (GPa) = 25.66786 31.87577 28.77182
#
# Velocity S-wave (km/s) = 4.09850 4.56731 4.33924
# Velocity P-wave (km/s) = 7.46107 8.65331 8.07921
#
# Compressibility (1/GPa) = 0.01966970
#
# Stress axis : x y z
#
# Youngs Moduli (GPa) = 87.95619 36.31015 66.13889
#
# Poissons Ratio (x) = 0.14690 0.42141
# Poissons Ratio (y) = 0.35584 0.44727
# Poissons Ratio (z) = 0.56042 0.24555
#
# Static dielectric constant tensor:
#      x y z
#    x 3.186020 0.000000 0.000000 
#    y 0.000000 2.352110 0.000000 
#    z 0.000000 0.000000 3.083590 
# 
# 
# High freq. dielectric constant tensor:
#      x y z
#    x 1.609380 0.000000 0.000000 
#    y 0.000000 1.511650 0.000000 
#    z 0.000000 0.000000 1.597740 
# 
# From -- ./inp_files/73519.got.cif
#   From: 2010.03.12/outbox.cif.g09.slc.cpg/sg65_37_cif.got.tgz:73519.got - 2010.04.10 20:52:16.
