data_PCOD8273009
_publ_section_title
;
Structure prediction by ZEFSAII (Michael W. Deem and Ramdas Pophale) SiO2 
 PCOD8273009
Probable space group: C M M M
;
_chemical_formula_sum "Si O2"
_cell_formula_units_Z 96
_cell_length_a 30.287106
_cell_length_b 9.241714
_cell_length_c 18.785761
_cell_angle_alpha 90.000000
_cell_angle_beta 90.000000
_cell_angle_gamma 90.000000
_cell_volume 5258.224141
_symmetry_space_group_name_H-M "C M M M"
_symmetry_group_IT_number 65
_symmetry_cell_setting 'orthorhombic'
loop_
_space_group_symop_operation_xyz
x,y,z
-x,-y,z
x,-y,-z
-x,y,-z
-x,-y,-z
x,y,-z
-x,y,z
x,-y,z
1/2+x,1/2+y,z
1/2-x,1/2-y,z
1/2+x,1/2-y,-z
1/2-x,1/2+y,-z
1/2-x,1/2-y,-z
1/2+x,1/2+y,-z
1/2-x,1/2+y,z
1/2+x,1/2-y,z
loop_
_atom_site_type_symbol
_atom_site_label
_atom_site_fract_x
_atom_site_fract_y
_atom_site_fract_z
Si Si1 0.050702 0.667736 0.691357
Si Si2 0.293612 0.169258 0.336012
Si Si3 0.051051 0.169140 0.165543
Si Si4 0.706258 0.831357 0.172053
Si Si5 0.877633 0.332745 0.082477
Si Si6 0.878398 0.671864 0.420569
O O1 0.060482 0.500000 0.708697
O O2 0.064672 0.758846 0.759974
O O3 0.079374 0.723394 0.624785
O O4 0.000000 0.693450 0.670581
O O5 0.250000 0.250000 0.362797
O O6 0.304031 0.205901 0.254018
O O7 0.334018 0.228662 0.382957
O O8 0.286073 0.000000 0.347213
O O9 0.079729 0.239052 0.102946
O O10 0.000000 0.200372 0.147768
O O11 0.060991 0.000000 0.170552
O O12 0.750000 0.750000 0.145360
O O13 0.664772 0.777003 0.126169
O O14 0.714720 0.000000 0.160205
O O15 0.887620 0.500000 0.100092
O O16 0.867350 0.308897 0.000000
O O17 0.881808 0.737610 0.500000
O O18 0.877495 0.500000 0.424000
#
# Coordination Sequence:
#
# PCOD8273009 Si02
#       6
#    16  16  16  16  16  16
#     4   9  17  31  53  77  99 127 165 207 249 297
#     4   9  17  30  48  68  93 127 165 204 243 285
#     4  10  21  36  54  76 102 133 170 212 255 300
#     4   9  18  33  52  74 100 131 169 210 250 294
#     4  10  21  36  54  77 105 136 169 206 250 302
#     4   9  17  29  47  73 103 132 162 201 250 297
#
# _framework density 18.257114000000001
#
# number of rings (size 3 to 8) (size 9 to 14) (size 15 to 20)
#    0.000    2.667    0.000    1.500    0.000    6.000 
#    0.000    7.500    0.000    1.500    0.000    2.333 
#    0.000    0.000    0.000    0.000    0.000    0.000 
#
# Total GULP energy -595319.315565 kJ/mol
# GULP energy per Si atom -12402.485741 kJ/mol
# Density = 1.821556 g / cm^3
# Si number density = 18.257114 Si / 1000 Ang^3
#
#
#
# Elastic Constant Matrix: (Units=GPa)
#
#
# Indices 1 2 3 4 5 6 
#
# 1 112.1475 39.5360 59.8358 0.0000 0.0000 0.0000
# 2 39.5360 48.0935 31.5597 0.0000 0.0000 0.0000
# 3 59.8358 31.5597 93.7487 0.0000 0.0000 0.0000
# 4 0.0000 0.0000 0.0000 12.8886 0.0000 0.0000
# 5 0.0000 0.0000 0.0000 0.0000 20.9161 0.0000
# 6 0.0000 0.0000 0.0000 0.0000 0.0000 30.3054
#
#
#
# Elastic Compliance Matrix: (Units=1/GPa)
#
#
# Indices 1 2 3 4 5 6 
#
# 1 0.015645 -0.008097 -0.007259 0.000000 0.000000 0.000000
# 2 -0.008097 0.030879 -0.005227 0.000000 0.000000 0.000000
# 3 -0.007259 -0.005227 0.017060 0.000000 0.000000 0.000000
# 4 0.000000 0.000000 0.000000 0.077588 0.000000 0.000000
# 5 0.000000 0.000000 0.000000 0.000000 0.047810 0.000000
# 6 0.000000 0.000000 0.000000 0.000000 0.000000 0.032997
#
#
# Mechanical properties :
#
#
# Convention : Reuss Voigt Hill
#
# Bulk Modulus (GPa) = 44.61045 57.31697 50.96371
# Shear Modulus (GPa) = 18.47617 21.02591 19.75104
#
# Velocity S-wave (km/s) = 3.18464 3.39729 3.29268
# Velocity P-wave (km/s) = 6.16524 6.84480 6.51389
#
# Compressibility (1/GPa) = 0.02241627
#
# Stress axis : x y z
#
# Youngs Moduli (GPa) = 63.91985 32.38408 58.61685
#
# Poissons Ratio (x) = 0.26222 0.42553
# Poissons Ratio (y) = 0.51756 0.30641
# Poissons Ratio (z) = 0.46402 0.16928
#
# Static dielectric constant tensor:
#      x y z
#    x 3.494520 0.000000 0.000000 
#    y 0.000000 3.156100 0.000000 
#    z 0.000000 0.000000 3.418180 
# 
# 
# High freq. dielectric constant tensor:
#      x y z
#    x 1.717900 0.000000 0.000000 
#    y 0.000000 1.681730 0.000000 
#    z 0.000000 0.000000 1.704690 
# 
# From -- ./inp_files/60213.got.cif
#   From: 2010.03.12/outbox.cif.g09.slc.cpg/sg65_31_cif.got.tgz:60213.got - 2010.04.10 20:52:16.
