data_PCOD8273041
_publ_section_title
;
Structure prediction by ZEFSAII (Michael W. Deem and Ramdas Pophale) SiO2 
 PCOD8273041
Probable space group: C M M M
;
_chemical_formula_sum "Si O2"
_cell_formula_units_Z 80
_cell_length_a 19.117326
_cell_length_b 9.031562
_cell_length_c 25.062592
_cell_angle_alpha 90.000000
_cell_angle_beta 90.000000
_cell_angle_gamma 90.000000
_cell_volume 4327.289968
_symmetry_space_group_name_H-M "C M M M"
_symmetry_group_IT_number 65
_symmetry_cell_setting 'orthorhombic'
loop_
_space_group_symop_operation_xyz
x,y,z
-x,-y,z
x,-y,-z
-x,y,-z
-x,-y,-z
x,y,-z
-x,y,z
x,-y,z
1/2+x,1/2+y,z
1/2-x,1/2-y,z
1/2+x,1/2-y,-z
1/2-x,1/2+y,-z
1/2-x,1/2-y,-z
1/2+x,1/2+y,-z
1/2-x,1/2+y,z
1/2+x,1/2-y,z
loop_
_atom_site_type_symbol
_atom_site_label
_atom_site_fract_x
_atom_site_fract_y
_atom_site_fract_z
Si Si1 0.674732 0.324020 0.154335
Si Si2 0.581679 0.834158 0.361877
Si Si3 0.421906 0.324211 0.059356
Si Si4 0.580703 0.171724 0.239535
Si Si5 0.820351 0.173026 0.439552
O O1 0.683319 0.500000 0.154127
O O2 0.750000 0.250000 0.155626
O O3 0.633979 0.263942 0.101932
O O4 0.630559 0.277008 0.205675
O O5 0.500000 0.823646 0.372363
O O6 0.598699 0.793807 0.300867
O O7 0.617042 0.718163 0.401103
O O8 0.608465 0.000000 0.374467
O O9 0.500000 0.264927 0.073287
O O10 0.423120 0.500000 0.061145
O O11 0.400214 0.269687 0.000000
O O12 0.500000 0.210577 0.227231
O O13 0.595353 0.000000 0.226302
O O14 0.838187 0.222801 0.500000
O O15 0.750000 0.250000 0.419079
O O16 0.808629 0.000000 0.435852
#
# Coordination Sequence:
#
# PCOD8273041 Si02
#       5
#    16  16  16  16  16
#     4  11  22  34  51  77 107 140 177 214 257 308
#     4   9  19  36  57  80 105 135 171 211 259 312
#     4   8  15  30  52  76 101 131 170 215 260 307
#     4   9  19  37  58  78 103 135 171 214 262 310
#     4  10  21  36  54  77 106 140 176 214 257 305
#
# _framework density 18.487321999999999
#
# number of rings (size 3 to 8) (size 9 to 14) (size 15 to 20)
#    0.000    2.600    0.000    3.600    0.000    5.200 
#    0.000    4.000    0.000    1.800    0.000    7.000 
#    0.000    0.000    0.000    0.000    0.000    0.000 
#
# Total GULP energy -495984.831781 kJ/mol
# GULP energy per Si atom -12399.620795 kJ/mol
# Density = 1.844524 g / cm^3
# Si number density = 18.487322 Si / 1000 Ang^3
#
#
#
# Elastic Constant Matrix: (Units=GPa)
#
#
# Indices 1 2 3 4 5 6 
#
# 1 108.0870 45.4871 74.1888 0.0000 0.0000 0.0000
# 2 45.4871 63.0244 44.3822 0.0000 0.0000 0.0000
# 3 74.1888 44.3822 110.7837 0.0000 0.0000 0.0000
# 4 0.0000 0.0000 0.0000 19.3662 0.0000 0.0000
# 5 0.0000 0.0000 0.0000 0.0000 7.5573 0.0000
# 6 0.0000 0.0000 0.0000 0.0000 0.0000 23.6571
#
#
#
# Elastic Compliance Matrix: (Units=1/GPa)
#
#
# Indices 1 2 3 4 5 6 
#
# 1 0.018900 -0.006586 -0.010018 0.000000 0.000000 0.000000
# 2 -0.006586 0.024397 -0.005364 0.000000 0.000000 0.000000
# 3 -0.010018 -0.005364 0.017884 0.000000 0.000000 0.000000
# 4 0.000000 0.000000 0.000000 0.051636 0.000000 0.000000
# 5 0.000000 0.000000 0.000000 0.000000 0.132323 0.000000
# 6 0.000000 0.000000 0.000000 0.000000 0.000000 0.042271
#
#
# Mechanical properties :
#
#
# Convention : Reuss Voigt Hill
#
# Bulk Modulus (GPa) = 57.98486 67.77902 62.88194
# Shear Modulus (GPa) = 14.83263 17.97191 16.40227
#
# Velocity S-wave (km/s) = 2.83559 3.12127 2.98185
# Velocity P-wave (km/s) = 6.49257 7.05208 6.77810
#
# Compressibility (1/GPa) = 0.01724588
#
# Stress axis : x y z
#
# Youngs Moduli (GPa) = 52.91124 40.98827 55.91492
#
# Poissons Ratio (x) = 0.26994 0.56016
# Poissons Ratio (y) = 0.34846 0.29992
# Poissons Ratio (z) = 0.53007 0.21985
#
# Static dielectric constant tensor:
#      x y z
#    x 3.387280 0.000000 0.000000 
#    y 0.000000 3.210410 0.000000 
#    z 0.000000 0.000000 3.561660 
# 
# 
# High freq. dielectric constant tensor:
#      x y z
#    x 1.716770 0.000000 0.000000 
#    y 0.000000 1.700190 0.000000 
#    z 0.000000 0.000000 1.725770 
# 
# From -- ./inp_files/72762.got.cif
#   From: 2010.03.12/outbox.cif.g09.slc.cpg/sg65_37_cif.got.tgz:72762.got - 2010.04.10 20:52:16.
