data_PCOD8273922
_publ_section_title
;
Structure prediction by ZEFSAII (Michael W. Deem and Ramdas Pophale) SiO2 
 PCOD8273922
Probable space group: C M M M
;
_chemical_formula_sum "Si O2"
_cell_formula_units_Z 80
_cell_length_a 9.331643
_cell_length_b 20.649068
_cell_length_c 22.481825
_cell_angle_alpha 90.000000
_cell_angle_beta 90.000000
_cell_angle_gamma 90.000000
_cell_volume 4332.016808
_symmetry_space_group_name_H-M "C M M M"
_symmetry_group_IT_number 65
_symmetry_cell_setting 'orthorhombic'
loop_
_space_group_symop_operation_xyz
x,y,z
-x,-y,z
x,-y,-z
-x,y,-z
-x,-y,-z
x,y,-z
-x,y,z
x,-y,z
1/2+x,1/2+y,z
1/2-x,1/2-y,z
1/2+x,1/2-y,-z
1/2-x,1/2+y,-z
1/2-x,1/2-y,-z
1/2+x,1/2+y,-z
1/2-x,1/2+y,z
1/2+x,1/2-y,z
loop_
_atom_site_type_symbol
_atom_site_label
_atom_site_fract_x
_atom_site_fract_y
_atom_site_fract_z
Si Si1 0.163515 0.811546 0.184408
Si Si2 0.667036 0.425946 0.729355
Si Si3 0.162977 0.922681 0.500000
Si Si4 0.841172 0.500000 0.070395
Si Si5 0.661820 0.923276 0.612893
Si Si6 0.835370 0.877194 0.933041
O O1 0.250000 0.750000 0.208435
O O2 0.208820 0.878139 0.216859
O O3 0.190117 0.819114 0.113403
O O4 0.000000 0.795828 0.198384
O O5 0.500000 0.420970 0.712356
O O6 0.705142 0.500000 0.747913
O O7 0.759273 0.402477 0.673223
O O8 0.247012 0.895623 0.442407
O O9 0.000000 0.896079 0.500000
O O10 0.160632 0.000000 0.500000
O O11 0.757921 0.436526 0.091268
O O12 0.000000 0.500000 0.098609
O O13 0.849220 0.500000 0.000000
O O14 0.500000 0.894883 0.611797
O O15 0.655885 0.000000 0.608103
O O16 0.000000 0.900084 0.931877
O O17 0.791407 0.855033 0.000000
#
# Coordination Sequence:
#
# PCOD8273922 Si02
#       6
#    16  16   8   8  16  16
#     4  10  22  37  54  75 102 135 173 216 263 314
#     4   9  18  33  52  72  97 133 175 215 254 304
#     4   9  15  23  39  65 100 139 172 203 246 301
#     4   9  17  29  47  75 105 129 157 200 253 302
#     4   9  16  26  42  68 101 133 167 210 257 300
#     4   9  18  33  53  75 100 133 171 209 256 316
#
# _framework density 18.467148000000002
#
# number of rings (size 3 to 8) (size 9 to 14) (size 15 to 20)
#    0.000    2.800    0.000    1.200    1.400    6.800 
#    0.000    0.000    0.000    0.000    0.000    0.700 
#    0.000    0.000    0.000    0.000    0.000    0.000 
#
# Total GULP energy -495856.970594 kJ/mol
# GULP energy per Si atom -12396.424265 kJ/mol
# Density = 1.842512 g / cm^3
# Si number density = 18.467148 Si / 1000 Ang^3
#
#
#
# Elastic Constant Matrix: (Units=GPa)
#
#
# Indices 1 2 3 4 5 6 
#
# 1 101.1985 41.5811 55.4443 0.0000 0.0000 0.0000
# 2 41.5811 75.2524 42.8434 0.0000 0.0000 0.0000
# 3 55.4443 42.8434 114.7008 0.0000 0.0000 0.0000
# 4 0.0000 0.0000 0.0000 7.1247 0.0000 0.0000
# 5 0.0000 0.0000 0.0000 0.0000 23.4470 0.0000
# 6 0.0000 0.0000 0.0000 0.0000 0.0000 20.7682
#
#
#
# Elastic Compliance Matrix: (Units=1/GPa)
#
#
# Indices 1 2 3 4 5 6 
#
# 1 0.014915 -0.005254 -0.005247 0.000000 0.000000 0.000000
# 2 -0.005254 0.018729 -0.004456 0.000000 0.000000 0.000000
# 3 -0.005247 -0.004456 0.012919 0.000000 0.000000 0.000000
# 4 0.000000 0.000000 0.000000 0.140356 0.000000 0.000000
# 5 0.000000 0.000000 0.000000 0.000000 0.042649 0.000000
# 6 0.000000 0.000000 0.000000 0.000000 0.000000 0.048151
#
#
# Mechanical properties :
#
#
# Convention : Reuss Voigt Hill
#
# Bulk Modulus (GPa) = 60.06496 63.43217 61.74857
# Shear Modulus (GPa) = 15.96510 20.35350 18.15930
#
# Velocity S-wave (km/s) = 2.94345 3.32346 3.13921
# Velocity P-wave (km/s) = 6.64438 7.01074 6.83001
#
# Compressibility (1/GPa) = 0.01664864
#
# Stress axis : x y z
#
# Youngs Moduli (GPa) = 67.04548 53.39420 77.40469
#
# Poissons Ratio (x) = 0.28054 0.40616
# Poissons Ratio (y) = 0.35226 0.34490
# Poissons Ratio (z) = 0.35180 0.23792
#
# Static dielectric constant tensor:
#      x y z
#    x 3.592540 0.000000 0.000000 
#    y 0.000000 2.906100 0.000000 
#    z 0.000000 0.000000 3.425590 
# 
# 
# High freq. dielectric constant tensor:
#      x y z
#    x 1.721730 0.000000 0.000000 
#    y 0.000000 1.662740 0.000000 
#    z 0.000000 0.000000 1.716310 
# 
# From -- ./inp_files/67288.got.cif
#   From: 2010.03.12/outbox.cif.g09.slc.cpg/sg65_34_cif.got.tgz:67288.got - 2010.04.10 20:52:16.
