data_PCOD8273982
_publ_section_title
;
Structure prediction by ZEFSAII (Michael W. Deem and Ramdas Pophale) SiO2 
 PCOD8273982
Probable space group: C M M M
;
_chemical_formula_sum "Si O2"
_cell_formula_units_Z 80
_cell_length_a 8.814077
_cell_length_b 23.623042
_cell_length_c 20.320080
_cell_angle_alpha 90.000000
_cell_angle_beta 90.000000
_cell_angle_gamma 90.000000
_cell_volume 4230.951780
_symmetry_space_group_name_H-M "C M M M"
_symmetry_group_IT_number 65
_symmetry_cell_setting 'orthorhombic'
loop_
_space_group_symop_operation_xyz
x,y,z
-x,-y,z
x,-y,-z
-x,y,-z
-x,-y,-z
x,y,-z
-x,y,z
x,-y,z
1/2+x,1/2+y,z
1/2-x,1/2-y,z
1/2+x,1/2-y,-z
1/2-x,1/2+y,-z
1/2-x,1/2-y,-z
1/2+x,1/2+y,-z
1/2-x,1/2+y,z
1/2+x,1/2-y,z
loop_
_atom_site_type_symbol
_atom_site_label
_atom_site_fract_x
_atom_site_fract_y
_atom_site_fract_z
Si Si1 0.825835 0.885090 0.071651
Si Si2 0.822669 0.935480 0.424528
Si Si3 0.819547 0.811113 0.194892
Si Si4 0.679271 0.000000 0.097351
Si Si5 0.820311 0.384657 0.694068
Si Si6 0.179736 0.500000 0.756401
O O1 0.761226 0.847804 0.132156
O O2 0.737286 0.943615 0.062889
O O3 0.000000 0.898962 0.086555
O O4 0.808495 0.853940 0.000000
O O5 0.787669 0.920625 0.500000
O O6 0.733221 0.888002 0.381851
O O7 0.000000 0.930465 0.409480
O O8 0.767246 0.000000 0.409537
O O9 0.750000 0.750000 0.184357
O O10 0.758846 0.835368 0.264153
O O11 0.000000 0.807285 0.197271
O O12 0.744895 0.000000 0.170720
O O13 0.500000 0.000000 0.094362
O O14 0.758429 0.443938 0.722159
O O15 0.000000 0.376309 0.698740
O O16 0.000000 0.500000 0.755225
#
# Coordination Sequence:
#
# PCOD8273982 Si02
#       6
#    16  16  16   8  16   8
#     4  10  22  39  57  80 112 147 183 226 279 338
#     4   9  18  32  51  81 121 158 189 223 267 324
#     4  11  24  41  60  81 105 142 189 237 286 334
#     4  11  20  34  55  83 117 147 181 223 274 334
#     4  11  20  35  57  83 115 149 186 232 278 328
#     4   9  18  30  49  80 114 144 177 223 276 323
#
# _framework density 18.908275
#
# number of rings (size 3 to 8) (size 9 to 14) (size 15 to 20)
#    0.000    1.800    3.000    2.400    0.000    3.200 
#    0.000    1.000    0.000    0.600    0.000    0.000 
#    0.000    0.000    0.000    0.000    0.000    0.000 
#
# Total GULP energy -495867.541784 kJ/mol
# GULP energy per Si atom -12396.688545 kJ/mol
# Density = 1.886524 g / cm^3
# Si number density = 18.908275 Si / 1000 Ang^3
#
#
#
# Elastic Constant Matrix: (Units=GPa)
#
#
# Indices 1 2 3 4 5 6 
#
# 1 70.5706 39.0202 41.9176 0.0000 0.0000 0.0000
# 2 39.0202 104.4468 50.4541 0.0000 0.0000 0.0000
# 3 41.9176 50.4541 132.4120 0.0000 0.0000 0.0000
# 4 0.0000 0.0000 0.0000 7.7581 0.0000 0.0000
# 5 0.0000 0.0000 0.0000 0.0000 25.3772 0.0000
# 6 0.0000 0.0000 0.0000 0.0000 0.0000 29.3878
#
#
#
# Elastic Compliance Matrix: (Units=1/GPa)
#
#
# Indices 1 2 3 4 5 6 
#
# 1 0.019582 -0.005296 -0.004181 0.000000 0.000000 0.000000
# 2 -0.005296 0.013166 -0.003340 0.000000 0.000000 0.000000
# 3 -0.004181 -0.003340 0.010149 0.000000 0.000000 0.000000
# 4 0.000000 0.000000 0.000000 0.128897 0.000000 0.000000
# 5 0.000000 0.000000 0.000000 0.000000 0.039405 0.000000
# 6 0.000000 0.000000 0.000000 0.000000 0.000000 0.034028
#
#
# Mechanical properties :
#
#
# Convention : Reuss Voigt Hill
#
# Bulk Modulus (GPa) = 57.93015 63.35701 60.64358
# Shear Modulus (GPa) = 18.07558 24.24045 21.15802
#
# Velocity S-wave (km/s) = 3.09522 3.58439 3.34875
# Velocity P-wave (km/s) = 6.59377 7.12115 6.86253
#
# Compressibility (1/GPa) = 0.01726217
#
# Stress axis : x y z
#
# Youngs Moduli (GPa) = 51.06746 75.95128 98.53575
#
# Poissons Ratio (x) = 0.40223 0.41199
# Poissons Ratio (y) = 0.27045 0.32915
# Poissons Ratio (z) = 0.21352 0.25370
#
# Static dielectric constant tensor:
#      x y z
#    x 3.279140 0.000000 0.000000 
#    y 0.000000 3.260970 0.000000 
#    z 0.000000 0.000000 3.728720 
# 
# 
# High freq. dielectric constant tensor:
#      x y z
#    x 1.729220 0.000000 0.000000 
#    y 0.000000 1.703190 0.000000 
#    z 0.000000 0.000000 1.752570 
# 
# From -- ./inp_files/59696.got.cif
#   From: 2010.03.12/outbox.cif.g09.slc.cpg/sg65_30_cif.got.tgz:59696.got - 2010.04.10 20:52:16.
