data_PCOD8273105
_publ_section_title
;
Structure prediction by ZEFSAII (Michael W. Deem and Ramdas Pophale) SiO2 
 PCOD8273105
Probable space group: C M M M
;
_chemical_formula_sum "Si O2"
_cell_formula_units_Z 88
_cell_length_a 13.887594
_cell_length_b 22.446385
_cell_length_c 14.019990
_cell_angle_alpha 90.000000
_cell_angle_beta 90.000000
_cell_angle_gamma 90.000000
_cell_volume 4370.399351
_symmetry_space_group_name_H-M "C M M M"
_symmetry_group_IT_number 65
_symmetry_cell_setting 'orthorhombic'
loop_
_space_group_symop_operation_xyz
x,y,z
-x,-y,z
x,-y,-z
-x,y,-z
-x,-y,-z
x,y,-z
-x,y,z
x,-y,z
1/2+x,1/2+y,z
1/2-x,1/2-y,z
1/2+x,1/2-y,-z
1/2-x,1/2+y,-z
1/2-x,1/2-y,-z
1/2+x,1/2+y,-z
1/2-x,1/2+y,z
1/2+x,1/2-y,z
loop_
_atom_site_type_symbol
_atom_site_label
_atom_site_fract_x
_atom_site_fract_y
_atom_site_fract_z
Si Si1 0.775359 0.568122 0.780504
Si Si2 0.612317 0.765964 0.714895
Si Si3 0.113907 0.932779 0.500000
Si Si4 0.612818 0.160233 0.892596
Si Si5 0.113633 0.617314 0.608141
Si Si6 0.885685 0.133824 0.690564
O O1 0.762787 0.500000 0.808855
O O2 0.833116 0.599370 0.865999
O O3 0.832356 0.573296 0.680158
O O4 0.668963 0.597390 0.773060
O O5 0.500000 0.755049 0.713658
O O6 0.645665 0.787727 0.819914
O O7 0.640759 0.814604 0.635477
O O8 0.657294 0.701358 0.691423
O O9 0.147882 0.895842 0.591667
O O10 0.000000 0.937441 0.500000
O O11 0.157446 0.000000 0.500000
O O12 0.500000 0.147385 0.880572
O O13 0.638835 0.179889 0.000000
O O14 0.147557 0.604424 0.500000
O O15 0.000000 0.606822 0.619335
O O16 0.000000 0.129745 0.707855
#
# Coordination Sequence:
#
# PCOD8273105 Si02
#       6
#    16  16   8  16  16  16
#     4  11  23  36  53  79 111 146 190 233 271 325
#     4   8  16  33  56  82 111 140 179 225 279 339
#     4   9  18  32  50  73 103 149 202 235 259 295
#     4   9  19  38  63  88 112 138 173 227 289 343
#     4   9  19  34  52  76 109 145 178 221 280 343
#     4  10  21  36  55  79 111 150 191 235 275 317
#
# _framework density 20.135459999999998
#
# number of rings (size 3 to 8) (size 9 to 14) (size 15 to 20)
#    0.000    2.636    0.000    2.182    2.545    6.182 
#    0.000    4.545    0.000    1.636    0.000    1.273 
#    0.000    0.000    0.000    0.000    0.000    0.000 
#
# Total GULP energy -545475.077932 kJ/mol
# GULP energy per Si atom -12397.160862 kJ/mol
# Density = 2.008963 g / cm^3
# Si number density = 20.135460 Si / 1000 Ang^3
#
#
#
# Elastic Constant Matrix: (Units=GPa)
#
#
# Indices 1 2 3 4 5 6 
#
# 1 32.5167 -5.6459 1.7630 0.0000 0.0000 0.0000
# 2 -5.6459 128.2680 13.8765 0.0000 0.0000 0.0000
# 3 1.7630 13.8765 88.8412 0.0000 0.0000 0.0000
# 4 0.0000 0.0000 0.0000 19.4580 0.0000 0.0000
# 5 0.0000 0.0000 0.0000 0.0000 20.7514 0.0000
# 6 0.0000 0.0000 0.0000 0.0000 0.0000 23.6376
#
#
#
# Elastic Compliance Matrix: (Units=1/GPa)
#
#
# Indices 1 2 3 4 5 6 
#
# 1 0.031052 0.001458 -0.000844 0.000000 0.000000 0.000000
# 2 0.001458 0.007999 -0.001278 0.000000 0.000000 0.000000
# 3 -0.000844 -0.001278 0.011472 0.000000 0.000000 0.000000
# 4 0.000000 0.000000 0.000000 0.051393 0.000000 0.000000
# 5 0.000000 0.000000 0.000000 0.000000 0.048190 0.000000
# 6 0.000000 0.000000 0.000000 0.000000 0.000000 0.042305
#
#
# Mechanical properties :
#
#
# Convention : Reuss Voigt Hill
#
# Bulk Modulus (GPa) = 20.32719 29.95701 25.14210
# Shear Modulus (GPa) = 23.79388 28.74486 26.26937
#
# Velocity S-wave (km/s) = 3.44130 3.78242 3.61589
# Velocity P-wave (km/s) = 5.08991 5.82972 5.47233
#
# Compressibility (1/GPa) = 0.04919520
#
# Stress axis : x y z
#
# Youngs Moduli (GPa) = 32.20365 125.02114 87.16535
#
# Poissons Ratio (x) = -0.18229 0.07357
# Poissons Ratio (y) = -0.04696 0.11142
# Poissons Ratio (z) = 0.02718 0.15981
#
# Static dielectric constant tensor:
#      x y z
#    x 3.611140 0.000000 0.000000 
#    y 0.000000 3.731120 0.000000 
#    z 0.000000 0.000000 3.760780 
# 
# 
# High freq. dielectric constant tensor:
#      x y z
#    x 1.793710 0.000000 0.000000 
#    y 0.000000 1.781620 0.000000 
#    z 0.000000 0.000000 1.761860 
# 
# From -- ./inp_files/40187.got.cif
#   From: 2010.03.12/outbox.cif.g09.slc.cpg/sg65_21_cif.got.tgz:40187.got - 2010.04.10 20:52:16.
