data_PCOD8273530
_publ_section_title
;
Structure prediction by ZEFSAII (Michael W. Deem and Ramdas Pophale) SiO2 
 PCOD8273530
Probable space group: C M M M
;
_chemical_formula_sum "Si O2"
_cell_formula_units_Z 80
_cell_length_a 17.743431
_cell_length_b 8.679051
_cell_length_c 25.748529
_cell_angle_alpha 90.000000
_cell_angle_beta 90.000000
_cell_angle_gamma 90.000000
_cell_volume 3965.174143
_symmetry_space_group_name_H-M "C M M M"
_symmetry_group_IT_number 65
_symmetry_cell_setting 'orthorhombic'
loop_
_space_group_symop_operation_xyz
x,y,z
-x,-y,z
x,-y,-z
-x,y,-z
-x,-y,-z
x,y,-z
-x,y,z
x,-y,z
1/2+x,1/2+y,z
1/2-x,1/2-y,z
1/2+x,1/2-y,-z
1/2-x,1/2+y,-z
1/2-x,1/2-y,-z
1/2+x,1/2+y,-z
1/2-x,1/2+y,z
1/2+x,1/2-y,z
loop_
_atom_site_type_symbol
_atom_site_label
_atom_site_fract_x
_atom_site_fract_y
_atom_site_fract_z
Si Si1 0.584864 0.183638 0.000000
Si Si2 0.910961 0.825036 0.199172
Si Si3 0.588061 0.319621 0.605359
Si Si4 0.667448 0.319163 0.500000
Si Si5 0.332714 0.818467 0.297043
Si Si6 0.832064 0.681410 0.102270
O O1 0.627623 0.247588 0.050748
O O2 0.500000 0.249524 0.000000
O O3 0.583157 0.000000 0.000000
O O4 0.884247 0.755165 0.253089
O O5 0.880485 0.724746 0.152029
O O6 0.000000 0.817919 0.198153
O O7 0.881557 0.000000 0.194004
O O8 0.500000 0.281180 0.606838
O O9 0.602825 0.500000 0.615722
O O10 0.620737 0.265525 0.550166
O O11 0.630954 0.219694 0.647835
O O12 0.676688 0.500000 0.500000
O O13 0.750000 0.250000 0.500000
O O14 0.250000 0.750000 0.293154
O O15 0.328592 0.000000 0.289058
O O16 0.825219 0.500000 0.098728
O O17 0.750000 0.750000 0.107617
#
# Coordination Sequence:
#
# PCOD8273530 Si02
#       6
#     8  16  16   8  16  16
#     4   9  19  36  59  87 118 155 198 243 292 346
#     4  11  24  42  63  88 119 154 194 242 296 352
#     4  10  21  39  62  88 120 157 197 242 293 349
#     4  10  21  37  59  87 119 158 199 240 290 346
#     4  12  25  41  62  88 119 155 197 243 293 350
#     4  11  22  38  61  88 121 158 198 243 291 347
#
# _framework density 20.175657999999999
#
# number of rings (size 3 to 8) (size 9 to 14) (size 15 to 20)
#    0.000    1.300    0.000    6.000    0.000    8.800 
#    0.000    1.500    0.000    5.400    0.000    0.000 
#    0.000    0.000    0.000    0.000    0.000    0.000 
#
# Total GULP energy -496230.676775 kJ/mol
# GULP energy per Si atom -12405.766919 kJ/mol
# Density = 2.012974 g / cm^3
# Si number density = 20.175658 Si / 1000 Ang^3
#
#
#
# Elastic Constant Matrix: (Units=GPa)
#
#
# Indices 1 2 3 4 5 6 
#
# 1 -20.6155 71.3975 -41.1177 0.0000 0.0000 0.0000
# 2 71.3975 52.2795 40.6636 0.0000 0.0000 0.0000
# 3 -41.1177 40.6636 84.4034 0.0000 0.0000 0.0000
# 4 0.0000 0.0000 0.0000 32.0999 0.0000 0.0000
# 5 0.0000 0.0000 0.0000 0.0000 53.7281 0.0000
# 6 0.0000 0.0000 0.0000 0.0000 0.0000 20.8783
#
#
#
# Elastic Compliance Matrix: (Units=1/GPa)
#
#
# Indices 1 2 3 4 5 6 
#
# 1 -0.003388 0.009454 -0.006205 0.000000 0.000000 0.000000
# 2 0.009454 0.004213 0.002576 0.000000 0.000000 0.000000
# 3 -0.006205 0.002576 0.007584 0.000000 0.000000 0.000000
# 4 0.000000 0.000000 0.000000 0.031153 0.000000 0.000000
# 5 0.000000 0.000000 0.000000 0.000000 0.018612 0.000000
# 6 0.000000 0.000000 0.000000 0.000000 0.000000 0.047897
#
#
# Mechanical properties :
#
#
# Convention : Reuss Voigt Hill
#
# Bulk Modulus (GPa) = 49.85632 28.66157 39.25894
# Shear Modulus (GPa) = 49.45235 24.34951 36.90093
#
# Velocity S-wave (km/s) = 4.95622 3.47778 4.28130
# Velocity P-wave (km/s) = 7.58399 5.51031 6.62874
#
# Compressibility (1/GPa) = 0.02005764
#
# Stress axis : x y z
#
# Youngs Moduli (GPa) = -295.12929 237.34989 131.85828
#
# Poissons Ratio (x) = -2.24392 0.81823
# Poissons Ratio (y) = 2.79017 -0.33964
# Poissons Ratio (z) = -1.83140 -0.61136
#
# Static dielectric constant tensor:
#      x y z
#    x 3.806270 0.000000 0.000000 
#    y 0.000000 3.682900 0.000000 
#    z 0.000000 0.000000 3.935420 
# 
# 
# High freq. dielectric constant tensor:
#      x y z
#    x 1.807470 0.000000 0.000000 
#    y 0.000000 1.781720 0.000000 
#    z 0.000000 0.000000 1.808860 
# 
# From -- ./inp_files/75128.got.cif
#   From: 2010.03.12/outbox.cif.g09.slc.cpg/sg65_38_cif.got.tgz:75128.got - 2010.04.10 20:52:16.
