data_PCOD8273811
_publ_section_title
;
Structure prediction by ZEFSAII (Michael W. Deem and Ramdas Pophale) SiO2 
 PCOD8273811
Probable space group: C M M M
;
_chemical_formula_sum "Si O2"
_cell_formula_units_Z 64
_cell_length_a 14.711545
_cell_length_b 16.527705
_cell_length_c 12.827522
_cell_angle_alpha 90.000000
_cell_angle_beta 90.000000
_cell_angle_gamma 90.000000
_cell_volume 3118.987292
_symmetry_space_group_name_H-M "C M M M"
_symmetry_group_IT_number 65
_symmetry_cell_setting 'orthorhombic'
loop_
_space_group_symop_operation_xyz
x,y,z
-x,-y,z
x,-y,-z
-x,y,-z
-x,-y,-z
x,y,-z
-x,y,z
x,-y,z
1/2+x,1/2+y,z
1/2-x,1/2-y,z
1/2+x,1/2-y,-z
1/2-x,1/2+y,-z
1/2-x,1/2-y,-z
1/2+x,1/2+y,-z
1/2-x,1/2+y,z
1/2+x,1/2-y,z
loop_
_atom_site_type_symbol
_atom_site_label
_atom_site_fract_x
_atom_site_fract_y
_atom_site_fract_z
Si Si1 0.395846 0.145735 0.241163
Si Si2 0.733383 0.405144 0.881112
Si Si3 0.107411 0.500000 0.614760
Si Si4 0.891869 0.091789 0.500000
Si Si5 0.395264 0.670768 0.711760
O O1 0.500000 0.130529 0.206466
O O2 0.331579 0.135531 0.140711
O O3 0.383096 0.233020 0.292629
O O4 0.361290 0.080652 0.325699
O O5 0.739075 0.500000 0.858972
O O6 0.656816 0.366056 0.809427
O O7 0.706989 0.386557 0.000000
O O8 0.152612 0.500000 0.500000
O O9 0.000000 0.500000 0.604068
O O10 0.854925 0.135918 0.603785
O O11 0.000000 0.096185 0.500000
O O12 0.856376 0.000000 0.500000
O O13 0.500000 0.645913 0.725988
#
# Coordination Sequence:
#
# PCOD8273811 Si02
#       5
#    16  16   8   8  16
#     4  10  21  39  61  89 122 156 198 243 294 354
#     4  11  24  42  62  86 118 156 202 250 295 351
#     4   9  18  34  59  87 122 161 193 236 294 354
#     4   9  18  36  61  87 122 160 195 239 289 352
#     4  10  22  39  62  91 121 155 197 244 297 352
#
# _framework density 20.519480999999999
#
# number of rings (size 3 to 8) (size 9 to 14) (size 15 to 20)
#    0.000    2.000    1.250    1.500    1.750    4.500 
#    2.250    6.250    0.000    0.000    0.000    0.000 
#    0.000    0.000    0.000    0.000    0.000    0.000 
#
# Total GULP energy -396875.596187 kJ/mol
# GULP energy per Si atom -12402.362381 kJ/mol
# Density = 2.047278 g / cm^3
# Si number density = 20.519481 Si / 1000 Ang^3
#
#
#
# Elastic Constant Matrix: (Units=GPa)
#
#
# Indices 1 2 3 4 5 6 
#
# 1 84.8112 44.8224 62.8120 0.0000 0.0000 0.0000
# 2 44.8224 137.9767 75.4764 0.0000 0.0000 0.0000
# 3 62.8120 75.4764 159.0862 0.0000 0.0000 0.0000
# 4 0.0000 0.0000 0.0000 30.4538 0.0000 0.0000
# 5 0.0000 0.0000 0.0000 0.0000 30.2773 0.0000
# 6 0.0000 0.0000 0.0000 0.0000 0.0000 29.1141
#
#
#
# Elastic Compliance Matrix: (Units=1/GPa)
#
#
# Indices 1 2 3 4 5 6 
#
# 1 0.017300 -0.002544 -0.005624 0.000000 0.000000 0.000000
# 2 -0.002544 0.010162 -0.003817 0.000000 0.000000 0.000000
# 3 -0.005624 -0.003817 0.010317 0.000000 0.000000 0.000000
# 4 0.000000 0.000000 0.000000 0.032837 0.000000 0.000000
# 5 0.000000 0.000000 0.000000 0.000000 0.033028 0.000000
# 6 0.000000 0.000000 0.000000 0.000000 0.000000 0.034348
#
#
# Mechanical properties :
#
#
# Convention : Reuss Voigt Hill
#
# Bulk Modulus (GPa) = 72.40822 83.12175 77.76498
# Shear Modulus (GPa) = 30.01853 31.21994 30.61923
#
# Velocity S-wave (km/s) = 3.82897 3.90484 3.86710
# Velocity P-wave (km/s) = 7.41028 7.80558 7.61049
#
# Compressibility (1/GPa) = 0.01381059
#
# Stress axis : x y z
#
# Youngs Moduli (GPa) = 57.80243 98.40754 96.92552
#
# Poissons Ratio (x) = 0.25032 0.54509
# Poissons Ratio (y) = 0.14703 0.36995
# Poissons Ratio (z) = 0.32507 0.37560
#
# Static dielectric constant tensor:
#      x y z
#    x 3.630880 0.000000 0.000000 
#    y 0.000000 3.861030 0.000000 
#    z 0.000000 0.000000 3.759670 
# 
# 
# High freq. dielectric constant tensor:
#      x y z
#    x 1.797670 0.000000 0.000000 
#    y 0.000000 1.816960 0.000000 
#    z 0.000000 0.000000 1.796870 
# 
# From -- ./inp_files/23975.got.cif
#   From: 2010.03.12/outbox.cif.g09.slc.cpg/sg65_12_cif.got.tgz:23975.got - 2010.04.10 20:52:16.
