data_PCOD8273482
_publ_section_title
;
Structure prediction by ZEFSAII (Michael W. Deem and Ramdas Pophale) SiO2 
 PCOD8273482
Probable space group: C M M M
;
_chemical_formula_sum "Si O2"
_cell_formula_units_Z 88
_cell_length_a 20.462744
_cell_length_b 9.186107
_cell_length_c 24.092521
_cell_angle_alpha 90.000000
_cell_angle_beta 90.000000
_cell_angle_gamma 90.000000
_cell_volume 4528.742387
_symmetry_space_group_name_H-M "C M M M"
_symmetry_group_IT_number 65
_symmetry_cell_setting 'orthorhombic'
loop_
_space_group_symop_operation_xyz
x,y,z
-x,-y,z
x,-y,-z
-x,y,-z
-x,-y,-z
x,y,-z
-x,y,z
x,-y,z
1/2+x,1/2+y,z
1/2-x,1/2-y,z
1/2+x,1/2-y,-z
1/2-x,1/2+y,-z
1/2-x,1/2-y,-z
1/2+x,1/2+y,-z
1/2-x,1/2+y,z
1/2+x,1/2-y,z
loop_
_atom_site_type_symbol
_atom_site_label
_atom_site_fract_x
_atom_site_fract_y
_atom_site_fract_z
Si Si1 0.924423 0.329225 0.632364
Si Si2 0.000000 0.339481 0.934341
Si Si3 0.374120 0.331860 0.937872
Si Si4 0.312428 0.666957 0.826549
Si Si5 0.425960 0.331248 0.254521
Si Si6 0.185023 0.167483 0.434238
O O1 0.908431 0.500000 0.631119
O O2 0.908635 0.267999 0.693118
O O3 0.879357 0.246238 0.588534
O O4 0.000000 0.299283 0.616617
O O5 0.064009 0.255299 0.914996
O O6 0.000000 0.500000 0.907579
O O7 0.000000 0.348729 0.000000
O O8 0.394606 0.500000 0.938469
O O9 0.317814 0.302356 0.892797
O O10 0.351566 0.282599 0.000000
O O11 0.298985 0.500000 0.814566
O O12 0.250000 0.750000 0.802560
O O13 0.378090 0.716691 0.795150
O O14 0.500000 0.302589 0.234115
O O15 0.416396 0.500000 0.271104
O O16 0.180860 0.176395 0.500000
O O17 0.250000 0.250000 0.412523
O O18 0.187570 0.000000 0.413913
#
# Coordination Sequence:
#
# PCOD8273482 Si02
#       6
#    16   8  16  16  16  16
#     4  10  21  37  58  85 116 149 188 234 282 333
#     4   9  17  29  47  75 105 131 165 211 260 307
#     4   9  18  33  53  76 104 140 179 217 263 326
#     4  10  22  37  55  79 108 141 180 224 274 330
#     4   9  19  37  59  79 103 141 187 233 278 329
#     4  10  21  37  58  85 118 156 196 235 277 328
#
# _framework density 19.431443000000002
#
# number of rings (size 3 to 8) (size 9 to 14) (size 15 to 20)
#    0.000    2.455    0.000    1.364    1.273    6.182 
#    0.000    3.636    0.000    0.000    0.000    0.000 
#    0.000    0.000    0.000    0.000    0.000    0.000 
#
# Total GULP energy -545536.887627 kJ/mol
# GULP energy per Si atom -12398.565628 kJ/mol
# Density = 1.938722 g / cm^3
# Si number density = 19.431443 Si / 1000 Ang^3
#
#
#
# Elastic Constant Matrix: (Units=GPa)
#
#
# Indices 1 2 3 4 5 6 
#
# 1 119.3027 62.1636 45.8086 0.0000 0.0000 0.0000
# 2 62.1636 99.8550 40.1990 0.0000 0.0000 0.0000
# 3 45.8086 40.1990 56.5191 0.0000 0.0000 0.0000
# 4 0.0000 0.0000 0.0000 23.3819 0.0000 0.0000
# 5 0.0000 0.0000 0.0000 0.0000 21.8367 0.0000
# 6 0.0000 0.0000 0.0000 0.0000 0.0000 31.8282
#
#
#
# Elastic Compliance Matrix: (Units=1/GPa)
#
#
# Indices 1 2 3 4 5 6 
#
# 1 0.014307 -0.005939 -0.007372 0.000000 0.000000 0.000000
# 2 -0.005939 0.016498 -0.006920 0.000000 0.000000 0.000000
# 3 -0.007372 -0.006920 0.028590 0.000000 0.000000 0.000000
# 4 0.000000 0.000000 0.000000 0.042768 0.000000 0.000000
# 5 0.000000 0.000000 0.000000 0.000000 0.045795 0.000000
# 6 0.000000 0.000000 0.000000 0.000000 0.000000 0.031419
#
#
# Mechanical properties :
#
#
# Convention : Reuss Voigt Hill
#
# Bulk Modulus (GPa) = 52.81915 63.55768 58.18842
# Shear Modulus (GPa) = 22.10923 23.90971 23.00947
#
# Velocity S-wave (km/s) = 3.37680 3.51160 3.44486
# Velocity P-wave (km/s) = 6.51498 7.01580 6.77003
#
# Compressibility (1/GPa) = 0.01893253
#
# Stress axis : x y z
#
# Youngs Moduli (GPa) = 69.89491 60.61415 34.97716
#
# Poissons Ratio (x) = 0.35999 0.25784
# Poissons Ratio (y) = 0.41511 0.24206
# Poissons Ratio (z) = 0.51525 0.41947
#
# Static dielectric constant tensor:
#      x y z
#    x 3.504310 0.000000 0.000000 
#    y 0.000000 3.692290 0.000000 
#    z 0.000000 0.000000 3.411030 
# 
# 
# High freq. dielectric constant tensor:
#      x y z
#    x 1.754650 0.000000 0.000000 
#    y 0.000000 1.759140 0.000000 
#    z 0.000000 0.000000 1.745700 
# 
# From -- ./inp_files/67521.got.cif
#   From: 2010.03.12/outbox.cif.g09.slc.cpg/sg65_34_cif.got.tgz:67521.got - 2010.04.10 20:52:16.
