data_PCOD8273368
_publ_section_title
;
Structure prediction by ZEFSAII (Michael W. Deem and Ramdas Pophale) SiO2 
 PCOD8273368
Probable space group: C M M M
;
_chemical_formula_sum "Si O2"
_cell_formula_units_Z 88
_cell_length_a 8.736474
_cell_length_b 19.371176
_cell_length_c 28.341352
_cell_angle_alpha 90.000000
_cell_angle_beta 90.000000
_cell_angle_gamma 90.000000
_cell_volume 4796.370684
_symmetry_space_group_name_H-M "C M M M"
_symmetry_group_IT_number 65
_symmetry_cell_setting 'orthorhombic'
loop_
_space_group_symop_operation_xyz
x,y,z
-x,-y,z
x,-y,-z
-x,y,-z
-x,-y,-z
x,y,-z
-x,y,z
x,-y,z
1/2+x,1/2+y,z
1/2-x,1/2-y,z
1/2+x,1/2-y,-z
1/2-x,1/2+y,-z
1/2-x,1/2-y,-z
1/2+x,1/2+y,-z
1/2-x,1/2+y,z
1/2+x,1/2-y,z
loop_
_atom_site_type_symbol
_atom_site_label
_atom_site_fract_x
_atom_site_fract_y
_atom_site_fract_z
Si Si1 0.178003 0.080361 0.726672
Si Si2 0.321532 0.324492 0.000000
Si Si3 0.678713 0.322066 0.445235
Si Si4 0.180747 0.825881 0.899228
Si Si5 0.180075 0.674183 0.805319
Si Si6 0.675593 0.919554 0.628872
O O1 0.276054 0.124440 0.762934
O O2 0.227192 0.103163 0.674382
O O3 0.000000 0.096561 0.733676
O O4 0.215452 0.000000 0.734971
O O5 0.250000 0.250000 0.000000
O O6 0.279148 0.363004 0.950171
O O7 0.500000 0.310748 0.000000
O O8 0.713048 0.335480 0.500000
O O9 0.500000 0.321170 0.434087
O O10 0.750000 0.250000 0.428491
O O11 0.759463 0.382798 0.417071
O O12 0.250000 0.750000 0.901397
O O13 0.258294 0.861972 0.853883
O O14 0.000000 0.823165 0.890657
O O15 0.250000 0.750000 0.797516
O O16 0.000000 0.681957 0.808172
O O17 0.500000 0.898834 0.637525
O O18 0.694142 0.000000 0.619015
#
# Coordination Sequence:
#
# PCOD8273368 Si02
#       6
#    16   8  16  16  16  16
#     4  10  21  38  58  78 102 133 170 212 258 308
#     4   8  14  22  36  58  87 124 161 200 245 297
#     4  10  21  37  57  81 110 143 178 215 255 301
#     4   9  15  25  40  62  93 127 164 204 250 299
#     4  11  21  33  50  74 104 135 170 211 255 303
#     4  10  21  37  57  81 108 137 171 212 256 303
#
# _framework density 18.347207000000001
#
# number of rings (size 3 to 8) (size 9 to 14) (size 15 to 20)
#    0.000    2.182    0.000    4.909    0.000    5.091 
#    0.000    5.455    0.000    0.000    0.000    0.636 
#    0.000    5.091    0.000    0.000    0.000    0.000 
#
# Total GULP energy -545326.447655 kJ/mol
# GULP energy per Si atom -12393.782901 kJ/mol
# Density = 1.830545 g / cm^3
# Si number density = 18.347207 Si / 1000 Ang^3
#
#
#
# Elastic Constant Matrix: (Units=GPa)
#
#
# Indices 1 2 3 4 5 6 
#
# 1 108.6100 37.0327 48.2565 0.0000 0.0000 0.0000
# 2 37.0327 44.5775 51.4986 0.0000 0.0000 0.0000
# 3 48.2565 51.4986 119.7030 0.0000 0.0000 0.0000
# 4 0.0000 0.0000 0.0000 -1.8472 0.0000 0.0000
# 5 0.0000 0.0000 0.0000 0.0000 33.3094 0.0000
# 6 0.0000 0.0000 0.0000 0.0000 0.0000 25.7089
#
#
#
# Elastic Compliance Matrix: (Units=1/GPa)
#
#
# Indices 1 2 3 4 5 6 
#
# 1 0.012929 -0.009383 -0.001175 0.000000 0.000000 0.000000
# 2 -0.009383 0.051409 -0.018335 0.000000 0.000000 0.000000
# 3 -0.001175 -0.018335 0.016716 0.000000 0.000000 0.000000
# 4 0.000000 0.000000 0.000000 -0.541347 0.000000 0.000000
# 5 0.000000 0.000000 0.000000 0.000000 0.030022 0.000000
# 6 0.000000 0.000000 0.000000 0.000000 0.000000 0.038897
#
#
# Mechanical properties :
#
#
# Convention : Reuss Voigt Hill
#
# Bulk Modulus (GPa) = 42.97759 60.71843 51.84801
# Shear Modulus (GPa) = -15.34522 20.50772 2.58125
#
# Velocity S-wave (km/s) = -2.89516 3.34691 1.18741
# Velocity P-wave (km/s) = 3.50707 6.93554 5.49551
#
# Compressibility (1/GPa) = 0.02326794
#
# Stress axis : x y z
#
# Youngs Moduli (GPa) = 77.34743 19.45203 59.82385
#
# Poissons Ratio (x) = 0.18251 0.07032
# Poissons Ratio (y) = 0.72571 1.09684
# Poissons Ratio (z) = 0.09092 0.35664
#
# Static dielectric constant tensor:
#      x y z
#    x 3.354580 0.000000 0.000000 
#    y 0.000000 2.987730 0.000000 
#    z 0.000000 0.000000 4.027850 
# 
# 
# High freq. dielectric constant tensor:
#      x y z
#    x 1.729970 0.000000 0.000000 
#    y 0.000000 1.663320 0.000000 
#    z 0.000000 0.000000 1.736000 
# 
# From -- ./inp_files/76586.got.cif
#   From: 2010.03.12/outbox.cif.g09.slc.cpg/sg65_39_cif.got.tgz:76586.got - 2010.04.10 20:52:16.
