data_PCOD8273286
_publ_section_title
;
Structure prediction by ZEFSAII (Michael W. Deem and Ramdas Pophale) SiO2 
 PCOD8273286
Probable space group: C M M M
;
_chemical_formula_sum "Si O2"
_cell_formula_units_Z 104
_cell_length_a 32.517266
_cell_length_b 19.002533
_cell_length_c 9.291056
_cell_angle_alpha 90.000000
_cell_angle_beta 90.000000
_cell_angle_gamma 90.000000
_cell_volume 5741.040317
_symmetry_space_group_name_H-M "C M M M"
_symmetry_group_IT_number 65
_symmetry_cell_setting 'orthorhombic'
loop_
_space_group_symop_operation_xyz
x,y,z
-x,-y,z
x,-y,-z
-x,y,-z
-x,-y,-z
x,y,-z
-x,y,z
x,-y,z
1/2+x,1/2+y,z
1/2-x,1/2-y,z
1/2+x,1/2-y,-z
1/2-x,1/2+y,-z
1/2-x,1/2-y,-z
1/2+x,1/2+y,-z
1/2-x,1/2+y,z
1/2+x,1/2-y,z
loop_
_atom_site_type_symbol
_atom_site_label
_atom_site_fract_x
_atom_site_fract_y
_atom_site_fract_z
Si Si1 0.184215 0.416134 0.839043
Si Si2 0.240179 0.916602 0.341144
Si Si3 0.500000 0.421692 0.170619
Si Si4 0.952697 0.704633 0.333224
Si Si5 0.105514 0.579558 0.665554
Si Si6 0.647713 0.418477 0.668521
Si Si7 0.078688 0.835245 0.828451
O O1 0.185780 0.500000 0.837736
O O2 0.225519 0.385069 0.765828
O O3 0.143890 0.390060 0.755144
O O4 0.182186 0.386051 0.000000
O O5 0.248158 0.885111 0.500000
O O6 0.194295 0.897193 0.289389
O O7 0.244098 0.000000 0.349008
O O8 0.500000 0.500000 0.237086
O O9 0.459771 0.381525 0.225886
O O10 0.500000 0.425264 0.000000
O O11 0.948637 0.726658 0.500000
O O12 0.934462 0.627024 0.306391
O O13 0.926696 0.757744 0.235685
O O14 0.000000 0.703591 0.283444
O O15 0.119229 0.581757 0.500000
O O16 0.094136 0.500000 0.712591
O O17 0.639503 0.404476 0.500000
O O18 0.639150 0.500000 0.705437
O O19 0.619633 0.369852 0.767018
O O20 0.081417 0.830987 0.000000
#
# Coordination Sequence:
#
# PCOD8273286 Si02
#       7
#    16  16   8  16  16  16  16
#     4   9  16  26  44  73 106 135 165 205 250 298
#     4   8  14  26  45  69 100 137 171 205 249 301
#     4   9  18  32  49  71  98 129 168 212 253 293
#     4  10  21  37  56  76 101 133 170 213 258 309
#     4   9  18  33  54  79 104 132 167 207 255 309
#     4   9  18  32  50  75 106 138 175 218 260 301
#     4  11  21  34  52  73 102 139 175 213 257 309
#
# _framework density 18.115183999999999
#
# number of rings (size 3 to 8) (size 9 to 14) (size 15 to 20)
#    0.000    2.692    0.769    2.308    0.000    4.308 
#    0.000    3.077    0.000    2.769    0.000    9.692 
#    0.000    0.000    0.000    0.000    0.000    0.000 
#
# Total GULP energy -644742.745072 kJ/mol
# GULP energy per Si atom -12398.898944 kJ/mol
# Density = 1.807395 g / cm^3
# Si number density = 18.115184 Si / 1000 Ang^3
#
#
#
# Elastic Constant Matrix: (Units=GPa)
#
#
# Indices 1 2 3 4 5 6 
#
# 1 116.0167 44.1482 60.0910 0.0000 0.0000 0.0000
# 2 44.1482 71.6558 38.2987 0.0000 0.0000 0.0000
# 3 60.0910 38.2987 88.8664 0.0000 0.0000 0.0000
# 4 0.0000 0.0000 0.0000 18.9896 0.0000 0.0000
# 5 0.0000 0.0000 0.0000 0.0000 23.4364 0.0000
# 6 0.0000 0.0000 0.0000 0.0000 0.0000 6.8678
#
#
#
# Elastic Compliance Matrix: (Units=1/GPa)
#
#
# Indices 1 2 3 4 5 6 
#
# 1 0.014421 -0.004772 -0.007695 0.000000 0.000000 0.000000
# 2 -0.004772 0.019712 -0.005268 0.000000 0.000000 0.000000
# 3 -0.007695 -0.005268 0.018726 0.000000 0.000000 0.000000
# 4 0.000000 0.000000 0.000000 0.052661 0.000000 0.000000
# 5 0.000000 0.000000 0.000000 0.000000 0.042669 0.000000
# 6 0.000000 0.000000 0.000000 0.000000 0.000000 0.145608
#
#
# Mechanical properties :
#
#
# Convention : Reuss Voigt Hill
#
# Bulk Modulus (GPa) = 57.50840 62.40164 59.95502
# Shear Modulus (GPa) = 14.92261 18.79215 16.85738
#
# Velocity S-wave (km/s) = 2.87324 3.22432 3.05383
# Velocity P-wave (km/s) = 6.54387 6.95583 6.75299
#
# Compressibility (1/GPa) = 0.01738876
#
# Stress axis : x y z
#
# Youngs Moduli (GPa) = 69.34381 50.73157 53.40093
#
# Poissons Ratio (x) = 0.24211 0.41090
# Poissons Ratio (y) = 0.33093 0.28132
# Poissons Ratio (z) = 0.53357 0.26726
#
# Static dielectric constant tensor:
#      x y z
#    x 3.464260 0.000000 0.000000 
#    y 0.000000 3.050170 0.000000 
#    z 0.000000 0.000000 3.362080 
# 
# 
# High freq. dielectric constant tensor:
#      x y z
#    x 1.710990 0.000000 0.000000 
#    y 0.000000 1.665670 0.000000 
#    z 0.000000 0.000000 1.695250 
# 
# From -- ./inp_files/18656.got.cif
#   From: 2010.03.12/outbox.cif.g09.slc.cpg/sg65_10_cif.got.tgz:18656.got - 2010.04.10 20:52:16.
