data_PCOD8273520
_publ_section_title
;
Structure prediction by ZEFSAII (Michael W. Deem and Ramdas Pophale) SiO2 
 PCOD8273520
Probable space group: C M M M
;
_chemical_formula_sum "Si O2"
_cell_formula_units_Z 72
_cell_length_a 23.533941
_cell_length_b 19.593081
_cell_length_c 7.427468
_cell_angle_alpha 90.000000
_cell_angle_beta 90.000000
_cell_angle_gamma 90.000000
_cell_volume 3424.823412
_symmetry_space_group_name_H-M "C M M M"
_symmetry_group_IT_number 65
_symmetry_cell_setting 'orthorhombic'
loop_
_space_group_symop_operation_xyz
x,y,z
-x,-y,z
x,-y,-z
-x,y,-z
-x,-y,-z
x,y,-z
-x,y,z
x,-y,z
1/2+x,1/2+y,z
1/2-x,1/2-y,z
1/2+x,1/2-y,-z
1/2-x,1/2+y,-z
1/2-x,1/2-y,-z
1/2+x,1/2+y,-z
1/2-x,1/2+y,z
1/2+x,1/2-y,z
loop_
_atom_site_type_symbol
_atom_site_label
_atom_site_fract_x
_atom_site_fract_y
_atom_site_fract_z
Si Si1 0.151245 0.077483 0.293141
Si Si2 0.064424 0.724082 0.000000
Si Si3 0.623476 0.137384 0.711275
Si Si4 0.563901 0.000000 0.713245
Si Si5 0.064763 0.885062 0.000000
Si Si6 0.249049 0.673681 0.711344
O O1 0.136958 0.095488 0.500000
O O2 0.094194 0.085942 0.178864
O O3 0.199829 0.127452 0.211818
O O4 0.173802 0.000000 0.277041
O O5 0.094241 0.698549 0.181874
O O6 0.068457 0.804385 0.000000
O O7 0.000000 0.697824 0.000000
O O8 0.612286 0.149820 0.500000
O O9 0.597277 0.066436 0.781628
O O10 0.690092 0.136473 0.757754
O O11 0.500000 0.000000 0.792508
O O12 0.562077 0.000000 0.500000
O O13 0.000000 0.910769 0.000000
O O14 0.257591 0.679645 0.500000
O O15 0.250000 0.750000 0.796508
#
# Coordination Sequence:
#
# PCOD8273520 Si02
#       6
#    16   8  16   8   8  16
#     4  10  22  40  64  92 123 157 195 245 304 364
#     4  11  24  39  58  85 115 158 211 254 300 355
#     4  10  21  37  59  86 121 159 201 252 304 364
#     4   9  18  33  55  83 116 159 201 239 294 355
#     4  11  25  43  62  87 119 156 203 253 302 362
#     4   9  18  34  59  89 120 155 195 242 301 362
#
# _framework density 21.022981000000001
#
# number of rings (size 3 to 8) (size 9 to 14) (size 15 to 20)
#    0.000    2.111    0.000    2.333    1.556    6.667 
#    0.000    6.667    0.000    0.000    0.000    0.000 
#    0.000    0.000    0.000    0.000    0.000    0.000 
#
# Total GULP energy -446455.871116 kJ/mol
# GULP energy per Si atom -12401.551975 kJ/mol
# Density = 2.097513 g / cm^3
# Si number density = 21.022981 Si / 1000 Ang^3
#
#
#
# Elastic Constant Matrix: (Units=GPa)
#
#
# Indices 1 2 3 4 5 6 
#
# 1 170.3056 69.4198 46.7406 0.0000 0.0000 0.0000
# 2 69.4198 123.8513 26.1442 0.0000 0.0000 0.0000
# 3 46.7406 26.1442 85.0234 0.0000 0.0000 0.0000
# 4 0.0000 0.0000 0.0000 22.4305 0.0000 0.0000
# 5 0.0000 0.0000 0.0000 0.0000 18.3810 0.0000
# 6 0.0000 0.0000 0.0000 0.0000 0.0000 42.3423
#
#
#
# Elastic Compliance Matrix: (Units=1/GPa)
#
#
# Indices 1 2 3 4 5 6 
#
# 1 0.008443 -0.004013 -0.003407 0.000000 0.000000 0.000000
# 2 -0.004013 0.010542 -0.001036 0.000000 0.000000 0.000000
# 3 -0.003407 -0.001036 0.013953 0.000000 0.000000 0.000000
# 4 0.000000 0.000000 0.000000 0.044582 0.000000 0.000000
# 5 0.000000 0.000000 0.000000 0.000000 0.054404 0.000000
# 6 0.000000 0.000000 0.000000 0.000000 0.000000 0.023617
#
#
# Mechanical properties :
#
#
# Convention : Reuss Voigt Hill
#
# Bulk Modulus (GPa) = 62.39792 73.75439 68.07615
# Shear Modulus (GPa) = 28.12231 32.42247 30.27239
#
# Velocity S-wave (km/s) = 3.66142 3.93140 3.79881
# Velocity P-wave (km/s) = 6.90072 7.46771 7.18981
#
# Compressibility (1/GPa) = 0.01602618
#
# Stress axis : x y z
#
# Youngs Moduli (GPa) = 118.44557 94.85779 71.66904
#
# Poissons Ratio (x) = 0.38066 0.24420
# Poissons Ratio (y) = 0.47532 0.07422
# Poissons Ratio (z) = 0.40358 0.09823
#
# Static dielectric constant tensor:
#      x y z
#    x 3.992180 0.000000 0.000000 
#    y 0.000000 3.994400 0.000000 
#    z 0.000000 0.000000 3.575510 
# 
# 
# High freq. dielectric constant tensor:
#      x y z
#    x 1.826730 0.000000 0.000000 
#    y 0.000000 1.832960 0.000000 
#    z 0.000000 0.000000 1.815440 
# 
# From -- ./inp_files/11302.got.cif
#   From: 2010.03.12/outbox.cif.g09.slc.cpg/sg65_6_cif.got.tgz:11302.got - 2010.04.10 20:52:16.
