data_PCOD8273848
_publ_section_title
;
Structure prediction by ZEFSAII (Michael W. Deem and Ramdas Pophale) SiO2 
 PCOD8273848
Probable space group: C M M M
;
_chemical_formula_sum "Si O2"
_cell_formula_units_Z 84
_cell_length_a 15.478647
_cell_length_b 23.235417
_cell_length_c 11.417903
_cell_angle_alpha 90.000000
_cell_angle_beta 90.000000
_cell_angle_gamma 90.000000
_cell_volume 4106.480985
_symmetry_space_group_name_H-M "C M M M"
_symmetry_group_IT_number 65
_symmetry_cell_setting 'orthorhombic'
loop_
_space_group_symop_operation_xyz
x,y,z
-x,-y,z
x,-y,-z
-x,y,-z
-x,-y,-z
x,y,-z
-x,y,z
x,-y,z
1/2+x,1/2+y,z
1/2-x,1/2-y,z
1/2+x,1/2-y,-z
1/2-x,1/2+y,-z
1/2-x,1/2-y,-z
1/2+x,1/2+y,-z
1/2-x,1/2+y,z
1/2+x,1/2-y,z
loop_
_atom_site_type_symbol
_atom_site_label
_atom_site_fract_x
_atom_site_fract_y
_atom_site_fract_z
Si Si1 0.370733 0.128633 0.367018
Si Si2 0.500000 0.933234 0.213772
Si Si3 0.900133 0.936620 0.867947
Si Si4 0.595900 0.741330 0.365807
Si Si5 0.787651 0.843927 0.765712
Si Si6 0.000000 0.346267 0.000000
Si Si7 0.196876 0.309039 0.000000
O O1 0.385667 0.110599 0.500000
O O2 0.414916 0.079282 0.289925
O O3 0.411290 0.191068 0.339655
O O4 0.269454 0.132717 0.340645
O O5 0.500000 0.889313 0.107452
O O6 0.500000 0.000000 0.173102
O O7 0.860411 0.891582 0.779392
O O8 0.000000 0.940318 0.839248
O O9 0.858667 0.000000 0.851087
O O10 0.884204 0.914853 0.000000
O O11 0.626498 0.730354 0.500000
O O12 0.500000 0.715119 0.345721
O O13 0.664776 0.715105 0.273692
O O14 0.728376 0.840283 0.881777
O O15 0.089909 0.307310 0.000000
O O16 0.250000 0.250000 0.000000
#
# Coordination Sequence:
#
# PCOD8273848 Si02
#       7
#    16   8  16  16  16   4   8
#     4  11  23  41  64  91 125 165 214 274 326 377
#     4  12  26  46  71  93 126 178 224 271 322 392
#     4   9  19  38  60  85 121 163 210 267 326 387
#     4  10  21  39  65  93 129 175 216 265 333 404
#     4  12  22  38  61  97 128 164 218 265 332 405
#     4  12  27  54  68  98 144 180 219 272 340 414
#     4  12  26  43  65  99 136 175 212 267 345 405
#
# _framework density 20.455470999999999
#
# number of rings (size 3 to 8) (size 9 to 14) (size 15 to 20)
#    0.000    1.143    3.810    3.857    0.000    3.048 
#    1.714    0.000    0.000    1.714    0.000    6.667 
#    0.000    0.000    0.000    0.000    0.000    0.000 
#
# Total GULP energy -520616.837515 kJ/mol
# GULP energy per Si atom -12395.638988 kJ/mol
# Density = 2.040891 g / cm^3
# Si number density = 20.455471 Si / 1000 Ang^3
#
#
#
# Elastic Constant Matrix: (Units=GPa)
#
#
# Indices 1 2 3 4 5 6 
#
# 1 97.3456 39.3879 41.0662 0.0000 0.0000 0.0000
# 2 39.3879 75.9829 28.0449 0.0000 0.0000 0.0000
# 3 41.0662 28.0449 82.1187 0.0000 0.0000 0.0000
# 4 0.0000 0.0000 0.0000 18.3183 0.0000 0.0000
# 5 0.0000 0.0000 0.0000 0.0000 37.5464 0.0000
# 6 0.0000 0.0000 0.0000 0.0000 0.0000 12.1021
#
#
#
# Elastic Compliance Matrix: (Units=1/GPa)
#
#
# Indices 1 2 3 4 5 6 
#
# 1 0.014898 -0.005690 -0.005507 0.000000 0.000000 0.000000
# 2 -0.005690 0.017232 -0.003040 0.000000 0.000000 0.000000
# 3 -0.005507 -0.003040 0.015970 0.000000 0.000000 0.000000
# 4 0.000000 0.000000 0.000000 0.054590 0.000000 0.000000
# 5 0.000000 0.000000 0.000000 0.000000 0.026634 0.000000
# 6 0.000000 0.000000 0.000000 0.000000 0.000000 0.082630
#
#
# Mechanical properties :
#
#
# Convention : Reuss Voigt Hill
#
# Bulk Modulus (GPa) = 50.95159 52.49390 51.72275
# Shear Modulus (GPa) = 20.24532 23.38990 21.81761
#
# Velocity S-wave (km/s) = 3.14940 3.38517 3.26941
# Velocity P-wave (km/s) = 6.17961 6.40292 6.29226
#
# Compressibility (1/GPa) = 0.01962647
#
# Stress axis : x y z
#
# Youngs Moduli (GPa) = 67.12175 58.03001 62.61929
#
# Poissons Ratio (x) = 0.33021 0.34485
# Poissons Ratio (y) = 0.38195 0.19033
# Poissons Ratio (z) = 0.36964 0.17638
#
# Static dielectric constant tensor:
#      x y z
#    x 3.833260 0.000000 0.000000 
#    y 0.000000 3.509000 0.000000 
#    z 0.000000 0.000000 3.866980 
# 
# 
# High freq. dielectric constant tensor:
#      x y z
#    x 1.810710 0.000000 0.000000 
#    y 0.000000 1.777140 0.000000 
#    z 0.000000 0.000000 1.801240 
# 
# From -- ./inp_files/24861.got.cif
#   From: 2010.03.12/outbox.cif.g09.slc.cpg/sg65_13_cif.got.tgz:24861.got - 2010.04.10 20:52:16.
