data_PCOD8273263
_publ_section_title
;
Structure prediction by ZEFSAII (Michael W. Deem and Ramdas Pophale) SiO2 
 PCOD8273263
Probable space group: C M M M
;
_chemical_formula_sum "Si O2"
_cell_formula_units_Z 72
_cell_length_a 18.372573
_cell_length_b 8.916944
_cell_length_c 23.151294
_cell_angle_alpha 90.000000
_cell_angle_beta 90.000000
_cell_angle_gamma 90.000000
_cell_volume 3792.811778
_symmetry_space_group_name_H-M "C M M M"
_symmetry_group_IT_number 65
_symmetry_cell_setting 'orthorhombic'
loop_
_space_group_symop_operation_xyz
x,y,z
-x,-y,z
x,-y,-z
-x,y,-z
-x,-y,-z
x,y,-z
-x,y,z
x,-y,z
1/2+x,1/2+y,z
1/2-x,1/2-y,z
1/2+x,1/2-y,-z
1/2-x,1/2+y,-z
1/2-x,1/2-y,-z
1/2+x,1/2+y,-z
1/2-x,1/2+y,z
1/2+x,1/2-y,z
loop_
_atom_site_type_symbol
_atom_site_label
_atom_site_fract_x
_atom_site_fract_y
_atom_site_fract_z
Si Si1 0.826957 0.325172 0.500000
Si Si2 0.583259 0.172894 0.932985
Si Si3 0.828003 0.176728 0.836359
Si Si4 0.415169 0.174765 0.735128
Si Si5 0.671789 0.823656 0.375586
O O1 0.813269 0.500000 0.500000
O O2 0.750000 0.250000 0.500000
O O3 0.864562 0.280246 0.561390
O O4 0.500000 0.216344 0.918535
O O5 0.637995 0.276501 0.897581
O O6 0.596817 0.000000 0.916352
O O7 0.599765 0.200305 0.000000
O O8 0.750000 0.250000 0.827105
O O9 0.881226 0.228509 0.785919
O O10 0.818515 0.000000 0.834682
O O11 0.500000 0.208152 0.733342
O O12 0.382554 0.230810 0.674201
O O13 0.398768 0.000000 0.746416
O O14 0.750000 0.750000 0.366241
O O15 0.683898 0.000000 0.371302
#
# Coordination Sequence:
#
# PCOD8273263 Si02
#       5
#     8  16  16  16  16
#     4   8  14  26  45  71 101 131 169 214 259 310
#     4   9  19  38  63  88 115 147 179 213 259 314
#     4  12  25  39  57  81 109 142 181 225 270 315
#     4  10  21  37  55  76 106 142 178 219 270 324
#     4   9  17  30  50  75 102 135 174 217 264 313
#
# _framework density 18.983277999999999
#
# number of rings (size 3 to 8) (size 9 to 14) (size 15 to 20)
#    0.000    2.222    0.000    4.000    0.000    7.111 
#    0.000    1.667    0.000    3.333    0.000    0.000 
#    0.000   10.667    0.000    0.000    0.000    0.000 
#
# Total GULP energy -446229.548639 kJ/mol
# GULP energy per Si atom -12395.265240 kJ/mol
# Density = 1.894007 g / cm^3
# Si number density = 18.983278 Si / 1000 Ang^3
#
#
#
# Elastic Constant Matrix: (Units=GPa)
#
#
# Indices 1 2 3 4 5 6 
#
# 1 96.0310 44.6359 58.2098 0.0000 0.0000 0.0000
# 2 44.6359 76.6035 48.6010 0.0000 0.0000 0.0000
# 3 58.2098 48.6010 134.2558 0.0000 0.0000 0.0000
# 4 0.0000 0.0000 0.0000 -43.9148 0.0000 0.0000
# 5 0.0000 0.0000 0.0000 0.0000 10.8294 0.0000
# 6 0.0000 0.0000 0.0000 0.0000 0.0000 27.6372
#
#
#
# Elastic Compliance Matrix: (Units=1/GPa)
#
#
# Indices 1 2 3 4 5 6 
#
# 1 0.016291 -0.006505 -0.004708 0.000000 0.000000 0.000000
# 2 -0.006505 0.019544 -0.004254 0.000000 0.000000 0.000000
# 3 -0.004708 -0.004254 0.011030 0.000000 0.000000 0.000000
# 4 0.000000 0.000000 0.000000 -0.022771 0.000000 0.000000
# 5 0.000000 0.000000 0.000000 0.000000 0.092341 0.000000
# 6 0.000000 0.000000 0.000000 0.000000 0.000000 0.036183
#
#
# Mechanical properties :
#
#
# Convention : Reuss Voigt Hill
#
# Bulk Modulus (GPa) = 62.77973 67.75375 65.26674
# Shear Modulus (GPa) = 26.47409 9.27329 17.87369
#
# Velocity S-wave (km/s) = 3.73849 2.21260 3.07180
# Velocity P-wave (km/s) = 7.19569 6.50355 6.85836
#
# Compressibility (1/GPa) = 0.01592871
#
# Stress axis : x y z
#
# Youngs Moduli (GPa) = 61.38330 51.16646 90.66146
#
# Poissons Ratio (x) = 0.33286 0.42687
# Poissons Ratio (y) = 0.39932 0.38572
# Poissons Ratio (z) = 0.28902 0.21769
#
# Static dielectric constant tensor:
#      x y z
#    x 3.339230 0.000000 0.000000 
#    y 0.000000 3.368020 0.000000 
#    z 0.000000 0.000000 4.061280 
# 
# 
# High freq. dielectric constant tensor:
#      x y z
#    x 1.720590 0.000000 0.000000 
#    y 0.000000 1.727420 0.000000 
#    z 0.000000 0.000000 1.764800 
# 
# From -- ./inp_files/70344.got.cif
#   From: 2010.03.12/outbox.cif.g09.slc.cpg/sg65_36_cif.got.tgz:70344.got - 2010.04.10 20:52:16.
