data_PCOD8273379
_publ_section_title
;
Structure prediction by ZEFSAII (Michael W. Deem and Ramdas Pophale) SiO2 
 PCOD8273379
Probable space group: C M M M
;
_chemical_formula_sum "Si O2"
_cell_formula_units_Z 72
_cell_length_a 14.351783
_cell_length_b 8.978600
_cell_length_c 30.333985
_cell_angle_alpha 90.000000
_cell_angle_beta 90.000000
_cell_angle_gamma 90.000000
_cell_volume 3908.804511
_symmetry_space_group_name_H-M "C M M M"
_symmetry_group_IT_number 65
_symmetry_cell_setting 'orthorhombic'
loop_
_space_group_symop_operation_xyz
x,y,z
-x,-y,z
x,-y,-z
-x,y,-z
-x,-y,-z
x,y,-z
-x,y,z
x,-y,z
1/2+x,1/2+y,z
1/2-x,1/2-y,z
1/2+x,1/2-y,-z
1/2-x,1/2+y,-z
1/2-x,1/2-y,-z
1/2+x,1/2+y,-z
1/2-x,1/2+y,z
1/2+x,1/2-y,z
loop_
_atom_site_type_symbol
_atom_site_label
_atom_site_fract_x
_atom_site_fract_y
_atom_site_fract_z
Si Si1 0.500000 0.175571 0.931263
Si Si2 0.349901 0.176225 0.000000
Si Si3 0.500000 0.170828 0.395604
Si Si4 0.000000 0.327914 0.291544
Si Si5 0.649735 0.675172 0.766103
Si Si6 0.000000 0.169554 0.160991
Si Si7 0.152124 0.828596 0.549207
O O1 0.592745 0.230168 0.956850
O O2 0.500000 0.229025 0.881553
O O3 0.500000 0.000000 0.931311
O O4 0.250000 0.250000 0.000000
O O5 0.336984 0.000000 0.000000
O O6 0.500000 0.188100 0.343583
O O7 0.409937 0.250114 0.414584
O O8 0.500000 0.000000 0.410542
O O9 0.093344 0.248496 0.274088
O O10 0.000000 0.500000 0.276508
O O11 0.660524 0.500000 0.756676
O O12 0.750000 0.750000 0.770901
O O13 0.592367 0.704567 0.810829
O O14 0.000000 0.000000 0.145190
O O15 0.108731 0.813714 0.500000
O O16 0.250000 0.750000 0.550665
O O17 0.163712 0.000000 0.562433
#
# Coordination Sequence:
#
# PCOD8273379 Si02
#       7
#     8   8   8   8  16   8  16
#     4   9  19  35  53  74 106 143 177 218 267 316
#     4   9  19  35  52  74 104 141 183 221 262 314
#     4  11  23  37  56  82 110 142 179 219 266 319
#     4  10  22  39  57  80 109 141 179 221 266 319
#     4  10  21  38  59  82 109 142 178 220 270 323
#     4   9  20  36  54  81 111 137 176 223 266 318
#     4  10  21  37  57  81 109 142 180 221 265 314
#
# _framework density 18.419955000000002
#
# number of rings (size 3 to 8) (size 9 to 14) (size 15 to 20)
#    0.000    2.222    0.000    3.667    0.000    9.778 
#    0.000    5.556    0.000    0.000    0.000    0.000 
#    0.000    0.000    0.000    0.000    0.000    0.000 
#
# Total GULP energy -446414.765311 kJ/mol
# GULP energy per Si atom -12400.410148 kJ/mol
# Density = 1.837803 g / cm^3
# Si number density = 18.419955 Si / 1000 Ang^3
#
#
#
# Elastic Constant Matrix: (Units=GPa)
#
#
# Indices 1 2 3 4 5 6 
#
# 1 150.9466 69.1664 55.0954 0.0000 0.0000 0.0000
# 2 69.1664 126.8898 62.4172 0.0000 0.0000 0.0000
# 3 55.0954 62.4172 98.2735 0.0000 0.0000 0.0000
# 4 0.0000 0.0000 0.0000 34.4901 0.0000 0.0000
# 5 0.0000 0.0000 0.0000 0.0000 18.3077 0.0000
# 6 0.0000 0.0000 0.0000 0.0000 0.0000 39.7403
#
#
#
# Elastic Compliance Matrix: (Units=1/GPa)
#
#
# Indices 1 2 3 4 5 6 
#
# 1 0.009374 -0.003672 -0.002923 0.000000 0.000000 0.000000
# 2 -0.003672 0.012900 -0.006135 0.000000 0.000000 0.000000
# 3 -0.002923 -0.006135 0.015711 0.000000 0.000000 0.000000
# 4 0.000000 0.000000 0.000000 0.028994 0.000000 0.000000
# 5 0.000000 0.000000 0.000000 0.000000 0.054622 0.000000
# 6 0.000000 0.000000 0.000000 0.000000 0.000000 0.025163
#
#
# Mechanical properties :
#
#
# Convention : Reuss Voigt Hill
#
# Bulk Modulus (GPa) = 79.83774 83.27423 81.55598
# Shear Modulus (GPa) = 28.34471 31.13635 29.74053
#
# Velocity S-wave (km/s) = 3.92702 4.11586 4.02255
# Velocity P-wave (km/s) = 7.99994 8.23978 8.12075
#
# Compressibility (1/GPa) = 0.01252540
#
# Stress axis : x y z
#
# Youngs Moduli (GPa) = 106.67311 77.51927 63.64933
#
# Poissons Ratio (x) = 0.28464 0.18608
# Poissons Ratio (y) = 0.39169 0.39047
# Poissons Ratio (z) = 0.31186 0.47556
#
# Static dielectric constant tensor:
#      x y z
#    x 3.451120 0.000000 0.000000 
#    y 0.000000 3.523620 0.000000 
#    z 0.000000 0.000000 3.409270 
# 
# 
# High freq. dielectric constant tensor:
#      x y z
#    x 1.722110 0.000000 0.000000 
#    y 0.000000 1.726700 0.000000 
#    z 0.000000 0.000000 1.712880 
# 
# From -- ./inp_files/77579.got.cif
#   From: 2010.03.12/outbox.cif.g09.slc.cpg/sg65_39_cif.got.tgz:77579.got - 2010.04.10 20:52:16.
