data_PCOD8273574
_publ_section_title
;
Structure prediction by ZEFSAII (Michael W. Deem and Ramdas Pophale) SiO2 
 PCOD8273574
Probable space group: C M M M
;
_chemical_formula_sum "Si O2"
_cell_formula_units_Z 72
_cell_length_a 31.323949
_cell_length_b 8.144751
_cell_length_c 14.472484
_cell_angle_alpha 90.000000
_cell_angle_beta 90.000000
_cell_angle_gamma 90.000000
_cell_volume 3692.303551
_symmetry_space_group_name_H-M "C M M M"
_symmetry_group_IT_number 65
_symmetry_cell_setting 'orthorhombic'
loop_
_space_group_symop_operation_xyz
x,y,z
-x,-y,z
x,-y,-z
-x,y,-z
-x,-y,-z
x,y,-z
-x,y,z
x,-y,z
1/2+x,1/2+y,z
1/2-x,1/2-y,z
1/2+x,1/2-y,-z
1/2-x,1/2+y,-z
1/2-x,1/2-y,-z
1/2+x,1/2+y,-z
1/2-x,1/2+y,z
1/2+x,1/2-y,z
loop_
_atom_site_type_symbol
_atom_site_label
_atom_site_fract_x
_atom_site_fract_y
_atom_site_fract_z
Si Si1 0.451514 0.306717 0.605649
Si Si2 0.295420 0.691005 0.392765
Si Si3 0.599898 0.316089 0.895953
Si Si4 0.454018 0.000000 0.108352
Si Si5 0.627338 0.813791 0.722219
O O1 0.442815 0.252924 0.500000
O O2 0.500000 0.256946 0.633709
O O3 0.445239 0.500000 0.615846
O O4 0.417393 0.220459 0.671289
O O5 0.297825 0.736178 0.500000
O O6 0.301796 0.500000 0.374443
O O7 0.250000 0.750000 0.352198
O O8 0.333177 0.788952 0.345006
O O9 0.579480 0.500000 0.892932
O O10 0.634940 0.300258 0.814222
O O11 0.567562 0.172750 0.864098
O O12 0.618042 0.283707 0.000000
O O13 0.500000 0.000000 0.157178
O O14 0.458968 0.000000 0.000000
O O15 0.626443 0.000000 0.756677
#
# Coordination Sequence:
#
# PCOD8273574 Si02
#       5
#    16  16  16   8  16
#     4   9  19  36  55  76 107 148 193 239 284 335
#     4  10  21  38  60  87 119 151 188 237 291 348
#     4  10  21  38  58  80 110 150 195 244 299 350
#     4   9  18  34  54  78 109 143 189 245 294 346
#     4  12  23  35  56  84 115 152 194 238 288 350
#
# _framework density 19.500022999999999
#
# number of rings (size 3 to 8) (size 9 to 14) (size 15 to 20)
#    0.000    1.889    1.111    4.000    0.000    6.222 
#    0.000    3.333    0.000    0.667    0.000    0.000 
#    0.000    0.000    0.000    0.000    0.000    0.000 
#
# Total GULP energy -446096.158021 kJ/mol
# GULP energy per Si atom -12391.559945 kJ/mol
# Density = 1.945564 g / cm^3
# Si number density = 19.500023 Si / 1000 Ang^3
#
#
#
# Elastic Constant Matrix: (Units=GPa)
#
#
# Indices 1 2 3 4 5 6 
#
# 1 106.0133 36.9042 48.6462 0.0000 0.0000 0.0000
# 2 36.9042 116.2709 41.5078 0.0000 0.0000 0.0000
# 3 48.6462 41.5078 99.2644 0.0000 0.0000 0.0000
# 4 0.0000 0.0000 0.0000 28.4780 0.0000 0.0000
# 5 0.0000 0.0000 0.0000 0.0000 10.1689 0.0000
# 6 0.0000 0.0000 0.0000 0.0000 0.0000 26.3325
#
#
#
# Elastic Compliance Matrix: (Units=1/GPa)
#
#
# Indices 1 2 3 4 5 6 
#
# 1 0.012594 -0.002109 -0.005290 0.000000 0.000000 0.000000
# 2 -0.002109 0.010463 -0.003342 0.000000 0.000000 0.000000
# 3 -0.005290 -0.003342 0.014064 0.000000 0.000000 0.000000
# 4 0.000000 0.000000 0.000000 0.035115 0.000000 0.000000
# 5 0.000000 0.000000 0.000000 0.000000 0.098339 0.000000
# 6 0.000000 0.000000 0.000000 0.000000 0.000000 0.037976
#
#
# Mechanical properties :
#
#
# Convention : Reuss Voigt Hill
#
# Bulk Modulus (GPa) = 63.93940 63.96276 63.95108
# Shear Modulus (GPa) = 21.25436 25.96189 23.60813
#
# Velocity S-wave (km/s) = 3.30505 3.65276 3.48325
# Velocity P-wave (km/s) = 6.88658 7.11778 7.00314
#
# Compressibility (1/GPa) = 0.01563981
#
# Stress axis : x y z
#
# Youngs Moduli (GPa) = 79.40007 95.57589 71.10344
#
# Poissons Ratio (x) = 0.20156 0.37616
# Poissons Ratio (y) = 0.16744 0.23760
# Poissons Ratio (z) = 0.42005 0.31938
#
# Static dielectric constant tensor:
#      x y z
#    x 3.592590 0.000000 0.000000 
#    y 0.000000 3.642480 0.000000 
#    z 0.000000 0.000000 3.731380 
# 
# 
# High freq. dielectric constant tensor:
#      x y z
#    x 1.727360 0.000000 0.000000 
#    y 0.000000 1.774300 0.000000 
#    z 0.000000 0.000000 1.767230 
# 
# From -- ./inp_files/47445.got.cif
#   From: 2010.03.12/outbox.cif.g09.slc.cpg/sg65_24_cif.got.tgz:47445.got - 2010.04.10 20:52:16.
