data_PCOD8273477
_publ_section_title
;
Structure prediction by ZEFSAII (Michael W. Deem and Ramdas Pophale) SiO2 
 PCOD8273477
Probable space group: C M M M
;
_chemical_formula_sum "Si O2"
_cell_formula_units_Z 64
_cell_length_a 25.751326
_cell_length_b 14.800238
_cell_length_c 8.091454
_cell_angle_alpha 90.000000
_cell_angle_beta 90.000000
_cell_angle_gamma 90.000000
_cell_volume 3083.861504
_symmetry_space_group_name_H-M "C M M M"
_symmetry_group_IT_number 65
_symmetry_cell_setting 'orthorhombic'
loop_
_space_group_symop_operation_xyz
x,y,z
-x,-y,z
x,-y,-z
-x,y,-z
-x,-y,-z
x,y,-z
-x,y,z
x,-y,z
1/2+x,1/2+y,z
1/2-x,1/2-y,z
1/2+x,1/2-y,-z
1/2-x,1/2+y,-z
1/2-x,1/2-y,-z
1/2+x,1/2+y,-z
1/2-x,1/2+y,z
1/2+x,1/2-y,z
loop_
_atom_site_type_symbol
_atom_site_label
_atom_site_fract_x
_atom_site_fract_y
_atom_site_fract_z
Si Si1 0.056724 0.392571 0.500000
Si Si2 0.000000 0.893510 0.188426
Si Si3 0.310308 0.753696 0.305923
Si Si4 0.389193 0.399056 0.693283
Si Si5 0.380755 0.895917 0.815862
O O1 0.054924 0.500000 0.500000
O O2 0.082392 0.357805 0.329857
O O3 0.000000 0.349684 0.500000
O O4 0.053812 0.856427 0.267167
O O5 0.000000 0.000000 0.216039
O O6 0.000000 0.863571 0.000000
O O7 0.320197 0.769319 0.500000
O O8 0.250000 0.750000 0.264694
O O9 0.342915 0.666175 0.241887
O O10 0.327926 0.840388 0.200971
O O11 0.383439 0.408262 0.500000
O O12 0.383035 0.500000 0.773196
O O13 0.367281 0.000000 0.784770
O O14 0.405285 0.882726 0.000000
#
# Coordination Sequence:
#
# PCOD8273477 Si02
#       5
#     8   8  16  16  16
#     4   9  18  36  61  86 115 151 192 242 292 342
#     4   9  17  31  53  79 108 143 182 227 281 340
#     4  10  21  37  58  84 115 153 196 242 292 346
#     4   9  18  34  55  81 112 146 186 231 282 341
#     4  10  21  38  60  86 117 154 195 239 292 350
#
# _framework density 20.753202000000002
#
# number of rings (size 3 to 8) (size 9 to 14) (size 15 to 20)
#    0.000    2.500    1.250    0.375    0.000    4.500 
#    2.250    5.000    0.000    3.000    0.000    0.000 
#    0.000    0.000    0.000    0.000    0.000    0.000 
#
# Total GULP energy -396548.441427 kJ/mol
# GULP energy per Si atom -12392.138795 kJ/mol
# Density = 2.070597 g / cm^3
# Si number density = 20.753202 Si / 1000 Ang^3
#
#
#
# Elastic Constant Matrix: (Units=GPa)
#
#
# Indices 1 2 3 4 5 6 
#
# 1 172.5842 70.4913 52.7704 0.0000 0.0000 0.0000
# 2 70.4913 77.4560 33.6508 0.0000 0.0000 0.0000
# 3 52.7704 33.6508 100.9128 0.0000 0.0000 0.0000
# 4 0.0000 0.0000 0.0000 19.2985 0.0000 0.0000
# 5 0.0000 0.0000 0.0000 0.0000 7.7462 0.0000
# 6 0.0000 0.0000 0.0000 0.0000 0.0000 31.3115
#
#
#
# Elastic Compliance Matrix: (Units=1/GPa)
#
#
# Indices 1 2 3 4 5 6 
#
# 1 0.009733 -0.007772 -0.002498 0.000000 0.000000 0.000000
# 2 -0.007772 0.021305 -0.003040 0.000000 0.000000 0.000000
# 3 -0.002498 -0.003040 0.012229 0.000000 0.000000 0.000000
# 4 0.000000 0.000000 0.000000 0.051817 0.000000 0.000000
# 5 0.000000 0.000000 0.000000 0.000000 0.129096 0.000000
# 6 0.000000 0.000000 0.000000 0.000000 0.000000 0.031937
#
#
# Mechanical properties :
#
#
# Convention : Reuss Voigt Hill
#
# Bulk Modulus (GPa) = 60.07184 73.86423 66.96804
# Shear Modulus (GPa) = 17.34389 24.60727 20.97558
#
# Velocity S-wave (km/s) = 2.89402 3.44715 3.18262
# Velocity P-wave (km/s) = 6.33844 7.17724 6.77084
#
# Compressibility (1/GPa) = 0.01664673
#
# Stress axis : x y z
#
# Youngs Moduli (GPa) = 102.74828 46.93808 81.77027
#
# Poissons Ratio (x) = 0.36482 0.20423
# Poissons Ratio (y) = 0.79859 0.24858
# Poissons Ratio (z) = 0.25663 0.14269
#
# Static dielectric constant tensor:
#      x y z
#    x 3.806850 0.000000 0.000000 
#    y 0.000000 3.815470 0.000000 
#    z 0.000000 0.000000 3.722890 
# 
# 
# High freq. dielectric constant tensor:
#      x y z
#    x 1.802010 0.000000 0.000000 
#    y 0.000000 1.804040 0.000000 
#    z 0.000000 0.000000 1.805830 
# 
# From -- ./inp_files/13361.got.cif
#   From: 2010.03.12/outbox.cif.g09.slc.cpg/sg65_7_cif.got.tgz:13361.got - 2010.04.10 20:52:16.
