data_PCOD8273383
_publ_section_title
;
Structure prediction by ZEFSAII (Michael W. Deem and Ramdas Pophale) SiO2 
 PCOD8273383
Probable space group: C M M M
;
_chemical_formula_sum "Si O2"
_cell_formula_units_Z 88
_cell_length_a 19.242695
_cell_length_b 8.884627
_cell_length_c 27.255018
_cell_angle_alpha 90.000000
_cell_angle_beta 90.000000
_cell_angle_gamma 90.000000
_cell_volume 4659.631464
_symmetry_space_group_name_H-M "C M M M"
_symmetry_group_IT_number 65
_symmetry_cell_setting 'orthorhombic'
loop_
_space_group_symop_operation_xyz
x,y,z
-x,-y,z
x,-y,-z
-x,y,-z
-x,-y,-z
x,y,-z
-x,y,z
x,-y,z
1/2+x,1/2+y,z
1/2-x,1/2-y,z
1/2+x,1/2-y,-z
1/2-x,1/2+y,-z
1/2-x,1/2-y,-z
1/2+x,1/2+y,-z
1/2-x,1/2+y,z
1/2+x,1/2-y,z
loop_
_atom_site_type_symbol
_atom_site_label
_atom_site_fract_x
_atom_site_fract_y
_atom_site_fract_z
Si Si1 0.418213 0.326637 0.132891
Si Si2 0.581735 0.826553 0.767381
Si Si3 0.321464 0.823828 0.943278
Si Si4 0.321606 0.675483 0.691277
Si Si5 0.177806 0.176191 0.577409
Si Si6 0.418800 0.822812 0.500000
O O1 0.500000 0.305404 0.127386
O O2 0.396050 0.500000 0.133694
O O3 0.391078 0.250967 0.182914
O O4 0.384928 0.245111 0.086535
O O5 0.500000 0.804934 0.761657
O O6 0.615266 0.747379 0.720685
O O7 0.603610 0.000000 0.769041
O O8 0.250000 0.750000 0.924950
O O9 0.316940 0.000000 0.933556
O O10 0.335064 0.785550 0.000000
O O11 0.317239 0.500000 0.702538
O O12 0.250000 0.750000 0.708804
O O13 0.335762 0.708966 0.634380
O O14 0.250000 0.250000 0.560027
O O15 0.114524 0.250825 0.548464
O O16 0.181335 0.000000 0.565631
O O17 0.500000 0.783688 0.500000
O O18 0.405298 0.000000 0.500000
#
# Coordination Sequence:
#
# PCOD8273383 Si02
#       6
#    16  16  16  16  16   8
#     4  10  21  37  57  81 110 144 183 226 270 321
#     4  10  21  37  57  81 111 146 182 223 272 324
#     4  10  21  37  57  81 110 143 180 224 273 325
#     4  10  21  37  58  84 112 143 182 226 271 322
#     4  10  21  38  60  83 110 145 183 225 272 324
#     4  11  24  39  56  81 113 147 184 227 272 321
#
# _framework density 18.885614
#
# number of rings (size 3 to 8) (size 9 to 14) (size 15 to 20)
#    0.000    1.909    0.000    3.273    0.000    8.000 
#    0.000    9.091    0.000    0.000    0.000    0.000 
#    0.000    0.000    0.000    0.000    0.000    0.000 
#
# Total GULP energy -545864.816021 kJ/mol
# GULP energy per Si atom -12406.018546 kJ/mol
# Density = 1.884263 g / cm^3
# Si number density = 18.885614 Si / 1000 Ang^3
#
#
#
# Elastic Constant Matrix: (Units=GPa)
#
#
# Indices 1 2 3 4 5 6 
#
# 1 78.5839 61.0465 56.9783 0.0000 0.0000 0.0000
# 2 61.0465 138.4257 66.9251 0.0000 0.0000 0.0000
# 3 56.9783 66.9251 100.9149 0.0000 0.0000 0.0000
# 4 0.0000 0.0000 0.0000 37.8660 0.0000 0.0000
# 5 0.0000 0.0000 0.0000 0.0000 38.0726 0.0000
# 6 0.0000 0.0000 0.0000 0.0000 0.0000 37.9375
#
#
#
# Elastic Compliance Matrix: (Units=1/GPa)
#
#
# Indices 1 2 3 4 5 6 
#
# 1 0.024594 -0.006083 -0.009852 0.000000 0.000000 0.000000
# 2 -0.006083 0.012138 -0.004615 0.000000 0.000000 0.000000
# 3 -0.009852 -0.004615 0.018533 0.000000 0.000000 0.000000
# 4 0.000000 0.000000 0.000000 0.026409 0.000000 0.000000
# 5 0.000000 0.000000 0.000000 0.000000 0.026266 0.000000
# 6 0.000000 0.000000 0.000000 0.000000 0.000000 0.026359
#
#
# Mechanical properties :
#
#
# Convention : Reuss Voigt Hill
#
# Bulk Modulus (GPa) = 70.59993 76.42490 73.51241
# Shear Modulus (GPa) = 27.75919 31.64020 29.69969
#
# Velocity S-wave (km/s) = 3.83803 4.09756 3.96992
# Velocity P-wave (km/s) = 7.55677 7.93358 7.74747
#
# Compressibility (1/GPa) = 0.01416432
#
# Stress axis : x y z
#
# Youngs Moduli (GPa) = 40.66020 82.38589 53.95837
#
# Poissons Ratio (x) = 0.50114 0.53161
# Poissons Ratio (y) = 0.24733 0.24903
# Poissons Ratio (z) = 0.40059 0.38023
#
# Static dielectric constant tensor:
#      x y z
#    x 3.366170 0.000000 0.000000 
#    y 0.000000 3.681480 0.000000 
#    z 0.000000 0.000000 3.486980 
# 
# 
# High freq. dielectric constant tensor:
#      x y z
#    x 1.729960 0.000000 0.000000 
#    y 0.000000 1.754650 0.000000 
#    z 0.000000 0.000000 1.740820 
# 
# From -- ./inp_files/71010.got.cif
#   From: 2010.03.12/outbox.cif.g09.slc.cpg/sg65_36_cif.got.tgz:71010.got - 2010.04.10 20:52:16.
