data_PCOD8273144
_publ_section_title
;
Structure prediction by ZEFSAII (Michael W. Deem and Ramdas Pophale) SiO2 
 PCOD8273144
Probable space group: C M M M
;
_chemical_formula_sum "Si O2"
_cell_formula_units_Z 88
_cell_length_a 8.900633
_cell_length_b 20.527628
_cell_length_c 23.922591
_cell_angle_alpha 90.000000
_cell_angle_beta 90.000000
_cell_angle_gamma 90.000000
_cell_volume 4370.869885
_symmetry_space_group_name_H-M "C M M M"
_symmetry_group_IT_number 65
_symmetry_cell_setting 'orthorhombic'
loop_
_space_group_symop_operation_xyz
x,y,z
-x,-y,z
x,-y,-z
-x,y,-z
-x,-y,-z
x,y,-z
-x,y,z
x,-y,z
1/2+x,1/2+y,z
1/2-x,1/2-y,z
1/2+x,1/2-y,-z
1/2-x,1/2+y,-z
1/2-x,1/2-y,-z
1/2+x,1/2+y,-z
1/2-x,1/2+y,z
1/2+x,1/2-y,z
loop_
_atom_site_type_symbol
_atom_site_label
_atom_site_fract_x
_atom_site_fract_y
_atom_site_fract_z
Si Si1 0.822909 0.185976 0.833235
Si Si2 0.322576 0.868092 0.935800
Si Si3 0.172961 0.574412 0.235232
Si Si4 0.176087 0.816080 0.563784
Si Si5 0.168281 0.000000 0.933967
Si Si6 0.172756 0.425765 0.634621
O O1 0.750000 0.250000 0.804357
O O2 0.757339 0.184409 0.896398
O O3 0.780071 0.121803 0.799082
O O4 0.000000 0.193429 0.835237
O O5 0.500000 0.866585 0.927390
O O6 0.261392 0.937526 0.914360
O O7 0.277808 0.853914 0.000000
O O8 0.213587 0.500000 0.219586
O O9 0.202285 0.586748 0.300327
O O10 0.000000 0.589084 0.220098
O O11 0.227903 0.827681 0.500000
O O12 0.250000 0.750000 0.587654
O O13 0.223438 0.878193 0.599441
O O14 0.000000 0.807126 0.568727
O O15 0.000000 0.000000 0.907776
O O16 0.155496 0.000000 0.000000
O O17 0.214949 0.500000 0.619129
O O18 0.000000 0.411967 0.619680
#
# Coordination Sequence:
#
# PCOD8273144 Si02
#       6
#    16  16  16  16   8  16
#     4  12  26  42  61  86 118 153 194 240 291 351
#     4  10  21  38  60  85 115 152 191 233 287 347
#     4   9  20  41  66  89 116 151 192 239 292 350
#     4  10  21  36  55  82 118 160 203 246 292 343
#     4   9  17  31  53  83 115 145 183 229 272 323
#     4   9  19  37  61  88 117 152 194 240 292 349
#
# _framework density 20.133292999999998
#
# number of rings (size 3 to 8) (size 9 to 14) (size 15 to 20)
#    0.000    2.091    0.000    4.091    1.273    6.182 
#    0.000    3.636    0.000    0.000    0.000    0.000 
#    0.000    0.000    0.000    0.000    0.000    0.000 
#
# Total GULP energy -545688.881983 kJ/mol
# GULP energy per Si atom -12402.020045 kJ/mol
# Density = 2.008747 g / cm^3
# Si number density = 20.133293 Si / 1000 Ang^3
#
#
#
# Elastic Constant Matrix: (Units=GPa)
#
#
# Indices 1 2 3 4 5 6 
#
# 1 127.3942 61.3410 41.7193 0.0000 0.0000 0.0000
# 2 61.3410 124.1390 53.4281 0.0000 0.0000 0.0000
# 3 41.7193 53.4281 65.6316 0.0000 0.0000 0.0000
# 4 0.0000 0.0000 0.0000 -49.1589 0.0000 0.0000
# 5 0.0000 0.0000 0.0000 0.0000 33.3552 0.0000
# 6 0.0000 0.0000 0.0000 0.0000 0.0000 41.0022
#
#
#
# Elastic Compliance Matrix: (Units=1/GPa)
#
#
# Indices 1 2 3 4 5 6 
#
# 1 0.010919 -0.003707 -0.003923 0.000000 0.000000 0.000000
# 2 -0.003707 0.013659 -0.008762 0.000000 0.000000 0.000000
# 3 -0.003923 -0.008762 0.024864 0.000000 0.000000 0.000000
# 4 0.000000 0.000000 0.000000 -0.020342 0.000000 0.000000
# 5 0.000000 0.000000 0.000000 0.000000 0.029980 0.000000
# 6 0.000000 0.000000 0.000000 0.000000 0.000000 0.024389
#
#
# Mechanical properties :
#
#
# Convention : Reuss Voigt Hill
#
# Bulk Modulus (GPa) = 60.03842 70.01573 65.02708
# Shear Modulus (GPa) = 41.04884 15.75145 28.40015
#
# Velocity S-wave (km/s) = 4.52027 2.80010 3.75988
# Velocity P-wave (km/s) = 7.55837 6.73095 7.15663
#
# Compressibility (1/GPa) = 0.01665600
#
# Stress axis : x y z
#
# Youngs Moduli (GPa) = 91.57986 73.21424 40.21955
#
# Poissons Ratio (x) = 0.27141 0.15779
# Poissons Ratio (y) = 0.33950 0.35242
# Poissons Ratio (z) = 0.35929 0.64153
#
# Static dielectric constant tensor:
#      x y z
#    x 3.574390 0.000000 0.000000 
#    y 0.000000 3.758540 0.000000 
#    z 0.000000 0.000000 3.580320 
# 
# 
# High freq. dielectric constant tensor:
#      x y z
#    x 1.788060 0.000000 0.000000 
#    y 0.000000 1.794160 0.000000 
#    z 0.000000 0.000000 1.777660 
# 
# From -- ./inp_files/67551.got.cif
#   From: 2010.03.12/outbox.cif.g09.slc.cpg/sg65_34_cif.got.tgz:67551.got - 2010.04.10 20:52:16.
