data_PCOD8273010
_publ_section_title
;
Structure prediction by ZEFSAII (Michael W. Deem and Ramdas Pophale) SiO2 
 PCOD8273010
Probable space group: C M M M
;
_chemical_formula_sum "Si O2"
_cell_formula_units_Z 88
_cell_length_a 18.371471
_cell_length_b 9.162388
_cell_length_c 28.005423
_cell_angle_alpha 90.000000
_cell_angle_beta 90.000000
_cell_angle_gamma 90.000000
_cell_volume 4714.056107
_symmetry_space_group_name_H-M "C M M M"
_symmetry_group_IT_number 65
_symmetry_cell_setting 'orthorhombic'
loop_
_space_group_symop_operation_xyz
x,y,z
-x,-y,z
x,-y,-z
-x,y,-z
-x,-y,-z
x,y,-z
-x,y,z
x,-y,z
1/2+x,1/2+y,z
1/2-x,1/2-y,z
1/2+x,1/2-y,-z
1/2-x,1/2+y,-z
1/2-x,1/2-y,-z
1/2+x,1/2+y,-z
1/2-x,1/2+y,z
1/2+x,1/2-y,z
loop_
_atom_site_type_symbol
_atom_site_label
_atom_site_fract_x
_atom_site_fract_y
_atom_site_fract_z
Si Si1 0.673526 0.671609 0.721871
Si Si2 0.086658 0.335209 0.907781
Si Si3 0.413121 0.334861 0.000000
Si Si4 0.084117 0.829761 0.814110
Si Si5 0.676651 0.830246 0.444562
Si Si6 0.584229 0.668943 0.629088
O O1 0.686596 0.500000 0.722550
O O2 0.750000 0.750000 0.720239
O O3 0.629683 0.722357 0.768533
O O4 0.627477 0.719299 0.675900
O O5 0.116738 0.500000 0.909434
O O6 0.117371 0.247612 0.953318
O O7 0.114407 0.258236 0.859583
O O8 0.000000 0.333585 0.909064
O O9 0.383478 0.500000 0.000000
O O10 0.500000 0.334048 0.000000
O O11 0.000000 0.793339 0.803813
O O12 0.094454 0.000000 0.824931
O O13 0.660746 0.801505 0.500000
O O14 0.750000 0.750000 0.427811
O O15 0.609029 0.765215 0.415744
O O16 0.685876 0.000000 0.433053
O O17 0.500000 0.699354 0.638900
O O18 0.598643 0.500000 0.617104
#
# Coordination Sequence:
#
# PCOD8273010 Si02
#       6
#    16  16   8  16  16  16
#     4  10  21  36  54  76 102 133 170 212 257 307
#     4   9  16  25  39  63  95 127 160 203 252 296
#     4   9  15  23  37  59  90 129 168 201 240 295
#     4   9  17  31  50  70  95 129 167 205 248 300
#     4  10  21  37  57  81 110 144 181 220 262 310
#     4  10  21  37  57  81 109 141 177 218 265 315
#
# _framework density 18.667576
#
# number of rings (size 3 to 8) (size 9 to 14) (size 15 to 20)
#    0.000    2.455    0.000    2.455    0.000   10.182 
#    0.000    1.818    0.000    3.273    0.000    0.636 
#    0.000    0.000    0.000    0.000    0.000    0.000 
#
# Total GULP energy -545732.234912 kJ/mol
# GULP energy per Si atom -12403.005339 kJ/mol
# Density = 1.862509 g / cm^3
# Si number density = 18.667576 Si / 1000 Ang^3
#
#
#
# Elastic Constant Matrix: (Units=GPa)
#
#
# Indices 1 2 3 4 5 6 
#
# 1 87.7637 46.7845 63.6434 0.0000 0.0000 0.0000
# 2 46.7845 102.8110 75.0233 0.0000 0.0000 0.0000
# 3 63.6434 75.0233 145.2107 0.0000 0.0000 0.0000
# 4 0.0000 0.0000 0.0000 27.0173 0.0000 0.0000
# 5 0.0000 0.0000 0.0000 0.0000 11.1709 0.0000
# 6 0.0000 0.0000 0.0000 0.0000 0.0000 26.4821
#
#
#
# Elastic Compliance Matrix: (Units=1/GPa)
#
#
# Indices 1 2 3 4 5 6 
#
# 1 0.017590 -0.003818 -0.005737 0.000000 0.000000 0.000000
# 2 -0.003818 0.016442 -0.006821 0.000000 0.000000 0.000000
# 3 -0.005737 -0.006821 0.012925 0.000000 0.000000 0.000000
# 4 0.000000 0.000000 0.000000 0.037013 0.000000 0.000000
# 5 0.000000 0.000000 0.000000 0.000000 0.089518 0.000000
# 6 0.000000 0.000000 0.000000 0.000000 0.000000 0.037761
#
#
# Mechanical properties :
#
#
# Convention : Reuss Voigt Hill
#
# Bulk Modulus (GPa) = 70.40067 78.52087 74.46077
# Shear Modulus (GPa) = 20.10172 22.95636 21.52904
#
# Velocity S-wave (km/s) = 3.28506 3.51058 3.39969
# Velocity P-wave (km/s) = 7.22382 7.65416 7.44210
#
# Compressibility (1/GPa) = 0.01420441
#
# Stress axis : x y z
#
# Youngs Moduli (GPa) = 56.85203 60.82149 77.36983
#
# Poissons Ratio (x) = 0.23222 0.44384
# Poissons Ratio (y) = 0.21707 0.52775
# Poissons Ratio (z) = 0.32614 0.41487
#
# Static dielectric constant tensor:
#      x y z
#    x 3.083080 0.000000 0.000000 
#    y 0.000000 3.474420 0.000000 
#    z 0.000000 0.000000 3.597490 
# 
# 
# High freq. dielectric constant tensor:
#      x y z
#    x 1.690160 0.000000 0.000000 
#    y 0.000000 1.726730 0.000000 
#    z 0.000000 0.000000 1.739990 
# 
# From -- ./inp_files/70982.got.cif
#   From: 2010.03.12/outbox.cif.g09.slc.cpg/sg65_36_cif.got.tgz:70982.got - 2010.04.10 20:52:16.
