data_PCOD8273272
_publ_section_title
;
Structure prediction by ZEFSAII (Michael W. Deem and Ramdas Pophale) SiO2 
 PCOD8273272
Probable space group: C M M M
;
_chemical_formula_sum "Si O2"
_cell_formula_units_Z 72
_cell_length_a 22.471807
_cell_length_b 19.138109
_cell_length_c 8.858378
_cell_angle_alpha 90.000000
_cell_angle_beta 90.000000
_cell_angle_gamma 90.000000
_cell_volume 3809.703951
_symmetry_space_group_name_H-M "C M M M"
_symmetry_group_IT_number 65
_symmetry_cell_setting 'orthorhombic'
loop_
_space_group_symop_operation_xyz
x,y,z
-x,-y,z
x,-y,-z
-x,y,-z
-x,-y,-z
x,y,-z
-x,y,z
x,-y,z
1/2+x,1/2+y,z
1/2-x,1/2-y,z
1/2+x,1/2-y,-z
1/2-x,1/2+y,-z
1/2-x,1/2-y,-z
1/2+x,1/2+y,-z
1/2-x,1/2+y,z
1/2+x,1/2-y,z
loop_
_atom_site_type_symbol
_atom_site_label
_atom_site_fract_x
_atom_site_fract_y
_atom_site_fract_z
Si Si1 0.159267 0.920142 0.675456
Si Si2 0.000000 0.417612 0.169739
Si Si3 0.433483 0.306513 0.321031
Si Si4 0.783383 0.580135 0.177060
Si Si5 0.608796 0.844037 0.321283
O O1 0.173469 0.905944 0.500000
O O2 0.105653 0.871805 0.735408
O O3 0.217143 0.900720 0.771354
O O4 0.139739 0.000000 0.702336
O O5 0.058509 0.393777 0.255812
O O6 0.000000 0.500000 0.165831
O O7 0.000000 0.387201 0.000000
O O8 0.437881 0.307024 0.500000
O O9 0.500000 0.312332 0.251971
O O10 0.402883 0.234943 0.265957
O O11 0.798312 0.500000 0.220311
O O12 0.827359 0.632000 0.262414
O O13 0.789503 0.592458 0.000000
O O14 0.607274 0.849898 0.500000
#
# Coordination Sequence:
#
# PCOD8273272 Si02
#       5
#    16   8  16  16  16
#     4   9  18  34  58  84 107 138 182 226 269 323
#     4  11  23  37  53  77 110 145 182 224 269 315
#     4   9  18  34  55  81 113 142 175 224 276 318
#     4  10  21  37  55  77 110 146 180 226 277 321
#     4  11  21  35  56  80 109 145 183 222 266 321
#
# _framework density 18.899107000000001
#
# number of rings (size 3 to 8) (size 9 to 14) (size 15 to 20)
#    0.000    2.111    1.111    2.333    0.000    6.222 
#    0.000    8.889    0.000    0.000    0.000    3.111 
#    0.000    0.000    0.000    0.000    0.000    0.000 
#
# Total GULP energy -446487.319403 kJ/mol
# GULP energy per Si atom -12402.425539 kJ/mol
# Density = 1.885609 g / cm^3
# Si number density = 18.899107 Si / 1000 Ang^3
#
#
#
# Elastic Constant Matrix: (Units=GPa)
#
#
# Indices 1 2 3 4 5 6 
#
# 1 144.0169 91.6824 42.7613 0.0000 0.0000 0.0000
# 2 91.6824 121.1236 37.8723 0.0000 0.0000 0.0000
# 3 42.7613 37.8723 62.3751 0.0000 0.0000 0.0000
# 4 0.0000 0.0000 0.0000 13.8263 0.0000 0.0000
# 5 0.0000 0.0000 0.0000 0.0000 -9.6906 0.0000
# 6 0.0000 0.0000 0.0000 0.0000 0.0000 33.6963
#
#
#
# Elastic Compliance Matrix: (Units=1/GPa)
#
#
# Indices 1 2 3 4 5 6 
#
# 1 0.014147 -0.009474 -0.003946 0.000000 0.000000 0.000000
# 2 -0.009474 0.016536 -0.003545 0.000000 0.000000 0.000000
# 3 -0.003946 -0.003545 0.020889 0.000000 0.000000 0.000000
# 4 0.000000 0.000000 0.000000 0.072326 0.000000 0.000000
# 5 0.000000 0.000000 0.000000 0.000000 -0.103193 0.000000
# 6 0.000000 0.000000 0.000000 0.000000 0.000000 0.029677
#
#
# Mechanical properties :
#
#
# Convention : Reuss Voigt Hill
#
# Bulk Modulus (GPa) = 56.68308 74.68304 65.68306
# Shear Modulus (GPa) = 55.43700 17.91303 36.67501
#
# Velocity S-wave (km/s) = 5.42188 3.08202 4.40997
# Velocity P-wave (km/s) = 8.32186 7.22963 7.79490
#
# Compressibility (1/GPa) = 0.01764195
#
# Stress axis : x y z
#
# Youngs Moduli (GPa) = 70.68836 60.47466 47.87114
#
# Poissons Ratio (x) = 0.57295 0.18889
# Poissons Ratio (y) = 0.66972 0.16970
# Poissons Ratio (z) = 0.27892 0.21438
#
# Static dielectric constant tensor:
#      x y z
#    x 3.493940 0.000000 0.000000 
#    y 0.000000 3.596900 0.000000 
#    z 0.000000 0.000000 3.364280 
# 
# 
# High freq. dielectric constant tensor:
#      x y z
#    x 1.742720 0.000000 0.000000 
#    y 0.000000 1.737680 0.000000 
#    z 0.000000 0.000000 1.718030 
# 
# From -- ./inp_files/9255.got.cif
#   From: 2010.03.12/outbox.cif.g09.slc.cpg/sg65_5_cif.got.tgz:9255.got - 2010.04.10 20:52:16.
