data_PCOD8273242
_publ_section_title
;
Structure prediction by ZEFSAII (Michael W. Deem and Ramdas Pophale) SiO2 
 PCOD8273242
Probable space group: C M M M
;
_chemical_formula_sum "Si O2"
_cell_formula_units_Z 72
_cell_length_a 9.050522
_cell_length_b 28.327840
_cell_length_c 16.393975
_cell_angle_alpha 90.000000
_cell_angle_beta 90.000000
_cell_angle_gamma 90.000000
_cell_volume 4203.115822
_symmetry_space_group_name_H-M "C M M M"
_symmetry_group_IT_number 65
_symmetry_cell_setting 'orthorhombic'
loop_
_space_group_symop_operation_xyz
x,y,z
-x,-y,z
x,-y,-z
-x,y,-z
-x,-y,-z
x,y,-z
-x,y,z
x,-y,z
1/2+x,1/2+y,z
1/2-x,1/2-y,z
1/2+x,1/2-y,-z
1/2-x,1/2+y,-z
1/2-x,1/2-y,-z
1/2+x,1/2+y,-z
1/2-x,1/2+y,z
1/2+x,1/2-y,z
loop_
_atom_site_type_symbol
_atom_site_label
_atom_site_fract_x
_atom_site_fract_y
_atom_site_fract_z
Si Si1 0.172886 0.299911 0.092734
Si Si2 0.839081 0.551296 0.905069
Si Si3 0.174527 0.945614 0.662994
Si Si4 0.670919 0.379202 0.811248
Si Si5 0.834937 0.555822 0.500000
O O1 0.250000 0.250000 0.102736
O O2 0.236677 0.332794 0.165060
O O3 0.000000 0.293628 0.107788
O O4 0.201961 0.319585 0.000000
O O5 0.817440 0.500000 0.863729
O O6 0.701375 0.583967 0.883333
O O7 0.000000 0.572537 0.877399
O O8 0.839930 0.544662 0.000000
O O9 0.225736 0.907156 0.730413
O O10 0.249235 0.927075 0.580258
O O11 0.000000 0.943806 0.651627
O O12 0.222182 0.000000 0.684328
O O13 0.500000 0.365488 0.806499
O O14 0.840899 0.500000 0.500000
O O15 0.000000 0.577308 0.500000
#
# Coordination Sequence:
#
# PCOD8273242 Si02
#       5
#    16  16  16  16   8
#     4  10  21  37  55  73  95 125 162 205 252 297
#     4   9  18  31  44  60  88 127 165 198 235 279
#     4   9  18  32  48  68  99 136 167 196 235 284
#     4  11  21  31  47  72  98 125 160 200 242 289
#     4   9  17  29  47  71  96 125 164 205 241 279
#
# _framework density 17.130147999999998
#
# number of rings (size 3 to 8) (size 9 to 14) (size 15 to 20)
#    0.000    2.333    0.000    3.667    0.000    8.889 
#    0.000    3.333    0.000    0.000    0.000    0.778 
#    0.000    0.000    0.000    0.000    0.000    0.000 
#
# Total GULP energy -446001.670708 kJ/mol
# GULP energy per Si atom -12388.935297 kJ/mol
# Density = 1.709116 g / cm^3
# Si number density = 17.130148 Si / 1000 Ang^3
#
#
#
# Elastic Constant Matrix: (Units=GPa)
#
#
# Indices 1 2 3 4 5 6 
#
# 1 70.8982 44.0898 49.9600 0.0000 0.0000 0.0000
# 2 44.0898 80.4476 57.6900 0.0000 0.0000 0.0000
# 3 49.9600 57.6900 96.3714 0.0000 0.0000 0.0000
# 4 0.0000 0.0000 0.0000 66.9187 0.0000 0.0000
# 5 0.0000 0.0000 0.0000 0.0000 25.9360 0.0000
# 6 0.0000 0.0000 0.0000 0.0000 0.0000 26.1035
#
#
#
# Elastic Compliance Matrix: (Units=1/GPa)
#
#
# Indices 1 2 3 4 5 6 
#
# 1 0.024620 -0.007605 -0.008211 0.000000 0.000000 0.000000
# 2 -0.007605 0.024130 -0.010502 0.000000 0.000000 0.000000
# 3 -0.008211 -0.010502 0.020920 0.000000 0.000000 0.000000
# 4 0.000000 0.000000 0.000000 0.014943 0.000000 0.000000
# 5 0.000000 0.000000 0.000000 0.000000 0.038556 0.000000
# 6 0.000000 0.000000 0.000000 0.000000 0.000000 0.038309
#
#
# Mechanical properties :
#
#
# Convention : Reuss Voigt Hill
#
# Bulk Modulus (GPa) = 58.70673 61.24408 59.97540
# Shear Modulus (GPa) = 22.74883 30.19014 26.46949
#
# Velocity S-wave (km/s) = 3.64813 4.20265 3.93517
# Velocity P-wave (km/s) = 7.21737 7.70581 7.46559
#
# Compressibility (1/GPa) = 0.01703382
#
# Stress axis : x y z
#
# Youngs Moduli (GPa) = 40.61737 41.44299 47.80191
#
# Poissons Ratio (x) = 0.31518 0.39249
# Poissons Ratio (y) = 0.30890 0.50201
# Poissons Ratio (z) = 0.33350 0.43523
#
# Static dielectric constant tensor:
#      x y z
#    x 3.320600 0.000000 0.000000 
#    y 0.000000 3.111410 0.000000 
#    z 0.000000 0.000000 3.201470 
# 
# 
# High freq. dielectric constant tensor:
#      x y z
#    x 1.669370 0.000000 0.000000 
#    y 0.000000 1.636590 0.000000 
#    z 0.000000 0.000000 1.644640 
# 
# From -- ./inp_files/36543.got.cif
#   From: 2010.03.12/outbox.cif.g09.slc.cpg/sg65_19_cif.got.tgz:36543.got - 2010.04.10 20:52:16.
