data_PCOD8273843
_publ_section_title
;
Structure prediction by ZEFSAII (Michael W. Deem and Ramdas Pophale) SiO2 
 PCOD8273843
Probable space group: C M M M
;
_chemical_formula_sum "Si O2"
_cell_formula_units_Z 64
_cell_length_a 8.883367
_cell_length_b 15.524499
_cell_length_c 23.315907
_cell_angle_alpha 90.000000
_cell_angle_beta 90.000000
_cell_angle_gamma 90.000000
_cell_volume 3215.492587
_symmetry_space_group_name_H-M "C M M M"
_symmetry_group_IT_number 65
_symmetry_cell_setting 'orthorhombic'
loop_
_space_group_symop_operation_xyz
x,y,z
-x,-y,z
x,-y,-z
-x,y,-z
-x,-y,-z
x,y,-z
-x,y,z
x,-y,z
1/2+x,1/2+y,z
1/2-x,1/2-y,z
1/2+x,1/2-y,-z
1/2-x,1/2+y,-z
1/2-x,1/2-y,-z
1/2+x,1/2+y,-z
1/2-x,1/2+y,z
1/2+x,1/2-y,z
loop_
_atom_site_type_symbol
_atom_site_label
_atom_site_fract_x
_atom_site_fract_y
_atom_site_fract_z
Si Si1 0.825471 0.160586 0.067266
Si Si2 0.177596 0.000000 0.252219
Si Si3 0.825776 0.400339 0.435488
Si Si4 0.324011 0.335638 0.325955
Si Si5 0.321574 0.000000 0.870508
O O1 0.750000 0.250000 0.086265
O O2 0.743394 0.084386 0.099789
O O3 0.000000 0.162567 0.084917
O O4 0.804930 0.144674 0.000000
O O5 0.226903 0.916835 0.288387
O O6 0.274433 0.000000 0.195202
O O7 0.000000 0.000000 0.238244
O O8 0.790825 0.368428 0.500000
O O9 0.781924 0.500000 0.429704
O O10 0.726078 0.345905 0.391789
O O11 0.000000 0.386268 0.420399
O O12 0.500000 0.323479 0.324321
O O13 0.250000 0.250000 0.299261
O O14 0.500000 0.000000 0.876620
#
# Coordination Sequence:
#
# PCOD8273843 Si02
#       5
#    16   8  16  16   8
#     4  10  21  39  64  94 129 166 203 248 300 353
#     4  10  24  45  62  81 116 156 201 254 301 350
#     4   9  18  34  58  87 118 151 187 234 292 353
#     4  11  23  40  62  87 114 151 195 244 298 353
#     4  12  25  39  62  92 123 164 207 249 301 358
#
# _framework density 19.903638000000001
#
# number of rings (size 3 to 8) (size 9 to 14) (size 15 to 20)
#    0.000    1.750    1.250    3.750    0.000    7.000 
#    0.000    3.750    0.000    0.000    0.000    0.000 
#    0.000    0.000    0.000    0.000    0.000    0.000 
#
# Total GULP energy -396930.581190 kJ/mol
# GULP energy per Si atom -12404.080662 kJ/mol
# Density = 1.985834 g / cm^3
# Si number density = 19.903638 Si / 1000 Ang^3
#
#
#
# Elastic Constant Matrix: (Units=GPa)
#
#
# Indices 1 2 3 4 5 6 
#
# 1 123.1440 83.9594 66.8126 0.0000 0.0000 0.0000
# 2 83.9594 178.1792 78.4436 0.0000 0.0000 0.0000
# 3 66.8126 78.4436 97.7406 0.0000 0.0000 0.0000
# 4 0.0000 0.0000 0.0000 7.7065 0.0000 0.0000
# 5 0.0000 0.0000 0.0000 0.0000 34.1470 0.0000
# 6 0.0000 0.0000 0.0000 0.0000 0.0000 38.0763
#
#
#
# Elastic Compliance Matrix: (Units=1/GPa)
#
#
# Indices 1 2 3 4 5 6 
#
# 1 0.014392 -0.003789 -0.006797 0.000000 0.000000 0.000000
# 2 -0.003789 0.009677 -0.005176 0.000000 0.000000 0.000000
# 3 -0.006797 -0.005176 0.019031 0.000000 0.000000 0.000000
# 4 0.000000 0.000000 0.000000 0.129760 0.000000 0.000000
# 5 0.000000 0.000000 0.000000 0.000000 0.029285 0.000000
# 6 0.000000 0.000000 0.000000 0.000000 0.000000 0.026263
#
#
# Mechanical properties :
#
#
# Convention : Reuss Voigt Hill
#
# Bulk Modulus (GPa) = 86.38645 95.27722 90.83183
# Shear Modulus (GPa) = 18.95453 27.30920 23.13186
#
# Velocity S-wave (km/s) = 3.08931 3.70817 3.41279
# Velocity P-wave (km/s) = 7.49811 8.14292 7.82716
#
# Compressibility (1/GPa) = 0.01157589
#
# Stress axis : x y z
#
# Youngs Moduli (GPa) = 69.48515 103.34285 52.54567
#
# Poissons Ratio (x) = 0.39159 0.35713
# Poissons Ratio (y) = 0.26330 0.27197
# Poissons Ratio (z) = 0.47226 0.53489
#
# Static dielectric constant tensor:
#      x y z
#    x 3.610020 0.000000 0.000000 
#    y 0.000000 3.814650 0.000000 
#    z 0.000000 0.000000 3.611150 
# 
# 
# High freq. dielectric constant tensor:
#      x y z
#    x 1.780140 0.000000 0.000000 
#    y 0.000000 1.789940 0.000000 
#    z 0.000000 0.000000 1.772130 
# 
# From -- ./inp_files/66773.got.cif
#   From: 2010.03.12/outbox.cif.g09.slc.cpg/sg65_34_cif.got.tgz:66773.got - 2010.04.10 20:52:16.
