data_PCOD8273310
_publ_section_title
;
Structure prediction by ZEFSAII (Michael W. Deem and Ramdas Pophale) SiO2 
 PCOD8273310
Probable space group: C M M M
;
_chemical_formula_sum "Si O2"
_cell_formula_units_Z 104
_cell_length_a 29.857719
_cell_length_b 19.481204
_cell_length_c 9.053449
_cell_angle_alpha 90.000000
_cell_angle_beta 90.000000
_cell_angle_gamma 90.000000
_cell_volume 5266.068209
_symmetry_space_group_name_H-M "C M M M"
_symmetry_group_IT_number 65
_symmetry_cell_setting 'orthorhombic'
loop_
_space_group_symop_operation_xyz
x,y,z
-x,-y,z
x,-y,-z
-x,y,-z
-x,-y,-z
x,y,-z
-x,y,z
x,-y,z
1/2+x,1/2+y,z
1/2-x,1/2-y,z
1/2+x,1/2-y,-z
1/2-x,1/2+y,-z
1/2-x,1/2-y,-z
1/2+x,1/2+y,-z
1/2-x,1/2+y,z
1/2+x,1/2-y,z
loop_
_atom_site_type_symbol
_atom_site_label
_atom_site_fract_x
_atom_site_fract_y
_atom_site_fract_z
Si Si1 0.050947 0.578362 0.825688
Si Si2 0.871679 0.809271 0.670873
Si Si3 0.280829 0.919860 0.666574
Si Si4 0.631103 0.153306 0.671080
Si Si5 0.553066 0.500000 0.665230
Si Si6 0.551852 0.635372 0.828409
Si Si7 0.690365 0.420985 0.825334
O O1 0.061727 0.500000 0.777262
O O2 0.085875 0.631094 0.753689
O O3 0.000000 0.597312 0.777255
O O4 0.055439 0.585731 0.000000
O O5 0.873976 0.829732 0.500000
O O6 0.854412 0.732371 0.694723
O O7 0.921286 0.805998 0.742661
O O8 0.843402 0.866945 0.754556
O O9 0.271390 0.892562 0.500000
O O10 0.326131 0.887656 0.732904
O O11 0.239583 0.899572 0.770358
O O12 0.288726 0.000000 0.665249
O O13 0.622695 0.136948 0.500000
O O14 0.500000 0.500000 0.655173
O O15 0.573794 0.500000 0.500000
O O16 0.569593 0.564827 0.757547
O O17 0.500000 0.648714 0.800056
O O18 0.563720 0.633960 0.000000
O O19 0.679245 0.500000 0.777462
O O20 0.688457 0.413426 0.000000
#
# Coordination Sequence:
#
# PCOD8273310 Si02
#       7
#    16  16  16  16   8  16  16
#     4   9  19  36  58  86 120 157 196 238 285 337
#     4  11  24  39  56  81 115 154 193 235 288 344
#     4   9  18  36  62  87 112 144 183 229 283 342
#     4  10  22  38  57  85 118 153 194 238 283 337
#     4   9  17  31  53  79 103 131 173 225 279 331
#     4  10  21  37  56  78 107 144 187 234 282 333
#     4  10  22  40  61  85 112 143 185 236 288 345
#
# _framework density 19.749078999999998
#
# number of rings (size 3 to 8) (size 9 to 14) (size 15 to 20)
#    0.000    2.231    0.000    2.538    1.077    7.077 
#    0.000    8.462    0.000    0.000    0.000    0.000 
#    0.000    0.000    0.000    0.000    0.000    0.000 
#
# Total GULP energy -644702.554181 kJ/mol
# GULP energy per Si atom -12398.126042 kJ/mol
# Density = 1.970413 g / cm^3
# Si number density = 19.749079 Si / 1000 Ang^3
#
#
#
# Elastic Constant Matrix: (Units=GPa)
#
#
# Indices 1 2 3 4 5 6 
#
# 1 115.6137 60.0384 58.1663 0.0000 0.0000 0.0000
# 2 60.0384 73.2517 45.0760 0.0000 0.0000 0.0000
# 3 58.1663 45.0760 94.9168 0.0000 0.0000 0.0000
# 4 0.0000 0.0000 0.0000 26.8277 0.0000 0.0000
# 5 0.0000 0.0000 0.0000 0.0000 36.6430 0.0000
# 6 0.0000 0.0000 0.0000 0.0000 0.0000 21.7865
#
#
#
# Elastic Compliance Matrix: (Units=1/GPa)
#
#
# Indices 1 2 3 4 5 6 
#
# 1 0.016750 -0.010473 -0.005291 0.000000 0.000000 0.000000
# 2 -0.010473 0.025836 -0.005852 0.000000 0.000000 0.000000
# 3 -0.005291 -0.005852 0.016557 0.000000 0.000000 0.000000
# 4 0.000000 0.000000 0.000000 0.037275 0.000000 0.000000
# 5 0.000000 0.000000 0.000000 0.000000 0.027290 0.000000
# 6 0.000000 0.000000 0.000000 0.000000 0.000000 0.045900
#
#
# Mechanical properties :
#
#
# Convention : Reuss Voigt Hill
#
# Bulk Modulus (GPa) = 62.84587 67.81597 65.33092
# Shear Modulus (GPa) = 22.92069 25.08485 24.00277
#
# Velocity S-wave (km/s) = 3.41045 3.56782 3.49002
# Velocity P-wave (km/s) = 6.88473 7.16839 7.02799
#
# Compressibility (1/GPa) = 0.01591194
#
# Stress axis : x y z
#
# Youngs Moduli (GPa) = 59.70161 38.70563 60.39719
#
# Poissons Ratio (x) = 0.40535 0.31957
# Poissons Ratio (y) = 0.62523 0.35343
# Poissons Ratio (z) = 0.31589 0.22650
#
# Static dielectric constant tensor:
#      x y z
#    x 3.700600 0.000000 0.000000 
#    y 0.000000 3.649910 0.000000 
#    z 0.000000 0.000000 3.631230 
# 
# 
# High freq. dielectric constant tensor:
#      x y z
#    x 1.775270 0.000000 0.000000 
#    y 0.000000 1.764080 0.000000 
#    z 0.000000 0.000000 1.770360 
# 
# From -- ./inp_files/16501.got.cif
#   From: 2010.03.12/outbox.cif.g09.slc.cpg/sg65_9_cif.got.tgz:16501.got - 2010.04.10 20:52:16.
