data_PCOD8273102
_publ_section_title
;
Structure prediction by ZEFSAII (Michael W. Deem and Ramdas Pophale) SiO2 
 PCOD8273102
Probable space group: C M M M
;
_chemical_formula_sum "Si O2"
_cell_formula_units_Z 104
_cell_length_a 26.387635
_cell_length_b 8.992287
_cell_length_c 22.516949
_cell_angle_alpha 90.000000
_cell_angle_beta 90.000000
_cell_angle_gamma 90.000000
_cell_volume 5342.938458
_symmetry_space_group_name_H-M "C M M M"
_symmetry_group_IT_number 65
_symmetry_cell_setting 'orthorhombic'
loop_
_space_group_symop_operation_xyz
x,y,z
-x,-y,z
x,-y,-z
-x,y,-z
-x,-y,-z
x,y,-z
-x,y,z
x,-y,z
1/2+x,1/2+y,z
1/2-x,1/2-y,z
1/2+x,1/2-y,-z
1/2-x,1/2+y,-z
1/2-x,1/2-y,-z
1/2+x,1/2+y,-z
1/2-x,1/2+y,z
1/2+x,1/2-y,z
loop_
_atom_site_type_symbol
_atom_site_label
_atom_site_fract_x
_atom_site_fract_y
_atom_site_fract_z
Si Si1 0.405205 0.676848 0.370366
Si Si2 0.442316 0.331196 0.865783
Si Si3 0.299624 0.169102 0.178540
Si Si4 0.140330 0.673847 0.933141
Si Si5 0.400808 0.827444 0.245752
Si Si6 0.500000 0.830743 0.429860
Si Si7 0.801363 0.174525 0.431647
O O1 0.410267 0.500000 0.373283
O O2 0.412010 0.731714 0.303552
O O3 0.449650 0.747231 0.408995
O O4 0.350530 0.729838 0.395258
O O5 0.500000 0.325919 0.886390
O O6 0.424634 0.500000 0.852825
O O7 0.410963 0.263601 0.920595
O O8 0.435992 0.233332 0.806677
O O9 0.250000 0.250000 0.201564
O O10 0.317515 0.229548 0.113893
O O11 0.342437 0.194275 0.227709
O O12 0.284421 0.000000 0.171666
O O13 0.128856 0.500000 0.922573
O O14 0.159186 0.705929 0.000000
O O15 0.413722 0.000000 0.257137
O O16 0.500000 0.828645 0.500000
O O17 0.500000 0.000000 0.405581
O O18 0.809947 0.220634 0.500000
O O19 0.750000 0.250000 0.406605
O O20 0.794110 0.000000 0.424471
#
# Coordination Sequence:
#
# PCOD8273102 Si02
#       7
#    16  16  16  16  16   8  16
#     4  11  23  39  61  88 119 154 195 242 292 346
#     4  10  21  36  55  79 108 141 180 229 284 336
#     4   9  19  35  55  79 109 147 187 231 282 335
#     4   9  19  36  55  78 110 146 187 230 275 336
#     4  10  22  39  57  80 111 146 187 231 278 336
#     4  11  25  43  63  89 121 159 200 241 290 349
#     4   9  19  36  58  84 114 150 190 233 284 340
#
# _framework density 19.464943999999999
#
# number of rings (size 3 to 8) (size 9 to 14) (size 15 to 20)
#    0.000    2.231    0.000    3.000    1.077    8.308 
#    0.000    6.154    0.000    0.000    0.000    0.000 
#    0.000    0.000    0.000    0.000    0.000    0.000 
#
# Total GULP energy -644866.739649 kJ/mol
# GULP energy per Si atom -12401.283455 kJ/mol
# Density = 1.942064 g / cm^3
# Si number density = 19.464944 Si / 1000 Ang^3
#
#
#
# Elastic Constant Matrix: (Units=GPa)
#
#
# Indices 1 2 3 4 5 6 
#
# 1 91.1014 40.7788 8.7731 0.0000 0.0000 0.0000
# 2 40.7788 80.0895 20.9938 0.0000 0.0000 0.0000
# 3 8.7731 20.9938 64.4341 0.0000 0.0000 0.0000
# 4 0.0000 0.0000 0.0000 28.4646 0.0000 0.0000
# 5 0.0000 0.0000 0.0000 0.0000 13.0692 0.0000
# 6 0.0000 0.0000 0.0000 0.0000 0.0000 35.7785
#
#
#
# Elastic Compliance Matrix: (Units=1/GPa)
#
#
# Indices 1 2 3 4 5 6 
#
# 1 0.014230 -0.007367 0.000463 0.000000 0.000000 0.000000
# 2 -0.007367 0.017466 -0.004688 0.000000 0.000000 0.000000
# 3 0.000463 -0.004688 0.016984 0.000000 0.000000 0.000000
# 4 0.000000 0.000000 0.000000 0.035131 0.000000 0.000000
# 5 0.000000 0.000000 0.000000 0.000000 0.076516 0.000000
# 6 0.000000 0.000000 0.000000 0.000000 0.000000 0.027950
#
#
# Mechanical properties :
#
#
# Convention : Reuss Voigt Hill
#
# Bulk Modulus (GPa) = 39.22125 41.85737 40.53931
# Shear Modulus (GPa) = 22.73166 26.46775 24.59971
#
# Velocity S-wave (km/s) = 3.42105 3.69150 3.55885
# Velocity P-wave (km/s) = 5.98316 6.30240 6.14485
#
# Compressibility (1/GPa) = 0.02549638
#
# Stress axis : x y z
#
# Youngs Moduli (GPa) = 70.27595 57.25558 58.87882
#
# Poissons Ratio (x) = 0.42177 -0.02724
# Poissons Ratio (y) = 0.51769 0.27600
# Poissons Ratio (z) = -0.03252 0.26839
#
# Static dielectric constant tensor:
#      x y z
#    x 3.657010 0.000000 0.000000 
#    y 0.000000 3.640140 0.000000 
#    z 0.000000 0.000000 3.488910 
# 
# 
# High freq. dielectric constant tensor:
#      x y z
#    x 1.759730 0.000000 0.000000 
#    y 0.000000 1.762380 0.000000 
#    z 0.000000 0.000000 1.755180 
# 
# From -- ./inp_files/65878.got.cif
#   From: 2010.03.12/outbox.cif.g09.slc.cpg/sg65_33_cif.got.tgz:65878.got - 2010.04.10 20:52:16.
