data_PCOD8273995
_publ_section_title
;
Structure prediction by ZEFSAII (Michael W. Deem and Ramdas Pophale) SiO2 
 PCOD8273995
Probable space group: C M M M
;
_chemical_formula_sum "Si O2"
_cell_formula_units_Z 112
_cell_length_a 22.592643
_cell_length_b 14.168260
_cell_length_c 17.129360
_cell_angle_alpha 90.000000
_cell_angle_beta 90.000000
_cell_angle_gamma 90.000000
_cell_volume 5483.081416
_symmetry_space_group_name_H-M "C M M M"
_symmetry_group_IT_number 65
_symmetry_cell_setting 'orthorhombic'
loop_
_space_group_symop_operation_xyz
x,y,z
-x,-y,z
x,-y,-z
-x,y,-z
-x,-y,-z
x,y,-z
-x,y,z
x,-y,z
1/2+x,1/2+y,z
1/2-x,1/2-y,z
1/2+x,1/2-y,-z
1/2-x,1/2+y,-z
1/2-x,1/2-y,-z
1/2+x,1/2+y,-z
1/2-x,1/2+y,z
1/2+x,1/2-y,z
loop_
_atom_site_type_symbol
_atom_site_label
_atom_site_fract_x
_atom_site_fract_y
_atom_site_fract_z
Si Si1 0.892107 0.606059 0.652530
Si Si2 0.067071 0.212628 0.587617
Si Si3 0.068405 0.609443 0.826130
Si Si4 0.839511 0.101492 0.316939
Si Si5 0.766883 0.641696 0.411928
Si Si6 0.170103 0.703629 0.910576
Si Si7 0.284050 0.387884 0.847390
O O1 0.912400 0.500000 0.633214
O O2 0.927115 0.674348 0.593404
O O3 0.909141 0.633562 0.740023
O O4 0.821743 0.617338 0.643361
O O5 0.086414 0.181580 0.500000
O O6 0.109282 0.170838 0.654107
O O7 0.000000 0.180202 0.603271
O O8 0.078770 0.500000 0.846382
O O9 0.104007 0.674228 0.886880
O O10 0.000000 0.637353 0.833802
O O11 0.790258 0.085472 0.383304
O O12 0.806534 0.137581 0.239447
O O13 0.869670 0.000000 0.301348
O O14 0.782853 0.611762 0.500000
O O15 0.750000 0.750000 0.405504
O O16 0.215551 0.642860 0.856948
O O17 0.178022 0.817415 0.902513
O O18 0.181659 0.676085 0.000000
O O19 0.292227 0.500000 0.867157
#
# Coordination Sequence:
#
# PCOD8273995 Si02
#       7
#    16  16  16  16  16  16  16
#     4  11  22  38  60  85 117 158 200 244 297 355
#     4  11  24  40  58  83 117 157 202 254 305 350
#     4  10  22  40  62  89 121 158 201 248 293 344
#     4  11  23  39  61  85 112 153 201 248 297 352
#     4  11  22  35  55  84 117 153 191 241 303 353
#     4  11  23  38  63  95 125 159 192 232 293 362
#     4  10  22  39  60  90 124 158 197 242 294 353
#
# _framework density 20.426469999999998
#
# number of rings (size 3 to 8) (size 9 to 14) (size 15 to 20)
#    0.000    1.286    1.429    4.714    2.000    8.571 
#    0.000    2.143    0.000    1.286    0.000    1.000 
#    0.000    0.000    0.000    0.000    0.000    0.000 
#
# Total GULP energy -694302.754213 kJ/mol
# GULP energy per Si atom -12398.263468 kJ/mol
# Density = 2.037998 g / cm^3
# Si number density = 20.426470 Si / 1000 Ang^3
#
#
#
# Elastic Constant Matrix: (Units=GPa)
#
#
# Indices 1 2 3 4 5 6 
#
# 1 131.9365 46.2624 63.7446 0.0000 0.0000 0.0000
# 2 46.2624 103.5775 47.0509 0.0000 0.0000 0.0000
# 3 63.7446 47.0509 107.4038 0.0000 0.0000 0.0000
# 4 0.0000 0.0000 0.0000 15.0810 0.0000 0.0000
# 5 0.0000 0.0000 0.0000 0.0000 -2.7724 0.0000
# 6 0.0000 0.0000 0.0000 0.0000 0.0000 20.7552
#
#
#
# Elastic Compliance Matrix: (Units=1/GPa)
#
#
# Indices 1 2 3 4 5 6 
#
# 1 0.011105 -0.002454 -0.005516 0.000000 0.000000 0.000000
# 2 -0.002454 0.012596 -0.004061 0.000000 0.000000 0.000000
# 3 -0.005516 -0.004061 0.014363 0.000000 0.000000 0.000000
# 4 0.000000 0.000000 0.000000 0.066309 0.000000 0.000000
# 5 0.000000 0.000000 0.000000 0.000000 -0.360700 0.000000
# 6 0.000000 0.000000 0.000000 0.000000 0.000000 0.048181
#
#
# Mechanical properties :
#
#
# Convention : Reuss Voigt Hill
#
# Bulk Modulus (GPa) = 71.42077 73.00372 72.21225
# Shear Modulus (GPa) = -27.86797 19.00344 -4.43227
#
# Velocity S-wave (km/s) = -3.69766 3.05345 -1.47464
# Velocity P-wave (km/s) = 4.10006 6.94613 5.70347
#
# Compressibility (1/GPa) = 0.01400153
#
# Stress axis : x y z
#
# Youngs Moduli (GPa) = 90.05078 79.39237 69.62231
#
# Poissons Ratio (x) = 0.19486 0.38400
# Poissons Ratio (y) = 0.22103 0.28274
# Poissons Ratio (z) = 0.49668 0.32242
#
# Static dielectric constant tensor:
#      x y z
#    x 3.671710 0.000000 0.000000 
#    y 0.000000 3.704760 0.000000 
#    z 0.000000 0.000000 3.619600 
# 
# 
# High freq. dielectric constant tensor:
#      x y z
#    x 1.790740 0.000000 0.000000 
#    y 0.000000 1.803750 0.000000 
#    z 0.000000 0.000000 1.791850 
# 
# From -- ./inp_files/45738.got.cif
#   From: 2010.03.12/outbox.cif.g09.slc.cpg/sg65_23_cif.got.tgz:45738.got - 2010.04.10 20:52:16.
