data_PCOD8273551
_publ_section_title
;
Structure prediction by ZEFSAII (Michael W. Deem and Ramdas Pophale) SiO2 
 PCOD8273551
Probable space group: C M M M
;
_chemical_formula_sum "Si O2"
_cell_formula_units_Z 96
_cell_length_a 14.435058
_cell_length_b 17.798808
_cell_length_c 17.948019
_cell_angle_alpha 90.000000
_cell_angle_beta 90.000000
_cell_angle_gamma 90.000000
_cell_volume 4611.327551
_symmetry_space_group_name_H-M "C M M M"
_symmetry_group_IT_number 65
_symmetry_cell_setting 'orthorhombic'
loop_
_space_group_symop_operation_xyz
x,y,z
-x,-y,z
x,-y,-z
-x,y,-z
-x,-y,-z
x,y,-z
-x,y,z
x,-y,z
1/2+x,1/2+y,z
1/2-x,1/2-y,z
1/2+x,1/2-y,-z
1/2-x,1/2+y,-z
1/2-x,1/2-y,-z
1/2+x,1/2+y,-z
1/2-x,1/2+y,z
1/2+x,1/2-y,z
loop_
_atom_site_type_symbol
_atom_site_label
_atom_site_fract_x
_atom_site_fract_y
_atom_site_fract_z
Si Si1 0.103256 0.913484 0.838408
Si Si2 0.604066 0.360853 0.324032
Si Si3 0.395380 0.783109 0.417130
Si Si4 0.231991 0.664369 0.913938
Si Si5 0.394100 0.912965 0.200632
Si Si6 0.793664 0.583166 0.353776
O O1 0.109435 0.861291 0.765287
O O2 0.176328 0.884740 0.898591
O O3 0.000000 0.907440 0.872899
O O4 0.125522 0.000000 0.816517
O O5 0.500000 0.384572 0.350571
O O6 0.629815 0.278263 0.354672
O O7 0.681643 0.417378 0.355096
O O8 0.381215 0.748616 0.500000
O O9 0.500000 0.810793 0.405621
O O10 0.330755 0.855953 0.411617
O O11 0.250000 0.750000 0.891544
O O12 0.144267 0.635182 0.867789
O O13 0.205689 0.656226 0.000000
O O14 0.500000 0.889177 0.216789
O O15 0.331794 0.895006 0.272374
O O16 0.387295 0.000000 0.178823
O O17 0.827873 0.500000 0.376901
#
# Coordination Sequence:
#
# PCOD8273551 Si02
#       6
#    16  16  16  16  16  16
#     4  10  21  39  64  92 121 157 203 253 305 360
#     4  10  21  37  62  92 120 157 203 251 301 360
#     4  10  23  42  63  90 124 163 205 249 300 358
#     4  11  25  41  60  90 125 161 200 247 305 363
#     4  10  22  40  62  88 119 160 209 254 298 354
#     4  11  22  37  61  92 125 161 203 253 304 356
#
# _framework density 20.818299
#
# number of rings (size 3 to 8) (size 9 to 14) (size 15 to 20)
#    0.000    1.667    1.667    2.000    2.333    6.333 
#    0.000    4.167    0.000    1.500    0.000   11.667 
#    0.000    0.000    0.000    0.000    0.000    0.000 
#
# Total GULP energy -595238.441824 kJ/mol
# GULP energy per Si atom -12400.800871 kJ/mol
# Density = 2.077092 g / cm^3
# Si number density = 20.818299 Si / 1000 Ang^3
#
#
#
# Elastic Constant Matrix: (Units=GPa)
#
#
# Indices 1 2 3 4 5 6 
#
# 1 131.0802 44.2100 27.9332 0.0000 0.0000 0.0000
# 2 44.2100 97.4985 46.2759 0.0000 0.0000 0.0000
# 3 27.9332 46.2759 69.2400 0.0000 0.0000 0.0000
# 4 0.0000 0.0000 0.0000 -10.0605 0.0000 0.0000
# 5 0.0000 0.0000 0.0000 0.0000 28.9131 0.0000
# 6 0.0000 0.0000 0.0000 0.0000 0.0000 32.6017
#
#
#
# Elastic Compliance Matrix: (Units=1/GPa)
#
#
# Indices 1 2 3 4 5 6 
#
# 1 0.009090 -0.003488 -0.001336 0.000000 0.000000 0.000000
# 2 -0.003488 0.016360 -0.009527 0.000000 0.000000 0.000000
# 3 -0.001336 -0.009527 0.021349 0.000000 0.000000 0.000000
# 4 0.000000 0.000000 0.000000 -0.099398 0.000000 0.000000
# 5 0.000000 0.000000 0.000000 0.000000 0.034586 0.000000
# 6 0.000000 0.000000 0.000000 0.000000 0.000000 0.030673
#
#
# Mechanical properties :
#
#
# Convention : Reuss Voigt Hill
#
# Bulk Modulus (GPa) = 55.25750 59.40632 57.33191
# Shear Modulus (GPa) = 105.49931 22.25083 63.87507
#
# Velocity S-wave (km/s) = 7.12645 3.27281 5.54516
# Velocity P-wave (km/s) = 9.71161 6.54823 8.28235
#
# Compressibility (1/GPa) = 0.01809709
#
# Stress axis : x y z
#
# Youngs Moduli (GPa) = 110.01187 61.12564 46.84102
#
# Poissons Ratio (x) = 0.21318 0.06259
# Poissons Ratio (y) = 0.38367 0.44625
# Poissons Ratio (z) = 0.14700 0.58234
#
# Static dielectric constant tensor:
#      x y z
#    x 4.018260 0.000000 0.000000 
#    y 0.000000 3.702280 0.000000 
#    z 0.000000 0.000000 3.517620 
# 
# 
# High freq. dielectric constant tensor:
#      x y z
#    x 1.831750 0.000000 0.000000 
#    y 0.000000 1.810780 0.000000 
#    z 0.000000 0.000000 1.794780 
# 
# From -- ./inp_files/62577.got.cif
#   From: 2010.03.12/outbox.cif.g09.slc.cpg/sg65_32_cif.got.tgz:62577.got - 2010.04.10 20:52:16.
