data_PCOD8273062
_publ_section_title
;
Structure prediction by ZEFSAII (Michael W. Deem and Ramdas Pophale) SiO2 
 PCOD8273062
Probable space group: C M M M
;
_chemical_formula_sum "Si O2"
_cell_formula_units_Z 64
_cell_length_a 8.888216
_cell_length_b 30.620310
_cell_length_c 12.439511
_cell_angle_alpha 90.000000
_cell_angle_beta 90.000000
_cell_angle_gamma 90.000000
_cell_volume 3385.536434
_symmetry_space_group_name_H-M "C M M M"
_symmetry_group_IT_number 65
_symmetry_cell_setting 'orthorhombic'
loop_
_space_group_symop_operation_xyz
x,y,z
-x,-y,z
x,-y,-z
-x,y,-z
-x,-y,-z
x,y,-z
-x,y,z
x,-y,z
1/2+x,1/2+y,z
1/2-x,1/2-y,z
1/2+x,1/2-y,-z
1/2-x,1/2+y,-z
1/2-x,1/2-y,-z
1/2+x,1/2+y,-z
1/2-x,1/2+y,z
1/2+x,1/2-y,z
loop_
_atom_site_type_symbol
_atom_site_label
_atom_site_fract_x
_atom_site_fract_y
_atom_site_fract_z
Si Si1 0.178880 0.948347 0.000000
Si Si2 0.337973 0.210094 0.877394
Si Si3 0.677464 0.588111 0.623254
Si Si4 0.320865 0.115380 0.171269
Si Si5 0.333246 0.000000 0.625467
O O1 0.244243 0.924301 0.105945
O O2 0.000000 0.943583 0.000000
O O3 0.224767 0.000000 0.000000
O O4 0.500000 0.207151 0.819251
O O5 0.250000 0.250000 0.819237
O O6 0.263327 0.162054 0.873839
O O7 0.359778 0.223884 0.000000
O O8 0.721367 0.599225 0.500000
O O9 0.500000 0.591517 0.640229
O O10 0.766834 0.618981 0.704831
O O11 0.733280 0.540665 0.659776
O O12 0.500000 0.109573 0.161577
O O13 0.500000 0.000000 0.681055
O O14 0.360012 0.000000 0.500000
#
# Coordination Sequence:
#
# PCOD8273062 Si02
#       5
#     8  16  16  16   8
#     4  11  25  41  56  79 114 155 194 229 273 330
#     4   9  18  34  55  82 111 139 176 224 277 330
#     4  10  21  36  54  78 109 145 187 234 279 325
#     4  11  22  38  59  83 114 148 187 231 276 333
#     4   9  17  31  51  74  99 134 183 231 274 317
#
# _framework density 18.903946999999999
#
# number of rings (size 3 to 8) (size 9 to 14) (size 15 to 20)
#    0.000    2.000    1.250    2.250    1.750    6.000 
#    0.000    0.000    0.000    0.750    0.000    0.000 
#    0.000    0.000    0.000    0.000    0.000    0.000 
#
# Total GULP energy -396455.581152 kJ/mol
# GULP energy per Si atom -12389.236911 kJ/mol
# Density = 1.886092 g / cm^3
# Si number density = 18.903947 Si / 1000 Ang^3
#
#
#
# Elastic Constant Matrix: (Units=GPa)
#
#
# Indices 1 2 3 4 5 6 
#
# 1 85.1534 55.1953 37.0495 0.0000 0.0000 0.0000
# 2 55.1953 138.2476 35.0590 0.0000 0.0000 0.0000
# 3 37.0495 35.0590 84.3984 0.0000 0.0000 0.0000
# 4 0.0000 0.0000 0.0000 26.7915 0.0000 0.0000
# 5 0.0000 0.0000 0.0000 0.0000 28.4291 0.0000
# 6 0.0000 0.0000 0.0000 0.0000 0.0000 18.6970
#
#
#
# Elastic Compliance Matrix: (Units=1/GPa)
#
#
# Indices 1 2 3 4 5 6 
#
# 1 0.017832 -0.005739 -0.005444 0.000000 0.000000 0.000000
# 2 -0.005739 0.009932 -0.001606 0.000000 0.000000 0.000000
# 3 -0.005444 -0.001606 0.014906 0.000000 0.000000 0.000000
# 4 0.000000 0.000000 0.000000 0.037325 0.000000 0.000000
# 5 0.000000 0.000000 0.000000 0.000000 0.035175 0.000000
# 6 0.000000 0.000000 0.000000 0.000000 0.000000 0.053484
#
#
# Mechanical properties :
#
#
# Convention : Reuss Voigt Hill
#
# Bulk Modulus (GPa) = 58.51026 62.48966 60.49996
# Shear Modulus (GPa) = 25.00871 26.81658 25.91264
#
# Velocity S-wave (km/s) = 3.64116 3.77048 3.70638
# Velocity P-wave (km/s) = 6.97825 7.21689 7.09857
#
# Compressibility (1/GPa) = 0.01709102
#
# Stress axis : x y z
#
# Youngs Moduli (GPa) = 56.07897 100.68432 67.08823
#
# Poissons Ratio (x) = 0.57781 0.36523
# Poissons Ratio (y) = 0.32183 0.10778
# Poissons Ratio (z) = 0.30530 0.16175
#
# Static dielectric constant tensor:
#      x y z
#    x 3.710230 0.000000 0.000000 
#    y 0.000000 6.070610 0.000000 
#    z 0.000000 0.000000 3.324290 
# 
# 
# High freq. dielectric constant tensor:
#      x y z
#    x 1.743690 0.000000 0.000000 
#    y 0.000000 1.727730 0.000000 
#    z 0.000000 0.000000 1.710160 
# 
# From -- ./inp_files/20931.got.cif
#   From: 2010.03.12/outbox.cif.g09.slc.cpg/sg65_11_cif.got.tgz:20931.got - 2010.04.10 20:52:16.
