data_PCOD8273496
_publ_section_title
;
Structure prediction by ZEFSAII (Michael W. Deem and Ramdas Pophale) SiO2 
 PCOD8273496
Probable space group: C M M M
;
_chemical_formula_sum "Si O2"
_cell_formula_units_Z 88
_cell_length_a 8.404217
_cell_length_b 20.867596
_cell_length_c 24.130889
_cell_angle_alpha 90.000000
_cell_angle_beta 90.000000
_cell_angle_gamma 90.000000
_cell_volume 4231.974085
_symmetry_space_group_name_H-M "C M M M"
_symmetry_group_IT_number 65
_symmetry_cell_setting 'orthorhombic'
loop_
_space_group_symop_operation_xyz
x,y,z
-x,-y,z
x,-y,-z
-x,y,-z
-x,-y,-z
x,y,-z
-x,y,z
x,-y,z
1/2+x,1/2+y,z
1/2-x,1/2-y,z
1/2+x,1/2-y,-z
1/2-x,1/2+y,-z
1/2-x,1/2-y,-z
1/2+x,1/2+y,-z
1/2-x,1/2+y,z
1/2+x,1/2-y,z
loop_
_atom_site_type_symbol
_atom_site_label
_atom_site_fract_x
_atom_site_fract_y
_atom_site_fract_z
Si Si1 0.676505 0.685363 0.678043
Si Si2 0.000000 0.568255 0.435598
Si Si3 0.823086 0.858999 0.437622
Si Si4 0.685326 0.572549 0.138436
Si Si5 0.186299 0.683161 0.062061
Si Si6 0.684963 0.927851 0.743291
O O1 0.500000 0.678144 0.702207
O O2 0.750000 0.750000 0.703598
O O3 0.672980 0.693790 0.610899
O O4 0.774313 0.622251 0.694909
O O5 0.831726 0.600213 0.420199
O O6 0.000000 0.500000 0.404048
O O7 0.000000 0.556987 0.500000
O O8 0.799319 0.830120 0.500000
O O9 0.000000 0.894200 0.436162
O O10 0.500000 0.576939 0.126986
O O11 0.747875 0.500000 0.127047
O O12 0.770322 0.621825 0.098128
O O13 0.720130 0.591794 0.201686
O O14 0.250000 0.750000 0.088074
O O15 0.000000 0.688722 0.059819
O O16 0.257013 0.674047 0.000000
O O17 0.500000 0.923692 0.757109
O O18 0.732144 0.000000 0.724181
#
# Coordination Sequence:
#
# PCOD8273496 Si02
#       6
#    16   8  16  16  16  16
#     4  11  24  40  61  88 119 153 195 247 299 356
#     4   9  18  32  54  82 112 150 191 233 282 346
#     4   9  20  38  57  82 118 156 195 243 300 359
#     4  10  21  38  61  88 119 155 198 247 296 351
#     4  10  21  37  58  86 122 162 203 247 295 349
#     4  10  22  41  64  88 117 154 196 244 299 359
#
# _framework density 20.794077999999999
#
# number of rings (size 3 to 8) (size 9 to 14) (size 15 to 20)
#    0.000    2.091    0.000    2.182    2.545    5.818 
#    0.000    9.091    0.000    0.000    0.000    0.000 
#    0.000    0.000    0.000    0.000    0.000    0.000 
#
# Total GULP energy -545108.151402 kJ/mol
# GULP energy per Si atom -12388.821623 kJ/mol
# Density = 2.074675 g / cm^3
# Si number density = 20.794078 Si / 1000 Ang^3
#
#
#
# Elastic Constant Matrix: (Units=GPa)
#
#
# Indices 1 2 3 4 5 6 
#
# 1 109.6379 40.2481 11.0539 0.0000 0.0000 0.0000
# 2 40.2481 126.6586 54.6212 0.0000 0.0000 0.0000
# 3 11.0539 54.6212 84.8971 0.0000 0.0000 0.0000
# 4 0.0000 0.0000 0.0000 20.8878 0.0000 0.0000
# 5 0.0000 0.0000 0.0000 0.0000 27.7880 0.0000
# 6 0.0000 0.0000 0.0000 0.0000 0.0000 31.1179
#
#
#
# Elastic Compliance Matrix: (Units=1/GPa)
#
#
# Indices 1 2 3 4 5 6 
#
# 1 0.010395 -0.003764 0.001068 0.000000 0.000000 0.000000
# 2 -0.003764 0.012290 -0.007417 0.000000 0.000000 0.000000
# 3 0.001068 -0.007417 0.016412 0.000000 0.000000 0.000000
# 4 0.000000 0.000000 0.000000 0.047875 0.000000 0.000000
# 5 0.000000 0.000000 0.000000 0.000000 0.035987 0.000000
# 6 0.000000 0.000000 0.000000 0.000000 0.000000 0.032136
#
#
# Mechanical properties :
#
#
# Convention : Reuss Voigt Hill
#
# Bulk Modulus (GPa) = 52.99069 59.22667 56.10868
# Shear Modulus (GPa) = 27.53156 30.31011 28.92083
#
# Velocity S-wave (km/s) = 3.64264 3.82204 3.73342
# Velocity P-wave (km/s) = 6.57500 6.92976 6.75471
#
# Compressibility (1/GPa) = 0.01887124
#
# Stress axis : x y z
#
# Youngs Moduli (GPa) = 96.20072 81.36824 60.93161
#
# Poissons Ratio (x) = 0.30625 -0.06508
# Poissons Ratio (y) = 0.36208 0.45193
# Poissons Ratio (z) = -0.10275 0.60351
#
# Static dielectric constant tensor:
#      x y z
#    x 4.135670 0.000000 0.000000 
#    y 0.000000 3.671330 0.000000 
#    z 0.000000 0.000000 3.694410 
# 
# 
# High freq. dielectric constant tensor:
#      x y z
#    x 1.834150 0.000000 0.000000 
#    y 0.000000 1.796760 0.000000 
#    z 0.000000 0.000000 1.805540 
# 
# From -- ./inp_files/67452.got.cif
#   From: 2010.03.12/outbox.cif.g09.slc.cpg/sg65_34_cif.got.tgz:67452.got - 2010.04.10 20:52:16.
