data_PCOD8273884
_publ_section_title
;
Structure prediction by ZEFSAII (Michael W. Deem and Ramdas Pophale) SiO2 
 PCOD8273884
Probable space group: C M M M
;
_chemical_formula_sum "Si O2"
_cell_formula_units_Z 64
_cell_length_a 15.053785
_cell_length_b 27.605270
_cell_length_c 7.416023
_cell_angle_alpha 90.000000
_cell_angle_beta 90.000000
_cell_angle_gamma 90.000000
_cell_volume 3081.830695
_symmetry_space_group_name_H-M "C M M M"
_symmetry_group_IT_number 65
_symmetry_cell_setting 'orthorhombic'
loop_
_space_group_symop_operation_xyz
x,y,z
-x,-y,z
x,-y,-z
-x,y,-z
-x,-y,-z
x,y,-z
-x,y,z
x,-y,z
1/2+x,1/2+y,z
1/2-x,1/2-y,z
1/2+x,1/2-y,-z
1/2-x,1/2+y,-z
1/2-x,1/2-y,-z
1/2+x,1/2+y,-z
1/2-x,1/2+y,z
1/2+x,1/2-y,z
loop_
_atom_site_type_symbol
_atom_site_label
_atom_site_fract_x
_atom_site_fract_y
_atom_site_fract_z
Si Si1 0.403589 0.627451 0.500000
Si Si2 0.729920 0.806024 0.500000
Si Si3 0.351748 0.445324 0.791766
Si Si4 0.850958 0.551606 0.212629
Si Si5 0.901306 0.345283 0.210665
O O1 0.500000 0.654591 0.500000
O O2 0.322868 0.665376 0.500000
O O3 0.404701 0.593473 0.324222
O O4 0.750000 0.750000 0.500000
O O5 0.672512 0.816667 0.678356
O O6 0.387576 0.500000 0.760036
O O7 0.250302 0.442056 0.726475
O O8 0.362313 0.430729 0.000000
O O9 0.887906 0.500000 0.291475
O O10 0.904668 0.598626 0.278384
O O11 0.856212 0.548147 0.000000
O O12 0.000000 0.323714 0.244314
O O13 0.875161 0.341875 0.000000
#
# Coordination Sequence:
#
# PCOD8273884 Si02
#       5
#     8   8  16  16  16
#     4  12  25  39  60  89 118 158 211 256 299 361
#     4  12  27  46  67  85 117 160 203 264 323 366
#     4   9  18  35  59  87 124 166 203 242 291 352
#     4   8  14  28  55  90 126 163 197 229 278 351
#     4  10  21  40  68  98 126 158 198 244 301 370
#
# _framework density 20.766877000000001
#
# number of rings (size 3 to 8) (size 9 to 14) (size 15 to 20)
#    0.000    2.250    2.500    2.250    0.000    3.500 
#    0.000    4.375    0.000    1.500    0.000    0.000 
#    0.000    0.000    0.000    0.000    0.000    0.000 
#
# Total GULP energy -396504.420561 kJ/mol
# GULP energy per Si atom -12390.763143 kJ/mol
# Density = 2.071961 g / cm^3
# Si number density = 20.766877 Si / 1000 Ang^3
#
#
#
# Elastic Constant Matrix: (Units=GPa)
#
#
# Indices 1 2 3 4 5 6 
#
# 1 134.2511 64.3402 52.3421 0.0000 0.0000 0.0000
# 2 64.3402 128.3725 51.4161 0.0000 0.0000 0.0000
# 3 52.3421 51.4161 101.4876 0.0000 0.0000 0.0000
# 4 0.0000 0.0000 0.0000 20.7167 0.0000 0.0000
# 5 0.0000 0.0000 0.0000 0.0000 16.9175 0.0000
# 6 0.0000 0.0000 0.0000 0.0000 0.0000 9.2726
#
#
#
# Elastic Compliance Matrix: (Units=1/GPa)
#
#
# Indices 1 2 3 4 5 6 
#
# 1 0.010721 -0.003963 -0.003522 0.000000 0.000000 0.000000
# 2 -0.003963 0.011238 -0.003649 0.000000 0.000000 0.000000
# 3 -0.003522 -0.003649 0.013519 0.000000 0.000000 0.000000
# 4 0.000000 0.000000 0.000000 0.048270 0.000000 0.000000
# 5 0.000000 0.000000 0.000000 0.000000 0.059111 0.000000
# 6 0.000000 0.000000 0.000000 0.000000 0.000000 0.107845
#
#
# Mechanical properties :
#
#
# Convention : Reuss Voigt Hill
#
# Bulk Modulus (GPa) = 75.70388 77.81202 76.75795
# Shear Modulus (GPa) = 18.02620 22.44886 20.23753
#
# Velocity S-wave (km/s) = 2.94943 3.29141 3.12510
# Velocity P-wave (km/s) = 6.93773 7.21077 7.07557
#
# Compressibility (1/GPa) = 0.01320936
#
# Stress axis : x y z
#
# Youngs Moduli (GPa) = 93.27525 88.98629 73.97207
#
# Poissons Ratio (x) = 0.35264 0.26050
# Poissons Ratio (y) = 0.36963 0.26996
# Poissons Ratio (z) = 0.32848 0.32475
#
# Static dielectric constant tensor:
#      x y z
#    x 3.787100 0.000000 0.000000 
#    y 0.000000 3.489990 0.000000 
#    z 0.000000 0.000000 3.689180 
# 
# 
# High freq. dielectric constant tensor:
#      x y z
#    x 1.808180 0.000000 0.000000 
#    y 0.000000 1.782410 0.000000 
#    z 0.000000 0.000000 1.809640 
# 
# From -- ./inp_files/6760.got.cif
#   From: 2010.03.12/outbox.cif.g09.slc.cpg/sg65_4_cif.got.tgz:6760.got - 2010.04.10 20:52:16.
