data_PCOD8273155
_publ_section_title
;
Structure prediction by ZEFSAII (Michael W. Deem and Ramdas Pophale) SiO2 
 PCOD8273155
Probable space group: C M M M
;
_chemical_formula_sum "Si O2"
_cell_formula_units_Z 90
_cell_length_a 23.952902
_cell_length_b 21.890395
_cell_length_c 8.970116
_cell_angle_alpha 90.000000
_cell_angle_beta 90.000000
_cell_angle_gamma 90.000000
_cell_volume 4703.377044
_symmetry_space_group_name_H-M "C M M M"
_symmetry_group_IT_number 65
_symmetry_cell_setting 'orthorhombic'
loop_
_space_group_symop_operation_xyz
x,y,z
-x,-y,z
x,-y,-z
-x,y,-z
-x,-y,-z
x,y,-z
-x,y,z
x,-y,z
1/2+x,1/2+y,z
1/2-x,1/2-y,z
1/2+x,1/2-y,-z
1/2-x,1/2+y,-z
1/2-x,1/2-y,-z
1/2+x,1/2+y,-z
1/2-x,1/2+y,z
1/2+x,1/2-y,z
loop_
_atom_site_type_symbol
_atom_site_label
_atom_site_fract_x
_atom_site_fract_y
_atom_site_fract_z
Si Si1 0.500000 0.500000 0.500000
Si Si2 0.611015 0.148143 0.326189
Si Si3 0.388583 0.500000 0.661714
Si Si4 0.500000 0.854559 0.166977
Si Si5 0.796816 0.570744 0.829172
Si Si6 0.387702 0.710688 0.675608
Si Si7 0.828628 0.893508 0.824532
Si Si8 0.000000 0.209403 0.831043
O O1 0.454897 0.500000 0.635221
O O2 0.601130 0.140647 0.500000
O O3 0.555687 0.121423 0.247630
O O4 0.664350 0.110177 0.277112
O O5 0.621745 0.218642 0.283965
O O6 0.357006 0.500000 0.500000
O O7 0.372483 0.440049 0.754216
O O8 0.500000 0.782023 0.170410
O O9 0.500000 0.880632 0.000000
O O10 0.809477 0.500000 0.800989
O O11 0.733333 0.584465 0.786262
O O12 0.808737 0.588861 0.000000
O O13 0.389009 0.698857 0.500000
O O14 0.337577 0.673097 0.751126
O O15 0.445785 0.685597 0.743487
O O16 0.838862 0.889651 0.000000
O O17 0.000000 0.184199 0.000000
#
# Coordination Sequence:
#
# PCOD8273155 Si02
#       8
#     2  16   8   8  16  16  16   8
#     4   8  24  40  62  88 120 152 202 250 302 360
#     4  10  21  37  59  89 124 154 195 243 296 356
#     4  10  21  41  61  83 117 155 195 246 300 354
#     4   9  17  33  59  85 117 158 190 232 292 349
#     4  10  22  41  62  84 113 153 201 249 296 354
#     4  10  21  36  55  85 121 157 191 241 300 356
#     4  11  22  39  62  86 116 156 205 250 294 352
#     4   9  17  32  54  82 112 151 200 236 282 352
#
# _framework density 19.135186999999998
#
# number of rings (size 3 to 8) (size 9 to 14) (size 15 to 20)
#    0.267    1.778    0.889    2.400    0.000    7.467 
#    0.000    5.778    0.000    2.667    0.000    0.000 
#    0.000    0.000    0.000    0.000    0.000    0.000 
#
# Total GULP energy -557591.269874 kJ/mol
# GULP energy per Si atom -12390.917108 kJ/mol
# Density = 1.909163 g / cm^3
# Si number density = 19.135187 Si / 1000 Ang^3
#
#
#
# Elastic Constant Matrix: (Units=GPa)
#
#
# Indices 1 2 3 4 5 6 
#
# 1 104.3210 49.5718 56.9507 0.0000 0.0000 0.0000
# 2 49.5718 74.0496 47.0765 0.0000 0.0000 0.0000
# 3 56.9507 47.0765 112.1453 0.0000 0.0000 0.0000
# 4 0.0000 0.0000 0.0000 32.0854 0.0000 0.0000
# 5 0.0000 0.0000 0.0000 0.0000 37.2091 0.0000
# 6 0.0000 0.0000 0.0000 0.0000 0.0000 20.9355
#
#
#
# Elastic Compliance Matrix: (Units=1/GPa)
#
#
# Indices 1 2 3 4 5 6 
#
# 1 0.015806 -0.007472 -0.004890 0.000000 0.000000 0.000000
# 2 -0.007472 0.021953 -0.005421 0.000000 0.000000 0.000000
# 3 -0.004890 -0.005421 0.013676 0.000000 0.000000 0.000000
# 4 0.000000 0.000000 0.000000 0.031167 0.000000 0.000000
# 5 0.000000 0.000000 0.000000 0.000000 0.026875 0.000000
# 6 0.000000 0.000000 0.000000 0.000000 0.000000 0.047766
#
#
# Mechanical properties :
#
#
# Convention : Reuss Voigt Hill
#
# Bulk Modulus (GPa) = 63.01778 66.41268 64.71523
# Shear Modulus (GPa) = 25.23993 27.17379 26.20686
#
# Velocity S-wave (km/s) = 3.63579 3.77250 3.70478
# Velocity P-wave (km/s) = 7.11546 7.33200 7.22454
#
# Compressibility (1/GPa) = 0.01586854
#
# Stress axis : x y z
#
# Youngs Moduli (GPa) = 63.26645 45.55178 73.12175
#
# Poissons Ratio (x) = 0.34039 0.35757
# Poissons Ratio (y) = 0.47276 0.39637
# Poissons Ratio (z) = 0.30937 0.24692
#
# Static dielectric constant tensor:
#      x y z
#    x 3.510580 0.000000 0.000000 
#    y 0.000000 3.351370 0.000000 
#    z 0.000000 0.000000 3.608660 
# 
# 
# High freq. dielectric constant tensor:
#      x y z
#    x 1.747800 0.000000 0.000000 
#    y 0.000000 1.723630 0.000000 
#    z 0.000000 0.000000 1.759500 
# 
# From -- ./inp_files/14132.got.cif
#   From: 2010.03.12/outbox.cif.g09.slc.cpg/sg65_8_cif.got.tgz:14132.got - 2010.04.10 20:52:16.
