data_PCOD8273252
_publ_section_title
;
Structure prediction by ZEFSAII (Michael W. Deem and Ramdas Pophale) SiO2 
 PCOD8273252
Probable space group: C M M M
;
_chemical_formula_sum "Si O2"
_cell_formula_units_Z 88
_cell_length_a 20.223980
_cell_length_b 24.961051
_cell_length_c 9.214856
_cell_angle_alpha 90.000000
_cell_angle_beta 90.000000
_cell_angle_gamma 90.000000
_cell_volume 4651.768009
_symmetry_space_group_name_H-M "C M M M"
_symmetry_group_IT_number 65
_symmetry_cell_setting 'orthorhombic'
loop_
_space_group_symop_operation_xyz
x,y,z
-x,-y,z
x,-y,-z
-x,y,-z
-x,-y,-z
x,y,-z
-x,y,z
x,-y,z
1/2+x,1/2+y,z
1/2-x,1/2-y,z
1/2+x,1/2-y,-z
1/2-x,1/2+y,-z
1/2-x,1/2-y,-z
1/2+x,1/2+y,-z
1/2-x,1/2+y,z
1/2+x,1/2-y,z
loop_
_atom_site_type_symbol
_atom_site_label
_atom_site_fract_x
_atom_site_fract_y
_atom_site_fract_z
Si Si1 0.312145 0.783156 0.168935
Si Si2 0.000000 0.561470 0.827432
Si Si3 0.283666 0.000000 0.827968
Si Si4 0.859955 0.603349 0.826745
Si Si5 0.866192 0.000000 0.828120
Si Si6 0.578114 0.401094 0.338270
Si Si7 0.575699 0.299035 0.165938
O O1 0.250000 0.750000 0.238975
O O2 0.325513 0.842391 0.236275
O O3 0.380376 0.752534 0.197236
O O4 0.296254 0.789981 0.000000
O O5 0.935472 0.594307 0.772737
O O6 0.000000 0.500000 0.767711
O O7 0.000000 0.558261 0.000000
O O8 0.318133 0.053277 0.766336
O O9 0.208845 0.000000 0.775029
O O10 0.289537 0.000000 0.000000
O O11 0.859169 0.606045 0.000000
O O12 0.901050 0.051748 0.766109
O O13 0.873429 0.000000 0.000000
O O14 0.608079 0.407713 0.500000
O O15 0.500000 0.400553 0.346106
O O16 0.603245 0.345883 0.268511
O O17 0.500000 0.283750 0.201136
O O18 0.583143 0.318439 0.000000
#
# Coordination Sequence:
#
# PCOD8273252 Si02
#       7
#    16   8   8  16   8  16  16
#     4   9  18  28  43  66  97 135 171 209 256 308
#     4   9  14  22  38  60  90 130 170 207 250 305
#     4   9  18  29  42  68 102 134 165 202 252 313
#     4   9  16  26  40  62  95 134 173 207 249 307
#     4  11  22  32  52  80 105 132 167 210 256 306
#     4  10  21  37  55  74  99 134 173 211 256 309
#     4   9  18  32  50  75 104 132 169 215 257 300
#
# _framework density 18.917538
#
# number of rings (size 3 to 8) (size 9 to 14) (size 15 to 20)
#    0.000    2.636    0.909    1.091    3.818    2.182 
#    0.000    0.000    0.000    0.545    0.000    0.000 
#    0.000    0.000    0.000    4.000    0.000    4.909 
#
# Total GULP energy -545375.164637 kJ/mol
# GULP energy per Si atom -12394.890105 kJ/mol
# Density = 1.887448 g / cm^3
# Si number density = 18.917538 Si / 1000 Ang^3
#
#
#
# Elastic Constant Matrix: (Units=GPa)
#
#
# Indices 1 2 3 4 5 6 
#
# 1 44.6518 56.3741 11.1218 0.0000 0.0000 0.0000
# 2 56.3741 164.0998 25.2409 0.0000 0.0000 0.0000
# 3 11.1218 25.2409 42.0408 0.0000 0.0000 0.0000
# 4 0.0000 0.0000 0.0000 5.8471 0.0000 0.0000
# 5 0.0000 0.0000 0.0000 0.0000 6.3975 0.0000
# 6 0.0000 0.0000 0.0000 0.0000 0.0000 37.6949
#
#
#
# Elastic Compliance Matrix: (Units=1/GPa)
#
#
# Indices 1 2 3 4 5 6 
#
# 1 0.039796 -0.013278 -0.002556 0.000000 0.000000 0.000000
# 2 -0.013278 0.011144 -0.003178 0.000000 0.000000 0.000000
# 3 -0.002556 -0.003178 0.026371 0.000000 0.000000 0.000000
# 4 0.000000 0.000000 0.000000 0.171025 0.000000 0.000000
# 5 0.000000 0.000000 0.000000 0.000000 0.156312 0.000000
# 6 0.000000 0.000000 0.000000 0.000000 0.000000 0.026529
#
#
# Mechanical properties :
#
#
# Convention : Reuss Voigt Hill
#
# Bulk Modulus (GPa) = 25.45398 48.47400 36.96399
# Shear Modulus (GPa) = 10.36704 20.52494 15.44599
#
# Velocity S-wave (km/s) = 2.34351 3.29746 2.86053
# Velocity P-wave (km/s) = 4.56148 6.33854 5.52197
#
# Compressibility (1/GPa) = 0.03928659
#
# Stress axis : x y z
#
# Youngs Moduli (GPa) = 25.12793 89.73219 37.92087
#
# Poissons Ratio (x) = 1.19149 0.09692
# Poissons Ratio (y) = 0.33366 0.12052
# Poissons Ratio (z) = 0.06422 0.28518
#
# Static dielectric constant tensor:
#      x y z
#    x 3.635710 0.000000 0.000000 
#    y 0.000000 3.661940 0.000000 
#    z 0.000000 0.000000 3.034410 
# 
# 
# High freq. dielectric constant tensor:
#      x y z
#    x 1.742380 0.000000 0.000000 
#    y 0.000000 1.748200 0.000000 
#    z 0.000000 0.000000 1.665690 
# 
# From -- ./inp_files/11911.got.cif
#   From: 2010.03.12/outbox.cif.g09.slc.cpg/sg65_6_cif.got.tgz:11911.got - 2010.04.10 20:52:16.
