data_PCOD8273564
_publ_section_title
;
Structure prediction by ZEFSAII (Michael W. Deem and Ramdas Pophale) SiO2 
 PCOD8273564
Probable space group: C M M M
;
_chemical_formula_sum "Si O2"
_cell_formula_units_Z 100
_cell_length_a 15.500543
_cell_length_b 17.369076
_cell_length_c 19.937782
_cell_angle_alpha 90.000000
_cell_angle_beta 90.000000
_cell_angle_gamma 90.000000
_cell_volume 5367.851229
_symmetry_space_group_name_H-M "C M M M"
_symmetry_group_IT_number 65
_symmetry_cell_setting 'orthorhombic'
loop_
_space_group_symop_operation_xyz
x,y,z
-x,-y,z
x,-y,-z
-x,y,-z
-x,-y,-z
x,y,-z
-x,y,z
x,-y,z
1/2+x,1/2+y,z
1/2-x,1/2-y,z
1/2+x,1/2-y,-z
1/2-x,1/2+y,-z
1/2-x,1/2-y,-z
1/2+x,1/2+y,-z
1/2-x,1/2+y,z
1/2+x,1/2-y,z
loop_
_atom_site_type_symbol
_atom_site_label
_atom_site_fract_x
_atom_site_fract_y
_atom_site_fract_z
Si Si1 0.330453 0.913909 0.298276
Si Si2 0.500000 0.807419 0.500000
Si Si3 0.662603 0.699356 0.500000
Si Si4 0.739381 0.161458 0.172101
Si Si5 0.663851 0.413137 0.625006
Si Si6 0.403491 0.090578 0.077114
Si Si7 0.000000 0.410545 0.371593
Si Si8 0.402924 0.590731 0.769342
O O1 0.305071 0.851213 0.243591
O O2 0.265485 0.914613 0.360610
O O3 0.420565 0.886694 0.326100
O O4 0.334071 0.000000 0.265883
O O5 0.584997 0.757682 0.500000
O O6 0.500000 0.862174 0.437422
O O7 0.750000 0.750000 0.500000
O O8 0.650133 0.645774 0.435188
O O9 0.750000 0.250000 0.155637
O O10 0.676674 0.127209 0.116020
O O11 0.835783 0.125233 0.176395
O O12 0.632525 0.500000 0.605453
O O13 0.615407 0.383361 0.692429
O O14 0.500000 0.116992 0.102182
O O15 0.396459 0.000000 0.086172
O O16 0.392946 0.114695 0.000000
O O17 0.000000 0.500000 0.391185
O O18 0.500000 0.615882 0.789271
O O19 0.390287 0.500000 0.772397
#
# Coordination Sequence:
#
# PCOD8273564 Si02
#       8
#    16   4   8  16  16  16   8  16
#     4   9  19  36  57  81 104 141 188 230 276 331
#     4  12  27  38  51  80 106 142 178 224 289 360
#     4  12  25  38  53  76 108 138 174 226 293 346
#     4  11  22  34  54  88 123 151 182 224 287 347
#     4   9  19  37  57  75  99 137 186 231 278 338
#     4   9  19  37  62  89 118 156 199 239 275 318
#     4  10  21  38  58  77 104 142 186 231 279 340
#     4   9  19  37  59  78 103 144 192 239 277 324
#
# _framework density 18.629428999999998
#
# number of rings (size 3 to 8) (size 9 to 14) (size 15 to 20)
#    0.000    2.240    0.000    4.200    2.240    6.080 
#    0.000    3.600    0.000    0.480    0.000    2.240 
#    0.000    0.000    0.000    0.000    0.000    0.000 
#
# Total GULP energy -619719.709267 kJ/mol
# GULP energy per Si atom -12394.394185 kJ/mol
# Density = 1.858703 g / cm^3
# Si number density = 18.629429 Si / 1000 Ang^3
#
#
#
# Elastic Constant Matrix: (Units=GPa)
#
#
# Indices 1 2 3 4 5 6 
#
# 1 172.4287 49.0601 62.4362 0.0000 0.0000 0.0000
# 2 49.0601 65.7299 44.7469 0.0000 0.0000 0.0000
# 3 62.4362 44.7469 82.5217 0.0000 0.0000 0.0000
# 4 0.0000 0.0000 0.0000 12.8417 0.0000 0.0000
# 5 0.0000 0.0000 0.0000 0.0000 24.0813 0.0000
# 6 0.0000 0.0000 0.0000 0.0000 0.0000 25.7319
#
#
#
# Elastic Compliance Matrix: (Units=1/GPa)
#
#
# Indices 1 2 3 4 5 6 
#
# 1 0.008360 -0.003065 -0.004663 0.000000 0.000000 0.000000
# 2 -0.003065 0.025240 -0.011367 0.000000 0.000000 0.000000
# 3 -0.004663 -0.011367 0.021810 0.000000 0.000000 0.000000
# 4 0.000000 0.000000 0.000000 0.077871 0.000000 0.000000
# 5 0.000000 0.000000 0.000000 0.000000 0.041526 0.000000
# 6 0.000000 0.000000 0.000000 0.000000 0.000000 0.038862
#
#
# Mechanical properties :
#
#
# Convention : Reuss Voigt Hill
#
# Bulk Modulus (GPa) = 58.07527 70.35184 64.21356
# Shear Modulus (GPa) = 19.40992 23.49347 21.45169
#
# Velocity S-wave (km/s) = 3.23134 3.55504 3.39705
# Velocity P-wave (km/s) = 6.72040 7.39574 7.06614
#
# Compressibility (1/GPa) = 0.01721903
#
# Stress axis : x y z
#
# Youngs Moduli (GPa) = 119.61426 39.61965 45.85097
#
# Poissons Ratio (x) = 0.12145 0.21381
# Poissons Ratio (y) = 0.36667 0.52118
# Poissons Ratio (z) = 0.55778 0.45035
#
# Static dielectric constant tensor:
#      x y z
#    x 3.648700 0.000000 0.000000 
#    y 0.000000 3.363710 0.000000 
#    z 0.000000 0.000000 3.219960 
# 
# 
# High freq. dielectric constant tensor:
#      x y z
#    x 1.740260 0.000000 0.000000 
#    y 0.000000 1.714770 0.000000 
#    z 0.000000 0.000000 1.702300 
# 
# From -- ./inp_files/62922.got.cif
#   From: 2010.03.12/outbox.cif.g09.slc.cpg/sg65_32_cif.got.tgz:62922.got - 2010.04.10 20:52:16.
