data_PCOD8273831
_publ_section_title
;
Structure prediction by ZEFSAII (Michael W. Deem and Ramdas Pophale) SiO2 
 PCOD8273831
Probable space group: C M M M
;
_chemical_formula_sum "Si O2"
_cell_formula_units_Z 56
_cell_length_a 26.583216
_cell_length_b 9.914895
_cell_length_c 11.589548
_cell_angle_alpha 90.000000
_cell_angle_beta 90.000000
_cell_angle_gamma 90.000000
_cell_volume 3054.654795
_symmetry_space_group_name_H-M "C M M M"
_symmetry_group_IT_number 65
_symmetry_cell_setting 'orthorhombic'
loop_
_space_group_symop_operation_xyz
x,y,z
-x,-y,z
x,-y,-z
-x,y,-z
-x,-y,-z
x,y,-z
-x,y,z
x,-y,z
1/2+x,1/2+y,z
1/2-x,1/2-y,z
1/2+x,1/2-y,-z
1/2-x,1/2+y,-z
1/2-x,1/2-y,-z
1/2+x,1/2+y,-z
1/2-x,1/2+y,z
1/2+x,1/2-y,z
loop_
_atom_site_type_symbol
_atom_site_label
_atom_site_fract_x
_atom_site_fract_y
_atom_site_fract_z
Si Si1 0.559804 0.500000 0.862322
Si Si2 0.297947 0.842973 0.632926
Si Si3 0.440878 0.000000 0.873871
Si Si4 0.600412 0.243306 0.266792
Si Si5 0.941196 0.347238 0.500000
O O1 0.500000 0.500000 0.835615
O O2 0.588448 0.622643 0.802715
O O3 0.568861 0.500000 0.000000
O O4 0.315966 0.829785 0.500000
O O5 0.250000 0.750000 0.655742
O O6 0.340295 0.783611 0.717660
O O7 0.286137 0.000000 0.661754
O O8 0.423924 0.129223 0.807887
O O9 0.500000 0.000000 0.883706
O O10 0.416026 0.000000 0.000000
O O11 0.574768 0.241830 0.391434
O O12 0.916696 0.500000 0.500000
O O13 0.000000 0.366701 0.500000
#
# Coordination Sequence:
#
# PCOD8273831 Si02
#       5
#     8  16   8  16   8
#     4  11  26  45  62  87 128 175 219 258 300 362
#     4  10  21  39  63  93 126 161 203 252 313 382
#     4  11  22  37  62  91 118 163 219 254 294 370
#     4  12  22  39  63  90 127 165 203 260 315 369
#     4  11  20  33  58  93 129 158 190 251 323 382
#
# _framework density 18.332678000000001
#
# number of rings (size 3 to 8) (size 9 to 14) (size 15 to 20)
#    0.000    1.000    4.286    3.429    2.000    2.857 
#    0.000    1.429    0.000    5.143    0.000    0.000 
#    0.000    0.000    0.000    0.000    0.000    0.000 
#
# Total GULP energy -347149.078591 kJ/mol
# GULP energy per Si atom -12398.181378 kJ/mol
# Density = 1.829095 g / cm^3
# Si number density = 18.332678 Si / 1000 Ang^3
#
#
#
# Elastic Constant Matrix: (Units=GPa)
#
#
# Indices 1 2 3 4 5 6 
#
# 1 94.3772 54.8784 42.4049 0.0000 0.0000 0.0000
# 2 54.8784 161.2029 64.4643 0.0000 0.0000 0.0000
# 3 42.4049 64.4643 133.1742 0.0000 0.0000 0.0000
# 4 0.0000 0.0000 0.0000 49.2293 0.0000 0.0000
# 5 0.0000 0.0000 0.0000 0.0000 35.9334 0.0000
# 6 0.0000 0.0000 0.0000 0.0000 0.0000 36.1706
#
#
#
# Elastic Compliance Matrix: (Units=1/GPa)
#
#
# Indices 1 2 3 4 5 6 
#
# 1 0.013928 -0.003680 -0.002653 0.000000 0.000000 0.000000
# 2 -0.003680 0.008665 -0.003022 0.000000 0.000000 0.000000
# 3 -0.002653 -0.003022 0.009817 0.000000 0.000000 0.000000
# 4 0.000000 0.000000 0.000000 0.020313 0.000000 0.000000
# 5 0.000000 0.000000 0.000000 0.000000 0.027829 0.000000
# 6 0.000000 0.000000 0.000000 0.000000 0.000000 0.027647
#
#
# Mechanical properties :
#
#
# Convention : Reuss Voigt Hill
#
# Bulk Modulus (GPa) = 73.00667 79.13883 76.07275
# Shear Modulus (GPa) = 38.02934 39.40045 38.71489
#
# Velocity S-wave (km/s) = 4.55950 4.64097 4.60041
# Velocity P-wave (km/s) = 8.22365 8.48410 8.35489
#
# Compressibility (1/GPa) = 0.01369738
#
# Stress axis : x y z
#
# Youngs Moduli (GPa) = 71.79736 115.40719 101.86539
#
# Poissons Ratio (x) = 0.42475 0.27029
# Poissons Ratio (y) = 0.26425 0.30788
# Poissons Ratio (z) = 0.19050 0.34881
#
# Static dielectric constant tensor:
#      x y z
#    x 3.437270 0.000000 0.000000 
#    y 0.000000 3.489710 0.000000 
#    z 0.000000 0.000000 3.622110 
# 
# 
# High freq. dielectric constant tensor:
#      x y z
#    x 1.713030 0.000000 0.000000 
#    y 0.000000 1.719550 0.000000 
#    z 0.000000 0.000000 1.711010 
# 
# From -- ./inp_files/20498.got.cif
#   From: 2010.03.12/outbox.cif.g09.slc.cpg/sg65_11_cif.got.tgz:20498.got - 2010.04.10 20:52:16.
