data_PCOD8273330
_publ_section_title
;
Structure prediction by ZEFSAII (Michael W. Deem and Ramdas Pophale) SiO2 
 PCOD8273330
Probable space group: C M M M
;
_chemical_formula_sum "Si O2"
_cell_formula_units_Z 88
_cell_length_a 19.257755
_cell_length_b 7.904763
_cell_length_c 28.907484
_cell_angle_alpha 90.000000
_cell_angle_beta 90.000000
_cell_angle_gamma 90.000000
_cell_volume 4400.528162
_symmetry_space_group_name_H-M "C M M M"
_symmetry_group_IT_number 65
_symmetry_cell_setting 'orthorhombic'
loop_
_space_group_symop_operation_xyz
x,y,z
-x,-y,z
x,-y,-z
-x,y,-z
-x,-y,-z
x,y,-z
-x,y,z
x,-y,z
1/2+x,1/2+y,z
1/2-x,1/2-y,z
1/2+x,1/2-y,-z
1/2-x,1/2+y,-z
1/2-x,1/2-y,-z
1/2+x,1/2+y,-z
1/2-x,1/2+y,z
1/2+x,1/2-y,z
loop_
_atom_site_type_symbol
_atom_site_label
_atom_site_fract_x
_atom_site_fract_y
_atom_site_fract_z
Si Si1 0.423084 0.306207 0.132352
Si Si2 0.579509 0.807942 0.770743
Si Si3 0.326229 0.801633 0.947856
Si Si4 0.322838 0.690529 0.693985
Si Si5 0.171237 0.305253 0.594382
Si Si6 0.419396 0.500000 0.554675
O O1 0.500000 0.234245 0.121898
O O2 0.426101 0.500000 0.146470
O O3 0.390612 0.211206 0.177002
O O4 0.379445 0.286041 0.086159
O O5 0.500000 0.745845 0.770753
O O6 0.620149 0.695888 0.733975
O O7 0.587013 0.000000 0.754623
O O8 0.250000 0.750000 0.931418
O O9 0.336231 0.000000 0.945007
O O10 0.339814 0.735117 0.000000
O O11 0.316910 0.500000 0.675412
O O12 0.250000 0.750000 0.716088
O O13 0.341037 0.804630 0.649657
O O14 0.158222 0.500000 0.577310
O O15 0.250000 0.250000 0.582151
O O16 0.117678 0.172803 0.571657
O O17 0.500000 0.500000 0.571681
O O18 0.415727 0.500000 0.500000
#
# Coordination Sequence:
#
# PCOD8273330 Si02
#       6
#    16  16  16  16  16   8
#     4  10  21  37  56  79 110 146 185 232 282 338
#     4  10  21  37  56  82 115 152 194 237 288 351
#     4  10  21  37  57  80 106 138 178 227 283 342
#     4  11  21  37  61  89 123 158 200 252 301 353
#     4  11  21  42  69  97 130 172 222 270 323 387
#     4  11  26  46  66  98 139 173 217 277 331 383
#
# _framework density 19.997599000000001
#
# number of rings (size 3 to 8) (size 9 to 14) (size 15 to 20)
#    0.000    1.545    1.818    4.364    0.000    6.182 
#    0.000    6.364    0.000    0.000    0.000    0.000 
#    0.000    0.000    0.000    0.000    0.000    0.000 
#
# Total GULP energy -545590.813571 kJ/mol
# GULP energy per Si atom -12399.791218 kJ/mol
# Density = 1.995208 g / cm^3
# Si number density = 19.997599 Si / 1000 Ang^3
#
#
#
# Elastic Constant Matrix: (Units=GPa)
#
#
# Indices 1 2 3 4 5 6 
#
# 1 110.6777 41.4794 62.5415 0.0000 0.0000 0.0000
# 2 41.4794 114.6594 25.5258 0.0000 0.0000 0.0000
# 3 62.5415 25.5258 93.0244 0.0000 0.0000 0.0000
# 4 0.0000 0.0000 0.0000 28.1746 0.0000 0.0000
# 5 0.0000 0.0000 0.0000 0.0000 44.0067 0.0000
# 6 0.0000 0.0000 0.0000 0.0000 0.0000 29.6236
#
#
#
# Elastic Compliance Matrix: (Units=1/GPa)
#
#
# Indices 1 2 3 4 5 6 
#
# 1 0.015839 -0.003578 -0.009667 0.000000 0.000000 0.000000
# 2 -0.003578 0.010097 -0.000365 0.000000 0.000000 0.000000
# 3 -0.009667 -0.000365 0.017349 0.000000 0.000000 0.000000
# 4 0.000000 0.000000 0.000000 0.035493 0.000000 0.000000
# 5 0.000000 0.000000 0.000000 0.000000 0.022724 0.000000
# 6 0.000000 0.000000 0.000000 0.000000 0.000000 0.033757
#
#
# Mechanical properties :
#
#
# Convention : Reuss Voigt Hill
#
# Bulk Modulus (GPa) = 62.24590 64.16166 63.20378
# Shear Modulus (GPa) = 29.79151 32.94864 31.37008
#
# Velocity S-wave (km/s) = 3.86392 4.06350 3.96497
# Velocity P-wave (km/s) = 7.14848 7.36006 7.25504
#
# Compressibility (1/GPa) = 0.01606532
#
# Stress axis : x y z
#
# Youngs Moduli (GPa) = 63.13703 99.03840 57.63962
#
# Poissons Ratio (x) = 0.35433 0.55719
# Poissons Ratio (y) = 0.22589 0.02105
# Poissons Ratio (z) = 0.61033 0.03618
#
# Static dielectric constant tensor:
#      x y z
#    x 3.646090 0.000000 0.000000 
#    y 0.000000 3.708300 0.000000 
#    z 0.000000 0.000000 3.526250 
# 
# 
# High freq. dielectric constant tensor:
#      x y z
#    x 1.771010 0.000000 0.000000 
#    y 0.000000 1.794810 0.000000 
#    z 0.000000 0.000000 1.777650 
# 
# From -- ./inp_files/71008.got.cif
#   From: 2010.03.12/outbox.cif.g09.slc.cpg/sg65_36_cif.got.tgz:71008.got - 2010.04.10 20:52:16.
