data_PCOD8273053
_publ_section_title
;
Structure prediction by ZEFSAII (Michael W. Deem and Ramdas Pophale) SiO2 
 PCOD8273053
Probable space group: C M M M
;
_chemical_formula_sum "Si O2"
_cell_formula_units_Z 80
_cell_length_a 8.988765
_cell_length_b 18.943111
_cell_length_c 24.926535
_cell_angle_alpha 90.000000
_cell_angle_beta 90.000000
_cell_angle_gamma 90.000000
_cell_volume 4244.370063
_symmetry_space_group_name_H-M "C M M M"
_symmetry_group_IT_number 65
_symmetry_cell_setting 'orthorhombic'
loop_
_space_group_symop_operation_xyz
x,y,z
-x,-y,z
x,-y,-z
-x,y,-z
-x,-y,-z
x,y,-z
-x,y,z
x,-y,z
1/2+x,1/2+y,z
1/2-x,1/2-y,z
1/2+x,1/2-y,-z
1/2-x,1/2+y,-z
1/2-x,1/2-y,-z
1/2+x,1/2+y,-z
1/2-x,1/2+y,z
1/2+x,1/2-y,z
loop_
_atom_site_type_symbol
_atom_site_label
_atom_site_fract_x
_atom_site_fract_y
_atom_site_fract_z
Si Si1 0.327033 0.081634 0.736963
Si Si2 0.824212 0.826119 0.351445
Si Si3 0.171070 0.418985 0.437716
Si Si4 0.673856 0.321226 0.939412
Si Si5 0.166355 0.417181 0.859089
O O1 0.500000 0.095323 0.724004
O O2 0.224979 0.130461 0.700581
O O3 0.290472 0.102104 0.798214
O O4 0.287963 0.000000 0.725844
O O5 0.750000 0.750000 0.350876
O O6 0.777302 0.867709 0.404794
O O7 0.000000 0.816647 0.350948
O O8 0.197725 0.403121 0.500000
O O9 0.211241 0.500000 0.424355
O O10 0.000000 0.404313 0.422010
O O11 0.500000 0.309581 0.936739
O O12 0.750000 0.250000 0.918747
O O13 0.717981 0.384009 0.900154
O O14 0.725864 0.339521 0.000000
O O15 0.173773 0.500000 0.867337
O O16 0.000000 0.389620 0.871599
#
# Coordination Sequence:
#
# PCOD8273053 Si02
#       5
#    16  16  16  16  16
#     4   9  19  38  61  82 108 142 179 221 270 325
#     4  12  25  38  55  81 113 148 185 226 272 320
#     4   9  19  38  63  87 112 145 182 220 268 325
#     4  10  21  36  54  77 107 144 183 223 269 321
#     4   9  19  36  58  83 109 140 178 220 269 323
#
# _framework density 18.848497999999999
#
# number of rings (size 3 to 8) (size 9 to 14) (size 15 to 20)
#    0.000    2.200    0.000    4.800    0.000    7.600 
#    0.000    5.000    0.000    0.000    0.000    0.000 
#    0.000    0.000    0.000    0.000    0.000    0.000 
#
# Total GULP energy -496093.486203 kJ/mol
# GULP energy per Si atom -12402.337155 kJ/mol
# Density = 1.880560 g / cm^3
# Si number density = 18.848498 Si / 1000 Ang^3
#
#
#
# Elastic Constant Matrix: (Units=GPa)
#
#
# Indices 1 2 3 4 5 6 
#
# 1 113.8990 63.6503 58.6978 0.0000 0.0000 0.0000
# 2 63.6503 99.0788 66.0822 0.0000 0.0000 0.0000
# 3 58.6978 66.0822 109.8020 0.0000 0.0000 0.0000
# 4 0.0000 0.0000 0.0000 -73.3638 0.0000 0.0000
# 5 0.0000 0.0000 0.0000 0.0000 33.0535 0.0000
# 6 0.0000 0.0000 0.0000 0.0000 0.0000 37.0981
#
#
#
# Elastic Compliance Matrix: (Units=1/GPa)
#
#
# Indices 1 2 3 4 5 6 
#
# 1 0.014494 -0.006922 -0.003582 0.000000 0.000000 0.000000
# 2 -0.006922 0.020167 -0.008437 0.000000 0.000000 0.000000
# 3 -0.003582 -0.008437 0.016100 0.000000 0.000000 0.000000
# 4 0.000000 0.000000 0.000000 -0.013631 0.000000 0.000000
# 5 0.000000 0.000000 0.000000 0.000000 0.030254 0.000000
# 6 0.000000 0.000000 0.000000 0.000000 0.000000 0.026956
#
#
# Mechanical properties :
#
#
# Convention : Reuss Voigt Hill
#
# Bulk Modulus (GPa) = 77.64780 77.73783 77.69282
# Shear Modulus (GPa) = 36.62619 8.31420 22.47020
#
# Velocity S-wave (km/s) = 4.41294 2.10253 3.45650
# Velocity P-wave (km/s) = 8.20065 6.87221 7.56564
#
# Compressibility (1/GPa) = 0.01287866
#
# Stress axis : x y z
#
# Youngs Moduli (GPa) = 68.99352 49.58656 62.11263
#
# Poissons Ratio (x) = 0.34324 0.22251
# Poissons Ratio (y) = 0.47757 0.52402
# Poissons Ratio (z) = 0.24716 0.41834
#
# Static dielectric constant tensor:
#      x y z
#    x 3.468960 0.000000 0.000000 
#    y 0.000000 3.396250 0.000000 
#    z 0.000000 0.000000 3.547740 
# 
# 
# High freq. dielectric constant tensor:
#      x y z
#    x 1.728050 0.000000 0.000000 
#    y 0.000000 1.730660 0.000000 
#    z 0.000000 0.000000 1.743480 
# 
# From -- ./inp_files/72771.got.cif
#   From: 2010.03.12/outbox.cif.g09.slc.cpg/sg65_37_cif.got.tgz:72771.got - 2010.04.10 20:52:16.
