data_PCOD8273712
_publ_section_title
;
Structure prediction by ZEFSAII (Michael W. Deem and Ramdas Pophale) SiO2 
 PCOD8273712
Probable space group: C M M M
;
_chemical_formula_sum "Si O2"
_cell_formula_units_Z 64
_cell_length_a 14.674472
_cell_length_b 24.477301
_cell_length_c 8.955943
_cell_angle_alpha 90.000000
_cell_angle_beta 90.000000
_cell_angle_gamma 90.000000
_cell_volume 3216.898315
_symmetry_space_group_name_H-M "C M M M"
_symmetry_group_IT_number 65
_symmetry_cell_setting 'orthorhombic'
loop_
_space_group_symop_operation_xyz
x,y,z
-x,-y,z
x,-y,-z
-x,y,-z
-x,-y,-z
x,y,-z
-x,y,z
x,-y,z
1/2+x,1/2+y,z
1/2-x,1/2-y,z
1/2+x,1/2-y,-z
1/2-x,1/2+y,-z
1/2-x,1/2-y,-z
1/2+x,1/2+y,-z
1/2-x,1/2+y,z
1/2+x,1/2-y,z
loop_
_atom_site_type_symbol
_atom_site_label
_atom_site_fract_x
_atom_site_fract_y
_atom_site_fract_z
Si Si1 0.754000 0.186620 0.674010
Si Si2 0.900762 0.500000 0.175866
Si Si3 0.394610 0.609777 0.824710
Si Si4 0.608188 0.500000 0.667867
Si Si5 0.107845 0.381957 0.172613
O O1 0.769669 0.176231 0.500000
O O2 0.750000 0.250000 0.713888
O O3 0.837992 0.160623 0.763058
O O4 0.657686 0.161492 0.723685
O O5 0.852843 0.557462 0.219316
O O6 0.000000 0.500000 0.252761
O O7 0.915537 0.500000 0.000000
O O8 0.500000 0.619921 0.783726
O O9 0.356757 0.553922 0.752276
O O10 0.379748 0.604611 0.000000
O O11 0.500000 0.500000 0.668217
O O12 0.647326 0.500000 0.500000
O O13 0.000000 0.378247 0.200571
O O14 0.130911 0.369710 0.000000
#
# Coordination Sequence:
#
# PCOD8273712 Si02
#       5
#    16   8  16   8  16
#     4  11  25  41  55  76 110 152 195 237 284 339
#     4   7  12  27  53  84 112 136 166 208 265 329
#     4  10  21  38  61  87 114 146 187 236 286 336
#     4   9  17  32  57  88 120 150 180 220 277 344
#     4   9  18  35  60  86 112 143 179 224 278 334
#
# _framework density 19.894939999999998
#
# number of rings (size 3 to 8) (size 9 to 14) (size 15 to 20)
#    0.000    2.500    0.000    3.375    0.000    7.500 
#    0.000    9.375    0.000    2.250    0.000    0.000 
#    0.000    0.000    0.000    0.000    0.000    0.000 
#
# Total GULP energy -396664.096044 kJ/mol
# GULP energy per Si atom -12395.753001 kJ/mol
# Density = 1.984966 g / cm^3
# Si number density = 19.894940 Si / 1000 Ang^3
#
#
#
# Elastic Constant Matrix: (Units=GPa)
#
#
# Indices 1 2 3 4 5 6 
#
# 1 82.3401 56.8382 40.0168 0.0000 0.0000 0.0000
# 2 56.8382 162.0901 70.5047 0.0000 0.0000 0.0000
# 3 40.0168 70.5047 94.1611 0.0000 0.0000 0.0000
# 4 0.0000 0.0000 0.0000 29.4564 0.0000 0.0000
# 5 0.0000 0.0000 0.0000 0.0000 26.7823 0.0000
# 6 0.0000 0.0000 0.0000 0.0000 0.0000 34.7601
#
#
#
# Elastic Compliance Matrix: (Units=1/GPa)
#
#
# Indices 1 2 3 4 5 6 
#
# 1 0.017028 -0.004187 -0.004102 0.000000 0.000000 0.000000
# 2 -0.004187 0.010179 -0.005842 0.000000 0.000000 0.000000
# 3 -0.004102 -0.005842 0.016738 0.000000 0.000000 0.000000
# 4 0.000000 0.000000 0.000000 0.033949 0.000000 0.000000
# 5 0.000000 0.000000 0.000000 0.000000 0.037338 0.000000
# 6 0.000000 0.000000 0.000000 0.000000 0.000000 0.028769
#
#
# Mechanical properties :
#
#
# Convention : Reuss Voigt Hill
#
# Bulk Modulus (GPa) = 63.76263 74.81230 69.28746
# Shear Modulus (GPa) = 28.17072 29.61520 28.89296
#
# Velocity S-wave (km/s) = 3.76703 3.86240 3.81501
# Velocity P-wave (km/s) = 7.14422 7.58789 7.36940
#
# Compressibility (1/GPa) = 0.01568317
#
# Stress axis : x y z
#
# Youngs Moduli (GPa) = 58.72555 98.24364 59.74570
#
# Poissons Ratio (x) = 0.41135 0.24506
# Poissons Ratio (y) = 0.24589 0.34904
# Poissons Ratio (z) = 0.24087 0.57395
#
# Static dielectric constant tensor:
#      x y z
#    x 3.419170 0.000000 0.000000 
#    y 0.000000 3.811900 0.000000 
#    z 0.000000 0.000000 3.520410 
# 
# 
# High freq. dielectric constant tensor:
#      x y z
#    x 1.769700 0.000000 0.000000 
#    y 0.000000 1.782040 0.000000 
#    z 0.000000 0.000000 1.765730 
# 
# From -- ./inp_files/6748.got.cif
#   From: 2010.03.12/outbox.cif.g09.slc.cpg/sg65_4_cif.got.tgz:6748.got - 2010.04.10 20:52:16.
