data_PCOD8273273
_publ_section_title
;
Structure prediction by ZEFSAII (Michael W. Deem and Ramdas Pophale) SiO2 
 PCOD8273273
Probable space group: C M M M
;
_chemical_formula_sum "Si O2"
_cell_formula_units_Z 72
_cell_length_a 8.618766
_cell_length_b 26.484496
_cell_length_c 14.331670
_cell_angle_alpha 90.000000
_cell_angle_beta 90.000000
_cell_angle_gamma 90.000000
_cell_volume 3271.399644
_symmetry_space_group_name_H-M "C M M M"
_symmetry_group_IT_number 65
_symmetry_cell_setting 'orthorhombic'
loop_
_space_group_symop_operation_xyz
x,y,z
-x,-y,z
x,-y,-z
-x,y,-z
-x,-y,-z
x,y,-z
-x,y,z
x,-y,z
1/2+x,1/2+y,z
1/2-x,1/2-y,z
1/2+x,1/2-y,-z
1/2-x,1/2+y,-z
1/2-x,1/2-y,-z
1/2+x,1/2+y,-z
1/2-x,1/2+y,z
1/2+x,1/2-y,z
loop_
_atom_site_type_symbol
_atom_site_label
_atom_site_fract_x
_atom_site_fract_y
_atom_site_fract_z
Si Si1 0.184563 0.500000 0.603920
Si Si2 0.183157 0.804664 0.392887
Si Si3 0.830747 0.703101 0.105698
Si Si4 0.320512 0.400129 0.103431
Si Si5 0.318652 0.902312 0.706166
O O1 0.245236 0.500000 0.500000
O O2 0.252113 0.551538 0.647166
O O3 0.000000 0.500000 0.613683
O O4 0.232923 0.817110 0.500000
O O5 0.250000 0.750000 0.363225
O O6 0.243939 0.848748 0.323546
O O7 0.000000 0.802274 0.383203
O O8 0.750000 0.750000 0.159316
O O9 0.704579 0.659462 0.109327
O O10 0.000000 0.688801 0.151400
O O11 0.865142 0.718936 0.000000
O O12 0.500000 0.413226 0.119487
O O13 0.217110 0.421059 0.187789
O O14 0.267642 0.420082 0.000000
O O15 0.500000 0.896811 0.690545
#
# Coordination Sequence:
#
# PCOD8273273 Si02
#       5
#     8  16  16  16  16
#     4   9  20  40  66  95 124 154 191 239 298 361
#     4  10  21  38  61  91 127 164 202 247 302 365
#     4   9  16  27  45  70 101 140 188 239 289 341
#     4  10  21  37  55  77 111 154 198 246 298 352
#     4  11  22  38  63  92 122 158 202 251 301 357
#
# _framework density 22.008929999999999
#
# number of rings (size 3 to 8) (size 9 to 14) (size 15 to 20)
#    0.000    2.111    0.000    3.333    0.000    7.111 
#    0.000    7.222    0.000    7.333    0.000    0.000 
#    0.000    0.000    0.000    0.000    0.000    0.000 
#
# Total GULP energy -445996.056126 kJ/mol
# GULP energy per Si atom -12388.779337 kJ/mol
# Density = 2.195884 g / cm^3
# Si number density = 22.008930 Si / 1000 Ang^3
#
#
#
# Elastic Constant Matrix: (Units=GPa)
#
#
# Indices 1 2 3 4 5 6 
#
# 1 72.0247 21.9609 22.4174 0.0000 0.0000 0.0000
# 2 21.9609 118.3563 53.1761 0.0000 0.0000 0.0000
# 3 22.4174 53.1761 135.5977 0.0000 0.0000 0.0000
# 4 0.0000 0.0000 0.0000 17.9316 0.0000 0.0000
# 5 0.0000 0.0000 0.0000 0.0000 30.8741 0.0000
# 6 0.0000 0.0000 0.0000 0.0000 0.0000 17.9671
#
#
#
# Elastic Compliance Matrix: (Units=1/GPa)
#
#
# Indices 1 2 3 4 5 6 
#
# 1 0.015029 -0.002030 -0.001689 0.000000 0.000000 0.000000
# 2 -0.002030 0.010530 -0.003794 0.000000 0.000000 0.000000
# 3 -0.001689 -0.003794 0.009142 0.000000 0.000000 0.000000
# 4 0.000000 0.000000 0.000000 0.055767 0.000000 0.000000
# 5 0.000000 0.000000 0.000000 0.000000 0.032390 0.000000
# 6 0.000000 0.000000 0.000000 0.000000 0.000000 0.055657
#
#
# Mechanical properties :
#
#
# Convention : Reuss Voigt Hill
#
# Bulk Modulus (GPa) = 50.82375 57.89861 54.36118
# Shear Modulus (GPa) = 24.98768 28.58284 26.78526
#
# Velocity S-wave (km/s) = 3.37314 3.60765 3.49236
# Velocity P-wave (km/s) = 6.18977 6.61192 6.40432
#
# Compressibility (1/GPa) = 0.01967584
#
# Stress axis : x y z
#
# Youngs Moduli (GPa) = 66.53977 94.96399 109.38812
#
# Poissons Ratio (x) = 0.19277 0.18470
# Poissons Ratio (y) = 0.13507 0.41502
# Poissons Ratio (z) = 0.11235 0.36029
#
# Static dielectric constant tensor:
#      x y z
#    x 4.014090 0.000000 0.000000 
#    y 0.000000 3.870230 0.000000 
#    z 0.000000 0.000000 4.326110 
# 
# 
# High freq. dielectric constant tensor:
#      x y z
#    x 1.858260 0.000000 0.000000 
#    y 0.000000 1.846220 0.000000 
#    z 0.000000 0.000000 1.872310 
# 
# From -- ./inp_files/36517.got.cif
#   From: 2010.03.12/outbox.cif.g09.slc.cpg/sg65_19_cif.got.tgz:36517.got - 2010.04.10 20:52:16.
