data_PCOD8273168
_publ_section_title
;
Structure prediction by ZEFSAII (Michael W. Deem and Ramdas Pophale) SiO2 
 PCOD8273168
Probable space group: C M M M
;
_chemical_formula_sum "Si O2"
_cell_formula_units_Z 72
_cell_length_a 15.784249
_cell_length_b 8.694702
_cell_length_c 26.391035
_cell_angle_alpha 90.000000
_cell_angle_beta 90.000000
_cell_angle_gamma 90.000000
_cell_volume 3621.888261
_symmetry_space_group_name_H-M "C M M M"
_symmetry_group_IT_number 65
_symmetry_cell_setting 'orthorhombic'
loop_
_space_group_symop_operation_xyz
x,y,z
-x,-y,z
x,-y,-z
-x,y,-z
-x,-y,-z
x,y,-z
-x,y,z
x,-y,z
1/2+x,1/2+y,z
1/2-x,1/2-y,z
1/2+x,1/2-y,-z
1/2-x,1/2+y,-z
1/2-x,1/2-y,-z
1/2+x,1/2+y,-z
1/2-x,1/2+y,z
1/2+x,1/2-y,z
loop_
_atom_site_type_symbol
_atom_site_label
_atom_site_fract_x
_atom_site_fract_y
_atom_site_fract_z
Si Si1 0.405793 0.665646 0.500000
Si Si2 0.500000 0.319699 0.772452
Si Si3 0.159505 0.681634 0.597183
Si Si4 0.500000 0.181834 0.117842
Si Si5 0.337724 0.181811 0.057889
Si Si6 0.658008 0.318305 0.296954
O O1 0.353800 0.500000 0.500000
O O2 0.500000 0.610004 0.500000
O O3 0.395320 0.769899 0.549468
O O4 0.500000 0.500000 0.783603
O O5 0.500000 0.227330 0.824098
O O6 0.414373 0.271807 0.743025
O O7 0.161959 0.500000 0.603355
O O8 0.250000 0.750000 0.584947
O O9 0.125153 0.753440 0.649418
O O10 0.415925 0.248288 0.090572
O O11 0.500000 0.000000 0.112321
O O12 0.250000 0.250000 0.079579
O O13 0.332521 0.000000 0.062175
O O14 0.351604 0.234973 0.000000
O O15 0.668318 0.500000 0.301382
O O16 0.750000 0.250000 0.281405
#
# Coordination Sequence:
#
# PCOD8273168 Si02
#       6
#     8   8  16   8  16  16
#     4  11  24  39  56  81 115 151 182 221 276 335
#     4  10  24  41  59  82 115 152 190 237 291 343
#     4  11  22  38  60  85 112 143 182 228 278 336
#     4  10  21  36  56  82 113 151 192 235 284 337
#     4   9  18  34  56  83 115 152 192 234 281 335
#     4  10  21  40  62  85 111 148 191 235 288 343
#
# _framework density 19.879134000000001
#
# number of rings (size 3 to 8) (size 9 to 14) (size 15 to 20)
#    0.000    1.889    0.000    5.000    1.556    5.778 
#    0.000    4.444    0.000    3.333    0.000    0.000 
#    0.000    0.000    0.000    0.000    0.000    0.000 
#
# Total GULP energy -446288.295727 kJ/mol
# GULP energy per Si atom -12396.897104 kJ/mol
# Density = 1.983389 g / cm^3
# Si number density = 19.879134 Si / 1000 Ang^3
#
#
#
# Elastic Constant Matrix: (Units=GPa)
#
#
# Indices 1 2 3 4 5 6 
#
# 1 145.9450 47.8987 86.8504 0.0000 0.0000 0.0000
# 2 47.8987 88.0745 43.3361 0.0000 0.0000 0.0000
# 3 86.8504 43.3361 128.3845 0.0000 0.0000 0.0000
# 4 0.0000 0.0000 0.0000 34.3370 0.0000 0.0000
# 5 0.0000 0.0000 0.0000 0.0000 30.2152 0.0000
# 6 0.0000 0.0000 0.0000 0.0000 0.0000 28.5711
#
#
#
# Elastic Compliance Matrix: (Units=1/GPa)
#
#
# Indices 1 2 3 4 5 6 
#
# 1 0.012123 -0.003067 -0.007165 0.000000 0.000000 0.000000
# 2 -0.003067 0.014391 -0.002783 0.000000 0.000000 0.000000
# 3 -0.007165 -0.002783 0.013576 0.000000 0.000000 0.000000
# 4 0.000000 0.000000 0.000000 0.029123 0.000000 0.000000
# 5 0.000000 0.000000 0.000000 0.000000 0.033096 0.000000
# 6 0.000000 0.000000 0.000000 0.000000 0.000000 0.035000
#
#
# Mechanical properties :
#
#
# Convention : Reuss Voigt Hill
#
# Bulk Modulus (GPa) = 71.13003 79.84157 75.48580
# Shear Modulus (GPa) = 29.75719 30.91258 30.33488
#
# Velocity S-wave (km/s) = 3.87318 3.94766 3.91060
# Velocity P-wave (km/s) = 7.47402 7.81213 7.64495
#
# Compressibility (1/GPa) = 0.01405876
#
# Stress axis : x y z
#
# Youngs Moduli (GPa) = 82.49038 69.48610 73.66024
#
# Poissons Ratio (x) = 0.21312 0.52781
# Poissons Ratio (y) = 0.25301 0.20499
# Poissons Ratio (z) = 0.59108 0.19338
#
# Static dielectric constant tensor:
#      x y z
#    x 3.823780 0.000000 0.000000 
#    y 0.000000 3.598670 0.000000 
#    z 0.000000 0.000000 3.708900 
# 
# 
# High freq. dielectric constant tensor:
#      x y z
#    x 1.781820 0.000000 0.000000 
#    y 0.000000 1.779130 0.000000 
#    z 0.000000 0.000000 1.772830 
# 
# From -- ./inp_files/74677.got.cif
#   From: 2010.03.12/outbox.cif.g09.slc.cpg/sg65_38_cif.got.tgz:74677.got - 2010.04.10 20:52:16.
