data_PCOD8273954
_publ_section_title
;
Structure prediction by ZEFSAII (Michael W. Deem and Ramdas Pophale) SiO2 
 PCOD8273954
Probable space group: C M M M
;
_chemical_formula_sum "Si O2"
_cell_formula_units_Z 88
_cell_length_a 20.112611
_cell_length_b 24.328468
_cell_length_c 8.814204
_cell_angle_alpha 90.000000
_cell_angle_beta 90.000000
_cell_angle_gamma 90.000000
_cell_volume 4312.869461
_symmetry_space_group_name_H-M "C M M M"
_symmetry_group_IT_number 65
_symmetry_cell_setting 'orthorhombic'
loop_
_space_group_symop_operation_xyz
x,y,z
-x,-y,z
x,-y,-z
-x,y,-z
-x,-y,-z
x,y,-z
-x,y,z
x,-y,z
1/2+x,1/2+y,z
1/2-x,1/2-y,z
1/2+x,1/2-y,-z
1/2-x,1/2+y,-z
1/2-x,1/2-y,-z
1/2+x,1/2+y,-z
1/2-x,1/2+y,z
1/2+x,1/2-y,z
loop_
_atom_site_type_symbol
_atom_site_label
_atom_site_fract_x
_atom_site_fract_y
_atom_site_fract_z
Si Si1 0.877458 0.632277 0.318786
Si Si2 0.500000 0.065061 0.819393
Si Si3 0.888934 0.060627 0.320597
Si Si4 0.927643 0.166476 0.172922
Si Si5 0.758678 0.440090 0.320166
Si Si6 0.673120 0.242393 0.819788
O O1 0.886300 0.631836 0.500000
O O2 0.810006 0.604257 0.258803
O O3 0.868475 0.693967 0.259819
O O4 0.937068 0.597789 0.245956
O O5 0.500000 0.000000 0.770023
O O6 0.500000 0.069481 0.000000
O O7 0.890511 0.062084 0.500000
O O8 0.934766 0.108655 0.258558
O O9 0.814686 0.072479 0.257701
O O10 0.912909 0.000000 0.265671
O O11 0.867976 0.204220 0.235453
O O12 0.000000 0.195836 0.191452
O O13 0.912328 0.152826 0.000000
O O14 0.757052 0.439111 0.500000
O O15 0.782244 0.500000 0.263324
O O16 0.750000 0.250000 0.765651
O O17 0.669739 0.233633 0.000000
#
# Coordination Sequence:
#
# PCOD8273954 Si02
#       6
#    16   8  16  16  16  16
#     4  11  22  36  60  90 118 152 199 252 307 361
#     4  11  25  43  61  85 123 169 210 251 308 379
#     4   9  18  34  57  84 112 144 183 229 285 342
#     4  10  22  38  55  77 109 150 189 229 283 340
#     4   8  15  30  53  81 113 145 178 226 288 345
#     4  10  22  40  61  85 116 157 203 248 299 362
#
# _framework density 20.404049000000001
#
# number of rings (size 3 to 8) (size 9 to 14) (size 15 to 20)
#    0.000    2.273    0.000    3.545    1.273    3.636 
#    0.000    2.727    0.000    2.182    0.000    0.000 
#    0.000    0.000    0.000    0.000    0.000    0.000 
#
# Total GULP energy -545237.606861 kJ/mol
# GULP energy per Si atom -12391.763792 kJ/mol
# Density = 2.035761 g / cm^3
# Si number density = 20.404049 Si / 1000 Ang^3
#
#
#
# Elastic Constant Matrix: (Units=GPa)
#
#
# Indices 1 2 3 4 5 6 
#
# 1 117.1972 65.7365 29.8125 0.0000 0.0000 0.0000
# 2 65.7365 146.3635 37.7774 0.0000 0.0000 0.0000
# 3 29.8125 37.7774 47.5143 0.0000 0.0000 0.0000
# 4 0.0000 0.0000 0.0000 28.1609 0.0000 0.0000
# 5 0.0000 0.0000 0.0000 0.0000 22.8951 0.0000
# 6 0.0000 0.0000 0.0000 0.0000 0.0000 38.7276
#
#
#
# Elastic Compliance Matrix: (Units=1/GPa)
#
#
# Indices 1 2 3 4 5 6 
#
# 1 0.012004 -0.004338 -0.004083 0.000000 0.000000 0.000000
# 2 -0.004338 0.010164 -0.005359 0.000000 0.000000 0.000000
# 3 -0.004083 -0.005359 0.027869 0.000000 0.000000 0.000000
# 4 0.000000 0.000000 0.000000 0.035510 0.000000 0.000000
# 5 0.000000 0.000000 0.000000 0.000000 0.043678 0.000000
# 6 0.000000 0.000000 0.000000 0.000000 0.000000 0.025821
#
#
# Mechanical properties :
#
#
# Convention : Reuss Voigt Hill
#
# Bulk Modulus (GPa) = 44.48995 64.19200 54.34098
# Shear Modulus (GPa) = 26.30202 29.80661 28.05431
#
# Velocity S-wave (km/s) = 3.59424 3.82621 3.71204
# Velocity P-wave (km/s) = 6.25113 7.14483 6.71287
#
# Compressibility (1/GPa) = 0.02247698
#
# Stress axis : x y z
#
# Youngs Moduli (GPa) = 83.30335 98.38899 35.88159
#
# Poissons Ratio (x) = 0.42677 0.14652
# Poissons Ratio (y) = 0.36134 0.19230
# Poissons Ratio (z) = 0.34015 0.52730
#
# Static dielectric constant tensor:
#      x y z
#    x 4.075070 0.000000 0.000000 
#    y 0.000000 3.909930 0.000000 
#    z 0.000000 0.000000 3.374100 
# 
# 
# High freq. dielectric constant tensor:
#      x y z
#    x 1.811080 0.000000 0.000000 
#    y 0.000000 1.806800 0.000000 
#    z 0.000000 0.000000 1.769510 
# 
# From -- ./inp_files/11720.got.cif
#   From: 2010.03.12/outbox.cif.g09.slc.cpg/sg65_6_cif.got.tgz:11720.got - 2010.04.10 20:52:16.
