data_PCOD8273378
_publ_section_title
;
Structure prediction by ZEFSAII (Michael W. Deem and Ramdas Pophale) SiO2 
 PCOD8273378
Probable space group: C M M M
;
_chemical_formula_sum "Si O2"
_cell_formula_units_Z 56
_cell_length_a 8.868522
_cell_length_b 18.086928
_cell_length_c 18.025386
_cell_angle_alpha 90.000000
_cell_angle_beta 90.000000
_cell_angle_gamma 90.000000
_cell_volume 2891.349764
_symmetry_space_group_name_H-M "C M M M"
_symmetry_group_IT_number 65
_symmetry_cell_setting 'orthorhombic'
loop_
_space_group_symop_operation_xyz
x,y,z
-x,-y,z
x,-y,-z
-x,y,-z
-x,-y,-z
x,y,-z
-x,y,z
x,-y,z
1/2+x,1/2+y,z
1/2-x,1/2-y,z
1/2+x,1/2-y,-z
1/2-x,1/2+y,-z
1/2-x,1/2-y,-z
1/2+x,1/2+y,-z
1/2-x,1/2+y,z
1/2+x,1/2-y,z
loop_
_atom_site_type_symbol
_atom_site_label
_atom_site_fract_x
_atom_site_fract_y
_atom_site_fract_z
Si Si1 0.825475 0.086385 0.353081
Si Si2 0.179114 0.417232 0.082041
Si Si3 0.678311 0.171127 0.777870
Si Si4 0.822336 0.829686 0.500000
O O1 0.724259 0.114231 0.285683
O O2 0.768621 0.126067 0.427615
O O3 0.000000 0.104520 0.336616
O O4 0.798773 0.000000 0.363876
O O5 0.240867 0.500000 0.098152
O O6 0.241011 0.360642 0.143786
O O7 0.000000 0.419268 0.085285
O O8 0.232998 0.391223 0.000000
O O9 0.500000 0.179715 0.778851
O O10 0.750000 0.250000 0.761605
O O11 0.750000 0.750000 0.500000
O O12 0.000000 0.820725 0.500000
#
# Coordination Sequence:
#
# PCOD8273378 Si02
#       4
#    16  16  16   8
#     4  10  21  38  59  81 107 140 178 220 266 316
#     4   8  15  30  52  76 102 135 176 220 265 314
#     4  11  22  35  53  79 110 143 180 221 266 316
#     4  10  21  37  57  81 109 142 177 214 260 314
#
# _framework density 19.368115
#
# number of rings (size 3 to 8) (size 9 to 14) (size 15 to 20)
#    0.000    2.286    0.000    3.857    0.000    7.429 
#    0.000    0.000    0.000    5.143    0.000   10.000 
#    0.000    0.000    0.000    0.000    0.000    0.000 
#
# Total GULP energy -347213.923622 kJ/mol
# GULP energy per Si atom -12400.497272 kJ/mol
# Density = 1.932403 g / cm^3
# Si number density = 19.368115 Si / 1000 Ang^3
#
#
#
# Elastic Constant Matrix: (Units=GPa)
#
#
# Indices 1 2 3 4 5 6 
#
# 1 39.9405 28.4969 35.9573 0.0000 0.0000 0.0000
# 2 28.4969 117.0153 63.6705 0.0000 0.0000 0.0000
# 3 35.9573 63.6705 154.6259 0.0000 0.0000 0.0000
# 4 0.0000 0.0000 0.0000 36.0672 0.0000 0.0000
# 5 0.0000 0.0000 0.0000 0.0000 -56.6641 0.0000
# 6 0.0000 0.0000 0.0000 0.0000 0.0000 23.1568
#
#
#
# Elastic Compliance Matrix: (Units=1/GPa)
#
#
# Indices 1 2 3 4 5 6 
#
# 1 0.033882 -0.005109 -0.005775 0.000000 0.000000 0.000000
# 2 -0.005109 0.011784 -0.003664 0.000000 0.000000 0.000000
# 3 -0.005775 -0.003664 0.009319 0.000000 0.000000 0.000000
# 4 0.000000 0.000000 0.000000 0.027726 0.000000 0.000000
# 5 0.000000 0.000000 0.000000 0.000000 -0.017648 0.000000
# 6 0.000000 0.000000 0.000000 0.000000 0.000000 0.043184
#
#
# Mechanical properties :
#
#
# Convention : Reuss Voigt Hill
#
# Bulk Modulus (GPa) = 38.62808 63.09234 50.86021
# Shear Modulus (GPa) = 34.25300 12.74243 23.49771
#
# Velocity S-wave (km/s) = 4.20995 2.56775 3.48690
# Velocity P-wave (km/s) = 6.60447 6.43718 6.52136
#
# Compressibility (1/GPa) = 0.02588790
#
# Stress axis : x y z
#
# Youngs Moduli (GPa) = 29.51447 84.86209 107.30687
#
# Poissons Ratio (x) = 0.43354 0.61973
# Poissons Ratio (y) = 0.15078 0.39320
# Poissons Ratio (z) = 0.17046 0.31095
#
# Static dielectric constant tensor:
#      x y z
#    x 3.249060 0.000000 0.000000 
#    y 0.000000 3.589000 0.000000 
#    z 0.000000 0.000000 3.919820 
# 
# 
# High freq. dielectric constant tensor:
#      x y z
#    x 1.720560 0.000000 0.000000 
#    y 0.000000 1.762090 0.000000 
#    z 0.000000 0.000000 1.772970 
# 
# From -- ./inp_files/35458.got.cif
#   From: 2010.03.12/outbox.cif.g09.slc.cpg/sg65_18_cif.got.tgz:35458.got - 2010.04.10 20:52:16.
