data_PCOD8273961
_publ_section_title
;
Structure prediction by ZEFSAII (Michael W. Deem and Ramdas Pophale) SiO2 
 PCOD8273961
Probable space group: C M M M
;
_chemical_formula_sum "Si O2"
_cell_formula_units_Z 104
_cell_length_a 19.772624
_cell_length_b 29.888097
_cell_length_c 9.018776
_cell_angle_alpha 90.000000
_cell_angle_beta 90.000000
_cell_angle_gamma 90.000000
_cell_volume 5329.790916
_symmetry_space_group_name_H-M "C M M M"
_symmetry_group_IT_number 65
_symmetry_cell_setting 'orthorhombic'
loop_
_space_group_symop_operation_xyz
x,y,z
-x,-y,z
x,-y,-z
-x,y,-z
-x,-y,-z
x,y,-z
-x,y,z
x,-y,z
1/2+x,1/2+y,z
1/2-x,1/2-y,z
1/2+x,1/2-y,-z
1/2-x,1/2+y,-z
1/2-x,1/2-y,-z
1/2+x,1/2+y,-z
1/2-x,1/2+y,z
1/2+x,1/2-y,z
loop_
_atom_site_type_symbol
_atom_site_label
_atom_site_fract_x
_atom_site_fract_y
_atom_site_fract_z
Si Si1 0.114484 0.677445 0.676329
Si Si2 0.000000 0.268509 0.827217
Si Si3 0.077535 0.581068 0.660093
Si Si4 0.081130 0.500000 0.160970
Si Si5 0.752402 0.802847 0.824124
Si Si6 0.000000 0.182472 0.338146
Si Si7 0.578073 0.551505 0.174339
Si Si8 0.861006 0.133466 0.669599
O O1 0.115079 0.684999 0.500000
O O2 0.068389 0.714627 0.751422
O O3 0.082492 0.630408 0.726005
O O4 0.188295 0.676507 0.743457
O O5 0.000000 0.215837 0.800610
O O6 0.000000 0.280148 0.000000
O O7 0.113912 0.579657 0.500000
O O8 0.112077 0.544073 0.762734
O O9 0.000000 0.567524 0.642329
O O10 0.000000 0.500000 0.155294
O O11 0.113041 0.500000 0.000000
O O12 0.750000 0.750000 0.785311
O O13 0.815607 0.830353 0.758764
O O14 0.749733 0.810192 0.000000
O O15 0.000000 0.207190 0.500000
O O16 0.063957 0.151364 0.325224
O O17 0.500000 0.561043 0.221707
O O18 0.596399 0.500000 0.214469
O O19 0.632448 0.584195 0.256156
O O20 0.586001 0.559752 0.000000
O O21 0.834126 0.129176 0.500000
#
# Coordination Sequence:
#
# PCOD8273961 Si02
#       8
#    16   8  16   8  16   8  16  16
#     4  11  22  39  61  84 112 150 194 241 293 348
#     4  12  24  36  56  86 118 152 192 243 297 351
#     4   9  17  32  53  78 107 141 178 219 271 329
#     4   9  17  27  45  77 111 141 175 218 269 322
#     4  11  25  43  61  85 117 157 202 247 302 366
#     4  10  22  38  57  85 119 152 194 242 290 345
#     4   9  18  34  59  92 128 165 202 246 304 364
#     4  11  22  38  61  90 121 159 202 249 302 358
#
# _framework density 19.512961000000001
#
# number of rings (size 3 to 8) (size 9 to 14) (size 15 to 20)
#    0.000    1.769    1.538    3.692    0.000    7.385 
#    0.000    0.769    1.692    0.000    0.000    0.000 
#    0.000    0.000    0.000    0.000    0.000    0.000 
#
# Total GULP energy -644477.688831 kJ/mol
# GULP energy per Si atom -12393.801708 kJ/mol
# Density = 1.946855 g / cm^3
# Si number density = 19.512961 Si / 1000 Ang^3
#
#
#
# Elastic Constant Matrix: (Units=GPa)
#
#
# Indices 1 2 3 4 5 6 
#
# 1 73.7156 21.4407 34.4580 0.0000 0.0000 0.0000
# 2 21.4407 120.8859 61.8234 0.0000 0.0000 0.0000
# 3 34.4580 61.8234 120.1621 0.0000 0.0000 0.0000
# 4 0.0000 0.0000 0.0000 26.3005 0.0000 0.0000
# 5 0.0000 0.0000 0.0000 0.0000 28.0574 0.0000
# 6 0.0000 0.0000 0.0000 0.0000 0.0000 88.9896
#
#
#
# Elastic Compliance Matrix: (Units=1/GPa)
#
#
# Indices 1 2 3 4 5 6 
#
# 1 0.015704 -0.000654 -0.004167 0.000000 0.000000 0.000000
# 2 -0.000654 0.011253 -0.005602 0.000000 0.000000 0.000000
# 3 -0.004167 -0.005602 0.012399 0.000000 0.000000 0.000000
# 4 0.000000 0.000000 0.000000 0.038022 0.000000 0.000000
# 5 0.000000 0.000000 0.000000 0.000000 0.035641 0.000000
# 6 0.000000 0.000000 0.000000 0.000000 0.000000 0.011237
#
#
# Mechanical properties :
#
#
# Convention : Reuss Voigt Hill
#
# Bulk Modulus (GPa) = 54.02493 61.13420 57.57957
# Shear Modulus (GPa) = 33.05279 41.80560 37.42920
#
# Velocity S-wave (km/s) = 4.12015 4.63369 4.38444
# Velocity P-wave (km/s) = 7.09796 7.74765 7.42991
#
# Compressibility (1/GPa) = 0.01850997
#
# Stress axis : x y z
#
# Youngs Moduli (GPa) = 63.67960 88.86194 80.65012
#
# Poissons Ratio (x) = 0.05815 0.33603
# Poissons Ratio (y) = 0.04167 0.45182
# Poissons Ratio (z) = 0.26532 0.49782
#
# Static dielectric constant tensor:
#      x y z
#    x 3.190810 0.000000 0.000000 
#    y 0.000000 3.688180 0.000000 
#    z 0.000000 0.000000 3.809350 
# 
# 
# High freq. dielectric constant tensor:
#      x y z
#    x 1.730060 0.000000 0.000000 
#    y 0.000000 1.772080 0.000000 
#    z 0.000000 0.000000 1.767670 
# 
# From -- ./inp_files/12468.got.cif
#   From: 2010.03.12/outbox.cif.g09.slc.cpg/sg65_7_cif.got.tgz:12468.got - 2010.04.10 20:52:16.
