data_PCOD8273626
_publ_section_title
;
Structure prediction by ZEFSAII (Michael W. Deem and Ramdas Pophale) SiO2 
 PCOD8273626
Probable space group: C M M M
;
_chemical_formula_sum "Si O2"
_cell_formula_units_Z 104
_cell_length_a 21.660124
_cell_length_b 18.513708
_cell_length_c 13.714551
_cell_angle_alpha 90.000000
_cell_angle_beta 90.000000
_cell_angle_gamma 90.000000
_cell_volume 5499.661275
_symmetry_space_group_name_H-M "C M M M"
_symmetry_group_IT_number 65
_symmetry_cell_setting 'orthorhombic'
loop_
_space_group_symop_operation_xyz
x,y,z
-x,-y,z
x,-y,-z
-x,y,-z
-x,-y,-z
x,y,-z
-x,y,z
x,-y,z
1/2+x,1/2+y,z
1/2-x,1/2-y,z
1/2+x,1/2-y,-z
1/2-x,1/2+y,-z
1/2-x,1/2-y,-z
1/2+x,1/2+y,-z
1/2-x,1/2+y,z
1/2+x,1/2-y,z
loop_
_atom_site_type_symbol
_atom_site_label
_atom_site_fract_x
_atom_site_fract_y
_atom_site_fract_z
Si Si1 0.000000 0.918915 0.384223
Si Si2 0.931065 0.701170 0.309883
Si Si3 0.931011 0.648824 0.891854
Si Si4 0.252758 0.336497 0.286730
Si Si5 0.302225 0.917963 0.889525
Si Si6 0.122808 0.160537 0.614071
Si Si7 0.145536 0.418745 0.386072
O O1 0.938122 0.880037 0.346153
O O2 0.000000 0.917065 0.500000
O O3 0.000000 0.000000 0.343520
O O4 0.924212 0.710101 0.192172
O O5 0.885835 0.754290 0.367632
O O6 0.913735 0.618843 0.336651
O O7 0.000000 0.717536 0.345448
O O8 0.876270 0.591032 0.876363
O O9 0.000000 0.613213 0.881436
O O10 0.924672 0.684272 0.000000
O O11 0.250000 0.250000 0.289605
O O12 0.236932 0.364126 0.178320
O O13 0.319477 0.365482 0.321531
O O14 0.205205 0.371123 0.362307
O O15 0.285854 0.000000 0.862054
O O16 0.282619 0.900189 0.000000
O O17 0.135344 0.145645 0.500000
O O18 0.135016 0.421135 0.500000
O O19 0.152613 0.500000 0.343977
#
# Coordination Sequence:
#
# PCOD8273626 Si02
#       7
#     8  16  16  16  16  16  16
#     4   9  20  38  58  84 112 140 188 253 308 350
#     4  11  21  36  60  87 117 156 199 241 293 353
#     4   9  18  33  55  85 119 154 196 244 290 343
#     4  12  23  37  58  86 117 156 200 246 295 357
#     4  10  21  38  59  84 118 157 198 248 304 357
#     4  11  22  37  60  86 114 153 198 247 300 355
#     4  11  24  39  55  82 122 161 198 240 285 349
#
# _framework density 18.910254999999999
#
# number of rings (size 3 to 8) (size 9 to 14) (size 15 to 20)
#    0.000    1.462    3.846    1.385    0.000    3.692 
#    0.000    6.154    0.000    0.000    0.000    0.000 
#    0.000    2.462    0.000    0.000    0.000    0.000 
#
# Total GULP energy -644543.419602 kJ/mol
# GULP energy per Si atom -12395.065762 kJ/mol
# Density = 1.886721 g / cm^3
# Si number density = 18.910255 Si / 1000 Ang^3
#
#
#
# Elastic Constant Matrix: (Units=GPa)
#
#
# Indices 1 2 3 4 5 6 
#
# 1 120.1076 34.7401 42.2582 0.0000 0.0000 0.0000
# 2 34.7401 91.1150 27.6636 0.0000 0.0000 0.0000
# 3 42.2582 27.6636 96.2225 0.0000 0.0000 0.0000
# 4 0.0000 0.0000 0.0000 23.0853 0.0000 0.0000
# 5 0.0000 0.0000 0.0000 0.0000 31.4264 0.0000
# 6 0.0000 0.0000 0.0000 0.0000 0.0000 25.9069
#
#
#
# Elastic Compliance Matrix: (Units=1/GPa)
#
#
# Indices 1 2 3 4 5 6 
#
# 1 0.010481 -0.002847 -0.003784 0.000000 0.000000 0.000000
# 2 -0.002847 0.012798 -0.002429 0.000000 0.000000 0.000000
# 3 -0.003784 -0.002429 0.012753 0.000000 0.000000 0.000000
# 4 0.000000 0.000000 0.000000 0.043318 0.000000 0.000000
# 5 0.000000 0.000000 0.000000 0.000000 0.031820 0.000000
# 6 0.000000 0.000000 0.000000 0.000000 0.000000 0.038600
#
#
# Mechanical properties :
#
#
# Convention : Reuss Voigt Hill
#
# Bulk Modulus (GPa) = 55.83202 57.41875 56.62539
# Shear Modulus (GPa) = 28.75858 29.60259 29.18059
#
# Velocity S-wave (km/s) = 3.90397 3.96084 3.93250
# Velocity P-wave (km/s) = 7.06471 7.16571 7.11539
#
# Compressibility (1/GPa) = 0.01791087
#
# Stress axis : x y z
#
# Youngs Moduli (GPa) = 95.41206 78.13608 78.41355
#
# Poissons Ratio (x) = 0.22246 0.29674
# Poissons Ratio (y) = 0.27165 0.19047
# Poissons Ratio (z) = 0.36107 0.18980
#
# Static dielectric constant tensor:
#      x y z
#    x 3.588350 0.000000 0.000000 
#    y 0.000000 3.345890 0.000000 
#    z 0.000000 0.000000 3.580040 
# 
# 
# High freq. dielectric constant tensor:
#      x y z
#    x 1.740230 0.000000 0.000000 
#    y 0.000000 1.711820 0.000000 
#    z 0.000000 0.000000 1.737990 
# 
# From -- ./inp_files/44392.got.cif
#   From: 2010.03.12/outbox.cif.g09.slc.cpg/sg65_23_cif.got.tgz:44392.got - 2010.04.10 20:52:16.
