data_PCOD8273317
_publ_section_title
;
Structure prediction by ZEFSAII (Michael W. Deem and Ramdas Pophale) SiO2 
 PCOD8273317
Probable space group: C M M M
;
_chemical_formula_sum "Si O2"
_cell_formula_units_Z 88
_cell_length_a 8.825163
_cell_length_b 20.914075
_cell_length_c 24.412453
_cell_angle_alpha 90.000000
_cell_angle_beta 90.000000
_cell_angle_gamma 90.000000
_cell_volume 4505.809401
_symmetry_space_group_name_H-M "C M M M"
_symmetry_group_IT_number 65
_symmetry_cell_setting 'orthorhombic'
loop_
_space_group_symop_operation_xyz
x,y,z
-x,-y,z
x,-y,-z
-x,y,-z
-x,-y,-z
x,y,-z
-x,y,z
x,-y,z
1/2+x,1/2+y,z
1/2-x,1/2-y,z
1/2+x,1/2-y,-z
1/2-x,1/2+y,-z
1/2-x,1/2-y,-z
1/2+x,1/2+y,-z
1/2-x,1/2+y,z
1/2+x,1/2-y,z
loop_
_atom_site_type_symbol
_atom_site_label
_atom_site_fract_x
_atom_site_fract_y
_atom_site_fract_z
Si Si1 0.319805 0.070960 0.638747
Si Si2 0.320169 0.070964 0.238182
Si Si3 0.320849 0.816080 0.562611
Si Si4 0.668714 0.000000 0.935396
Si Si5 0.820094 0.314170 0.163422
Si Si6 0.678749 0.630013 0.937094
O O1 0.500000 0.073272 0.637673
O O2 0.260585 0.084419 0.700311
O O3 0.254218 0.125109 0.598229
O O4 0.265699 0.000000 0.619822
O O5 0.500000 0.073668 0.238204
O O6 0.256442 0.125499 0.197889
O O7 0.266688 0.000000 0.218702
O O8 0.272002 0.828464 0.500000
O O9 0.500000 0.810908 0.568677
O O10 0.250000 0.750000 0.584489
O O11 0.760513 0.061710 0.916206
O O12 0.500000 0.000000 0.908480
O O13 0.653026 0.000000 0.000000
O O14 0.750000 0.250000 0.189829
O O15 0.759470 0.317892 0.101025
O O16 0.000000 0.310313 0.163756
O O17 0.500000 0.632382 0.929382
O O18 0.724951 0.643430 0.000000
#
# Coordination Sequence:
#
# PCOD8273317 Si02
#       6
#    16  16  16   8  16  16
#     4   8  14  27  48  73 100 129 167 217 264 303
#     4   8  16  32  53  76 100 130 170 215 262 311
#     4   9  17  28  44  70 103 138 174 210 252 302
#     4   9  17  31  53  81 109 137 171 207 246 299
#     4  11  23  37  55  78 106 136 172 216 263 320
#     4  10  21  37  56  79 108 139 172 213 261 311
#
# _framework density 19.530341
#
# number of rings (size 3 to 8) (size 9 to 14) (size 15 to 20)
#    0.000    2.818    0.000    2.455    1.273    3.636 
#    0.000    1.818    0.000    1.636    0.000    7.636 
#    0.000    0.000    0.000    0.000    0.000    0.000 
#
# Total GULP energy -545443.610498 kJ/mol
# GULP energy per Si atom -12396.445693 kJ/mol
# Density = 1.948589 g / cm^3
# Si number density = 19.530341 Si / 1000 Ang^3
#
#
#
# Elastic Constant Matrix: (Units=GPa)
#
#
# Indices 1 2 3 4 5 6 
#
# 1 44.6226 31.8925 23.9724 0.0000 0.0000 0.0000
# 2 31.8925 176.1303 87.4733 0.0000 0.0000 0.0000
# 3 23.9724 87.4733 95.5362 0.0000 0.0000 0.0000
# 4 0.0000 0.0000 0.0000 38.6536 0.0000 0.0000
# 5 0.0000 0.0000 0.0000 0.0000 12.3964 0.0000
# 6 0.0000 0.0000 0.0000 0.0000 0.0000 31.2992
#
#
#
# Elastic Compliance Matrix: (Units=1/GPa)
#
#
# Indices 1 2 3 4 5 6 
#
# 1 0.026611 -0.002755 -0.004155 0.000000 0.000000 0.000000
# 2 -0.002755 0.010698 -0.009103 0.000000 0.000000 0.000000
# 3 -0.004155 -0.009103 0.019845 0.000000 0.000000 0.000000
# 4 0.000000 0.000000 0.000000 0.025871 0.000000 0.000000
# 5 0.000000 0.000000 0.000000 0.000000 0.080669 0.000000
# 6 0.000000 0.000000 0.000000 0.000000 0.000000 0.031950
#
#
# Mechanical properties :
#
#
# Convention : Reuss Voigt Hill
#
# Bulk Modulus (GPa) = 39.79770 66.99620 53.39695
# Shear Modulus (GPa) = 21.18232 27.99988 24.59110
#
# Velocity S-wave (km/s) = 3.29688 3.79048 3.55226
# Velocity P-wave (km/s) = 5.90882 7.31677 6.65016
#
# Compressibility (1/GPa) = 0.02512708
#
# Stress axis : x y z
#
# Youngs Moduli (GPa) = 37.57788 93.47852 50.39065
#
# Poissons Ratio (x) = 0.25755 0.20936
# Poissons Ratio (y) = 0.10353 0.45873
# Poissons Ratio (z) = 0.15613 0.85098
#
# Static dielectric constant tensor:
#      x y z
#    x 3.142910 0.000000 0.000000 
#    y 0.000000 3.953250 0.000000 
#    z 0.000000 0.000000 3.682200 
# 
# 
# High freq. dielectric constant tensor:
#      x y z
#    x 1.720260 0.000000 0.000000 
#    y 0.000000 1.771190 0.000000 
#    z 0.000000 0.000000 1.753900 
# 
# From -- ./inp_files/67468.got.cif
#   From: 2010.03.12/outbox.cif.g09.slc.cpg/sg65_34_cif.got.tgz:67468.got - 2010.04.10 20:52:16.
