data_PCOD8273203
_publ_section_title
;
Structure prediction by ZEFSAII (Michael W. Deem and Ramdas Pophale) SiO2 
 PCOD8273203
Probable space group: C M M M
;
_chemical_formula_sum "Si O2"
_cell_formula_units_Z 96
_cell_length_a 14.449051
_cell_length_b 14.178729
_cell_length_c 24.248989
_cell_angle_alpha 90.000000
_cell_angle_beta 90.000000
_cell_angle_gamma 90.000000
_cell_volume 4967.870454
_symmetry_space_group_name_H-M "C M M M"
_symmetry_group_IT_number 65
_symmetry_cell_setting 'orthorhombic'
loop_
_space_group_symop_operation_xyz
x,y,z
-x,-y,z
x,-y,-z
-x,y,-z
-x,-y,-z
x,y,-z
-x,y,z
x,-y,z
1/2+x,1/2+y,z
1/2-x,1/2-y,z
1/2+x,1/2-y,-z
1/2-x,1/2+y,-z
1/2-x,1/2-y,-z
1/2+x,1/2+y,-z
1/2-x,1/2+y,z
1/2+x,1/2-y,z
loop_
_atom_site_type_symbol
_atom_site_label
_atom_site_fract_x
_atom_site_fract_y
_atom_site_fract_z
Si Si1 0.629673 0.901003 0.000000
Si Si2 0.893727 0.253901 0.390677
Si Si3 0.746019 0.608149 0.564866
Si Si4 0.596691 0.301821 0.000000
Si Si5 0.893631 0.255899 0.739278
Si Si6 0.783985 0.103948 0.087870
Si Si7 0.743654 0.388353 0.786538
O O1 0.688691 0.899915 0.055676
O O2 0.568347 0.808247 0.000000
O O3 0.572367 0.000000 0.000000
O O4 0.842343 0.341799 0.419265
O O5 0.841606 0.156997 0.405855
O O6 0.889390 0.269067 0.325776
O O7 0.000000 0.249417 0.411418
O O8 0.731199 0.616599 0.500000
O O9 0.750507 0.500000 0.584513
O O10 0.650382 0.323671 0.056053
O O11 0.500000 0.358257 0.000000
O O12 0.840591 0.344533 0.766227
O O13 0.843099 0.157871 0.754754
O O14 0.000000 0.253603 0.760146
O O15 0.767033 0.138928 0.149537
O O16 0.830404 0.000000 0.088033
O O17 0.744416 0.500000 0.775796
#
# Coordination Sequence:
#
# PCOD8273203 Si02
#       7
#     8  16  16   8  16  16  16
#     4   9  19  35  53  75 104 137 177 212 254 326
#     4  10  21  38  57  81 115 156 192 232 285 338
#     4  10  21  36  57  87 117 148 191 238 283 336
#     4  11  22  32  53  83 109 141 175 220 277 333
#     4  10  23  38  57  86 116 147 193 241 282 337
#     4   9  19  36  56  76 101 137 178 219 270 333
#     4  10  21  38  61  83 111 152 189 234 292 339
#
# _framework density 19.324176000000001
#
# number of rings (size 3 to 8) (size 9 to 14) (size 15 to 20)
#    0.000    2.167    0.000    4.750    4.667    6.833 
#    0.000    6.667    0.000    3.000    0.000    0.000 
#    0.000    0.000    0.000    0.000    0.000    0.000 
#
# Total GULP energy -594948.182115 kJ/mol
# GULP energy per Si atom -12394.753794 kJ/mol
# Density = 1.928019 g / cm^3
# Si number density = 19.324176 Si / 1000 Ang^3
#
#
#
# Elastic Constant Matrix: (Units=GPa)
#
#
# Indices 1 2 3 4 5 6 
#
# 1 156.6291 59.9008 33.9684 0.0000 0.0000 0.0000
# 2 59.9008 154.2952 30.1981 0.0000 0.0000 0.0000
# 3 33.9684 30.1981 80.9218 0.0000 0.0000 0.0000
# 4 0.0000 0.0000 0.0000 26.1471 0.0000 0.0000
# 5 0.0000 0.0000 0.0000 0.0000 994.1143 0.0000
# 6 0.0000 0.0000 0.0000 0.0000 0.0000 73.4004
#
#
#
# Elastic Compliance Matrix: (Units=1/GPa)
#
#
# Indices 1 2 3 4 5 6 
#
# 1 0.007888 -0.002604 -0.002339 0.000000 0.000000 0.000000
# 2 -0.002604 0.007852 -0.001837 0.000000 0.000000 0.000000
# 3 -0.002339 -0.001837 0.014025 0.000000 0.000000 0.000000
# 4 0.000000 0.000000 0.000000 0.038245 0.000000 0.000000
# 5 0.000000 0.000000 0.000000 0.000000 0.001006 0.000000
# 6 0.000000 0.000000 0.000000 0.000000 0.000000 0.013624
#
#
# Mechanical properties :
#
#
# Convention : Reuss Voigt Hill
#
# Bulk Modulus (GPa) = 61.71428 71.10898 66.41163
# Shear Modulus (GPa) = 49.21188 236.58429 142.89809
#
# Velocity S-wave (km/s) = 5.05191 11.07678 8.60862
# Velocity P-wave (km/s) = 8.12617 14.15878 11.54352
#
# Compressibility (1/GPa) = 0.01620371
#
# Stress axis : x y z
#
# Youngs Moduli (GPa) = 126.77758 127.36146 71.30144
#
# Poissons Ratio (x) = 0.33170 0.16679
# Poissons Ratio (y) = 0.33018 0.13097
# Poissons Ratio (z) = 0.29655 0.23394
#
# Static dielectric constant tensor:
#      x y z
#    x 3.523360 0.000000 0.000000 
#    y 0.000000 3.749070 0.000000 
#    z 0.000000 0.000000 3.574160 
# 
# 
# High freq. dielectric constant tensor:
#      x y z
#    x 1.747030 0.000000 0.000000 
#    y 0.000000 1.762620 0.000000 
#    z 0.000000 0.000000 1.759690 
# 
# From -- ./inp_files/69917.got.cif
#   From: 2010.03.12/outbox.cif.g09.slc.cpg/sg65_35_cif.got.tgz:69917.got - 2010.04.10 20:52:16.
