data_PCOD8273960
_publ_section_title
;
Structure prediction by ZEFSAII (Michael W. Deem and Ramdas Pophale) SiO2 
 PCOD8273960
Probable space group: C M M M
;
_chemical_formula_sum "Si O2"
_cell_formula_units_Z 88
_cell_length_a 14.583842
_cell_length_b 22.050077
_cell_length_c 13.979666
_cell_angle_alpha 90.000000
_cell_angle_beta 90.000000
_cell_angle_gamma 90.000000
_cell_volume 4495.508844
_symmetry_space_group_name_H-M "C M M M"
_symmetry_group_IT_number 65
_symmetry_cell_setting 'orthorhombic'
loop_
_space_group_symop_operation_xyz
x,y,z
-x,-y,z
x,-y,-z
-x,y,-z
-x,-y,-z
x,y,-z
-x,y,z
x,-y,z
1/2+x,1/2+y,z
1/2-x,1/2-y,z
1/2+x,1/2-y,-z
1/2-x,1/2+y,-z
1/2-x,1/2-y,-z
1/2+x,1/2+y,-z
1/2-x,1/2+y,z
1/2+x,1/2-y,z
loop_
_atom_site_type_symbol
_atom_site_label
_atom_site_fract_x
_atom_site_fract_y
_atom_site_fract_z
Si Si1 0.779650 0.570518 0.773891
Si Si2 0.643930 0.758055 0.719179
Si Si3 0.108286 0.067719 0.500000
Si Si4 0.605531 0.160410 0.891059
Si Si5 0.103947 0.624214 0.608987
Si Si6 0.897733 0.122644 0.697902
O O1 0.777434 0.500000 0.796725
O O2 0.833027 0.603550 0.859302
O O3 0.830068 0.582958 0.673321
O O4 0.675418 0.595977 0.773027
O O5 0.750000 0.750000 0.698457
O O6 0.627544 0.780763 0.827355
O O7 0.604668 0.806275 0.643990
O O8 0.593224 0.694833 0.704631
O O9 0.140293 0.104008 0.406395
O O10 0.000000 0.062888 0.500000
O O11 0.151472 0.000000 0.500000
O O12 0.500000 0.141096 0.878104
O O13 0.628390 0.177477 0.000000
O O14 0.139052 0.620502 0.500000
O O15 0.000000 0.599738 0.617135
O O16 0.000000 0.095747 0.717431
#
# Coordination Sequence:
#
# PCOD8273960 Si02
#       6
#    16  16   8  16  16  16
#     4  11  23  39  59  86 118 153 198 248 290 345
#     4  11  20  37  60  88 119 151 191 239 296 356
#     4   9  20  36  53  78 113 161 217 250 267 313
#     4  10  22  42  66  90 116 147 188 244 306 363
#     4  10  22  38  57  84 120 159 195 237 293 356
#     4  11  22  37  58  85 120 163 202 241 288 341
#
# _framework density 19.575092999999999
#
# number of rings (size 3 to 8) (size 9 to 14) (size 15 to 20)
#    0.000    1.545    3.636    3.818    2.545    4.000 
#    0.000    1.818    0.000    0.545    0.000    1.273 
#    0.000    0.000    0.000    0.000    0.000    0.000 
#
# Total GULP energy -545646.507687 kJ/mol
# GULP energy per Si atom -12401.056993 kJ/mol
# Density = 1.953054 g / cm^3
# Si number density = 19.575093 Si / 1000 Ang^3
#
#
#
# Elastic Constant Matrix: (Units=GPa)
#
#
# Indices 1 2 3 4 5 6 
#
# 1 98.8036 5.4009 9.1672 0.0000 0.0000 0.0000
# 2 5.4009 118.8062 16.1708 0.0000 0.0000 0.0000
# 3 9.1672 16.1708 76.2288 0.0000 0.0000 0.0000
# 4 0.0000 0.0000 0.0000 15.2759 0.0000 0.0000
# 5 0.0000 0.0000 0.0000 0.0000 17.2005 0.0000
# 6 0.0000 0.0000 0.0000 0.0000 0.0000 18.8957
#
#
#
# Elastic Compliance Matrix: (Units=1/GPa)
#
#
# Indices 1 2 3 4 5 6 
#
# 1 0.010246 -0.000307 -0.001167 0.000000 0.000000 0.000000
# 2 -0.000307 0.008677 -0.001804 0.000000 0.000000 0.000000
# 3 -0.001167 -0.001804 0.013641 0.000000 0.000000 0.000000
# 4 0.000000 0.000000 0.000000 0.065462 0.000000 0.000000
# 5 0.000000 0.000000 0.000000 0.000000 0.058138 0.000000
# 6 0.000000 0.000000 0.000000 0.000000 0.000000 0.052922
#
#
# Mechanical properties :
#
#
# Convention : Reuss Voigt Hill
#
# Bulk Modulus (GPa) = 38.44874 39.47960 38.96417
# Shear Modulus (GPa) = 22.29047 27.81442 25.05244
#
# Velocity S-wave (km/s) = 3.37815 3.77358 3.58133
# Velocity P-wave (km/s) = 5.90763 6.26088 6.08682
#
# Compressibility (1/GPa) = 0.02600865
#
# Stress axis : x y z
#
# Youngs Moduli (GPa) = 97.59760 115.25355 73.30639
#
# Poissons Ratio (x) = 0.03538 0.08555
# Poissons Ratio (y) = 0.02996 0.13222
# Poissons Ratio (z) = 0.11390 0.20788
#
# Static dielectric constant tensor:
#      x y z
#    x 3.700980 0.000000 0.000000 
#    y 0.000000 3.594440 0.000000 
#    z 0.000000 0.000000 3.501900 
# 
# 
# High freq. dielectric constant tensor:
#      x y z
#    x 1.781080 0.000000 0.000000 
#    y 0.000000 1.755000 0.000000 
#    z 0.000000 0.000000 1.742300 
# 
# From -- ./inp_files/40215.got.cif
#   From: 2010.03.12/outbox.cif.g09.slc.cpg/sg65_21_cif.got.tgz:40215.got - 2010.04.10 20:52:16.
