data_PCOD8273232
_publ_section_title
;
Structure prediction by ZEFSAII (Michael W. Deem and Ramdas Pophale) SiO2 
 PCOD8273232
Probable space group: C M M M
;
_chemical_formula_sum "Si O2"
_cell_formula_units_Z 88
_cell_length_a 27.899677
_cell_length_b 19.021650
_cell_length_c 9.111486
_cell_angle_alpha 90.000000
_cell_angle_beta 90.000000
_cell_angle_gamma 90.000000
_cell_volume 4835.446404
_symmetry_space_group_name_H-M "C M M M"
_symmetry_group_IT_number 65
_symmetry_cell_setting 'orthorhombic'
loop_
_space_group_symop_operation_xyz
x,y,z
-x,-y,z
x,-y,-z
-x,y,-z
-x,-y,-z
x,y,-z
-x,y,z
x,-y,z
1/2+x,1/2+y,z
1/2-x,1/2-y,z
1/2+x,1/2-y,-z
1/2-x,1/2+y,-z
1/2-x,1/2-y,-z
1/2+x,1/2+y,-z
1/2-x,1/2+y,z
1/2+x,1/2-y,z
loop_
_atom_site_type_symbol
_atom_site_label
_atom_site_fract_x
_atom_site_fract_y
_atom_site_fract_z
Si Si1 0.000000 0.416915 0.831537
Si Si2 0.717925 0.416347 0.662804
Si Si3 0.677854 0.078292 0.325620
Si Si4 0.085166 0.339193 0.674559
Si Si5 0.555624 0.299095 0.170969
Si Si6 0.874450 0.921073 0.828622
O O1 0.953630 0.388625 0.749774
O O2 0.000000 0.500000 0.822681
O O3 0.000000 0.390189 0.000000
O O4 0.711016 0.384823 0.500000
O O5 0.717264 0.500000 0.657513
O O6 0.769912 0.393761 0.729194
O O7 0.673999 0.388311 0.760142
O O8 0.680000 0.073316 0.500000
O O9 0.637014 0.132305 0.274795
O O10 0.666810 0.000000 0.262561
O O11 0.078293 0.342006 0.500000
O O12 0.080318 0.260104 0.730741
O O13 0.500000 0.305240 0.212048
O O14 0.580285 0.372880 0.212495
O O15 0.562684 0.280666 0.000000
O O16 0.885042 0.000000 0.769441
O O17 0.865536 0.922752 0.000000
#
# Coordination Sequence:
#
# PCOD8273232 Si02
#       6
#     8  16  16  16  16  16
#     4  11  23  37  53  75 106 141 176 215 259 306
#     4   8  14  28  51  76 102 132 163 203 259 310
#     4   8  15  29  50  76 104 133 169 212 254 297
#     4  11  21  34  54  78 103 136 178 220 256 298
#     4  10  21  37  54  71 101 141 172 210 267 320
#     4   9  18  33  54  79 102 128 170 217 258 311
#
# _framework density 18.198941000000001
#
# number of rings (size 3 to 8) (size 9 to 14) (size 15 to 20)
#    0.000    2.636    0.909    2.455    0.000    2.545 
#    0.000    4.545    0.000    9.818    0.000    3.818 
#    0.000    0.000    0.000    0.000    0.000    0.000 
#
# Total GULP energy -545429.848757 kJ/mol
# GULP energy per Si atom -12396.132926 kJ/mol
# Density = 1.815752 g / cm^3
# Si number density = 18.198941 Si / 1000 Ang^3
#
#
#
# Elastic Constant Matrix: (Units=GPa)
#
#
# Indices 1 2 3 4 5 6 
#
# 1 144.2631 70.9684 41.1981 0.0000 0.0000 0.0000
# 2 70.9684 92.4724 39.0261 0.0000 0.0000 0.0000
# 3 41.1981 39.0261 53.1193 0.0000 0.0000 0.0000
# 4 0.0000 0.0000 0.0000 22.5078 0.0000 0.0000
# 5 0.0000 0.0000 0.0000 0.0000 -8.6791 0.0000
# 6 0.0000 0.0000 0.0000 0.0000 0.0000 0.3239
#
#
#
# Elastic Compliance Matrix: (Units=1/GPa)
#
#
# Indices 1 2 3 4 5 6 
#
# 1 0.011581 -0.007388 -0.003554 0.000000 0.000000 0.000000
# 2 -0.007388 0.020387 -0.009248 0.000000 0.000000 0.000000
# 3 -0.003554 -0.009248 0.028377 0.000000 0.000000 0.000000
# 4 0.000000 0.000000 0.000000 0.044429 0.000000 0.000000
# 5 0.000000 0.000000 0.000000 0.000000 -0.115219 0.000000
# 6 0.000000 0.000000 0.000000 0.000000 0.000000 3.087116
#
#
# Mechanical properties :
#
#
# Convention : Reuss Voigt Hill
#
# Bulk Modulus (GPa) = 50.08996 65.80445 57.94721
# Shear Modulus (GPa) = 1.60066 12.07468 6.83767
#
# Velocity S-wave (km/s) = 0.93885 2.57861 1.94045
# Velocity P-wave (km/s) = 5.36270 6.71584 6.07705
#
# Compressibility (1/GPa) = 0.01996408
#
# Stress axis : x y z
#
# Youngs Moduli (GPa) = 86.34639 49.05080 35.24041
#
# Poissons Ratio (x) = 0.36239 0.12525
# Poissons Ratio (y) = 0.63794 0.32590
# Poissons Ratio (z) = 0.30689 0.45362
#
# Static dielectric constant tensor:
#      x y z
#    x 3.782440 0.000000 0.000000 
#    y 0.000000 3.297670 0.000000 
#    z 0.000000 0.000000 3.280280 
# 
# 
# High freq. dielectric constant tensor:
#      x y z
#    x 1.719770 0.000000 0.000000 
#    y 0.000000 1.686460 0.000000 
#    z 0.000000 0.000000 1.685490 
# 
# From -- ./inp_files/18323.got.cif
#   From: 2010.03.12/outbox.cif.g09.slc.cpg/sg65_10_cif.got.tgz:18323.got - 2010.04.10 20:52:16.
