data_PCOD8273075
_publ_section_title
;
Structure prediction by ZEFSAII (Michael W. Deem and Ramdas Pophale) SiO2 
 PCOD8273075
Probable space group: C M M M
;
_chemical_formula_sum "Si O2"
_cell_formula_units_Z 80
_cell_length_a 19.206901
_cell_length_b 8.723043
_cell_length_c 25.044274
_cell_angle_alpha 90.000000
_cell_angle_beta 90.000000
_cell_angle_gamma 90.000000
_cell_volume 4195.983365
_symmetry_space_group_name_H-M "C M M M"
_symmetry_group_IT_number 65
_symmetry_cell_setting 'orthorhombic'
loop_
_space_group_symop_operation_xyz
x,y,z
-x,-y,z
x,-y,-z
-x,y,-z
-x,-y,-z
x,y,-z
-x,y,z
x,-y,z
1/2+x,1/2+y,z
1/2-x,1/2-y,z
1/2+x,1/2-y,-z
1/2-x,1/2+y,-z
1/2-x,1/2-y,-z
1/2+x,1/2+y,-z
1/2-x,1/2+y,z
1/2+x,1/2-y,z
loop_
_atom_site_type_symbol
_atom_site_label
_atom_site_fract_x
_atom_site_fract_y
_atom_site_fract_z
Si Si1 0.677865 0.819707 0.059775
Si Si2 0.919543 0.679913 0.845390
Si Si3 0.177574 0.320650 0.644339
Si Si4 0.918659 0.825261 0.439211
Si Si5 0.323968 0.318960 0.757409
O O1 0.750000 0.750000 0.081246
O O2 0.615511 0.769930 0.098740
O O3 0.687108 0.000000 0.059461
O O4 0.660877 0.758851 0.000000
O O5 0.909713 0.500000 0.834710
O O6 0.884485 0.772555 0.797731
O O7 0.000000 0.726461 0.848536
O O8 0.186597 0.500000 0.654202
O O9 0.250000 0.250000 0.624117
O O10 0.120365 0.291459 0.599355
O O11 0.154095 0.242869 0.699486
O O12 0.897437 0.788080 0.500000
O O13 0.000000 0.799176 0.430939
O O14 0.898364 0.000000 0.425126
O O15 0.316576 0.500000 0.755178
O O16 0.250000 0.250000 0.776002
#
# Coordination Sequence:
#
# PCOD8273075 Si02
#       5
#    16  16  16  16  16
#     4   9  18  33  54  79 106 140 181 222 266 317
#     4  10  21  36  54  79 111 144 180 223 269 318
#     4  11  22  37  58  83 111 142 180 226 273 321
#     4   9  19  37  59  82 111 147 184 222 267 320
#     4  11  22  38  59  80 106 140 180 224 271 325
#
# _framework density 19.065853000000001
#
# number of rings (size 3 to 8) (size 9 to 14) (size 15 to 20)
#    0.000    2.000    0.000    6.000    0.000    5.200 
#    0.000    3.000    0.000    0.000    0.000    4.200 
#    0.000    0.000    0.000    0.000    0.000    0.000 
#
# Total GULP energy -496127.185299 kJ/mol
# GULP energy per Si atom -12403.179632 kJ/mol
# Density = 1.902246 g / cm^3
# Si number density = 19.065853 Si / 1000 Ang^3
#
#
#
# Elastic Constant Matrix: (Units=GPa)
#
#
# Indices 1 2 3 4 5 6 
#
# 1 122.7976 55.9455 82.6407 0.0000 0.0000 0.0000
# 2 55.9455 104.8417 53.2206 0.0000 0.0000 0.0000
# 3 82.6407 53.2206 117.8021 0.0000 0.0000 0.0000
# 4 0.0000 0.0000 0.0000 28.0098 0.0000 0.0000
# 5 0.0000 0.0000 0.0000 0.0000 81.4670 0.0000
# 6 0.0000 0.0000 0.0000 0.0000 0.0000 29.7751
#
#
#
# Elastic Compliance Matrix: (Units=1/GPa)
#
#
# Indices 1 2 3 4 5 6 
#
# 1 0.016519 -0.003805 -0.009869 0.000000 0.000000 0.000000
# 2 -0.003805 0.013253 -0.003318 0.000000 0.000000 0.000000
# 3 -0.009869 -0.003318 0.016912 0.000000 0.000000 0.000000
# 4 0.000000 0.000000 0.000000 0.035702 0.000000 0.000000
# 5 0.000000 0.000000 0.000000 0.000000 0.012275 0.000000
# 6 0.000000 0.000000 0.000000 0.000000 0.000000 0.033585
#
#
# Mechanical properties :
#
#
# Convention : Reuss Voigt Hill
#
# Bulk Modulus (GPa) = 78.75001 81.00611 79.87806
# Shear Modulus (GPa) = 30.03675 38.09269 34.06472
#
# Velocity S-wave (km/s) = 3.97346 4.47470 4.23151
# Velocity P-wave (km/s) = 7.90222 8.32328 8.11548
#
# Compressibility (1/GPa) = 0.01269841
#
# Stress axis : x y z
#
# Youngs Moduli (GPa) = 60.53694 75.45498 59.13126
#
# Poissons Ratio (x) = 0.28709 0.58359
# Poissons Ratio (y) = 0.23033 0.19621
# Poissons Ratio (z) = 0.59746 0.25038
#
# Static dielectric constant tensor:
#      x y z
#    x 3.433090 0.000000 0.000000 
#    y 0.000000 3.446990 0.000000 
#    z 0.000000 0.000000 3.632400 
# 
# 
# High freq. dielectric constant tensor:
#      x y z
#    x 1.737150 0.000000 0.000000 
#    y 0.000000 1.739900 0.000000 
#    z 0.000000 0.000000 1.750650 
# 
# From -- ./inp_files/72834.got.cif
#   From: 2010.03.12/outbox.cif.g09.slc.cpg/sg65_37_cif.got.tgz:72834.got - 2010.04.10 20:52:16.
