data_PCOD8273326
_publ_section_title
;
Structure prediction by ZEFSAII (Michael W. Deem and Ramdas Pophale) SiO2 
 PCOD8273326
Probable space group: C M M M
;
_chemical_formula_sum "Si O2"
_cell_formula_units_Z 88
_cell_length_a 24.138891
_cell_length_b 23.931787
_cell_length_c 8.066377
_cell_angle_alpha 90.000000
_cell_angle_beta 90.000000
_cell_angle_gamma 90.000000
_cell_volume 4659.839499
_symmetry_space_group_name_H-M "C M M M"
_symmetry_group_IT_number 65
_symmetry_cell_setting 'orthorhombic'
loop_
_space_group_symop_operation_xyz
x,y,z
-x,-y,z
x,-y,-z
-x,y,-z
-x,-y,-z
x,y,-z
-x,y,z
x,-y,z
1/2+x,1/2+y,z
1/2-x,1/2-y,z
1/2+x,1/2-y,-z
1/2-x,1/2+y,-z
1/2-x,1/2-y,-z
1/2+x,1/2+y,-z
1/2-x,1/2+y,z
1/2+x,1/2-y,z
loop_
_atom_site_type_symbol
_atom_site_label
_atom_site_fract_x
_atom_site_fract_y
_atom_site_fract_z
Si Si1 0.734486 0.437193 0.309132
Si Si2 0.060870 0.065401 0.000000
Si Si3 0.620951 0.618404 0.306732
Si Si4 0.562403 0.268467 0.691825
Si Si5 0.147760 0.561961 0.807618
Si Si6 0.938572 0.649336 0.807362
O O1 0.750277 0.438453 0.500000
O O2 0.716629 0.500000 0.250925
O O3 0.685827 0.392764 0.274900
O O4 0.789301 0.416611 0.214354
O O5 0.089334 0.081496 0.172925
O O6 0.000000 0.092689 0.000000
O O7 0.057232 0.000000 0.000000
O O8 0.605192 0.603211 0.500000
O O9 0.605985 0.682586 0.267672
O O10 0.562296 0.254234 0.500000
O O11 0.500000 0.285819 0.749168
O O12 0.582769 0.212678 0.783897
O O13 0.140883 0.500000 0.727018
O O14 0.104458 0.605485 0.724161
O O15 0.134663 0.558260 0.000000
O O16 0.000000 0.642322 0.726851
O O17 0.942227 0.636596 0.000000
#
# Coordination Sequence:
#
# PCOD8273326 Si02
#       6
#    16   8  16  16  16  16
#     4   9  18  33  53  75 100 136 179 220 266 317
#     4  11  24  36  52  82 111 142 184 228 279 330
#     4  10  21  37  56  79 109 145 185 228 271 321
#     4   9  18  33  53  75 100 136 179 220 266 317
#     4   9  18  32  51  76 105 137 173 216 267 322
#     4   9  18  32  51  76 105 137 173 216 267 322
#
# _framework density 18.884772000000002
#
# number of rings (size 3 to 8) (size 9 to 14) (size 15 to 20)
#    0.000    2.636    0.000    1.091    2.545    3.273 
#    0.000    3.636    0.000    5.455    0.000    5.091 
#    0.000    0.000    0.000    0.000    0.000    0.000 
#
# Total GULP energy -545269.746303 kJ/mol
# GULP energy per Si atom -12392.494234 kJ/mol
# Density = 1.884179 g / cm^3
# Si number density = 18.884772 Si / 1000 Ang^3
#
#
#
# Elastic Constant Matrix: (Units=GPa)
#
#
# Indices 1 2 3 4 5 6 
#
# 1 131.3190 94.9096 29.1580 0.0000 0.0000 0.0000
# 2 94.9096 121.5946 26.0435 0.0000 0.0000 0.0000
# 3 29.1580 26.0435 46.7661 0.0000 0.0000 0.0000
# 4 0.0000 0.0000 0.0000 21.8716 0.0000 0.0000
# 5 0.0000 0.0000 0.0000 0.0000 21.9971 0.0000
# 6 0.0000 0.0000 0.0000 0.0000 0.0000 39.2158
#
#
#
# Elastic Compliance Matrix: (Units=1/GPa)
#
#
# Indices 1 2 3 4 5 6 
#
# 1 0.018068 -0.013273 -0.003874 0.000000 0.000000 0.000000
# 2 -0.013273 0.019089 -0.002354 0.000000 0.000000 0.000000
# 3 -0.003874 -0.002354 0.025109 0.000000 0.000000 0.000000
# 4 0.000000 0.000000 0.000000 0.045721 0.000000 0.000000
# 5 0.000000 0.000000 0.000000 0.000000 0.045461 0.000000
# 6 0.000000 0.000000 0.000000 0.000000 0.000000 0.025500
#
#
# Mechanical properties :
#
#
# Convention : Reuss Voigt Hill
#
# Bulk Modulus (GPa) = 42.98585 66.65578 54.82081
# Shear Modulus (GPa) = 22.15269 26.58813 24.37041
#
# Velocity S-wave (km/s) = 3.42869 3.75629 3.59622
# Velocity P-wave (km/s) = 6.20372 7.36109 6.80705
#
# Compressibility (1/GPa) = 0.02326347
#
# Stress axis : x y z
#
# Youngs Moduli (GPa) = 55.34515 52.38660 39.82582
#
# Poissons Ratio (x) = 0.69535 0.15427
# Poissons Ratio (y) = 0.73462 0.09377
# Poissons Ratio (z) = 0.21438 0.12334
#
# Static dielectric constant tensor:
#      x y z
#    x 3.600310 0.000000 0.000000 
#    y 0.000000 3.537840 0.000000 
#    z 0.000000 0.000000 3.388050 
# 
# 
# High freq. dielectric constant tensor:
#      x y z
#    x 1.727660 0.000000 0.000000 
#    y 0.000000 1.725450 0.000000 
#    z 0.000000 0.000000 1.725670 
# 
# From -- ./inp_files/14003.got.cif
#   From: 2010.03.12/outbox.cif.g09.slc.cpg/sg65_8_cif.got.tgz:14003.got - 2010.04.10 20:52:16.
