data_PCOD8273785
_publ_section_title
;
Structure prediction by ZEFSAII (Michael W. Deem and Ramdas Pophale) SiO2 
 PCOD8273785
Probable space group: C M M M
;
_chemical_formula_sum "Si O2"
_cell_formula_units_Z 96
_cell_length_a 14.528599
_cell_length_b 20.227285
_cell_length_c 15.169869
_cell_angle_alpha 90.000000
_cell_angle_beta 90.000000
_cell_angle_gamma 90.000000
_cell_volume 4458.031791
_symmetry_space_group_name_H-M "C M M M"
_symmetry_group_IT_number 65
_symmetry_cell_setting 'orthorhombic'
loop_
_space_group_symop_operation_xyz
x,y,z
-x,-y,z
x,-y,-z
-x,y,-z
-x,-y,-z
x,y,-z
-x,y,z
x,-y,z
1/2+x,1/2+y,z
1/2-x,1/2-y,z
1/2+x,1/2-y,-z
1/2-x,1/2+y,-z
1/2-x,1/2-y,-z
1/2+x,1/2+y,-z
1/2-x,1/2+y,z
1/2+x,1/2-y,z
loop_
_atom_site_type_symbol
_atom_site_label
_atom_site_fract_x
_atom_site_fract_y
_atom_site_fract_z
Si Si1 0.678226 0.808189 0.903402
Si Si2 0.891430 0.924333 0.500000
Si Si3 0.287036 0.617618 0.330005
Si Si4 0.696208 0.573275 0.846979
Si Si5 0.500000 0.424844 0.103270
Si Si6 0.399469 0.161424 0.600875
Si Si7 0.100764 0.767019 0.255648
O O1 0.750000 0.750000 0.911274
O O2 0.724789 0.879425 0.885008
O O3 0.611611 0.786573 0.823472
O O4 0.628403 0.814064 0.000000
O O5 0.855127 0.889158 0.587889
O O6 0.000000 0.918326 0.500000
O O7 0.857715 0.000000 0.500000
O O8 0.293740 0.559763 0.258195
O O9 0.182282 0.616108 0.362829
O O10 0.315177 0.681231 0.268017
O O11 0.701866 0.500000 0.892014
O O12 0.595588 0.607975 0.863400
O O13 0.500000 0.500000 0.138144
O O14 0.500000 0.419471 0.000000
O O15 0.378823 0.178768 0.500000
O O16 0.500000 0.126017 0.611190
O O17 0.399804 0.230068 0.651379
O O18 0.000000 0.801208 0.242644
#
# Coordination Sequence:
#
# PCOD8273785 Si02
#       7
#    16   8  16  16   8  16  16
#     4  11  22  40  63  89 126 168 213 268 325 383
#     4  11  26  42  60  93 137 179 221 269 329 402
#     4  12  22  40  64  91 129 173 219 270 326 389
#     4  11  23  39  63  92 128 173 217 266 330 400
#     4   9  20  38  60  91 127 163 210 265 320 393
#     4  10  21  38  63  93 125 163 211 272 333 385
#     4  11  23  39  63  95 130 167 216 270 328 393
#
# _framework density 21.534165999999999
#
# number of rings (size 3 to 8) (size 9 to 14) (size 15 to 20)
#    0.000    1.167    4.167    2.000    3.500    2.000 
#    0.000    0.000    0.000    4.000    0.000    1.167 
#    0.000    0.000    0.000    0.000    0.000    0.000 
#
# Total GULP energy -594736.221824 kJ/mol
# GULP energy per Si atom -12390.337955 kJ/mol
# Density = 2.148515 g / cm^3
# Si number density = 21.534166 Si / 1000 Ang^3
#
#
#
# Elastic Constant Matrix: (Units=GPa)
#
#
# Indices 1 2 3 4 5 6 
#
# 1 124.5649 28.0829 41.3643 0.0000 0.0000 0.0000
# 2 28.0829 69.3916 25.2265 0.0000 0.0000 0.0000
# 3 41.3643 25.2265 138.6194 0.0000 0.0000 0.0000
# 4 0.0000 0.0000 0.0000 18.8252 0.0000 0.0000
# 5 0.0000 0.0000 0.0000 0.0000 8.2965 0.0000
# 6 0.0000 0.0000 0.0000 0.0000 0.0000 18.5688
#
#
#
# Elastic Compliance Matrix: (Units=1/GPa)
#
#
# Indices 1 2 3 4 5 6 
#
# 1 0.009461 -0.003001 -0.002277 0.000000 0.000000 0.000000
# 2 -0.003001 0.016384 -0.002086 0.000000 0.000000 0.000000
# 3 -0.002277 -0.002086 0.008273 0.000000 0.000000 0.000000
# 4 0.000000 0.000000 0.000000 0.053120 0.000000 0.000000
# 5 0.000000 0.000000 0.000000 0.000000 0.120533 0.000000
# 6 0.000000 0.000000 0.000000 0.000000 0.000000 0.053854
#
#
# Mechanical properties :
#
#
# Convention : Reuss Voigt Hill
#
# Bulk Modulus (GPa) = 51.57428 57.99147 54.78288
# Shear Modulus (GPa) = 17.67934 24.99824 21.33879
#
# Velocity S-wave (km/s) = 2.86840 3.41084 3.15131
# Velocity P-wave (km/s) = 5.91374 6.51922 6.22385
#
# Compressibility (1/GPa) = 0.01938951
#
# Stress axis : x y z
#
# Youngs Moduli (GPa) = 105.70143 61.03578 120.87402
#
# Poissons Ratio (x) = 0.18317 0.27522
# Poissons Ratio (y) = 0.31721 0.25216
# Poissons Ratio (z) = 0.24068 0.12733
#
# Static dielectric constant tensor:
#      x y z
#    x 4.018640 0.000000 0.000000 
#    y 0.000000 3.625410 0.000000 
#    z 0.000000 0.000000 4.374260 
# 
# 
# High freq. dielectric constant tensor:
#      x y z
#    x 1.836860 0.000000 0.000000 
#    y 0.000000 1.816150 0.000000 
#    z 0.000000 0.000000 1.872330 
# 
# From -- ./inp_files/40458.got.cif
#   From: 2010.03.12/outbox.cif.g09.slc.cpg/sg65_21_cif.got.tgz:40458.got - 2010.04.10 20:52:16.
