data_PCOD8273930
_publ_section_title
;
Structure prediction by ZEFSAII (Michael W. Deem and Ramdas Pophale) SiO2 
 PCOD8273930
Probable space group: C M M M
;
_chemical_formula_sum "Si O2"
_cell_formula_units_Z 80
_cell_length_a 28.589638
_cell_length_b 17.465946
_cell_length_c 7.924777
_cell_angle_alpha 90.000000
_cell_angle_beta 90.000000
_cell_angle_gamma 90.000000
_cell_volume 3957.198353
_symmetry_space_group_name_H-M "C M M M"
_symmetry_group_IT_number 65
_symmetry_cell_setting 'orthorhombic'
loop_
_space_group_symop_operation_xyz
x,y,z
-x,-y,z
x,-y,-z
-x,y,-z
-x,-y,-z
x,y,-z
-x,y,z
x,-y,z
1/2+x,1/2+y,z
1/2-x,1/2-y,z
1/2+x,1/2-y,-z
1/2-x,1/2+y,-z
1/2-x,1/2-y,-z
1/2+x,1/2+y,-z
1/2-x,1/2+y,z
1/2+x,1/2-y,z
loop_
_atom_site_type_symbol
_atom_site_label
_atom_site_fract_x
_atom_site_fract_y
_atom_site_fract_z
Si Si1 0.274297 0.827061 0.693457
Si Si2 0.317123 0.589314 0.683805
Si Si3 0.136103 0.586084 0.193537
Si Si4 0.946593 0.320913 0.689588
Si Si5 0.374504 0.408816 0.000000
Si Si6 0.946101 0.784976 0.000000
O O1 0.287648 0.811525 0.500000
O O2 0.250000 0.750000 0.769719
O O3 0.237358 0.895253 0.717152
O O4 0.321687 0.853218 0.784447
O O5 0.331711 0.624609 0.500000
O O6 0.325130 0.500000 0.680116
O O7 0.347721 0.623387 0.835084
O O8 0.151077 0.500000 0.250740
O O9 0.089931 0.609125 0.298744
O O10 0.121189 0.586508 0.000000
O O11 0.943590 0.285856 0.500000
O O12 0.931021 0.259253 0.829941
O O13 0.000000 0.349040 0.725402
O O14 0.380151 0.500000 0.000000
O O15 0.424502 0.369426 0.000000
O O16 0.000000 0.801682 0.000000
#
# Coordination Sequence:
#
# PCOD8273930 Si02
#       6
#    16  16  16  16   8   8
#     4  10  22  37  55  82 114 154 200 245 292 348
#     4   9  19  36  56  80 114 153 193 239 288 343
#     4  11  24  39  59  89 123 158 198 250 305 357
#     4  10  22  41  65  90 117 156 201 244 300 362
#     4  10  22  37  60  89 114 155 201 240 296 358
#     4  10  22  41  62  89 124 153 189 247 303 355
#
# _framework density 20.216322999999999
#
# number of rings (size 3 to 8) (size 9 to 14) (size 15 to 20)
#    0.000    2.000    1.000    1.200    4.200    4.200 
#    0.000    2.000    0.000    0.000    0.000    5.600 
#    0.000    0.000    0.000    0.000    0.000    0.000 
#
# Total GULP energy -495781.868415 kJ/mol
# GULP energy per Si atom -12394.546710 kJ/mol
# Density = 2.017031 g / cm^3
# Si number density = 20.216323 Si / 1000 Ang^3
#
#
#
# Elastic Constant Matrix: (Units=GPa)
#
#
# Indices 1 2 3 4 5 6 
#
# 1 106.6430 57.1923 45.8814 0.0000 0.0000 0.0000
# 2 57.1923 63.3971 39.8156 0.0000 0.0000 0.0000
# 3 45.8814 39.8156 130.4230 0.0000 0.0000 0.0000
# 4 0.0000 0.0000 0.0000 10.2855 0.0000 0.0000
# 5 0.0000 0.0000 0.0000 0.0000 14.5799 0.0000
# 6 0.0000 0.0000 0.0000 0.0000 0.0000 38.0734
#
#
#
# Elastic Compliance Matrix: (Units=1/GPa)
#
#
# Indices 1 2 3 4 5 6 
#
# 1 0.018482 -0.015576 -0.001747 0.000000 0.000000 0.000000
# 2 -0.015576 0.032642 -0.004486 0.000000 0.000000 0.000000
# 3 -0.001747 -0.004486 0.009651 0.000000 0.000000 0.000000
# 4 0.000000 0.000000 0.000000 0.097224 0.000000 0.000000
# 5 0.000000 0.000000 0.000000 0.000000 0.068587 0.000000
# 6 0.000000 0.000000 0.000000 0.000000 0.000000 0.026265
#
#
# Mechanical properties :
#
#
# Convention : Reuss Voigt Hill
#
# Bulk Modulus (GPa) = 58.27922 65.13796 61.70859
# Shear Modulus (GPa) = 16.54597 23.09269 19.81933
#
# Velocity S-wave (km/s) = 2.86395 3.38343 3.13447
# Velocity P-wave (km/s) = 6.31084 6.89593 6.60986
#
# Compressibility (1/GPa) = 0.01715877
#
# Stress axis : x y z
#
# Youngs Moduli (GPa) = 54.10661 30.63496 103.61432
#
# Poissons Ratio (x) = 0.47718 0.18098
# Poissons Ratio (y) = 0.84278 0.46477
# Poissons Ratio (z) = 0.09451 0.13742
#
# Static dielectric constant tensor:
#      x y z
#    x 3.557180 0.000000 0.000000 
#    y 0.000000 3.523920 0.000000 
#    z 0.000000 0.000000 4.064290 
# 
# 
# High freq. dielectric constant tensor:
#      x y z
#    x 1.784690 0.000000 0.000000 
#    y 0.000000 1.771440 0.000000 
#    z 0.000000 0.000000 1.802250 
# 
# From -- ./inp_files/16110.got.cif
#   From: 2010.03.12/outbox.cif.g09.slc.cpg/sg65_9_cif.got.tgz:16110.got - 2010.04.10 20:52:16.
