data_PCOD8273511
_publ_section_title
;
Structure prediction by ZEFSAII (Michael W. Deem and Ramdas Pophale) SiO2 
 PCOD8273511
Probable space group: C M M M
;
_chemical_formula_sum "Si O2"
_cell_formula_units_Z 72
_cell_length_a 8.713189
_cell_length_b 18.585613
_cell_length_c 22.824831
_cell_angle_alpha 90.000000
_cell_angle_beta 90.000000
_cell_angle_gamma 90.000000
_cell_volume 3696.252191
_symmetry_space_group_name_H-M "C M M M"
_symmetry_group_IT_number 65
_symmetry_cell_setting 'orthorhombic'
loop_
_space_group_symop_operation_xyz
x,y,z
-x,-y,z
x,-y,-z
-x,y,-z
-x,-y,-z
x,y,-z
-x,y,z
x,-y,z
1/2+x,1/2+y,z
1/2-x,1/2-y,z
1/2+x,1/2-y,-z
1/2-x,1/2+y,-z
1/2-x,1/2-y,-z
1/2+x,1/2+y,-z
1/2-x,1/2+y,z
1/2+x,1/2-y,z
loop_
_atom_site_type_symbol
_atom_site_label
_atom_site_fract_x
_atom_site_fract_y
_atom_site_fract_z
Si Si1 0.681260 0.170973 0.000000
Si Si2 0.820188 0.416542 0.113228
Si Si3 0.826458 0.084745 0.434192
Si Si4 0.681128 0.326990 0.785598
Si Si5 0.320914 0.825122 0.337561
O O1 0.750000 0.250000 0.000000
O O2 0.737867 0.127399 0.943228
O O3 0.500000 0.177501 0.000000
O O4 0.781309 0.500000 0.103248
O O5 0.728360 0.388366 0.169098
O O6 0.000000 0.404793 0.124085
O O7 0.785165 0.110285 0.500000
O O8 0.707077 0.118241 0.388949
O O9 0.000000 0.108661 0.418596
O O10 0.810613 0.000000 0.429665
O O11 0.500000 0.319363 0.783415
O O12 0.750000 0.250000 0.804561
O O13 0.742071 0.351553 0.722271
O O14 0.500000 0.816148 0.325706
O O15 0.250000 0.750000 0.358312
#
# Coordination Sequence:
#
# PCOD8273511 Si02
#       5
#     8  16  16  16  16
#     4  10  21  37  59  85 113 150 189 228 276 328
#     4  10  21  38  59  84 115 149 187 230 276 327
#     4   9  19  37  59  82 111 147 185 227 277 332
#     4  11  22  38  59  82 111 146 186 230 278 333
#     4  11  22  37  58  83 112 146 186 232 279 329
#
# _framework density 19.479192000000001
#
# number of rings (size 3 to 8) (size 9 to 14) (size 15 to 20)
#    0.000    1.778    0.000    7.000    0.000    6.667 
#    0.000    1.111    0.000    2.000    0.000    0.000 
#    0.000    0.000    0.000    0.000    0.000    0.000 
#
# Total GULP energy -446542.371744 kJ/mol
# GULP energy per Si atom -12403.954771 kJ/mol
# Density = 1.943486 g / cm^3
# Si number density = 19.479192 Si / 1000 Ang^3
#
#
#
# Elastic Constant Matrix: (Units=GPa)
#
#
# Indices 1 2 3 4 5 6 
#
# 1 116.2568 48.9093 52.2495 0.0000 0.0000 0.0000
# 2 48.9093 102.8276 73.0548 0.0000 0.0000 0.0000
# 3 52.2495 73.0548 131.3635 0.0000 0.0000 0.0000
# 4 0.0000 0.0000 0.0000 37.9858 0.0000 0.0000
# 5 0.0000 0.0000 0.0000 0.0000 30.0035 0.0000
# 6 0.0000 0.0000 0.0000 0.0000 0.0000 30.8926
#
#
#
# Elastic Compliance Matrix: (Units=1/GPa)
#
#
# Indices 1 2 3 4 5 6 
#
# 1 0.011218 -0.003581 -0.002471 0.000000 0.000000 0.000000
# 2 -0.003581 0.017220 -0.008152 0.000000 0.000000 0.000000
# 3 -0.002471 -0.008152 0.013129 0.000000 0.000000 0.000000
# 4 0.000000 0.000000 0.000000 0.026326 0.000000 0.000000
# 5 0.000000 0.000000 0.000000 0.000000 0.033329 0.000000
# 6 0.000000 0.000000 0.000000 0.000000 0.000000 0.032370
#
#
# Mechanical properties :
#
#
# Convention : Reuss Voigt Hill
#
# Bulk Modulus (GPa) = 75.98833 77.65278 76.82055
# Shear Modulus (GPa) = 30.05044 31.52533 30.78789
#
# Velocity S-wave (km/s) = 3.93198 4.02731 3.97993
# Velocity P-wave (km/s) = 7.72713 7.84708 7.78734
#
# Compressibility (1/GPa) = 0.01315992
#
# Stress axis : x y z
#
# Youngs Moduli (GPa) = 89.13867 58.07205 76.16727
#
# Poissons Ratio (x) = 0.20793 0.18820
# Poissons Ratio (y) = 0.31916 0.62094
# Poissons Ratio (z) = 0.22025 0.47342
#
# Static dielectric constant tensor:
#      x y z
#    x 3.566840 0.000000 0.000000 
#    y 0.000000 3.339360 0.000000 
#    z 0.000000 0.000000 3.664350 
# 
# 
# High freq. dielectric constant tensor:
#      x y z
#    x 1.757610 0.000000 0.000000 
#    y 0.000000 1.756300 0.000000 
#    z 0.000000 0.000000 1.771030 
# 
# From -- ./inp_files/59253.got.cif
#   From: 2010.03.12/outbox.cif.g09.slc.cpg/sg65_30_cif.got.tgz:59253.got - 2010.04.10 20:52:16.
