data_PCOD8273503
_publ_section_title
;
Structure prediction by ZEFSAII (Michael W. Deem and Ramdas Pophale) SiO2 
 PCOD8273503
Probable space group: C M M M
;
_chemical_formula_sum "Si O2"
_cell_formula_units_Z 72
_cell_length_a 13.733096
_cell_length_b 28.431283
_cell_length_c 9.293440
_cell_angle_alpha 90.000000
_cell_angle_beta 90.000000
_cell_angle_gamma 90.000000
_cell_volume 3628.619362
_symmetry_space_group_name_H-M "C M M M"
_symmetry_group_IT_number 65
_symmetry_cell_setting 'orthorhombic'
loop_
_space_group_symop_operation_xyz
x,y,z
-x,-y,z
x,-y,-z
-x,y,-z
-x,-y,-z
x,y,-z
-x,y,z
x,-y,z
1/2+x,1/2+y,z
1/2-x,1/2-y,z
1/2+x,1/2-y,-z
1/2-x,1/2+y,-z
1/2-x,1/2-y,-z
1/2+x,1/2+y,-z
1/2-x,1/2+y,z
1/2+x,1/2-y,z
loop_
_atom_site_type_symbol
_atom_site_label
_atom_site_fract_x
_atom_site_fract_y
_atom_site_fract_z
Si Si1 0.884541 0.185202 0.662490
Si Si2 0.112662 0.000000 0.829942
Si Si3 0.608717 0.863912 0.334795
Si Si4 0.201844 0.913608 0.334232
Si Si5 0.883966 0.726515 0.162322
O O1 0.847556 0.193913 0.500000
O O2 0.848498 0.134607 0.716706
O O3 0.840749 0.226402 0.763470
O O4 0.000000 0.185704 0.669991
O O5 0.164714 0.954381 0.767649
O O6 0.000000 0.000000 0.784014
O O7 0.125293 0.000000 0.000000
O O8 0.607371 0.847524 0.500000
O O9 0.500000 0.878882 0.284198
O O10 0.681276 0.908030 0.314139
O O11 0.651048 0.819921 0.245962
O O12 0.175629 0.925383 0.500000
O O13 0.000000 0.728324 0.167869
O O14 0.844746 0.724367 0.000000
#
# Coordination Sequence:
#
# PCOD8273503 Si02
#       5
#    16   8  16  16  16
#     4   9  17  30  49  74 104 138 178 224 269 315
#     4  11  25  43  62  85 112 138 165 209 272 331
#     4   9  18  34  55  79 109 144 182 225 268 309
#     4  10  21  37  59  83 105 138 184 226 267 319
#     4   9  17  29  47  73 107 147 184 218 264 320
#
# _framework density 19.842257
#
# number of rings (size 3 to 8) (size 9 to 14) (size 15 to 20)
#    0.000    2.556    0.000    1.667    0.000    7.111 
#    0.000    7.222    0.000    3.333    0.000    0.000 
#    0.000    0.000    0.000    0.000    0.000    0.000 
#
# Total GULP energy -446419.855866 kJ/mol
# GULP energy per Si atom -12400.551552 kJ/mol
# Density = 1.979710 g / cm^3
# Si number density = 19.842257 Si / 1000 Ang^3
#
#
#
# Elastic Constant Matrix: (Units=GPa)
#
#
# Indices 1 2 3 4 5 6 
#
# 1 59.7724 57.6489 37.3500 0.0000 0.0000 0.0000
# 2 57.6489 132.8932 76.7052 0.0000 0.0000 0.0000
# 3 37.3500 76.7052 106.2780 0.0000 0.0000 0.0000
# 4 0.0000 0.0000 0.0000 19.1765 0.0000 0.0000
# 5 0.0000 0.0000 0.0000 0.0000 17.8840 0.0000
# 6 0.0000 0.0000 0.0000 0.0000 0.0000 29.8540
#
#
#
# Elastic Compliance Matrix: (Units=1/GPa)
#
#
# Indices 1 2 3 4 5 6 
#
# 1 0.028988 -0.011475 -0.001905 0.000000 0.000000 0.000000
# 2 -0.011475 0.017441 -0.008555 0.000000 0.000000 0.000000
# 3 -0.001905 -0.008555 0.016253 0.000000 0.000000 0.000000
# 4 0.000000 0.000000 0.000000 0.052147 0.000000 0.000000
# 5 0.000000 0.000000 0.000000 0.000000 0.055916 0.000000
# 6 0.000000 0.000000 0.000000 0.000000 0.000000 0.033496
#
#
# Mechanical properties :
#
#
# Convention : Reuss Voigt Hill
#
# Bulk Modulus (GPa) = 53.15953 71.37243 62.26598
# Shear Modulus (GPa) = 19.65541 21.86553 20.76047
#
# Velocity S-wave (km/s) = 3.15077 3.32319 3.23813
# Velocity P-wave (km/s) = 6.33133 7.12550 6.74012
#
# Compressibility (1/GPa) = 0.01881130
#
# Stress axis : x y z
#
# Youngs Moduli (GPa) = 34.49649 57.33758 61.52648
#
# Poissons Ratio (x) = 0.65797 0.11723
# Poissons Ratio (y) = 0.39586 0.52634
# Poissons Ratio (z) = 0.06573 0.49051
#
# Static dielectric constant tensor:
#      x y z
#    x 3.774240 0.000000 0.000000 
#    y 0.000000 3.443690 0.000000 
#    z 0.000000 0.000000 3.636380 
# 
# 
# High freq. dielectric constant tensor:
#      x y z
#    x 1.788990 0.000000 0.000000 
#    y 0.000000 1.753340 0.000000 
#    z 0.000000 0.000000 1.765610 
# 
# From -- ./inp_files/7210.got.cif
#   From: 2010.03.12/outbox.cif.g09.slc.cpg/sg65_4_cif.got.tgz:7210.got - 2010.04.10 20:52:16.
