data_PCOD8273422
_publ_section_title
;
Structure prediction by ZEFSAII (Michael W. Deem and Ramdas Pophale) SiO2 
 PCOD8273422
Probable space group: C M M M
;
_chemical_formula_sum "Si O2"
_cell_formula_units_Z 96
_cell_length_a 18.754932
_cell_length_b 8.845657
_cell_length_c 30.507738
_cell_angle_alpha 90.000000
_cell_angle_beta 90.000000
_cell_angle_gamma 90.000000
_cell_volume 5061.224446
_symmetry_space_group_name_H-M "C M M M"
_symmetry_group_IT_number 65
_symmetry_cell_setting 'orthorhombic'
loop_
_space_group_symop_operation_xyz
x,y,z
-x,-y,z
x,-y,-z
-x,y,-z
-x,-y,-z
x,y,-z
-x,y,z
x,-y,z
1/2+x,1/2+y,z
1/2-x,1/2-y,z
1/2+x,1/2-y,-z
1/2-x,1/2+y,-z
1/2-x,1/2-y,-z
1/2+x,1/2+y,-z
1/2-x,1/2+y,z
1/2+x,1/2-y,z
loop_
_atom_site_type_symbol
_atom_site_label
_atom_site_fract_x
_atom_site_fract_y
_atom_site_fract_z
Si Si1 0.327814 0.678619 0.205447
Si Si2 0.822806 0.676718 0.951008
Si Si3 0.582696 0.823357 0.718558
Si Si4 0.675420 0.678413 0.548702
Si Si5 0.082723 0.172329 0.628854
Si Si6 0.582397 0.176937 0.129136
O O1 0.319382 0.500000 0.205862
O O2 0.250000 0.750000 0.202253
O O3 0.367354 0.730401 0.249238
O O4 0.374796 0.727160 0.164266
O O5 0.809243 0.500000 0.951638
O O6 0.750000 0.750000 0.933240
O O7 0.887824 0.718251 0.918985
O O8 0.841437 0.736187 0.000000
O O9 0.500000 0.781963 0.727693
O O10 0.604793 0.777505 0.669462
O O11 0.596445 0.000000 0.725490
O O12 0.650947 0.731617 0.500000
O O13 0.683410 0.500000 0.549849
O O14 0.750000 0.750000 0.561694
O O15 0.619549 0.734772 0.584912
O O16 0.000000 0.183855 0.619105
O O17 0.105325 0.000000 0.639558
O O18 0.500000 0.224272 0.130577
O O19 0.592099 0.000000 0.139791
#
# Coordination Sequence:
#
# PCOD8273422 Si02
#       6
#    16  16  16  16  16  16
#     4  12  25  40  59  82 109 141 180 224 270 322
#     4   9  18  33  54  80 110 146 186 226 269 317
#     4  10  21  38  59  82 110 142 176 217 267 322
#     4   9  18  32  50  73 102 137 175 216 263 313
#     4   9  18  33  53  77 105 138 177 219 262 311
#     4  10  21  37  57  82 113 147 183 225 272 321
#
# _framework density 18.967742999999999
#
# number of rings (size 3 to 8) (size 9 to 14) (size 15 to 20)
#    0.000    2.167    0.000    3.000    0.000    7.333 
#    0.000    5.000    0.000    0.000    0.000    8.167 
#    0.000    0.000    0.000    0.000    0.000    0.000 
#
# Total GULP energy -595254.308785 kJ/mol
# GULP energy per Si atom -12401.131433 kJ/mol
# Density = 1.892457 g / cm^3
# Si number density = 18.967743 Si / 1000 Ang^3
#
#
#
# Elastic Constant Matrix: (Units=GPa)
#
#
# Indices 1 2 3 4 5 6 
#
# 1 128.6702 58.0674 87.3652 0.0000 0.0000 0.0000
# 2 58.0674 75.0802 52.8397 0.0000 0.0000 0.0000
# 3 87.3652 52.8397 135.6108 0.0000 0.0000 0.0000
# 4 0.0000 0.0000 0.0000 29.0466 0.0000 0.0000
# 5 0.0000 0.0000 0.0000 0.0000 54.9748 0.0000
# 6 0.0000 0.0000 0.0000 0.0000 0.0000 30.3039
#
#
#
# Elastic Compliance Matrix: (Units=1/GPa)
#
#
# Indices 1 2 3 4 5 6 
#
# 1 0.016183 -0.007135 -0.007645 0.000000 0.000000 0.000000
# 2 -0.007135 0.021498 -0.003780 0.000000 0.000000 0.000000
# 3 -0.007645 -0.003780 0.013772 0.000000 0.000000 0.000000
# 4 0.000000 0.000000 0.000000 0.034427 0.000000 0.000000
# 5 0.000000 0.000000 0.000000 0.000000 0.018190 0.000000
# 6 0.000000 0.000000 0.000000 0.000000 0.000000 0.032999
#
#
# Mechanical properties :
#
#
# Convention : Reuss Voigt Hill
#
# Bulk Modulus (GPa) = 69.77330 81.76732 75.77031
# Shear Modulus (GPa) = 27.93805 32.27101 30.10453
#
# Velocity S-wave (km/s) = 3.84203 4.12923 3.98822
# Velocity P-wave (km/s) = 7.51976 8.12012 7.82569
#
# Compressibility (1/GPa) = 0.01433213
#
# Stress axis : x y z
#
# Youngs Moduli (GPa) = 61.79297 46.51687 72.61024
#
# Poissons Ratio (x) = 0.33192 0.55514
# Poissons Ratio (y) = 0.44092 0.27443
# Poissons Ratio (z) = 0.47243 0.17581
#
# Static dielectric constant tensor:
#      x y z
#    x 3.519510 0.000000 0.000000 
#    y 0.000000 3.446310 0.000000 
#    z 0.000000 0.000000 3.826480 
# 
# 
# High freq. dielectric constant tensor:
#      x y z
#    x 1.735420 0.000000 0.000000 
#    y 0.000000 1.731150 0.000000 
#    z 0.000000 0.000000 1.752180 
# 
# From -- ./inp_files/75341.got.cif
#   From: 2010.03.12/outbox.cif.g09.slc.cpg/sg65_38_cif.got.tgz:75341.got - 2010.04.10 20:52:16.
