data_PCOD8273561
_publ_section_title
;
Structure prediction by ZEFSAII (Michael W. Deem and Ramdas Pophale) SiO2 
 PCOD8273561
Probable space group: C M M M
;
_chemical_formula_sum "Si O2"
_cell_formula_units_Z 72
_cell_length_a 8.739931
_cell_length_b 25.656259
_cell_length_c 19.876499
_cell_angle_alpha 90.000000
_cell_angle_beta 90.000000
_cell_angle_gamma 90.000000
_cell_volume 4456.985553
_symmetry_space_group_name_H-M "C M M M"
_symmetry_group_IT_number 65
_symmetry_cell_setting 'orthorhombic'
loop_
_space_group_symop_operation_xyz
x,y,z
-x,-y,z
x,-y,-z
-x,y,-z
-x,-y,-z
x,y,-z
-x,y,z
x,-y,z
1/2+x,1/2+y,z
1/2-x,1/2-y,z
1/2+x,1/2-y,-z
1/2-x,1/2+y,-z
1/2-x,1/2-y,-z
1/2+x,1/2+y,-z
1/2-x,1/2+y,z
1/2+x,1/2-y,z
loop_
_atom_site_type_symbol
_atom_site_label
_atom_site_fract_x
_atom_site_fract_y
_atom_site_fract_z
Si Si1 0.171587 0.061865 0.428848
Si Si2 0.178333 0.194724 0.922020
Si Si3 0.182013 0.939809 0.283731
Si Si4 0.680446 0.098118 0.151619
Si Si5 0.176305 0.000000 0.920671
O O1 0.254609 0.079268 0.500000
O O2 0.245641 0.079557 0.357536
O O3 0.000000 0.084053 0.431494
O O4 0.164934 0.000000 0.425881
O O5 0.250000 0.250000 0.903053
O O6 0.263752 0.152380 0.877776
O O7 0.000000 0.195011 0.904222
O O8 0.206031 0.181419 0.000000
O O9 0.264596 0.904615 0.228605
O O10 0.000000 0.932485 0.280052
O O11 0.225496 0.000000 0.270203
O O12 0.500000 0.094900 0.148233
O O13 0.747987 0.051433 0.108209
O O14 0.000000 0.000000 0.898801
O O15 0.197254 0.000000 0.000000
#
# Coordination Sequence:
#
# PCOD8273561 Si02
#       5
#    16  16  16  16   8
#     4   7  10  18  35  60  86 115 156 199 232 268
#     4  10  21  38  58  76  94 119 154 198 245 290
#     4   9  16  27  44  64  92 129 163 196 236 281
#     4  12  23  33  48  71  99 129 160 196 237 286
#     4  11  23  37  51  67  90 123 162 201 241 286
#
# _framework density 16.154416999999999
#
# number of rings (size 3 to 8) (size 9 to 14) (size 15 to 20)
#    0.000    2.333    1.111    5.667    0.000    4.889 
#    0.000    0.000    0.000    0.667    0.000    3.111 
#    0.000    0.889    0.000    2.444    0.000    3.556 
#
# Total GULP energy -446044.984037 kJ/mol
# GULP energy per Si atom -12390.138445 kJ/mol
# Density = 1.611765 g / cm^3
# Si number density = 16.154417 Si / 1000 Ang^3
#
#
#
# Elastic Constant Matrix: (Units=GPa)
#
#
# Indices 1 2 3 4 5 6 
#
# 1 85.7724 37.8071 63.0973 0.0000 0.0000 0.0000
# 2 37.8071 72.1171 64.6346 0.0000 0.0000 0.0000
# 3 63.0973 64.6346 139.9761 0.0000 0.0000 0.0000
# 4 0.0000 0.0000 0.0000 44.9656 0.0000 0.0000
# 5 0.0000 0.0000 0.0000 0.0000 6.7737 0.0000
# 6 0.0000 0.0000 0.0000 0.0000 0.0000 22.9611
#
#
#
# Elastic Compliance Matrix: (Units=1/GPa)
#
#
# Indices 1 2 3 4 5 6 
#
# 1 0.018001 -0.003693 -0.006409 0.000000 0.000000 0.000000
# 2 -0.003693 0.024414 -0.009609 0.000000 0.000000 0.000000
# 3 -0.006409 -0.009609 0.014470 0.000000 0.000000 0.000000
# 4 0.000000 0.000000 0.000000 0.022239 0.000000 0.000000
# 5 0.000000 0.000000 0.000000 0.000000 0.147631 0.000000
# 6 0.000000 0.000000 0.000000 0.000000 0.000000 0.043552
#
#
# Mechanical properties :
#
#
# Convention : Reuss Voigt Hill
#
# Bulk Modulus (GPa) = 57.26120 69.88261 63.57191
# Shear Modulus (GPa) = 15.84533 23.76184 19.80358
#
# Velocity S-wave (km/s) = 3.13528 3.83942 3.50507
# Velocity P-wave (km/s) = 6.97350 7.93775 7.47120
#
# Compressibility (1/GPa) = 0.01746383
#
# Stress axis : x y z
#
# Youngs Moduli (GPa) = 55.55103 40.96015 69.10816
#
# Poissons Ratio (x) = 0.15126 0.44294
# Poissons Ratio (y) = 0.20514 0.66403
# Poissons Ratio (z) = 0.35605 0.39357
#
# Static dielectric constant tensor:
#      x y z
#    x 2.946690 0.000000 0.000000 
#    y 0.000000 2.797710 0.000000 
#    z 0.000000 0.000000 3.655590 
# 
# 
# High freq. dielectric constant tensor:
#      x y z
#    x 1.607150 0.000000 0.000000 
#    y 0.000000 1.574260 0.000000 
#    z 0.000000 0.000000 1.642760 
# 
# From -- ./inp_files/59210.got.cif
#   From: 2010.03.12/outbox.cif.g09.slc.cpg/sg65_30_cif.got.tgz:59210.got - 2010.04.10 20:52:16.
