data_PCOD8273872
_publ_section_title
;
Structure prediction by ZEFSAII (Michael W. Deem and Ramdas Pophale) SiO2 
 PCOD8273872
Probable space group: C M M M
;
_chemical_formula_sum "Si O2"
_cell_formula_units_Z 88
_cell_length_a 13.551432
_cell_length_b 18.668828
_cell_length_c 17.702405
_cell_angle_alpha 90.000000
_cell_angle_beta 90.000000
_cell_angle_gamma 90.000000
_cell_volume 4478.519990
_symmetry_space_group_name_H-M "C M M M"
_symmetry_group_IT_number 65
_symmetry_cell_setting 'orthorhombic'
loop_
_space_group_symop_operation_xyz
x,y,z
-x,-y,z
x,-y,-z
-x,y,-z
-x,-y,-z
x,y,-z
-x,y,z
x,-y,z
1/2+x,1/2+y,z
1/2-x,1/2-y,z
1/2+x,1/2-y,-z
1/2-x,1/2+y,-z
1/2-x,1/2-y,-z
1/2+x,1/2+y,-z
1/2-x,1/2+y,z
1/2+x,1/2-y,z
loop_
_atom_site_type_symbol
_atom_site_label
_atom_site_fract_x
_atom_site_fract_y
_atom_site_fract_z
Si Si1 0.769265 0.080614 0.414040
Si Si2 0.384048 0.500000 0.088781
Si Si3 0.197726 0.850934 0.146957
Si Si4 0.113060 0.300948 0.413952
Si Si5 0.611018 0.789652 0.912647
Si Si6 0.114272 0.168689 0.690937
O O1 0.804215 0.091193 0.500000
O O2 0.675882 0.129480 0.393482
O O3 0.861180 0.099636 0.360152
O O4 0.735463 0.000000 0.398237
O O5 0.500000 0.500000 0.106473
O O6 0.335209 0.569360 0.126348
O O7 0.362465 0.500000 0.000000
O O8 0.315068 0.841120 0.133569
O O9 0.138853 0.794043 0.095634
O O10 0.178588 0.832934 0.233850
O O11 0.132395 0.275044 0.500000
O O12 0.144663 0.237639 0.358146
O O13 0.000000 0.322581 0.402093
O O14 0.500000 0.802142 0.881938
O O15 0.618111 0.810403 0.000000
O O16 0.000000 0.167900 0.713182
#
# Coordination Sequence:
#
# PCOD8273872 Si02
#       6
#    16   8  16  16  16  16
#     4  10  22  38  57  84 118 156 197 243 294 351
#     4  11  22  38  61  87 120 160 199 242 295 359
#     4  11  23  38  59  91 124 156 197 248 300 354
#     4   9  19  37  61  86 113 152 201 245 289 349
#     4  10  21  40  65  91 119 155 201 246 293 355
#     4  11  23  37  56  83 117 156 198 246 297 350
#
# _framework density 19.649349000000001
#
# number of rings (size 3 to 8) (size 9 to 14) (size 15 to 20)
#    0.000    1.727    0.000    4.909    6.364    4.727 
#    0.000    3.182    0.000    1.636    0.000    0.000 
#    0.000    0.000    0.000    0.000    0.000    0.000 
#
# Total GULP energy -545727.027442 kJ/mol
# GULP energy per Si atom -12402.886987 kJ/mol
# Density = 1.960463 g / cm^3
# Si number density = 19.649349 Si / 1000 Ang^3
#
#
#
# Elastic Constant Matrix: (Units=GPa)
#
#
# Indices 1 2 3 4 5 6 
#
# 1 136.6777 60.6585 58.4341 0.0000 0.0000 0.0000
# 2 60.6585 133.4229 52.3885 0.0000 0.0000 0.0000
# 3 58.4341 52.3885 108.9018 0.0000 0.0000 0.0000
# 4 0.0000 0.0000 0.0000 -9.8855 0.0000 0.0000
# 5 0.0000 0.0000 0.0000 0.0000 27.7677 0.0000
# 6 0.0000 0.0000 0.0000 0.0000 0.0000 22.2848
#
#
#
# Elastic Compliance Matrix: (Units=1/GPa)
#
#
# Indices 1 2 3 4 5 6 
#
# 1 0.010467 -0.003148 -0.004102 0.000000 0.000000 0.000000
# 2 -0.003148 0.010187 -0.003211 0.000000 0.000000 0.000000
# 3 -0.004102 -0.003211 0.012929 0.000000 0.000000 0.000000
# 4 0.000000 0.000000 0.000000 -0.101158 0.000000 0.000000
# 5 0.000000 0.000000 0.000000 0.000000 0.036013 0.000000
# 6 0.000000 0.000000 0.000000 0.000000 0.000000 0.044874
#
#
# Mechanical properties :
#
#
# Convention : Reuss Voigt Hill
#
# Bulk Modulus (GPa) = 78.99029 80.21828 79.60428
# Shear Modulus (GPa) = 130.02276 21.86817 75.94547
#
# Velocity S-wave (km/s) = 8.14341 3.33967 6.22369
# Velocity P-wave (km/s) = 11.34493 7.46891 9.60448
#
# Compressibility (1/GPa) = 0.01265978
#
# Stress axis : x y z
#
# Youngs Moduli (GPa) = 95.53437 98.16256 77.34798
#
# Poissons Ratio (x) = 0.30903 0.31729
# Poissons Ratio (y) = 0.30076 0.24840
# Poissons Ratio (z) = 0.39189 0.31524
#
# Static dielectric constant tensor:
#      x y z
#    x 3.729750 0.000000 0.000000 
#    y 0.000000 3.531630 0.000000 
#    z 0.000000 0.000000 3.630050 
# 
# 
# High freq. dielectric constant tensor:
#      x y z
#    x 1.772110 0.000000 0.000000 
#    y 0.000000 1.753580 0.000000 
#    z 0.000000 0.000000 1.773080 
# 
# From -- ./inp_files/53056.got.cif
#   From: 2010.03.12/outbox.cif.g09.slc.cpg/sg65_27_cif.got.tgz:53056.got - 2010.04.10 20:52:16.
