data_PCOD8273140
_publ_section_title
;
Structure prediction by ZEFSAII (Michael W. Deem and Ramdas Pophale) SiO2 
 PCOD8273140
Probable space group: C M M M
;
_chemical_formula_sum "Si O2"
_cell_formula_units_Z 88
_cell_length_a 8.985962
_cell_length_b 26.351484
_cell_length_c 18.814675
_cell_angle_alpha 90.000000
_cell_angle_beta 90.000000
_cell_angle_gamma 90.000000
_cell_volume 4455.191500
_symmetry_space_group_name_H-M "C M M M"
_symmetry_group_IT_number 65
_symmetry_cell_setting 'orthorhombic'
loop_
_space_group_symop_operation_xyz
x,y,z
-x,-y,z
x,-y,-z
-x,y,-z
-x,-y,-z
x,y,-z
-x,y,z
x,-y,z
1/2+x,1/2+y,z
1/2-x,1/2-y,z
1/2+x,1/2-y,-z
1/2-x,1/2+y,-z
1/2-x,1/2-y,-z
1/2+x,1/2+y,-z
1/2-x,1/2+y,z
1/2+x,1/2-y,z
loop_
_atom_site_type_symbol
_atom_site_label
_atom_site_fract_x
_atom_site_fract_y
_atom_site_fract_z
Si Si1 0.334992 0.298040 0.415688
Si Si2 0.830765 0.500000 0.915974
Si Si3 0.333646 0.443413 0.295676
Si Si4 0.173515 0.302521 0.083435
Si Si5 0.324063 0.598584 0.852577
Si Si6 0.174394 0.399570 0.579809
O O1 0.341993 0.293037 0.500000
O O2 0.500000 0.300176 0.383033
O O3 0.250000 0.250000 0.382506
O O4 0.247455 0.347843 0.392933
O O5 0.747675 0.449183 0.891894
O O6 0.000000 0.500000 0.885993
O O7 0.833194 0.500000 0.000000
O O8 0.500000 0.432031 0.323565
O O9 0.322388 0.500000 0.263859
O O10 0.291626 0.405603 0.231851
O O11 0.223761 0.441235 0.363251
O O12 0.250000 0.250000 0.107961
O O13 0.251414 0.349079 0.122893
O O14 0.000000 0.300623 0.103793
O O15 0.196494 0.310937 0.000000
O O16 0.500000 0.598836 0.868547
O O17 0.227850 0.414465 0.500000
O O18 0.000000 0.392279 0.580443
#
# Coordination Sequence:
#
# PCOD8273140 Si02
#       6
#    16   8  16  16  16  16
#     4   9  16  28  49  76 106 139 173 216 274 334
#     4  11  23  37  57  89 124 157 196 241 287 342
#     4  10  22  41  60  80 110 149 193 240 295 356
#     4  10  21  38  61  91 126 164 205 247 294 350
#     4  11  22  39  61  87 120 158 200 247 297 352
#     4  10  21  36  55  82 112 143 187 240 292 352
#
# _framework density 19.752237000000001
#
# number of rings (size 3 to 8) (size 9 to 14) (size 15 to 20)
#    0.000    1.909    0.909    3.000    0.000    9.455 
#    0.000    2.727    0.000    4.364    0.000    0.000 
#    0.000    0.000    0.000    0.000    0.000    0.000 
#
# Total GULP energy -545591.749989 kJ/mol
# GULP energy per Si atom -12399.812500 kJ/mol
# Density = 1.970728 g / cm^3
# Si number density = 19.752237 Si / 1000 Ang^3
#
#
#
# Elastic Constant Matrix: (Units=GPa)
#
#
# Indices 1 2 3 4 5 6 
#
# 1 135.9702 67.0324 56.4751 0.0000 0.0000 0.0000
# 2 67.0324 138.4341 53.9758 0.0000 0.0000 0.0000
# 3 56.4751 53.9758 81.1372 0.0000 0.0000 0.0000
# 4 0.0000 0.0000 0.0000 26.3912 0.0000 0.0000
# 5 0.0000 0.0000 0.0000 0.0000 27.8537 0.0000
# 6 0.0000 0.0000 0.0000 0.0000 0.0000 40.1478
#
#
#
# Elastic Compliance Matrix: (Units=1/GPa)
#
#
# Indices 1 2 3 4 5 6 
#
# 1 0.011339 -0.003258 -0.005725 0.000000 0.000000 0.000000
# 2 -0.003258 0.010690 -0.004843 0.000000 0.000000 0.000000
# 3 -0.005725 -0.004843 0.019531 0.000000 0.000000 0.000000
# 4 0.000000 0.000000 0.000000 0.037891 0.000000 0.000000
# 5 0.000000 0.000000 0.000000 0.000000 0.035902 0.000000
# 6 0.000000 0.000000 0.000000 0.000000 0.000000 0.024908
#
#
# Mechanical properties :
#
#
# Convention : Reuss Voigt Hill
#
# Bulk Modulus (GPa) = 71.90508 78.94533 75.42521
# Shear Modulus (GPa) = 28.97721 30.74908 29.86314
#
# Velocity S-wave (km/s) = 3.83434 3.94983 3.89252
# Velocity P-wave (km/s) = 7.48902 7.80103 7.64662
#
# Compressibility (1/GPa) = 0.01390722
#
# Stress axis : x y z
#
# Youngs Moduli (GPa) = 88.19441 93.54670 51.19966
#
# Poissons Ratio (x) = 0.30481 0.29310
# Poissons Ratio (y) = 0.28737 0.24798
# Poissons Ratio (z) = 0.50488 0.45308
#
# Static dielectric constant tensor:
#      x y z
#    x 3.858020 0.000000 0.000000 
#    y 0.000000 3.648470 0.000000 
#    z 0.000000 0.000000 3.389870 
# 
# 
# High freq. dielectric constant tensor:
#      x y z
#    x 1.783950 0.000000 0.000000 
#    y 0.000000 1.776200 0.000000 
#    z 0.000000 0.000000 1.749100 
# 
# From -- ./inp_files/59816.got.cif
#   From: 2010.03.12/outbox.cif.g09.slc.cpg/sg65_30_cif.got.tgz:59816.got - 2010.04.10 20:52:16.
