data_PCOD8273881
_publ_section_title
;
Structure prediction by ZEFSAII (Michael W. Deem and Ramdas Pophale) SiO2 
 PCOD8273881
Probable space group: C M M M
;
_chemical_formula_sum "Si O2"
_cell_formula_units_Z 64
_cell_length_a 22.007704
_cell_length_b 16.600457
_cell_length_c 8.604744
_cell_angle_alpha 90.000000
_cell_angle_beta 90.000000
_cell_angle_gamma 90.000000
_cell_volume 3143.639481
_symmetry_space_group_name_H-M "C M M M"
_symmetry_group_IT_number 65
_symmetry_cell_setting 'orthorhombic'
loop_
_space_group_symop_operation_xyz
x,y,z
-x,-y,z
x,-y,-z
-x,y,-z
-x,-y,-z
x,y,-z
-x,y,z
x,-y,z
1/2+x,1/2+y,z
1/2-x,1/2-y,z
1/2+x,1/2-y,-z
1/2-x,1/2+y,-z
1/2-x,1/2-y,-z
1/2+x,1/2+y,-z
1/2-x,1/2+y,z
1/2+x,1/2-y,z
loop_
_atom_site_type_symbol
_atom_site_label
_atom_site_fract_x
_atom_site_fract_y
_atom_site_fract_z
Si Si1 0.071940 0.000000 0.177727
Si Si2 0.614693 0.178853 0.818079
Si Si3 0.361508 0.650573 0.681790
Si Si4 0.000000 0.410055 0.317298
Si Si5 0.238449 0.594282 0.819402
O O1 0.096388 0.077695 0.265185
O O2 0.000000 0.000000 0.184611
O O3 0.095831 0.000000 0.000000
O O4 0.615915 0.272042 0.774492
O O5 0.559481 0.136601 0.733944
O O6 0.676595 0.135967 0.764048
O O7 0.604876 0.169148 0.000000
O O8 0.369686 0.665590 0.500000
O O9 0.291493 0.632718 0.717781
O O10 0.000000 0.500000 0.244723
O O11 0.000000 0.415330 0.500000
O O12 0.233646 0.500000 0.785206
O O13 0.251860 0.611768 0.000000
#
# Coordination Sequence:
#
# PCOD8273881 Si02
#       5
#     8  16  16   8  16
#     4  11  25  45  69  93 125 170 219 266 316 384
#     4  11  24  42  67  95 127 172 220 266 314 379
#     4  12  25  41  64  97 133 169 210 265 327 383
#     4  11  25  45  67  96 133 170 209 267 329 381
#     4  10  21  40  66  94 127 169 217 266 316 377
#
# _framework density 20.358567000000001
#
# number of rings (size 3 to 8) (size 9 to 14) (size 15 to 20)
#    0.000    1.000    1.250    5.250    1.750    8.000 
#    0.000    0.000    0.000    0.000    0.000    0.000 
#    0.000    0.000    0.000    0.000    0.000    0.000 
#
# Total GULP energy -397041.352709 kJ/mol
# GULP energy per Si atom -12407.542272 kJ/mol
# Density = 2.031223 g / cm^3
# Si number density = 20.358567 Si / 1000 Ang^3
#
#
#
# Elastic Constant Matrix: (Units=GPa)
#
#
# Indices 1 2 3 4 5 6 
#
# 1 119.5504 47.2093 20.3758 0.0000 0.0000 0.0000
# 2 47.2093 134.9360 2.9057 0.0000 0.0000 0.0000
# 3 20.3758 2.9057 48.3825 0.0000 0.0000 0.0000
# 4 0.0000 0.0000 0.0000 31.3310 0.0000 0.0000
# 5 0.0000 0.0000 0.0000 0.0000 20.1798 0.0000
# 6 0.0000 0.0000 0.0000 0.0000 0.0000 124.4010
#
#
#
# Elastic Compliance Matrix: (Units=1/GPa)
#
#
# Indices 1 2 3 4 5 6 
#
# 1 0.010496 -0.003582 -0.004205 0.000000 0.000000 0.000000
# 2 -0.003582 0.008643 0.000989 0.000000 0.000000 0.000000
# 3 -0.004205 0.000989 0.022380 0.000000 0.000000 0.000000
# 4 0.000000 0.000000 0.000000 0.031917 0.000000 0.000000
# 5 0.000000 0.000000 0.000000 0.000000 0.049555 0.000000
# 6 0.000000 0.000000 0.000000 0.000000 0.000000 0.008039
#
#
# Mechanical properties :
#
#
# Convention : Reuss Voigt Hill
#
# Bulk Modulus (GPa) = 35.81165 49.31673 42.56419
# Shear Modulus (GPa) = 32.48200 50.67424 41.57812
#
# Velocity S-wave (km/s) = 3.99870 4.99449 4.52407
# Velocity P-wave (km/s) = 6.24084 7.58528 6.94567
#
# Compressibility (1/GPa) = 0.02792388
#
# Stress axis : x y z
#
# Youngs Moduli (GPa) = 95.27732 115.70514 44.68244
#
# Poissons Ratio (x) = 0.41440 0.18789
# Poissons Ratio (y) = 0.34124 -0.04420
# Poissons Ratio (z) = 0.40065 -0.11446
#
# Static dielectric constant tensor:
#      x y z
#    x 3.818210 0.000000 0.000000 
#    y 0.000000 4.333620 0.000000 
#    z 0.000000 0.000000 3.728580 
# 
# 
# High freq. dielectric constant tensor:
#      x y z
#    x 1.810270 0.000000 0.000000 
#    y 0.000000 1.815840 0.000000 
#    z 0.000000 0.000000 1.799300 
# 
# From -- ./inp_files/13349.got.cif
#   From: 2010.03.12/outbox.cif.g09.slc.cpg/sg65_7_cif.got.tgz:13349.got - 2010.04.10 20:52:16.
