data_PCOD8273173
_publ_section_title
;
Structure prediction by ZEFSAII (Michael W. Deem and Ramdas Pophale) SiO2 
 PCOD8273173
Probable space group: C M M M
;
_chemical_formula_sum "Si O2"
_cell_formula_units_Z 96
_cell_length_a 8.873604
_cell_length_b 18.524842
_cell_length_c 30.244815
_cell_angle_alpha 90.000000
_cell_angle_beta 90.000000
_cell_angle_gamma 90.000000
_cell_volume 4971.706569
_symmetry_space_group_name_H-M "C M M M"
_symmetry_group_IT_number 65
_symmetry_cell_setting 'orthorhombic'
loop_
_space_group_symop_operation_xyz
x,y,z
-x,-y,z
x,-y,-z
-x,y,-z
-x,-y,-z
x,y,-z
-x,y,z
x,-y,z
1/2+x,1/2+y,z
1/2-x,1/2-y,z
1/2+x,1/2-y,-z
1/2-x,1/2+y,-z
1/2-x,1/2-y,-z
1/2+x,1/2+y,-z
1/2-x,1/2+y,z
1/2+x,1/2-y,z
loop_
_atom_site_type_symbol
_atom_site_label
_atom_site_fract_x
_atom_site_fract_y
_atom_site_fract_z
Si Si1 0.676297 0.082795 0.288444
Si Si2 0.676517 0.415763 0.123612
Si Si3 0.675668 0.825102 0.051548
Si Si4 0.678556 0.828388 0.797202
Si Si5 0.330022 0.414653 0.622515
Si Si6 0.677059 0.175765 0.449735
O O1 0.500000 0.089690 0.297603
O O2 0.728408 0.130550 0.247186
O O3 0.761089 0.113647 0.331452
O O4 0.721715 0.000000 0.278579
O O5 0.500000 0.398812 0.125564
O O6 0.710446 0.500000 0.129155
O O7 0.743073 0.390274 0.076778
O O8 0.761058 0.373262 0.161816
O O9 0.500000 0.822440 0.063649
O O10 0.750000 0.750000 0.066770
O O11 0.702748 0.839152 0.000000
O O12 0.500000 0.821983 0.801136
O O13 0.750000 0.750000 0.796866
O O14 0.500000 0.385748 0.618666
O O15 0.322254 0.500000 0.621530
O O16 0.234295 0.388203 0.581004
O O17 0.726340 0.158458 0.500000
O O18 0.500000 0.183109 0.445425
O O19 0.750000 0.250000 0.433194
#
# Coordination Sequence:
#
# PCOD8273173 Si02
#       6
#    16  16  16  16  16  16
#     4   9  19  37  59  81 108 145 187 230 277 328
#     4  11  24  40  59  84 115 151 189 232 282 334
#     4  10  21  38  61  87 116 151 190 233 280 331
#     4  11  23  39  60  85 114 148 187 231 278 330
#     4  10  21  36  56  83 114 148 184 225 274 328
#     4  10  21  37  57  80 108 144 185 230 279 330
#
# _framework density 19.309266000000001
#
# number of rings (size 3 to 8) (size 9 to 14) (size 15 to 20)
#    0.000    1.833    0.000    3.500    0.000    7.667 
#    0.000    6.667    0.000    0.000    0.000    0.000 
#    0.000    0.000    0.000    0.000    0.000    0.000 
#
# Total GULP energy -595450.835656 kJ/mol
# GULP energy per Si atom -12405.225743 kJ/mol
# Density = 1.926532 g / cm^3
# Si number density = 19.309266 Si / 1000 Ang^3
#
#
#
# Elastic Constant Matrix: (Units=GPa)
#
#
# Indices 1 2 3 4 5 6 
#
# 1 93.5892 48.8402 53.7837 0.0000 0.0000 0.0000
# 2 48.8402 94.0134 61.7519 0.0000 0.0000 0.0000
# 3 53.7837 61.7519 119.1230 0.0000 0.0000 0.0000
# 4 0.0000 0.0000 0.0000 36.3728 0.0000 0.0000
# 5 0.0000 0.0000 0.0000 0.0000 32.5206 0.0000
# 6 0.0000 0.0000 0.0000 0.0000 0.0000 28.9479
#
#
#
# Elastic Compliance Matrix: (Units=1/GPa)
#
#
# Indices 1 2 3 4 5 6 
#
# 1 0.016072 -0.005433 -0.004440 0.000000 0.000000 0.000000
# 2 -0.005433 0.017965 -0.006860 0.000000 0.000000 0.000000
# 3 -0.004440 -0.006860 0.013955 0.000000 0.000000 0.000000
# 4 0.000000 0.000000 0.000000 0.027493 0.000000 0.000000
# 5 0.000000 0.000000 0.000000 0.000000 0.030750 0.000000
# 6 0.000000 0.000000 0.000000 0.000000 0.000000 0.034545
#
#
# Mechanical properties :
#
#
# Convention : Reuss Voigt Hill
#
# Bulk Modulus (GPa) = 68.83938 70.60859 69.72398
# Shear Modulus (GPa) = 27.91925 29.05825 28.48875
#
# Velocity S-wave (km/s) = 3.80662 3.88349 3.84525
# Velocity P-wave (km/s) = 7.41949 7.53361 7.47677
#
# Compressibility (1/GPa) = 0.01452657
#
# Stress axis : x y z
#
# Youngs Moduli (GPa) = 62.22076 55.66344 71.65670
#
# Poissons Ratio (x) = 0.30242 0.31815
# Poissons Ratio (y) = 0.33804 0.49156
# Poissons Ratio (z) = 0.27626 0.38185
#
# Static dielectric constant tensor:
#      x y z
#    x 3.688960 0.000000 0.000000 
#    y 0.000000 3.520190 0.000000 
#    z 0.000000 0.000000 3.658540 
# 
# 
# High freq. dielectric constant tensor:
#      x y z
#    x 1.765160 0.000000 0.000000 
#    y 0.000000 1.748870 0.000000 
#    z 0.000000 0.000000 1.763560 
# 
# From -- ./inp_files/73214.got.cif
#   From: 2010.03.12/outbox.cif.g09.slc.cpg/sg65_37_cif.got.tgz:73214.got - 2010.04.10 20:52:16.
