data_PCOD8273912
_publ_section_title
;
Structure prediction by ZEFSAII (Michael W. Deem and Ramdas Pophale) SiO2 
 PCOD8273912
Probable space group: C M M M
;
_chemical_formula_sum "Si O2"
_cell_formula_units_Z 80
_cell_length_a 31.566785
_cell_length_b 17.899224
_cell_length_c 7.554558
_cell_angle_alpha 90.000000
_cell_angle_beta 90.000000
_cell_angle_gamma 90.000000
_cell_volume 4268.483581
_symmetry_space_group_name_H-M "C M M M"
_symmetry_group_IT_number 65
_symmetry_cell_setting 'orthorhombic'
loop_
_space_group_symop_operation_xyz
x,y,z
-x,-y,z
x,-y,-z
-x,y,-z
-x,-y,-z
x,y,-z
-x,y,z
x,-y,z
1/2+x,1/2+y,z
1/2-x,1/2-y,z
1/2+x,1/2-y,-z
1/2-x,1/2+y,-z
1/2-x,1/2-y,-z
1/2+x,1/2+y,-z
1/2-x,1/2+y,z
1/2+x,1/2-y,z
loop_
_atom_site_type_symbol
_atom_site_label
_atom_site_fract_x
_atom_site_fract_y
_atom_site_fract_z
Si Si1 0.107922 0.789951 0.798497
Si Si2 0.752139 0.333120 0.209786
Si Si3 0.950358 0.733288 0.500000
Si Si4 0.654500 0.137855 0.200625
Si Si5 0.403657 0.082410 0.500000
Si Si6 0.829674 0.083342 0.210273
O O1 0.068033 0.772618 0.674735
O O2 0.142953 0.725190 0.783156
O O3 0.130475 0.865843 0.732317
O O4 0.091287 0.797109 0.000000
O O5 0.750000 0.250000 0.291918
O O6 0.796788 0.371345 0.260491
O O7 0.714053 0.383116 0.288501
O O8 0.747867 0.327269 0.000000
O O9 0.940131 0.644883 0.500000
O O10 0.000000 0.745127 0.500000
O O11 0.625224 0.088604 0.326093
O O12 0.647616 0.109572 0.000000
O O13 0.424707 0.000000 0.500000
O O14 0.836400 0.000000 0.286543
O O15 0.826615 0.082117 0.000000
#
# Coordination Sequence:
#
# PCOD8273912 Si02
#       6
#    16  16   8  16   8  16
#     4   9  17  33  55  77 104 136 169 210 255 303
#     4   9  14  24  45  73 106 144 184 220 249 283
#     4  10  22  39  60  83  98 121 167 210 258 325
#     4   9  17  31  52  74 102 144 184 213 245 289
#     4  10  22  37  52  77 108 133 166 210 257 310
#     4   9  16  26  45  75 107 141 180 216 253 296
#
# _framework density 18.742018999999999
#
# number of rings (size 3 to 8) (size 9 to 14) (size 15 to 20)
#    0.000    2.800    2.000    0.000    0.000    1.800 
#    0.000    4.000    0.000    1.200    0.000    8.400 
#    0.000    0.000    0.000    0.000    0.000    0.000 
#
# Total GULP energy -495901.022191 kJ/mol
# GULP energy per Si atom -12397.525555 kJ/mol
# Density = 1.869936 g / cm^3
# Si number density = 18.742019 Si / 1000 Ang^3
#
#
#
# Elastic Constant Matrix: (Units=GPa)
#
#
# Indices 1 2 3 4 5 6 
#
# 1 139.1537 56.5252 46.0158 0.0000 0.0000 0.0000
# 2 56.5252 123.3127 22.7414 0.0000 0.0000 0.0000
# 3 46.0158 22.7414 72.5365 0.0000 0.0000 0.0000
# 4 0.0000 0.0000 0.0000 15.7528 0.0000 0.0000
# 5 0.0000 0.0000 0.0000 0.0000 -16.5765 0.0000
# 6 0.0000 0.0000 0.0000 0.0000 0.0000 17.2007
#
#
#
# Elastic Compliance Matrix: (Units=1/GPa)
#
#
# Indices 1 2 3 4 5 6 
#
# 1 0.010559 -0.003826 -0.005499 0.000000 0.000000 0.000000
# 2 -0.003826 0.009993 -0.000706 0.000000 0.000000 0.000000
# 3 -0.005499 -0.000706 0.017496 0.000000 0.000000 0.000000
# 4 0.000000 0.000000 0.000000 0.063481 0.000000 0.000000
# 5 0.000000 0.000000 0.000000 0.000000 -0.060326 0.000000
# 6 0.000000 0.000000 0.000000 0.000000 0.000000 0.058137
#
#
# Mechanical properties :
#
#
# Convention : Reuss Voigt Hill
#
# Bulk Modulus (GPa) = 55.59703 65.06308 60.33005
# Shear Modulus (GPa) = 39.87347 17.25676 28.56511
#
# Velocity S-wave (km/s) = 4.61748 3.03768 3.90824
# Velocity P-wave (km/s) = 7.62607 6.86249 7.25433
#
# Compressibility (1/GPa) = 0.01798657
#
# Stress axis : x y z
#
# Youngs Moduli (GPa) = 94.70788 100.06565 57.15647
#
# Poissons Ratio (x) = 0.38285 0.31429
# Poissons Ratio (y) = 0.36235 0.04035
# Poissons Ratio (z) = 0.52078 0.07065
#
# Static dielectric constant tensor:
#      x y z
#    x 3.089080 0.000000 0.000000 
#    y 0.000000 3.547680 0.000000 
#    z 0.000000 0.000000 3.376310 
# 
# 
# High freq. dielectric constant tensor:
#      x y z
#    x 1.694090 0.000000 0.000000 
#    y 0.000000 1.719550 0.000000 
#    z 0.000000 0.000000 1.718450 
# 
# From -- ./inp_files/9946.got.cif
#   From: 2010.03.12/outbox.cif.g09.slc.cpg/sg65_5_cif.got.tgz:9946.got - 2010.04.10 20:52:16.
