data_PCOD8273841
_publ_section_title
;
Structure prediction by ZEFSAII (Michael W. Deem and Ramdas Pophale) SiO2 
 PCOD8273841
Probable space group: C M M M
;
_chemical_formula_sum "Si O2"
_cell_formula_units_Z 80
_cell_length_a 20.950147
_cell_length_b 13.230287
_cell_length_c 14.101542
_cell_angle_alpha 90.000000
_cell_angle_beta 90.000000
_cell_angle_gamma 90.000000
_cell_volume 3908.615457
_symmetry_space_group_name_H-M "C M M M"
_symmetry_group_IT_number 65
_symmetry_cell_setting 'orthorhombic'
loop_
_space_group_symop_operation_xyz
x,y,z
-x,-y,z
x,-y,-z
-x,y,-z
-x,-y,-z
x,y,-z
-x,y,z
x,-y,z
1/2+x,1/2+y,z
1/2-x,1/2-y,z
1/2+x,1/2-y,-z
1/2-x,1/2+y,-z
1/2-x,1/2-y,-z
1/2+x,1/2+y,-z
1/2-x,1/2+y,z
1/2+x,1/2-y,z
loop_
_atom_site_type_symbol
_atom_site_label
_atom_site_fract_x
_atom_site_fract_y
_atom_site_fract_z
Si Si1 0.857702 0.110086 0.283584
Si Si2 0.612729 0.000000 0.611116
Si Si3 0.739919 0.500000 0.610372
Si Si4 0.573395 0.784750 0.394029
Si Si5 0.175680 0.774059 0.891164
Si Si6 0.428945 0.112545 0.887533
O O1 0.898398 0.199340 0.327374
O O2 0.841334 0.130594 0.173869
O O3 0.893315 0.000000 0.288390
O O4 0.791640 0.100438 0.343168
O O5 0.686589 0.000000 0.634477
O O6 0.583248 0.103924 0.653524
O O7 0.596531 0.000000 0.500000
O O8 0.725224 0.500000 0.500000
O O9 0.604528 0.781453 0.500000
O O10 0.500000 0.760147 0.402520
O O11 0.250000 0.750000 0.877302
O O12 0.129518 0.683465 0.854964
O O13 0.161118 0.802440 0.000000
O O14 0.500000 0.151565 0.854359
O O15 0.416683 0.000000 0.845573
O O16 0.428686 0.106354 0.000000
#
# Coordination Sequence:
#
# PCOD8273841 Si02
#       6
#    16   8   8  16  16  16
#     4  10  24  38  59  86 121 167 210 254 294 360
#     4   9  19  36  63  94 123 156 193 248 321 377
#     4   9  20  39  62  92 122 159 203 249 303 365
#     4  10  21  39  64  93 126 160 199 253 317 383
#     4  10  22  39  60  87 123 167 212 262 316 365
#     4   8  15  32  59  87 114 147 191 247 311 373
#
# _framework density 20.467606
#
# number of rings (size 3 to 8) (size 9 to 14) (size 15 to 20)
#    0.600    2.000    0.000    1.500    2.800    3.600 
#    1.800    6.000    0.000    0.000    0.000    4.200 
#    0.000    0.000    0.000    0.000    0.000    0.000 
#
# Total GULP energy -495634.482475 kJ/mol
# GULP energy per Si atom -12390.862062 kJ/mol
# Density = 2.042102 g / cm^3
# Si number density = 20.467606 Si / 1000 Ang^3
#
#
#
# Elastic Constant Matrix: (Units=GPa)
#
#
# Indices 1 2 3 4 5 6 
#
# 1 110.5966 53.3762 30.7764 0.0000 0.0000 0.0000
# 2 53.3762 146.1877 57.0243 0.0000 0.0000 0.0000
# 3 30.7764 57.0243 79.8011 0.0000 0.0000 0.0000
# 4 0.0000 0.0000 0.0000 38.2899 0.0000 0.0000
# 5 0.0000 0.0000 0.0000 0.0000 2.0018 0.0000
# 6 0.0000 0.0000 0.0000 0.0000 0.0000 30.0404
#
#
#
# Elastic Compliance Matrix: (Units=1/GPa)
#
#
# Indices 1 2 3 4 5 6 
#
# 1 0.011187 -0.003330 -0.001935 0.000000 0.000000 0.000000
# 2 -0.003330 0.010475 -0.006201 0.000000 0.000000 0.000000
# 3 -0.001935 -0.006201 0.017709 0.000000 0.000000 0.000000
# 4 0.000000 0.000000 0.000000 0.026117 0.000000 0.000000
# 5 0.000000 0.000000 0.000000 0.000000 0.499546 0.000000
# 6 0.000000 0.000000 0.000000 0.000000 0.000000 0.033288
#
#
# Mechanical properties :
#
#
# Convention : Reuss Voigt Hill
#
# Bulk Modulus (GPa) = 60.83097 68.77103 64.80100
# Shear Modulus (GPa) = 7.97786 27.09367 17.53576
#
# Velocity S-wave (km/s) = 1.97643 3.64226 2.93022
# Velocity P-wave (km/s) = 5.91553 7.16666 6.57094
#
# Compressibility (1/GPa) = 0.01643900
#
# Stress axis : x y z
#
# Youngs Moduli (GPa) = 89.38582 95.46262 56.46943
#
# Poissons Ratio (x) = 0.31789 0.10927
# Poissons Ratio (y) = 0.29765 0.35018
# Poissons Ratio (z) = 0.17297 0.59198
#
# Static dielectric constant tensor:
#      x y z
#    x 3.676470 0.000000 0.000000 
#    y 0.000000 3.714670 0.000000 
#    z 0.000000 0.000000 3.744160 
# 
# 
# High freq. dielectric constant tensor:
#      x y z
#    x 1.792310 0.000000 0.000000 
#    y 0.000000 1.789830 0.000000 
#    z 0.000000 0.000000 1.806790 
# 
# From -- ./inp_files/55604.got.cif
#   From: 2010.03.12/outbox.cif.g09.slc.cpg/sg65_28_cif.got.tgz:55604.got - 2010.04.10 20:52:16.
