data_PCOD8273431
_publ_section_title
;
Structure prediction by ZEFSAII (Michael W. Deem and Ramdas Pophale) SiO2 
 PCOD8273431
Probable space group: C M M M
;
_chemical_formula_sum "Si O2"
_cell_formula_units_Z 80
_cell_length_a 23.184854
_cell_length_b 14.943827
_cell_length_c 11.915366
_cell_angle_alpha 90.000000
_cell_angle_beta 90.000000
_cell_angle_gamma 90.000000
_cell_volume 4128.322187
_symmetry_space_group_name_H-M "C M M M"
_symmetry_group_IT_number 65
_symmetry_cell_setting 'orthorhombic'
loop_
_space_group_symop_operation_xyz
x,y,z
-x,-y,z
x,-y,-z
-x,y,-z
-x,-y,-z
x,y,-z
-x,y,z
x,-y,z
1/2+x,1/2+y,z
1/2-x,1/2-y,z
1/2+x,1/2-y,-z
1/2-x,1/2+y,-z
1/2-x,1/2-y,-z
1/2+x,1/2+y,-z
1/2-x,1/2+y,z
1/2+x,1/2-y,z
loop_
_atom_site_type_symbol
_atom_site_label
_atom_site_fract_x
_atom_site_fract_y
_atom_site_fract_z
Si Si1 0.116209 0.342029 0.770351
Si Si2 0.067733 0.398885 0.000000
Si Si3 0.174910 0.000000 0.130811
Si Si4 0.933727 0.807436 0.627205
Si Si5 0.934685 0.000000 0.281994
Si Si6 0.431993 0.000000 0.625265
Si Si7 0.265188 0.147006 0.873335
O O1 0.086795 0.342899 0.891897
O O2 0.107251 0.244671 0.714850
O O3 0.088066 0.412300 0.687909
O O4 0.183094 0.367500 0.785885
O O5 0.094043 0.500000 0.000000
O O6 0.000000 0.406604 0.000000
O O7 0.211012 0.087981 0.167320
O O8 0.111763 0.000000 0.183308
O O9 0.163219 0.000000 0.000000
O O10 0.916531 0.781866 0.500000
O O11 0.924984 0.913331 0.641115
O O12 0.000000 0.780123 0.650660
O O13 0.000000 0.000000 0.231457
O O14 0.500000 0.000000 0.622112
O O15 0.406171 0.000000 0.500000
O O16 0.250000 0.250000 0.873232
O O17 0.283725 0.117564 0.000000
#
# Coordination Sequence:
#
# PCOD8273431 Si02
#       7
#    16   8   8  16   8   8  16
#     4  12  21  36  60  85 121 156 197 242 286 349
#     4  11  22  34  53  87 127 157 186 238 298 347
#     4  10  21  37  60  84 117 152 189 239 293 359
#     4  10  21  38  61  87 116 157 205 245 291 350
#     4  10  21  40  64  89 113 145 196 255 306 348
#     4  11  23  37  56  85 122 162 199 235 284 350
#     4  10  21  37  57  83 112 153 200 234 281 350
#
# _framework density 19.378333000000001
#
# number of rings (size 3 to 8) (size 9 to 14) (size 15 to 20)
#    0.000    1.400    2.000    4.500    0.000    3.000 
#    1.800    0.000    0.000   18.000    0.000    0.000 
#    0.000    0.000    0.000    0.000    0.000    0.000 
#
# Total GULP energy -496071.784920 kJ/mol
# GULP energy per Si atom -12401.794623 kJ/mol
# Density = 1.933423 g / cm^3
# Si number density = 19.378333 Si / 1000 Ang^3
#
#
#
# Elastic Constant Matrix: (Units=GPa)
#
#
# Indices 1 2 3 4 5 6 
#
# 1 102.8849 29.4020 52.2118 0.0000 0.0000 0.0000
# 2 29.4020 108.8884 44.2549 0.0000 0.0000 0.0000
# 3 52.2118 44.2549 128.6449 0.0000 0.0000 0.0000
# 4 0.0000 0.0000 0.0000 16.6159 0.0000 0.0000
# 5 0.0000 0.0000 0.0000 0.0000 55.6318 0.0000
# 6 0.0000 0.0000 0.0000 0.0000 0.0000 23.7184
#
#
#
# Elastic Compliance Matrix: (Units=1/GPa)
#
#
# Indices 1 2 3 4 5 6 
#
# 1 0.012454 -0.001521 -0.004531 0.000000 0.000000 0.000000
# 2 -0.001521 0.010862 -0.003119 0.000000 0.000000 0.000000
# 3 -0.004531 -0.003119 0.010685 0.000000 0.000000 0.000000
# 4 0.000000 0.000000 0.000000 0.060183 0.000000 0.000000
# 5 0.000000 0.000000 0.000000 0.000000 0.017975 0.000000
# 6 0.000000 0.000000 0.000000 0.000000 0.000000 0.042161
#
#
# Mechanical properties :
#
#
# Convention : Reuss Voigt Hill
#
# Bulk Modulus (GPa) = 63.86475 65.79504 64.82990
# Shear Modulus (GPa) = 28.10820 33.49654 30.80237
#
# Velocity S-wave (km/s) = 3.81267 4.16210 3.99121
# Velocity P-wave (km/s) = 7.23949 7.55805 7.40048
#
# Compressibility (1/GPa) = 0.01565809
#
# Stress axis : x y z
#
# Youngs Moduli (GPa) = 80.29685 92.06218 93.58534
#
# Poissons Ratio (x) = 0.14004 0.42405
# Poissons Ratio (y) = 0.12215 0.29192
# Poissons Ratio (z) = 0.36384 0.28717
#
# Static dielectric constant tensor:
#      x y z
#    x 3.603090 0.000000 0.000000 
#    y 0.000000 3.763210 0.000000 
#    z 0.000000 0.000000 3.476390 
# 
# 
# High freq. dielectric constant tensor:
#      x y z
#    x 1.748080 0.000000 0.000000 
#    y 0.000000 1.767890 0.000000 
#    z 0.000000 0.000000 1.745560 
# 
# From -- ./inp_files/30478.got.cif
#   From: 2010.03.12/outbox.cif.g09.slc.cpg/sg65_16_cif.got.tgz:30478.got - 2010.04.10 20:52:16.
