data_PCOD8273823
_publ_section_title
;
Structure prediction by ZEFSAII (Michael W. Deem and Ramdas Pophale) SiO2 
 PCOD8273823
Probable space group: C M M M
;
_chemical_formula_sum "Si O2"
_cell_formula_units_Z 80
_cell_length_a 18.717310
_cell_length_b 17.248337
_cell_length_c 12.659176
_cell_angle_alpha 90.000000
_cell_angle_beta 90.000000
_cell_angle_gamma 90.000000
_cell_volume 4086.919656
_symmetry_space_group_name_H-M "C M M M"
_symmetry_group_IT_number 65
_symmetry_cell_setting 'orthorhombic'
loop_
_space_group_symop_operation_xyz
x,y,z
-x,-y,z
x,-y,-z
-x,y,-z
-x,-y,-z
x,y,-z
-x,y,z
x,-y,z
1/2+x,1/2+y,z
1/2-x,1/2-y,z
1/2+x,1/2-y,-z
1/2-x,1/2+y,-z
1/2-x,1/2-y,-z
1/2+x,1/2+y,-z
1/2-x,1/2+y,z
1/2+x,1/2-y,z
loop_
_atom_site_type_symbol
_atom_site_label
_atom_site_fract_x
_atom_site_fract_y
_atom_site_fract_z
Si Si1 0.839099 0.090248 0.292715
Si Si2 0.081367 0.186650 0.121345
Si Si3 0.415410 0.000000 0.117448
Si Si4 0.289475 0.831328 0.379064
Si Si5 0.919910 0.907824 0.500000
Si Si6 0.581963 0.154859 0.233156
O O1 0.865787 0.134347 0.189516
O O2 0.755339 0.105479 0.312186
O O3 0.880752 0.123582 0.395523
O O4 0.853679 0.000000 0.275438
O O5 0.090325 0.277036 0.147855
O O6 0.000000 0.159843 0.142702
O O7 0.102610 0.174556 0.000000
O O8 0.389915 0.076241 0.179317
O O9 0.500000 0.000000 0.107520
O O10 0.381452 0.000000 0.000000
O O11 0.294173 0.858150 0.500000
O O12 0.250000 0.750000 0.366223
O O13 0.369600 0.826593 0.334637
O O14 0.000000 0.874846 0.500000
O O15 0.918620 0.000000 0.500000
O O16 0.500000 0.147236 0.271847
#
# Coordination Sequence:
#
# PCOD8273823 Si02
#       6
#    16  16   8  16   8  16
#     4  11  22  38  59  88 124 162 201 244 298 360
#     4  10  21  39  63  90 123 162 200 245 303 362
#     4   9  18  36  63  91 117 151 200 255 304 353
#     4  11  23  41  62  86 120 160 199 248 308 363
#     4   9  18  34  57  86 117 154 203 252 291 343
#     4  10  21  39  63  90 119 156 204 253 301 359
#
# _framework density 19.574645
#
# number of rings (size 3 to 8) (size 9 to 14) (size 15 to 20)
#    0.000    1.800    3.000    1.200    1.400    4.400 
#    0.000    4.000    0.000    1.800    0.000    0.000 
#    0.000    0.000    0.000    0.000    0.000    0.000 
#
# Total GULP energy -496135.967282 kJ/mol
# GULP energy per Si atom -12403.399182 kJ/mol
# Density = 1.953009 g / cm^3
# Si number density = 19.574645 Si / 1000 Ang^3
#
#
#
# Elastic Constant Matrix: (Units=GPa)
#
#
# Indices 1 2 3 4 5 6 
#
# 1 106.2740 29.9726 68.3549 0.0000 0.0000 0.0000
# 2 29.9726 94.9351 52.3206 0.0000 0.0000 0.0000
# 3 68.3549 52.3206 144.8938 0.0000 0.0000 0.0000
# 4 0.0000 0.0000 0.0000 20.5299 0.0000 0.0000
# 5 0.0000 0.0000 0.0000 0.0000 28.6206 0.0000
# 6 0.0000 0.0000 0.0000 0.0000 0.0000 27.5975
#
#
#
# Elastic Compliance Matrix: (Units=1/GPa)
#
#
# Indices 1 2 3 4 5 6 
#
# 1 0.013576 -0.000944 -0.006064 0.000000 0.000000 0.000000
# 2 -0.000944 0.013216 -0.004327 0.000000 0.000000 0.000000
# 3 -0.006064 -0.004327 0.011325 0.000000 0.000000 0.000000
# 4 0.000000 0.000000 0.000000 0.048710 0.000000 0.000000
# 5 0.000000 0.000000 0.000000 0.000000 0.034940 0.000000
# 6 0.000000 0.000000 0.000000 0.000000 0.000000 0.036235
#
#
# Mechanical properties :
#
#
# Convention : Reuss Voigt Hill
#
# Bulk Modulus (GPa) = 64.73646 71.93323 68.33485
# Shear Modulus (GPa) = 26.90771 28.37990 27.64380
#
# Velocity S-wave (km/s) = 3.71161 3.81179 3.76204
# Velocity P-wave (km/s) = 7.17715 7.49673 7.33868
#
# Compressibility (1/GPa) = 0.01544724
#
# Stress axis : x y z
#
# Youngs Moduli (GPa) = 73.65897 75.66429 88.30366
#
# Poissons Ratio (x) = 0.07146 0.53544
# Poissons Ratio (y) = 0.06956 0.38207
# Poissons Ratio (z) = 0.44664 0.32738
#
# Static dielectric constant tensor:
#      x y z
#    x 3.547590 0.000000 0.000000 
#    y 0.000000 3.518140 0.000000 
#    z 0.000000 0.000000 3.517140 
# 
# 
# High freq. dielectric constant tensor:
#      x y z
#    x 1.754870 0.000000 0.000000 
#    y 0.000000 1.762170 0.000000 
#    z 0.000000 0.000000 1.759700 
# 
# From -- ./inp_files/28556.got.cif
#   From: 2010.03.12/outbox.cif.g09.slc.cpg/sg65_15_cif.got.tgz:28556.got - 2010.04.10 20:52:16.
