data_PCOD8273375
_publ_section_title
;
Structure prediction by ZEFSAII (Michael W. Deem and Ramdas Pophale) SiO2 
 PCOD8273375
Probable space group: C M M M
;
_chemical_formula_sum "Si O2"
_cell_formula_units_Z 96
_cell_length_a 18.750994
_cell_length_b 8.951382
_cell_length_c 30.289574
_cell_angle_alpha 90.000000
_cell_angle_beta 90.000000
_cell_angle_gamma 90.000000
_cell_volume 5084.023522
_symmetry_space_group_name_H-M "C M M M"
_symmetry_group_IT_number 65
_symmetry_cell_setting 'orthorhombic'
loop_
_space_group_symop_operation_xyz
x,y,z
-x,-y,z
x,-y,-z
-x,y,-z
-x,-y,-z
x,y,-z
-x,y,z
x,-y,z
1/2+x,1/2+y,z
1/2-x,1/2-y,z
1/2+x,1/2-y,-z
1/2-x,1/2+y,-z
1/2-x,1/2-y,-z
1/2+x,1/2+y,-z
1/2-x,1/2+y,z
1/2+x,1/2-y,z
loop_
_atom_site_type_symbol
_atom_site_label
_atom_site_fract_x
_atom_site_fract_y
_atom_site_fract_z
Si Si1 0.173009 0.676582 0.204947
Si Si2 0.822830 0.825448 0.948994
Si Si3 0.582741 0.674833 0.719282
Si Si4 0.823823 0.675874 0.549132
Si Si5 0.082777 0.329654 0.629806
Si Si6 0.418028 0.825520 0.120047
O O1 0.181951 0.500000 0.208741
O O2 0.250000 0.750000 0.200927
O O3 0.131898 0.734831 0.247503
O O4 0.127021 0.723640 0.162519
O O5 0.750000 0.750000 0.931908
O O6 0.889966 0.763155 0.922350
O O7 0.815181 0.000000 0.940661
O O8 0.836429 0.786473 0.000000
O O9 0.500000 0.715360 0.728150
O O10 0.597077 0.500000 0.724793
O O11 0.605593 0.724667 0.670321
O O12 0.848707 0.726442 0.500000
O O13 0.813586 0.500000 0.550688
O O14 0.750000 0.750000 0.562265
O O15 0.880605 0.729867 0.585252
O O16 0.104847 0.500000 0.640996
O O17 0.000000 0.317040 0.620228
O O18 0.500000 0.781109 0.128335
O O19 0.409817 0.000000 0.110355
#
# Coordination Sequence:
#
# PCOD8273375 Si02
#       6
#    16  16  16  16  16  16
#     4  11  23  39  59  83 111 142 180 224 270 322
#     4  10  21  37  58  84 114 149 188 229 273 321
#     4  10  21  37  57  81 109 141 178 220 267 320
#     4   9  18  32  50  73 101 134 172 214 261 313
#     4   9  18  33  53  76 103 137 175 216 263 313
#     4  10  22  39  59  84 113 146 183 224 272 324
#
# _framework density 18.882681999999999
#
# number of rings (size 3 to 8) (size 9 to 14) (size 15 to 20)
#    0.000    2.167    0.000    2.500    0.000    7.667 
#    0.000    5.000    0.000    0.000    0.000    4.667 
#    0.000    0.000    0.000    0.000    0.000    0.000 
#
# Total GULP energy -595351.793786 kJ/mol
# GULP energy per Si atom -12403.162371 kJ/mol
# Density = 1.883970 g / cm^3
# Si number density = 18.882682 Si / 1000 Ang^3
#
#
#
# Elastic Constant Matrix: (Units=GPa)
#
#
# Indices 1 2 3 4 5 6 
#
# 1 123.6942 53.2754 84.1739 0.0000 0.0000 0.0000
# 2 53.2754 63.3396 50.8270 0.0000 0.0000 0.0000
# 3 84.1739 50.8270 126.2642 0.0000 0.0000 0.0000
# 4 0.0000 0.0000 0.0000 27.4969 0.0000 0.0000
# 5 0.0000 0.0000 0.0000 0.0000 39.7204 0.0000
# 6 0.0000 0.0000 0.0000 0.0000 0.0000 33.0609
#
#
#
# Elastic Compliance Matrix: (Units=1/GPa)
#
#
# Indices 1 2 3 4 5 6 
#
# 1 0.017004 -0.007690 -0.008240 0.000000 0.000000 0.000000
# 2 -0.007690 0.026799 -0.005661 0.000000 0.000000 0.000000
# 3 -0.008240 -0.005661 0.015692 0.000000 0.000000 0.000000
# 4 0.000000 0.000000 0.000000 0.036368 0.000000 0.000000
# 5 0.000000 0.000000 0.000000 0.000000 0.025176 0.000000
# 6 0.000000 0.000000 0.000000 0.000000 0.000000 0.030247
#
#
# Mechanical properties :
#
#
# Convention : Reuss Voigt Hill
#
# Bulk Modulus (GPa) = 61.30345 76.65006 68.97675
# Shear Modulus (GPa) = 25.01180 28.39040 26.70110
#
# Velocity S-wave (km/s) = 3.64344 3.88173 3.76447
# Velocity P-wave (km/s) = 7.08770 7.79559 7.45006
#
# Compressibility (1/GPa) = 0.01631230
#
# Stress axis : x y z
#
# Youngs Moduli (GPa) = 58.81009 37.31517 63.72620
#
# Poissons Ratio (x) = 0.28694 0.52511
# Poissons Ratio (y) = 0.45224 0.36077
# Poissons Ratio (z) = 0.48460 0.21125
#
# Static dielectric constant tensor:
#      x y z
#    x 3.459070 0.000000 0.000000 
#    y 0.000000 3.453440 0.000000 
#    z 0.000000 0.000000 3.640740 
# 
# 
# High freq. dielectric constant tensor:
#      x y z
#    x 1.733210 0.000000 0.000000 
#    y 0.000000 1.734570 0.000000 
#    z 0.000000 0.000000 1.744680 
# 
# From -- ./inp_files/75342.got.cif
#   From: 2010.03.12/outbox.cif.g09.slc.cpg/sg65_38_cif.got.tgz:75342.got - 2010.04.10 20:52:16.
