data_PCOD8273389
_publ_section_title
;
Structure prediction by ZEFSAII (Michael W. Deem and Ramdas Pophale) SiO2 
 PCOD8273389
Probable space group: C M M M
;
_chemical_formula_sum "Si O2"
_cell_formula_units_Z 104
_cell_length_a 18.072370
_cell_length_b 9.128301
_cell_length_c 33.012915
_cell_angle_alpha 90.000000
_cell_angle_beta 90.000000
_cell_angle_gamma 90.000000
_cell_volume 5446.141682
_symmetry_space_group_name_H-M "C M M M"
_symmetry_group_IT_number 65
_symmetry_cell_setting 'orthorhombic'
loop_
_space_group_symop_operation_xyz
x,y,z
-x,-y,z
x,-y,-z
-x,y,-z
-x,-y,-z
x,y,-z
-x,y,z
x,-y,z
1/2+x,1/2+y,z
1/2-x,1/2-y,z
1/2+x,1/2-y,-z
1/2-x,1/2+y,-z
1/2-x,1/2-y,-z
1/2+x,1/2+y,-z
1/2-x,1/2+y,z
1/2+x,1/2-y,z
loop_
_atom_site_type_symbol
_atom_site_label
_atom_site_fract_x
_atom_site_fract_y
_atom_site_fract_z
Si Si1 0.915101 0.828953 0.920829
Si Si2 0.412010 0.165177 0.000000
Si Si3 0.672626 0.171388 0.309605
Si Si4 0.674975 0.670681 0.453161
Si Si5 0.671625 0.326956 0.159378
Si Si6 0.914633 0.669833 0.611324
Si Si7 0.913354 0.668512 0.770994
O O1 0.882380 0.745119 0.959793
O O2 0.865950 0.781469 0.882818
O O3 0.000000 0.783900 0.911918
O O4 0.909258 0.000000 0.930004
O O5 0.500000 0.172109 0.000000
O O6 0.381955 0.000000 0.000000
O O7 0.750000 0.250000 0.304677
O O8 0.631925 0.225210 0.350184
O O9 0.621580 0.213108 0.271776
O O10 0.687579 0.000000 0.311507
O O11 0.657404 0.701686 0.500000
O O12 0.684290 0.500000 0.444091
O O13 0.750000 0.750000 0.439346
O O14 0.607315 0.735522 0.427713
O O15 0.682323 0.500000 0.162881
O O16 0.750000 0.250000 0.163296
O O17 0.618691 0.274218 0.195002
O O18 0.899288 0.500000 0.601886
O O19 0.000000 0.697730 0.621185
O O20 0.895374 0.500000 0.782014
O O21 0.000000 0.696088 0.767652
#
# Coordination Sequence:
#
# PCOD8273389 Si02
#       7
#    16   8  16  16  16  16  16
#     4   9  18  34  55  77 104 140 179 220 269 323
#     4   9  17  29  50  81 110 135 171 221 270 319
#     4  10  21  37  57  82 112 146 183 223 270 323
#     4  10  21  37  57  81 110 144 183 228 277 330
#     4  11  23  38  56  80 111 146 185 227 272 324
#     4  10  21  37  57  81 111 147 186 228 273 324
#     4  10  21  38  60  84 111 144 181 223 272 324
#
# _framework density 19.096088000000002
#
# number of rings (size 3 to 8) (size 9 to 14) (size 15 to 20)
#    0.000    2.077    0.000    3.000    0.000   10.154 
#    0.000    3.462    0.000    2.769    0.000    0.000 
#    0.000    0.000    0.000    0.000    0.000    0.000 
#
# Total GULP energy -645043.813568 kJ/mol
# GULP energy per Si atom -12404.688722 kJ/mol
# Density = 1.905262 g / cm^3
# Si number density = 19.096088 Si / 1000 Ang^3
#
#
#
# Elastic Constant Matrix: (Units=GPa)
#
#
# Indices 1 2 3 4 5 6 
#
# 1 111.5174 46.2434 61.9610 0.0000 0.0000 0.0000
# 2 46.2434 74.7729 62.2269 0.0000 0.0000 0.0000
# 3 61.9610 62.2269 134.3947 0.0000 0.0000 0.0000
# 4 0.0000 0.0000 0.0000 36.4683 0.0000 0.0000
# 5 0.0000 0.0000 0.0000 0.0000 63.8786 0.0000
# 6 0.0000 0.0000 0.0000 0.0000 0.0000 28.3832
#
#
#
# Elastic Compliance Matrix: (Units=1/GPa)
#
#
# Indices 1 2 3 4 5 6 
#
# 1 0.013115 -0.005009 -0.003727 0.000000 0.000000 0.000000
# 2 -0.005009 0.023671 -0.008651 0.000000 0.000000 0.000000
# 3 -0.003727 -0.008651 0.013165 0.000000 0.000000 0.000000
# 4 0.000000 0.000000 0.000000 0.027421 0.000000 0.000000
# 5 0.000000 0.000000 0.000000 0.000000 0.015655 0.000000
# 6 0.000000 0.000000 0.000000 0.000000 0.000000 0.035232
#
#
# Mechanical properties :
#
#
# Convention : Reuss Voigt Hill
#
# Bulk Modulus (GPa) = 65.89115 73.50529 69.69822
# Shear Modulus (GPa) = 29.74564 35.76294 32.75429
#
# Velocity S-wave (km/s) = 3.95103 4.33227 4.14603
# Velocity P-wave (km/s) = 7.44272 7.97500 7.71345
#
# Compressibility (1/GPa) = 0.01517654
#
# Stress axis : x y z
#
# Youngs Moduli (GPa) = 76.24632 42.24593 75.96174
#
# Poissons Ratio (x) = 0.21162 0.28313
# Poissons Ratio (y) = 0.38194 0.65711
# Poissons Ratio (z) = 0.28419 0.36545
#
# Static dielectric constant tensor:
#      x y z
#    x 3.421680 0.000000 0.000000 
#    y 0.000000 3.519580 0.000000 
#    z 0.000000 0.000000 3.649980 
# 
# 
# High freq. dielectric constant tensor:
#      x y z
#    x 1.739160 0.000000 0.000000 
#    y 0.000000 1.740930 0.000000 
#    z 0.000000 0.000000 1.756730 
# 
# From -- ./inp_files/75490.got.cif
#   From: 2010.03.12/outbox.cif.g09.slc.cpg/sg65_38_cif.got.tgz:75490.got - 2010.04.10 20:52:16.
