data_PCOD8273005
_publ_section_title
;
Structure prediction by ZEFSAII (Michael W. Deem and Ramdas Pophale) SiO2 
 PCOD8273005
Probable space group: C M M M
;
_chemical_formula_sum "Si O2"
_cell_formula_units_Z 120
_cell_length_a 8.361538
_cell_length_b 29.475172
_cell_length_c 26.835841
_cell_angle_alpha 90.000000
_cell_angle_beta 90.000000
_cell_angle_gamma 90.000000
_cell_volume 6613.901549
_symmetry_space_group_name_H-M "C M M M"
_symmetry_group_IT_number 65
_symmetry_cell_setting 'orthorhombic'
loop_
_space_group_symop_operation_xyz
x,y,z
-x,-y,z
x,-y,-z
-x,y,-z
-x,-y,-z
x,y,-z
-x,y,z
x,-y,z
1/2+x,1/2+y,z
1/2-x,1/2-y,z
1/2+x,1/2-y,-z
1/2-x,1/2+y,-z
1/2-x,1/2-y,-z
1/2+x,1/2+y,-z
1/2-x,1/2+y,z
1/2+x,1/2-y,z
loop_
_atom_site_type_symbol
_atom_site_label
_atom_site_fract_x
_atom_site_fract_y
_atom_site_fract_z
Si Si1 0.313913 0.702374 0.251600
Si Si2 0.813346 0.446732 0.118353
Si Si3 0.500000 0.446518 0.944553
Si Si4 0.185390 0.797089 0.637555
Si Si5 0.181219 0.613390 0.213293
Si Si6 0.683516 0.448501 0.705623
Si Si7 0.683520 0.139542 0.444796
Si Si8 0.686253 0.550786 0.590555
O O1 0.500000 0.707366 0.255747
O O2 0.250000 0.750000 0.229627
O O3 0.239960 0.693266 0.307320
O O4 0.276103 0.660778 0.214638
O O5 0.798519 0.500000 0.130994
O O6 0.670568 0.431801 0.080508
O O7 0.769075 0.417864 0.167016
O O8 0.000000 0.436969 0.100261
O O9 0.500000 0.500000 0.947320
O O10 0.500000 0.425266 0.000000
O O11 0.250000 0.750000 0.615175
O O12 0.217049 0.836865 0.598592
O O13 0.000000 0.792293 0.644578
O O14 0.205917 0.584929 0.263428
O O15 0.000000 0.628135 0.209062
O O16 0.500000 0.434388 0.714510
O O17 0.712286 0.500000 0.723285
O O18 0.730201 0.443079 0.648311
O O19 0.737926 0.155792 0.500000
O O20 0.500000 0.151536 0.436436
O O21 0.710350 0.085569 0.441651
O O22 0.500000 0.560472 0.581812
O O23 0.729672 0.500000 0.573038
#
# Coordination Sequence:
#
# PCOD8273005 Si02
#       8
#    16  16   8  16  16  16  16  16
#     4  10  21  36  54  76 101 132 167 205 247 302
#     4   9  19  33  48  74 112 149 188 233 273 317
#     4   9  18  32  52  76 104 148 198 236 277 321
#     4  10  21  38  59  79  99 125 159 197 245 302
#     4  11  21  31  47  73 106 142 173 210 255 308
#     4   9  18  31  48  71  98 130 167 203 243 295
#     4  11  24  38  52  73  98 123 155 198 248 302
#     4   9  19  36  54  72  95 124 162 204 244 294
#
# _framework density 18.143602999999999
#
# number of rings (size 3 to 8) (size 9 to 14) (size 15 to 20)
#    0.000    2.200    0.000    3.600    1.867    8.267 
#    0.000    4.000    0.000    0.000    0.000    0.000 
#    0.000    0.533    0.267    0.000    0.000    0.000 
#
# Total GULP energy -743687.414474 kJ/mol
# GULP energy per Si atom -12394.790241 kJ/mol
# Density = 1.810231 g / cm^3
# Si number density = 18.143603 Si / 1000 Ang^3
#
#
#
# Elastic Constant Matrix: (Units=GPa)
#
#
# Indices 1 2 3 4 5 6 
#
# 1 70.0499 28.5395 36.5438 0.0000 0.0000 0.0000
# 2 28.5395 89.0283 37.0410 0.0000 0.0000 0.0000
# 3 36.5438 37.0410 64.9590 0.0000 0.0000 0.0000
# 4 0.0000 0.0000 0.0000 13.4842 0.0000 0.0000
# 5 0.0000 0.0000 0.0000 0.0000 25.0164 0.0000
# 6 0.0000 0.0000 0.0000 0.0000 0.0000 30.8243
#
#
#
# Elastic Compliance Matrix: (Units=1/GPa)
#
#
# Indices 1 2 3 4 5 6 
#
# 1 0.020568 -0.002333 -0.010241 0.000000 0.000000 0.000000
# 2 -0.002333 0.014991 -0.007236 0.000000 0.000000 0.000000
# 3 -0.010241 -0.007236 0.025282 0.000000 0.000000 0.000000
# 4 0.000000 0.000000 0.000000 0.074161 0.000000 0.000000
# 5 0.000000 0.000000 0.000000 0.000000 0.039974 0.000000
# 6 0.000000 0.000000 0.000000 0.000000 0.000000 0.032442
#
#
# Mechanical properties :
#
#
# Convention : Reuss Voigt Hill
#
# Bulk Modulus (GPa) = 47.12121 47.58732 47.35427
# Shear Modulus (GPa) = 19.67650 21.99249 20.83450
#
# Velocity S-wave (km/s) = 3.29673 3.48535 3.39235
# Velocity P-wave (km/s) = 6.36544 6.51782 6.44208
#
# Compressibility (1/GPa) = 0.02122186
#
# Stress axis : x y z
#
# Youngs Moduli (GPa) = 48.61812 66.70829 39.55457
#
# Poissons Ratio (x) = 0.15561 0.40508
# Poissons Ratio (y) = 0.11341 0.28620
# Poissons Ratio (z) = 0.49790 0.48268
#
# Static dielectric constant tensor:
#      x y z
#    x 3.391830 0.000000 0.000000 
#    y 0.000000 3.164580 0.000000 
#    z 0.000000 0.000000 3.267740 
# 
# 
# High freq. dielectric constant tensor:
#      x y z
#    x 1.709610 0.000000 0.000000 
#    y 0.000000 1.695490 0.000000 
#    z 0.000000 0.000000 1.669820 
# 
# From -- ./inp_files/73922.got.cif
#   From: 2010.03.12/outbox.cif.g09.slc.cpg/sg65_37_cif.got.tgz:73922.got - 2010.04.10 20:52:16.
