data_PCOD8273320
_publ_section_title
;
Structure prediction by ZEFSAII (Michael W. Deem and Ramdas Pophale) SiO2 
 PCOD8273320
Probable space group: C M M M
;
_chemical_formula_sum "Si O2"
_cell_formula_units_Z 72
_cell_length_a 31.589722
_cell_length_b 8.040586
_cell_length_c 14.581880
_cell_angle_alpha 90.000000
_cell_angle_beta 90.000000
_cell_angle_gamma 90.000000
_cell_volume 3703.795719
_symmetry_space_group_name_H-M "C M M M"
_symmetry_group_IT_number 65
_symmetry_cell_setting 'orthorhombic'
loop_
_space_group_symop_operation_xyz
x,y,z
-x,-y,z
x,-y,-z
-x,y,-z
-x,-y,-z
x,y,-z
-x,y,z
x,-y,z
1/2+x,1/2+y,z
1/2-x,1/2-y,z
1/2+x,1/2-y,-z
1/2-x,1/2+y,-z
1/2-x,1/2-y,-z
1/2+x,1/2+y,-z
1/2-x,1/2+y,z
1/2+x,1/2-y,z
loop_
_atom_site_type_symbol
_atom_site_label
_atom_site_fract_x
_atom_site_fract_y
_atom_site_fract_z
Si Si1 0.205388 0.696123 0.602156
Si Si2 0.127753 0.693815 0.719780
Si Si3 0.048167 0.196061 0.394954
Si Si4 0.954816 0.500000 0.107391
Si Si5 0.599857 0.686322 0.896680
O O1 0.202944 0.773188 0.500000
O O2 0.202065 0.500000 0.598437
O O3 0.250000 0.750000 0.648146
O O4 0.165468 0.767091 0.657748
O O5 0.133808 0.500000 0.741032
O O6 0.082193 0.718094 0.671517
O O7 0.134215 0.795379 0.815888
O O8 0.057675 0.248998 0.500000
O O9 0.000000 0.250660 0.369039
O O10 0.052734 0.000000 0.383457
O O11 0.932911 0.327869 0.135766
O O12 0.000000 0.500000 0.157160
O O13 0.960335 0.500000 0.000000
O O14 0.579905 0.500000 0.894543
O O15 0.617565 0.722033 0.000000
#
# Coordination Sequence:
#
# PCOD8273320 Si02
#       5
#    16  16  16   8  16
#     4   9  19  35  55  82 114 145 180 226 279 336
#     4  11  21  34  55  81 110 146 187 230 281 342
#     4   9  19  35  52  73 105 144 186 229 270 321
#     4   9  18  34  54  76 105 141 185 237 288 334
#     4  10  21  37  56  79 108 145 190 237 287 340
#
# _framework density 19.439518
#
# number of rings (size 3 to 8) (size 9 to 14) (size 15 to 20)
#    0.000    2.333    1.111    2.000    0.000    4.889 
#    0.000    5.556    0.000    0.667    0.000    0.000 
#    0.000    0.000    0.000    0.000    0.000    0.000 
#
# Total GULP energy -446016.494110 kJ/mol
# GULP energy per Si atom -12389.347059 kJ/mol
# Density = 1.939527 g / cm^3
# Si number density = 19.439518 Si / 1000 Ang^3
#
#
#
# Elastic Constant Matrix: (Units=GPa)
#
#
# Indices 1 2 3 4 5 6 
#
# 1 126.1272 25.3235 67.3170 0.0000 0.0000 0.0000
# 2 25.3235 81.4591 28.3840 0.0000 0.0000 0.0000
# 3 67.3170 28.3840 124.3508 0.0000 0.0000 0.0000
# 4 0.0000 0.0000 0.0000 26.9211 0.0000 0.0000
# 5 0.0000 0.0000 0.0000 0.0000 12.9798 0.0000
# 6 0.0000 0.0000 0.0000 0.0000 0.0000 20.8573
#
#
#
# Elastic Compliance Matrix: (Units=1/GPa)
#
#
# Indices 1 2 3 4 5 6 
#
# 1 0.011317 -0.001503 -0.005783 0.000000 0.000000 0.000000
# 2 -0.001503 0.013536 -0.002276 0.000000 0.000000 0.000000
# 3 -0.005783 -0.002276 0.011692 0.000000 0.000000 0.000000
# 4 0.000000 0.000000 0.000000 0.037146 0.000000 0.000000
# 5 0.000000 0.000000 0.000000 0.000000 0.077043 0.000000
# 6 0.000000 0.000000 0.000000 0.000000 0.000000 0.047945
#
#
# Mechanical properties :
#
#
# Convention : Reuss Voigt Hill
#
# Bulk Modulus (GPa) = 57.40339 63.77622 60.58981
# Shear Modulus (GPa) = 22.36032 26.21249 24.28640
#
# Velocity S-wave (km/s) = 3.39521 3.67606 3.53842
# Velocity P-wave (km/s) = 6.70547 7.13419 6.92315
#
# Compressibility (1/GPa) = 0.01742057
#
# Stress axis : x y z
#
# Youngs Moduli (GPa) = 88.36284 73.87460 85.52766
#
# Poissons Ratio (x) = 0.11103 0.49464
# Poissons Ratio (y) = 0.13281 0.19468
# Poissons Ratio (z) = 0.51103 0.16815
#
# Static dielectric constant tensor:
#      x y z
#    x 3.637620 0.000000 0.000000 
#    y 0.000000 3.500500 0.000000 
#    z 0.000000 0.000000 3.824930 
# 
# 
# High freq. dielectric constant tensor:
#      x y z
#    x 1.725780 0.000000 0.000000 
#    y 0.000000 1.760060 0.000000 
#    z 0.000000 0.000000 1.761640 
# 
# From -- ./inp_files/47467.got.cif
#   From: 2010.03.12/outbox.cif.g09.slc.cpg/sg65_24_cif.got.tgz:47467.got - 2010.04.10 20:52:16.
