data_PCOD8273073
_publ_section_title
;
Structure prediction by ZEFSAII (Michael W. Deem and Ramdas Pophale) SiO2 
 PCOD8273073
Probable space group: C M M M
;
_chemical_formula_sum "Si O2"
_cell_formula_units_Z 96
_cell_length_a 8.961176
_cell_length_b 18.315916
_cell_length_c 30.450814
_cell_angle_alpha 90.000000
_cell_angle_beta 90.000000
_cell_angle_gamma 90.000000
_cell_volume 4997.957476
_symmetry_space_group_name_H-M "C M M M"
_symmetry_group_IT_number 65
_symmetry_cell_setting 'orthorhombic'
loop_
_space_group_symop_operation_xyz
x,y,z
-x,-y,z
x,-y,-z
-x,y,-z
-x,-y,-z
x,y,-z
-x,y,z
x,-y,z
1/2+x,1/2+y,z
1/2-x,1/2-y,z
1/2+x,1/2-y,-z
1/2-x,1/2+y,-z
1/2-x,1/2-y,-z
1/2+x,1/2+y,-z
1/2-x,1/2+y,z
1/2+x,1/2-y,z
loop_
_atom_site_type_symbol
_atom_site_label
_atom_site_fract_x
_atom_site_fract_y
_atom_site_fract_z
Si Si1 0.176243 0.672091 0.124404
Si Si2 0.326138 0.676120 0.549005
Si Si3 0.326318 0.415729 0.368728
Si Si4 0.322847 0.918176 0.791953
Si Si5 0.676867 0.828664 0.292150
Si Si6 0.828149 0.916240 0.949285
O O1 0.250000 0.750000 0.130343
O O2 0.234080 0.621193 0.164014
O O3 0.222879 0.636145 0.078588
O O4 0.000000 0.681909 0.125240
O O5 0.269428 0.654906 0.500000
O O6 0.500000 0.692287 0.548416
O O7 0.250000 0.750000 0.566090
O O8 0.287594 0.610432 0.581994
O O9 0.500000 0.402538 0.357759
O O10 0.282527 0.500000 0.365217
O O11 0.225118 0.370806 0.335563
O O12 0.500000 0.921717 0.791554
O O13 0.264679 0.873927 0.749817
O O14 0.255679 0.000000 0.790592
O O15 0.500000 0.819674 0.291887
O O16 0.750000 0.750000 0.290674
O O17 0.000000 0.901437 0.937147
O O18 0.786192 0.000000 0.939394
O O19 0.798864 0.897907 0.000000
#
# Coordination Sequence:
#
# PCOD8273073 Si02
#       6
#    16  16  16  16  16  16
#     4  11  22  36  56  81 111 145 182 224 267 315
#     4   9  18  33  53  76 103 138 178 219 266 318
#     4  10  21  36  54  79 110 141 178 224 269 317
#     4   9  19  36  57  81 108 139 177 221 268 318
#     4  11  22  37  58  81 109 144 180 219 266 320
#     4   9  19  37  59  82 110 143 179 222 272 324
#
# _framework density 19.207846
#
# number of rings (size 3 to 8) (size 9 to 14) (size 15 to 20)
#    0.000    2.167    0.000    3.500    0.000    5.000 
#    0.000    5.000    0.000    6.000    0.000    3.500 
#    0.000    0.000    0.000    0.000    0.000    0.000 
#
# Total GULP energy -595327.451004 kJ/mol
# GULP energy per Si atom -12402.655229 kJ/mol
# Density = 1.916413 g / cm^3
# Si number density = 19.207846 Si / 1000 Ang^3
#
#
#
# Elastic Constant Matrix: (Units=GPa)
#
#
# Indices 1 2 3 4 5 6 
#
# 1 58.3414 50.8401 42.8784 0.0000 0.0000 0.0000
# 2 50.8401 168.3986 81.0053 0.0000 0.0000 0.0000
# 3 42.8784 81.0053 124.3317 0.0000 0.0000 0.0000
# 4 0.0000 0.0000 0.0000 39.9189 0.0000 0.0000
# 5 0.0000 0.0000 0.0000 0.0000 23.9092 0.0000
# 6 0.0000 0.0000 0.0000 0.0000 0.0000 -9.2135
#
#
#
# Elastic Compliance Matrix: (Units=1/GPa)
#
#
# Indices 1 2 3 4 5 6 
#
# 1 0.025630 -0.005077 -0.005531 0.000000 0.000000 0.000000
# 2 -0.005077 0.009655 -0.004539 0.000000 0.000000 0.000000
# 3 -0.005531 -0.004539 0.012908 0.000000 0.000000 0.000000
# 4 0.000000 0.000000 0.000000 0.025051 0.000000 0.000000
# 5 0.000000 0.000000 0.000000 0.000000 0.041825 0.000000
# 6 0.000000 0.000000 0.000000 0.000000 0.000000 -0.108537
#
#
# Mechanical properties :
#
#
# Convention : Reuss Voigt Hill
#
# Bulk Modulus (GPa) = 55.87380 77.83549 66.85464
# Shear Modulus (GPa) = 116.84241 22.67946 69.76094
#
# Velocity S-wave (km/s) = 7.80786 3.43992 6.03306
# Velocity P-wave (km/s) = 10.50884 7.50920 9.13301
#
# Compressibility (1/GPa) = 0.01789747
#
# Stress axis : x y z
#
# Youngs Moduli (GPa) = 39.01680 103.57723 77.47127
#
# Poissons Ratio (x) = 0.52587 0.42851
# Poissons Ratio (y) = 0.19809 0.35166
# Poissons Ratio (z) = 0.21581 0.47017
#
# Static dielectric constant tensor:
#      x y z
#    x 3.321290 0.000000 0.000000 
#    y 0.000000 3.636670 0.000000 
#    z 0.000000 0.000000 3.722510 
# 
# 
# High freq. dielectric constant tensor:
#      x y z
#    x 1.729930 0.000000 0.000000 
#    y 0.000000 1.755470 0.000000 
#    z 0.000000 0.000000 1.761250 
# 
# From -- ./inp_files/73113.got.cif
#   From: 2010.03.12/outbox.cif.g09.slc.cpg/sg65_37_cif.got.tgz:73113.got - 2010.04.10 20:52:16.
