data_PCOD8273747
_publ_section_title
;
Structure prediction by ZEFSAII (Michael W. Deem and Ramdas Pophale) SiO2 
 PCOD8273747
Probable space group: C M M M
;
_chemical_formula_sum "Si O2"
_cell_formula_units_Z 104
_cell_length_a 21.723540
_cell_length_b 8.783888
_cell_length_c 27.168280
_cell_angle_alpha 90.000000
_cell_angle_beta 90.000000
_cell_angle_gamma 90.000000
_cell_volume 5184.173551
_symmetry_space_group_name_H-M "C M M M"
_symmetry_group_IT_number 65
_symmetry_cell_setting 'orthorhombic'
loop_
_space_group_symop_operation_xyz
x,y,z
-x,-y,z
x,-y,-z
-x,y,-z
-x,-y,-z
x,y,-z
-x,y,z
x,-y,z
1/2+x,1/2+y,z
1/2-x,1/2-y,z
1/2+x,1/2-y,-z
1/2-x,1/2+y,-z
1/2-x,1/2-y,-z
1/2+x,1/2+y,-z
1/2-x,1/2+y,z
1/2+x,1/2-y,z
loop_
_atom_site_type_symbol
_atom_site_label
_atom_site_fract_x
_atom_site_fract_y
_atom_site_fract_z
Si Si1 0.368325 0.320914 0.277801
Si Si2 0.182279 0.820948 0.384481
Si Si3 0.500000 0.328477 0.867214
Si Si4 0.126009 0.175711 0.094293
Si Si5 0.315777 0.821603 0.000000
Si Si6 0.930628 0.324807 0.558060
Si Si7 0.000000 0.180248 0.241904
Si Si8 0.813360 0.320282 0.815592
O O1 0.361550 0.500000 0.266994
O O2 0.340890 0.275833 0.330339
O O3 0.439319 0.266397 0.272006
O O4 0.327187 0.227385 0.239875
O O5 0.250000 0.750000 0.395990
O O6 0.126859 0.767793 0.419858
O O7 0.189975 0.000000 0.390991
O O8 0.500000 0.500000 0.848159
O O9 0.553739 0.299140 0.905878
O O10 0.500000 0.243571 0.813464
O O11 0.139214 0.244825 0.147548
O O12 0.147220 0.000000 0.090064
O O13 0.150975 0.270847 0.049253
O O14 0.250000 0.750000 0.000000
O O15 0.309819 0.000000 0.000000
O O16 0.926141 0.305020 0.500000
O O17 0.922675 0.500000 0.573541
O O18 0.000000 0.269099 0.575015
O O19 0.000000 0.000000 0.240106
O O20 0.812708 0.500000 0.821080
O O21 0.750000 0.250000 0.833501
#
# Coordination Sequence:
#
# PCOD8273747 Si02
#       8
#    16  16   8  16   8  16   8  16
#     4  10  21  38  61  88 122 162 203 249 302 363
#     4  11  24  39  61  92 129 170 214 266 319 374
#     4   9  18  35  65  92 117 152 191 232 284 348
#     4  11  22  41  65  90 118 154 195 237 288 353
#     4  12  26  45  64  89 119 152 192 242 295 346
#     4   9  20  41  67  93 125 166 210 261 323 386
#     4   9  16  34  61  89 119 158 200 244 295 357
#     4  12  24  38  58  85 117 156 200 247 298 355
#
# _framework density 20.061057000000002
#
# number of rings (size 3 to 8) (size 9 to 14) (size 15 to 20)
#    0.000    1.538    1.538    4.385    1.077    3.692 
#    0.000    5.000    0.000    0.000    0.000    0.000 
#    0.000    0.000    0.000    0.000    0.000    0.000 
#
# Total GULP energy -644423.246395 kJ/mol
# GULP energy per Si atom -12392.754738 kJ/mol
# Density = 2.001540 g / cm^3
# Si number density = 20.061057 Si / 1000 Ang^3
#
#
#
# Elastic Constant Matrix: (Units=GPa)
#
#
# Indices 1 2 3 4 5 6 
#
# 1 144.5651 50.4579 50.2245 0.0000 0.0000 0.0000
# 2 50.4579 107.1671 40.4446 0.0000 0.0000 0.0000
# 3 50.2245 40.4446 88.3619 0.0000 0.0000 0.0000
# 4 0.0000 0.0000 0.0000 34.9918 0.0000 0.0000
# 5 0.0000 0.0000 0.0000 0.0000 67.8550 0.0000
# 6 0.0000 0.0000 0.0000 0.0000 0.0000 25.4802
#
#
#
# Elastic Compliance Matrix: (Units=1/GPa)
#
#
# Indices 1 2 3 4 5 6 
#
# 1 0.009302 -0.002882 -0.003968 0.000000 0.000000 0.000000
# 2 -0.002882 0.012173 -0.003933 0.000000 0.000000 0.000000
# 3 -0.003968 -0.003933 0.015373 0.000000 0.000000 0.000000
# 4 0.000000 0.000000 0.000000 0.028578 0.000000 0.000000
# 5 0.000000 0.000000 0.000000 0.000000 0.014737 0.000000
# 6 0.000000 0.000000 0.000000 0.000000 0.000000 0.039246
#
#
# Mechanical properties :
#
#
# Convention : Reuss Voigt Hill
#
# Bulk Modulus (GPa) = 65.44341 69.14979 67.29660
# Shear Modulus (GPa) = 34.23031 38.92985 36.58008
#
# Velocity S-wave (km/s) = 4.13523 4.40997 4.27481
# Velocity P-wave (km/s) = 7.44937 7.77656 7.61472
#
# Compressibility (1/GPa) = 0.01528038
#
# Stress axis : x y z
#
# Youngs Moduli (GPa) = 107.50646 82.15104 65.04981
#
# Poissons Ratio (x) = 0.23677 0.25811
# Poissons Ratio (y) = 0.30985 0.25587
# Poissons Ratio (z) = 0.42657 0.32314
#
# Static dielectric constant tensor:
#      x y z
#    x 3.976150 0.000000 0.000000 
#    y 0.000000 3.521520 0.000000 
#    z 0.000000 0.000000 3.568920 
# 
# 
# High freq. dielectric constant tensor:
#      x y z
#    x 1.805620 0.000000 0.000000 
#    y 0.000000 1.768850 0.000000 
#    z 0.000000 0.000000 1.783710 
# 
# From -- ./inp_files/75567.got.cif
#   From: 2010.03.12/outbox.cif.g09.slc.cpg/sg65_38_cif.got.tgz:75567.got - 2010.04.10 20:52:16.
