data_PCOD8273695
_publ_section_title
;
Structure prediction by ZEFSAII (Michael W. Deem and Ramdas Pophale) SiO2 
 PCOD8273695
Probable space group: C M M M
;
_chemical_formula_sum "Si O2"
_cell_formula_units_Z 88
_cell_length_a 23.808368
_cell_length_b 8.842959
_cell_length_c 22.301994
_cell_angle_alpha 90.000000
_cell_angle_beta 90.000000
_cell_angle_gamma 90.000000
_cell_volume 4695.382022
_symmetry_space_group_name_H-M "C M M M"
_symmetry_group_IT_number 65
_symmetry_cell_setting 'orthorhombic'
loop_
_space_group_symop_operation_xyz
x,y,z
-x,-y,z
x,-y,-z
-x,y,-z
-x,-y,-z
x,y,-z
-x,y,z
x,-y,z
1/2+x,1/2+y,z
1/2-x,1/2-y,z
1/2+x,1/2-y,-z
1/2-x,1/2+y,-z
1/2-x,1/2-y,-z
1/2+x,1/2+y,-z
1/2-x,1/2+y,z
1/2+x,1/2-y,z
loop_
_atom_site_type_symbol
_atom_site_label
_atom_site_fract_x
_atom_site_fract_y
_atom_site_fract_z
Si Si1 0.810832 0.822708 0.719745
Si Si2 0.308744 0.824909 0.930439
Si Si3 0.434522 0.821366 0.500000
Si Si4 0.103145 0.822579 0.380074
Si Si5 0.000000 0.333133 0.817206
Si Si6 0.000000 0.667122 0.322121
Si Si7 0.116835 0.820791 0.167171
O O1 0.750000 0.750000 0.722294
O O2 0.839399 0.784407 0.655493
O O3 0.849436 0.760284 0.774241
O O4 0.803229 0.000000 0.727474
O O5 0.250000 0.750000 0.913688
O O6 0.355520 0.738711 0.893288
O O7 0.306394 0.000000 0.912162
O O8 0.323405 0.803298 0.000000
O O9 0.500000 0.765031 0.500000
O O10 0.399759 0.761145 0.443432
O O11 0.432761 0.000000 0.500000
O O12 0.053450 0.764756 0.338750
O O13 0.096437 0.000000 0.391024
O O14 0.000000 0.358830 0.747227
O O15 0.054124 0.239908 0.835898
O O16 0.000000 0.500000 0.847846
O O17 0.000000 0.500000 0.354254
O O18 0.115083 0.000000 0.167649
#
# Coordination Sequence:
#
# PCOD8273695 Si02
#       7
#    16  16   8  16   8   8  16
#     4  10  23  39  58  85 115 149 190 235 283 339
#     4  10  21  38  60  87 119 156 199 245 291 342
#     4  11  23  37  56  87 117 144 189 237 284 340
#     4  11  22  38  59  84 115 151 190 233 285 341
#     4  11  23  37  57  87 121 157 192 233 292 351
#     4  11  21  34  56  86 116 151 187 232 286 339
#     4  11  22  38  60  88 120 154 194 241 291 346
#
# _framework density 18.741817999999999
#
# number of rings (size 3 to 8) (size 9 to 14) (size 15 to 20)
#    0.000    1.364    2.727    3.000    0.000    6.545 
#    0.000    0.909    0.000    2.727    0.000    0.000 
#    0.000    0.000    0.000    0.000    0.000    0.000 
#
# Total GULP energy -545652.201535 kJ/mol
# GULP energy per Si atom -12401.186399 kJ/mol
# Density = 1.869916 g / cm^3
# Si number density = 18.741818 Si / 1000 Ang^3
#
#
#
# Elastic Constant Matrix: (Units=GPa)
#
#
# Indices 1 2 3 4 5 6 
#
# 1 157.7025 60.8227 66.3592 0.0000 0.0000 0.0000
# 2 60.8227 92.4298 46.7854 0.0000 0.0000 0.0000
# 3 66.3592 46.7854 92.6744 0.0000 0.0000 0.0000
# 4 0.0000 0.0000 0.0000 30.0130 0.0000 0.0000
# 5 0.0000 0.0000 0.0000 0.0000 36.2300 0.0000
# 6 0.0000 0.0000 0.0000 0.0000 0.0000 97.7073
#
#
#
# Elastic Compliance Matrix: (Units=1/GPa)
#
#
# Indices 1 2 3 4 5 6 
#
# 1 0.010067 -0.003997 -0.005190 0.000000 0.000000 0.000000
# 2 -0.003997 0.016120 -0.005276 0.000000 0.000000 0.000000
# 3 -0.005190 -0.005276 0.017170 0.000000 0.000000 0.000000
# 4 0.000000 0.000000 0.000000 0.033319 0.000000 0.000000
# 5 0.000000 0.000000 0.000000 0.000000 0.027601 0.000000
# 6 0.000000 0.000000 0.000000 0.000000 0.000000 0.010235
#
#
# Mechanical properties :
#
#
# Convention : Reuss Voigt Hill
#
# Bulk Modulus (GPa) = 69.29782 76.74902 73.02342
# Shear Modulus (GPa) = 33.72726 44.04604 38.88665
#
# Velocity S-wave (km/s) = 4.24674 4.85309 4.56000
# Velocity P-wave (km/s) = 7.81675 8.51134 8.17143
#
# Compressibility (1/GPa) = 0.01443047
#
# Stress axis : x y z
#
# Youngs Moduli (GPa) = 99.33759 62.03601 58.23998
#
# Poissons Ratio (x) = 0.24796 0.30229
# Poissons Ratio (y) = 0.39706 0.30726
# Poissons Ratio (z) = 0.51560 0.32728
#
# Static dielectric constant tensor:
#      x y z
#    x 3.409430 0.000000 0.000000 
#    y 0.000000 3.662020 0.000000 
#    z 0.000000 0.000000 3.508030 
# 
# 
# High freq. dielectric constant tensor:
#      x y z
#    x 1.723870 0.000000 0.000000 
#    y 0.000000 1.742470 0.000000 
#    z 0.000000 0.000000 1.729780 
# 
# From -- ./inp_files/59931.got.cif
#   From: 2010.03.12/outbox.cif.g09.slc.cpg/sg65_30_cif.got.tgz:59931.got - 2010.04.10 20:52:16.
