data_PCOD8273618
_publ_section_title
;
Structure prediction by ZEFSAII (Michael W. Deem and Ramdas Pophale) SiO2 
 PCOD8273618
Probable space group: C M M M
;
_chemical_formula_sum "Si O2"
_cell_formula_units_Z 88
_cell_length_a 13.372358
_cell_length_b 14.300001
_cell_length_c 21.854504
_cell_angle_alpha 90.000000
_cell_angle_beta 90.000000
_cell_angle_gamma 90.000000
_cell_volume 4179.121687
_symmetry_space_group_name_H-M "C M M M"
_symmetry_group_IT_number 65
_symmetry_cell_setting 'orthorhombic'
loop_
_space_group_symop_operation_xyz
x,y,z
-x,-y,z
x,-y,-z
-x,y,-z
-x,-y,-z
x,y,-z
-x,y,z
x,-y,z
1/2+x,1/2+y,z
1/2-x,1/2-y,z
1/2+x,1/2-y,-z
1/2-x,1/2+y,-z
1/2-x,1/2-y,-z
1/2+x,1/2+y,-z
1/2-x,1/2+y,z
1/2+x,1/2-y,z
loop_
_atom_site_type_symbol
_atom_site_label
_atom_site_fract_x
_atom_site_fract_y
_atom_site_fract_z
Si Si1 0.115823 0.788231 0.755588
Si Si2 0.118419 0.789350 0.618562
Si Si3 0.380687 0.395442 0.500000
Si Si4 0.611213 0.889616 0.933233
Si Si5 0.619354 0.100875 0.568812
Si Si6 0.210563 0.389133 0.809334
O O1 0.145990 0.821087 0.686883
O O2 0.144352 0.678636 0.765607
O O3 0.174053 0.860045 0.799886
O O4 0.000000 0.801758 0.768939
O O5 0.163110 0.851805 0.563197
O O6 0.162184 0.683899 0.611113
O O7 0.000000 0.788342 0.611301
O O8 0.342106 0.500000 0.500000
O O9 0.500000 0.387064 0.500000
O O10 0.500000 0.849445 0.919369
O O11 0.685872 0.860535 0.879201
O O12 0.604190 0.000000 0.935616
O O13 0.648656 0.852516 0.000000
O O14 0.662103 0.113051 0.500000
O O15 0.500000 0.107086 0.565691
O O16 0.651957 0.000000 0.595989
O O17 0.191287 0.500000 0.795901
#
# Coordination Sequence:
#
# PCOD8273618 Si02
#       6
#    16  16   8  16  16  16
#     4  10  22  37  55  83 117 154 198 242 288 350
#     4   9  16  28  45  68 101 136 176 233 291 342
#     4   9  16  26  43  68  95 127 177 238 292 341
#     4   8  14  28  56  92 122 151 193 241 285 330
#     4   8  12  19  35  61  92 123 158 210 281 350
#     4  10  21  38  59  83 117 157 194 237 286 339
#
# _framework density 21.057054999999998
#
# number of rings (size 3 to 8) (size 9 to 14) (size 15 to 20)
#    0.000    3.000    0.909    1.636    0.000    2.909 
#    0.000    5.455    0.000    3.818    0.000    3.818 
#    0.000    0.000    0.000    0.000    0.000    0.909 
#
# Total GULP energy -545150.296988 kJ/mol
# GULP energy per Si atom -12389.779477 kJ/mol
# Density = 2.100913 g / cm^3
# Si number density = 21.057055 Si / 1000 Ang^3
#
#
#
# Elastic Constant Matrix: (Units=GPa)
#
#
# Indices 1 2 3 4 5 6 
#
# 1 78.6093 17.6166 61.9175 0.0000 0.0000 0.0000
# 2 17.6166 107.7405 63.9106 0.0000 0.0000 0.0000
# 3 61.9175 63.9106 160.8613 0.0000 0.0000 0.0000
# 4 0.0000 0.0000 0.0000 25.8683 0.0000 0.0000
# 5 0.0000 0.0000 0.0000 0.0000 30.7623 0.0000
# 6 0.0000 0.0000 0.0000 0.0000 0.0000 16.9561
#
#
#
# Elastic Compliance Matrix: (Units=1/GPa)
#
#
# Indices 1 2 3 4 5 6 
#
# 1 0.018456 0.001565 -0.007726 0.000000 0.000000 0.000000
# 2 0.001565 0.012276 -0.005480 0.000000 0.000000 0.000000
# 3 -0.007726 -0.005480 0.011367 0.000000 0.000000 0.000000
# 4 0.000000 0.000000 0.000000 0.038657 0.000000 0.000000
# 5 0.000000 0.000000 0.000000 0.000000 0.032507 0.000000
# 6 0.000000 0.000000 0.000000 0.000000 0.000000 0.058976
#
#
# Mechanical properties :
#
#
# Convention : Reuss Voigt Hill
#
# Bulk Modulus (GPa) = 53.13915 70.45560 61.79737
# Shear Modulus (GPa) = 24.77789 28.30177 26.53983
#
# Velocity S-wave (km/s) = 3.43403 3.67011 3.55403
# Velocity P-wave (km/s) = 6.40422 7.17577 6.80094
#
# Compressibility (1/GPa) = 0.01881852
#
# Stress axis : x y z
#
# Youngs Moduli (GPa) = 54.18429 81.45836 87.97143
#
# Poissons Ratio (x) = -0.12749 0.67963
# Poissons Ratio (y) = -0.08480 0.48206
# Poissons Ratio (z) = 0.41860 0.44637
#
# Static dielectric constant tensor:
#      x y z
#    x 3.723990 0.000000 0.000000 
#    y 0.000000 3.779410 0.000000 
#    z 0.000000 0.000000 4.168810 
# 
# 
# High freq. dielectric constant tensor:
#      x y z
#    x 1.829320 0.000000 0.000000 
#    y 0.000000 1.804920 0.000000 
#    z 0.000000 0.000000 1.816410 
# 
# From -- ./inp_files/62484.got.cif
#   From: 2010.03.12/outbox.cif.g09.slc.cpg/sg65_32_cif.got.tgz:62484.got - 2010.04.10 20:52:16.
