data_PCOD8273941
_publ_section_title
;
Structure prediction by ZEFSAII (Michael W. Deem and Ramdas Pophale) SiO2 
 PCOD8273941
Probable space group: C M M M
;
_chemical_formula_sum "Si O2"
_cell_formula_units_Z 88
_cell_length_a 19.649576
_cell_length_b 18.841630
_cell_length_c 12.080667
_cell_angle_alpha 90.000000
_cell_angle_beta 90.000000
_cell_angle_gamma 90.000000
_cell_volume 4472.625834
_symmetry_space_group_name_H-M "C M M M"
_symmetry_group_IT_number 65
_symmetry_cell_setting 'orthorhombic'
loop_
_space_group_symop_operation_xyz
x,y,z
-x,-y,z
x,-y,-z
-x,y,-z
-x,-y,-z
x,y,-z
-x,y,z
x,-y,z
1/2+x,1/2+y,z
1/2-x,1/2-y,z
1/2+x,1/2-y,-z
1/2-x,1/2+y,-z
1/2-x,1/2-y,-z
1/2+x,1/2+y,-z
1/2-x,1/2+y,z
1/2+x,1/2-y,z
loop_
_atom_site_type_symbol
_atom_site_label
_atom_site_fract_x
_atom_site_fract_y
_atom_site_fract_z
Si Si1 0.723142 0.641238 0.000000
Si Si2 0.080007 0.921767 0.500000
Si Si3 0.422954 0.337381 0.286994
Si Si4 0.678607 0.083517 0.629369
Si Si5 0.640388 0.775090 0.000000
Si Si6 0.196394 0.080188 0.778656
Si Si7 0.922460 0.319129 0.233051
O O1 0.653756 0.689784 0.000000
O O2 0.786068 0.692736 0.000000
O O3 0.733038 0.589039 0.895855
O O4 0.103635 0.877001 0.603982
O O5 0.000000 0.930764 0.500000
O O6 0.114801 0.000000 0.500000
O O7 0.500000 0.358867 0.253125
O O8 0.368052 0.367577 0.201799
O O9 0.417153 0.253420 0.303513
O O10 0.675856 0.106393 0.500000
O O11 0.752623 0.102965 0.679388
O O12 0.622066 0.123175 0.702606
O O13 0.664480 0.000000 0.642278
O O14 0.599446 0.801282 0.892056
O O15 0.171196 0.000000 0.760348
O O16 0.000000 0.346971 0.230881
#
# Coordination Sequence:
#
# PCOD8273941 Si02
#       7
#     8   8  16  16   8  16  16
#     4  11  21  38  64  89 124 162 208 255 306 358
#     4   9  18  34  54  79 119 165 202 243 293 351
#     4  10  22  37  57  90 125 161 209 253 300 367
#     4  10  24  44  65  93 124 157 204 259 318 381
#     4  11  21  40  64  89 126 158 206 259 308 362
#     4  11  22  39  63  89 124 167 207 253 307 361
#     4  11  23  41  66  91 123 164 204 255 313 367
#
# _framework density 19.675243999999999
#
# number of rings (size 3 to 8) (size 9 to 14) (size 15 to 20)
#    0.000    1.545    3.636    1.091    2.545    2.545 
#    0.000    2.727    0.000    2.182    0.000    0.000 
#    0.000    0.000    0.000    0.000    0.000    0.000 
#
# Total GULP energy -545273.668872 kJ/mol
# GULP energy per Si atom -12392.583383 kJ/mol
# Density = 1.963046 g / cm^3
# Si number density = 19.675244 Si / 1000 Ang^3
#
#
#
# Elastic Constant Matrix: (Units=GPa)
#
#
# Indices 1 2 3 4 5 6 
#
# 1 119.9120 51.4462 35.6176 0.0000 0.0000 0.0000
# 2 51.4462 79.7651 39.6941 0.0000 0.0000 0.0000
# 3 35.6176 39.6941 120.1192 0.0000 0.0000 0.0000
# 4 0.0000 0.0000 0.0000 35.4573 0.0000 0.0000
# 5 0.0000 0.0000 0.0000 0.0000 25.8065 0.0000
# 6 0.0000 0.0000 0.0000 0.0000 0.0000 32.8242
#
#
#
# Elastic Compliance Matrix: (Units=1/GPa)
#
#
# Indices 1 2 3 4 5 6 
#
# 1 0.011664 -0.006944 -0.001164 0.000000 0.000000 0.000000
# 2 -0.006944 0.019138 -0.004265 0.000000 0.000000 0.000000
# 3 -0.001164 -0.004265 0.010080 0.000000 0.000000 0.000000
# 4 0.000000 0.000000 0.000000 0.028203 0.000000 0.000000
# 5 0.000000 0.000000 0.000000 0.000000 0.038750 0.000000
# 6 0.000000 0.000000 0.000000 0.000000 0.000000 0.030465
#
#
# Mechanical properties :
#
#
# Convention : Reuss Voigt Hill
#
# Bulk Modulus (GPa) = 61.97467 63.70135 62.83801
# Shear Modulus (GPa) = 29.68674 31.68681 30.68678
#
# Velocity S-wave (km/s) = 3.88859 4.01745 3.95354
# Velocity P-wave (km/s) = 7.19227 7.34619 7.26964
#
# Compressibility (1/GPa) = 0.01613562
#
# Stress axis : x y z
#
# Youngs Moduli (GPa) = 85.73113 52.25211 99.20922
#
# Poissons Ratio (x) = 0.36283 0.11548
# Poissons Ratio (y) = 0.59531 0.42315
# Poissons Ratio (z) = 0.09980 0.22287
#
# Static dielectric constant tensor:
#      x y z
#    x 3.548460 0.000000 0.000000 
#    y 0.000000 3.557840 0.000000 
#    z 0.000000 0.000000 3.747790 
# 
# 
# High freq. dielectric constant tensor:
#      x y z
#    x 1.766090 0.000000 0.000000 
#    y 0.000000 1.764160 0.000000 
#    z 0.000000 0.000000 1.773990 
# 
# From -- ./inp_files/28786.got.cif
#   From: 2010.03.12/outbox.cif.g09.slc.cpg/sg65_15_cif.got.tgz:28786.got - 2010.04.10 20:52:16.
