data_PCOD8273586
_publ_section_title
;
Structure prediction by ZEFSAII (Michael W. Deem and Ramdas Pophale) SiO2 
 PCOD8273586
Probable space group: C M M M
;
_chemical_formula_sum "Si O2"
_cell_formula_units_Z 56
_cell_length_a 24.076553
_cell_length_b 13.955624
_cell_length_c 8.603769
_cell_angle_alpha 90.000000
_cell_angle_beta 90.000000
_cell_angle_gamma 90.000000
_cell_volume 2890.894956
_symmetry_space_group_name_H-M "C M M M"
_symmetry_group_IT_number 65
_symmetry_cell_setting 'orthorhombic'
loop_
_space_group_symop_operation_xyz
x,y,z
-x,-y,z
x,-y,-z
-x,y,-z
-x,-y,-z
x,y,-z
-x,y,z
x,-y,z
1/2+x,1/2+y,z
1/2-x,1/2-y,z
1/2+x,1/2-y,-z
1/2-x,1/2+y,-z
1/2-x,1/2-y,-z
1/2+x,1/2+y,-z
1/2-x,1/2+y,z
1/2+x,1/2-y,z
loop_
_atom_site_type_symbol
_atom_site_label
_atom_site_fract_x
_atom_site_fract_y
_atom_site_fract_z
Si Si1 0.060493 0.500000 0.183340
Si Si2 0.435710 0.792023 0.817243
Si Si3 0.264254 0.110008 0.181638
Si Si4 0.331047 0.280454 0.680712
O O1 0.088381 0.398698 0.229809
O O2 0.000000 0.500000 0.261442
O O3 0.053158 0.500000 0.000000
O O4 0.500000 0.778976 0.765774
O O5 0.396166 0.717353 0.728142
O O6 0.430131 0.774826 0.000000
O O7 0.305154 0.177001 0.279535
O O8 0.200731 0.136324 0.224864
O O9 0.276476 0.000000 0.224576
O O10 0.274357 0.128827 0.000000
O O11 0.324767 0.301909 0.500000
#
# Coordination Sequence:
#
# PCOD8273586 Si02
#       4
#     8  16  16  16
#     4   7  12  24  43  67  93 127 171 211 244 281
#     4   9  17  31  51  74 103 140 181 218 251 299
#     4  10  21  38  59  78  99 134 181 225 259 302
#     4  11  22  34  52  80 113 141 168 210 266 324
#
# _framework density 19.371164
#
# number of rings (size 3 to 8) (size 9 to 14) (size 15 to 20)
#    0.000    2.429    0.000    6.857    2.000    2.857 
#    0.000    0.000    0.000    3.429    0.000    6.000 
#    0.000    0.000    0.000    0.000    0.000    0.000 
#
# Total GULP energy -346923.675277 kJ/mol
# GULP energy per Si atom -12390.131260 kJ/mol
# Density = 1.932707 g / cm^3
# Si number density = 19.371164 Si / 1000 Ang^3
#
#
#
# Elastic Constant Matrix: (Units=GPa)
#
#
# Indices 1 2 3 4 5 6 
#
# 1 69.3429 -5.1414 8.9154 0.0000 0.0000 0.0000
# 2 -5.1414 35.5934 8.6570 0.0000 0.0000 0.0000
# 3 8.9154 8.6570 47.7355 0.0000 0.0000 0.0000
# 4 0.0000 0.0000 0.0000 13.3353 0.0000 0.0000
# 5 0.0000 0.0000 0.0000 0.0000 20.3863 0.0000
# 6 0.0000 0.0000 0.0000 0.0000 0.0000 23.3214
#
#
#
# Elastic Compliance Matrix: (Units=1/GPa)
#
#
# Indices 1 2 3 4 5 6 
#
# 1 0.015075 0.002994 -0.003359 0.000000 0.000000 0.000000
# 2 0.002994 0.029986 -0.005997 0.000000 0.000000 0.000000
# 3 -0.003359 -0.005997 0.022664 0.000000 0.000000 0.000000
# 4 0.000000 0.000000 0.000000 0.074989 0.000000 0.000000
# 5 0.000000 0.000000 0.000000 0.000000 0.049052 0.000000
# 6 0.000000 0.000000 0.000000 0.000000 0.000000 0.042879
#
#
# Mechanical properties :
#
#
# Convention : Reuss Voigt Hill
#
# Bulk Modulus (GPa) = 18.18120 19.72598 18.95359
# Shear Modulus (GPa) = 18.81807 20.75801 19.78804
#
# Velocity S-wave (km/s) = 3.12019 3.27707 3.19959
# Velocity P-wave (km/s) = 4.73147 4.95219 4.84309
#
# Compressibility (1/GPa) = 0.05500187
#
# Stress axis : x y z
#
# Youngs Moduli (GPa) = 66.33534 33.34856 44.12347
#
# Poissons Ratio (x) = -0.09986 0.14819
# Poissons Ratio (y) = -0.19864 0.26463
# Poissons Ratio (z) = 0.22279 0.20000
#
# Static dielectric constant tensor:
#      x y z
#    x 3.649770 0.000000 0.000000 
#    y 0.000000 3.474170 0.000000 
#    z 0.000000 0.000000 3.288160 
# 
# 
# High freq. dielectric constant tensor:
#      x y z
#    x 1.757530 0.000000 0.000000 
#    y 0.000000 1.722260 0.000000 
#    z 0.000000 0.000000 1.734620 
# 
# From -- ./inp_files/13251.got.cif
#   From: 2010.03.12/outbox.cif.g09.slc.cpg/sg65_7_cif.got.tgz:13251.got - 2010.04.10 20:52:16.
