data_PCOD8273524
_publ_section_title
;
Structure prediction by ZEFSAII (Michael W. Deem and Ramdas Pophale) SiO2 
 PCOD8273524
Probable space group: C M M M
;
_chemical_formula_sum "Si O2"
_cell_formula_units_Z 80
_cell_length_a 18.133620
_cell_length_b 8.937034
_cell_length_c 25.247081
_cell_angle_alpha 90.000000
_cell_angle_beta 90.000000
_cell_angle_gamma 90.000000
_cell_volume 4091.561601
_symmetry_space_group_name_H-M "C M M M"
_symmetry_group_IT_number 65
_symmetry_cell_setting 'orthorhombic'
loop_
_space_group_symop_operation_xyz
x,y,z
-x,-y,z
x,-y,-z
-x,y,-z
-x,-y,-z
x,y,-z
-x,y,z
x,-y,z
1/2+x,1/2+y,z
1/2-x,1/2-y,z
1/2+x,1/2-y,-z
1/2-x,1/2+y,-z
1/2-x,1/2-y,-z
1/2+x,1/2+y,-z
1/2-x,1/2+y,z
1/2+x,1/2-y,z
loop_
_atom_site_type_symbol
_atom_site_label
_atom_site_fract_x
_atom_site_fract_y
_atom_site_fract_z
Si Si1 0.671945 0.174210 0.000000
Si Si2 0.915309 0.826080 0.211666
Si Si3 0.586080 0.326426 0.604700
Si Si4 0.670978 0.323950 0.500000
Si Si5 0.328697 0.823332 0.302383
Si Si6 0.914129 0.830683 0.090018
O O1 0.750000 0.250000 0.000000
O O2 0.628785 0.217442 0.947063
O O3 0.684181 0.000000 0.000000
O O4 0.860189 0.725802 0.245663
O O5 0.896541 0.791852 0.150768
O O6 0.000000 0.783505 0.224267
O O7 0.902228 0.000000 0.224911
O O8 0.500000 0.297931 0.596764
O O9 0.602586 0.500000 0.616949
O O10 0.626377 0.271772 0.551581
O O11 0.614102 0.227316 0.653034
O O12 0.681499 0.500000 0.500000
O O13 0.750000 0.250000 0.500000
O O14 0.250000 0.750000 0.313617
O O15 0.319203 0.000000 0.303516
O O16 0.000000 0.812212 0.078435
O O17 0.889306 0.000000 0.077150
#
# Coordination Sequence:
#
# PCOD8273524 Si02
#       6
#     8  16  16   8  16  16
#     4  12  25  38  55  81 115 153 191 234 283 334
#     4   9  19  38  63  88 114 147 186 229 281 339
#     4  10  21  39  62  86 115 151 191 235 283 338
#     4  10  21  37  59  87 117 152 191 232 282 336
#     4  12  25  39  57  83 116 153 192 235 284 337
#     4   9  19  38  63  87 113 147 186 229 280 339
#
# _framework density 19.552437000000001
#
# number of rings (size 3 to 8) (size 9 to 14) (size 15 to 20)
#    0.000    1.800    0.000    5.700    0.000   10.000 
#    0.000    2.000    0.000    1.800    0.000    0.000 
#    0.000    0.000    0.000    0.000    0.000    0.000 
#
# Total GULP energy -496186.840741 kJ/mol
# GULP energy per Si atom -12404.671019 kJ/mol
# Density = 1.950793 g / cm^3
# Si number density = 19.552437 Si / 1000 Ang^3
#
#
#
# Elastic Constant Matrix: (Units=GPa)
#
#
# Indices 1 2 3 4 5 6 
#
# 1 108.1057 54.2612 59.9321 0.0000 0.0000 0.0000
# 2 54.2612 115.0444 57.9466 0.0000 0.0000 0.0000
# 3 59.9321 57.9466 121.2948 0.0000 0.0000 0.0000
# 4 0.0000 0.0000 0.0000 13.8365 0.0000 0.0000
# 5 0.0000 0.0000 0.0000 0.0000 19.2063 0.0000
# 6 0.0000 0.0000 0.0000 0.0000 0.0000 36.1505
#
#
#
# Elastic Compliance Matrix: (Units=1/GPa)
#
#
# Indices 1 2 3 4 5 6 
#
# 1 0.014090 -0.004134 -0.004987 0.000000 0.000000 0.000000
# 2 -0.004134 0.012659 -0.004005 0.000000 0.000000 0.000000
# 3 -0.004987 -0.004005 0.012622 0.000000 0.000000 0.000000
# 4 0.000000 0.000000 0.000000 0.072273 0.000000 0.000000
# 5 0.000000 0.000000 0.000000 0.000000 0.052066 0.000000
# 6 0.000000 0.000000 0.000000 0.000000 0.000000 0.027662
#
#
# Mechanical properties :
#
#
# Convention : Reuss Voigt Hill
#
# Bulk Modulus (GPa) = 76.22476 76.52498 76.37487
# Shear Modulus (GPa) = 22.52280 25.32566 23.92423
#
# Velocity S-wave (km/s) = 3.39767 3.60289 3.50178
# Velocity P-wave (km/s) = 7.37982 7.51871 7.44959
#
# Compressibility (1/GPa) = 0.01311910
#
# Stress axis : x y z
#
# Youngs Moduli (GPa) = 70.97403 78.99275 79.22671
#
# Poissons Ratio (x) = 0.32652 0.39510
# Poissons Ratio (y) = 0.29337 0.31734
# Poissons Ratio (z) = 0.35395 0.31640
#
# Static dielectric constant tensor:
#      x y z
#    x 3.597350 0.000000 0.000000 
#    y 0.000000 3.473620 0.000000 
#    z 0.000000 0.000000 3.683600 
# 
# 
# High freq. dielectric constant tensor:
#      x y z
#    x 1.768970 0.000000 0.000000 
#    y 0.000000 1.751440 0.000000 
#    z 0.000000 0.000000 1.778000 
# 
# From -- ./inp_files/75129.got.cif
#   From: 2010.03.12/outbox.cif.g09.slc.cpg/sg65_38_cif.got.tgz:75129.got - 2010.04.10 20:52:16.
