data_PCOD8273040
_publ_section_title
;
Structure prediction by ZEFSAII (Michael W. Deem and Ramdas Pophale) SiO2 
 PCOD8273040
Probable space group: C M M M
;
_chemical_formula_sum "Si O2"
_cell_formula_units_Z 104
_cell_length_a 19.806905
_cell_length_b 9.124153
_cell_length_c 32.336968
_cell_angle_alpha 90.000000
_cell_angle_beta 90.000000
_cell_angle_gamma 90.000000
_cell_volume 5843.976686
_symmetry_space_group_name_H-M "C M M M"
_symmetry_group_IT_number 65
_symmetry_cell_setting 'orthorhombic'
loop_
_space_group_symop_operation_xyz
x,y,z
-x,-y,z
x,-y,-z
-x,y,-z
-x,-y,-z
x,y,-z
-x,y,z
x,-y,z
1/2+x,1/2+y,z
1/2-x,1/2-y,z
1/2+x,1/2-y,-z
1/2-x,1/2+y,-z
1/2-x,1/2-y,-z
1/2+x,1/2+y,-z
1/2-x,1/2+y,z
1/2+x,1/2-y,z
loop_
_atom_site_type_symbol
_atom_site_label
_atom_site_fract_x
_atom_site_fract_y
_atom_site_fract_z
Si Si1 0.817795 0.330400 0.951365
Si Si2 0.421121 0.329487 0.894799
Si Si3 0.922568 0.330151 0.811599
Si Si4 0.422753 0.171652 0.418958
Si Si5 0.682291 0.171840 0.649448
Si Si6 0.080269 0.165268 0.500000
Si Si7 0.317475 0.171541 0.256931
O O1 0.813158 0.500000 0.938522
O O2 0.750000 0.250000 0.936057
O O3 0.882045 0.255865 0.930453
O O4 0.827543 0.310915 0.000000
O O5 0.500000 0.302111 0.902672
O O6 0.402394 0.500000 0.896343
O O7 0.399256 0.266205 0.850442
O O8 0.910849 0.500000 0.822821
O O9 0.879185 0.280592 0.772137
O O10 0.000000 0.299233 0.799993
O O11 0.500000 0.216777 0.409989
O O12 0.379782 0.221072 0.379252
O O13 0.392946 0.253685 0.459054
O O14 0.416551 0.000000 0.427722
O O15 0.750000 0.250000 0.633768
O O16 0.664606 0.219895 0.696296
O O17 0.694977 0.000000 0.646426
O O18 0.000000 0.171134 0.500000
O O19 0.107907 0.000000 0.500000
O O20 0.250000 0.250000 0.241068
O O21 0.304137 0.000000 0.254339
#
# Coordination Sequence:
#
# PCOD8273040 Si02
#       7
#    16  16  16  16  16   8  16
#     4  10  21  37  57  80 106 136 171 212 256 302
#     4  10  21  36  54  77 106 139 173 210 253 301
#     4   9  18  33  52  73  99 131 167 208 250 292
#     4   9  17  30  49  71  94 122 157 196 237 282
#     4   9  18  32  49  70  97 127 158 195 240 289
#     4   9  17  29  46  69  96 123 153 193 238 283
#     4   9  18  32  50  72  97 127 162 199 242 291
#
# _framework density 17.796102000000001
#
# number of rings (size 3 to 8) (size 9 to 14) (size 15 to 20)
#    0.000    2.692    0.000    1.154    0.000    5.538 
#    0.000    6.538    0.000    0.000    0.000    8.615 
#    0.000    0.000    0.000    0.000    0.000    0.000 
#
# Total GULP energy -644909.052426 kJ/mol
# GULP energy per Si atom -12402.097162 kJ/mol
# Density = 1.775560 g / cm^3
# Si number density = 17.796102 Si / 1000 Ang^3
#
#
#
# Elastic Constant Matrix: (Units=GPa)
#
#
# Indices 1 2 3 4 5 6 
#
# 1 93.0036 49.9094 66.8246 0.0000 0.0000 0.0000
# 2 49.9094 80.3087 54.9275 0.0000 0.0000 0.0000
# 3 66.8246 54.9275 96.1362 0.0000 0.0000 0.0000
# 4 0.0000 0.0000 0.0000 25.5245 0.0000 0.0000
# 5 0.0000 0.0000 0.0000 0.0000 22.8437 0.0000
# 6 0.0000 0.0000 0.0000 0.0000 0.0000 30.1707
#
#
#
# Elastic Compliance Matrix: (Units=1/GPa)
#
#
# Indices 1 2 3 4 5 6 
#
# 1 0.022861 -0.005481 -0.012760 0.000000 0.000000 0.000000
# 2 -0.005481 0.021753 -0.008619 0.000000 0.000000 0.000000
# 3 -0.012760 -0.008619 0.024196 0.000000 0.000000 0.000000
# 4 0.000000 0.000000 0.000000 0.039178 0.000000 0.000000
# 5 0.000000 0.000000 0.000000 0.000000 0.043776 0.000000
# 6 0.000000 0.000000 0.000000 0.000000 0.000000 0.033145
#
#
# Mechanical properties :
#
#
# Convention : Reuss Voigt Hill
#
# Bulk Modulus (GPa) = 66.26256 68.08573 67.17415
# Shear Modulus (GPa) = 20.52059 22.22691 21.37375
#
# Velocity S-wave (km/s) = 3.39941 3.53792 3.46936
# Velocity P-wave (km/s) = 7.26107 7.41829 7.34010
#
# Compressibility (1/GPa) = 0.01509148
#
# Stress axis : x y z
#
# Youngs Moduli (GPa) = 43.74182 45.97068 41.32968
#
# Poissons Ratio (x) = 0.25195 0.52735
# Poissons Ratio (y) = 0.23973 0.35622
# Poissons Ratio (z) = 0.55813 0.39622
#
# Static dielectric constant tensor:
#      x y z
#    x 3.268640 0.000000 0.000000 
#    y 0.000000 3.334410 0.000000 
#    z 0.000000 0.000000 3.388150 
# 
# 
# High freq. dielectric constant tensor:
#      x y z
#    x 1.679360 0.000000 0.000000 
#    y 0.000000 1.689870 0.000000 
#    z 0.000000 0.000000 1.690960 
# 
# From -- ./inp_files/78163.got.cif
#   From: 2010.03.12/outbox.cif.g09.slc.cpg/sg65_40_cif.got.tgz:78163.got - 2010.04.10 20:52:16.
