data_PCOD8273174
_publ_section_title
;
Structure prediction by ZEFSAII (Michael W. Deem and Ramdas Pophale) SiO2 
 PCOD8273174
Probable space group: C M M M
;
_chemical_formula_sum "Si O2"
_cell_formula_units_Z 72
_cell_length_a 18.269316
_cell_length_b 8.922125
_cell_length_c 22.905210
_cell_angle_alpha 90.000000
_cell_angle_beta 90.000000
_cell_angle_gamma 90.000000
_cell_volume 3733.574907
_symmetry_space_group_name_H-M "C M M M"
_symmetry_group_IT_number 65
_symmetry_cell_setting 'orthorhombic'
loop_
_space_group_symop_operation_xyz
x,y,z
-x,-y,z
x,-y,-z
-x,y,-z
-x,-y,-z
x,y,-z
-x,y,z
x,-y,z
1/2+x,1/2+y,z
1/2-x,1/2-y,z
1/2+x,1/2-y,-z
1/2-x,1/2+y,-z
1/2-x,1/2-y,-z
1/2+x,1/2+y,-z
1/2-x,1/2+y,z
1/2+x,1/2-y,z
loop_
_atom_site_type_symbol
_atom_site_label
_atom_site_fract_x
_atom_site_fract_y
_atom_site_fract_z
Si Si1 0.674728 0.824032 0.433565
Si Si2 0.670666 0.177516 0.105210
Si Si3 0.916194 0.674613 0.220740
Si Si4 0.913500 0.168140 0.662637
Si Si5 0.413557 0.674538 0.000000
O O1 0.655962 0.777836 0.500000
O O2 0.750000 0.750000 0.412798
O O3 0.610675 0.765158 0.392553
O O4 0.682466 0.000000 0.426779
O O5 0.750000 0.250000 0.100725
O O6 0.634918 0.219694 0.166964
O O7 0.618657 0.246255 0.056583
O O8 0.676591 0.000000 0.096053
O O9 0.911263 0.500000 0.235026
O O10 0.884816 0.761958 0.276813
O O11 0.000000 0.720598 0.206399
O O12 0.000000 0.170449 0.662777
O O13 0.882493 0.000000 0.657190
O O14 0.392031 0.500000 0.000000
O O15 0.500000 0.698275 0.000000
#
# Coordination Sequence:
#
# PCOD8273174 Si02
#       5
#    16  16  16  16   8
#     4  10  21  37  57  80 108 144 185 230 280 334
#     4  11  23  39  60  86 117 151 188 231 278 328
#     4   9  19  37  59  81 108 146 190 233 278 329
#     4  10  21  36  56  83 114 148 185 228 277 329
#     4  11  24  41  62  87 115 149 188 231 280 333
#
# _framework density 19.284466999999999
#
# number of rings (size 3 to 8) (size 9 to 14) (size 15 to 20)
#    0.000    1.889    0.000    3.333    0.000    7.556 
#    0.000    6.667    0.000    0.000    0.000    0.000 
#    0.000    0.000    0.000    0.000    0.000    0.000 
#
# Total GULP energy -446548.991235 kJ/mol
# GULP energy per Si atom -12404.138645 kJ/mol
# Density = 1.924057 g / cm^3
# Si number density = 19.284467 Si / 1000 Ang^3
#
#
#
# Elastic Constant Matrix: (Units=GPa)
#
#
# Indices 1 2 3 4 5 6 
#
# 1 71.1416 42.0073 53.1173 0.0000 0.0000 0.0000
# 2 42.0073 102.2572 67.1218 0.0000 0.0000 0.0000
# 3 53.1173 67.1218 137.2789 0.0000 0.0000 0.0000
# 4 0.0000 0.0000 0.0000 -281.4904 0.0000 0.0000
# 5 0.0000 0.0000 0.0000 0.0000 3.8713 0.0000
# 6 0.0000 0.0000 0.0000 0.0000 0.0000 30.1675
#
#
#
# Elastic Compliance Matrix: (Units=1/GPa)
#
#
# Indices 1 2 3 4 5 6 
#
# 1 0.021328 -0.004926 -0.005844 0.000000 0.000000 0.000000
# 2 -0.004926 0.015539 -0.005692 0.000000 0.000000 0.000000
# 3 -0.005844 -0.005692 0.012329 0.000000 0.000000 0.000000
# 4 0.000000 0.000000 0.000000 -0.003553 0.000000 0.000000
# 5 0.000000 0.000000 0.000000 0.000000 0.258313 0.000000
# 6 0.000000 0.000000 0.000000 0.000000 0.000000 0.033148
#
#
# Mechanical properties :
#
#
# Convention : Reuss Voigt Hill
#
# Bulk Modulus (GPa) = 61.45239 70.57451 66.01345
# Shear Modulus (GPa) = 13.31727 -39.59490 -13.13882
#
# Velocity S-wave (km/s) = 2.63072 -4.53614 -2.61303
# Velocity P-wave (km/s) = 6.41584 3.03983 5.02014
#
# Compressibility (1/GPa) = 0.01627276
#
# Stress axis : x y z
#
# Youngs Moduli (GPa) = 46.88565 64.35518 81.11140
#
# Poissons Ratio (x) = 0.31698 0.47404
# Poissons Ratio (y) = 0.23094 0.46167
# Poissons Ratio (z) = 0.27401 0.36629
#
# Static dielectric constant tensor:
#      x y z
#    x 3.449080 0.000000 0.000000 
#    y 0.000000 3.736420 0.000000 
#    z 0.000000 0.000000 3.678670 
# 
# 
# High freq. dielectric constant tensor:
#      x y z
#    x 1.746740 0.000000 0.000000 
#    y 0.000000 1.763440 0.000000 
#    z 0.000000 0.000000 1.763280 
# 
# From -- ./inp_files/64349.got.cif
#   From: 2010.03.12/outbox.cif.g09.slc.cpg/sg65_33_cif.got.tgz:64349.got - 2010.04.10 20:52:16.
