data_PCOD8273421
_publ_section_title
;
Structure prediction by ZEFSAII (Michael W. Deem and Ramdas Pophale) SiO2 
 PCOD8273421
Probable space group: C M M M
;
_chemical_formula_sum "Si O2"
_cell_formula_units_Z 104
_cell_length_a 25.713884
_cell_length_b 23.899513
_cell_length_c 9.120348
_cell_angle_alpha 90.000000
_cell_angle_beta 90.000000
_cell_angle_gamma 90.000000
_cell_volume 5604.903524
_symmetry_space_group_name_H-M "C M M M"
_symmetry_group_IT_number 65
_symmetry_cell_setting 'orthorhombic'
loop_
_space_group_symop_operation_xyz
x,y,z
-x,-y,z
x,-y,-z
-x,y,-z
-x,-y,-z
x,y,-z
-x,y,z
x,-y,z
1/2+x,1/2+y,z
1/2-x,1/2-y,z
1/2+x,1/2-y,-z
1/2-x,1/2+y,-z
1/2-x,1/2-y,-z
1/2+x,1/2+y,-z
1/2-x,1/2+y,z
1/2+x,1/2-y,z
loop_
_atom_site_type_symbol
_atom_site_label
_atom_site_fract_x
_atom_site_fract_y
_atom_site_fract_z
Si Si1 0.500000 0.566629 0.835349
Si Si2 0.631963 0.064670 0.828789
Si Si3 0.400222 0.437063 0.668406
Si Si4 0.219705 0.648836 0.834783
Si Si5 0.825070 0.160591 0.330484
Si Si6 0.438989 0.149706 0.671212
Si Si7 0.370301 0.763315 0.168262
O O1 0.500000 0.500000 0.825634
O O2 0.551706 0.589499 0.757302
O O3 0.500000 0.589240 0.000000
O O4 0.687429 0.093147 0.792464
O O5 0.586273 0.093476 0.736700
O O6 0.635263 0.000000 0.784141
O O7 0.618987 0.073246 0.000000
O O8 0.417356 0.436588 0.500000
O O9 0.387052 0.500000 0.721394
O O10 0.349043 0.400605 0.695443
O O11 0.266178 0.657909 0.723097
O O12 0.182766 0.702166 0.820499
O O13 0.241877 0.644138 0.000000
O O14 0.825174 0.178203 0.500000
O O15 0.860612 0.203848 0.242386
O O16 0.425757 0.153076 0.500000
O O17 0.500000 0.146796 0.701069
O O18 0.416690 0.204849 0.749285
O O19 0.386938 0.754735 0.000000
#
# Coordination Sequence:
#
# PCOD8273421 Si02
#       7
#     8  16  16  16  16  16  16
#     4   9  17  31  53  77  97 123 165 211 250 293
#     4   9  19  36  57  82 113 151 192 228 269 326
#     4   9  19  36  54  73 103 141 173 205 256 318
#     4   9  19  35  54  76 106 143 180 222 269 317
#     4  11  22  34  53  82 109 138 179 224 269 322
#     4  10  21  37  57  82 113 146 181 229 283 329
#     4  10  21  38  58  78 104 141 183 224 271 328
#
# _framework density 18.555181999999999
#
# number of rings (size 3 to 8) (size 9 to 14) (size 15 to 20)
#    0.000    2.385    0.000    3.000    0.000    9.538 
#    1.385    1.538    0.000    0.000    0.000    0.000 
#    0.000    0.000    0.000    0.000    0.000    0.000 
#
# Total GULP energy -644927.159570 kJ/mol
# GULP energy per Si atom -12402.445376 kJ/mol
# Density = 1.851295 g / cm^3
# Si number density = 18.555182 Si / 1000 Ang^3
#
#
#
# Elastic Constant Matrix: (Units=GPa)
#
#
# Indices 1 2 3 4 5 6 
#
# 1 55.9340 34.8182 40.3541 0.0000 0.0000 0.0000
# 2 34.8182 106.6742 50.1009 0.0000 0.0000 0.0000
# 3 40.3541 50.1009 104.2134 0.0000 0.0000 0.0000
# 4 0.0000 0.0000 0.0000 28.4525 0.0000 0.0000
# 5 0.0000 0.0000 0.0000 0.0000 25.7715 0.0000
# 6 0.0000 0.0000 0.0000 0.0000 0.0000 14.9312
#
#
#
# Elastic Compliance Matrix: (Units=1/GPa)
#
#
# Indices 1 2 3 4 5 6 
#
# 1 0.026717 -0.004988 -0.007948 0.000000 0.000000 0.000000
# 2 -0.004988 0.013039 -0.004337 0.000000 0.000000 0.000000
# 3 -0.007948 -0.004337 0.014758 0.000000 0.000000 0.000000
# 4 0.000000 0.000000 0.000000 0.035146 0.000000 0.000000
# 5 0.000000 0.000000 0.000000 0.000000 0.038803 0.000000
# 6 0.000000 0.000000 0.000000 0.000000 0.000000 0.066974
#
#
# Mechanical properties :
#
#
# Convention : Reuss Voigt Hill
#
# Bulk Modulus (GPa) = 50.07662 57.48532 53.78097
# Shear Modulus (GPa) = 21.12921 23.26759 22.19840
#
# Velocity S-wave (km/s) = 3.37816 3.54498 3.46257
# Velocity P-wave (km/s) = 6.50096 6.91403 6.71067
#
# Compressibility (1/GPa) = 0.01996940
#
# Stress axis : x y z
#
# Youngs Moduli (GPa) = 37.42957 76.69071 67.75782
#
# Poissons Ratio (x) = 0.38250 0.53852
# Poissons Ratio (y) = 0.18668 0.29389
# Poissons Ratio (z) = 0.29748 0.33264
#
# Static dielectric constant tensor:
#      x y z
#    x 3.281220 0.000000 0.000000 
#    y 0.000000 3.481970 0.000000 
#    z 0.000000 0.000000 3.510390 
# 
# 
# High freq. dielectric constant tensor:
#      x y z
#    x 1.715360 0.000000 0.000000 
#    y 0.000000 1.716150 0.000000 
#    z 0.000000 0.000000 1.727820 
# 
# From -- ./inp_files/16515.got.cif
#   From: 2010.03.12/outbox.cif.g09.slc.cpg/sg65_9_cif.got.tgz:16515.got - 2010.04.10 20:52:16.
