data_PCOD8273505
_publ_section_title
;
Structure prediction by ZEFSAII (Michael W. Deem and Ramdas Pophale) SiO2 
 PCOD8273505
Probable space group: C M M M
;
_chemical_formula_sum "Si O2"
_cell_formula_units_Z 64
_cell_length_a 12.532075
_cell_length_b 14.383962
_cell_length_c 17.756017
_cell_angle_alpha 90.000000
_cell_angle_beta 90.000000
_cell_angle_gamma 90.000000
_cell_volume 3200.715438
_symmetry_space_group_name_H-M "C M M M"
_symmetry_group_IT_number 65
_symmetry_cell_setting 'orthorhombic'
loop_
_space_group_symop_operation_xyz
x,y,z
-x,-y,z
x,-y,-z
-x,y,-z
-x,-y,-z
x,y,-z
-x,y,z
x,-y,z
1/2+x,1/2+y,z
1/2-x,1/2-y,z
1/2+x,1/2-y,-z
1/2-x,1/2+y,-z
1/2-x,1/2-y,-z
1/2+x,1/2+y,-z
1/2-x,1/2+y,z
1/2+x,1/2-y,z
loop_
_atom_site_type_symbol
_atom_site_label
_atom_site_fract_x
_atom_site_fract_y
_atom_site_fract_z
Si Si1 0.750000 0.250000 0.186601
Si Si2 0.125453 0.895389 0.913969
Si Si3 0.000000 0.891979 0.417435
Si Si4 0.376775 0.103147 0.285641
Si Si5 0.727677 0.643739 0.583858
O O1 0.820012 0.182443 0.135997
O O2 0.674193 0.184901 0.236387
O O3 0.000000 0.881794 0.906474
O O4 0.157170 0.000000 0.887494
O O5 0.162068 0.881221 0.000000
O O6 0.889566 0.864349 0.375755
O O7 0.000000 0.842862 0.500000
O O8 0.000000 0.000000 0.427166
O O9 0.500000 0.128734 0.299841
O O10 0.316796 0.095147 0.365547
O O11 0.367752 0.000000 0.247631
O O12 0.726473 0.597223 0.500000
O O13 0.750000 0.750000 0.575309
#
# Coordination Sequence:
#
# PCOD8273505 Si02
#       5
#     8  16   8  16  16
#     4  12  21  38  61  86 116 162 196 228 281 350
#     4   9  19  37  62  92 121 148 187 238 283 330
#     4   9  18  34  56  80 105 133 176 241 303 347
#     4  11  25  41  56  82 120 158 197 243 292 344
#     4  10  21  37  59  83 108 144 195 249 299 347
#
# _framework density 19.995529999999999
#
# number of rings (size 3 to 8) (size 9 to 14) (size 15 to 20)
#    0.000    1.875    1.250    3.375    1.750    2.000 
#    2.250    1.250    0.000    0.000    0.000   10.500 
#    0.000    0.000    0.000    0.000    0.000    0.000 
#
# Total GULP energy -396538.916706 kJ/mol
# GULP energy per Si atom -12391.841147 kJ/mol
# Density = 1.995002 g / cm^3
# Si number density = 19.995530 Si / 1000 Ang^3
#
#
#
# Elastic Constant Matrix: (Units=GPa)
#
#
# Indices 1 2 3 4 5 6 
#
# 1 162.7095 71.5628 63.3367 0.0000 0.0000 0.0000
# 2 71.5628 132.5107 55.3191 0.0000 0.0000 0.0000
# 3 63.3367 55.3191 90.6066 0.0000 0.0000 0.0000
# 4 0.0000 0.0000 0.0000 22.5879 0.0000 0.0000
# 5 0.0000 0.0000 0.0000 0.0000 54.4280 0.0000
# 6 0.0000 0.0000 0.0000 0.0000 0.0000 37.2620
#
#
#
# Elastic Compliance Matrix: (Units=1/GPa)
#
#
# Indices 1 2 3 4 5 6 
#
# 1 0.009304 -0.003100 -0.004612 0.000000 0.000000 0.000000
# 2 -0.003100 0.011161 -0.004647 0.000000 0.000000 0.000000
# 3 -0.004612 -0.004647 0.017098 0.000000 0.000000 0.000000
# 4 0.000000 0.000000 0.000000 0.044271 0.000000 0.000000
# 5 0.000000 0.000000 0.000000 0.000000 0.018373 0.000000
# 6 0.000000 0.000000 0.000000 0.000000 0.000000 0.026837
#
#
# Mechanical properties :
#
#
# Convention : Reuss Voigt Hill
#
# Bulk Modulus (GPa) = 77.84704 85.14044 81.49374
# Shear Modulus (GPa) = 32.04252 35.89615 33.96933
#
# Velocity S-wave (km/s) = 4.00745 4.24159 4.12618
# Velocity P-wave (km/s) = 7.77365 8.16457 7.97151
#
# Compressibility (1/GPa) = 0.01284570
#
# Stress axis : x y z
#
# Youngs Moduli (GPa) = 107.47725 89.60067 58.48753
#
# Poissons Ratio (x) = 0.27773 0.26972
# Poissons Ratio (y) = 0.33314 0.27181
# Poissons Ratio (z) = 0.49563 0.41640
#
# Static dielectric constant tensor:
#      x y z
#    x 3.677090 0.000000 0.000000 
#    y 0.000000 3.801410 0.000000 
#    z 0.000000 0.000000 3.651920 
# 
# 
# High freq. dielectric constant tensor:
#      x y z
#    x 1.789870 0.000000 0.000000 
#    y 0.000000 1.798930 0.000000 
#    z 0.000000 0.000000 1.753870 
# 
# From -- ./inp_files/50929.got.cif
#   From: 2010.03.12/outbox.cif.g09.slc.cpg/sg65_26_cif.got.tgz:50929.got - 2010.04.10 20:52:16.
