data_PCOD8273521
_publ_section_title
;
Structure prediction by ZEFSAII (Michael W. Deem and Ramdas Pophale) SiO2 
 PCOD8273521
Probable space group: C M M M
;
_chemical_formula_sum "Si O2"
_cell_formula_units_Z 96
_cell_length_a 27.360581
_cell_length_b 19.837113
_cell_length_c 9.018009
_cell_angle_alpha 90.000000
_cell_angle_beta 90.000000
_cell_angle_gamma 90.000000
_cell_volume 4894.568907
_symmetry_space_group_name_H-M "C M M M"
_symmetry_group_IT_number 65
_symmetry_cell_setting 'orthorhombic'
loop_
_space_group_symop_operation_xyz
x,y,z
-x,-y,z
x,-y,-z
-x,y,-z
-x,-y,-z
x,y,-z
-x,y,z
x,-y,z
1/2+x,1/2+y,z
1/2-x,1/2-y,z
1/2+x,1/2-y,-z
1/2-x,1/2+y,-z
1/2-x,1/2-y,-z
1/2+x,1/2+y,-z
1/2-x,1/2+y,z
1/2+x,1/2-y,z
loop_
_atom_site_type_symbol
_atom_site_label
_atom_site_fract_x
_atom_site_fract_y
_atom_site_fract_z
Si Si1 0.227647 0.077395 0.673531
Si Si2 0.942782 0.821341 0.671203
Si Si3 0.896463 0.696895 0.828247
Si Si4 0.372370 0.421645 0.172055
Si Si5 0.216029 0.688797 0.828443
Si Si6 0.056535 0.577409 0.670460
O O1 0.221064 0.088407 0.500000
O O2 0.177886 0.101041 0.751978
O O3 0.271978 0.122408 0.733498
O O4 0.239789 0.000000 0.712286
O O5 0.927701 0.825129 0.500000
O O6 0.927703 0.748992 0.733382
O O7 0.917028 0.881276 0.758988
O O8 0.000000 0.831246 0.693834
O O9 0.839493 0.710122 0.798899
O O10 0.909986 0.621740 0.777561
O O11 0.909585 0.705963 0.000000
O O12 0.382951 0.500000 0.199557
O O13 0.367997 0.403440 0.000000
O O14 0.250000 0.750000 0.774344
O O15 0.225383 0.671695 0.000000
O O16 0.068431 0.594652 0.500000
O O17 0.069065 0.500000 0.704592
O O18 0.000000 0.592407 0.704112
#
# Coordination Sequence:
#
# PCOD8273521 Si02
#       6
#    16  16  16  16  16  16
#     4  10  21  37  59  87 116 148 188 231 277 333
#     4  11  24  40  59  84 115 151 190 234 283 335
#     4  11  23  37  57  85 114 146 188 238 287 337
#     4  10  21  38  61  87 116 151 188 229 280 335
#     4  10  22  39  57  79 110 148 189 232 279 332
#     4   9  19  37  59  81 109 148 189 227 274 336
#
# _framework density 19.613575999999998
#
# number of rings (size 3 to 8) (size 9 to 14) (size 15 to 20)
#    0.000    1.833    0.000    4.000    0.000   10.000 
#    0.000    5.833    0.000    0.000    0.000    0.000 
#    0.000    0.000    0.000    0.000    0.000    0.000 
#
# Total GULP energy -595520.595332 kJ/mol
# GULP energy per Si atom -12406.679069 kJ/mol
# Density = 1.956894 g / cm^3
# Si number density = 19.613576 Si / 1000 Ang^3
#
#
#
# Elastic Constant Matrix: (Units=GPa)
#
#
# Indices 1 2 3 4 5 6 
#
# 1 32.9091 12.9721 26.3597 0.0000 0.0000 0.0000
# 2 12.9721 70.9605 36.2977 0.0000 0.0000 0.0000
# 3 26.3597 36.2977 86.6956 0.0000 0.0000 0.0000
# 4 0.0000 0.0000 0.0000 37.6153 0.0000 0.0000
# 5 0.0000 0.0000 0.0000 0.0000 36.2219 0.0000
# 6 0.0000 0.0000 0.0000 0.0000 0.0000 39.3635
#
#
#
# Elastic Compliance Matrix: (Units=1/GPa)
#
#
# Indices 1 2 3 4 5 6 
#
# 1 0.040278 -0.001398 -0.011661 0.000000 0.000000 0.000000
# 2 -0.001398 0.017981 -0.007103 0.000000 0.000000 0.000000
# 3 -0.011661 -0.007103 0.018054 0.000000 0.000000 0.000000
# 4 0.000000 0.000000 0.000000 0.026585 0.000000 0.000000
# 5 0.000000 0.000000 0.000000 0.000000 0.027608 0.000000
# 6 0.000000 0.000000 0.000000 0.000000 0.000000 0.025404
#
#
# Mechanical properties :
#
#
# Convention : Reuss Voigt Hill
#
# Bulk Modulus (GPa) = 27.78666 37.98044 32.88355
# Shear Modulus (GPa) = 24.01164 30.30251 27.15708
#
# Velocity S-wave (km/s) = 3.50270 3.93488 3.72507
# Velocity P-wave (km/s) = 5.52778 6.32857 5.94168
#
# Compressibility (1/GPa) = 0.03598849
#
# Stress axis : x y z
#
# Youngs Moduli (GPa) = 24.82727 55.61288 55.38885
#
# Poissons Ratio (x) = 0.07776 0.64590
# Poissons Ratio (y) = 0.03471 0.39345
# Poissons Ratio (z) = 0.28951 0.39504
#
# Static dielectric constant tensor:
#      x y z
#    x 3.504140 0.000000 0.000000 
#    y 0.000000 3.582550 0.000000 
#    z 0.000000 0.000000 3.625410 
# 
# 
# High freq. dielectric constant tensor:
#      x y z
#    x 1.763860 0.000000 0.000000 
#    y 0.000000 1.773730 0.000000 
#    z 0.000000 0.000000 1.771710 
# 
# From -- ./inp_files/12305.got.cif
#   From: 2010.03.12/outbox.cif.g09.slc.cpg/sg65_7_cif.got.tgz:12305.got - 2010.04.10 20:52:16.
