data_PCOD8273186
_publ_section_title
;
Structure prediction by ZEFSAII (Michael W. Deem and Ramdas Pophale) SiO2 
 PCOD8273186
Probable space group: C M M M
;
_chemical_formula_sum "Si O2"
_cell_formula_units_Z 112
_cell_length_a 13.859083
_cell_length_b 14.703833
_cell_length_c 27.567648
_cell_angle_alpha 90.000000
_cell_angle_beta 90.000000
_cell_angle_gamma 90.000000
_cell_volume 5617.780575
_symmetry_space_group_name_H-M "C M M M"
_symmetry_group_IT_number 65
_symmetry_cell_setting 'orthorhombic'
loop_
_space_group_symop_operation_xyz
x,y,z
-x,-y,z
x,-y,-z
-x,y,-z
-x,-y,-z
x,y,-z
-x,y,z
x,-y,z
1/2+x,1/2+y,z
1/2-x,1/2-y,z
1/2+x,1/2-y,-z
1/2-x,1/2+y,-z
1/2-x,1/2-y,-z
1/2+x,1/2+y,-z
1/2-x,1/2+y,z
1/2+x,1/2-y,z
loop_
_atom_site_type_symbol
_atom_site_label
_atom_site_fract_x
_atom_site_fract_y
_atom_site_fract_z
Si Si1 0.393977 0.100550 0.879102
Si Si2 0.776891 0.109675 0.353394
Si Si3 0.268761 0.355166 0.946538
Si Si4 0.386041 0.400392 0.144333
Si Si5 0.614071 0.768503 0.797831
Si Si6 0.885668 0.728764 0.688468
Si Si7 0.606940 0.607049 0.446487
O O1 0.500000 0.139284 0.892963
O O2 0.328713 0.098982 0.926808
O O3 0.344077 0.159171 0.836399
O O4 0.403581 0.000000 0.857887
O O5 0.854591 0.166361 0.321456
O O6 0.670946 0.154164 0.344604
O O7 0.808950 0.132201 0.408569
O O8 0.778472 0.000000 0.342361
O O9 0.250000 0.250000 0.950609
O O10 0.356533 0.373920 0.910212
O O11 0.292432 0.395310 0.000000
O O12 0.500000 0.401379 0.144971
O O13 0.343832 0.500000 0.157415
O O14 0.347076 0.330044 0.184862
O O15 0.500000 0.772184 0.799388
O O16 0.647621 0.791240 0.743604
O O17 0.000000 0.717111 0.680066
O O18 0.635050 0.645115 0.500000
O O19 0.500000 0.645352 0.431285
O O20 0.597889 0.500000 0.448963
#
# Coordination Sequence:
#
# PCOD8273186 Si02
#       7
#    16  16  16  16  16  16  16
#     4  10  21  38  60  81 102 134 177 223 266 312
#     4  10  21  36  56  85 118 151 194 244 290 340
#     4  11  23  37  56  80 108 141 171 207 265 333
#     4  10  21  38  60  82 105 137 178 224 271 320
#     4   9  19  38  58  78 108 142 182 225 266 323
#     4  10  22  38  57  82 117 157 193 235 290 350
#     4   8  14  28  54  85 115 152 198 245 292 341
#
# _framework density 19.936699000000001
#
# number of rings (size 3 to 8) (size 9 to 14) (size 15 to 20)
#    0.000    2.286    1.429    1.286    0.000    6.286 
#    0.000    7.143    0.000    1.286    0.000    2.000 
#    0.000    0.000    0.000    0.000    0.000    0.000 
#
# Total GULP energy -693800.920448 kJ/mol
# GULP energy per Si atom -12389.302151 kJ/mol
# Density = 1.989132 g / cm^3
# Si number density = 19.936699 Si / 1000 Ang^3
#
#
#
# Elastic Constant Matrix: (Units=GPa)
#
#
# Indices 1 2 3 4 5 6 
#
# 1 83.8917 18.3713 33.9916 0.0000 0.0000 0.0000
# 2 18.3713 110.4331 38.3943 0.0000 0.0000 0.0000
# 3 33.9916 38.3943 124.0916 0.0000 0.0000 0.0000
# 4 0.0000 0.0000 0.0000 13.9598 0.0000 0.0000
# 5 0.0000 0.0000 0.0000 0.0000 28.1535 0.0000
# 6 0.0000 0.0000 0.0000 0.0000 0.0000 22.8057
#
#
#
# Elastic Compliance Matrix: (Units=1/GPa)
#
#
# Indices 1 2 3 4 5 6 
#
# 1 0.013522 -0.001078 -0.003371 0.000000 0.000000 0.000000
# 2 -0.001078 0.010233 -0.002871 0.000000 0.000000 0.000000
# 3 -0.003371 -0.002871 0.009870 0.000000 0.000000 0.000000
# 4 0.000000 0.000000 0.000000 0.071634 0.000000 0.000000
# 5 0.000000 0.000000 0.000000 0.000000 0.035520 0.000000
# 6 0.000000 0.000000 0.000000 0.000000 0.000000 0.043849
#
#
# Mechanical properties :
#
#
# Convention : Reuss Voigt Hill
#
# Bulk Modulus (GPa) = 52.66877 55.54785 54.10831
# Shear Modulus (GPa) = 24.31978 28.16108 26.24043
#
# Velocity S-wave (km/s) = 3.49642 3.76243 3.63187
# Velocity P-wave (km/s) = 6.54028 6.84084 6.69225
#
# Compressibility (1/GPa) = 0.01898659
#
# Stress axis : x y z
#
# Youngs Moduli (GPa) = 73.95472 97.72671 101.31644
#
# Poissons Ratio (x) = 0.10531 0.34149
# Poissons Ratio (y) = 0.07969 0.29086
# Poissons Ratio (z) = 0.24927 0.28056
#
# Static dielectric constant tensor:
#      x y z
#    x 9.026000 0.000000 0.000000 
#    y 0.000000 3.764890 0.000000 
#    z 0.000000 0.000000 4.062560 
# 
# 
# High freq. dielectric constant tensor:
#      x y z
#    x 1.781050 0.000000 0.000000 
#    y 0.000000 1.771830 0.000000 
#    z 0.000000 0.000000 1.769690 
# 
# From -- ./inp_files/74861.got.cif
#   From: 2010.03.12/outbox.cif.g09.slc.cpg/sg65_38_cif.got.tgz:74861.got - 2010.04.10 20:52:16.
