data_PCOD8273647
_publ_section_title
;
Structure prediction by ZEFSAII (Michael W. Deem and Ramdas Pophale) SiO2 
 PCOD8273647
Probable space group: C M M M
;
_chemical_formula_sum "Si O2"
_cell_formula_units_Z 104
_cell_length_a 20.570601
_cell_length_b 8.759865
_cell_length_c 30.226843
_cell_angle_alpha 90.000000
_cell_angle_beta 90.000000
_cell_angle_gamma 90.000000
_cell_volume 5446.746762
_symmetry_space_group_name_H-M "C M M M"
_symmetry_group_IT_number 65
_symmetry_cell_setting 'orthorhombic'
loop_
_space_group_symop_operation_xyz
x,y,z
-x,-y,z
x,-y,-z
-x,y,-z
-x,-y,-z
x,y,-z
-x,y,z
x,-y,z
1/2+x,1/2+y,z
1/2-x,1/2-y,z
1/2+x,1/2-y,-z
1/2-x,1/2+y,-z
1/2-x,1/2-y,-z
1/2+x,1/2+y,-z
1/2-x,1/2+y,z
1/2+x,1/2-y,z
loop_
_atom_site_type_symbol
_atom_site_label
_atom_site_fract_x
_atom_site_fract_y
_atom_site_fract_z
Si Si1 0.000000 0.829781 0.552088
Si Si2 0.925670 0.682286 0.307298
Si Si3 0.315217 0.679817 0.633377
Si Si4 0.072990 0.682966 0.116466
Si Si5 0.682494 0.819397 0.050281
Si Si6 0.423321 0.834031 0.211596
Si Si7 0.633110 0.820233 0.449156
O O1 0.062273 0.733889 0.567002
O O2 0.000000 0.847374 0.500000
O O3 0.000000 0.000000 0.573563
O O4 0.918235 0.500000 0.308291
O O5 0.879048 0.758730 0.342633
O O6 0.905085 0.747423 0.258193
O O7 0.000000 0.728802 0.318537
O O8 0.312412 0.500000 0.636720
O O9 0.250000 0.750000 0.655221
O O10 0.316000 0.733246 0.582066
O O11 0.073708 0.500000 0.118600
O O12 0.123352 0.744831 0.079978
O O13 0.094830 0.749635 0.165087
O O14 0.000000 0.738970 0.104086
O O15 0.750000 0.750000 0.067842
O O16 0.687195 0.000000 0.053806
O O17 0.669198 0.766514 0.000000
O O18 0.500000 0.857907 0.211585
O O19 0.389222 0.000000 0.211548
O O20 0.647097 0.774573 0.500000
O O21 0.638622 0.000000 0.441942
#
# Coordination Sequence:
#
# PCOD8273647 Si02
#       7
#     8  16  16  16  16  16  16
#     4   9  17  31  53  83 115 143 175 217 259 297
#     4   9  18  35  60  85 108 137 174 213 258 317
#     4  12  26  42  59  80 111 145 180 220 266 317
#     4   8  13  23  43  71  98 123 160 211 258 299
#     4   9  17  28  42  62  92 131 170 209 254 303
#     4   7  11  23  46  75 102 128 160 202 253 307
#     4  10  21  38  60  84 111 144 180 218 262 311
#
# _framework density 19.093966000000002
#
# number of rings (size 3 to 8) (size 9 to 14) (size 15 to 20)
#    0.000    2.846    0.000    3.923    1.077    2.769 
#    0.000    2.308    0.000    3.231    0.000    4.308 
#    0.000    0.000    0.000    0.000    0.000    0.000 
#
# Total GULP energy -644285.834369 kJ/mol
# GULP energy per Si atom -12390.112199 kJ/mol
# Density = 1.905051 g / cm^3
# Si number density = 19.093966 Si / 1000 Ang^3
#
#
#
# Elastic Constant Matrix: (Units=GPa)
#
#
# Indices 1 2 3 4 5 6 
#
# 1 114.6721 35.6934 70.0643 0.0000 0.0000 0.0000
# 2 35.6934 56.5105 31.2523 0.0000 0.0000 0.0000
# 3 70.0643 31.2523 120.9835 0.0000 0.0000 0.0000
# 4 0.0000 0.0000 0.0000 10.7815 0.0000 0.0000
# 5 0.0000 0.0000 0.0000 0.0000 14.1481 0.0000
# 6 0.0000 0.0000 0.0000 0.0000 0.0000 26.1128
#
#
#
# Elastic Compliance Matrix: (Units=1/GPa)
#
#
# Indices 1 2 3 4 5 6 
#
# 1 0.014770 -0.005365 -0.007168 0.000000 0.000000 0.000000
# 2 -0.005365 0.022594 -0.002729 0.000000 0.000000 0.000000
# 3 -0.007168 -0.002729 0.013122 0.000000 0.000000 0.000000
# 4 0.000000 0.000000 0.000000 0.092752 0.000000 0.000000
# 5 0.000000 0.000000 0.000000 0.000000 0.070681 0.000000
# 6 0.000000 0.000000 0.000000 0.000000 0.000000 0.038295
#
#
# Mechanical properties :
#
#
# Convention : Reuss Voigt Hill
#
# Bulk Modulus (GPa) = 50.09725 62.90957 56.50341
# Shear Modulus (GPa) = 17.27764 20.55223 18.91494
#
# Velocity S-wave (km/s) = 3.01138 3.28437 3.15083
# Velocity P-wave (km/s) = 6.19559 6.88489 6.54931
#
# Compressibility (1/GPa) = 0.01996117
#
# Stress axis : x y z
#
# Youngs Moduli (GPa) = 67.70534 44.25959 76.21012
#
# Poissons Ratio (x) = 0.23745 0.54625
# Poissons Ratio (y) = 0.36324 0.20801
# Poissons Ratio (z) = 0.48529 0.12080
#
# Static dielectric constant tensor:
#      x y z
#    x 3.510460 0.000000 0.000000 
#    y 0.000000 3.114660 0.000000 
#    z 0.000000 0.000000 3.948240 
# 
# 
# High freq. dielectric constant tensor:
#      x y z
#    x 1.726480 0.000000 0.000000 
#    y 0.000000 1.703690 0.000000 
#    z 0.000000 0.000000 1.750020 
# 
# From -- ./inp_files/78235.got.cif
#   From: 2010.03.12/outbox.cif.g09.slc.cpg/sg65_40_cif.got.tgz:78235.got - 2010.04.10 20:52:16.
