data_PCOD8273270
_publ_section_title
;
Structure prediction by ZEFSAII (Michael W. Deem and Ramdas Pophale) SiO2 
 PCOD8273270
Probable space group: C M M M
;
_chemical_formula_sum "Si O2"
_cell_formula_units_Z 104
_cell_length_a 27.366421
_cell_length_b 23.585582
_cell_length_c 8.691076
_cell_angle_alpha 90.000000
_cell_angle_beta 90.000000
_cell_angle_gamma 90.000000
_cell_volume 5609.680787
_symmetry_space_group_name_H-M "C M M M"
_symmetry_group_IT_number 65
_symmetry_cell_setting 'orthorhombic'
loop_
_space_group_symop_operation_xyz
x,y,z
-x,-y,z
x,-y,-z
-x,y,-z
-x,-y,-z
x,y,-z
-x,y,z
x,-y,z
1/2+x,1/2+y,z
1/2-x,1/2-y,z
1/2+x,1/2-y,-z
1/2-x,1/2+y,-z
1/2-x,1/2-y,-z
1/2+x,1/2+y,-z
1/2-x,1/2+y,z
1/2+x,1/2-y,z
loop_
_atom_site_type_symbol
_atom_site_label
_atom_site_fract_x
_atom_site_fract_y
_atom_site_fract_z
Si Si1 0.444143 0.182108 0.316958
Si Si2 0.386676 0.712638 0.323045
Si Si3 0.705639 0.500000 0.316462
Si Si4 0.143914 0.613249 0.822472
Si Si5 0.196842 0.274658 0.174660
Si Si6 0.553032 0.500000 0.317332
Si Si7 0.371392 0.410214 0.683220
Si Si8 0.315606 0.000000 0.318236
O O1 0.437681 0.177619 0.500000
O O2 0.500000 0.169545 0.267078
O O3 0.429886 0.246196 0.260116
O O4 0.407663 0.137333 0.239323
O O5 0.397044 0.700935 0.500000
O O6 0.335999 0.744659 0.300978
O O7 0.379970 0.651643 0.240253
O O8 0.705703 0.500000 0.500000
O O9 0.677300 0.443176 0.257553
O O10 0.760464 0.500000 0.249216
O O11 0.189062 0.657719 0.799639
O O12 0.155989 0.555768 0.734367
O O13 0.136628 0.598436 0.000000
O O14 0.250000 0.250000 0.207625
O O15 0.180659 0.259623 0.000000
O O16 0.500000 0.500000 0.239486
O O17 0.549310 0.500000 0.500000
O O18 0.581320 0.444485 0.261912
O O19 0.367718 0.406188 0.500000
O O20 0.313366 0.000000 0.500000
#
# Coordination Sequence:
#
# PCOD8273270 Si02
#       8
#    16  16   8  16  16   8  16   8
#     4   9  18  34  54  77 106 135 165 208 262 312
#     4   9  17  28  47  74 100 129 166 208 249 296
#     4   8  16  28  42  64  96 136 172 210 253 294
#     4  10  21  37  55  77 105 135 172 214 255 305
#     4   9  19  34  50  70 100 136 167 203 250 297
#     4   8  13  21  35  57  91 134 169 202 248 293
#     4   8  14  25  39  62  98 132 169 210 246 290
#     4  11  22  35  55  78 104 136 174 214 261 308
#
# _framework density 18.539379
#
# number of rings (size 3 to 8) (size 9 to 14) (size 15 to 20)
#    0.000    3.000    0.000    1.615    2.154    1.846 
#    0.000    3.462    0.000    2.308    0.000    1.615 
#    0.000    0.615    0.000    0.000    0.000    0.000 
#
# Total GULP energy -644221.016491 kJ/mol
# GULP energy per Si atom -12388.865702 kJ/mol
# Density = 1.849718 g / cm^3
# Si number density = 18.539379 Si / 1000 Ang^3
#
#
#
# Elastic Constant Matrix: (Units=GPa)
#
#
# Indices 1 2 3 4 5 6 
#
# 1 136.0645 71.0839 23.3630 0.0000 0.0000 0.0000
# 2 71.0839 155.8944 24.7236 0.0000 0.0000 0.0000
# 3 23.3630 24.7236 26.3564 0.0000 0.0000 0.0000
# 4 0.0000 0.0000 0.0000 13.7227 0.0000 0.0000
# 5 0.0000 0.0000 0.0000 0.0000 13.6883 0.0000
# 6 0.0000 0.0000 0.0000 0.0000 0.0000 14.1922
#
#
#
# Elastic Compliance Matrix: (Units=1/GPa)
#
#
# Indices 1 2 3 4 5 6 
#
# 1 0.010295 -0.003814 -0.005547 0.000000 0.000000 0.000000
# 2 -0.003814 0.008949 -0.005013 0.000000 0.000000 0.000000
# 3 -0.005547 -0.005013 0.047562 0.000000 0.000000 0.000000
# 4 0.000000 0.000000 0.000000 0.072872 0.000000 0.000000
# 5 0.000000 0.000000 0.000000 0.000000 0.073055 0.000000
# 6 0.000000 0.000000 0.000000 0.000000 0.000000 0.070461
#
#
# Mechanical properties :
#
#
# Convention : Reuss Voigt Hill
#
# Bulk Modulus (GPa) = 26.27780 61.85067 44.06424
# Shear Modulus (GPa) = 15.40220 21.59696 18.49958
#
# Velocity S-wave (km/s) = 2.88546 3.41680 3.16231
# Velocity P-wave (km/s) = 5.03050 7.00002 6.09533
#
# Compressibility (1/GPa) = 0.03805493
#
# Stress axis : x y z
#
# Youngs Moduli (GPa) = 97.13732 111.74526 21.02533
#
# Poissons Ratio (x) = 0.42623 0.11664
# Poissons Ratio (y) = 0.37051 0.10541
# Poissons Ratio (z) = 0.53887 0.56022
#
# Static dielectric constant tensor:
#      x y z
#    x 3.524360 0.000000 0.000000 
#    y 0.000000 3.680790 0.000000 
#    z 0.000000 0.000000 3.041390 
# 
# 
# High freq. dielectric constant tensor:
#      x y z
#    x 1.714700 0.000000 0.000000 
#    y 0.000000 1.726290 0.000000 
#    z 0.000000 0.000000 1.681410 
# 
# From -- ./inp_files/16839.got.cif
#   From: 2010.03.12/outbox.cif.g09.slc.cpg/sg65_9_cif.got.tgz:16839.got - 2010.04.10 20:52:16.
