data_PCOD8273082
_publ_section_title
;
Structure prediction by ZEFSAII (Michael W. Deem and Ramdas Pophale) SiO2 
 PCOD8273082
Probable space group: C M M M
;
_chemical_formula_sum "Si O2"
_cell_formula_units_Z 88
_cell_length_a 8.938962
_cell_length_b 20.851613
_cell_length_c 24.068176
_cell_angle_alpha 90.000000
_cell_angle_beta 90.000000
_cell_angle_gamma 90.000000
_cell_volume 4486.110076
_symmetry_space_group_name_H-M "C M M M"
_symmetry_group_IT_number 65
_symmetry_cell_setting 'orthorhombic'
loop_
_space_group_symop_operation_xyz
x,y,z
-x,-y,z
x,-y,-z
-x,y,-z
-x,-y,-z
x,y,-z
-x,y,z
x,-y,z
1/2+x,1/2+y,z
1/2-x,1/2-y,z
1/2+x,1/2-y,-z
1/2-x,1/2+y,-z
1/2-x,1/2-y,-z
1/2+x,1/2+y,-z
1/2-x,1/2+y,z
1/2+x,1/2-y,z
loop_
_atom_site_type_symbol
_atom_site_label
_atom_site_fract_x
_atom_site_fract_y
_atom_site_fract_z
Si Si1 0.674681 0.926532 0.132790
Si Si2 0.322301 0.361758 0.435576
Si Si3 0.174933 0.815187 0.935588
Si Si4 0.322457 0.929613 0.740956
Si Si5 0.825131 0.000000 0.436275
Si Si6 0.322781 0.187131 0.667625
O O1 0.500000 0.911207 0.126335
O O2 0.766309 0.878265 0.094799
O O3 0.728247 0.915918 0.196100
O O4 0.707778 0.000000 0.114689
O O5 0.278865 0.349936 0.500000
O O6 0.500000 0.354002 0.428013
O O7 0.264408 0.432197 0.413323
O O8 0.233283 0.313278 0.396353
O O9 0.250000 0.750000 0.912154
O O10 0.000000 0.808944 0.925147
O O11 0.215615 0.823597 0.000000
O O12 0.500000 0.930312 0.738479
O O13 0.259001 0.874314 0.700914
O O14 0.262130 0.000000 0.721765
O O15 0.782708 0.000000 0.500000
O O16 0.000000 0.000000 0.428139
O O17 0.500000 0.191932 0.669968
O O18 0.250000 0.250000 0.695784
#
# Coordination Sequence:
#
# PCOD8273082 Si02
#       6
#    16  16  16  16   8  16
#     4   9  18  35  59  84 111 145 184 225 274 331
#     4   9  18  34  55  78 106 138 172 212 262 320
#     4  10  21  36  54  79 114 153 191 232 276 322
#     4   8  17  36  59  81 106 139 178 222 272 320
#     4   7  12  26  49  75 101 129 159 197 248 303
#     4  11  23  37  55  78 108 141 176 219 266 320
#
# _framework density 19.616102000000001
#
# number of rings (size 3 to 8) (size 9 to 14) (size 15 to 20)
#    0.000    2.818    0.000    3.273    1.273    3.273 
#    0.000    5.455    0.000    3.818    0.000    0.000 
#    0.000    0.000    0.000    0.000    0.000    0.000 
#
# Total GULP energy -545240.673770 kJ/mol
# GULP energy per Si atom -12391.833495 kJ/mol
# Density = 1.957146 g / cm^3
# Si number density = 19.616102 Si / 1000 Ang^3
#
#
#
# Elastic Constant Matrix: (Units=GPa)
#
#
# Indices 1 2 3 4 5 6 
#
# 1 57.4695 49.2250 36.1928 0.0000 0.0000 0.0000
# 2 49.2250 156.8976 72.0398 0.0000 0.0000 0.0000
# 3 36.1928 72.0398 80.8701 0.0000 0.0000 0.0000
# 4 0.0000 0.0000 0.0000 27.4422 0.0000 0.0000
# 5 0.0000 0.0000 0.0000 0.0000 21.1810 0.0000
# 6 0.0000 0.0000 0.0000 0.0000 0.0000 30.7644
#
#
#
# Elastic Compliance Matrix: (Units=1/GPa)
#
#
# Indices 1 2 3 4 5 6 
#
# 1 0.026205 -0.004800 -0.007452 0.000000 0.000000 0.000000
# 2 -0.004800 0.011664 -0.008242 0.000000 0.000000 0.000000
# 3 -0.007452 -0.008242 0.023043 0.000000 0.000000 0.000000
# 4 0.000000 0.000000 0.000000 0.036440 0.000000 0.000000
# 5 0.000000 0.000000 0.000000 0.000000 0.047212 0.000000
# 6 0.000000 0.000000 0.000000 0.000000 0.000000 0.032505
#
#
# Mechanical properties :
#
#
# Convention : Reuss Voigt Hill
#
# Bulk Modulus (GPa) = 50.19203 67.79469 58.99336
# Shear Modulus (GPa) = 22.25205 25.06282 23.65743
#
# Velocity S-wave (km/s) = 3.37170 3.57832 3.47655
# Velocity P-wave (km/s) = 6.38753 7.19085 6.80106
#
# Compressibility (1/GPa) = 0.01992348
#
# Stress axis : x y z
#
# Youngs Moduli (GPa) = 38.16077 85.73465 43.39761
#
# Poissons Ratio (x) = 0.41152 0.32340
# Poissons Ratio (y) = 0.18317 0.35769
# Poissons Ratio (z) = 0.28437 0.70664
#
# Static dielectric constant tensor:
#      x y z
#    x 3.181800 0.000000 0.000000 
#    y 0.000000 4.074000 0.000000 
#    z 0.000000 0.000000 3.484580 
# 
# 
# High freq. dielectric constant tensor:
#      x y z
#    x 1.733660 0.000000 0.000000 
#    y 0.000000 1.784580 0.000000 
#    z 0.000000 0.000000 1.751430 
# 
# From -- ./inp_files/67595.got.cif
#   From: 2010.03.12/outbox.cif.g09.slc.cpg/sg65_34_cif.got.tgz:67595.got - 2010.04.10 20:52:16.
