data_PCOD8273271
_publ_section_title
;
Structure prediction by ZEFSAII (Michael W. Deem and Ramdas Pophale) SiO2 
 PCOD8273271
Probable space group: C M M M
;
_chemical_formula_sum "Si O2"
_cell_formula_units_Z 72
_cell_length_a 8.149435
_cell_length_b 29.323934
_cell_length_c 15.421058
_cell_angle_alpha 90.000000
_cell_angle_beta 90.000000
_cell_angle_gamma 90.000000
_cell_volume 3685.224113
_symmetry_space_group_name_H-M "C M M M"
_symmetry_group_IT_number 65
_symmetry_cell_setting 'orthorhombic'
loop_
_space_group_symop_operation_xyz
x,y,z
-x,-y,z
x,-y,-z
-x,y,-z
-x,-y,-z
x,y,-z
-x,y,z
x,-y,z
1/2+x,1/2+y,z
1/2-x,1/2-y,z
1/2+x,1/2-y,-z
1/2-x,1/2+y,-z
1/2-x,1/2-y,-z
1/2+x,1/2+y,-z
1/2-x,1/2+y,z
1/2+x,1/2-y,z
loop_
_atom_site_type_symbol
_atom_site_label
_atom_site_fract_x
_atom_site_fract_y
_atom_site_fract_z
Si Si1 0.193623 0.699614 0.598757
Si Si2 0.316248 0.948719 0.298238
Si Si3 0.000000 0.946506 0.406905
Si Si4 0.311395 0.800909 0.098415
Si Si5 0.186747 0.137538 0.245740
O O1 0.252978 0.689055 0.500000
O O2 0.250000 0.750000 0.626786
O O3 0.267792 0.663568 0.665729
O O4 0.000000 0.696645 0.605290
O O5 0.500000 0.947522 0.339639
O O6 0.299426 0.907953 0.228172
O O7 0.173322 0.932975 0.363970
O O8 0.283328 0.000000 0.260935
O O9 0.000000 0.922194 0.500000
O O10 0.000000 0.000000 0.416782
O O11 0.500000 0.803577 0.127041
O O12 0.250000 0.750000 0.108505
O O13 0.204098 0.831561 0.161468
O O14 0.286477 0.818023 0.000000
O O15 0.000000 0.121339 0.254218
#
# Coordination Sequence:
#
# PCOD8273271 Si02
#       5
#    16  16   8  16  16
#     4  10  21  37  55  77 109 148 191 237 284 337
#     4  10  21  38  58  81 112 150 194 244 297 351
#     4   9  18  34  54  78 109 145 189 241 296 348
#     4  10  21  38  60  87 119 151 188 237 292 350
#     4  12  23  36  58  84 114 152 194 238 288 351
#
# _framework density 19.537481
#
# number of rings (size 3 to 8) (size 9 to 14) (size 15 to 20)
#    0.000    1.667    1.111    4.000    0.000    4.000 
#    0.000    2.222    0.000    0.667    0.000    4.667 
#    0.000    0.000    0.000    0.000    0.000    0.000 
#
# Total GULP energy -446098.566923 kJ/mol
# GULP energy per Si atom -12391.626859 kJ/mol
# Density = 1.949301 g / cm^3
# Si number density = 19.537481 Si / 1000 Ang^3
#
#
#
# Elastic Constant Matrix: (Units=GPa)
#
#
# Indices 1 2 3 4 5 6 
#
# 1 128.0080 36.5617 32.1907 0.0000 0.0000 0.0000
# 2 36.5617 113.2868 46.4260 0.0000 0.0000 0.0000
# 3 32.1907 46.4260 79.8732 0.0000 0.0000 0.0000
# 4 0.0000 0.0000 0.0000 24.8122 0.0000 0.0000
# 5 0.0000 0.0000 0.0000 0.0000 13.5486 0.0000
# 6 0.0000 0.0000 0.0000 0.0000 0.0000 33.7839
#
#
#
# Elastic Compliance Matrix: (Units=1/GPa)
#
#
# Indices 1 2 3 4 5 6 
#
# 1 0.008981 -0.001858 -0.002540 0.000000 0.000000 0.000000
# 2 -0.001858 0.011971 -0.006210 0.000000 0.000000 0.000000
# 3 -0.002540 -0.006210 0.017153 0.000000 0.000000 0.000000
# 4 0.000000 0.000000 0.000000 0.040303 0.000000 0.000000
# 5 0.000000 0.000000 0.000000 0.000000 0.073808 0.000000
# 6 0.000000 0.000000 0.000000 0.000000 0.000000 0.029600
#
#
# Mechanical properties :
#
#
# Convention : Reuss Voigt Hill
#
# Bulk Modulus (GPa) = 59.20286 61.28053 60.24169
# Shear Modulus (GPa) = 23.96225 28.16159 26.06192
#
# Velocity S-wave (km/s) = 3.50591 3.80071 3.65628
# Velocity P-wave (km/s) = 6.83787 7.11999 6.98036
#
# Compressibility (1/GPa) = 0.01689108
#
# Stress axis : x y z
#
# Youngs Moduli (GPa) = 111.34201 83.53180 58.29942
#
# Poissons Ratio (x) = 0.15518 0.14807
# Poissons Ratio (y) = 0.20684 0.36202
# Poissons Ratio (z) = 0.28280 0.51871
#
# Static dielectric constant tensor:
#      x y z
#    x 3.771510 0.000000 0.000000 
#    y 0.000000 3.716370 0.000000 
#    z 0.000000 0.000000 3.535380 
# 
# 
# High freq. dielectric constant tensor:
#      x y z
#    x 1.784080 0.000000 0.000000 
#    y 0.000000 1.771780 0.000000 
#    z 0.000000 0.000000 1.726220 
# 
# From -- ./inp_files/36581.got.cif
#   From: 2010.03.12/outbox.cif.g09.slc.cpg/sg65_19_cif.got.tgz:36581.got - 2010.04.10 20:52:16.
