data_PCOD8273000
_publ_section_title
;
Structure prediction by ZEFSAII (Michael W. Deem and Ramdas Pophale) SiO2 
 PCOD8273000
Probable space group: C M M M
;
_chemical_formula_sum "Si O2"
_cell_formula_units_Z 104
_cell_length_a 8.679338
_cell_length_b 29.561442
_cell_length_c 22.801476
_cell_angle_alpha 90.000000
_cell_angle_beta 90.000000
_cell_angle_gamma 90.000000
_cell_volume 5850.260132
_symmetry_space_group_name_H-M "C M M M"
_symmetry_group_IT_number 65
_symmetry_cell_setting 'orthorhombic'
loop_
_space_group_symop_operation_xyz
x,y,z
-x,-y,z
x,-y,-z
-x,y,-z
-x,-y,-z
x,y,-z
-x,y,z
x,-y,z
1/2+x,1/2+y,z
1/2-x,1/2-y,z
1/2+x,1/2-y,-z
1/2-x,1/2+y,-z
1/2-x,1/2-y,-z
1/2+x,1/2+y,-z
1/2-x,1/2+y,z
1/2+x,1/2-y,z
loop_
_atom_site_type_symbol
_atom_site_label
_atom_site_fract_x
_atom_site_fract_y
_atom_site_fract_z
Si Si1 0.181208 0.142578 0.394619
Si Si2 0.182150 0.300306 0.500000
Si Si3 0.171255 0.047126 0.069436
Si Si4 0.822047 0.700199 0.295317
Si Si5 0.324879 0.797810 0.835960
Si Si6 0.320043 0.948958 0.568374
Si Si7 0.183052 0.142915 0.934575
O O1 0.266381 0.171956 0.443458
O O2 0.229057 0.163321 0.332406
O O3 0.227877 0.089545 0.396304
O O4 0.000000 0.146664 0.404168
O O5 0.250000 0.250000 0.500000
O O6 0.000000 0.296008 0.500000
O O7 0.254439 0.094200 0.086727
O O8 0.000000 0.046032 0.096774
O O9 0.257010 0.000000 0.089313
O O10 0.157007 0.048037 0.000000
O O11 0.750000 0.750000 0.303160
O O12 0.810989 0.680809 0.228859
O O13 0.000000 0.703101 0.315411
O O14 0.500000 0.794503 0.856977
O O15 0.250000 0.750000 0.829477
O O16 0.230795 0.822023 0.886236
O O17 0.283378 0.942598 0.500000
O O18 0.500000 0.942150 0.580621
O O19 0.270150 0.000000 0.587964
O O20 0.000000 0.138985 0.936831
O O21 0.243404 0.156371 0.000000
#
# Coordination Sequence:
#
# PCOD8273000 Si02
#       7
#    16   8  16  16  16  16  16
#     4  12  23  35  54  82 110 138 173 214 262 308
#     4  12  24  38  53  74 109 144 174 211 257 307
#     4   7  10  19  38  65  95 125 157 192 232 283
#     4  10  21  38  57  76  99 132 174 216 260 314
#     4  10  21  36  54  73  96 130 172 214 256 305
#     4   9  18  34  56  80 108 144 181 216 259 309
#     4   9  17  29  48  75 104 132 164 206 257 309
#
# _framework density 17.776986999999998
#
# number of rings (size 3 to 8) (size 9 to 14) (size 15 to 20)
#    0.000    2.308    0.769    5.308    0.000    2.769 
#    0.000    0.769    0.000    1.385    0.000    6.462 
#    0.000    0.000    0.000    0.000    0.000    0.000 
#
# Total GULP energy -644202.359130 kJ/mol
# GULP energy per Si atom -12388.506906 kJ/mol
# Density = 1.773653 g / cm^3
# Si number density = 17.776987 Si / 1000 Ang^3
#
#
#
# Elastic Constant Matrix: (Units=GPa)
#
#
# Indices 1 2 3 4 5 6 
#
# 1 80.5937 35.4784 28.1422 0.0000 0.0000 0.0000
# 2 35.4784 94.1035 44.9551 0.0000 0.0000 0.0000
# 3 28.1422 44.9551 77.1474 0.0000 0.0000 0.0000
# 4 0.0000 0.0000 0.0000 -5.1974 0.0000 0.0000
# 5 0.0000 0.0000 0.0000 0.0000 19.6520 0.0000
# 6 0.0000 0.0000 0.0000 0.0000 0.0000 15.0003
#
#
#
# Elastic Compliance Matrix: (Units=1/GPa)
#
#
# Indices 1 2 3 4 5 6 
#
# 1 0.015392 -0.004325 -0.003095 0.000000 0.000000 0.000000
# 2 -0.004325 0.015941 -0.007712 0.000000 0.000000 0.000000
# 3 -0.003095 -0.007712 0.018585 0.000000 0.000000 0.000000
# 4 0.000000 0.000000 0.000000 -0.192403 0.000000 0.000000
# 5 0.000000 0.000000 0.000000 0.000000 0.050886 0.000000
# 6 0.000000 0.000000 0.000000 0.000000 0.000000 0.066665
#
#
# Mechanical properties :
#
#
# Convention : Reuss Voigt Hill
#
# Bulk Modulus (GPa) = 50.87485 52.11068 51.49277
# Shear Modulus (GPa) = 420.87863 15.44223 218.16043
#
# Velocity S-wave (km/s) = 15.40353 2.95051 11.08996
# Velocity P-wave (km/s) = 18.57522 6.40192 13.89286
#
# Compressibility (1/GPa) = 0.01965608
#
# Stress axis : x y z
#
# Youngs Moduli (GPa) = 64.96720 62.73128 53.80746
#
# Poissons Ratio (x) = 0.27129 0.16653
# Poissons Ratio (y) = 0.28096 0.41494
# Poissons Ratio (z) = 0.20106 0.48375
#
# Static dielectric constant tensor:
#      x y z
#    x 3.191980 0.000000 0.000000 
#    y 0.000000 3.904020 0.000000 
#    z 0.000000 0.000000 3.240400 
# 
# 
# High freq. dielectric constant tensor:
#      x y z
#    x 1.675910 0.000000 0.000000 
#    y 0.000000 1.700270 0.000000 
#    z 0.000000 0.000000 1.660460 
# 
# From -- ./inp_files/60814.got.cif
#   From: 2010.03.12/outbox.cif.g09.slc.cpg/sg65_31_cif.got.tgz:60814.got - 2010.04.10 20:52:16.
