data_PCOD8273244
_publ_section_title
;
Structure prediction by ZEFSAII (Michael W. Deem and Ramdas Pophale) SiO2 
 PCOD8273244
Probable space group: C M M M
;
_chemical_formula_sum "Si O2"
_cell_formula_units_Z 80
_cell_length_a 8.911369
_cell_length_b 18.375830
_cell_length_c 25.984932
_cell_angle_alpha 90.000000
_cell_angle_beta 90.000000
_cell_angle_gamma 90.000000
_cell_volume 4255.131405
_symmetry_space_group_name_H-M "C M M M"
_symmetry_group_IT_number 65
_symmetry_cell_setting 'orthorhombic'
loop_
_space_group_symop_operation_xyz
x,y,z
-x,-y,z
x,-y,-z
-x,y,-z
-x,-y,-z
x,y,-z
-x,y,z
x,-y,z
1/2+x,1/2+y,z
1/2-x,1/2-y,z
1/2+x,1/2-y,-z
1/2-x,1/2+y,-z
1/2-x,1/2-y,-z
1/2+x,1/2+y,-z
1/2-x,1/2+y,z
1/2+x,1/2-y,z
loop_
_atom_site_type_symbol
_atom_site_label
_atom_site_fract_x
_atom_site_fract_y
_atom_site_fract_z
Si Si1 0.325192 0.084817 0.736031
Si Si2 0.823227 0.827997 0.354162
Si Si3 0.173032 0.416769 0.440304
Si Si4 0.824020 0.327796 0.945686
Si Si5 0.176619 0.328138 0.834674
O O1 0.500000 0.101279 0.725913
O O2 0.228319 0.118814 0.690826
O O3 0.269451 0.117318 0.790372
O O4 0.291809 0.000000 0.737556
O O5 0.750000 0.750000 0.345912
O O6 0.776425 0.862009 0.408697
O O7 0.000000 0.818451 0.352720
O O8 0.200507 0.400173 0.500000
O O9 0.216743 0.500000 0.427475
O O10 0.000000 0.403353 0.425500
O O11 0.750000 0.250000 0.946977
O O12 0.777653 0.363937 0.890743
O O13 0.000000 0.315650 0.945232
O O14 0.779304 0.369447 0.000000
O O15 0.250000 0.250000 0.825809
O O16 0.000000 0.316332 0.831389
#
# Coordination Sequence:
#
# PCOD8273244 Si02
#       5
#    16  16  16  16  16
#     4  10  21  37  55  74 101 137 174 214 262 316
#     4  12  25  39  57  81 109 140 176 219 264 309
#     4   9  19  38  63  88 115 147 179 211 252 303
#     4   8  13  22  38  62  92 123 157 200 248 298
#     4   9  17  29  47  71  97 128 166 208 256 306
#
# _framework density 18.800829
#
# number of rings (size 3 to 8) (size 9 to 14) (size 15 to 20)
#    0.000    2.400    0.000    3.600    0.000    6.400 
#    0.000    1.000    0.000    0.600    0.000    4.200 
#    0.000    0.000    0.000   34.200    0.000   17.200 
#
# Total GULP energy -495615.950393 kJ/mol
# GULP energy per Si atom -12390.398760 kJ/mol
# Density = 1.875804 g / cm^3
# Si number density = 18.800829 Si / 1000 Ang^3
#
#
#
# Elastic Constant Matrix: (Units=GPa)
#
#
# Indices 1 2 3 4 5 6 
#
# 1 67.5963 38.8395 46.2794 0.0000 0.0000 0.0000
# 2 38.8395 84.2876 55.7000 0.0000 0.0000 0.0000
# 3 46.2794 55.7000 144.1027 0.0000 0.0000 0.0000
# 4 0.0000 0.0000 0.0000 7.3984 0.0000 0.0000
# 5 0.0000 0.0000 0.0000 0.0000 -82.6357 0.0000
# 6 0.0000 0.0000 0.0000 0.0000 0.0000 24.4373
#
#
#
# Elastic Compliance Matrix: (Units=1/GPa)
#
#
# Indices 1 2 3 4 5 6 
#
# 1 0.021863 -0.007299 -0.004200 0.000000 0.000000 0.000000
# 2 -0.007299 0.018371 -0.004757 0.000000 0.000000 0.000000
# 3 -0.004200 -0.004757 0.010127 0.000000 0.000000 0.000000
# 4 0.000000 0.000000 0.000000 0.135164 0.000000 0.000000
# 5 0.000000 0.000000 0.000000 0.000000 -0.012101 0.000000
# 6 0.000000 0.000000 0.000000 0.000000 0.000000 0.040921
#
#
# Mechanical properties :
#
#
# Convention : Reuss Voigt Hill
#
# Bulk Modulus (GPa) = 56.02460 64.18049 60.10255
# Shear Modulus (GPa) = 19.77794 0.18452 9.98123
#
# Velocity S-wave (km/s) = 3.24693 0.31362 2.30661
# Velocity P-wave (km/s) = 6.62725 5.86023 6.25551
#
# Compressibility (1/GPa) = 0.01784930
#
# Stress axis : x y z
#
# Youngs Moduli (GPa) = 45.73914 54.43395 98.74498
#
# Poissons Ratio (x) = 0.39730 0.41475
# Poissons Ratio (y) = 0.33384 0.46972
# Poissons Ratio (z) = 0.19212 0.25893
#
# Static dielectric constant tensor:
#      x y z
#    x 3.337470 0.000000 0.000000 
#    y 0.000000 3.200600 0.000000 
#    z 0.000000 0.000000 4.216020 
# 
# 
# High freq. dielectric constant tensor:
#      x y z
#    x 1.719810 0.000000 0.000000 
#    y 0.000000 1.697470 0.000000 
#    z 0.000000 0.000000 1.763650 
# 
# From -- ./inp_files/72793.got.cif
#   From: 2010.03.12/outbox.cif.g09.slc.cpg/sg65_37_cif.got.tgz:72793.got - 2010.04.10 20:52:16.
