data_PCOD8273416
_publ_section_title
;
Structure prediction by ZEFSAII (Michael W. Deem and Ramdas Pophale) SiO2 
 PCOD8273416
Probable space group: C M M M
;
_chemical_formula_sum "Si O2"
_cell_formula_units_Z 88
_cell_length_a 8.988346
_cell_length_b 29.986311
_cell_length_c 17.431694
_cell_angle_alpha 90.000000
_cell_angle_beta 90.000000
_cell_angle_gamma 90.000000
_cell_volume 4698.318090
_symmetry_space_group_name_H-M "C M M M"
_symmetry_group_IT_number 65
_symmetry_cell_setting 'orthorhombic'
loop_
_space_group_symop_operation_xyz
x,y,z
-x,-y,z
x,-y,-z
-x,y,-z
-x,-y,-z
x,y,-z
-x,y,z
x,-y,z
1/2+x,1/2+y,z
1/2-x,1/2-y,z
1/2+x,1/2-y,-z
1/2-x,1/2+y,-z
1/2-x,1/2-y,-z
1/2+x,1/2+y,-z
1/2-x,1/2+y,z
1/2+x,1/2-y,z
loop_
_atom_site_type_symbol
_atom_site_label
_atom_site_fract_x
_atom_site_fract_y
_atom_site_fract_z
Si Si1 0.827087 0.676854 0.586224
Si Si2 0.829439 0.949782 0.909668
Si Si3 0.823043 0.795087 0.738841
Si Si4 0.173043 0.000000 0.583752
Si Si5 0.336585 0.081619 0.640720
Si Si6 0.667939 0.879096 0.193546
O O1 0.788574 0.693875 0.500000
O O2 0.725462 0.700679 0.649475
O O3 0.795099 0.624113 0.588926
O O4 0.000000 0.686033 0.606876
O O5 0.732270 0.911101 0.871695
O O6 0.000000 0.943425 0.884248
O O7 0.776514 0.000000 0.886095
O O8 0.812403 0.943879 0.000000
O O9 0.750000 0.750000 0.771740
O O10 0.766595 0.834945 0.793357
O O11 0.000000 0.792678 0.742899
O O12 0.216340 0.956248 0.629633
O O13 0.249866 0.000000 0.500000
O O14 0.000000 0.000000 0.574537
O O15 0.500000 0.063927 0.617499
O O16 0.332951 0.093122 0.729283
O O17 0.500000 0.864833 0.171038
#
# Coordination Sequence:
#
# PCOD8273416 Si02
#       6
#    16  16  16   8  16  16
#     4   9  18  34  54  75 101 134 176 228 282 334
#     4   9  19  36  58  87 122 155 185 219 264 318
#     4  11  22  37  57  80 108 142 183 229 281 334
#     4  11  23  33  43  65  96 131 176 227 271 316
#     4   9  19  34  50  69  96 134 177 220 268 320
#     4  10  21  37  57  82 111 143 184 227 271 324
#
# _framework density 18.730107
#
# number of rings (size 3 to 8) (size 9 to 14) (size 15 to 20)
#    0.000    2.273    0.000    4.636    1.273    6.545 
#    0.000    0.909    0.000    0.545    0.000    0.000 
#    0.000    0.000    0.000    0.000    0.000    0.000 
#
# Total GULP energy -545508.450122 kJ/mol
# GULP energy per Si atom -12397.919321 kJ/mol
# Density = 1.868748 g / cm^3
# Si number density = 18.730107 Si / 1000 Ang^3
#
#
#
# Elastic Constant Matrix: (Units=GPa)
#
#
# Indices 1 2 3 4 5 6 
#
# 1 126.3140 67.2989 32.4636 0.0000 0.0000 0.0000
# 2 67.2989 119.2933 36.1604 0.0000 0.0000 0.0000
# 3 32.4636 36.1604 51.6075 0.0000 0.0000 0.0000
# 4 0.0000 0.0000 0.0000 9.2007 0.0000 0.0000
# 5 0.0000 0.0000 0.0000 0.0000 27.1652 0.0000
# 6 0.0000 0.0000 0.0000 0.0000 0.0000 32.5226
#
#
#
# Elastic Compliance Matrix: (Units=1/GPa)
#
#
# Indices 1 2 3 4 5 6 
#
# 1 0.011797 -0.005594 -0.003501 0.000000 0.000000 0.000000
# 2 -0.005594 0.013296 -0.005797 0.000000 0.000000 0.000000
# 3 -0.003501 -0.005797 0.025642 0.000000 0.000000 0.000000
# 4 0.000000 0.000000 0.000000 0.108687 0.000000 0.000000
# 5 0.000000 0.000000 0.000000 0.000000 0.036812 0.000000
# 6 0.000000 0.000000 0.000000 0.000000 0.000000 0.030748
#
#
# Mechanical properties :
#
#
# Convention : Reuss Voigt Hill
#
# Bulk Modulus (GPa) = 47.73421 63.22895 55.48158
# Shear Modulus (GPa) = 18.95738 24.53048 21.74393
#
# Velocity S-wave (km/s) = 3.18486 3.62288 3.41091
# Velocity P-wave (km/s) = 6.25020 7.16460 6.72297
#
# Compressibility (1/GPa) = 0.02094934
#
# Stress axis : x y z
#
# Youngs Moduli (GPa) = 84.76703 75.21187 38.99915
#
# Poissons Ratio (x) = 0.42073 0.13655
# Poissons Ratio (y) = 0.47418 0.22609
# Poissons Ratio (z) = 0.29680 0.43602
#
# Static dielectric constant tensor:
#      x y z
#    x 3.515710 0.000000 0.000000 
#    y 0.000000 3.565400 0.000000 
#    z 0.000000 0.000000 3.265930 
# 
# 
# High freq. dielectric constant tensor:
#      x y z
#    x 1.728810 0.000000 0.000000 
#    y 0.000000 1.730460 0.000000 
#    z 0.000000 0.000000 1.706460 
# 
# From -- ./inp_files/50310.got.cif
#   From: 2010.03.12/outbox.cif.g09.slc.cpg/sg65_26_cif.got.tgz:50310.got - 2010.04.10 20:52:16.
