data_PCOD8273762
_publ_section_title
;
Structure prediction by ZEFSAII (Michael W. Deem and Ramdas Pophale) SiO2 
 PCOD8273762
Probable space group: C M M M
;
_chemical_formula_sum "Si O2"
_cell_formula_units_Z 72
_cell_length_a 8.664578
_cell_length_b 15.413830
_cell_length_c 27.514202
_cell_angle_alpha 90.000000
_cell_angle_beta 90.000000
_cell_angle_gamma 90.000000
_cell_volume 3674.640877
_symmetry_space_group_name_H-M "C M M M"
_symmetry_group_IT_number 65
_symmetry_cell_setting 'orthorhombic'
loop_
_space_group_symop_operation_xyz
x,y,z
-x,-y,z
x,-y,-z
-x,y,-z
-x,-y,-z
x,y,-z
-x,y,z
x,-y,z
1/2+x,1/2+y,z
1/2-x,1/2-y,z
1/2+x,1/2-y,-z
1/2-x,1/2+y,-z
1/2-x,1/2-y,-z
1/2+x,1/2+y,-z
1/2-x,1/2+y,z
1/2+x,1/2-y,z
loop_
_atom_site_type_symbol
_atom_site_label
_atom_site_fract_x
_atom_site_fract_y
_atom_site_fract_z
Si Si1 0.818315 0.340984 0.113084
Si Si2 0.680896 0.000000 0.387075
Si Si3 0.821924 0.158786 0.442696
Si Si4 0.321342 0.500000 0.943033
Si Si5 0.818788 0.000000 0.718056
Si Si6 0.182105 0.341325 0.224045
O O1 0.750000 0.250000 0.095036
O O2 0.754997 0.415032 0.078756
O O3 0.768132 0.360183 0.168522
O O4 0.000000 0.336906 0.108078
O O5 0.723024 0.915427 0.417599
O O6 0.500000 0.000000 0.375084
O O7 0.779028 0.000000 0.338263
O O8 0.806640 0.145818 0.500000
O O9 0.750000 0.250000 0.426200
O O10 0.000000 0.153969 0.426155
O O11 0.500000 0.500000 0.929604
O O12 0.291054 0.500000 0.000000
O O13 0.749193 0.915011 0.742146
O O14 0.000000 0.000000 0.725846
O O15 0.250000 0.250000 0.241852
O O16 0.000000 0.339006 0.229767
#
# Coordination Sequence:
#
# PCOD8273762 Si02
#       6
#    16   8  16   8   8  16
#     4  10  21  38  62  88 115 149 190 237 286 340
#     4  12  25  40  59  85 119 157 196 239 288 343
#     4  10  21  39  63  90 119 152 193 240 288 341
#     4  11  24  39  56  82 117 155 194 237 286 341
#     4  12  25  40  59  85 118 156 194 235 288 344
#     4  10  21  39  62  89 117 148 190 237 286 340
#
# _framework density 19.593751000000001
#
# number of rings (size 3 to 8) (size 9 to 14) (size 15 to 20)
#    0.000    1.444    0.000    5.333    0.000   10.222 
#    0.000    4.444    0.000    0.000    0.000    0.000 
#    0.000    0.000    0.000    0.000    0.000    0.000 
#
# Total GULP energy -446617.475191 kJ/mol
# GULP energy per Si atom -12406.040978 kJ/mol
# Density = 1.954915 g / cm^3
# Si number density = 19.593751 Si / 1000 Ang^3
#
#
#
# Elastic Constant Matrix: (Units=GPa)
#
#
# Indices 1 2 3 4 5 6 
#
# 1 79.2518 43.5142 25.2636 0.0000 0.0000 0.0000
# 2 43.5142 159.6805 52.0169 0.0000 0.0000 0.0000
# 3 25.2636 52.0169 52.3385 0.0000 0.0000 0.0000
# 4 0.0000 0.0000 0.0000 233.3778 0.0000 0.0000
# 5 0.0000 0.0000 0.0000 0.0000 32.9331 0.0000
# 6 0.0000 0.0000 0.0000 0.0000 0.0000 36.8123
#
#
#
# Elastic Compliance Matrix: (Units=1/GPa)
#
#
# Indices 1 2 3 4 5 6 
#
# 1 0.015645 -0.002667 -0.004901 0.000000 0.000000 0.000000
# 2 -0.002667 0.009715 -0.008368 0.000000 0.000000 0.000000
# 3 -0.004901 -0.008368 0.029789 0.000000 0.000000 0.000000
# 4 0.000000 0.000000 0.000000 0.004285 0.000000 0.000000
# 5 0.000000 0.000000 0.000000 0.000000 0.030365 0.000000
# 6 0.000000 0.000000 0.000000 0.000000 0.000000 0.027165
#
#
# Mechanical properties :
#
#
# Convention : Reuss Voigt Hill
#
# Bulk Modulus (GPa) = 42.96208 59.20670 51.08439
# Shear Modulus (GPa) = 31.92955 71.98971 51.95963
#
# Velocity S-wave (km/s) = 4.04118 6.06802 5.15520
# Velocity P-wave (km/s) = 6.61430 8.90939 7.84622
#
# Compressibility (1/GPa) = 0.02327634
#
# Stress axis : x y z
#
# Youngs Moduli (GPa) = 63.91986 102.93119 33.56925
#
# Poissons Ratio (x) = 0.27448 0.16453
# Poissons Ratio (y) = 0.17045 0.28092
# Poissons Ratio (z) = 0.31329 0.86136
#
# Static dielectric constant tensor:
#      x y z
#    x 3.778930 0.000000 0.000000 
#    y 0.000000 3.777230 0.000000 
#    z 0.000000 0.000000 3.587020 
# 
# 
# High freq. dielectric constant tensor:
#      x y z
#    x 1.783030 0.000000 0.000000 
#    y 0.000000 1.782390 0.000000 
#    z 0.000000 0.000000 1.759260 
# 
# From -- ./inp_files/72602.got.cif
#   From: 2010.03.12/outbox.cif.g09.slc.cpg/sg65_37_cif.got.tgz:72602.got - 2010.04.10 20:52:16.
