data_PCOD8273143
_publ_section_title
;
Structure prediction by ZEFSAII (Michael W. Deem and Ramdas Pophale) SiO2 
 PCOD8273143
Probable space group: C M M M
;
_chemical_formula_sum "Si O2"
_cell_formula_units_Z 80
_cell_length_a 24.921948
_cell_length_b 18.304915
_cell_length_c 9.014369
_cell_angle_alpha 90.000000
_cell_angle_beta 90.000000
_cell_angle_gamma 90.000000
_cell_volume 4112.302312
_symmetry_space_group_name_H-M "C M M M"
_symmetry_group_IT_number 65
_symmetry_cell_setting 'orthorhombic'
loop_
_space_group_symop_operation_xyz
x,y,z
-x,-y,z
x,-y,-z
-x,y,-z
-x,-y,-z
x,y,-z
-x,y,z
x,-y,z
1/2+x,1/2+y,z
1/2-x,1/2-y,z
1/2+x,1/2-y,-z
1/2-x,1/2+y,-z
1/2-x,1/2-y,-z
1/2+x,1/2+y,-z
1/2-x,1/2+y,z
1/2+x,1/2-y,z
loop_
_atom_site_type_symbol
_atom_site_label
_atom_site_fract_x
_atom_site_fract_y
_atom_site_fract_z
Si Si1 0.438090 0.179822 0.672677
Si Si2 0.349519 0.416148 0.673257
Si Si3 0.562070 0.670767 0.173304
Si Si4 0.854382 0.584578 0.171832
Si Si5 0.753900 0.164537 0.828551
O O1 0.427336 0.191752 0.500000
O O2 0.500000 0.162361 0.706184
O O3 0.419291 0.252688 0.756763
O O4 0.404386 0.111556 0.731638
O O5 0.357717 0.403016 0.500000
O O6 0.336643 0.500000 0.710442
O O7 0.404390 0.394651 0.755329
O O8 0.301027 0.366830 0.728982
O O9 0.500000 0.654923 0.207644
O O10 0.574232 0.674926 0.000000
O O11 0.844785 0.500000 0.206011
O O12 0.801442 0.627651 0.221617
O O13 0.867507 0.598740 0.000000
O O14 0.750000 0.250000 0.798491
O O15 0.766581 0.147141 0.000000
#
# Coordination Sequence:
#
# PCOD8273143 Si02
#       5
#    16  16  16  16  16
#     4  10  21  37  58  84 114 148 187 234 286 337
#     4  11  24  39  57  85 119 152 186 228 281 337
#     4  10  21  38  61  86 112 147 191 234 277 331
#     4  10  21  36  55  82 116 152 190 234 284 336
#     4  10  21  38  61  86 111 144 189 237 282 332
#
# _framework density 19.453823
#
# number of rings (size 3 to 8) (size 9 to 14) (size 15 to 20)
#    0.000    1.800    0.000    3.600    0.000    8.800 
#    0.000    4.000    0.000    0.000    0.000    0.000 
#    0.000    0.000    0.000    0.000    0.000    0.000 
#
# Total GULP energy -496288.739908 kJ/mol
# GULP energy per Si atom -12407.218498 kJ/mol
# Density = 1.940955 g / cm^3
# Si number density = 19.453823 Si / 1000 Ang^3
#
#
#
# Elastic Constant Matrix: (Units=GPa)
#
#
# Indices 1 2 3 4 5 6 
#
# 1 106.9652 61.2213 57.8042 0.0000 0.0000 0.0000
# 2 61.2213 109.1271 54.5135 0.0000 0.0000 0.0000
# 3 57.8042 54.5135 96.7569 0.0000 0.0000 0.0000
# 4 0.0000 0.0000 0.0000 33.0916 0.0000 0.0000
# 5 0.0000 0.0000 0.0000 0.0000 34.8116 0.0000
# 6 0.0000 0.0000 0.0000 0.0000 0.0000 29.8309
#
#
#
# Elastic Compliance Matrix: (Units=1/GPa)
#
#
# Indices 1 2 3 4 5 6 
#
# 1 0.016139 -0.005898 -0.006319 0.000000 0.000000 0.000000
# 2 -0.005898 0.014908 -0.004876 0.000000 0.000000 0.000000
# 3 -0.006319 -0.004876 0.016857 0.000000 0.000000 0.000000
# 4 0.000000 0.000000 0.000000 0.030219 0.000000 0.000000
# 5 0.000000 0.000000 0.000000 0.000000 0.028726 0.000000
# 6 0.000000 0.000000 0.000000 0.000000 0.000000 0.033522
#
#
# Mechanical properties :
#
#
# Convention : Reuss Voigt Hill
#
# Bulk Modulus (GPa) = 72.88959 73.32526 73.10742
# Shear Modulus (GPa) = 27.91266 28.83417 28.37342
#
# Velocity S-wave (km/s) = 3.79201 3.85409 3.82318
# Velocity P-wave (km/s) = 7.53138 7.58809 7.55979
#
# Compressibility (1/GPa) = 0.01371938
#
# Stress axis : x y z
#
# Youngs Moduli (GPa) = 61.96127 67.07832 59.32111
#
# Poissons Ratio (x) = 0.39560 0.37485
# Poissons Ratio (y) = 0.36542 0.28925
# Poissons Ratio (z) = 0.39154 0.32707
#
# Static dielectric constant tensor:
#      x y z
#    x 3.607170 0.000000 0.000000 
#    y 0.000000 3.557180 0.000000 
#    z 0.000000 0.000000 3.560650 
# 
# 
# High freq. dielectric constant tensor:
#      x y z
#    x 1.766680 0.000000 0.000000 
#    y 0.000000 1.762200 0.000000 
#    z 0.000000 0.000000 1.761650 
# 
# From -- ./inp_files/9623.got.cif
#   From: 2010.03.12/outbox.cif.g09.slc.cpg/sg65_5_cif.got.tgz:9623.got - 2010.04.10 20:52:16.
