data_PCOD8273200
_publ_section_title
;
Structure prediction by ZEFSAII (Michael W. Deem and Ramdas Pophale) SiO2 
 PCOD8273200
Probable space group: C M M M
;
_chemical_formula_sum "Si O2"
_cell_formula_units_Z 88
_cell_length_a 24.538056
_cell_length_b 20.382233
_cell_length_c 8.831489
_cell_angle_alpha 90.000000
_cell_angle_beta 90.000000
_cell_angle_gamma 90.000000
_cell_volume 4416.984218
_symmetry_space_group_name_H-M "C M M M"
_symmetry_group_IT_number 65
_symmetry_cell_setting 'orthorhombic'
loop_
_space_group_symop_operation_xyz
x,y,z
-x,-y,z
x,-y,-z
-x,y,-z
-x,-y,-z
x,y,-z
-x,y,z
x,-y,z
1/2+x,1/2+y,z
1/2-x,1/2-y,z
1/2+x,1/2-y,-z
1/2-x,1/2+y,-z
1/2-x,1/2-y,-z
1/2+x,1/2+y,-z
1/2-x,1/2+y,z
1/2+x,1/2-y,z
loop_
_atom_site_type_symbol
_atom_site_label
_atom_site_fract_x
_atom_site_fract_y
_atom_site_fract_z
Si Si1 0.937743 0.500000 0.676870
Si Si2 0.209911 0.073784 0.173922
Si Si3 0.500000 0.791262 0.822521
Si Si4 0.101747 0.358799 0.321105
Si Si5 0.500000 0.652109 0.320417
Si Si6 0.210920 0.689841 0.176312
Si Si7 0.398478 0.573544 0.678924
O O1 0.947525 0.500000 0.500000
O O2 0.900901 0.436467 0.721390
O O3 0.000000 0.500000 0.749005
O O4 0.260109 0.120770 0.205651
O O5 0.159022 0.102432 0.267010
O O6 0.225627 0.000000 0.226969
O O7 0.192654 0.074713 0.000000
O O8 0.446996 0.830334 0.775786
O O9 0.500000 0.725712 0.728206
O O10 0.500000 0.776958 0.000000
O O11 0.093228 0.347660 0.500000
O O12 0.155784 0.318729 0.272076
O O13 0.500000 0.646653 0.500000
O O14 0.553284 0.617027 0.252134
O O15 0.250000 0.750000 0.232074
O O16 0.196541 0.700856 0.000000
O O17 0.400261 0.574299 0.500000
O O18 0.405364 0.500000 0.742343
#
# Coordination Sequence:
#
# PCOD8273200 Si02
#       7
#     8  16   8  16   8  16  16
#     4   9  18  38  66  94 128 160 190 243 312 367
#     4   9  19  36  56  79 114 158 198 238 289 349
#     4  12  26  42  60  87 123 161 198 239 296 359
#     4  11  23  42  67  93 122 157 201 249 300 362
#     4  10  21  36  57  85 116 153 195 243 296 352
#     4  10  23  41  60  86 123 163 202 250 304 357
#     4   9  18  34  57  84 114 148 192 245 296 346
#
# _framework density 19.923096000000001
#
# number of rings (size 3 to 8) (size 9 to 14) (size 15 to 20)
#    0.000    2.091    0.909    1.636    3.818    2.909 
#    0.000    1.818    0.000    2.727    0.000    0.000 
#    0.000    0.000    0.000    0.000    0.000    0.000 
#
# Total GULP energy -545404.885045 kJ/mol
# GULP energy per Si atom -12395.565569 kJ/mol
# Density = 1.987775 g / cm^3
# Si number density = 19.923096 Si / 1000 Ang^3
#
#
#
# Elastic Constant Matrix: (Units=GPa)
#
#
# Indices 1 2 3 4 5 6 
#
# 1 100.4254 29.7496 11.0602 0.0000 0.0000 0.0000
# 2 29.7496 69.8475 -6.5208 0.0000 0.0000 0.0000
# 3 11.0602 -6.5208 9.1192 0.0000 0.0000 0.0000
# 4 0.0000 0.0000 0.0000 20.9369 0.0000 0.0000
# 5 0.0000 0.0000 0.0000 0.0000 34.8403 0.0000
# 6 0.0000 0.0000 0.0000 0.0000 0.0000 33.6620
#
#
#
# Elastic Compliance Matrix: (Units=1/GPa)
#
#
# Indices 1 2 3 4 5 6 
#
# 1 0.015324 -0.008853 -0.024917 0.000000 0.000000 0.000000
# 2 -0.008853 0.020456 0.025365 0.000000 0.000000 0.000000
# 3 -0.024917 0.025365 0.158017 0.000000 0.000000 0.000000
# 4 0.000000 0.000000 0.000000 0.047763 0.000000 0.000000
# 5 0.000000 0.000000 0.000000 0.000000 0.028702 0.000000
# 6 0.000000 0.000000 0.000000 0.000000 0.000000 0.029707
#
#
# Mechanical properties :
#
#
# Convention : Reuss Voigt Hill
#
# Bulk Modulus (GPa) = 5.65016 27.55223 16.60119
# Shear Modulus (GPa) = 13.30583 27.56137 20.43360
#
# Velocity S-wave (km/s) = 2.58710 3.72343 3.20601
# Velocity P-wave (km/s) = 3.43020 5.68723 4.69632
#
# Compressibility (1/GPa) = 0.17698616
#
# Stress axis : x y z
#
# Youngs Moduli (GPa) = 65.25503 48.88610 6.32844
#
# Poissons Ratio (x) = 0.43280 0.15769
# Poissons Ratio (y) = 0.57772 -0.16052
# Poissons Ratio (z) = 1.62596 -1.23999
#
# Static dielectric constant tensor:
#      x y z
#    x 3.808290 0.000000 0.000000 
#    y 0.000000 3.920800 0.000000 
#    z 0.000000 0.000000 3.438570 
# 
# 
# High freq. dielectric constant tensor:
#      x y z
#    x 1.783160 0.000000 0.000000 
#    y 0.000000 1.787520 0.000000 
#    z 0.000000 0.000000 1.756200 
# 
# From -- ./inp_files/14038.got.cif
#   From: 2010.03.12/outbox.cif.g09.slc.cpg/sg65_8_cif.got.tgz:14038.got - 2010.04.10 20:52:16.
