data_PCOD8273857
_publ_section_title
;
Structure prediction by ZEFSAII (Michael W. Deem and Ramdas Pophale) SiO2 
 PCOD8273857
Probable space group: C M M M
;
_chemical_formula_sum "Si O2"
_cell_formula_units_Z 90
_cell_length_a 19.359072
_cell_length_b 27.703344
_cell_length_c 7.961134
_cell_angle_alpha 90.000000
_cell_angle_beta 90.000000
_cell_angle_gamma 90.000000
_cell_volume 4269.643985
_symmetry_space_group_name_H-M "C M M M"
_symmetry_group_IT_number 65
_symmetry_cell_setting 'orthorhombic'
loop_
_space_group_symop_operation_xyz
x,y,z
-x,-y,z
x,-y,-z
-x,y,-z
-x,-y,-z
x,y,-z
-x,y,z
x,-y,z
1/2+x,1/2+y,z
1/2-x,1/2-y,z
1/2+x,1/2-y,-z
1/2-x,1/2+y,-z
1/2-x,1/2-y,-z
1/2+x,1/2+y,-z
1/2-x,1/2+y,z
1/2+x,1/2-y,z
loop_
_atom_site_type_symbol
_atom_site_label
_atom_site_fract_x
_atom_site_fract_y
_atom_site_fract_z
Si Si1 0.166824 0.404580 0.307734
Si Si2 0.893519 0.500000 0.810077
Si Si3 0.675078 0.265750 0.197241
Si Si4 0.423222 0.816398 0.304750
Si Si5 0.310280 0.626598 0.190091
Si Si6 0.000000 0.500000 0.500000
Si Si7 0.421255 0.444937 0.695091
O O1 0.145180 0.413908 0.500000
O O2 0.154288 0.452506 0.200316
O O3 0.120883 0.360950 0.228904
O O4 0.247258 0.390798 0.304287
O O5 0.944188 0.500000 0.651153
O O6 0.927019 0.500000 0.000000
O O7 0.750000 0.250000 0.266753
O O8 0.614803 0.234280 0.278868
O O9 0.662750 0.321137 0.250640
O O10 0.670972 0.257304 0.000000
O O11 0.431249 0.825950 0.500000
O O12 0.500000 0.815267 0.222169
O O13 0.373315 0.589594 0.196582
O O14 0.282918 0.630686 0.000000
O O15 0.411070 0.433118 0.500000
O O16 0.500000 0.435779 0.749544
O O17 0.400356 0.500000 0.732848
#
# Coordination Sequence:
#
# PCOD8273857 Si02
#       7
#    16   8  16  16  16   2  16
#     4  11  23  42  66  93 132 172 216 275 331 388
#     4  12  27  45  71 100 134 180 227 275 340 402
#     4  10  21  40  60  84 123 164 208 261 315 379
#     4  10  23  40  64  93 125 163 211 267 324 387
#     4  11  23  38  62  92 125 166 214 266 324 392
#     4  12  26  52  68  98 140 180 224 288 336 390
#     4   9  20  40  63  88 120 161 205 252 317 392
#
# _framework density 21.079041
#
# number of rings (size 3 to 8) (size 9 to 14) (size 15 to 20)
#    0.000    1.600    2.667    1.733    2.489    4.267 
#    0.000    4.444    0.000    0.000    0.000    0.000 
#    0.000    0.000    0.000    0.000    0.000    0.000 
#
# Total GULP energy -557480.718103 kJ/mol
# GULP energy per Si atom -12388.460402 kJ/mol
# Density = 2.103106 g / cm^3
# Si number density = 21.079041 Si / 1000 Ang^3
#
#
#
# Elastic Constant Matrix: (Units=GPa)
#
#
# Indices 1 2 3 4 5 6 
#
# 1 131.6200 76.2258 17.7507 0.0000 0.0000 0.0000
# 2 76.2258 162.3201 26.6156 0.0000 0.0000 0.0000
# 3 17.7507 26.6156 69.5004 0.0000 0.0000 0.0000
# 4 0.0000 0.0000 0.0000 25.3378 0.0000 0.0000
# 5 0.0000 0.0000 0.0000 0.0000 43.6469 0.0000
# 6 0.0000 0.0000 0.0000 0.0000 0.0000 -113.8342
#
#
#
# Elastic Compliance Matrix: (Units=1/GPa)
#
#
# Indices 1 2 3 4 5 6 
#
# 1 0.010482 -0.004784 -0.000845 0.000000 0.000000 0.000000
# 2 -0.004784 0.008757 -0.002132 0.000000 0.000000 0.000000
# 3 -0.000845 -0.002132 0.015421 0.000000 0.000000 0.000000
# 4 0.000000 0.000000 0.000000 0.039467 0.000000 0.000000
# 5 0.000000 0.000000 0.000000 0.000000 0.022911 0.000000
# 6 0.000000 0.000000 0.000000 0.000000 0.000000 -0.008785
#
#
# Mechanical properties :
#
#
# Convention : Reuss Voigt Hill
#
# Bulk Modulus (GPa) = 52.25171 67.18051 59.71611
# Shear Modulus (GPa) = 45.39137 7.21999 26.30568
#
# Velocity S-wave (km/s) = 4.64550 1.85274 3.53647
# Velocity P-wave (km/s) = 7.32233 6.04291 6.71317
#
# Compressibility (1/GPa) = 0.01913813
#
# Stress axis : x y z
#
# Youngs Moduli (GPa) = 95.40077 114.19853 64.84838
#
# Poissons Ratio (x) = 0.54631 0.05481
# Poissons Ratio (y) = 0.45638 0.13823
# Poissons Ratio (z) = 0.08063 0.24343
#
# Static dielectric constant tensor:
#      x y z
#    x 3.814170 0.000000 0.000000 
#    y 0.000000 3.878070 0.000000 
#    z 0.000000 0.000000 3.644400 
# 
# 
# High freq. dielectric constant tensor:
#      x y z
#    x 1.826990 0.000000 0.000000 
#    y 0.000000 1.830710 0.000000 
#    z 0.000000 0.000000 1.817980 
# 
# From -- ./inp_files/11899.got.cif
#   From: 2010.03.12/outbox.cif.g09.slc.cpg/sg65_6_cif.got.tgz:11899.got - 2010.04.10 20:52:16.
