data_PCOD8273449
_publ_section_title
;
Structure prediction by ZEFSAII (Michael W. Deem and Ramdas Pophale) SiO2 
 PCOD8273449
Probable space group: C M M M
;
_chemical_formula_sum "Si O2"
_cell_formula_units_Z 104
_cell_length_a 25.648905
_cell_length_b 23.780054
_cell_length_c 8.930428
_cell_angle_alpha 90.000000
_cell_angle_beta 90.000000
_cell_angle_gamma 90.000000
_cell_volume 5446.956900
_symmetry_space_group_name_H-M "C M M M"
_symmetry_group_IT_number 65
_symmetry_cell_setting 'orthorhombic'
loop_
_space_group_symop_operation_xyz
x,y,z
-x,-y,z
x,-y,-z
-x,y,-z
-x,-y,-z
x,y,-z
-x,y,z
x,-y,z
1/2+x,1/2+y,z
1/2-x,1/2-y,z
1/2+x,1/2-y,-z
1/2-x,1/2+y,-z
1/2-x,1/2-y,-z
1/2+x,1/2+y,-z
1/2-x,1/2+y,z
1/2+x,1/2-y,z
loop_
_atom_site_type_symbol
_atom_site_label
_atom_site_fract_x
_atom_site_fract_y
_atom_site_fract_z
Si Si1 0.000000 0.433157 0.831444
Si Si2 0.364666 0.435243 0.325281
Si Si3 0.870487 0.761188 0.672257
Si Si4 0.439270 0.351280 0.825292
Si Si5 0.721033 0.652297 0.330303
Si Si6 0.604289 0.934012 0.673449
Si Si7 0.171537 0.346164 0.176248
O O1 0.050833 0.410983 0.745438
O O2 0.000000 0.500000 0.832087
O O3 0.000000 0.409074 0.000000
O O4 0.377815 0.427451 0.500000
O O5 0.359157 0.500000 0.278687
O O6 0.411602 0.407855 0.232661
O O7 0.310070 0.404584 0.288187
O O8 0.883652 0.748947 0.500000
O O9 0.917851 0.796322 0.741835
O O10 0.816764 0.794849 0.688407
O O11 0.864804 0.702846 0.758619
O O12 0.500000 0.357211 0.789944
O O13 0.427798 0.344429 0.000000
O O14 0.742637 0.648987 0.500000
O O15 0.768182 0.661772 0.217435
O O16 0.603917 0.918042 0.500000
O O17 0.652831 0.905079 0.754950
O O18 0.610906 0.000000 0.699027
O O19 0.165318 0.347091 0.000000
#
# Coordination Sequence:
#
# PCOD8273449 Si02
#       7
#     8  16  16  16  16  16  16
#     4   9  17  33  57  81 107 137 169 213 268 319
#     4   9  19  36  58  84 114 152 197 238 278 332
#     4  10  21  39  61  82 107 144 190 233 277 336
#     4  10  21  37  57  83 117 152 186 233 292 343
#     4   9  19  36  57  80 110 148 187 230 279 332
#     4  10  21  38  59  81 108 145 187 226 267 323
#     4  12  24  36  55  85 116 145 182 230 282 336
#
# _framework density 19.093229000000001
#
# number of rings (size 3 to 8) (size 9 to 14) (size 15 to 20)
#    0.000    2.077    0.000    4.385    0.000    9.231 
#    1.385    3.077    0.000    0.000    0.000    0.000 
#    0.000    0.000    0.000    0.000    0.000    0.000 
#
# Total GULP energy -645027.201191 kJ/mol
# GULP energy per Si atom -12404.369254 kJ/mol
# Density = 1.904977 g / cm^3
# Si number density = 19.093229 Si / 1000 Ang^3
#
#
#
# Elastic Constant Matrix: (Units=GPa)
#
#
# Indices 1 2 3 4 5 6 
#
# 1 52.3948 30.0084 35.7721 0.0000 0.0000 0.0000
# 2 30.0084 88.8243 53.1505 0.0000 0.0000 0.0000
# 3 35.7721 53.1505 132.5150 0.0000 0.0000 0.0000
# 4 0.0000 0.0000 0.0000 29.3446 0.0000 0.0000
# 5 0.0000 0.0000 0.0000 0.0000 36.6771 0.0000
# 6 0.0000 0.0000 0.0000 0.0000 0.0000 16.1941
#
#
#
# Elastic Compliance Matrix: (Units=1/GPa)
#
#
# Indices 1 2 3 4 5 6 
#
# 1 0.025572 -0.005932 -0.004524 0.000000 0.000000 0.000000
# 2 -0.005932 0.016190 -0.004892 0.000000 0.000000 0.000000
# 3 -0.004524 -0.004892 0.010730 0.000000 0.000000 0.000000
# 4 0.000000 0.000000 0.000000 0.034078 0.000000 0.000000
# 5 0.000000 0.000000 0.000000 0.000000 0.027265 0.000000
# 6 0.000000 0.000000 0.000000 0.000000 0.000000 0.061751
#
#
# Mechanical properties :
#
#
# Convention : Reuss Voigt Hill
#
# Bulk Modulus (GPa) = 45.88196 56.84401 51.36298
# Shear Modulus (GPa) = 23.41410 26.76336 25.08873
#
# Velocity S-wave (km/s) = 3.50566 3.74802 3.62886
# Velocity P-wave (km/s) = 6.36151 6.96898 6.67216
#
# Compressibility (1/GPa) = 0.02179506
#
# Stress axis : x y z
#
# Youngs Moduli (GPa) = 39.10520 61.76761 93.19960
#
# Poissons Ratio (x) = 0.36643 0.42161
# Poissons Ratio (y) = 0.23199 0.45594
# Poissons Ratio (z) = 0.17690 0.30217
#
# Static dielectric constant tensor:
#      x y z
#    x 3.442410 0.000000 0.000000 
#    y 0.000000 3.515530 0.000000 
#    z 0.000000 0.000000 3.567610 
# 
# 
# High freq. dielectric constant tensor:
#      x y z
#    x 1.739970 0.000000 0.000000 
#    y 0.000000 1.739590 0.000000 
#    z 0.000000 0.000000 1.750570 
# 
# From -- ./inp_files/16761.got.cif
#   From: 2010.03.12/outbox.cif.g09.slc.cpg/sg65_9_cif.got.tgz:16761.got - 2010.04.10 20:52:16.
