data_PCOD8273813
_publ_section_title
;
Structure prediction by ZEFSAII (Michael W. Deem and Ramdas Pophale) SiO2 
 PCOD8273813
Probable space group: C M M M
;
_chemical_formula_sum "Si O2"
_cell_formula_units_Z 72
_cell_length_a 17.211926
_cell_length_b 24.068297
_cell_length_c 8.888622
_cell_angle_alpha 90.000000
_cell_angle_beta 90.000000
_cell_angle_gamma 90.000000
_cell_volume 3682.216077
_symmetry_space_group_name_H-M "C M M M"
_symmetry_group_IT_number 65
_symmetry_cell_setting 'orthorhombic'
loop_
_space_group_symop_operation_xyz
x,y,z
-x,-y,z
x,-y,-z
-x,y,-z
-x,-y,-z
x,y,-z
-x,y,z
x,-y,z
1/2+x,1/2+y,z
1/2-x,1/2-y,z
1/2+x,1/2-y,-z
1/2-x,1/2+y,-z
1/2-x,1/2-y,-z
1/2+x,1/2+y,-z
1/2-x,1/2+y,z
1/2+x,1/2-y,z
loop_
_atom_site_type_symbol
_atom_site_label
_atom_site_fract_x
_atom_site_fract_y
_atom_site_fract_z
Si Si1 0.864802 0.137594 0.321893
Si Si2 0.159023 0.259589 0.335535
Si Si3 0.799274 0.636087 0.827059
Si Si4 0.085993 0.565328 0.666820
Si Si5 0.000000 0.065194 0.178500
O O1 0.870362 0.128244 0.500000
O O2 0.883031 0.202467 0.281074
O O3 0.777795 0.125045 0.268847
O O4 0.923877 0.095768 0.241792
O O5 0.125679 0.276437 0.500000
O O6 0.250000 0.250000 0.351238
O O7 0.149509 0.309594 0.218089
O O8 0.855391 0.584720 0.795802
O O9 0.775479 0.640224 0.000000
O O10 0.112990 0.585316 0.500000
O O11 0.083979 0.500000 0.672238
O O12 0.000000 0.588927 0.700405
O O13 0.000000 0.000000 0.226783
O O14 0.000000 0.070529 0.000000
#
# Coordination Sequence:
#
# PCOD8273813 Si02
#       5
#    16  16  16  16   8
#     4  10  21  39  62  84 110 150 196 237 281 336
#     4   8  16  33  56  81 109 142 182 228 275 329
#     4  11  21  33  56  88 119 150 185 231 290 346
#     4   9  19  37  58  78 105 145 190 234 278 328
#     4  11  25  43  61  85 119 153 190 245 304 349
#
# _framework density 19.553442
#
# number of rings (size 3 to 8) (size 9 to 14) (size 15 to 20)
#    0.000    2.333    0.000    5.000    0.000    7.556 
#    2.000    1.111    0.000    0.000    0.000    0.000 
#    0.000    0.000    0.000    0.000    0.000    0.000 
#
# Total GULP energy -446137.125133 kJ/mol
# GULP energy per Si atom -12392.697920 kJ/mol
# Density = 1.950894 g / cm^3
# Si number density = 19.553442 Si / 1000 Ang^3
#
#
#
# Elastic Constant Matrix: (Units=GPa)
#
#
# Indices 1 2 3 4 5 6 
#
# 1 83.4679 59.9975 37.9719 0.0000 0.0000 0.0000
# 2 59.9975 103.2157 45.2519 0.0000 0.0000 0.0000
# 3 37.9719 45.2519 91.4816 0.0000 0.0000 0.0000
# 4 0.0000 0.0000 0.0000 24.1610 0.0000 0.0000
# 5 0.0000 0.0000 0.0000 0.0000 19.2202 0.0000
# 6 0.0000 0.0000 0.0000 0.0000 0.0000 34.0494
#
#
#
# Elastic Compliance Matrix: (Units=1/GPa)
#
#
# Indices 1 2 3 4 5 6 
#
# 1 0.021417 -0.010920 -0.003488 0.000000 0.000000 0.000000
# 2 -0.010920 0.017939 -0.004341 0.000000 0.000000 0.000000
# 3 -0.003488 -0.004341 0.014526 0.000000 0.000000 0.000000
# 4 0.000000 0.000000 0.000000 0.041389 0.000000 0.000000
# 5 0.000000 0.000000 0.000000 0.000000 0.052029 0.000000
# 6 0.000000 0.000000 0.000000 0.000000 0.000000 0.029369
#
#
# Mechanical properties :
#
#
# Convention : Reuss Voigt Hill
#
# Bulk Modulus (GPa) = 61.03450 62.73420 61.88435
# Shear Modulus (GPa) = 22.76567 24.48238 23.62402
#
# Velocity S-wave (km/s) = 3.41586 3.54231 3.47966
# Velocity P-wave (km/s) = 6.84393 6.99169 6.91820
#
# Compressibility (1/GPa) = 0.01638418
#
# Stress axis : x y z
#
# Youngs Moduli (GPa) = 46.69220 55.74342 68.84066
#
# Poissons Ratio (x) = 0.60872 0.24011
# Poissons Ratio (y) = 0.50988 0.29885
# Poissons Ratio (z) = 0.16286 0.24199
#
# Static dielectric constant tensor:
#      x y z
#    x 3.472780 0.000000 0.000000 
#    y 0.000000 3.809010 0.000000 
#    z 0.000000 0.000000 3.534430 
# 
# 
# High freq. dielectric constant tensor:
#      x y z
#    x 1.744140 0.000000 0.000000 
#    y 0.000000 1.765740 0.000000 
#    z 0.000000 0.000000 1.756660 
# 
# From -- ./inp_files/9264.got.cif
#   From: 2010.03.12/outbox.cif.g09.slc.cpg/sg65_5_cif.got.tgz:9264.got - 2010.04.10 20:52:16.
