data_PCOD8273411
_publ_section_title
;
Structure prediction by ZEFSAII (Michael W. Deem and Ramdas Pophale) SiO2 
 PCOD8273411
Probable space group: C M M M
;
_chemical_formula_sum "Si O2"
_cell_formula_units_Z 104
_cell_length_a 21.173778
_cell_length_b 27.103018
_cell_length_c 9.120658
_cell_angle_alpha 90.000000
_cell_angle_beta 90.000000
_cell_angle_gamma 90.000000
_cell_volume 5234.101979
_symmetry_space_group_name_H-M "C M M M"
_symmetry_group_IT_number 65
_symmetry_cell_setting 'orthorhombic'
loop_
_space_group_symop_operation_xyz
x,y,z
-x,-y,z
x,-y,-z
-x,y,-z
-x,-y,-z
x,y,-z
-x,y,z
x,-y,z
1/2+x,1/2+y,z
1/2-x,1/2-y,z
1/2+x,1/2-y,-z
1/2-x,1/2+y,-z
1/2-x,1/2-y,-z
1/2+x,1/2+y,-z
1/2-x,1/2+y,z
1/2+x,1/2-y,z
loop_
_atom_site_type_symbol
_atom_site_label
_atom_site_fract_x
_atom_site_fract_y
_atom_site_fract_z
Si Si1 0.269492 0.623478 0.835773
Si Si2 0.073902 0.728447 0.825665
Si Si3 0.000000 0.940817 0.337035
Si Si4 0.073947 0.628736 0.663423
Si Si5 0.153021 0.556453 0.827706
Si Si6 0.811189 0.218142 0.327304
Si Si7 0.613897 0.445419 0.162067
O O1 0.207647 0.594728 0.782068
O O2 0.291136 0.663532 0.718979
O O3 0.321029 0.581691 0.838751
O O4 0.260773 0.646109 0.000000
O O5 0.094370 0.675294 0.762671
O O6 0.123960 0.766982 0.756504
O O7 0.000000 0.741211 0.785961
O O8 0.082669 0.728061 0.000000
O O9 0.937687 0.918223 0.262812
O O10 0.000000 0.921378 0.500000
O O11 0.000000 0.000000 0.320696
O O12 0.103839 0.634056 0.500000
O O13 0.093196 0.577228 0.739400
O O14 0.000000 0.627289 0.649079
O O15 0.167678 0.500000 0.779602
O O16 0.139445 0.558215 0.000000
O O17 0.825002 0.220567 0.500000
O O18 0.750000 0.250000 0.282915
O O19 0.627776 0.500000 0.223056
O O20 0.584531 0.447640 0.000000
#
# Coordination Sequence:
#
# PCOD8273411 Si02
#       7
#    16  16   8  16  16  16  16
#     4  10  21  37  57  82 110 144 187 235 284 335
#     4  10  21  39  64  91 117 150 195 245 296 352
#     4   9  17  29  47  73 103 135 173 215 259 309
#     4  10  21  37  58  85 118 155 192 232 284 348
#     4  10  21  37  58  85 117 153 195 244 292 338
#     4  11  24  40  59  85 117 152 191 236 289 352
#     4   9  17  32  54  77 103 138 179 221 267 320
#
# _framework density 19.869692000000001
#
# number of rings (size 3 to 8) (size 9 to 14) (size 15 to 20)
#    0.000    2.077    0.000    3.000    0.000   10.154 
#    1.385    1.538    0.000    2.769    0.000    0.000 
#    0.000    0.000    0.000    0.000    0.000    0.000 
#
# Total GULP energy -644559.518025 kJ/mol
# GULP energy per Si atom -12395.375347 kJ/mol
# Density = 1.982447 g / cm^3
# Si number density = 19.869692 Si / 1000 Ang^3
#
#
#
# Elastic Constant Matrix: (Units=GPa)
#
#
# Indices 1 2 3 4 5 6 
#
# 1 49.6882 33.1807 34.3490 0.0000 0.0000 0.0000
# 2 33.1807 99.9047 42.3576 0.0000 0.0000 0.0000
# 3 34.3490 42.3576 94.5282 0.0000 0.0000 0.0000
# 4 0.0000 0.0000 0.0000 25.0451 0.0000 0.0000
# 5 0.0000 0.0000 0.0000 0.0000 21.9261 0.0000
# 6 0.0000 0.0000 0.0000 0.0000 0.0000 13.0646
#
#
#
# Elastic Compliance Matrix: (Units=1/GPa)
#
#
# Indices 1 2 3 4 5 6 
#
# 1 0.030033 -0.006602 -0.007955 0.000000 0.000000 0.000000
# 2 -0.006602 0.013808 -0.003788 0.000000 0.000000 0.000000
# 3 -0.007955 -0.003788 0.015167 0.000000 0.000000 0.000000
# 4 0.000000 0.000000 0.000000 0.039928 0.000000 0.000000
# 5 0.000000 0.000000 0.000000 0.000000 0.045608 0.000000
# 6 0.000000 0.000000 0.000000 0.000000 0.000000 0.076543
#
#
# Mechanical properties :
#
#
# Convention : Reuss Voigt Hill
#
# Bulk Modulus (GPa) = 44.80705 51.54397 48.17551
# Shear Modulus (GPa) = 18.85243 20.95608 19.90425
#
# Velocity S-wave (km/s) = 3.08361 3.25110 3.16846
# Velocity P-wave (km/s) = 5.93949 6.33168 6.13872
#
# Compressibility (1/GPa) = 0.02231792
#
# Stress axis : x y z
#
# Youngs Moduli (GPa) = 33.29619 72.41919 65.93224
#
# Poissons Ratio (x) = 0.47812 0.52449
# Poissons Ratio (y) = 0.21982 0.24978
# Poissons Ratio (z) = 0.26487 0.27436
#
# Static dielectric constant tensor:
#      x y z
#    x 3.742770 0.000000 0.000000 
#    y 0.000000 3.450130 0.000000 
#    z 0.000000 0.000000 3.784710 
# 
# 
# High freq. dielectric constant tensor:
#      x y z
#    x 1.784050 0.000000 0.000000 
#    y 0.000000 1.760600 0.000000 
#    z 0.000000 0.000000 1.777020 
# 
# From -- ./inp_files/12391.got.cif
#   From: 2010.03.12/outbox.cif.g09.slc.cpg/sg65_7_cif.got.tgz:12391.got - 2010.04.10 20:52:16.
