data_PCOD8273057
_publ_section_title
;
Structure prediction by ZEFSAII (Michael W. Deem and Ramdas Pophale) SiO2 
 PCOD8273057
Probable space group: C M M M
;
_chemical_formula_sum "Si O2"
_cell_formula_units_Z 80
_cell_length_a 18.486831
_cell_length_b 9.023771
_cell_length_c 25.448119
_cell_angle_alpha 90.000000
_cell_angle_beta 90.000000
_cell_angle_gamma 90.000000
_cell_volume 4245.278865
_symmetry_space_group_name_H-M "C M M M"
_symmetry_group_IT_number 65
_symmetry_cell_setting 'orthorhombic'
loop_
_space_group_symop_operation_xyz
x,y,z
-x,-y,z
x,-y,-z
-x,y,-z
-x,-y,-z
x,y,-z
-x,y,z
x,-y,z
1/2+x,1/2+y,z
1/2-x,1/2-y,z
1/2+x,1/2-y,-z
1/2-x,1/2+y,-z
1/2-x,1/2-y,-z
1/2+x,1/2+y,-z
1/2-x,1/2+y,z
1/2+x,1/2-y,z
loop_
_atom_site_type_symbol
_atom_site_label
_atom_site_fract_x
_atom_site_fract_y
_atom_site_fract_z
Si Si1 0.080558 0.324141 0.845435
Si Si2 0.675398 0.174092 0.940876
Si Si3 0.916221 0.827816 0.656132
Si Si4 0.172201 0.675914 0.253853
Si Si5 0.677466 0.672294 0.441239
O O1 0.076133 0.500000 0.843935
O O2 0.113968 0.270018 0.900800
O O3 0.130094 0.267021 0.797816
O O4 0.000000 0.256178 0.840127
O O5 0.750000 0.250000 0.924875
O O6 0.687730 0.000000 0.935692
O O7 0.651587 0.218179 0.000000
O O8 0.873347 0.724735 0.695993
O O9 0.888672 0.790968 0.597455
O O10 0.000000 0.785481 0.658810
O O11 0.903092 0.000000 0.670118
O O12 0.181517 0.500000 0.254361
O O13 0.250000 0.750000 0.254854
O O14 0.656909 0.727919 0.500000
O O15 0.694762 0.500000 0.441611
O O16 0.750000 0.750000 0.420333
#
# Coordination Sequence:
#
# PCOD8273057 Si02
#       5
#    16  16  16  16  16
#     4   9  18  32  50  74 102 130 164 207 253 300
#     4   9  17  30  50  74  99 129 165 205 247 293
#     4  10  21  36  54  78 107 136 169 211 256 303
#     4  11  22  36  55  76 101 135 173 212 255 304
#     4   9  18  33  53  76 102 134 171 209 250 297
#
# _framework density 18.844462
#
# number of rings (size 3 to 8) (size 9 to 14) (size 15 to 20)
#    0.000    2.400    0.000    2.400    0.000    4.400 
#    0.000    5.000    0.000    3.000    0.000    7.000 
#    0.000    0.000    0.000    0.000    0.000    0.000 
#
# Total GULP energy -496019.944160 kJ/mol
# GULP energy per Si atom -12400.498604 kJ/mol
# Density = 1.880157 g / cm^3
# Si number density = 18.844462 Si / 1000 Ang^3
#
#
#
# Elastic Constant Matrix: (Units=GPa)
#
#
# Indices 1 2 3 4 5 6 
#
# 1 167.8278 42.3410 86.3784 0.0000 0.0000 0.0000
# 2 42.3410 39.2316 35.2603 0.0000 0.0000 0.0000
# 3 86.3784 35.2603 129.6148 0.0000 0.0000 0.0000
# 4 0.0000 0.0000 0.0000 20.7450 0.0000 0.0000
# 5 0.0000 0.0000 0.0000 0.0000 33.3736 0.0000
# 6 0.0000 0.0000 0.0000 0.0000 0.0000 20.5653
#
#
#
# Elastic Compliance Matrix: (Units=1/GPa)
#
#
# Indices 1 2 3 4 5 6 
#
# 1 0.010175 -0.006468 -0.005021 0.000000 0.000000 0.000000
# 2 -0.006468 0.037851 -0.005986 0.000000 0.000000 0.000000
# 3 -0.005021 -0.005986 0.012690 0.000000 0.000000 0.000000
# 4 0.000000 0.000000 0.000000 0.048204 0.000000 0.000000
# 5 0.000000 0.000000 0.000000 0.000000 0.029964 0.000000
# 6 0.000000 0.000000 0.000000 0.000000 0.000000 0.048626
#
#
# Mechanical properties :
#
#
# Convention : Reuss Voigt Hill
#
# Bulk Modulus (GPa) = 38.81358 73.84818 56.33088
# Shear Modulus (GPa) = 21.64049 26.44974 24.04511
#
# Velocity S-wave (km/s) = 3.39244 3.75050 3.57596
# Velocity P-wave (km/s) = 5.99887 7.61764 6.85619
#
# Compressibility (1/GPa) = 0.02576418
#
# Stress axis : x y z
#
# Youngs Moduli (GPa) = 98.28423 26.41940 78.80367
#
# Poissons Ratio (x) = 0.17089 0.39567
# Poissons Ratio (y) = 0.63573 0.47174
# Poissons Ratio (z) = 0.49348 0.15815
#
# Static dielectric constant tensor:
#      x y z
#    x 3.631040 0.000000 0.000000 
#    y 0.000000 3.231230 0.000000 
#    z 0.000000 0.000000 3.774640 
# 
# 
# High freq. dielectric constant tensor:
#      x y z
#    x 1.735520 0.000000 0.000000 
#    y 0.000000 1.707180 0.000000 
#    z 0.000000 0.000000 1.747750 
# 
# From -- ./inp_files/72734.got.cif
#   From: 2010.03.12/outbox.cif.g09.slc.cpg/sg65_37_cif.got.tgz:72734.got - 2010.04.10 20:52:16.
