data_PCOD8273347
_publ_section_title
;
Structure prediction by ZEFSAII (Michael W. Deem and Ramdas Pophale) SiO2 
 PCOD8273347
Probable space group: C M M M
;
_chemical_formula_sum "Si O2"
_cell_formula_units_Z 112
_cell_length_a 19.190240
_cell_length_b 22.842871
_cell_length_c 13.116182
_cell_angle_alpha 90.000000
_cell_angle_beta 90.000000
_cell_angle_gamma 90.000000
_cell_volume 5749.611860
_symmetry_space_group_name_H-M "C M M M"
_symmetry_group_IT_number 65
_symmetry_cell_setting 'orthorhombic'
loop_
_space_group_symop_operation_xyz
x,y,z
-x,-y,z
x,-y,-z
-x,y,-z
-x,-y,-z
x,y,-z
-x,y,z
x,-y,z
1/2+x,1/2+y,z
1/2-x,1/2-y,z
1/2+x,1/2-y,-z
1/2-x,1/2+y,-z
1/2-x,1/2-y,-z
1/2+x,1/2+y,-z
1/2-x,1/2+y,z
1/2+x,1/2-y,z
loop_
_atom_site_type_symbol
_atom_site_label
_atom_site_fract_x
_atom_site_fract_y
_atom_site_fract_z
Si Si1 0.351051 0.855039 0.383861
Si Si2 0.290807 0.382818 0.691656
Si Si3 0.174367 0.759796 0.746402
Si Si4 0.784183 0.568616 0.883164
Si Si5 0.922854 0.934178 0.260414
Si Si6 0.420328 0.673277 0.886440
Si Si7 0.422219 0.932738 0.769065
O O1 0.371699 0.842760 0.500000
O O2 0.276843 0.890208 0.379751
O O3 0.348136 0.793994 0.323781
O O4 0.409939 0.895003 0.332942
O O5 0.319679 0.317318 0.676007
O O6 0.267093 0.394989 0.809405
O O7 0.357038 0.424672 0.662180
O O8 0.250000 0.750000 0.797569
O O9 0.118874 0.772053 0.834811
O O10 0.768729 0.500000 0.867957
O O11 0.864784 0.583083 0.854736
O O12 0.771846 0.587933 0.000000
O O13 0.909506 0.888758 0.169291
O O14 0.000000 0.923206 0.310518
O O15 0.920089 0.000000 0.216745
O O16 0.500000 0.692200 0.886015
O O17 0.391584 0.664623 0.000000
O O18 0.500000 0.919597 0.811720
O O19 0.415134 0.000000 0.736381
#
# Coordination Sequence:
#
# PCOD8273347 Si02
#       7
#    16  16  16  16  16  16  16
#     4  10  21  37  57  78  99 128 169 215 263 316
#     4   9  18  32  50  75 105 135 169 215 262 300
#     4   9  19  34  51  72  98 131 171 214 255 300
#     4   9  17  30  51  79 110 145 181 212 245 292
#     4   9  17  30  50  75 104 141 180 213 249 297
#     4   9  18  32  49  72 106 144 176 209 251 296
#     4   9  19  36  56  80 110 137 164 205 256 310
#
# _framework density 19.479575000000001
#
# number of rings (size 3 to 8) (size 9 to 14) (size 15 to 20)
#    0.000    2.857    0.000    0.429    0.000    7.429 
#    0.000    9.286    0.000    0.429    0.000    7.000 
#    0.000    0.000    0.000    0.000    0.000    0.286 
#
# Total GULP energy -693837.880792 kJ/mol
# GULP energy per Si atom -12389.962157 kJ/mol
# Density = 1.943524 g / cm^3
# Si number density = 19.479575 Si / 1000 Ang^3
#
#
#
# Elastic Constant Matrix: (Units=GPa)
#
#
# Indices 1 2 3 4 5 6 
#
# 1 94.4371 34.5279 2.6181 0.0000 0.0000 0.0000
# 2 34.5279 80.7504 31.5268 0.0000 0.0000 0.0000
# 3 2.6181 31.5268 46.3848 0.0000 0.0000 0.0000
# 4 0.0000 0.0000 0.0000 15.2546 0.0000 0.0000
# 5 0.0000 0.0000 0.0000 0.0000 13.3547 0.0000
# 6 0.0000 0.0000 0.0000 0.0000 0.0000 31.2947
#
#
#
# Elastic Compliance Matrix: (Units=1/GPa)
#
#
# Indices 1 2 3 4 5 6 
#
# 1 0.013121 -0.007244 0.004183 0.000000 0.000000 0.000000
# 2 -0.007244 0.020856 -0.013766 0.000000 0.000000 0.000000
# 3 0.004183 -0.013766 0.030679 0.000000 0.000000 0.000000
# 4 0.000000 0.000000 0.000000 0.065554 0.000000 0.000000
# 5 0.000000 0.000000 0.000000 0.000000 0.074880 0.000000
# 6 0.000000 0.000000 0.000000 0.000000 0.000000 0.031954
#
#
# Mechanical properties :
#
#
# Convention : Reuss Voigt Hill
#
# Bulk Modulus (GPa) = 32.25585 39.87978 36.06781
# Shear Modulus (GPa) = 17.79145 22.17410 19.98278
#
# Velocity S-wave (km/s) = 3.02543 3.37757 3.20634
# Velocity P-wave (km/s) = 5.36647 5.97726 5.68008
#
# Compressibility (1/GPa) = 0.03100213
#
# Stress axis : x y z
#
# Youngs Moduli (GPa) = 76.21083 47.94815 32.59508
#
# Poissons Ratio (x) = 0.34732 -0.13634
# Poissons Ratio (y) = 0.55204 0.44872
# Poissons Ratio (z) = -0.31877 0.66008
#
# Static dielectric constant tensor:
#      x y z
#    x 4.024270 0.000000 0.000000 
#    y 0.000000 3.591580 0.000000 
#    z 0.000000 0.000000 3.126080 
# 
# 
# High freq. dielectric constant tensor:
#      x y z
#    x 1.778120 0.000000 0.000000 
#    y 0.000000 1.759190 0.000000 
#    z 0.000000 0.000000 1.706910 
# 
# From -- ./inp_files/29379.got.cif
#   From: 2010.03.12/outbox.cif.g09.slc.cpg/sg65_15_cif.got.tgz:29379.got - 2010.04.10 20:52:16.
