data_PCOD8273490
_publ_section_title
;
Structure prediction by ZEFSAII (Michael W. Deem and Ramdas Pophale) SiO2 
 PCOD8273490
Probable space group: C M M M
;
_chemical_formula_sum "Si O2"
_cell_formula_units_Z 56
_cell_length_a 8.849767
_cell_length_b 29.290954
_cell_length_c 10.313380
_cell_angle_alpha 90.000000
_cell_angle_beta 90.000000
_cell_angle_gamma 90.000000
_cell_volume 2673.414955
_symmetry_space_group_name_H-M "C M M M"
_symmetry_group_IT_number 65
_symmetry_cell_setting 'orthorhombic'
loop_
_space_group_symop_operation_xyz
x,y,z
-x,-y,z
x,-y,-z
-x,y,-z
-x,-y,-z
x,y,-z
-x,y,z
x,-y,z
1/2+x,1/2+y,z
1/2-x,1/2-y,z
1/2+x,1/2-y,-z
1/2-x,1/2+y,-z
1/2-x,1/2-y,-z
1/2+x,1/2+y,-z
1/2-x,1/2+y,z
1/2+x,1/2-y,z
loop_
_atom_site_type_symbol
_atom_site_label
_atom_site_fract_x
_atom_site_fract_y
_atom_site_fract_z
Si Si1 0.178514 0.947714 0.236633
Si Si2 0.668567 0.946172 0.500000
Si Si3 0.822197 0.798236 0.647143
Si Si4 0.325903 0.136905 0.144147
O O1 0.236483 0.930431 0.376165
O O2 0.258994 0.914472 0.134604
O O3 0.000000 0.941902 0.230289
O O4 0.225476 0.000000 0.207191
O O5 0.500000 0.924269 0.500000
O O6 0.653427 0.000000 0.500000
O O7 0.777287 0.812744 0.500000
O O8 0.750000 0.750000 0.683388
O O9 0.765117 0.834958 0.749568
O O10 0.000000 0.793378 0.661509
O O11 0.500000 0.135081 0.185829
O O12 0.307913 0.158407 0.000000
#
# Coordination Sequence:
#
# PCOD8273490 Si02
#       4
#    16   8  16  16
#     4  10  21  37  58  85 120 162 208 258 311 367
#     4   9  17  31  53  81 112 149 196 249 303 357
#     4  10  22  42  69  98 126 158 199 250 309 372
#     4  11  25  42  61  89 125 167 212 256 308 369
#
# _framework density 20.946992000000002
#
# number of rings (size 3 to 8) (size 9 to 14) (size 15 to 20)
#    0.000    1.857    0.000    3.000    2.000    8.571 
#    0.000    2.857    0.000    0.000    0.000    0.000 
#    0.000    0.000    0.000    0.000    0.000    0.000 
#
# Total GULP energy -347200.631836 kJ/mol
# GULP energy per Si atom -12400.022566 kJ/mol
# Density = 2.089932 g / cm^3
# Si number density = 20.946992 Si / 1000 Ang^3
#
#
#
# Elastic Constant Matrix: (Units=GPa)
#
#
# Indices 1 2 3 4 5 6 
#
# 1 103.6753 43.0438 39.6832 0.0000 0.0000 0.0000
# 2 43.0438 100.4739 53.5151 0.0000 0.0000 0.0000
# 3 39.6832 53.5151 100.0761 0.0000 0.0000 0.0000
# 4 0.0000 0.0000 0.0000 22.2227 0.0000 0.0000
# 5 0.0000 0.0000 0.0000 0.0000 31.1998 0.0000
# 6 0.0000 0.0000 0.0000 0.0000 0.0000 39.3453
#
#
#
# Elastic Compliance Matrix: (Units=1/GPa)
#
#
# Indices 1 2 3 4 5 6 
#
# 1 0.012298 -0.003735 -0.002879 0.000000 0.000000 0.000000
# 2 -0.003735 0.015051 -0.006567 0.000000 0.000000 0.000000
# 3 -0.002879 -0.006567 0.014646 0.000000 0.000000 0.000000
# 4 0.000000 0.000000 0.000000 0.044999 0.000000 0.000000
# 5 0.000000 0.000000 0.000000 0.000000 0.032051 0.000000
# 6 0.000000 0.000000 0.000000 0.000000 0.000000 0.025416
#
#
# Mechanical properties :
#
#
# Convention : Reuss Voigt Hill
#
# Bulk Modulus (GPa) = 63.97244 64.07883 64.02564
# Shear Modulus (GPa) = 28.40332 29.75244 29.07788
#
# Velocity S-wave (km/s) = 3.68633 3.77287 3.72985
# Velocity P-wave (km/s) = 6.98034 7.04533 7.01291
#
# Compressibility (1/GPa) = 0.01563173
#
# Stress axis : x y z
#
# Youngs Moduli (GPa) = 81.31181 66.44123 68.27822
#
# Poissons Ratio (x) = 0.24816 0.19660
# Poissons Ratio (y) = 0.30371 0.44840
# Poissons Ratio (z) = 0.23412 0.43634
#
# Static dielectric constant tensor:
#      x y z
#    x 3.862270 0.000000 0.000000 
#    y 0.000000 3.771400 0.000000 
#    z 0.000000 0.000000 3.846120 
# 
# 
# High freq. dielectric constant tensor:
#      x y z
#    x 1.834230 0.000000 0.000000 
#    y 0.000000 1.812120 0.000000 
#    z 0.000000 0.000000 1.820750 
# 
# From -- ./inp_files/20789.got.cif
#   From: 2010.03.12/outbox.cif.g09.slc.cpg/sg65_11_cif.got.tgz:20789.got - 2010.04.10 20:52:16.
