data_PCOD8273391
_publ_section_title
;
Structure prediction by ZEFSAII (Michael W. Deem and Ramdas Pophale) SiO2 
 PCOD8273391
Probable space group: C M M M
;
_chemical_formula_sum "Si O2"
_cell_formula_units_Z 80
_cell_length_a 29.551759
_cell_length_b 9.187536
_cell_length_c 14.494167
_cell_angle_alpha 90.000000
_cell_angle_beta 90.000000
_cell_angle_gamma 90.000000
_cell_volume 3935.280115
_symmetry_space_group_name_H-M "C M M M"
_symmetry_group_IT_number 65
_symmetry_cell_setting 'orthorhombic'
loop_
_space_group_symop_operation_xyz
x,y,z
-x,-y,z
x,-y,-z
-x,y,-z
-x,-y,-z
x,y,-z
-x,y,z
x,-y,z
1/2+x,1/2+y,z
1/2-x,1/2-y,z
1/2+x,1/2-y,-z
1/2-x,1/2+y,-z
1/2-x,1/2-y,-z
1/2+x,1/2+y,-z
1/2-x,1/2+y,z
1/2+x,1/2-y,z
loop_
_atom_site_type_symbol
_atom_site_label
_atom_site_fract_x
_atom_site_fract_y
_atom_site_fract_z
Si Si1 0.117600 0.168224 0.608403
Si Si2 0.619330 0.832293 0.104619
Si Si3 0.793539 0.664583 0.609891
Si Si4 0.706969 0.663758 0.890040
Si Si5 0.052040 0.331798 0.735862
O O1 0.111137 0.189926 0.500000
O O2 0.161575 0.254101 0.645222
O O3 0.073262 0.232851 0.656273
O O4 0.123650 0.000000 0.634395
O O5 0.661109 0.739815 0.144680
O O6 0.575516 0.799830 0.166134
O O7 0.634110 0.000000 0.109016
O O8 0.607157 0.786633 0.000000
O O9 0.792108 0.664477 0.500000
O O10 0.793530 0.500000 0.648233
O O11 0.750000 0.750000 0.649207
O O12 0.708226 0.500000 0.851875
O O13 0.750000 0.750000 0.849329
O O14 0.708451 0.666965 0.000000
O O15 0.057795 0.500000 0.707262
O O16 0.000000 0.287844 0.746761
#
# Coordination Sequence:
#
# PCOD8273391 Si02
#       5
#    16  16  16  16  16
#     4  10  21  37  57  81 110 145 184 225 271 323
#     4   9  18  34  56  81 110 143 178 218 266 321
#     4   9  16  28  50  80 113 147 181 218 263 317
#     4   9  16  27  47  76 109 144 180 217 260 312
#     4  10  22  39  58  81 108 139 179 228 279 329
#
# _framework density 20.328921000000001
#
# number of rings (size 3 to 8) (size 9 to 14) (size 15 to 20)
#    0.000    2.600    0.000    1.800    0.000    8.000 
#    0.000    5.000    0.000    4.800    0.000    4.200 
#    0.000    0.000    0.000    0.000    0.000    0.000 
#
# Total GULP energy -496125.085470 kJ/mol
# GULP energy per Si atom -12403.127137 kJ/mol
# Density = 2.028265 g / cm^3
# Si number density = 20.328921 Si / 1000 Ang^3
#
#
#
# Elastic Constant Matrix: (Units=GPa)
#
#
# Indices 1 2 3 4 5 6 
#
# 1 192.3332 100.2857 47.5621 0.0000 0.0000 0.0000
# 2 100.2857 155.2659 45.8124 0.0000 0.0000 0.0000
# 3 47.5621 45.8124 46.8288 0.0000 0.0000 0.0000
# 4 0.0000 0.0000 0.0000 19.1137 0.0000 0.0000
# 5 0.0000 0.0000 0.0000 0.0000 -22.5446 0.0000
# 6 0.0000 0.0000 0.0000 0.0000 0.0000 37.4389
#
#
#
# Elastic Compliance Matrix: (Units=1/GPa)
#
#
# Indices 1 2 3 4 5 6 
#
# 1 0.008484 -0.004129 -0.004577 0.000000 0.000000 0.000000
# 2 -0.004129 0.011064 -0.006630 0.000000 0.000000 0.000000
# 3 -0.004577 -0.006630 0.032489 0.000000 0.000000 0.000000
# 4 0.000000 0.000000 0.000000 0.052318 0.000000 0.000000
# 5 0.000000 0.000000 0.000000 0.000000 -0.044357 0.000000
# 6 0.000000 0.000000 0.000000 0.000000 0.000000 0.026710
#
#
# Mechanical properties :
#
#
# Convention : Reuss Voigt Hill
#
# Bulk Modulus (GPa) = 46.80668 86.86093 66.83380
# Shear Modulus (GPa) = 40.15926 20.18611 30.17268
#
# Velocity S-wave (km/s) = 4.44945 3.15457 3.85674
# Velocity P-wave (km/s) = 7.03360 7.48925 7.26500
#
# Compressibility (1/GPa) = 0.02136447
#
# Stress axis : x y z
#
# Youngs Moduli (GPa) = 117.86285 90.38416 30.77939
#
# Poissons Ratio (x) = 0.37324 0.14089
# Poissons Ratio (y) = 0.48671 0.20406
# Poissons Ratio (z) = 0.53951 0.59921
#
# Static dielectric constant tensor:
#      x y z
#    x 3.676560 0.000000 0.000000 
#    y 0.000000 3.795590 0.000000 
#    z 0.000000 0.000000 3.416540 
# 
# 
# High freq. dielectric constant tensor:
#      x y z
#    x 1.790320 0.000000 0.000000 
#    y 0.000000 1.797800 0.000000 
#    z 0.000000 0.000000 1.782030 
# 
# From -- ./inp_files/57236.got.cif
#   From: 2010.03.12/outbox.cif.g09.slc.cpg/sg65_29_cif.got.tgz:57236.got - 2010.04.10 20:52:16.
