data_PCOD8273195
_publ_section_title
;
Structure prediction by ZEFSAII (Michael W. Deem and Ramdas Pophale) SiO2 
 PCOD8273195
Probable space group: C M M M
;
_chemical_formula_sum "Si O2"
_cell_formula_units_Z 88
_cell_length_a 20.850148
_cell_length_b 17.893764
_cell_length_c 12.549989
_cell_angle_alpha 90.000000
_cell_angle_beta 90.000000
_cell_angle_gamma 90.000000
_cell_volume 4682.245623
_symmetry_space_group_name_H-M "C M M M"
_symmetry_group_IT_number 65
_symmetry_cell_setting 'orthorhombic'
loop_
_space_group_symop_operation_xyz
x,y,z
-x,-y,z
x,-y,-z
-x,y,-z
-x,-y,-z
x,y,-z
-x,y,z
x,-y,z
1/2+x,1/2+y,z
1/2-x,1/2-y,z
1/2+x,1/2-y,-z
1/2-x,1/2+y,-z
1/2-x,1/2-y,-z
1/2+x,1/2+y,-z
1/2-x,1/2+y,z
1/2+x,1/2-y,z
loop_
_atom_site_type_symbol
_atom_site_label
_atom_site_fract_x
_atom_site_fract_y
_atom_site_fract_z
Si Si1 0.242053 0.914172 0.806109
Si Si2 0.114941 0.820856 0.193569
Si Si3 0.426135 0.219535 0.376528
Si Si4 0.663603 0.084301 0.378692
Si Si5 0.835023 0.585364 0.000000
Si Si6 0.000000 0.912157 0.120744
Si Si7 0.423638 0.780497 0.000000
O O1 0.183744 0.857891 0.820941
O O2 0.274593 0.897657 0.692620
O O3 0.218105 0.000000 0.814632
O O4 0.293212 0.895950 0.896738
O O5 0.109701 0.783387 0.309547
O O6 0.104104 0.758700 0.104501
O O7 0.062389 0.885637 0.183532
O O8 0.419284 0.241613 0.500000
O O9 0.500000 0.214299 0.340950
O O10 0.395080 0.139086 0.352220
O O11 0.686626 0.094193 0.500000
O O12 0.638904 0.000000 0.356295
O O13 0.898969 0.634685 0.000000
O O14 0.858158 0.500000 0.000000
O O15 0.000000 0.000000 0.116701
O O16 0.000000 0.878802 0.000000
O O17 0.500000 0.780777 0.000000
#
# Coordination Sequence:
#
# PCOD8273195 Si02
#       7
#    16  16  16  16   8   8   8
#     4  10  22  38  57  82 112 147 186 232 283 336
#     4  12  21  38  58  84 116 148 184 237 281 336
#     4  10  21  36  57  83 115 152 187 232 285 334
#     4   9  19  37  58  82 112 147 192 238 278 330
#     4  10  23  40  57  82 117 149 185 227 277 341
#     4  11  22  38  61  87 111 148 194 235 279 328
#     4  12  23  38  59  85 114 150 186 233 282 325
#
# _framework density 18.794401000000001
#
# number of rings (size 3 to 8) (size 9 to 14) (size 15 to 20)
#    0.000    1.545    2.727    2.182    0.000    4.909 
#    0.000    3.636    0.000    7.636    0.000    0.000 
#    0.000    0.000    0.000    0.000    0.000    0.000 
#
# Total GULP energy -545776.698942 kJ/mol
# GULP energy per Si atom -12404.015885 kJ/mol
# Density = 1.875162 g / cm^3
# Si number density = 18.794401 Si / 1000 Ang^3
#
#
#
# Elastic Constant Matrix: (Units=GPa)
#
#
# Indices 1 2 3 4 5 6 
#
# 1 96.8822 70.0387 41.4019 0.0000 0.0000 0.0000
# 2 70.0387 110.1754 52.4087 0.0000 0.0000 0.0000
# 3 41.4019 52.4087 97.2207 0.0000 0.0000 0.0000
# 4 0.0000 0.0000 0.0000 15.3184 0.0000 0.0000
# 5 0.0000 0.0000 0.0000 0.0000 -8.9438 0.0000
# 6 0.0000 0.0000 0.0000 0.0000 0.0000 30.9885
#
#
#
# Elastic Compliance Matrix: (Units=1/GPa)
#
#
# Indices 1 2 3 4 5 6 
#
# 1 0.019435 -0.011321 -0.002174 0.000000 0.000000 0.000000
# 2 -0.011321 0.018801 -0.005314 0.000000 0.000000 0.000000
# 3 -0.002174 -0.005314 0.014076 0.000000 0.000000 0.000000
# 4 0.000000 0.000000 0.000000 0.065281 0.000000 0.000000
# 5 0.000000 0.000000 0.000000 0.000000 -0.111810 0.000000
# 6 0.000000 0.000000 0.000000 0.000000 0.000000 0.032270
#
#
# Mechanical properties :
#
#
# Convention : Reuss Voigt Hill
#
# Bulk Modulus (GPa) = 68.05073 70.21967 69.13520
# Shear Modulus (GPa) = 62.05916 16.83455 39.44686
#
# Velocity S-wave (km/s) = 5.75254 2.99611 4.58630
# Velocity P-wave (km/s) = 8.96710 7.02937 8.05670
#
# Compressibility (1/GPa) = 0.01469492
#
# Stress axis : x y z
#
# Youngs Moduli (GPa) = 51.45413 53.18924 71.04203
#
# Poissons Ratio (x) = 0.60214 0.15443
# Poissons Ratio (y) = 0.58250 0.37751
# Poissons Ratio (z) = 0.11185 0.28265
#
# Static dielectric constant tensor:
#      x y z
#    x 3.337920 0.000000 0.000000 
#    y 0.000000 3.496830 0.000000 
#    z 0.000000 0.000000 3.633520 
# 
# 
# High freq. dielectric constant tensor:
#      x y z
#    x 1.724060 0.000000 0.000000 
#    y 0.000000 1.736540 0.000000 
#    z 0.000000 0.000000 1.740730 
# 
# From -- ./inp_files/28780.got.cif
#   From: 2010.03.12/outbox.cif.g09.slc.cpg/sg65_15_cif.got.tgz:28780.got - 2010.04.10 20:52:16.
