data_PCOD8273004
_publ_section_title
;
Structure prediction by ZEFSAII (Michael W. Deem and Ramdas Pophale) SiO2 
 PCOD8273004
Probable space group: C M M M
;
_chemical_formula_sum "Si O2"
_cell_formula_units_Z 88
_cell_length_a 9.184952
_cell_length_b 17.843490
_cell_length_c 28.874166
_cell_angle_alpha 90.000000
_cell_angle_beta 90.000000
_cell_angle_gamma 90.000000
_cell_volume 4732.233240
_symmetry_space_group_name_H-M "C M M M"
_symmetry_group_IT_number 65
_symmetry_cell_setting 'orthorhombic'
loop_
_space_group_symop_operation_xyz
x,y,z
-x,-y,z
x,-y,-z
-x,y,-z
-x,-y,-z
x,y,-z
-x,y,z
x,-y,z
1/2+x,1/2+y,z
1/2-x,1/2-y,z
1/2+x,1/2-y,-z
1/2-x,1/2+y,-z
1/2-x,1/2-y,-z
1/2+x,1/2+y,-z
1/2-x,1/2+y,z
1/2+x,1/2-y,z
loop_
_atom_site_type_symbol
_atom_site_label
_atom_site_fract_x
_atom_site_fract_y
_atom_site_fract_z
Si Si1 0.171987 0.085417 0.262772
Si Si2 0.666440 0.587815 0.919807
Si Si3 0.826880 0.584107 0.450962
Si Si4 0.673249 0.829559 0.000000
Si Si5 0.336087 0.910401 0.352119
Si Si6 0.669136 0.673242 0.173353
O O1 0.237111 0.119519 0.310186
O O2 0.229825 0.134656 0.219970
O O3 0.000000 0.088913 0.266362
O O4 0.224867 0.000000 0.255237
O O5 0.500000 0.606299 0.934479
O O6 0.695263 0.500000 0.920680
O O7 0.778518 0.625984 0.954558
O O8 0.699082 0.616511 0.868427
O O9 0.778894 0.624643 0.500000
O O10 0.764888 0.500000 0.453224
O O11 0.775148 0.621502 0.402068
O O12 0.000000 0.581226 0.448221
O O13 0.750000 0.750000 0.000000
O O14 0.500000 0.819651 0.000000
O O15 0.500000 0.882255 0.342818
O O16 0.331335 0.000000 0.354799
O O17 0.500000 0.691486 0.178466
O O18 0.750000 0.750000 0.163091
#
# Coordination Sequence:
#
# PCOD8273004 Si02
#       6
#    16  16  16   8  16  16
#     4   9  17  30  47  66  91 124 159 194 237 291
#     4  10  21  39  62  85 110 141 176 213 255 303
#     4   7   9  14  26  46  74 108 144 182 225 273
#     4  12  25  40  59  85 117 149 181 216 255 298
#     4   8  13  21  35  57  83 112 150 193 233 276
#     4  10  21  36  54  76 101 131 167 206 248 295
#
# _framework density 18.595870999999999
#
# number of rings (size 3 to 8) (size 9 to 14) (size 15 to 20)
#    0.000    2.909    0.000    3.818    0.000    6.545 
#    0.000    0.000    0.000    3.818    0.000    3.818 
#    0.000    0.727    0.000    1.636    0.000    4.364 
#
# Total GULP energy -545147.116013 kJ/mol
# GULP energy per Si atom -12389.707182 kJ/mol
# Density = 1.855355 g / cm^3
# Si number density = 18.595871 Si / 1000 Ang^3
#
#
#
# Elastic Constant Matrix: (Units=GPa)
#
#
# Indices 1 2 3 4 5 6 
#
# 1 56.2153 33.7363 51.0269 0.0000 0.0000 0.0000
# 2 33.7363 69.4938 44.7722 0.0000 0.0000 0.0000
# 3 51.0269 44.7722 165.5517 0.0000 0.0000 0.0000
# 4 0.0000 0.0000 0.0000 -4.2068 0.0000 0.0000
# 5 0.0000 0.0000 0.0000 0.0000 29.5422 0.0000
# 6 0.0000 0.0000 0.0000 0.0000 0.0000 18.9805
#
#
#
# Elastic Compliance Matrix: (Units=1/GPa)
#
#
# Indices 1 2 3 4 5 6 
#
# 1 0.029796 -0.010352 -0.006384 0.000000 0.000000 0.000000
# 2 -0.010352 0.021022 -0.002495 0.000000 0.000000 0.000000
# 3 -0.006384 -0.002495 0.008683 0.000000 0.000000 0.000000
# 4 0.000000 0.000000 0.000000 -0.237708 0.000000 0.000000
# 5 0.000000 0.000000 0.000000 0.000000 0.033850 0.000000
# 6 0.000000 0.000000 0.000000 0.000000 0.000000 0.052686
#
#
# Mechanical properties :
#
#
# Convention : Reuss Voigt Hill
#
# Bulk Modulus (GPa) = 47.52853 61.14796 54.33825
# Shear Modulus (GPa) = -108.23159 19.64488 -44.29336
#
# Velocity S-wave (km/s) = -7.63730 3.25377 -4.88576
# Velocity P-wave (km/s) = 7.22198 6.86076 1.59483
#
# Compressibility (1/GPa) = 0.02104000
#
# Stress axis : x y z
#
# Youngs Moduli (GPa) = 33.56145 47.56856 115.16896
#
# Poissons Ratio (x) = 0.49241 0.73528
# Poissons Ratio (y) = 0.34741 0.28732
# Poissons Ratio (z) = 0.21427 0.11867
#
# Static dielectric constant tensor:
#      x y z
#    x 3.177600 0.000000 0.000000 
#    y 0.000000 3.062770 0.000000 
#    z 0.000000 0.000000 3.975920 
# 
# 
# High freq. dielectric constant tensor:
#      x y z
#    x 1.690240 0.000000 0.000000 
#    y 0.000000 1.676470 0.000000 
#    z 0.000000 0.000000 1.754360 
# 
# From -- ./inp_files/76462.got.cif
#   From: 2010.03.12/outbox.cif.g09.slc.cpg/sg65_39_cif.got.tgz:76462.got - 2010.04.10 20:52:16.
