data_PCOD8273094
_publ_section_title
;
Structure prediction by ZEFSAII (Michael W. Deem and Ramdas Pophale) SiO2 
 PCOD8273094
Probable space group: C M M M
;
_chemical_formula_sum "Si O2"
_cell_formula_units_Z 88
_cell_length_a 8.932414
_cell_length_b 19.577991
_cell_length_c 27.530780
_cell_angle_alpha 90.000000
_cell_angle_beta 90.000000
_cell_angle_gamma 90.000000
_cell_volume 4814.547592
_symmetry_space_group_name_H-M "C M M M"
_symmetry_group_IT_number 65
_symmetry_cell_setting 'orthorhombic'
loop_
_space_group_symop_operation_xyz
x,y,z
-x,-y,z
x,-y,-z
-x,y,-z
-x,-y,-z
x,y,-z
-x,y,z
x,-y,z
1/2+x,1/2+y,z
1/2-x,1/2-y,z
1/2+x,1/2-y,-z
1/2-x,1/2+y,-z
1/2-x,1/2-y,-z
1/2+x,1/2+y,-z
1/2-x,1/2+y,z
1/2+x,1/2-y,z
loop_
_atom_site_type_symbol
_atom_site_label
_atom_site_fract_x
_atom_site_fract_y
_atom_site_fract_z
Si Si1 0.671019 0.080418 0.257521
Si Si2 0.676301 0.178793 0.554709
Si Si3 0.677468 0.919590 0.000000
Si Si4 0.173875 0.819021 0.812781
Si Si5 0.677884 0.075374 0.634354
Si Si6 0.177117 0.821200 0.924755
O O1 0.500000 0.102455 0.248562
O O2 0.774674 0.117008 0.218651
O O3 0.722802 0.101679 0.311933
O O4 0.690309 0.000000 0.250567
O O5 0.718009 0.155578 0.500000
O O6 0.500000 0.186842 0.560809
O O7 0.750000 0.250000 0.567992
O O8 0.743255 0.124247 0.592609
O O9 0.749477 0.884643 0.952679
O O10 0.500000 0.908130 0.000000
O O11 0.717414 0.000000 0.000000
O O12 0.250000 0.750000 0.793646
O O13 0.215988 0.833472 0.868536
O O14 0.000000 0.808440 0.805953
O O15 0.500000 0.071553 0.631092
O O16 0.745110 0.000000 0.625332
O O17 0.250000 0.750000 0.942745
O O18 0.000000 0.818505 0.934873
#
# Coordination Sequence:
#
# PCOD8273094 Si02
#       6
#    16  16   8  16  16  16
#     4   9  18  33  52  73 101 136 168 204 254 306
#     4   9  17  29  46  68  94 124 158 199 246 294
#     4  11  24  39  56  81 111 141 174 211 250 297
#     4  10  21  36  55  79 105 134 171 213 253 298
#     4   8  15  29  48  70  95 124 162 204 244 290
#     4  10  21  38  59  80 105 138 173 211 255 301
#
# _framework density 18.277937999999999
#
# number of rings (size 3 to 8) (size 9 to 14) (size 15 to 20)
#    0.000    2.636    0.000    2.727    0.000    5.091 
#    0.000    8.182    0.000    1.636    0.000    2.545 
#    0.000    0.000    0.000    0.000    0.000    0.000 
#
# Total GULP energy -545573.580114 kJ/mol
# GULP energy per Si atom -12399.399548 kJ/mol
# Density = 1.823634 g / cm^3
# Si number density = 18.277938 Si / 1000 Ang^3
#
#
#
# Elastic Constant Matrix: (Units=GPa)
#
#
# Indices 1 2 3 4 5 6 
#
# 1 59.1418 46.4280 42.0623 0.0000 0.0000 0.0000
# 2 46.4280 113.2110 79.1209 0.0000 0.0000 0.0000
# 3 42.0623 79.1209 121.8550 0.0000 0.0000 0.0000
# 4 0.0000 0.0000 0.0000 36.8722 0.0000 0.0000
# 5 0.0000 0.0000 0.0000 0.0000 22.0838 0.0000
# 6 0.0000 0.0000 0.0000 0.0000 0.0000 31.8929
#
#
#
# Elastic Compliance Matrix: (Units=1/GPa)
#
#
# Indices 1 2 3 4 5 6 
#
# 1 0.025831 -0.007986 -0.003731 0.000000 0.000000 0.000000
# 2 -0.007986 0.018640 -0.009347 0.000000 0.000000 0.000000
# 3 -0.003731 -0.009347 0.015563 0.000000 0.000000 0.000000
# 4 0.000000 0.000000 0.000000 0.027121 0.000000 0.000000
# 5 0.000000 0.000000 0.000000 0.000000 0.045282 0.000000
# 6 0.000000 0.000000 0.000000 0.000000 0.000000 0.031355
#
#
# Mechanical properties :
#
#
# Convention : Reuss Voigt Hill
#
# Bulk Modulus (GPa) = 55.84287 69.93669 62.88978
# Shear Modulus (GPa) = 23.59728 26.60956 25.10342
#
# Velocity S-wave (km/s) = 3.59698 3.81967 3.71000
# Velocity P-wave (km/s) = 6.91877 7.60258 7.26872
#
# Compressibility (1/GPa) = 0.01790739
#
# Stress axis : x y z
#
# Youngs Moduli (GPa) = 38.71269 53.64764 64.25380
#
# Poissons Ratio (x) = 0.42841 0.23976
# Poissons Ratio (y) = 0.30915 0.60055
# Poissons Ratio (z) = 0.14445 0.50142
#
# Static dielectric constant tensor:
#      x y z
#    x 3.203510 0.000000 0.000000 
#    y 0.000000 3.482430 0.000000 
#    z 0.000000 0.000000 3.564440 
# 
# 
# High freq. dielectric constant tensor:
#      x y z
#    x 1.692920 0.000000 0.000000 
#    y 0.000000 1.706940 0.000000 
#    z 0.000000 0.000000 1.718140 
# 
# From -- ./inp_files/70992.got.cif
#   From: 2010.03.12/outbox.cif.g09.slc.cpg/sg65_36_cif.got.tgz:70992.got - 2010.04.10 20:52:16.
