data_PCOD8273544
_publ_section_title
;
Structure prediction by ZEFSAII (Michael W. Deem and Ramdas Pophale) SiO2 
 PCOD8273544
Probable space group: C M M M
;
_chemical_formula_sum "Si O2"
_cell_formula_units_Z 72
_cell_length_a 28.462451
_cell_length_b 14.739028
_cell_length_c 8.862419
_cell_angle_alpha 90.000000
_cell_angle_beta 90.000000
_cell_angle_gamma 90.000000
_cell_volume 3717.863311
_symmetry_space_group_name_H-M "C M M M"
_symmetry_group_IT_number 65
_symmetry_cell_setting 'orthorhombic'
loop_
_space_group_symop_operation_xyz
x,y,z
-x,-y,z
x,-y,-z
-x,y,-z
-x,-y,-z
x,y,-z
-x,y,z
x,-y,z
1/2+x,1/2+y,z
1/2-x,1/2-y,z
1/2+x,1/2-y,-z
1/2-x,1/2+y,-z
1/2-x,1/2-y,-z
1/2+x,1/2+y,-z
1/2-x,1/2+y,z
1/2+x,1/2-y,z
loop_
_atom_site_type_symbol
_atom_site_label
_atom_site_fract_x
_atom_site_fract_y
_atom_site_fract_z
Si Si1 0.293348 0.000000 0.828374
Si Si2 0.638294 0.659695 0.174232
Si Si3 0.055221 0.500000 0.678970
Si Si4 0.804371 0.000000 0.676541
Si Si5 0.874006 0.362668 0.175947
Si Si6 0.550972 0.393878 0.335249
O O1 0.250424 0.000000 0.713533
O O2 0.325279 0.086664 0.795759
O O3 0.274224 0.000000 0.000000
O O4 0.673193 0.592604 0.260860
O O5 0.638500 0.762458 0.236665
O O6 0.585016 0.628740 0.198058
O O7 0.652332 0.655209 0.000000
O O8 0.058838 0.500000 0.500000
O O9 0.081957 0.409849 0.739683
O O10 0.000000 0.500000 0.729269
O O11 0.812822 0.000000 0.500000
O O12 0.887743 0.361918 0.000000
O O13 0.569269 0.358556 0.500000
O O14 0.500000 0.349929 0.300681
O O15 0.545441 0.500000 0.345446
#
# Coordination Sequence:
#
# PCOD8273544 Si02
#       6
#     8  16   8   8  16  16
#     4   9  19  41  64  81 106 144 188 234 288 346
#     4  11  22  37  58  86 115 148 193 239 282 335
#     4  10  21  37  60  91 123 156 193 232 278 335
#     4  12  25  39  57  83 116 150 186 233 290 347
#     4   9  21  40  62  86 115 151 190 236 288 337
#     4   9  18  33  52  75 109 151 187 223 274 330
#
# _framework density 19.365962
#
# number of rings (size 3 to 8) (size 9 to 14) (size 15 to 20)
#    0.000    2.111    1.111    3.333    0.000    6.667 
#    0.000   10.000    0.000    0.000    0.000    0.000 
#    0.000    0.000    0.000    0.000    0.000    0.000 
#
# Total GULP energy -446141.008036 kJ/mol
# GULP energy per Si atom -12392.805779 kJ/mol
# Density = 1.932188 g / cm^3
# Si number density = 19.365962 Si / 1000 Ang^3
#
#
#
# Elastic Constant Matrix: (Units=GPa)
#
#
# Indices 1 2 3 4 5 6 
#
# 1 126.3277 62.3703 46.6082 0.0000 0.0000 0.0000
# 2 62.3703 136.2950 46.5905 0.0000 0.0000 0.0000
# 3 46.6082 46.5905 79.1556 0.0000 0.0000 0.0000
# 4 0.0000 0.0000 0.0000 17.5940 0.0000 0.0000
# 5 0.0000 0.0000 0.0000 0.0000 28.6914 0.0000
# 6 0.0000 0.0000 0.0000 0.0000 0.0000 -20.1468
#
#
#
# Elastic Compliance Matrix: (Units=1/GPa)
#
#
# Indices 1 2 3 4 5 6 
#
# 1 0.011406 -0.003660 -0.004562 0.000000 0.000000 0.000000
# 2 -0.003660 0.010360 -0.003942 0.000000 0.000000 0.000000
# 3 -0.004562 -0.003942 0.017640 0.000000 0.000000 0.000000
# 4 0.000000 0.000000 0.000000 0.056838 0.000000 0.000000
# 5 0.000000 0.000000 0.000000 0.000000 0.034854 0.000000
# 6 0.000000 0.000000 0.000000 0.000000 0.000000 -0.049636
#
#
# Mechanical properties :
#
#
# Convention : Reuss Voigt Hill
#
# Bulk Modulus (GPa) = 66.32681 72.54627 69.43654
# Shear Modulus (GPa) = 45.12003 17.64167 31.38085
#
# Velocity S-wave (km/s) = 4.83210 3.02149 4.02980
# Velocity P-wave (km/s) = 8.09048 7.05086 7.58849
#
# Compressibility (1/GPa) = 0.01507686
#
# Stress axis : x y z
#
# Youngs Moduli (GPa) = 87.67275 96.52839 56.68983
#
# Poissons Ratio (x) = 0.35331 0.25860
# Poissons Ratio (y) = 0.32090 0.22350
# Poissons Ratio (z) = 0.39994 0.38056
#
# Static dielectric constant tensor:
#      x y z
#    x 3.628370 0.000000 0.000000 
#    y 0.000000 3.921630 0.000000 
#    z 0.000000 0.000000 3.531910 
# 
# 
# High freq. dielectric constant tensor:
#      x y z
#    x 1.755810 0.000000 0.000000 
#    y 0.000000 1.754200 0.000000 
#    z 0.000000 0.000000 1.748810 
# 
# From -- ./inp_files/7357.got.cif
#   From: 2010.03.12/outbox.cif.g09.slc.cpg/sg65_4_cif.got.tgz:7357.got - 2010.04.10 20:52:16.
