data_PCOD8273956
_publ_section_title
;
Structure prediction by ZEFSAII (Michael W. Deem and Ramdas Pophale) SiO2 
 PCOD8273956
Probable space group: C M M M
;
_chemical_formula_sum "Si O2"
_cell_formula_units_Z 64
_cell_length_a 10.650261
_cell_length_b 25.744251
_cell_length_c 11.395500
_cell_angle_alpha 90.000000
_cell_angle_beta 90.000000
_cell_angle_gamma 90.000000
_cell_volume 3124.452290
_symmetry_space_group_name_H-M "C M M M"
_symmetry_group_IT_number 65
_symmetry_cell_setting 'orthorhombic'
loop_
_space_group_symop_operation_xyz
x,y,z
-x,-y,z
x,-y,-z
-x,y,-z
-x,-y,-z
x,y,-z
-x,y,z
x,-y,z
1/2+x,1/2+y,z
1/2-x,1/2-y,z
1/2+x,1/2-y,-z
1/2-x,1/2+y,-z
1/2-x,1/2-y,-z
1/2+x,1/2+y,-z
1/2-x,1/2+y,z
1/2+x,1/2-y,z
loop_
_atom_site_type_symbol
_atom_site_label
_atom_site_fract_x
_atom_site_fract_y
_atom_site_fract_z
Si Si1 0.247776 0.367632 0.692819
Si Si2 0.645062 0.942515 0.500000
Si Si3 0.354414 0.443727 0.872261
Si Si4 0.145438 0.795229 0.500000
Si Si5 0.640245 0.790325 0.866463
O O1 0.177336 0.409638 0.614554
O O2 0.336500 0.398344 0.780100
O O3 0.334076 0.329634 0.615601
O O4 0.147654 0.336448 0.771882
O O5 0.500000 0.952800 0.500000
O O6 0.711501 0.000000 0.500000
O O7 0.500000 0.450874 0.888102
O O8 0.297843 0.500000 0.831575
O O9 0.296052 0.428804 0.000000
O O10 0.250000 0.750000 0.500000
O O11 0.000000 0.774297 0.500000
O O12 0.500000 0.765495 0.854024
O O13 0.750000 0.750000 0.834511
O O14 0.659550 0.810560 0.000000
#
# Coordination Sequence:
#
# PCOD8273956 Si02
#       5
#    16   8  16   8  16
#     4  11  21  36  60  82 110 148 192 233 280 335
#     4  10  22  38  55  79 110 146 190 236 280 327
#     4   9  18  33  55  85 118 148 180 222 273 332
#     4  11  26  42  58  82 113 150 194 244 291 336
#     4  10  22  39  59  86 118 150 187 233 285 341
#
# _framework density 20.48359
#
# number of rings (size 3 to 8) (size 9 to 14) (size 15 to 20)
#    0.000    1.875    0.000    4.500    0.000    7.000 
#    0.000    2.500    0.000    6.000    0.000   10.500 
#    0.000    0.000    0.000    0.000    0.000    0.000 
#
# Total GULP energy -396508.534588 kJ/mol
# GULP energy per Si atom -12390.891706 kJ/mol
# Density = 2.043697 g / cm^3
# Si number density = 20.483590 Si / 1000 Ang^3
#
#
#
# Elastic Constant Matrix: (Units=GPa)
#
#
# Indices 1 2 3 4 5 6 
#
# 1 112.1546 58.3937 42.3230 0.0000 0.0000 0.0000
# 2 58.3937 138.0174 81.0219 0.0000 0.0000 0.0000
# 3 42.3230 81.0219 138.5604 0.0000 0.0000 0.0000
# 4 0.0000 0.0000 0.0000 48.3989 0.0000 0.0000
# 5 0.0000 0.0000 0.0000 0.0000 13.4300 0.0000
# 6 0.0000 0.0000 0.0000 0.0000 0.0000 30.1788
#
#
#
# Elastic Compliance Matrix: (Units=1/GPa)
#
#
# Indices 1 2 3 4 5 6 
#
# 1 0.011529 -0.004280 -0.001019 0.000000 0.000000 0.000000
# 2 -0.004280 0.012621 -0.006073 0.000000 0.000000 0.000000
# 3 -0.001019 -0.006073 0.011079 0.000000 0.000000 0.000000
# 4 0.000000 0.000000 0.000000 0.020662 0.000000 0.000000
# 5 0.000000 0.000000 0.000000 0.000000 0.074460 0.000000
# 6 0.000000 0.000000 0.000000 0.000000 0.000000 0.033136
#
#
# Mechanical properties :
#
#
# Convention : Reuss Voigt Hill
#
# Bulk Modulus (GPa) = 80.08668 83.57882 81.83275
# Shear Modulus (GPa) = 26.26155 32.20112 29.23134
#
# Velocity S-wave (km/s) = 3.58450 3.96920 3.78174
# Velocity P-wave (km/s) = 7.50429 7.86750 7.68804
#
# Compressibility (1/GPa) = 0.01248647
#
# Stress axis : x y z
#
# Youngs Moduli (GPa) = 86.73788 79.23208 90.25734
#
# Poissons Ratio (x) = 0.33908 0.09198
# Poissons Ratio (y) = 0.37120 0.54813
# Poissons Ratio (z) = 0.08839 0.48117
#
# Static dielectric constant tensor:
#      x y z
#    x 3.420720 0.000000 0.000000 
#    y 0.000000 3.811060 0.000000 
#    z 0.000000 0.000000 5.964520 
# 
# 
# High freq. dielectric constant tensor:
#      x y z
#    x 1.779000 0.000000 0.000000 
#    y 0.000000 1.803170 0.000000 
#    z 0.000000 0.000000 1.822670 
# 
# From -- ./inp_files/22244.got.cif
#   From: 2010.03.12/outbox.cif.g09.slc.cpg/sg65_12_cif.got.tgz:22244.got - 2010.04.10 20:52:16.
