data_PCOD8273047
_publ_section_title
;
Structure prediction by ZEFSAII (Michael W. Deem and Ramdas Pophale) SiO2 
 PCOD8273047
Probable space group: C M M M
;
_chemical_formula_sum "Si O2"
_cell_formula_units_Z 88
_cell_length_a 9.750428
_cell_length_b 20.600111
_cell_length_c 22.078305
_cell_angle_alpha 90.000000
_cell_angle_beta 90.000000
_cell_angle_gamma 90.000000
_cell_volume 4434.646115
_symmetry_space_group_name_H-M "C M M M"
_symmetry_group_IT_number 65
_symmetry_cell_setting 'orthorhombic'
loop_
_space_group_symop_operation_xyz
x,y,z
-x,-y,z
x,-y,-z
-x,y,-z
-x,-y,-z
x,y,-z
-x,y,z
x,-y,z
1/2+x,1/2+y,z
1/2-x,1/2-y,z
1/2+x,1/2-y,-z
1/2-x,1/2+y,-z
1/2-x,1/2-y,-z
1/2+x,1/2+y,-z
1/2-x,1/2+y,z
1/2+x,1/2-y,z
loop_
_atom_site_type_symbol
_atom_site_label
_atom_site_fract_x
_atom_site_fract_y
_atom_site_fract_z
Si Si1 0.847000 0.886755 0.791305
Si Si2 0.660901 0.575392 0.000000
Si Si3 0.158710 0.187241 0.908150
Si Si4 0.340042 0.000000 0.767679
Si Si5 0.656122 0.390153 0.430474
Si Si6 0.838359 0.500000 0.624826
Si Si7 0.149081 0.195889 0.677687
O O1 0.821534 0.826706 0.836794
O O2 0.836272 0.865228 0.721720
O O3 0.000000 0.915809 0.803322
O O4 0.728894 0.939154 0.800802
O O5 0.704575 0.620351 0.057630
O O6 0.723651 0.500000 0.000000
O O7 0.500000 0.565320 0.000000
O O8 0.250000 0.250000 0.926777
O O9 0.000000 0.203646 0.923934
O O10 0.500000 0.000000 0.782122
O O11 0.309219 0.000000 0.696222
O O12 0.684626 0.372834 0.500000
O O13 0.500000 0.417323 0.421915
O O14 0.769959 0.439012 0.407110
O O15 0.675908 0.325120 0.391426
O O16 0.000000 0.500000 0.611346
O O17 0.250000 0.250000 0.700415
O O18 0.000000 0.227555 0.683617
#
# Coordination Sequence:
#
# PCOD8273047 Si02
#       7
#    16   8  16   8  16   8  16
#     4  10  21  37  59  85 112 150 194 232 281 346
#     4   9  19  36  59  91 126 161 204 248 287 338
#     4  10  21  37  62  91 121 161 202 244 292 344
#     4  11  23  36  56  86 117 148 182 235 298 346
#     4  10  21  37  56  77 104 142 183 222 272 337
#     4  11  22  36  55  82 109 137 175 225 284 337
#     4  10  21  36  54  77 106 140 182 230 277 330
#
# _framework density 19.843748000000001
#
# number of rings (size 3 to 8) (size 9 to 14) (size 15 to 20)
#    0.000    1.909    1.818    1.636    1.273    4.727 
#    0.000    0.000    0.000    0.545    0.000    0.000 
#    0.000    0.000    0.000    0.000    0.000    0.000 
#
# Total GULP energy -545305.179864 kJ/mol
# GULP energy per Si atom -12393.299542 kJ/mol
# Density = 1.979858 g / cm^3
# Si number density = 19.843748 Si / 1000 Ang^3
#
#
#
# Elastic Constant Matrix: (Units=GPa)
#
#
# Indices 1 2 3 4 5 6 
#
# 1 112.7992 68.4854 31.4620 0.0000 0.0000 0.0000
# 2 68.4854 114.2039 31.5944 0.0000 0.0000 0.0000
# 3 31.4620 31.5944 86.4405 0.0000 0.0000 0.0000
# 4 0.0000 0.0000 0.0000 19.5972 0.0000 0.0000
# 5 0.0000 0.0000 0.0000 0.0000 18.4585 0.0000
# 6 0.0000 0.0000 0.0000 0.0000 0.0000 32.8377
#
#
#
# Elastic Compliance Matrix: (Units=1/GPa)
#
#
# Indices 1 2 3 4 5 6 
#
# 1 0.014344 -0.007963 -0.002311 0.000000 0.000000 0.000000
# 2 -0.007963 0.014162 -0.002278 0.000000 0.000000 0.000000
# 3 -0.002311 -0.002278 0.013242 0.000000 0.000000 0.000000
# 4 0.000000 0.000000 0.000000 0.051028 0.000000 0.000000
# 5 0.000000 0.000000 0.000000 0.000000 0.054176 0.000000
# 6 0.000000 0.000000 0.000000 0.000000 0.000000 0.030453
#
#
# Mechanical properties :
#
#
# Convention : Reuss Voigt Hill
#
# Bulk Modulus (GPa) = 60.07546 64.05858 62.06702
# Shear Modulus (GPa) = 24.03209 26.30544 25.16876
#
# Velocity S-wave (km/s) = 3.48381 3.64487 3.56525
# Velocity P-wave (km/s) = 6.82075 7.07566 6.94937
#
# Compressibility (1/GPa) = 0.01664573
#
# Stress axis : x y z
#
# Youngs Moduli (GPa) = 69.71415 70.61398 75.51621
#
# Poissons Ratio (x) = 0.56228 0.17448
# Poissons Ratio (y) = 0.55511 0.17202
# Poissons Ratio (z) = 0.16108 0.16085
#
# Static dielectric constant tensor:
#      x y z
#    x 3.559480 0.000000 0.000000 
#    y 0.000000 3.298350 0.000000 
#    z 0.000000 0.000000 3.718410 
# 
# 
# High freq. dielectric constant tensor:
#      x y z
#    x 1.762410 0.000000 0.000000 
#    y 0.000000 1.757860 0.000000 
#    z 0.000000 0.000000 1.784930 
# 
# From -- ./inp_files/59925.got.cif
#   From: 2010.03.12/outbox.cif.g09.slc.cpg/sg65_30_cif.got.tgz:59925.got - 2010.04.10 20:52:16.
