data_PCOD8273866
_publ_section_title
;
Structure prediction by ZEFSAII (Michael W. Deem and Ramdas Pophale) SiO2 
 PCOD8273866
Probable space group: C M M M
;
_chemical_formula_sum "Si O2"
_cell_formula_units_Z 72
_cell_length_a 15.929127
_cell_length_b 9.342920
_cell_length_c 23.263954
_cell_angle_alpha 90.000000
_cell_angle_beta 90.000000
_cell_angle_gamma 90.000000
_cell_volume 3462.247700
_symmetry_space_group_name_H-M "C M M M"
_symmetry_group_IT_number 65
_symmetry_cell_setting 'orthorhombic'
loop_
_space_group_symop_operation_xyz
x,y,z
-x,-y,z
x,-y,-z
-x,y,-z
-x,-y,-z
x,y,-z
-x,y,z
x,-y,z
1/2+x,1/2+y,z
1/2-x,1/2-y,z
1/2+x,1/2-y,-z
1/2-x,1/2+y,-z
1/2-x,1/2-y,-z
1/2+x,1/2+y,-z
1/2-x,1/2+y,z
1/2+x,1/2-y,z
loop_
_atom_site_type_symbol
_atom_site_label
_atom_site_fract_x
_atom_site_fract_y
_atom_site_fract_z
Si Si1 0.333786 0.827708 0.367006
Si Si2 0.885396 0.500000 0.065015
Si Si3 0.408638 0.721053 0.132443
Si Si4 0.500000 0.169278 0.564399
Si Si5 0.688718 0.500000 0.936401
Si Si6 0.097848 0.167365 0.738908
O O1 0.250000 0.750000 0.392335
O O2 0.414623 0.779378 0.404445
O O3 0.347668 0.765180 0.303435
O O4 0.322494 0.000000 0.365805
O O5 0.920022 0.371275 0.102313
O O6 0.786926 0.500000 0.060366
O O7 0.922657 0.500000 0.000000
O O8 0.500000 0.643159 0.131353
O O9 0.339208 0.639698 0.096598
O O10 0.378806 0.728097 0.198297
O O11 0.500000 0.233128 0.500000
O O12 0.500000 0.000000 0.562894
O O13 0.648929 0.500000 0.000000
O O14 0.000000 0.189378 0.724999
O O15 0.122893 0.000000 0.733604
#
# Coordination Sequence:
#
# PCOD8273866 Si02
#       6
#    16   8  16   8   8  16
#     4  11  23  40  66 100 134 179 224 267 325 383
#     4  11  25  41  57  85 123 159 197 256 321 380
#     4  11  23  40  62  88 114 155 204 259 315 377
#     4   9  20  42  69  99 139 183 224 271 318 371
#     4  11  23  41  61  81 115 157 203 252 317 386
#     4  10  21  40  63  89 127 164 208 273 333 383
#
# _framework density 20.795739999999999
#
# number of rings (size 3 to 8) (size 9 to 14) (size 15 to 20)
#    0.000    1.444    2.222    2.667    1.556    6.667 
#    0.000    0.000    0.000    4.667    0.000    0.000 
#    0.000    0.000    0.000    0.000    0.000    0.000 
#
# Total GULP energy -446294.627945 kJ/mol
# GULP energy per Si atom -12397.072998 kJ/mol
# Density = 2.074841 g / cm^3
# Si number density = 20.795740 Si / 1000 Ang^3
#
#
#
# Elastic Constant Matrix: (Units=GPa)
#
#
# Indices 1 2 3 4 5 6 
#
# 1 130.3954 37.7310 62.6221 0.0000 0.0000 0.0000
# 2 37.7310 110.4552 43.6113 0.0000 0.0000 0.0000
# 3 62.6221 43.6113 146.7590 0.0000 0.0000 0.0000
# 4 0.0000 0.0000 0.0000 23.7586 0.0000 0.0000
# 5 0.0000 0.0000 0.0000 0.0000 20.4522 0.0000
# 6 0.0000 0.0000 0.0000 0.0000 0.0000 -15.8361
#
#
#
# Elastic Compliance Matrix: (Units=1/GPa)
#
#
# Indices 1 2 3 4 5 6 
#
# 1 0.010008 -0.001963 -0.003687 0.000000 0.000000 0.000000
# 2 -0.001963 0.010642 -0.002325 0.000000 0.000000 0.000000
# 3 -0.003687 -0.002325 0.009078 0.000000 0.000000 0.000000
# 4 0.000000 0.000000 0.000000 0.042090 0.000000 0.000000
# 5 0.000000 0.000000 0.000000 0.000000 0.048894 0.000000
# 6 0.000000 0.000000 0.000000 0.000000 0.000000 -0.063147
#
#
# Mechanical properties :
#
#
# Convention : Reuss Voigt Hill
#
# Bulk Modulus (GPa) = 72.57838 75.05978 73.81908
# Shear Modulus (GPa) = 64.01495 21.91797 42.96646
#
# Velocity S-wave (km/s) = 5.55424 3.25000 4.55039
# Velocity P-wave (km/s) = 8.72405 7.08911 7.94873
#
# Compressibility (1/GPa) = 0.01377821
#
# Stress axis : x y z
#
# Youngs Moduli (GPa) = 99.92409 93.96863 110.15675
#
# Poissons Ratio (x) = 0.18444 0.40614
# Poissons Ratio (y) = 0.19613 0.25610
# Poissons Ratio (z) = 0.36842 0.21846
#
# Static dielectric constant tensor:
#      x y z
#    x 3.847560 0.000000 0.000000 
#    y 0.000000 3.549860 0.000000 
#    z 0.000000 0.000000 3.909610 
# 
# 
# High freq. dielectric constant tensor:
#      x y z
#    x 1.829120 0.000000 0.000000 
#    y 0.000000 1.806340 0.000000 
#    z 0.000000 0.000000 1.813130 
# 
# From -- ./inp_files/74661.got.cif
#   From: 2010.03.12/outbox.cif.g09.slc.cpg/sg65_38_cif.got.tgz:74661.got - 2010.04.10 20:52:16.
