data_PCOD8273419
_publ_section_title
;
Structure prediction by ZEFSAII (Michael W. Deem and Ramdas Pophale) SiO2 
 PCOD8273419
Probable space group: C M M M
;
_chemical_formula_sum "Si O2"
_cell_formula_units_Z 104
_cell_length_a 20.346961
_cell_length_b 9.087554
_cell_length_c 29.757178
_cell_angle_alpha 90.000000
_cell_angle_beta 90.000000
_cell_angle_gamma 90.000000
_cell_volume 5502.224420
_symmetry_space_group_name_H-M "C M M M"
_symmetry_group_IT_number 65
_symmetry_cell_setting 'orthorhombic'
loop_
_space_group_symop_operation_xyz
x,y,z
-x,-y,z
x,-y,-z
-x,y,-z
-x,-y,-z
x,y,-z
-x,y,z
x,-y,z
1/2+x,1/2+y,z
1/2-x,1/2-y,z
1/2+x,1/2-y,-z
1/2-x,1/2+y,-z
1/2-x,1/2-y,-z
1/2+x,1/2+y,-z
1/2-x,1/2+y,z
1/2+x,1/2-y,z
loop_
_atom_site_type_symbol
_atom_site_label
_atom_site_fract_x
_atom_site_fract_y
_atom_site_fract_z
Si Si1 0.921995 0.835010 0.289936
Si Si2 0.183951 0.672664 0.551194
Si Si3 0.368924 0.673238 0.051972
Si Si4 0.424938 0.827042 0.621321
Si Si5 0.812718 0.673272 0.867639
Si Si6 0.425037 0.828981 0.201504
Si Si7 0.500000 0.163713 0.052730
O O1 0.896916 0.750147 0.333990
O O2 0.897120 0.756087 0.244835
O O3 0.000000 0.833428 0.289892
O O4 0.893712 0.000000 0.290855
O O5 0.169400 0.720369 0.500000
O O6 0.195422 0.500000 0.555332
O O7 0.250000 0.750000 0.569226
O O8 0.121114 0.723294 0.580183
O O9 0.371080 0.500000 0.061023
O O10 0.315380 0.752512 0.082972
O O11 0.437445 0.743669 0.067698
O O12 0.352872 0.707699 0.000000
O O13 0.500000 0.778954 0.610407
O O14 0.421186 0.000000 0.629640
O O15 0.801495 0.500000 0.872375
O O16 0.750000 0.750000 0.843501
O O17 0.878538 0.711169 0.840154
O O18 0.500000 0.782693 0.189285
O O19 0.421513 0.000000 0.213439
O O20 0.500000 0.000000 0.075665
O O21 0.500000 0.141702 0.000000
#
# Coordination Sequence:
#
# PCOD8273419 Si02
#       7
#    16  16  16  16  16  16   8
#     4   9  17  30  51  80 109 135 167 212 264 316
#     4   9  18  32  49  70  99 137 179 220 263 312
#     4  10  21  37  57  82 112 145 182 224 269 317
#     4   9  17  30  50  75 103 135 171 215 264 312
#     4  11  24  40  59  82 112 146 180 222 271 324
#     4   9  19  37  60  83 106 137 177 218 263 319
#     4   9  17  31  53  81 111 141 175 217 263 309
#
# _framework density 18.901447000000001
#
# number of rings (size 3 to 8) (size 9 to 14) (size 15 to 20)
#    0.000    2.538    0.000    1.615    1.077    6.154 
#    0.000    2.308    0.000    0.000    0.000    4.308 
#    0.000    0.000    0.000    0.000    0.000    0.000 
#
# Total GULP energy -644757.030999 kJ/mol
# GULP energy per Si atom -12399.173673 kJ/mol
# Density = 1.885843 g / cm^3
# Si number density = 18.901447 Si / 1000 Ang^3
#
#
#
# Elastic Constant Matrix: (Units=GPa)
#
#
# Indices 1 2 3 4 5 6 
#
# 1 99.8940 48.0183 60.1736 0.0000 0.0000 0.0000
# 2 48.0183 88.5937 58.6897 0.0000 0.0000 0.0000
# 3 60.1736 58.6897 113.7770 0.0000 0.0000 0.0000
# 4 0.0000 0.0000 0.0000 25.1953 0.0000 0.0000
# 5 0.0000 0.0000 0.0000 0.0000 12.3404 0.0000
# 6 0.0000 0.0000 0.0000 0.0000 0.0000 29.7408
#
#
#
# Elastic Compliance Matrix: (Units=1/GPa)
#
#
# Indices 1 2 3 4 5 6 
#
# 1 0.015841 -0.004612 -0.005999 0.000000 0.000000 0.000000
# 2 -0.004612 0.018490 -0.007098 0.000000 0.000000 0.000000
# 3 -0.005999 -0.007098 0.015623 0.000000 0.000000 0.000000
# 4 0.000000 0.000000 0.000000 0.039690 0.000000 0.000000
# 5 0.000000 0.000000 0.000000 0.000000 0.081034 0.000000
# 6 0.000000 0.000000 0.000000 0.000000 0.000000 0.033624
#
#
# Mechanical properties :
#
#
# Convention : Reuss Voigt Hill
#
# Bulk Modulus (GPa) = 68.79687 70.66977 69.73332
# Shear Modulus (GPa) = 20.44438 22.48085 21.46261
#
# Velocity S-wave (km/s) = 3.29238 3.45247 3.37338
# Velocity P-wave (km/s) = 7.13651 7.30496 7.22122
#
# Compressibility (1/GPa) = 0.01453555
#
# Stress axis : x y z
#
# Youngs Moduli (GPa) = 63.12664 54.08462 64.00667
#
# Poissons Ratio (x) = 0.24943 0.38398
# Poissons Ratio (y) = 0.29114 0.45434
# Poissons Ratio (z) = 0.37870 0.38391
#
# Static dielectric constant tensor:
#      x y z
#    x 3.474230 0.000000 0.000000 
#    y 0.000000 3.508050 0.000000 
#    z 0.000000 0.000000 3.481290 
# 
# 
# High freq. dielectric constant tensor:
#      x y z
#    x 1.718710 0.000000 0.000000 
#    y 0.000000 1.737260 0.000000 
#    z 0.000000 0.000000 1.728960 
# 
# From -- ./inp_files/75476.got.cif
#   From: 2010.03.12/outbox.cif.g09.slc.cpg/sg65_38_cif.got.tgz:75476.got - 2010.04.10 20:52:16.
