data_PCOD8273999
_publ_section_title
;
Structure prediction by ZEFSAII (Michael W. Deem and Ramdas Pophale) SiO2 
 PCOD8273999
Probable space group: C M M M
;
_chemical_formula_sum "Si O2"
_cell_formula_units_Z 104
_cell_length_a 21.318973
_cell_length_b 17.276086
_cell_length_c 14.265349
_cell_angle_alpha 90.000000
_cell_angle_beta 90.000000
_cell_angle_gamma 90.000000
_cell_volume 5254.048022
_symmetry_space_group_name_H-M "C M M M"
_symmetry_group_IT_number 65
_symmetry_cell_setting 'orthorhombic'
loop_
_space_group_symop_operation_xyz
x,y,z
-x,-y,z
x,-y,-z
-x,y,-z
-x,-y,-z
x,y,-z
-x,y,z
x,-y,z
1/2+x,1/2+y,z
1/2-x,1/2-y,z
1/2+x,1/2-y,-z
1/2-x,1/2+y,-z
1/2-x,1/2-y,-z
1/2+x,1/2+y,-z
1/2-x,1/2+y,z
1/2+x,1/2-y,z
loop_
_atom_site_type_symbol
_atom_site_label
_atom_site_fract_x
_atom_site_fract_y
_atom_site_fract_z
Si Si1 0.868398 0.159770 0.388709
Si Si2 0.729158 0.412747 0.264547
Si Si3 0.430718 0.909096 0.602161
Si Si4 0.349932 0.811946 0.730418
Si Si5 0.500000 0.412722 0.611120
Si Si6 0.869648 0.085276 0.893740
Si Si7 0.570931 0.257012 0.108397
O O1 0.864189 0.168228 0.500000
O O2 0.816659 0.098199 0.354035
O O3 0.852152 0.240681 0.340608
O O4 0.937576 0.132385 0.355268
O O5 0.757412 0.500000 0.270969
O O6 0.780195 0.344848 0.259473
O O7 0.690759 0.400946 0.169681
O O8 0.402929 0.884781 0.500000
O O9 0.500000 0.872471 0.611856
O O10 0.389061 0.881284 0.686896
O O11 0.435199 0.000000 0.609129
O O12 0.378876 0.790858 0.831190
O O13 0.500000 0.500000 0.652506
O O14 0.500000 0.417430 0.500000
O O15 0.921275 0.150960 0.873301
O O16 0.899335 0.000000 0.874259
O O17 0.845390 0.091428 0.000000
O O18 0.500000 0.235001 0.137388
O O19 0.583383 0.236271 0.000000
#
# Coordination Sequence:
#
# PCOD8273999 Si02
#       7
#    16  16  16  16   8  16  16
#     4  11  24  39  59  89 123 157 199 251 303 360
#     4  11  24  41  59  84 117 158 207 248 295 359
#     4   9  19  36  58  84 114 152 202 255 303 352
#     4  12  23  37  59  87 120 161 200 251 301 359
#     4   9  20  40  62  84 114 156 198 235 292 366
#     4   9  19  38  62  87 117 152 195 248 299 355
#     4  10  22  39  61  92 125 157 196 246 310 373
#
# _framework density 19.794262
#
# number of rings (size 3 to 8) (size 9 to 14) (size 15 to 20)
#    0.000    1.769    1.538    2.769    2.154    3.692 
#    0.000    3.077    0.000    1.385    0.000    5.385 
#    0.000    0.000    0.000    0.000    0.000    0.000 
#
# Total GULP energy -644676.064405 kJ/mol
# GULP energy per Si atom -12397.616623 kJ/mol
# Density = 1.974921 g / cm^3
# Si number density = 19.794262 Si / 1000 Ang^3
#
#
#
# Elastic Constant Matrix: (Units=GPa)
#
#
# Indices 1 2 3 4 5 6 
#
# 1 114.2371 54.1195 48.6520 0.0000 0.0000 0.0000
# 2 54.1195 79.5935 37.5401 0.0000 0.0000 0.0000
# 3 48.6520 37.5401 101.8395 0.0000 0.0000 0.0000
# 4 0.0000 0.0000 0.0000 31.7542 0.0000 0.0000
# 5 0.0000 0.0000 0.0000 0.0000 25.3634 0.0000
# 6 0.0000 0.0000 0.0000 0.0000 0.0000 -38.8748
#
#
#
# Elastic Compliance Matrix: (Units=1/GPa)
#
#
# Indices 1 2 3 4 5 6 
#
# 1 0.014068 -0.007742 -0.003867 0.000000 0.000000 0.000000
# 2 -0.007742 0.019468 -0.003478 0.000000 0.000000 0.000000
# 3 -0.003867 -0.003478 0.012949 0.000000 0.000000 0.000000
# 4 0.000000 0.000000 0.000000 0.031492 0.000000 0.000000
# 5 0.000000 0.000000 0.000000 0.000000 0.039427 0.000000
# 6 0.000000 0.000000 0.000000 0.000000 0.000000 -0.025724
#
#
# Mechanical properties :
#
#
# Convention : Reuss Voigt Hill
#
# Bulk Modulus (GPa) = 61.30536 64.03261 62.66899
# Shear Modulus (GPa) = 39.27993 14.00578 26.64285
#
# Velocity S-wave (km/s) = 4.45950 2.66290 3.67275
# Velocity P-wave (km/s) = 7.58648 6.47101 7.05084
#
# Compressibility (1/GPa) = 0.01631179
#
# Stress axis : x y z
#
# Youngs Moduli (GPa) = 71.08155 51.36575 77.22715
#
# Poissons Ratio (x) = 0.39767 0.29865
# Poissons Ratio (y) = 0.55030 0.26858
# Poissons Ratio (z) = 0.27488 0.17864
#
# Static dielectric constant tensor:
#      x y z
#    x 3.621740 0.000000 0.000000 
#    y 0.000000 3.692190 0.000000 
#    z 0.000000 0.000000 3.762870 
# 
# 
# High freq. dielectric constant tensor:
#      x y z
#    x 1.763570 0.000000 0.000000 
#    y 0.000000 1.775650 0.000000 
#    z 0.000000 0.000000 1.776790 
# 
# From -- ./inp_files/44438.got.cif
#   From: 2010.03.12/outbox.cif.g09.slc.cpg/sg65_23_cif.got.tgz:44438.got - 2010.04.10 20:52:16.
