data_PCOD8273325
_publ_section_title
;
Structure prediction by ZEFSAII (Michael W. Deem and Ramdas Pophale) SiO2 
 PCOD8273325
Probable space group: C M M M
;
_chemical_formula_sum "Si O2"
_cell_formula_units_Z 88
_cell_length_a 19.464688
_cell_length_b 8.574602
_cell_length_c 27.655729
_cell_angle_alpha 90.000000
_cell_angle_beta 90.000000
_cell_angle_gamma 90.000000
_cell_volume 4615.795172
_symmetry_space_group_name_H-M "C M M M"
_symmetry_group_IT_number 65
_symmetry_cell_setting 'orthorhombic'
loop_
_space_group_symop_operation_xyz
x,y,z
-x,-y,z
x,-y,-z
-x,y,-z
-x,-y,-z
x,y,-z
-x,y,z
x,-y,z
1/2+x,1/2+y,z
1/2-x,1/2-y,z
1/2+x,1/2-y,-z
1/2-x,1/2+y,-z
1/2-x,1/2-y,-z
1/2+x,1/2+y,-z
1/2-x,1/2+y,z
1/2+x,1/2-y,z
loop_
_atom_site_type_symbol
_atom_site_label
_atom_site_fract_x
_atom_site_fract_y
_atom_site_fract_z
Si Si1 0.323828 0.315830 0.419638
Si Si2 0.080227 0.820303 0.761315
Si Si3 0.920665 0.315652 0.500000
Si Si4 0.421052 0.181831 0.862243
Si Si5 0.821613 0.682568 0.684587
Si Si6 0.177441 0.684549 0.054006
O O1 0.321400 0.500000 0.424556
O O2 0.250000 0.250000 0.436369
O O3 0.384462 0.250237 0.452444
O O4 0.341163 0.267805 0.365039
O O5 0.103972 0.775777 0.815251
O O6 0.119344 0.712609 0.723348
O O7 0.000000 0.784716 0.754974
O O8 0.097971 0.000000 0.751565
O O9 0.914419 0.500000 0.500000
O O10 0.000000 0.261697 0.500000
O O11 0.500000 0.216310 0.873763
O O12 0.379623 0.244744 0.908562
O O13 0.407608 0.000000 0.852527
O O14 0.813941 0.500000 0.674429
O O15 0.750000 0.750000 0.704998
O O16 0.180687 0.500000 0.053994
O O17 0.250000 0.750000 0.071669
O O18 0.159579 0.746369 0.000000
#
# Coordination Sequence:
#
# PCOD8273325 Si02
#       6
#    16  16   8  16  16  16
#     4  11  22  39  62  86 115 149 187 228 274 327
#     4  10  21  37  56  79 109 144 181 222 270 323
#     4  11  24  41  60  85 117 151 190 233 276 323
#     4   9  18  33  52  74 101 135 176 219 263 314
#     4  11  22  38  60  85 113 144 183 227 272 323
#     4   9  18  32  50  73 101 133 169 212 263 317
#
# _framework density 19.064972000000001
#
# number of rings (size 3 to 8) (size 9 to 14) (size 15 to 20)
#    0.000    1.909    0.000    5.455    0.000    4.364 
#    0.000    3.636    0.000    0.000    0.000    5.091 
#    0.000    0.000    0.000    0.000    0.000    0.000 
#
# Total GULP energy -545760.533976 kJ/mol
# GULP energy per Si atom -12403.648499 kJ/mol
# Density = 1.902158 g / cm^3
# Si number density = 19.064972 Si / 1000 Ang^3
#
#
#
# Elastic Constant Matrix: (Units=GPa)
#
#
# Indices 1 2 3 4 5 6 
#
# 1 115.5331 44.5394 82.4179 0.0000 0.0000 0.0000
# 2 44.5394 81.4647 31.7318 0.0000 0.0000 0.0000
# 3 82.4179 31.7318 114.8560 0.0000 0.0000 0.0000
# 4 0.0000 0.0000 0.0000 30.0467 0.0000 0.0000
# 5 0.0000 0.0000 0.0000 0.0000 40.9493 0.0000
# 6 0.0000 0.0000 0.0000 0.0000 0.0000 30.5773
#
#
#
# Elastic Compliance Matrix: (Units=1/GPa)
#
#
# Indices 1 2 3 4 5 6 
#
# 1 0.020051 -0.006004 -0.012729 0.000000 0.000000 0.000000
# 2 -0.006004 0.015553 0.000011 0.000000 0.000000 0.000000
# 3 -0.012729 0.000011 0.017838 0.000000 0.000000 0.000000
# 4 0.000000 0.000000 0.000000 0.033282 0.000000 0.000000
# 5 0.000000 0.000000 0.000000 0.000000 0.024420 0.000000
# 6 0.000000 0.000000 0.000000 0.000000 0.000000 0.032704
#
#
# Mechanical properties :
#
#
# Convention : Reuss Voigt Hill
#
# Bulk Modulus (GPa) = 62.50795 69.91468 66.21131
# Shear Modulus (GPa) = 26.79174 30.52562 28.65868
#
# Velocity S-wave (km/s) = 3.75278 4.00576 3.88133
# Velocity P-wave (km/s) = 7.18581 7.62537 7.40885
#
# Compressibility (1/GPa) = 0.01599796
#
# Stress axis : x y z
#
# Youngs Moduli (GPa) = 49.87311 64.29423 56.06140
#
# Poissons Ratio (x) = 0.38604 0.71362
# Poissons Ratio (y) = 0.29945 -0.00064
# Poissons Ratio (z) = 0.63485 -0.00074
#
# Static dielectric constant tensor:
#      x y z
#    x 3.535540 0.000000 0.000000 
#    y 0.000000 3.504820 0.000000 
#    z 0.000000 0.000000 3.644310 
# 
# 
# High freq. dielectric constant tensor:
#      x y z
#    x 1.738490 0.000000 0.000000 
#    y 0.000000 1.747820 0.000000 
#    z 0.000000 0.000000 1.749140 
# 
# From -- ./inp_files/67582.got.cif
#   From: 2010.03.12/outbox.cif.g09.slc.cpg/sg65_34_cif.got.tgz:67582.got - 2010.04.10 20:52:16.
