data_PCOD8273998
_publ_section_title
;
Structure prediction by ZEFSAII (Michael W. Deem and Ramdas Pophale) SiO2 
 PCOD8273998
Probable space group: C M M M
;
_chemical_formula_sum "Si O2"
_cell_formula_units_Z 72
_cell_length_a 22.404584
_cell_length_b 17.371465
_cell_length_c 9.058960
_cell_angle_alpha 90.000000
_cell_angle_beta 90.000000
_cell_angle_gamma 90.000000
_cell_volume 3525.751280
_symmetry_space_group_name_H-M "C M M M"
_symmetry_group_IT_number 65
_symmetry_cell_setting 'orthorhombic'
loop_
_space_group_symop_operation_xyz
x,y,z
-x,-y,z
x,-y,-z
-x,y,-z
-x,-y,-z
x,y,-z
-x,y,z
x,-y,z
1/2+x,1/2+y,z
1/2-x,1/2-y,z
1/2+x,1/2-y,-z
1/2-x,1/2+y,-z
1/2-x,1/2-y,-z
1/2+x,1/2+y,-z
1/2-x,1/2+y,z
1/2+x,1/2-y,z
loop_
_atom_site_type_symbol
_atom_site_label
_atom_site_fract_x
_atom_site_fract_y
_atom_site_fract_z
Si Si1 0.336739 0.820359 0.327824
Si Si2 0.933053 0.409754 0.835277
Si Si3 0.626424 0.350679 0.325623
Si Si4 0.000000 0.912839 0.675095
Si Si5 0.264442 0.413180 0.828934
O O1 0.322526 0.825215 0.500000
O O2 0.393233 0.872609 0.290615
O O3 0.353343 0.734506 0.278259
O O4 0.278707 0.850217 0.243328
O O5 0.932397 0.500000 0.810283
O O6 0.000000 0.377788 0.817829
O O7 0.908653 0.390058 0.000000
O O8 0.631132 0.363101 0.500000
O O9 0.559055 0.367644 0.269599
O O10 0.670718 0.409900 0.246180
O O11 0.000000 0.915422 0.500000
O O12 0.000000 0.000000 0.738051
O O13 0.239125 0.500000 0.806703
O O14 0.270704 0.393054 0.000000
#
# Coordination Sequence:
#
# PCOD8273998 Si02
#       5
#    16  16  16   8  16
#     4  11  23  36  57  88 121 153 193 243 295 349
#     4   9  19  36  56  79 112 156 203 245 288 346
#     4  10  22  39  61  89 120 153 194 242 292 350
#     4   9  18  36  63  89 114 151 192 232 285 345
#     4  11  24  41  61  85 116 155 198 245 296 352
#
# _framework density 20.42118
#
# number of rings (size 3 to 8) (size 9 to 14) (size 15 to 20)
#    0.000    1.889    0.000    4.000    1.556   10.667 
#    0.000    1.667    0.000    2.000    0.000    0.000 
#    0.000    0.000    0.000    0.000    0.000    0.000 
#
# Total GULP energy -446469.231008 kJ/mol
# GULP energy per Si atom -12401.923084 kJ/mol
# Density = 2.037470 g / cm^3
# Si number density = 20.421180 Si / 1000 Ang^3
#
#
#
# Elastic Constant Matrix: (Units=GPa)
#
#
# Indices 1 2 3 4 5 6 
#
# 1 141.6828 66.6891 45.6352 0.0000 0.0000 0.0000
# 2 66.6891 96.0655 43.9115 0.0000 0.0000 0.0000
# 3 45.6352 43.9115 59.9600 0.0000 0.0000 0.0000
# 4 0.0000 0.0000 0.0000 23.1887 0.0000 0.0000
# 5 0.0000 0.0000 0.0000 0.0000 30.8767 0.0000
# 6 0.0000 0.0000 0.0000 0.0000 0.0000 60.9940
#
#
#
# Elastic Compliance Matrix: (Units=1/GPa)
#
#
# Indices 1 2 3 4 5 6 
#
# 1 0.011157 -0.005808 -0.004238 0.000000 0.000000 0.000000
# 2 -0.005808 0.018671 -0.009253 0.000000 0.000000 0.000000
# 3 -0.004238 -0.009253 0.026680 0.000000 0.000000 0.000000
# 4 0.000000 0.000000 0.000000 0.043125 0.000000 0.000000
# 5 0.000000 0.000000 0.000000 0.000000 0.032387 0.000000
# 6 0.000000 0.000000 0.000000 0.000000 0.000000 0.016395
#
#
# Mechanical properties :
#
#
# Convention : Reuss Voigt Hill
#
# Bulk Modulus (GPa) = 55.83663 67.79774 61.81719
# Shear Modulus (GPa) = 25.90905 32.44338 29.17622
#
# Velocity S-wave (km/s) = 3.56579 3.99019 3.78395
# Velocity P-wave (km/s) = 6.65996 7.38245 7.03049
#
# Compressibility (1/GPa) = 0.01790939
#
# Stress axis : x y z
#
# Youngs Moduli (GPa) = 89.63156 53.55849 37.48129
#
# Poissons Ratio (x) = 0.31106 0.15884
# Poissons Ratio (y) = 0.52057 0.34683
# Poissons Ratio (z) = 0.37985 0.49560
#
# Static dielectric constant tensor:
#      x y z
#    x 3.927520 0.000000 0.000000 
#    y 0.000000 3.731250 0.000000 
#    z 0.000000 0.000000 3.517500 
# 
# 
# High freq. dielectric constant tensor:
#      x y z
#    x 1.812770 0.000000 0.000000 
#    y 0.000000 1.801450 0.000000 
#    z 0.000000 0.000000 1.781620 
# 
# From -- ./inp_files/13607.got.cif
#   From: 2010.03.12/outbox.cif.g09.slc.cpg/sg65_7_cif.got.tgz:13607.got - 2010.04.10 20:52:16.
