data_PCOD8273913
_publ_section_title
;
Structure prediction by ZEFSAII (Michael W. Deem and Ramdas Pophale) SiO2 
 PCOD8273913
Probable space group: C M M M
;
_chemical_formula_sum "Si O2"
_cell_formula_units_Z 80
_cell_length_a 9.706913
_cell_length_b 20.306391
_cell_length_c 22.774745
_cell_angle_alpha 90.000000
_cell_angle_beta 90.000000
_cell_angle_gamma 90.000000
_cell_volume 4489.183981
_symmetry_space_group_name_H-M "C M M M"
_symmetry_group_IT_number 65
_symmetry_cell_setting 'orthorhombic'
loop_
_space_group_symop_operation_xyz
x,y,z
-x,-y,z
x,-y,-z
-x,y,-z
-x,-y,-z
x,y,-z
-x,y,z
x,-y,z
1/2+x,1/2+y,z
1/2-x,1/2-y,z
1/2+x,1/2-y,-z
1/2-x,1/2+y,-z
1/2-x,1/2-y,-z
1/2+x,1/2+y,-z
1/2-x,1/2+y,z
1/2+x,1/2-y,z
loop_
_atom_site_type_symbol
_atom_site_label
_atom_site_fract_x
_atom_site_fract_y
_atom_site_fract_z
Si Si1 0.845672 0.578586 0.625730
Si Si2 0.656686 0.380690 0.066662
Si Si3 0.163380 0.427974 0.500000
Si Si4 0.156040 0.190332 0.180938
Si Si5 0.345868 0.000000 0.930656
Si Si6 0.840066 0.075184 0.267597
O O1 0.844513 0.500000 0.620908
O O2 0.796050 0.607862 0.561788
O O3 0.742786 0.602577 0.676274
O O4 0.000000 0.603327 0.641063
O O5 0.500000 0.408249 0.070654
O O6 0.675089 0.319545 0.110832
O O7 0.761559 0.436142 0.089251
O O8 0.689550 0.357662 0.000000
O O9 0.233616 0.500000 0.500000
O O10 0.000000 0.436291 0.500000
O O11 0.250000 0.250000 0.203026
O O12 0.196374 0.122154 0.212999
O O13 0.000000 0.209935 0.196090
O O14 0.500000 0.000000 0.902856
O O15 0.356828 0.000000 0.000000
O O16 0.000000 0.078397 0.283956
O O17 0.797040 0.000000 0.251309
#
# Coordination Sequence:
#
# PCOD8273913 Si02
#       6
#    16  16   8  16   8  16
#     4   8  13  23  41  66  95 126 160 196 234 280
#     4   9  18  33  53  74  96 127 165 200 242 301
#     4   7  10  18  35  61  94 127 154 187 235 283
#     4  10  22  37  53  72  98 130 165 205 250 298
#     4   9  17  29  47  75 105 127 151 192 243 286
#     4   9  18  32  49  69  96 130 164 199 241 289
#
# _framework density 17.820611
#
# number of rings (size 3 to 8) (size 9 to 14) (size 15 to 20)
#    0.000    3.200    0.000    1.500    1.400    3.200 
#    0.000    0.500    0.000    3.000    0.000    0.700 
#    0.000    0.000    0.000    0.000    0.000    0.000 
#
# Total GULP energy -495604.100056 kJ/mol
# GULP energy per Si atom -12390.102501 kJ/mol
# Density = 1.778005 g / cm^3
# Si number density = 17.820611 Si / 1000 Ang^3
#
#
#
# Elastic Constant Matrix: (Units=GPa)
#
#
# Indices 1 2 3 4 5 6 
#
# 1 75.4901 41.0448 43.8789 0.0000 0.0000 0.0000
# 2 41.0448 65.2799 38.0646 0.0000 0.0000 0.0000
# 3 43.8789 38.0646 113.9300 0.0000 0.0000 0.0000
# 4 0.0000 0.0000 0.0000 6.7383 0.0000 0.0000
# 5 0.0000 0.0000 0.0000 0.0000 26.3246 0.0000
# 6 0.0000 0.0000 0.0000 0.0000 0.0000 21.9023
#
#
#
# Elastic Compliance Matrix: (Units=1/GPa)
#
#
# Indices 1 2 3 4 5 6 
#
# 1 0.022052 -0.011070 -0.004795 0.000000 0.000000 0.000000
# 2 -0.011070 0.024582 -0.003949 0.000000 0.000000 0.000000
# 3 -0.004795 -0.003949 0.011944 0.000000 0.000000 0.000000
# 4 0.000000 0.000000 0.000000 0.148406 0.000000 0.000000
# 5 0.000000 0.000000 0.000000 0.000000 0.037987 0.000000
# 6 0.000000 0.000000 0.000000 0.000000 0.000000 0.045657
#
#
# Mechanical properties :
#
#
# Convention : Reuss Voigt Hill
#
# Bulk Modulus (GPa) = 52.77133 55.63074 54.20104
# Shear Modulus (GPa) = 14.85563 19.77381 17.31472
#
# Velocity S-wave (km/s) = 2.89038 3.33469 3.12045
# Velocity P-wave (km/s) = 6.38873 6.79056 6.59271
#
# Compressibility (1/GPa) = 0.01894968
#
# Stress axis : x y z
#
# Youngs Moduli (GPa) = 45.34639 40.68077 83.72726
#
# Poissons Ratio (x) = 0.45032 0.40146
# Poissons Ratio (y) = 0.50197 0.33068
# Poissons Ratio (z) = 0.21743 0.16067
#
# Static dielectric constant tensor:
#      x y z
#    x 3.368560 0.000000 0.000000 
#    y 0.000000 2.803620 0.000000 
#    z 0.000000 0.000000 3.582400 
# 
# 
# High freq. dielectric constant tensor:
#      x y z
#    x 1.679840 0.000000 0.000000 
#    y 0.000000 1.633720 0.000000 
#    z 0.000000 0.000000 1.695830 
# 
# From -- ./inp_files/67800.got.cif
#   From: 2010.03.12/outbox.cif.g09.slc.cpg/sg65_34_cif.got.tgz:67800.got - 2010.04.10 20:52:16.
