data_PCOD8273529
_publ_section_title
;
Structure prediction by ZEFSAII (Michael W. Deem and Ramdas Pophale) SiO2 
 PCOD8273529
Probable space group: C M M M
;
_chemical_formula_sum "Si O2"
_cell_formula_units_Z 80
_cell_length_a 8.848008
_cell_length_b 16.468079
_cell_length_c 26.755981
_cell_angle_alpha 90.000000
_cell_angle_beta 90.000000
_cell_angle_gamma 90.000000
_cell_volume 3898.605824
_symmetry_space_group_name_H-M "C M M M"
_symmetry_group_IT_number 65
_symmetry_cell_setting 'orthorhombic'
loop_
_space_group_symop_operation_xyz
x,y,z
-x,-y,z
x,-y,-z
-x,y,-z
-x,-y,-z
x,y,-z
-x,y,z
x,-y,z
1/2+x,1/2+y,z
1/2-x,1/2-y,z
1/2+x,1/2-y,-z
1/2-x,1/2+y,-z
1/2-x,1/2-y,-z
1/2+x,1/2+y,-z
1/2-x,1/2+y,z
1/2+x,1/2-y,z
loop_
_atom_site_type_symbol
_atom_site_label
_atom_site_fract_x
_atom_site_fract_y
_atom_site_fract_z
Si Si1 0.180016 0.837524 0.104535
Si Si2 0.823750 0.167434 0.218715
Si Si3 0.826437 0.500000 0.940923
Si Si4 0.663647 0.591818 0.500000
Si Si5 0.679478 0.165398 0.408570
Si Si6 0.831060 0.592169 0.306564
O O1 0.250000 0.750000 0.086537
O O2 0.225344 0.852441 0.162155
O O3 0.245772 0.916370 0.076374
O O4 0.000000 0.833689 0.095995
O O5 0.750000 0.250000 0.238046
O O6 0.769581 0.098291 0.256627
O O7 0.000000 0.177315 0.221866
O O8 0.000000 0.500000 0.921907
O O9 0.819001 0.500000 0.000000
O O10 0.618972 0.500000 0.500000
O O11 0.500000 0.639435 0.500000
O O12 0.761998 0.605304 0.549388
O O13 0.500000 0.166700 0.409036
O O14 0.750000 0.250000 0.423842
O O15 0.738257 0.141503 0.353191
O O16 0.833279 0.500000 0.324207
O O17 0.000000 0.622613 0.293692
#
# Coordination Sequence:
#
# PCOD8273529 Si02
#       6
#    16  16   8   8  16  16
#     4  10  22  41  65  94 129 169 216 265 320 382
#     4  10  21  37  59  87 119 156 199 245 297 357
#     4  11  25  43  65  95 129 169 217 266 321 380
#     4  11  24  41  62  87 113 143 186 237 292 349
#     4  11  23  40  61  84 114 150 192 237 287 347
#     4  10  22  38  57  85 118 154 194 238 292 351
#
# _framework density 20.520157000000001
#
# number of rings (size 3 to 8) (size 9 to 14) (size 15 to 20)
#    0.000    1.600    0.000    3.900    1.400    8.800 
#    0.000    0.000    0.000    0.000    0.000    0.000 
#    0.000    0.000    0.000    0.000    0.000    0.000 
#
# Total GULP energy -495887.874688 kJ/mol
# GULP energy per Si atom -12397.196867 kJ/mol
# Density = 2.047345 g / cm^3
# Si number density = 20.520157 Si / 1000 Ang^3
#
#
#
# Elastic Constant Matrix: (Units=GPa)
#
#
# Indices 1 2 3 4 5 6 
#
# 1 94.8152 43.6618 46.7014 0.0000 0.0000 0.0000
# 2 43.6618 111.8942 42.2258 0.0000 0.0000 0.0000
# 3 46.7014 42.2258 102.1520 0.0000 0.0000 0.0000
# 4 0.0000 0.0000 0.0000 43.3194 0.0000 0.0000
# 5 0.0000 0.0000 0.0000 0.0000 29.8819 0.0000
# 6 0.0000 0.0000 0.0000 0.0000 0.0000 31.3303
#
#
#
# Elastic Compliance Matrix: (Units=1/GPa)
#
#
# Indices 1 2 3 4 5 6 
#
# 1 0.014885 -0.003839 -0.005218 0.000000 0.000000 0.000000
# 2 -0.003839 0.011579 -0.003031 0.000000 0.000000 0.000000
# 3 -0.005218 -0.003031 0.013428 0.000000 0.000000 0.000000
# 4 0.000000 0.000000 0.000000 0.023084 0.000000 0.000000
# 5 0.000000 0.000000 0.000000 0.000000 0.033465 0.000000
# 6 0.000000 0.000000 0.000000 0.000000 0.000000 0.031918
#
#
# Mechanical properties :
#
#
# Convention : Reuss Voigt Hill
#
# Bulk Modulus (GPa) = 63.63307 63.78215 63.70761
# Shear Modulus (GPa) = 31.69091 32.65782 32.17437
#
# Velocity S-wave (km/s) = 3.93412 3.99369 3.96402
# Velocity P-wave (km/s) = 7.19123 7.23990 7.21561
#
# Compressibility (1/GPa) = 0.01571510
#
# Stress axis : x y z
#
# Youngs Moduli (GPa) = 67.18240 86.36405 74.47185
#
# Poissons Ratio (x) = 0.33155 0.38860
# Poissons Ratio (y) = 0.25791 0.22574
# Poissons Ratio (z) = 0.35056 0.26178
#
# Static dielectric constant tensor:
#      x y z
#    x 3.814170 0.000000 0.000000 
#    y 0.000000 3.745990 0.000000 
#    z 0.000000 0.000000 3.764770 
# 
# 
# High freq. dielectric constant tensor:
#      x y z
#    x 1.811520 0.000000 0.000000 
#    y 0.000000 1.806000 0.000000 
#    z 0.000000 0.000000 1.806850 
# 
# From -- ./inp_files/72918.got.cif
#   From: 2010.03.12/outbox.cif.g09.slc.cpg/sg65_37_cif.got.tgz:72918.got - 2010.04.10 20:52:16.
