data_PCOD8273572
_publ_section_title
;
Structure prediction by ZEFSAII (Michael W. Deem and Ramdas Pophale) SiO2 
 PCOD8273572
Probable space group: C M M M
;
_chemical_formula_sum "Si O2"
_cell_formula_units_Z 104
_cell_length_a 29.134674
_cell_length_b 10.052447
_cell_length_c 18.691815
_cell_angle_alpha 90.000000
_cell_angle_beta 90.000000
_cell_angle_gamma 90.000000
_cell_volume 5474.360949
_symmetry_space_group_name_H-M "C M M M"
_symmetry_group_IT_number 65
_symmetry_cell_setting 'orthorhombic'
loop_
_space_group_symop_operation_xyz
x,y,z
-x,-y,z
x,-y,-z
-x,y,-z
-x,-y,-z
x,y,-z
-x,y,z
x,-y,z
1/2+x,1/2+y,z
1/2-x,1/2-y,z
1/2+x,1/2-y,-z
1/2-x,1/2+y,-z
1/2-x,1/2-y,-z
1/2+x,1/2+y,-z
1/2-x,1/2+y,z
1/2+x,1/2-y,z
loop_
_atom_site_type_symbol
_atom_site_label
_atom_site_fract_x
_atom_site_fract_y
_atom_site_fract_z
Si Si1 0.886585 0.757137 0.083849
Si Si2 0.871544 0.156342 0.578897
Si Si3 0.708607 0.346680 0.682329
Si Si4 0.206926 0.155008 0.847247
Si Si5 0.949387 0.000000 0.084074
Si Si6 0.947224 0.152240 0.685815
Si Si7 0.448153 0.853782 0.808452
O O1 0.834759 0.791954 0.104865
O O2 0.920513 0.874332 0.108444
O O3 0.910111 0.637820 0.127852
O O4 0.887752 0.725480 0.000000
O O5 0.867936 0.223124 0.500000
O O6 0.831617 0.206190 0.631411
O O7 0.919932 0.194291 0.614613
O O8 0.867187 0.000000 0.570288
O O9 0.722356 0.500000 0.666876
O O10 0.750000 0.250000 0.664258
O O11 0.692888 0.331155 0.764472
O O12 0.250000 0.250000 0.865408
O O13 0.218211 0.000000 0.866021
O O14 0.000000 0.000000 0.121074
O O15 0.955611 0.000000 0.000000
O O16 0.931976 0.246284 0.750467
O O17 0.000000 0.171543 0.666161
O O18 0.935769 0.000000 0.708256
O O19 0.500000 0.821045 0.836771
O O20 0.448091 0.000000 0.772834
#
# Coordination Sequence:
#
# PCOD8273572 Si02
#       7
#    16  16  16  16   8  16  16
#     4  11  22  36  56  81 110 144 184 230 285 341
#     4   9  17  30  51  81 114 143 172 215 272 324
#     4   9  18  33  53  75 101 138 179 222 268 319
#     4  10  21  38  58  80 108 145 190 237 282 334
#     4   9  18  32  52  80 110 138 173 221 278 334
#     4   9  18  33  55  81 107 141 185 226 264 318
#     4  10  22  38  56  80 111 147 185 230 284 338
#
# _framework density 18.997651000000001
#
# number of rings (size 3 to 8) (size 9 to 14) (size 15 to 20)
#    0.000    2.385    0.769    1.385    1.077    4.000 
#    0.000    6.154    0.000    1.385    0.000    2.154 
#    0.000    0.000    0.000    0.000    0.000    0.000 
#
# Total GULP energy -644562.533129 kJ/mol
# GULP energy per Si atom -12395.433329 kJ/mol
# Density = 1.895441 g / cm^3
# Si number density = 18.997651 Si / 1000 Ang^3
#
#
#
# Elastic Constant Matrix: (Units=GPa)
#
#
# Indices 1 2 3 4 5 6 
#
# 1 113.7406 37.2645 54.2045 0.0000 0.0000 0.0000
# 2 37.2645 69.1542 29.9970 0.0000 0.0000 0.0000
# 3 54.2045 29.9970 99.6955 0.0000 0.0000 0.0000
# 4 0.0000 0.0000 0.0000 11.1902 0.0000 0.0000
# 5 0.0000 0.0000 0.0000 0.0000 28.1863 0.0000
# 6 0.0000 0.0000 0.0000 0.0000 0.0000 30.1638
#
#
#
# Elastic Compliance Matrix: (Units=1/GPa)
#
#
# Indices 1 2 3 4 5 6 
#
# 1 0.012993 -0.004528 -0.005702 0.000000 0.000000 0.000000
# 2 -0.004528 0.018209 -0.003017 0.000000 0.000000 0.000000
# 3 -0.005702 -0.003017 0.014038 0.000000 0.000000 0.000000
# 4 0.000000 0.000000 0.000000 0.089364 0.000000 0.000000
# 5 0.000000 0.000000 0.000000 0.000000 0.035478 0.000000
# 6 0.000000 0.000000 0.000000 0.000000 0.000000 0.033152
#
#
# Mechanical properties :
#
#
# Convention : Reuss Voigt Hill
#
# Bulk Modulus (GPa) = 53.34276 58.39137 55.86707
# Shear Modulus (GPa) = 21.18852 24.64969 22.91911
#
# Velocity S-wave (km/s) = 3.34327 3.60601 3.47712
# Velocity P-wave (km/s) = 6.56070 6.93834 6.75216
#
# Compressibility (1/GPa) = 0.01874669
#
# Stress axis : x y z
#
# Youngs Moduli (GPa) = 76.96663 54.91766 71.23356
#
# Poissons Ratio (x) = 0.24867 0.40615
# Poissons Ratio (y) = 0.34851 0.21491
# Poissons Ratio (z) = 0.43884 0.16569
#
# Static dielectric constant tensor:
#      x y z
#    x 3.503600 0.000000 0.000000 
#    y 0.000000 3.377870 0.000000 
#    z 0.000000 0.000000 3.534360 
# 
# 
# High freq. dielectric constant tensor:
#      x y z
#    x 1.744130 0.000000 0.000000 
#    y 0.000000 1.720410 0.000000 
#    z 0.000000 0.000000 1.729600 
# 
# From -- ./inp_files/66328.got.cif
#   From: 2010.03.12/outbox.cif.g09.slc.cpg/sg65_34_cif.got.tgz:66328.got - 2010.04.10 20:52:16.
