data_PCOD8273296
_publ_section_title
;
Structure prediction by ZEFSAII (Michael W. Deem and Ramdas Pophale) SiO2 
 PCOD8273296
Probable space group: C M M M
;
_chemical_formula_sum "Si O2"
_cell_formula_units_Z 72
_cell_length_a 30.744252
_cell_length_b 8.783019
_cell_length_c 14.213529
_cell_angle_alpha 90.000000
_cell_angle_beta 90.000000
_cell_angle_gamma 90.000000
_cell_volume 3838.041562
_symmetry_space_group_name_H-M "C M M M"
_symmetry_group_IT_number 65
_symmetry_cell_setting 'orthorhombic'
loop_
_space_group_symop_operation_xyz
x,y,z
-x,-y,z
x,-y,-z
-x,y,-z
-x,-y,-z
x,y,-z
-x,y,z
x,-y,z
1/2+x,1/2+y,z
1/2-x,1/2-y,z
1/2+x,1/2-y,-z
1/2-x,1/2+y,-z
1/2-x,1/2-y,-z
1/2+x,1/2+y,-z
1/2-x,1/2+y,z
1/2+x,1/2-y,z
loop_
_atom_site_type_symbol
_atom_site_label
_atom_site_fract_x
_atom_site_fract_y
_atom_site_fract_z
Si Si1 0.549632 0.324752 0.609880
Si Si2 0.795000 0.820889 0.392002
Si Si3 0.411008 0.320317 0.892268
Si Si4 0.626203 0.178510 0.280112
Si Si5 0.500000 0.170837 0.111398
O O1 0.557311 0.295730 0.500000
O O2 0.500000 0.284970 0.637271
O O3 0.560179 0.500000 0.634626
O O4 0.581276 0.216062 0.667518
O O5 0.803250 0.774052 0.500000
O O6 0.750000 0.750000 0.355251
O O7 0.833977 0.756903 0.331331
O O8 0.792560 0.000000 0.379258
O O9 0.409319 0.500000 0.880340
O O10 0.374882 0.241636 0.826766
O O11 0.457710 0.262426 0.854983
O O12 0.402274 0.271401 0.000000
O O13 0.633769 0.000000 0.278426
O O14 0.500000 0.000000 0.154062
O O15 0.500000 0.162506 0.000000
#
# Coordination Sequence:
#
# PCOD8273296 Si02
#       5
#    16  16  16  16   8
#     4   9  19  36  55  75 105 147 191 232 275 327
#     4  10  21  39  63  89 117 147 183 229 280 334
#     4  10  21  37  56  77 105 146 193 238 283 332
#     4  12  24  35  54  83 115 149 186 231 282 336
#     4   9  17  31  51  75 104 137 178 231 285 331
#
# _framework density 18.759568000000002
#
# number of rings (size 3 to 8) (size 9 to 14) (size 15 to 20)
#    0.000    1.889    0.000    5.000    1.556    7.556 
#    0.000    1.111    0.000    0.667    0.000    0.000 
#    0.000    0.000    0.000    0.000    0.000    0.000 
#
# Total GULP energy -446512.088713 kJ/mol
# GULP energy per Si atom -12403.113575 kJ/mol
# Density = 1.871687 g / cm^3
# Si number density = 18.759568 Si / 1000 Ang^3
#
#
#
# Elastic Constant Matrix: (Units=GPa)
#
#
# Indices 1 2 3 4 5 6 
#
# 1 105.9998 28.3009 58.3808 0.0000 0.0000 0.0000
# 2 28.3009 56.2078 24.8740 0.0000 0.0000 0.0000
# 3 58.3808 24.8740 82.9427 0.0000 0.0000 0.0000
# 4 0.0000 0.0000 0.0000 27.4568 0.0000 0.0000
# 5 0.0000 0.0000 0.0000 0.0000 30.4658 0.0000
# 6 0.0000 0.0000 0.0000 0.0000 0.0000 36.0254
#
#
#
# Elastic Compliance Matrix: (Units=1/GPa)
#
#
# Indices 1 2 3 4 5 6 
#
# 1 0.015995 -0.003541 -0.010197 0.000000 0.000000 0.000000
# 2 -0.003541 0.021298 -0.003894 0.000000 0.000000 0.000000
# 3 -0.010197 -0.003894 0.020402 0.000000 0.000000 0.000000
# 4 0.000000 0.000000 0.000000 0.036421 0.000000 0.000000
# 5 0.000000 0.000000 0.000000 0.000000 0.032824 0.000000
# 6 0.000000 0.000000 0.000000 0.000000 0.000000 0.027758
#
#
# Mechanical properties :
#
#
# Convention : Reuss Voigt Hill
#
# Bulk Modulus (GPa) = 44.58354 52.02908 48.30631
# Shear Modulus (GPa) = 25.32431 27.69590 26.51010
#
# Velocity S-wave (km/s) = 3.67814 3.84651 3.76327
# Velocity P-wave (km/s) = 6.46959 6.89365 6.68499
#
# Compressibility (1/GPa) = 0.02242980
#
# Stress axis : x y z
#
# Youngs Moduli (GPa) = 62.51776 46.95359 49.01592
#
# Poissons Ratio (x) = 0.16628 0.49980
# Poissons Ratio (y) = 0.22140 0.19088
# Poissons Ratio (z) = 0.63747 0.18285
#
# Static dielectric constant tensor:
#      x y z
#    x 3.398820 0.000000 0.000000 
#    y 0.000000 3.497610 0.000000 
#    z 0.000000 0.000000 3.534090 
# 
# 
# High freq. dielectric constant tensor:
#      x y z
#    x 1.711560 0.000000 0.000000 
#    y 0.000000 1.738060 0.000000 
#    z 0.000000 0.000000 1.729980 
# 
# From -- ./inp_files/36530.got.cif
#   From: 2010.03.12/outbox.cif.g09.slc.cpg/sg65_19_cif.got.tgz:36530.got - 2010.04.10 20:52:16.
