data_PCOD8273692
_publ_section_title
;
Structure prediction by ZEFSAII (Michael W. Deem and Ramdas Pophale) SiO2 
 PCOD8273692
Probable space group: C M M M
;
_chemical_formula_sum "Si O2"
_cell_formula_units_Z 88
_cell_length_a 8.758550
_cell_length_b 26.716314
_cell_length_c 19.388533
_cell_angle_alpha 90.000000
_cell_angle_beta 90.000000
_cell_angle_gamma 90.000000
_cell_volume 4536.842502
_symmetry_space_group_name_H-M "C M M M"
_symmetry_group_IT_number 65
_symmetry_cell_setting 'orthorhombic'
loop_
_space_group_symop_operation_xyz
x,y,z
-x,-y,z
x,-y,-z
-x,y,-z
-x,-y,-z
x,y,-z
-x,y,z
x,-y,z
1/2+x,1/2+y,z
1/2-x,1/2-y,z
1/2+x,1/2-y,-z
1/2-x,1/2+y,-z
1/2-x,1/2-y,-z
1/2+x,1/2+y,-z
1/2-x,1/2+y,z
1/2+x,1/2-y,z
loop_
_atom_site_type_symbol
_atom_site_label
_atom_site_fract_x
_atom_site_fract_y
_atom_site_fract_z
Si Si1 0.319027 0.901194 0.354365
Si Si2 0.820772 0.197597 0.580090
Si Si3 0.180317 0.400113 0.924194
Si Si4 0.819217 0.554729 0.786112
Si Si5 0.673909 0.500000 0.581591
Si Si6 0.831983 0.202430 0.919424
O O1 0.500000 0.899619 0.364762
O O2 0.248496 0.849399 0.379851
O O3 0.271986 0.906408 0.273593
O O4 0.257240 0.949539 0.394298
O O5 0.780620 0.190256 0.500000
O O6 0.750000 0.250000 0.607024
O O7 0.000000 0.199272 0.593437
O O8 0.250068 0.432879 0.861809
O O9 0.222707 0.343872 0.905223
O O10 0.000000 0.405044 0.927365
O O11 0.247743 0.415689 0.000000
O O12 0.758560 0.500000 0.764266
O O13 0.000000 0.554397 0.793141
O O14 0.500000 0.500000 0.609018
O O15 0.677441 0.500000 0.500000
O O16 0.750000 0.250000 0.884221
O O17 0.000000 0.194152 0.886405
O O18 0.851992 0.212325 0.000000
#
# Coordination Sequence:
#
# PCOD8273692 Si02
#       6
#    16  16  16  16   8  16
#     4  11  21  36  58  83 114 152 190 230 279 337
#     4  10  21  38  60  87 119 153 190 233 278 328
#     4   9  17  30  51  77 102 133 177 225 273 327
#     4   9  18  34  54  77 107 141 179 226 279 329
#     4  11  23  37  55  83 116 147 184 232 277 321
#     4   9  16  27  45  69  98 128 160 205 261 318
#
# _framework density 19.396750000000001
#
# number of rings (size 3 to 8) (size 9 to 14) (size 15 to 20)
#    0.000    2.273    0.909    2.455    0.000    6.545 
#    0.000    4.545    0.000    0.000    0.000    2.545 
#    0.000    0.000    0.000    0.000    0.000    0.000 
#
# Total GULP energy -545288.320746 kJ/mol
# GULP energy per Si atom -12392.916381 kJ/mol
# Density = 1.935260 g / cm^3
# Si number density = 19.396750 Si / 1000 Ang^3
#
#
#
# Elastic Constant Matrix: (Units=GPa)
#
#
# Indices 1 2 3 4 5 6 
#
# 1 58.2015 38.0830 38.1065 0.0000 0.0000 0.0000
# 2 38.0830 156.7489 74.3018 0.0000 0.0000 0.0000
# 3 38.1065 74.3018 112.4007 0.0000 0.0000 0.0000
# 4 0.0000 0.0000 0.0000 20.2788 0.0000 0.0000
# 5 0.0000 0.0000 0.0000 0.0000 11.9914 0.0000
# 6 0.0000 0.0000 0.0000 0.0000 0.0000 29.0985
#
#
#
# Elastic Compliance Matrix: (Units=1/GPa)
#
#
# Indices 1 2 3 4 5 6 
#
# 1 0.022863 -0.002739 -0.005941 0.000000 0.000000 0.000000
# 2 -0.002739 0.009619 -0.005430 0.000000 0.000000 0.000000
# 3 -0.005941 -0.005430 0.014500 0.000000 0.000000 0.000000
# 4 0.000000 0.000000 0.000000 0.049313 0.000000 0.000000
# 5 0.000000 0.000000 0.000000 0.000000 0.083393 0.000000
# 6 0.000000 0.000000 0.000000 0.000000 0.000000 0.034366
#
#
# Mechanical properties :
#
#
# Convention : Reuss Voigt Hill
#
# Bulk Modulus (GPa) = 53.29505 69.81488 61.55496
# Shear Modulus (GPa) = 20.11843 24.06439 22.09141
#
# Velocity S-wave (km/s) = 3.22406 3.52609 3.37845
# Velocity P-wave (km/s) = 6.43392 7.25596 6.85727
#
# Compressibility (1/GPa) = 0.01876347
#
# Stress axis : x y z
#
# Youngs Moduli (GPa) = 43.73803 103.96125 68.96396
#
# Poissons Ratio (x) = 0.28472 0.40970
# Poissons Ratio (y) = 0.11979 0.37448
# Poissons Ratio (z) = 0.25984 0.56452
#
# Static dielectric constant tensor:
#      x y z
#    x 3.533390 0.000000 0.000000 
#    y 0.000000 3.641960 0.000000 
#    z 0.000000 0.000000 3.722770 
# 
# 
# High freq. dielectric constant tensor:
#      x y z
#    x 1.743730 0.000000 0.000000 
#    y 0.000000 1.760140 0.000000 
#    z 0.000000 0.000000 1.741410 
# 
# From -- ./inp_files/59826.got.cif
#   From: 2010.03.12/outbox.cif.g09.slc.cpg/sg65_30_cif.got.tgz:59826.got - 2010.04.10 20:52:16.
