data_PCOD8273445
_publ_section_title
;
Structure prediction by ZEFSAII (Michael W. Deem and Ramdas Pophale) SiO2 
 PCOD8273445
Probable space group: C M M M
;
_chemical_formula_sum "Si O2"
_cell_formula_units_Z 80
_cell_length_a 28.576697
_cell_length_b 7.902208
_cell_length_c 17.767102
_cell_angle_alpha 90.000000
_cell_angle_beta 90.000000
_cell_angle_gamma 90.000000
_cell_volume 4012.149271
_symmetry_space_group_name_H-M "C M M M"
_symmetry_group_IT_number 65
_symmetry_cell_setting 'orthorhombic'
loop_
_space_group_symop_operation_xyz
x,y,z
-x,-y,z
x,-y,-z
-x,y,-z
-x,-y,-z
x,y,-z
-x,y,z
x,-y,z
1/2+x,1/2+y,z
1/2-x,1/2-y,z
1/2+x,1/2-y,-z
1/2-x,1/2+y,-z
1/2-x,1/2-y,-z
1/2+x,1/2+y,-z
1/2-x,1/2+y,z
1/2+x,1/2-y,z
loop_
_atom_site_type_symbol
_atom_site_label
_atom_site_fract_x
_atom_site_fract_y
_atom_site_fract_z
Si Si1 0.053878 0.692148 0.192101
Si Si2 0.800696 0.698387 0.415538
Si Si3 0.444600 0.500000 0.085648
Si Si4 0.302989 0.700016 0.159886
Si Si5 0.367997 0.697274 0.711116
Si Si6 0.803324 0.800734 0.000000
O O1 0.060064 0.500000 0.161190
O O2 0.072080 0.829866 0.130024
O O3 0.082113 0.714735 0.271119
O O4 0.000000 0.728844 0.211470
O O5 0.804370 0.773974 0.500000
O O6 0.804490 0.500000 0.416588
O O7 0.750000 0.750000 0.380544
O O8 0.845287 0.767826 0.369910
O O9 0.500000 0.500000 0.078997
O O10 0.423258 0.500000 0.000000
O O11 0.307024 0.500000 0.161749
O O12 0.250000 0.750000 0.173683
O O13 0.333359 0.778447 0.226630
O O14 0.323605 0.769807 0.079349
O O15 0.375575 0.500000 0.720736
O O16 0.750000 0.750000 0.000000
O O17 0.808579 0.000000 0.000000
#
# Coordination Sequence:
#
# PCOD8273445 Si02
#       6
#    16  16   8  16  16   8
#     4  10  21  38  59  84 115 152 196 245 298 354
#     4  10  21  37  57  83 116 151 188 235 290 346
#     4   9  18  36  60  84 113 151 193 247 308 356
#     4   9  18  30  46  69  98 135 175 218 264 316
#     4  11  21  34  54  83 110 145 189 234 286 348
#     4   8  14  28  44  60  89 130 171 211 257 304
#
# _framework density 19.939436000000001
#
# number of rings (size 3 to 8) (size 9 to 14) (size 15 to 20)
#    0.000    2.300    1.000    1.800    0.000    4.800 
#    1.800    2.000    0.000    0.600    0.000    4.200 
#    0.000    0.000    0.000    0.000    0.000    0.000 
#
# Total GULP energy -495551.327317 kJ/mol
# GULP energy per Si atom -12388.783183 kJ/mol
# Density = 1.989405 g / cm^3
# Si number density = 19.939436 Si / 1000 Ang^3
#
#
#
# Elastic Constant Matrix: (Units=GPa)
#
#
# Indices 1 2 3 4 5 6 
#
# 1 84.0448 32.0166 49.6724 0.0000 0.0000 0.0000
# 2 32.0166 82.5838 29.9605 0.0000 0.0000 0.0000
# 3 49.6724 29.9605 105.2744 0.0000 0.0000 0.0000
# 4 0.0000 0.0000 0.0000 22.8864 0.0000 0.0000
# 5 0.0000 0.0000 0.0000 0.0000 29.1824 0.0000
# 6 0.0000 0.0000 0.0000 0.0000 0.0000 25.5575
#
#
#
# Elastic Compliance Matrix: (Units=1/GPa)
#
#
# Indices 1 2 3 4 5 6 
#
# 1 0.017765 -0.004289 -0.007162 0.000000 0.000000 0.000000
# 2 -0.004289 0.014539 -0.002114 0.000000 0.000000 0.000000
# 3 -0.007162 -0.002114 0.013480 0.000000 0.000000 0.000000
# 4 0.000000 0.000000 0.000000 0.043694 0.000000 0.000000
# 5 0.000000 0.000000 0.000000 0.000000 0.034267 0.000000
# 6 0.000000 0.000000 0.000000 0.000000 0.000000 0.039127
#
#
# Mechanical properties :
#
#
# Convention : Reuss Voigt Hill
#
# Bulk Modulus (GPa) = 53.60702 55.02246 54.31474
# Shear Modulus (GPa) = 25.48172 26.20882 25.84527
#
# Velocity S-wave (km/s) = 3.57873 3.62943 3.60417
# Velocity P-wave (km/s) = 6.63473 6.72446 6.67975
#
# Compressibility (1/GPa) = 0.01865427
#
# Stress axis : x y z
#
# Youngs Moduli (GPa) = 56.29054 68.78234 74.18591
#
# Poissons Ratio (x) = 0.29502 0.53128
# Poissons Ratio (y) = 0.24144 0.15682
# Poissons Ratio (z) = 0.40313 0.14539
#
# Static dielectric constant tensor:
#      x y z
#    x 3.719420 0.000000 0.000000 
#    y 0.000000 3.542320 0.000000 
#    z 0.000000 0.000000 4.194280 
# 
# 
# High freq. dielectric constant tensor:
#      x y z
#    x 1.763970 0.000000 0.000000 
#    y 0.000000 1.778580 0.000000 
#    z 0.000000 0.000000 1.765440 
# 
# From -- ./inp_files/57252.got.cif
#   From: 2010.03.12/outbox.cif.g09.slc.cpg/sg65_29_cif.got.tgz:57252.got - 2010.04.10 20:52:16.
