data_PCOD8273700
_publ_section_title
;
Structure prediction by ZEFSAII (Michael W. Deem and Ramdas Pophale) SiO2 
 PCOD8273700
Probable space group: C M M M
;
_chemical_formula_sum "Si O2"
_cell_formula_units_Z 104
_cell_length_a 21.641545
_cell_length_b 8.864988
_cell_length_c 26.731042
_cell_angle_alpha 90.000000
_cell_angle_beta 90.000000
_cell_angle_gamma 90.000000
_cell_volume 5128.404852
_symmetry_space_group_name_H-M "C M M M"
_symmetry_group_IT_number 65
_symmetry_cell_setting 'orthorhombic'
loop_
_space_group_symop_operation_xyz
x,y,z
-x,-y,z
x,-y,-z
-x,y,-z
-x,-y,-z
x,y,-z
-x,y,z
x,-y,z
1/2+x,1/2+y,z
1/2-x,1/2-y,z
1/2+x,1/2-y,-z
1/2-x,1/2+y,-z
1/2-x,1/2-y,-z
1/2+x,1/2+y,-z
1/2-x,1/2+y,z
1/2+x,1/2-y,z
loop_
_atom_site_type_symbol
_atom_site_label
_atom_site_fract_x
_atom_site_fract_y
_atom_site_fract_z
Si Si1 0.370239 0.324534 0.282960
Si Si2 0.184511 0.820657 0.385538
Si Si3 0.500000 0.319525 0.855681
Si Si4 0.118015 0.325899 0.094140
Si Si5 0.317985 0.320064 0.000000
Si Si6 0.930164 0.326846 0.559017
Si Si7 0.000000 0.174570 0.257179
Si Si8 0.812728 0.330429 0.805971
O O1 0.358130 0.500000 0.276153
O O2 0.328351 0.264752 0.328594
O O3 0.442106 0.284881 0.292674
O O4 0.361855 0.246942 0.229734
O O5 0.250000 0.750000 0.403710
O O6 0.125191 0.771317 0.417688
O O7 0.189872 0.000000 0.389444
O O8 0.500000 0.500000 0.858115
O O9 0.558059 0.256191 0.885550
O O10 0.500000 0.252224 0.798874
O O11 0.103752 0.500000 0.079887
O O12 0.170346 0.317688 0.136294
O O13 0.143777 0.234487 0.047539
O O14 0.250000 0.250000 0.000000
O O15 0.312096 0.500000 0.000000
O O16 0.923960 0.309563 0.500000
O O17 0.920625 0.500000 0.575269
O O18 0.000000 0.273735 0.575111
O O19 0.000000 0.000000 0.243804
O O20 0.805882 0.500000 0.787984
O O21 0.750000 0.250000 0.794624
#
# Coordination Sequence:
#
# PCOD8273700 Si02
#       8
#    16  16   8  16   8  16   8  16
#     4  10  21  38  60  87 122 162 202 249 304 362
#     4  11  24  39  61  91 129 170 213 263 315 373
#     4  11  21  38  66  93 121 158 197 242 298 358
#     4  11  24  42  63  90 123 156 195 247 298 353
#     4  12  26  45  68  93 120 154 198 242 296 360
#     4   9  20  41  67  93 124 163 208 261 321 382
#     4   9  18  35  60  88 120 160 201 247 300 358
#     4  11  23  37  58  85 116 155 200 245 296 357
#
# _framework density 20.279209000000002
#
# number of rings (size 3 to 8) (size 9 to 14) (size 15 to 20)
#    0.000    1.538    1.538    3.692    1.077    6.769 
#    0.000    2.692    0.000    0.000    0.000    0.000 
#    0.000    0.000    0.000    0.000    0.000    0.000 
#
# Total GULP energy -644534.756300 kJ/mol
# GULP energy per Si atom -12394.899160 kJ/mol
# Density = 2.023305 g / cm^3
# Si number density = 20.279209 Si / 1000 Ang^3
#
#
#
# Elastic Constant Matrix: (Units=GPa)
#
#
# Indices 1 2 3 4 5 6 
#
# 1 141.3594 50.8130 37.7900 0.0000 0.0000 0.0000
# 2 50.8130 96.8811 35.3770 0.0000 0.0000 0.0000
# 3 37.7900 35.3770 70.0846 0.0000 0.0000 0.0000
# 4 0.0000 0.0000 0.0000 30.5408 0.0000 0.0000
# 5 0.0000 0.0000 0.0000 0.0000 34.9244 0.0000
# 6 0.0000 0.0000 0.0000 0.0000 0.0000 33.7898
#
#
#
# Elastic Compliance Matrix: (Units=1/GPa)
#
#
# Indices 1 2 3 4 5 6 
#
# 1 0.009239 -0.003711 -0.003109 0.000000 0.000000 0.000000
# 2 -0.003711 0.014145 -0.005139 0.000000 0.000000 0.000000
# 3 -0.003109 -0.005139 0.018539 0.000000 0.000000 0.000000
# 4 0.000000 0.000000 0.000000 0.032743 0.000000 0.000000
# 5 0.000000 0.000000 0.000000 0.000000 0.028633 0.000000
# 6 0.000000 0.000000 0.000000 0.000000 0.000000 0.029595
#
#
# Mechanical properties :
#
#
# Convention : Reuss Voigt Hill
#
# Bulk Modulus (GPa) = 55.53809 61.80947 58.67378
# Shear Modulus (GPa) = 30.71020 32.14068 31.42544
#
# Velocity S-wave (km/s) = 3.89571 3.98541 3.94082
# Velocity P-wave (km/s) = 6.90519 7.19190 7.05000
#
# Compressibility (1/GPa) = 0.01800566
#
# Stress axis : x y z
#
# Youngs Moduli (GPa) = 108.23644 70.69793 53.94088
#
# Poissons Ratio (x) = 0.26233 0.16769
# Poissons Ratio (y) = 0.40162 0.27721
# Poissons Ratio (z) = 0.33648 0.36333
#
# Static dielectric constant tensor:
#      x y z
#    x 3.697770 0.000000 0.000000 
#    y 0.000000 3.716610 0.000000 
#    z 0.000000 0.000000 3.648630 
# 
# 
# High freq. dielectric constant tensor:
#      x y z
#    x 1.810630 0.000000 0.000000 
#    y 0.000000 1.789270 0.000000 
#    z 0.000000 0.000000 1.790630 
# 
# From -- ./inp_files/75569.got.cif
#   From: 2010.03.12/outbox.cif.g09.slc.cpg/sg65_38_cif.got.tgz:75569.got - 2010.04.10 20:52:16.
