data_PCOD8273107
_publ_section_title
;
Structure prediction by ZEFSAII (Michael W. Deem and Ramdas Pophale) SiO2 
 PCOD8273107
Probable space group: C M M M
;
_chemical_formula_sum "Si O2"
_cell_formula_units_Z 88
_cell_length_a 18.301684
_cell_length_b 9.305499
_cell_length_c 28.378021
_cell_angle_alpha 90.000000
_cell_angle_beta 90.000000
_cell_angle_gamma 90.000000
_cell_volume 4832.955819
_symmetry_space_group_name_H-M "C M M M"
_symmetry_group_IT_number 65
_symmetry_cell_setting 'orthorhombic'
loop_
_space_group_symop_operation_xyz
x,y,z
-x,-y,z
x,-y,-z
-x,y,-z
-x,-y,-z
x,y,-z
-x,y,z
x,-y,z
1/2+x,1/2+y,z
1/2-x,1/2-y,z
1/2+x,1/2-y,-z
1/2-x,1/2+y,-z
1/2-x,1/2-y,-z
1/2+x,1/2+y,-z
1/2-x,1/2+y,z
1/2+x,1/2-y,z
loop_
_atom_site_type_symbol
_atom_site_label
_atom_site_fract_x
_atom_site_fract_y
_atom_site_fract_z
Si Si1 0.673315 0.670742 0.718212
Si Si2 0.087365 0.338727 0.899232
Si Si3 0.419675 0.171079 0.000000
Si Si4 0.083145 0.832002 0.809910
Si Si5 0.679198 0.834371 0.447163
Si Si6 0.584919 0.834450 0.640554
O O1 0.684190 0.500000 0.713678
O O2 0.750000 0.750000 0.717840
O O3 0.631934 0.714539 0.765918
O O4 0.625612 0.726028 0.674963
O O5 0.114320 0.500000 0.888676
O O6 0.119369 0.284092 0.950377
O O7 0.116423 0.240191 0.856868
O O8 0.000000 0.333268 0.902287
O O9 0.500000 0.241677 0.000000
O O10 0.427319 0.000000 0.000000
O O11 0.000000 0.780125 0.800430
O O12 0.085731 0.000000 0.818486
O O13 0.656756 0.784976 0.500000
O O14 0.750000 0.750000 0.428767
O O15 0.611721 0.803852 0.412581
O O16 0.701390 0.000000 0.446589
O O17 0.500000 0.798379 0.642491
O O18 0.600593 0.000000 0.654969
#
# Coordination Sequence:
#
# PCOD8273107 Si02
#       6
#    16  16   8  16  16  16
#     4  11  23  38  55  74  99 132 169 210 257 306
#     4   8  13  22  39  63  91 124 159 194 233 281
#     4   7  10  18  33  57  90 123 154 189 231 279
#     4   9  18  32  48  68  96 127 158 196 246 299
#     4   9  18  33  53  77 106 140 175 210 249 293
#     4  10  21  36  55  80 107 135 170 211 253 300
#
# _framework density 18.208318999999999
#
# number of rings (size 3 to 8) (size 9 to 14) (size 15 to 20)
#    0.000    2.818    0.000    2.727    0.000    5.091 
#    0.000    4.091    0.000    2.727    0.000    4.455 
#    0.000    0.000    0.000    0.000    0.000    0.000 
#
# Total GULP energy -545338.050133 kJ/mol
# GULP energy per Si atom -12394.046594 kJ/mol
# Density = 1.816688 g / cm^3
# Si number density = 18.208319 Si / 1000 Ang^3
#
#
#
# Elastic Constant Matrix: (Units=GPa)
#
#
# Indices 1 2 3 4 5 6 
#
# 1 88.6873 40.9003 62.4604 0.0000 0.0000 0.0000
# 2 40.9003 55.8021 56.9846 0.0000 0.0000 0.0000
# 3 62.4604 56.9846 150.4888 0.0000 0.0000 0.0000
# 4 0.0000 0.0000 0.0000 28.0696 0.0000 0.0000
# 5 0.0000 0.0000 0.0000 0.0000 6.4164 0.0000
# 6 0.0000 0.0000 0.0000 0.0000 0.0000 15.0738
#
#
#
# Elastic Compliance Matrix: (Units=1/GPa)
#
#
# Indices 1 2 3 4 5 6 
#
# 1 0.018495 -0.009321 -0.004147 0.000000 0.000000 0.000000
# 2 -0.009321 0.033917 -0.008974 0.000000 0.000000 0.000000
# 3 -0.004147 -0.008974 0.011764 0.000000 0.000000 0.000000
# 4 0.000000 0.000000 0.000000 0.035626 0.000000 0.000000
# 5 0.000000 0.000000 0.000000 0.000000 0.155851 0.000000
# 6 0.000000 0.000000 0.000000 0.000000 0.000000 0.066340
#
#
# Mechanical properties :
#
#
# Convention : Reuss Voigt Hill
#
# Bulk Modulus (GPa) = 51.83602 68.40764 60.12183
# Shear Modulus (GPa) = 13.39379 18.88749 16.14064
#
# Velocity S-wave (km/s) = 2.71511 3.22421 2.98055
# Velocity P-wave (km/s) = 6.19348 7.17716 6.70339
#
# Compressibility (1/GPa) = 0.01929160
#
# Stress axis : x y z
#
# Youngs Moduli (GPa) = 54.06969 29.48376 85.00285
#
# Poissons Ratio (x) = 0.27483 0.35247
# Poissons Ratio (y) = 0.50400 0.76284
# Poissons Ratio (z) = 0.22421 0.26460
#
# Static dielectric constant tensor:
#      x y z
#    x 3.096790 0.000000 0.000000 
#    y 0.000000 3.273000 0.000000 
#    z 0.000000 0.000000 3.811490 
# 
# 
# High freq. dielectric constant tensor:
#      x y z
#    x 1.668330 0.000000 0.000000 
#    y 0.000000 1.693070 0.000000 
#    z 0.000000 0.000000 1.727950 
# 
# From -- ./inp_files/77797.got.cif
#   From: 2010.03.12/outbox.cif.g09.slc.cpg/sg65_39_cif.got.tgz:77797.got - 2010.04.10 20:52:16.
