data_PCOD8273784
_publ_section_title
;
Structure prediction by ZEFSAII (Michael W. Deem and Ramdas Pophale) SiO2 
 PCOD8273784
Probable space group: C M M M
;
_chemical_formula_sum "Si O2"
_cell_formula_units_Z 72
_cell_length_a 14.330621
_cell_length_b 25.445911
_cell_length_c 10.282530
_cell_angle_alpha 90.000000
_cell_angle_beta 90.000000
_cell_angle_gamma 90.000000
_cell_volume 3749.583242
_symmetry_space_group_name_H-M "C M M M"
_symmetry_group_IT_number 65
_symmetry_cell_setting 'orthorhombic'
loop_
_space_group_symop_operation_xyz
x,y,z
-x,-y,z
x,-y,-z
-x,y,-z
-x,-y,-z
x,y,-z
-x,y,z
x,-y,z
1/2+x,1/2+y,z
1/2-x,1/2-y,z
1/2+x,1/2-y,-z
1/2-x,1/2+y,-z
1/2-x,1/2-y,-z
1/2+x,1/2+y,-z
1/2-x,1/2+y,z
1/2+x,1/2-y,z
loop_
_atom_site_type_symbol
_atom_site_label
_atom_site_fract_x
_atom_site_fract_y
_atom_site_fract_z
Si Si1 0.722536 0.439690 0.500000
Si Si2 0.820323 0.607338 0.257011
Si Si3 0.000000 0.330509 0.651324
Si Si4 0.898380 0.439120 0.000000
Si Si5 0.610081 0.663701 0.500000
Si Si6 0.685618 0.300237 0.763783
Si Si7 0.000000 0.761574 0.858181
O O1 0.685762 0.500000 0.500000
O O2 0.782850 0.430898 0.630281
O O3 0.637743 0.397992 0.500000
O O4 0.743782 0.647964 0.203256
O O5 0.908472 0.636464 0.318297
O O6 0.843932 0.574316 0.130532
O O7 0.000000 0.279226 0.740574
O O8 0.000000 0.313466 0.500000
O O9 0.914749 0.500000 0.000000
O O10 0.000000 0.410613 0.000000
O O11 0.500000 0.666491 0.500000
O O12 0.653135 0.696725 0.383790
O O13 0.750000 0.250000 0.788560
O O14 0.592677 0.297587 0.851821
O O15 0.000000 0.733387 0.000000
#
# Coordination Sequence:
#
# PCOD8273784 Si02
#       7
#     8  16   8   8   8  16   8
#     4  10  22  41  62  89 121 158 214 260 306 364
#     4  11  23  40  63  90 125 165 204 249 311 362
#     4  12  24  40  59  93 127 163 203 250 303 363
#     4  11  24  40  63  93 125 163 205 258 313 365
#     4  10  21  38  63  92 118 160 203 257 307 357
#     4  11  23  39  61  90 126 161 202 245 303 365
#     4  12  28  40  60  91 126 167 206 246 298 357
#
# _framework density 19.202134000000001
#
# number of rings (size 3 to 8) (size 9 to 14) (size 15 to 20)
#    0.000    1.000    5.556    1.000    4.667    0.667 
#    0.000    0.556    0.000    0.000    0.000    0.778 
#    0.000    0.000    0.000    0.000    0.000    0.000 
#
# Total GULP energy -446343.588041 kJ/mol
# GULP energy per Si atom -12398.433001 kJ/mol
# Density = 1.915843 g / cm^3
# Si number density = 19.202134 Si / 1000 Ang^3
#
#
#
# Elastic Constant Matrix: (Units=GPa)
#
#
# Indices 1 2 3 4 5 6 
#
# 1 118.7952 30.0342 23.1053 0.0000 0.0000 0.0000
# 2 30.0342 72.4837 29.9741 0.0000 0.0000 0.0000
# 3 23.1053 29.9741 125.6253 0.0000 0.0000 0.0000
# 4 0.0000 0.0000 0.0000 34.2188 0.0000 0.0000
# 5 0.0000 0.0000 0.0000 0.0000 -100.9836 0.0000
# 6 0.0000 0.0000 0.0000 0.0000 0.0000 22.9156
#
#
#
# Elastic Compliance Matrix: (Units=1/GPa)
#
#
# Indices 1 2 3 4 5 6 
#
# 1 0.009493 -0.003563 -0.000896 0.000000 0.000000 0.000000
# 2 -0.003563 0.016644 -0.003316 0.000000 0.000000 0.000000
# 3 -0.000896 -0.003316 0.008916 0.000000 0.000000 0.000000
# 4 0.000000 0.000000 0.000000 0.029224 0.000000 0.000000
# 5 0.000000 0.000000 0.000000 0.000000 -0.009903 0.000000
# 6 0.000000 0.000000 0.000000 0.000000 0.000000 0.043638
#
#
# Mechanical properties :
#
#
# Convention : Reuss Voigt Hill
#
# Bulk Modulus (GPa) = 51.27321 53.68127 52.47724
# Shear Modulus (GPa) = 41.64490 6.81622 24.23056
#
# Velocity S-wave (km/s) = 4.66205 1.88611 3.55613
# Velocity P-wave (km/s) = 7.46588 5.72362 6.65204
#
# Compressibility (1/GPa) = 0.01950336
#
# Stress axis : x y z
#
# Youngs Moduli (GPa) = 105.34198 60.08258 112.15664
#
# Poissons Ratio (x) = 0.21407 0.10047
# Poissons Ratio (y) = 0.37533 0.37190
# Poissons Ratio (z) = 0.09437 0.19923
#
# Static dielectric constant tensor:
#      x y z
#    x 3.955090 0.000000 0.000000 
#    y 0.000000 3.359760 0.000000 
#    z 0.000000 0.000000 3.575950 
# 
# 
# High freq. dielectric constant tensor:
#      x y z
#    x 1.759400 0.000000 0.000000 
#    y 0.000000 1.734480 0.000000 
#    z 0.000000 0.000000 1.759440 
# 
# From -- ./inp_files/7466.got.cif
#   From: 2010.03.12/outbox.cif.g09.slc.cpg/sg65_4_cif.got.tgz:7466.got - 2010.04.10 20:52:16.
