data_PCOD8273917
_publ_section_title
;
Structure prediction by ZEFSAII (Michael W. Deem and Ramdas Pophale) SiO2 
 PCOD8273917
Probable space group: C M M M
;
_chemical_formula_sum "Si O2"
_cell_formula_units_Z 96
_cell_length_a 20.299878
_cell_length_b 14.114391
_cell_length_c 16.835833
_cell_angle_alpha 90.000000
_cell_angle_beta 90.000000
_cell_angle_gamma 90.000000
_cell_volume 4823.809864
_symmetry_space_group_name_H-M "C M M M"
_symmetry_group_IT_number 65
_symmetry_cell_setting 'orthorhombic'
loop_
_space_group_symop_operation_xyz
x,y,z
-x,-y,z
x,-y,-z
-x,y,-z
-x,-y,-z
x,y,-z
-x,y,z
x,-y,z
1/2+x,1/2+y,z
1/2-x,1/2-y,z
1/2+x,1/2-y,-z
1/2-x,1/2+y,-z
1/2-x,1/2-y,-z
1/2+x,1/2+y,-z
1/2-x,1/2+y,z
1/2+x,1/2-y,z
loop_
_atom_site_type_symbol
_atom_site_label
_atom_site_fract_x
_atom_site_fract_y
_atom_site_fract_z
Si Si1 0.181443 0.608515 0.820385
Si Si2 0.327086 0.107780 0.638117
Si Si3 0.092418 0.887232 0.500000
Si Si4 0.813421 0.889091 0.091771
Si Si5 0.764120 0.889265 0.500000
Si Si6 0.579172 0.730649 0.823417
Si Si7 0.070843 0.236834 0.645863
O O1 0.166591 0.500000 0.845210
O O2 0.198583 0.616661 0.727490
O O3 0.246424 0.648107 0.865384
O O4 0.114922 0.667763 0.839697
O O5 0.269688 0.144181 0.580709
O O6 0.386896 0.175362 0.616379
O O7 0.348002 0.000000 0.617915
O O8 0.164895 0.843443 0.500000
O O9 0.062475 0.846996 0.418474
O O10 0.083086 0.000000 0.500000
O O11 0.881653 0.844368 0.122992
O O12 0.820180 0.000000 0.106942
O O13 0.805781 0.863084 0.000000
O O14 0.774117 0.000000 0.500000
O O15 0.500000 0.734423 0.843851
O O16 0.593033 0.697974 0.732380
O O17 0.000000 0.283622 0.659309
#
# Coordination Sequence:
#
# PCOD8273917 Si02
#       7
#    16  16   8  16   8  16  16
#     4   9  19  36  60  87 116 151 188 229 281 341
#     4   9  18  34  56  82 111 139 172 223 279 330
#     4  11  24  38  53  72 104 149 191 234 274 315
#     4  10  22  40  62  86 113 148 191 237 282 333
#     4   9  19  33  50  77 105 134 178 224 271 317
#     4  10  22  38  57  86 120 151 187 234 285 338
#     4  10  22  37  53  78 108 143 188 224 265 328
#
# _framework density 19.901282999999999
#
# number of rings (size 3 to 8) (size 9 to 14) (size 15 to 20)
#    0.000    2.333    0.000    1.250    2.333    5.333 
#    0.000    5.833    0.000    2.500    0.000    3.500 
#    0.000    0.000    0.000    0.000    0.000    0.000 
#
# Total GULP energy -594792.516511 kJ/mol
# GULP energy per Si atom -12391.510761 kJ/mol
# Density = 1.985599 g / cm^3
# Si number density = 19.901283 Si / 1000 Ang^3
#
#
#
# Elastic Constant Matrix: (Units=GPa)
#
#
# Indices 1 2 3 4 5 6 
#
# 1 146.7970 48.3378 54.9352 0.0000 0.0000 0.0000
# 2 48.3378 81.4351 48.1068 0.0000 0.0000 0.0000
# 3 54.9352 48.1068 101.3730 0.0000 0.0000 0.0000
# 4 0.0000 0.0000 0.0000 26.1242 0.0000 0.0000
# 5 0.0000 0.0000 0.0000 0.0000 26.2317 0.0000
# 6 0.0000 0.0000 0.0000 0.0000 0.0000 67.4501
#
#
#
# Elastic Compliance Matrix: (Units=1/GPa)
#
#
# Indices 1 2 3 4 5 6 
#
# 1 0.009211 -0.003500 -0.003331 0.000000 0.000000 0.000000
# 2 -0.003500 0.018393 -0.006832 0.000000 0.000000 0.000000
# 3 -0.003331 -0.006832 0.014912 0.000000 0.000000 0.000000
# 4 0.000000 0.000000 0.000000 0.038279 0.000000 0.000000
# 5 0.000000 0.000000 0.000000 0.000000 0.038122 0.000000
# 6 0.000000 0.000000 0.000000 0.000000 0.000000 0.014826
#
#
# Mechanical properties :
#
#
# Convention : Reuss Voigt Hill
#
# Bulk Modulus (GPa) = 65.82929 70.26276 68.04603
# Shear Modulus (GPa) = 30.09689 35.84287 32.96988
#
# Velocity S-wave (km/s) = 3.89306 4.24846 4.07464
# Velocity P-wave (km/s) = 7.30463 7.71027 7.51019
#
# Compressibility (1/GPa) = 0.01519081
#
# Stress axis : x y z
#
# Youngs Moduli (GPa) = 108.56580 54.36863 67.06210
#
# Poissons Ratio (x) = 0.19028 0.22336
# Poissons Ratio (y) = 0.37996 0.45816
# Poissons Ratio (z) = 0.36160 0.37144
#
# Static dielectric constant tensor:
#      x y z
#    x 3.807900 0.000000 0.000000 
#    y 0.000000 3.553700 0.000000 
#    z 0.000000 0.000000 3.766330 
# 
# 
# High freq. dielectric constant tensor:
#      x y z
#    x 1.780430 0.000000 0.000000 
#    y 0.000000 1.773820 0.000000 
#    z 0.000000 0.000000 1.777330 
# 
# From -- ./inp_files/44181.got.cif
#   From: 2010.03.12/outbox.cif.g09.slc.cpg/sg65_23_cif.got.tgz:44181.got - 2010.04.10 20:52:16.
