data_PCOD8273333
_publ_section_title
;
Structure prediction by ZEFSAII (Michael W. Deem and Ramdas Pophale) SiO2 
 PCOD8273333
Probable space group: C M M M
;
_chemical_formula_sum "Si O2"
_cell_formula_units_Z 104
_cell_length_a 21.094235
_cell_length_b 8.890137
_cell_length_c 28.333331
_cell_angle_alpha 90.000000
_cell_angle_beta 90.000000
_cell_angle_gamma 90.000000
_cell_volume 5313.367669
_symmetry_space_group_name_H-M "C M M M"
_symmetry_group_IT_number 65
_symmetry_cell_setting 'orthorhombic'
loop_
_space_group_symop_operation_xyz
x,y,z
-x,-y,z
x,-y,-z
-x,y,-z
-x,-y,-z
x,y,-z
-x,y,z
x,-y,z
1/2+x,1/2+y,z
1/2-x,1/2-y,z
1/2+x,1/2-y,-z
1/2-x,1/2+y,-z
1/2-x,1/2-y,-z
1/2+x,1/2+y,-z
1/2-x,1/2+y,z
1/2+x,1/2-y,z
loop_
_atom_site_type_symbol
_atom_site_label
_atom_site_fract_x
_atom_site_fract_y
_atom_site_fract_z
Si Si1 0.000000 0.676770 0.948334
Si Si2 0.572860 0.323268 0.777011
Si Si3 0.684910 0.176310 0.280822
Si Si4 0.600168 0.675409 0.883565
Si Si5 0.314179 0.826210 0.050916
Si Si6 0.185498 0.324495 0.609772
Si Si7 0.571847 0.325609 0.554973
O O1 0.060333 0.727281 0.919737
O O2 0.000000 0.500000 0.952248
O O3 0.000000 0.751701 0.000000
O O4 0.500000 0.280011 0.764386
O O5 0.583777 0.500000 0.770625
O O6 0.621728 0.237791 0.743639
O O7 0.587665 0.272626 0.830300
O O8 0.750000 0.250000 0.260814
O O9 0.677596 0.217565 0.335580
O O10 0.689773 0.000000 0.271716
O O11 0.584834 0.500000 0.888523
O O12 0.667856 0.723615 0.903304
O O13 0.250000 0.750000 0.036395
O O14 0.309118 0.000000 0.066931
O O15 0.353323 0.817731 0.000000
O O16 0.192420 0.500000 0.601295
O O17 0.250000 0.250000 0.589499
O O18 0.122723 0.269470 0.583585
O O19 0.582238 0.293504 0.500000
O O20 0.500000 0.278525 0.569482
O O21 0.582472 0.500000 0.566557
#
# Coordination Sequence:
#
# PCOD8273333 Si02
#       7
#     8  16  16  16  16  16  16
#     4  11  23  37  55  81 111 143 179 219 266 323
#     4  10  22  41  61  84 116 151 189 235 286 344
#     4  10  22  40  62  88 116 151 195 243 296 353
#     4  11  22  38  58  81 109 142 180 222 270 326
#     4  10  21  37  56  80 109 141 179 221 267 323
#     4  10  21  37  58  85 117 152 196 247 297 353
#     4   9  19  36  57  83 118 160 204 247 294 352
#
# _framework density 19.573273
#
# number of rings (size 3 to 8) (size 9 to 14) (size 15 to 20)
#    0.000    1.923    0.769    3.000    0.000    8.923 
#    0.000    3.846    0.000    0.000    0.000    0.000 
#    0.000    0.000    0.000    0.000    0.000    0.000 
#
# Total GULP energy -644382.426930 kJ/mol
# GULP energy per Si atom -12391.969749 kJ/mol
# Density = 1.952872 g / cm^3
# Si number density = 19.573273 Si / 1000 Ang^3
#
#
#
# Elastic Constant Matrix: (Units=GPa)
#
#
# Indices 1 2 3 4 5 6 
#
# 1 136.4337 51.9568 66.4955 0.0000 0.0000 0.0000
# 2 51.9568 79.2317 50.4635 0.0000 0.0000 0.0000
# 3 66.4955 50.4635 84.2462 0.0000 0.0000 0.0000
# 4 0.0000 0.0000 0.0000 33.0319 0.0000 0.0000
# 5 0.0000 0.0000 0.0000 0.0000 -18.8154 0.0000
# 6 0.0000 0.0000 0.0000 0.0000 0.0000 42.4814
#
#
#
# Elastic Compliance Matrix: (Units=1/GPa)
#
#
# Indices 1 2 3 4 5 6 
#
# 1 0.012354 -0.003057 -0.007920 0.000000 0.000000 0.000000
# 2 -0.003057 0.021163 -0.010264 0.000000 0.000000 0.000000
# 3 -0.007920 -0.010264 0.024269 0.000000 0.000000 0.000000
# 4 0.000000 0.000000 0.000000 0.030274 0.000000 0.000000
# 5 0.000000 0.000000 0.000000 0.000000 -0.053148 0.000000
# 6 0.000000 0.000000 0.000000 0.000000 0.000000 0.023540
#
#
# Mechanical properties :
#
#
# Convention : Reuss Voigt Hill
#
# Bulk Modulus (GPa) = 65.33871 70.86035 68.09953
# Shear Modulus (GPa) = 47.15513 20.07264 33.61389
#
# Velocity S-wave (km/s) = 4.91364 3.20584 4.14857
# Velocity P-wave (km/s) = 8.10222 7.06996 7.60363
#
# Compressibility (1/GPa) = 0.01530486
#
# Stress axis : x y z
#
# Youngs Moduli (GPa) = 80.94829 47.25251 41.20502
#
# Poissons Ratio (x) = 0.14445 0.32633
# Poissons Ratio (y) = 0.24745 0.42292
# Poissons Ratio (z) = 0.64108 0.48499
#
# Static dielectric constant tensor:
#      x y z
#    x 3.269210 0.000000 0.000000 
#    y 0.000000 3.494220 0.000000 
#    z 0.000000 0.000000 3.542070 
# 
# 
# High freq. dielectric constant tensor:
#      x y z
#    x 1.773870 0.000000 0.000000 
#    y 0.000000 1.764310 0.000000 
#    z 0.000000 0.000000 1.758840 
# 
# From -- ./inp_files/75518.got.cif
#   From: 2010.03.12/outbox.cif.g09.slc.cpg/sg65_38_cif.got.tgz:75518.got - 2010.04.10 20:52:16.
