data_PCOD8273899
_publ_section_title
;
Structure prediction by ZEFSAII (Michael W. Deem and Ramdas Pophale) SiO2 
 PCOD8273899
Probable space group: C M M M
;
_chemical_formula_sum "Si O2"
_cell_formula_units_Z 80
_cell_length_a 28.036755
_cell_length_b 8.134567
_cell_length_c 17.517058
_cell_angle_alpha 90.000000
_cell_angle_beta 90.000000
_cell_angle_gamma 90.000000
_cell_volume 3995.060450
_symmetry_space_group_name_H-M "C M M M"
_symmetry_group_IT_number 65
_symmetry_cell_setting 'orthorhombic'
loop_
_space_group_symop_operation_xyz
x,y,z
-x,-y,z
x,-y,-z
-x,y,-z
-x,-y,-z
x,y,-z
-x,y,z
x,-y,z
1/2+x,1/2+y,z
1/2-x,1/2-y,z
1/2+x,1/2-y,-z
1/2-x,1/2+y,-z
1/2-x,1/2-y,-z
1/2+x,1/2+y,-z
1/2-x,1/2+y,z
1/2+x,1/2-y,z
loop_
_atom_site_type_symbol
_atom_site_label
_atom_site_fract_x
_atom_site_fract_y
_atom_site_fract_z
Si Si1 0.302854 0.687539 0.705865
Si Si2 0.303431 0.805087 0.000000
Si Si3 0.855128 0.689575 0.852856
Si Si4 0.384609 0.686981 0.410733
Si Si5 0.946267 0.500000 0.590550
Si Si6 0.052336 0.193271 0.914964
O O1 0.300136 0.500000 0.731150
O O2 0.250000 0.750000 0.688585
O O3 0.327655 0.782560 0.774614
O O4 0.333931 0.713650 0.629942
O O5 0.250000 0.750000 0.000000
O O6 0.327765 0.727712 0.075669
O O7 0.306271 0.000000 0.000000
O O8 0.858152 0.500000 0.868891
O O9 0.909325 0.755514 0.850901
O O10 0.374951 0.708395 0.500000
O O11 0.404249 0.500000 0.393570
O O12 0.420507 0.830746 0.381550
O O13 0.947879 0.500000 0.500000
O O14 0.000000 0.500000 0.623891
O O15 0.000000 0.263513 0.892240
O O16 0.049404 0.000000 0.917625
O O17 0.066464 0.259613 0.000000
#
# Coordination Sequence:
#
# PCOD8273899 Si02
#       6
#    16   8  16  16   8  16
#     4  11  24  40  60  86 117 157 198 242 299 354
#     4  10  22  36  51  76 105 141 186 233 283 342
#     4  11  22  37  56  81 113 148 191 240 291 347
#     4   9  20  39  62  91 126 161 202 251 300 359
#     4   9  18  34  62  96 126 161 203 249 302 356
#     4   9  18  34  57  83 110 145 189 236 291 350
#
# _framework density 20.024726999999999
#
# number of rings (size 3 to 8) (size 9 to 14) (size 15 to 20)
#    0.000    2.100    1.000    2.400    2.800    4.400 
#    0.000    4.000    0.000    1.200    0.000    0.000 
#    0.000    0.000    0.000    0.000    0.000    0.000 
#
# Total GULP energy -495811.734248 kJ/mol
# GULP energy per Si atom -12395.293356 kJ/mol
# Density = 1.997915 g / cm^3
# Si number density = 20.024727 Si / 1000 Ang^3
#
#
#
# Elastic Constant Matrix: (Units=GPa)
#
#
# Indices 1 2 3 4 5 6 
#
# 1 168.3052 58.7036 45.2287 0.0000 0.0000 0.0000
# 2 58.7036 87.3287 25.7750 0.0000 0.0000 0.0000
# 3 45.2287 25.7750 64.0618 0.0000 0.0000 0.0000
# 4 0.0000 0.0000 0.0000 23.2494 0.0000 0.0000
# 5 0.0000 0.0000 0.0000 0.0000 44.9997 0.0000
# 6 0.0000 0.0000 0.0000 0.0000 0.0000 30.5489
#
#
#
# Elastic Compliance Matrix: (Units=1/GPa)
#
#
# Indices 1 2 3 4 5 6 
#
# 1 0.008692 -0.004575 -0.004296 0.000000 0.000000 0.000000
# 2 -0.004575 0.015402 -0.002967 0.000000 0.000000 0.000000
# 3 -0.004296 -0.002967 0.019837 0.000000 0.000000 0.000000
# 4 0.000000 0.000000 0.000000 0.043012 0.000000 0.000000
# 5 0.000000 0.000000 0.000000 0.000000 0.022222 0.000000
# 6 0.000000 0.000000 0.000000 0.000000 0.000000 0.032734
#
#
# Mechanical properties :
#
#
# Convention : Reuss Voigt Hill
#
# Bulk Modulus (GPa) = 49.37060 64.34559 56.85809
# Shear Modulus (GPa) = 29.01485 32.42552 30.72019
#
# Velocity S-wave (km/s) = 3.81064 4.02839 3.92102
# Velocity P-wave (km/s) = 6.63850 7.33758 6.99677
#
# Compressibility (1/GPa) = 0.02025497
#
# Stress axis : x y z
#
# Youngs Moduli (GPa) = 115.05316 64.92700 50.41183
#
# Poissons Ratio (x) = 0.29702 0.21656
# Poissons Ratio (y) = 0.52634 0.14957
# Poissons Ratio (z) = 0.49425 0.19264
#
# Static dielectric constant tensor:
#      x y z
#    x 3.631890 0.000000 0.000000 
#    y 0.000000 3.773450 0.000000 
#    z 0.000000 0.000000 3.436460 
# 
# 
# High freq. dielectric constant tensor:
#      x y z
#    x 1.787960 0.000000 0.000000 
#    y 0.000000 1.785730 0.000000 
#    z 0.000000 0.000000 1.761610 
# 
# From -- ./inp_files/57291.got.cif
#   From: 2010.03.12/outbox.cif.g09.slc.cpg/sg65_29_cif.got.tgz:57291.got - 2010.04.10 20:52:16.
