data_PCOD8273340
_publ_section_title
;
Structure prediction by ZEFSAII (Michael W. Deem and Ramdas Pophale) SiO2 
 PCOD8273340
Probable space group: C M M M
;
_chemical_formula_sum "Si O2"
_cell_formula_units_Z 88
_cell_length_a 8.661632
_cell_length_b 28.564391
_cell_length_c 18.027291
_cell_angle_alpha 90.000000
_cell_angle_beta 90.000000
_cell_angle_gamma 90.000000
_cell_volume 4460.208559
_symmetry_space_group_name_H-M "C M M M"
_symmetry_group_IT_number 65
_symmetry_cell_setting 'orthorhombic'
loop_
_space_group_symop_operation_xyz
x,y,z
-x,-y,z
x,-y,-z
-x,y,-z
-x,-y,-z
x,y,-z
-x,y,z
x,-y,z
1/2+x,1/2+y,z
1/2-x,1/2-y,z
1/2+x,1/2-y,-z
1/2-x,1/2+y,-z
1/2-x,1/2-y,-z
1/2+x,1/2+y,-z
1/2-x,1/2+y,z
1/2+x,1/2-y,z
loop_
_atom_site_type_symbol
_atom_site_label
_atom_site_fract_x
_atom_site_fract_y
_atom_site_fract_z
Si Si1 0.818968 0.298038 0.850619
Si Si2 0.683544 0.947576 0.500000
Si Si3 0.319907 0.446085 0.222004
Si Si4 0.182230 0.798810 0.689757
Si Si5 0.318271 0.108528 0.642625
Si Si6 0.822940 0.114372 0.917025
O O1 0.750000 0.250000 0.883855
O O2 0.741131 0.309641 0.772193
O O3 0.783287 0.340100 0.906414
O O4 0.000000 0.292135 0.838655
O O5 0.500000 0.949553 0.500000
O O6 0.743998 0.921273 0.573149
O O7 0.752507 0.000000 0.500000
O O8 0.500000 0.439618 0.240282
O O9 0.270047 0.500000 0.223602
O O10 0.221572 0.418298 0.282075
O O11 0.278589 0.426360 0.140627
O O12 0.250000 0.750000 0.659205
O O13 0.236857 0.841027 0.637447
O O14 0.000000 0.795452 0.690311
O O15 0.500000 0.116365 0.638625
O O16 0.000000 0.129823 0.905609
O O17 0.794930 0.094799 0.000000
#
# Coordination Sequence:
#
# PCOD8273340 Si02
#       6
#    16   8  16  16  16  16
#     4  11  21  35  57  84 114 151 192 239 291 346
#     4   9  20  38  60  89 124 159 196 239 288 343
#     4  10  21  37  58  84 114 151 196 244 293 347
#     4  11  21  36  59  88 120 153 193 238 286 346
#     4  11  21  37  62  90 119 156 196 238 289 345
#     4  10  21  37  56  80 115 156 196 241 292 347
#
# _framework density 19.730018999999999
#
# number of rings (size 3 to 8) (size 9 to 14) (size 15 to 20)
#    0.000    1.545    1.818    5.455    0.000    2.182 
#    0.000    4.091    0.000    3.273    0.000    2.545 
#    0.000    0.000    0.000    0.000    0.000    0.000 
#
# Total GULP energy -545775.375415 kJ/mol
# GULP energy per Si atom -12403.985805 kJ/mol
# Density = 1.968511 g / cm^3
# Si number density = 19.730019 Si / 1000 Ang^3
#
#
#
# Elastic Constant Matrix: (Units=GPa)
#
#
# Indices 1 2 3 4 5 6 
#
# 1 111.6163 48.5739 35.0962 0.0000 0.0000 0.0000
# 2 48.5739 153.5445 64.1060 0.0000 0.0000 0.0000
# 3 35.0962 64.1060 113.3344 0.0000 0.0000 0.0000
# 4 0.0000 0.0000 0.0000 28.5920 0.0000 0.0000
# 5 0.0000 0.0000 0.0000 0.0000 17.9168 0.0000
# 6 0.0000 0.0000 0.0000 0.0000 0.0000 29.0880
#
#
#
# Elastic Compliance Matrix: (Units=1/GPa)
#
#
# Indices 1 2 3 4 5 6 
#
# 1 0.010671 -0.002613 -0.001826 0.000000 0.000000 0.000000
# 2 -0.002613 0.009166 -0.004376 0.000000 0.000000 0.000000
# 3 -0.001826 -0.004376 0.011864 0.000000 0.000000 0.000000
# 4 0.000000 0.000000 0.000000 0.034975 0.000000 0.000000
# 5 0.000000 0.000000 0.000000 0.000000 0.055814 0.000000
# 6 0.000000 0.000000 0.000000 0.000000 0.000000 0.034378
#
#
# Mechanical properties :
#
#
# Convention : Reuss Voigt Hill
#
# Bulk Modulus (GPa) = 71.06858 74.89415 72.98137
# Shear Modulus (GPa) = 27.90361 30.50062 29.20212
#
# Velocity S-wave (km/s) = 3.76476 3.93606 3.85136
# Velocity P-wave (km/s) = 7.41597 7.66150 7.53974
#
# Compressibility (1/GPa) = 0.01407091
#
# Stress axis : x y z
#
# Youngs Moduli (GPa) = 93.71413 109.09545 84.28893
#
# Poissons Ratio (x) = 0.28509 0.15393
# Poissons Ratio (y) = 0.24490 0.36881
# Poissons Ratio (z) = 0.17115 0.47735
#
# Static dielectric constant tensor:
#      x y z
#    x 3.490490 0.000000 0.000000 
#    y 0.000000 3.813190 0.000000 
#    z 0.000000 0.000000 3.516890 
# 
# 
# High freq. dielectric constant tensor:
#      x y z
#    x 1.764250 0.000000 0.000000 
#    y 0.000000 1.781790 0.000000 
#    z 0.000000 0.000000 1.754030 
# 
# From -- ./inp_files/50336.got.cif
#   From: 2010.03.12/outbox.cif.g09.slc.cpg/sg65_26_cif.got.tgz:50336.got - 2010.04.10 20:52:16.
