data_PCOD8273556
_publ_section_title
;
Structure prediction by ZEFSAII (Michael W. Deem and Ramdas Pophale) SiO2 
 PCOD8273556
Probable space group: C M M M
;
_chemical_formula_sum "Si O2"
_cell_formula_units_Z 80
_cell_length_a 25.847545
_cell_length_b 8.234394
_cell_length_c 23.494323
_cell_angle_alpha 90.000000
_cell_angle_beta 90.000000
_cell_angle_gamma 90.000000
_cell_volume 5000.505146
_symmetry_space_group_name_H-M "C M M M"
_symmetry_group_IT_number 65
_symmetry_cell_setting 'orthorhombic'
loop_
_space_group_symop_operation_xyz
x,y,z
-x,-y,z
x,-y,-z
-x,y,-z
-x,-y,-z
x,y,-z
-x,y,z
x,-y,z
1/2+x,1/2+y,z
1/2-x,1/2-y,z
1/2+x,1/2-y,-z
1/2-x,1/2+y,-z
1/2-x,1/2-y,-z
1/2+x,1/2+y,-z
1/2-x,1/2+y,z
1/2+x,1/2-y,z
loop_
_atom_site_type_symbol
_atom_site_label
_atom_site_fract_x
_atom_site_fract_y
_atom_site_fract_z
Si Si1 0.061584 0.000000 0.935278
Si Si2 0.500000 0.186315 0.438059
Si Si3 0.805888 0.691374 0.435461
Si Si4 0.441614 0.811740 0.740791
Si Si5 0.938393 0.681992 0.868831
Si Si6 0.596421 0.314910 0.628803
O O1 0.083013 0.167624 0.906787
O O2 0.000000 0.000000 0.931293
O O3 0.081054 0.000000 0.000000
O O4 0.500000 0.276970 0.500000
O O5 0.448753 0.219784 0.402560
O O6 0.500000 0.000000 0.451711
O O7 0.816003 0.752450 0.500000
O O8 0.809322 0.500000 0.432054
O O9 0.750000 0.750000 0.414215
O O10 0.847615 0.766686 0.393592
O O11 0.500000 0.742608 0.736263
O O12 0.419648 0.784748 0.804369
O O13 0.405145 0.717943 0.696480
O O14 0.441363 0.000000 0.724802
O O15 0.919129 0.500000 0.888905
O O16 0.000000 0.679420 0.870377
O O17 0.586028 0.500000 0.615651
#
# Coordination Sequence:
#
# PCOD8273556 Si02
#       6
#     8   8  16  16  16  16
#     4   9  16  24  36  56  80 110 150 196 230 266
#     4  11  23  37  49  63  91 125 151 186 239 288
#     4  10  21  38  57  72  89 116 150 191 235 283
#     4   9  17  30  46  62  87 119 153 191 231 277
#     4   8  15  26  39  55  78 113 149 190 234 272
#     4  12  23  32  48  73  94 118 151 192 236 287
#
# _framework density 15.998384
#
# number of rings (size 3 to 8) (size 9 to 14) (size 15 to 20)
#    0.000    2.200    1.000    4.500    1.400    4.800 
#    0.000    2.000    0.000    0.000    0.000    0.000 
#    0.000    0.000    0.000    0.000    0.000    1.000 
#
# Total GULP energy -495826.783782 kJ/mol
# GULP energy per Si atom -12395.669595 kJ/mol
# Density = 1.596197 g / cm^3
# Si number density = 15.998384 Si / 1000 Ang^3
#
#
#
# Elastic Constant Matrix: (Units=GPa)
#
#
# Indices 1 2 3 4 5 6 
#
# 1 52.9179 20.8950 36.2583 0.0000 0.0000 0.0000
# 2 20.8950 96.0111 53.9156 0.0000 0.0000 0.0000
# 3 36.2583 53.9156 107.2015 0.0000 0.0000 0.0000
# 4 0.0000 0.0000 0.0000 24.7097 0.0000 0.0000
# 5 0.0000 0.0000 0.0000 0.0000 7.8533 0.0000
# 6 0.0000 0.0000 0.0000 0.0000 0.0000 17.3403
#
#
#
# Elastic Compliance Matrix: (Units=1/GPa)
#
#
# Indices 1 2 3 4 5 6 
#
# 1 0.024660 -0.000952 -0.007862 0.000000 0.000000 0.000000
# 2 -0.000952 0.014552 -0.006997 0.000000 0.000000 0.000000
# 3 -0.007862 -0.006997 0.015506 0.000000 0.000000 0.000000
# 4 0.000000 0.000000 0.000000 0.040470 0.000000 0.000000
# 5 0.000000 0.000000 0.000000 0.000000 0.127335 0.000000
# 6 0.000000 0.000000 0.000000 0.000000 0.000000 0.057669
#
#
# Mechanical properties :
#
#
# Convention : Reuss Voigt Hill
#
# Bulk Modulus (GPa) = 43.29578 53.14093 48.21836
# Shear Modulus (GPa) = 15.64893 19.65146 17.65019
#
# Velocity S-wave (km/s) = 3.13094 3.50857 3.32512
# Velocity P-wave (km/s) = 6.33970 7.04996 6.70424
#
# Compressibility (1/GPa) = 0.02309694
#
# Stress axis : x y z
#
# Youngs Moduli (GPa) = 40.55178 68.72105 64.49065
#
# Poissons Ratio (x) = 0.06542 0.50701
# Poissons Ratio (y) = 0.03860 0.45121
# Poissons Ratio (z) = 0.31881 0.48081
#
# Static dielectric constant tensor:
#      x y z
#    x 2.629800 0.000000 0.000000 
#    y 0.000000 3.271170 0.000000 
#    z 0.000000 0.000000 3.131410 
# 
# 
# High freq. dielectric constant tensor:
#      x y z
#    x 1.552540 0.000000 0.000000 
#    y 0.000000 1.632260 0.000000 
#    z 0.000000 0.000000 1.611620 
# 
# From -- ./inp_files/65057.got.cif
#   From: 2010.03.12/outbox.cif.g09.slc.cpg/sg65_33_cif.got.tgz:65057.got - 2010.04.10 20:52:16.
