data_PCOD8273507
_publ_section_title
;
Structure prediction by ZEFSAII (Michael W. Deem and Ramdas Pophale) SiO2 
 PCOD8273507
Probable space group: C M M M
;
_chemical_formula_sum "Si O2"
_cell_formula_units_Z 88
_cell_length_a 20.334221
_cell_length_b 23.333525
_cell_length_c 9.456397
_cell_angle_alpha 90.000000
_cell_angle_beta 90.000000
_cell_angle_gamma 90.000000
_cell_volume 4486.767739
_symmetry_space_group_name_H-M "C M M M"
_symmetry_group_IT_number 65
_symmetry_cell_setting 'orthorhombic'
loop_
_space_group_symop_operation_xyz
x,y,z
-x,-y,z
x,-y,-z
-x,y,-z
-x,-y,-z
x,y,-z
-x,y,z
x,-y,z
1/2+x,1/2+y,z
1/2-x,1/2-y,z
1/2+x,1/2-y,-z
1/2-x,1/2+y,-z
1/2-x,1/2-y,-z
1/2+x,1/2+y,-z
1/2-x,1/2+y,z
1/2+x,1/2-y,z
loop_
_atom_site_type_symbol
_atom_site_label
_atom_site_fract_x
_atom_site_fract_y
_atom_site_fract_z
Si Si1 0.880123 0.621259 0.334818
Si Si2 0.500000 0.067620 0.831521
Si Si3 0.872076 0.063569 0.161124
Si Si4 0.927432 0.180383 0.162841
Si Si5 0.747332 0.432935 0.345467
Si Si6 0.673923 0.246917 0.664649
O O1 0.899029 0.612476 0.500000
O O2 0.938142 0.600191 0.234784
O O3 0.818579 0.582987 0.287215
O O4 0.860043 0.686362 0.303021
O O5 0.500000 0.000000 0.791806
O O6 0.500000 0.076007 0.000000
O O7 0.928599 0.110952 0.180756
O O8 0.809189 0.088969 0.242764
O O9 0.894922 0.000000 0.215258
O O10 0.849795 0.058411 0.000000
O O11 0.869609 0.206515 0.255323
O O12 0.000000 0.201939 0.210749
O O13 0.914669 0.196997 0.000000
O O14 0.737706 0.403568 0.500000
O O15 0.742228 0.500000 0.359790
O O16 0.671574 0.261844 0.500000
O O17 0.750000 0.250000 0.717311
#
# Coordination Sequence:
#
# PCOD8273507 Si02
#       6
#    16   8  16  16  16  16
#     4  10  21  37  59  83 110 148 193 236 285 345
#     4  11  25  41  57  83 119 157 196 241 294 349
#     4   9  18  33  54  80 110 145 185 229 277 331
#     4  10  22  38  56  81 114 150 188 230 280 338
#     4   9  17  31  54  82 109 139 179 230 284 334
#     4  10  22  40  62  87 114 147 192 242 290 345
#
# _framework density 19.613229
#
# number of rings (size 3 to 8) (size 9 to 14) (size 15 to 20)
#    0.000    2.273    0.000    1.909    1.273    6.182 
#    0.000    3.636    0.000    0.000    0.000    3.818 
#    0.000    0.000    0.000    0.000    0.000    0.000 
#
# Total GULP energy -545349.281032 kJ/mol
# GULP energy per Si atom -12394.301842 kJ/mol
# Density = 1.956859 g / cm^3
# Si number density = 19.613229 Si / 1000 Ang^3
#
#
#
# Elastic Constant Matrix: (Units=GPa)
#
#
# Indices 1 2 3 4 5 6 
#
# 1 128.5368 61.1951 52.5666 0.0000 0.0000 0.0000
# 2 61.1951 77.6568 48.4735 0.0000 0.0000 0.0000
# 3 52.5666 48.4735 64.4698 0.0000 0.0000 0.0000
# 4 0.0000 0.0000 0.0000 24.4547 0.0000 0.0000
# 5 0.0000 0.0000 0.0000 0.0000 31.5388 0.0000
# 6 0.0000 0.0000 0.0000 0.0000 0.0000 32.1312
#
#
#
# Elastic Compliance Matrix: (Units=1/GPa)
#
#
# Indices 1 2 3 4 5 6 
#
# 1 0.013463 -0.007080 -0.005654 0.000000 0.000000 0.000000
# 2 -0.007080 0.027989 -0.015272 0.000000 0.000000 0.000000
# 3 -0.005654 -0.015272 0.031604 0.000000 0.000000 0.000000
# 4 0.000000 0.000000 0.000000 0.040892 0.000000 0.000000
# 5 0.000000 0.000000 0.000000 0.000000 0.031707 0.000000
# 6 0.000000 0.000000 0.000000 0.000000 0.000000 0.031122
#
#
# Mechanical properties :
#
#
# Convention : Reuss Voigt Hill
#
# Bulk Modulus (GPa) = 58.66996 66.12600 62.39798
# Shear Modulus (GPa) = 20.96718 24.85351 22.91034
#
# Velocity S-wave (km/s) = 3.27315 3.56361 3.42147
# Velocity P-wave (km/s) = 6.65305 7.12184 6.89143
#
# Compressibility (1/GPa) = 0.01704450
#
# Stress axis : x y z
#
# Youngs Moduli (GPa) = 74.27934 35.72882 31.64199
#
# Poissons Ratio (x) = 0.25295 0.17890
# Poissons Ratio (y) = 0.52587 0.48322
# Poissons Ratio (z) = 0.41998 0.54563
#
# Static dielectric constant tensor:
#      x y z
#    x 3.604390 0.000000 0.000000 
#    y 0.000000 3.716460 0.000000 
#    z 0.000000 0.000000 3.702880 
# 
# 
# High freq. dielectric constant tensor:
#      x y z
#    x 1.765070 0.000000 0.000000 
#    y 0.000000 1.774690 0.000000 
#    z 0.000000 0.000000 1.752820 
# 
# From -- ./inp_files/11722.got.cif
#   From: 2010.03.12/outbox.cif.g09.slc.cpg/sg65_6_cif.got.tgz:11722.got - 2010.04.10 20:52:16.
