data_PCOD8273557
_publ_section_title
;
Structure prediction by ZEFSAII (Michael W. Deem and Ramdas Pophale) SiO2 
 PCOD8273557
Probable space group: C M M M
;
_chemical_formula_sum "Si O2"
_cell_formula_units_Z 104
_cell_length_a 28.574185
_cell_length_b 9.165356
_cell_length_c 23.209079
_cell_angle_alpha 90.000000
_cell_angle_beta 90.000000
_cell_angle_gamma 90.000000
_cell_volume 6078.285531
_symmetry_space_group_name_H-M "C M M M"
_symmetry_group_IT_number 65
_symmetry_cell_setting 'orthorhombic'
loop_
_space_group_symop_operation_xyz
x,y,z
-x,-y,z
x,-y,-z
-x,y,-z
-x,-y,-z
x,y,-z
-x,y,z
x,-y,z
1/2+x,1/2+y,z
1/2-x,1/2-y,z
1/2+x,1/2-y,-z
1/2-x,1/2+y,-z
1/2-x,1/2-y,-z
1/2+x,1/2+y,-z
1/2-x,1/2+y,z
1/2+x,1/2-y,z
loop_
_atom_site_type_symbol
_atom_site_label
_atom_site_fract_x
_atom_site_fract_y
_atom_site_fract_z
Si Si1 0.705449 0.168276 0.735885
Si Si2 0.603870 0.831689 0.434463
Si Si3 0.444768 0.340945 0.000000
Si Si4 0.555016 0.330749 0.666077
Si Si5 0.945821 0.172998 0.875178
Si Si6 0.896419 0.328345 0.771829
Si Si7 0.204719 0.670048 0.395838
O O1 0.750000 0.250000 0.763505
O O2 0.658874 0.204503 0.771527
O O3 0.697178 0.218948 0.670212
O O4 0.717868 0.000000 0.738237
O O5 0.587107 0.810984 0.500000
O O6 0.571177 0.731902 0.395191
O O7 0.658072 0.783302 0.429790
O O8 0.598917 0.000000 0.414473
O O9 0.431196 0.264987 0.060868
O O10 0.420965 0.500000 0.000000
O O11 0.500000 0.362601 0.000000
O O12 0.500000 0.308382 0.672239
O O13 0.568930 0.500000 0.670042
O O14 0.579575 0.244717 0.717220
O O15 0.915013 0.260958 0.830517
O O16 0.000000 0.205716 0.862083
O O17 0.936336 0.000000 0.870573
O O18 0.906904 0.500000 0.769251
O O19 0.214242 0.500000 0.402012
O O20 0.250000 0.750000 0.422590
#
# Coordination Sequence:
#
# PCOD8273557 Si02
#       7
#    16  16   8  16  16  16  16
#     4   9  18  32  50  72  99 128 160 199 246 299
#     4  10  21  38  57  75  98 129 164 201 247 306
#     4   7  12  26  47  69 100 141 178 211 244 283
#     4  11  24  39  54  73  98 129 167 211 252 292
#     4   9  17  30  49  75 106 141 179 212 244 287
#     4  11  21  34  52  77 106 134 165 205 253 301
#     4   9  17  32  51  74 100 126 157 196 243 298
#
# _framework density 17.110088000000001
#
# number of rings (size 3 to 8) (size 9 to 14) (size 15 to 20)
#    0.000    2.385    1.538    2.308    0.000    6.154 
#    0.000    1.923    0.000    1.385    0.000    0.538 
#    0.000    0.000    0.000    0.000    0.000    0.000 
#
# Total GULP energy -644621.593234 kJ/mol
# GULP energy per Si atom -12396.569101 kJ/mol
# Density = 1.707114 g / cm^3
# Si number density = 17.110088 Si / 1000 Ang^3
#
#
#
# Elastic Constant Matrix: (Units=GPa)
#
#
# Indices 1 2 3 4 5 6 
#
# 1 86.3574 55.9509 50.7353 0.0000 0.0000 0.0000
# 2 55.9509 76.2202 51.6753 0.0000 0.0000 0.0000
# 3 50.7353 51.6753 113.4470 0.0000 0.0000 0.0000
# 4 0.0000 0.0000 0.0000 21.8189 0.0000 0.0000
# 5 0.0000 0.0000 0.0000 0.0000 -6.9814 0.0000
# 6 0.0000 0.0000 0.0000 0.0000 0.0000 32.0906
#
#
#
# Elastic Compliance Matrix: (Units=1/GPa)
#
#
# Indices 1 2 3 4 5 6 
#
# 1 0.023151 -0.014432 -0.003780 0.000000 0.000000 0.000000
# 2 -0.014432 0.027978 -0.006290 0.000000 0.000000 0.000000
# 3 -0.003780 -0.006290 0.013370 0.000000 0.000000 0.000000
# 4 0.000000 0.000000 0.000000 0.045832 0.000000 0.000000
# 5 0.000000 0.000000 0.000000 0.000000 -0.143239 0.000000
# 6 0.000000 0.000000 0.000000 0.000000 0.000000 0.031162
#
#
# Mechanical properties :
#
#
# Convention : Reuss Voigt Hill
#
# Bulk Modulus (GPa) = 64.53192 65.86085 65.19639
# Shear Modulus (GPa) = 95.37957 17.22982 56.30470
#
# Velocity S-wave (km/s) = 7.47433 3.17677 5.74271
# Velocity P-wave (km/s) = 10.59647 7.21330 9.06413
#
# Compressibility (1/GPa) = 0.01549621
#
# Stress axis : x y z
#
# Youngs Moduli (GPa) = 43.19540 35.74211 74.79344
#
# Poissons Ratio (x) = 0.51582 0.28270
# Poissons Ratio (y) = 0.62338 0.47046
# Poissons Ratio (z) = 0.16326 0.22482
#
# Static dielectric constant tensor:
#      x y z
#    x 3.201710 0.000000 0.000000 
#    y 0.000000 3.159640 0.000000 
#    z 0.000000 0.000000 3.282540 
# 
# 
# High freq. dielectric constant tensor:
#      x y z
#    x 1.651630 0.000000 0.000000 
#    y 0.000000 1.653350 0.000000 
#    z 0.000000 0.000000 1.651220 
# 
# From -- ./inp_files/60802.got.cif
#   From: 2010.03.12/outbox.cif.g09.slc.cpg/sg65_31_cif.got.tgz:60802.got - 2010.04.10 20:52:16.
