data_PCOD8273988
_publ_section_title
;
Structure prediction by ZEFSAII (Michael W. Deem and Ramdas Pophale) SiO2 
 PCOD8273988
Probable space group: C M M M
;
_chemical_formula_sum "Si O2"
_cell_formula_units_Z 88
_cell_length_a 14.651822
_cell_length_b 17.345277
_cell_length_c 17.357002
_cell_angle_alpha 90.000000
_cell_angle_beta 90.000000
_cell_angle_gamma 90.000000
_cell_volume 4411.106946
_symmetry_space_group_name_H-M "C M M M"
_symmetry_group_IT_number 65
_symmetry_cell_setting 'orthorhombic'
loop_
_space_group_symop_operation_xyz
x,y,z
-x,-y,z
x,-y,-z
-x,y,-z
-x,-y,-z
x,y,-z
-x,y,z
x,-y,z
1/2+x,1/2+y,z
1/2-x,1/2-y,z
1/2+x,1/2-y,-z
1/2-x,1/2+y,-z
1/2-x,1/2-y,-z
1/2+x,1/2+y,-z
1/2-x,1/2+y,z
1/2+x,1/2-y,z
loop_
_atom_site_type_symbol
_atom_site_label
_atom_site_fract_x
_atom_site_fract_y
_atom_site_fract_z
Si Si1 0.899052 0.169575 0.285933
Si Si2 0.262142 0.411113 0.369675
Si Si3 0.287560 0.408315 0.000000
Si Si4 0.901230 0.668845 0.000000
Si Si5 0.655386 0.712457 0.876998
Si Si6 0.899553 0.090653 0.500000
Si Si7 0.603955 0.200924 0.411796
O O1 0.812924 0.109683 0.289134
O O2 0.904015 0.199298 0.198934
O O3 0.875336 0.235601 0.347784
O O4 0.000000 0.134200 0.304576
O O5 0.238123 0.500000 0.375321
O O6 0.343048 0.383360 0.426281
O O7 0.168247 0.370267 0.389945
O O8 0.178238 0.395017 0.000000
O O9 0.330579 0.367366 0.924558
O O10 0.308892 0.500000 0.000000
O O11 0.896950 0.724324 0.926597
O O12 0.000000 0.626709 0.000000
O O13 0.750000 0.750000 0.851363
O O14 0.000000 0.131570 0.500000
O O15 0.913394 0.000000 0.500000
O O16 0.624209 0.230056 0.500000
O O17 0.500000 0.171540 0.405723
#
# Coordination Sequence:
#
# PCOD8273988 Si02
#       7
#    16  16   8   8  16   8  16
#     4  11  23  37  58  84 112 147 188 236 283 331
#     4  11  22  36  55  79 108 146 184 227 283 336
#     4   9  19  34  56  86 117 147 180 220 273 327
#     4   9  17  32  58  84 111 145 184 226 268 326
#     4   9  18  35  56  80 110 150 190 224 268 326
#     4   9  18  32  48  69 101 139 177 214 262 324
#     4  10  22  39  58  82 109 141 187 238 287 336
#
# _framework density 19.949642000000001
#
# number of rings (size 3 to 8) (size 9 to 14) (size 15 to 20)
#    0.000    2.091    0.909    3.818    1.273    3.091 
#    0.000    0.909    0.000    9.273    0.000    5.091 
#    0.000    0.000    0.000    0.000    0.000    0.000 
#
# Total GULP energy -545245.490390 kJ/mol
# GULP energy per Si atom -12391.942963 kJ/mol
# Density = 1.990424 g / cm^3
# Si number density = 19.949642 Si / 1000 Ang^3
#
#
#
# Elastic Constant Matrix: (Units=GPa)
#
#
# Indices 1 2 3 4 5 6 
#
# 1 109.7720 33.4284 27.9434 0.0000 0.0000 0.0000
# 2 33.4284 88.0887 36.5962 0.0000 0.0000 0.0000
# 3 27.9434 36.5962 111.3424 0.0000 0.0000 0.0000
# 4 0.0000 0.0000 0.0000 14.6793 0.0000 0.0000
# 5 0.0000 0.0000 0.0000 0.0000 27.4703 0.0000
# 6 0.0000 0.0000 0.0000 0.0000 0.0000 26.5154
#
#
#
# Elastic Compliance Matrix: (Units=1/GPa)
#
#
# Indices 1 2 3 4 5 6 
#
# 1 0.010523 -0.003354 -0.001538 0.000000 0.000000 0.000000
# 2 -0.003354 0.014217 -0.003831 0.000000 0.000000 0.000000
# 3 -0.001538 -0.003831 0.010627 0.000000 0.000000 0.000000
# 4 0.000000 0.000000 0.000000 0.068123 0.000000 0.000000
# 5 0.000000 0.000000 0.000000 0.000000 0.036403 0.000000
# 6 0.000000 0.000000 0.000000 0.000000 0.000000 0.037714
#
#
# Mechanical properties :
#
#
# Convention : Reuss Voigt Hill
#
# Bulk Modulus (GPa) = 55.80688 56.12656 55.96672
# Shear Modulus (GPa) = 24.87237 27.81532 26.34385
#
# Velocity S-wave (km/s) = 3.53478 3.73805 3.63783
# Velocity P-wave (km/s) = 6.68537 6.84295 6.76462
#
# Compressibility (1/GPa) = 0.01791894
#
# Stress axis : x y z
#
# Youngs Moduli (GPa) = 95.03144 70.34033 94.10373
#
# Poissons Ratio (x) = 0.23593 0.14477
# Poissons Ratio (y) = 0.31875 0.36051
# Poissons Ratio (z) = 0.14620 0.26947
#
# Static dielectric constant tensor:
#      x y z
#    x 3.755840 0.000000 0.000000 
#    y 0.000000 3.317010 0.000000 
#    z 0.000000 0.000000 3.496800 
# 
# 
# High freq. dielectric constant tensor:
#      x y z
#    x 1.792610 0.000000 0.000000 
#    y 0.000000 1.753600 0.000000 
#    z 0.000000 0.000000 1.779140 
# 
# From -- ./inp_files/53093.got.cif
#   From: 2010.03.12/outbox.cif.g09.slc.cpg/sg65_27_cif.got.tgz:53093.got - 2010.04.10 20:52:16.
