data_PCOD8273631
_publ_section_title
;
Structure prediction by ZEFSAII (Michael W. Deem and Ramdas Pophale) SiO2 
 PCOD8273631
Probable space group: C M M M
;
_chemical_formula_sum "Si O2"
_cell_formula_units_Z 88
_cell_length_a 8.816760
_cell_length_b 25.623081
_cell_length_c 20.502779
_cell_angle_alpha 90.000000
_cell_angle_beta 90.000000
_cell_angle_gamma 90.000000
_cell_volume 4631.835202
_symmetry_space_group_name_H-M "C M M M"
_symmetry_group_IT_number 65
_symmetry_cell_setting 'orthorhombic'
loop_
_space_group_symop_operation_xyz
x,y,z
-x,-y,z
x,-y,-z
-x,y,-z
-x,-y,-z
x,y,-z
-x,y,z
x,-y,z
1/2+x,1/2+y,z
1/2-x,1/2-y,z
1/2+x,1/2-y,-z
1/2-x,1/2+y,-z
1/2-x,1/2-y,-z
1/2+x,1/2+y,-z
1/2-x,1/2+y,z
1/2+x,1/2-y,z
loop_
_atom_site_type_symbol
_atom_site_label
_atom_site_fract_x
_atom_site_fract_y
_atom_site_fract_z
Si Si1 0.671902 0.000000 0.139534
Si Si2 0.177961 0.695492 0.142822
Si Si3 0.175431 0.901267 0.075961
Si Si4 0.321309 0.195158 0.707585
Si Si5 0.180008 0.097739 0.638699
Si Si6 0.820691 0.058317 0.500000
Si Si7 0.327539 0.000000 0.706199
O O1 0.756291 0.050980 0.115200
O O2 0.674237 0.000000 0.216657
O O3 0.500000 0.000000 0.113034
O O4 0.250000 0.750000 0.121096
O O5 0.241296 0.651501 0.095646
O O6 0.220267 0.682115 0.217543
O O7 0.000000 0.699689 0.133140
O O8 0.000000 0.895876 0.094125
O O9 0.200348 0.911811 0.000000
O O10 0.500000 0.197411 0.696873
O O11 0.250000 0.250000 0.686463
O O12 0.250505 0.151765 0.661476
O O13 0.233054 0.089175 0.564114
O O14 0.241242 0.051056 0.682517
O O15 0.000000 0.099731 0.645652
O O16 0.000000 0.052947 0.500000
O O17 0.749642 0.000000 0.500000
O O18 0.500000 0.000000 0.679946
#
# Coordination Sequence:
#
# PCOD8273631 Si02
#       7
#     8  16  16  16  16   8   8
#     4  11  24  40  58  81 112 150 189 232 283 338
#     4  10  21  38  61  86 114 148 186 233 284 335
#     4  11  24  40  58  82 113 148 188 234 282 337
#     4  10  21  38  59  86 117 148 188 235 282 334
#     4  11  21  36  60  86 114 152 192 232 282 334
#     4   9  18  36  57  82 117 152 191 233 274 330
#     4  11  23  37  55  85 119 146 183 236 285 335
#
# _framework density 18.998949
#
# number of rings (size 3 to 8) (size 9 to 14) (size 15 to 20)
#    0.000    1.545    0.909    4.091    0.000   10.909 
#    0.000    2.727    0.000    0.000    0.000    0.000 
#    0.000    0.000    0.000    0.000    0.000    0.000 
#
# Total GULP energy -545814.270115 kJ/mol
# GULP energy per Si atom -12404.869775 kJ/mol
# Density = 1.895571 g / cm^3
# Si number density = 18.998949 Si / 1000 Ang^3
#
#
#
# Elastic Constant Matrix: (Units=GPa)
#
#
# Indices 1 2 3 4 5 6 
#
# 1 86.7727 50.0477 33.7475 0.0000 0.0000 0.0000
# 2 50.0477 126.9017 37.7452 0.0000 0.0000 0.0000
# 3 33.7475 37.7452 67.2752 0.0000 0.0000 0.0000
# 4 0.0000 0.0000 0.0000 -165.8370 0.0000 0.0000
# 5 0.0000 0.0000 0.0000 0.0000 26.6957 0.0000
# 6 0.0000 0.0000 0.0000 0.0000 0.0000 40.9348
#
#
#
# Elastic Compliance Matrix: (Units=1/GPa)
#
#
# Indices 1 2 3 4 5 6 
#
# 1 0.016478 -0.004849 -0.005545 0.000000 0.000000 0.000000
# 2 -0.004849 0.010886 -0.003675 0.000000 0.000000 0.000000
# 3 -0.005545 -0.003675 0.019708 0.000000 0.000000 0.000000
# 4 0.000000 0.000000 0.000000 -0.006030 0.000000 0.000000
# 5 0.000000 0.000000 0.000000 0.000000 0.037459 0.000000
# 6 0.000000 0.000000 0.000000 0.000000 0.000000 0.024429
#
#
# Mechanical properties :
#
#
# Convention : Reuss Voigt Hill
#
# Bulk Modulus (GPa) = 52.81873 58.22558 55.52216
# Shear Modulus (GPa) = 36.39566 -9.01402 13.69082
#
# Velocity S-wave (km/s) = 4.38158 -2.18055 2.68733
# Velocity P-wave (km/s) = 7.31156 4.93696 6.23829
#
# Compressibility (1/GPa) = 0.01893268
#
# Stress axis : x y z
#
# Youngs Moduli (GPa) = 60.68755 91.86439 50.74139
#
# Poissons Ratio (x) = 0.44547 0.28137
# Poissons Ratio (y) = 0.29429 0.18647
# Poissons Ratio (z) = 0.33652 0.33759
#
# Static dielectric constant tensor:
#      x y z
#    x 3.651860 0.000000 0.000000 
#    y 0.000000 3.547980 0.000000 
#    z 0.000000 0.000000 3.588410 
# 
# 
# High freq. dielectric constant tensor:
#      x y z
#    x 1.750220 0.000000 0.000000 
#    y 0.000000 1.750520 0.000000 
#    z 0.000000 0.000000 1.739110 
# 
# From -- ./inp_files/59878.got.cif
#   From: 2010.03.12/outbox.cif.g09.slc.cpg/sg65_30_cif.got.tgz:59878.got - 2010.04.10 20:52:16.
