data_PCOD8273816
_publ_section_title
;
Structure prediction by ZEFSAII (Michael W. Deem and Ramdas Pophale) SiO2 
 PCOD8273816
Probable space group: C M M M
;
_chemical_formula_sum "Si O2"
_cell_formula_units_Z 64
_cell_length_a 25.843646
_cell_length_b 7.922569
_cell_length_c 14.799457
_cell_angle_alpha 90.000000
_cell_angle_beta 90.000000
_cell_angle_gamma 90.000000
_cell_volume 3030.160238
_symmetry_space_group_name_H-M "C M M M"
_symmetry_group_IT_number 65
_symmetry_cell_setting 'orthorhombic'
loop_
_space_group_symop_operation_xyz
x,y,z
-x,-y,z
x,-y,-z
-x,y,-z
-x,-y,-z
x,y,-z
-x,y,z
x,-y,z
1/2+x,1/2+y,z
1/2-x,1/2-y,z
1/2+x,1/2-y,-z
1/2-x,1/2+y,-z
1/2-x,1/2-y,-z
1/2+x,1/2+y,-z
1/2-x,1/2+y,z
1/2+x,1/2-y,z
loop_
_atom_site_type_symbol
_atom_site_label
_atom_site_fract_x
_atom_site_fract_y
_atom_site_fract_z
Si Si1 0.109623 0.804249 0.399723
Si Si2 0.557405 0.500000 0.107014
Si Si3 0.127495 0.690582 0.896178
Si Si4 0.192741 0.199193 0.258725
Si Si5 0.500000 0.191812 0.393308
O O1 0.113592 0.719683 0.500000
O O2 0.153334 0.727034 0.334275
O O3 0.052695 0.775845 0.355938
O O4 0.120320 0.000000 0.409344
O O5 0.500000 0.500000 0.149711
O O6 0.586109 0.670985 0.139492
O O7 0.553635 0.500000 0.000000
O O8 0.105125 0.500000 0.885647
O O9 0.179205 0.712457 0.836685
O O10 0.142554 0.726250 0.000000
O O11 0.250000 0.250000 0.288683
O O12 0.187192 0.000000 0.247877
O O13 0.500000 0.217212 0.500000
O O14 0.500000 0.000000 0.362264
#
# Coordination Sequence:
#
# PCOD8273816 Si02
#       5
#    16   8  16  16   8
#     4   9  19  37  59  83 114 153 193 234 289 353
#     4   9  18  36  62  90 123 159 197 244 294 351
#     4  10  21  39  62  88 121 159 201 246 296 352
#     4  11  23  39  59  84 117 154 197 250 301 353
#     4   9  17  31  55  85 114 145 186 239 289 340
#
# _framework density 21.120994
#
# number of rings (size 3 to 8) (size 9 to 14) (size 15 to 20)
#    0.000    2.250    1.250    1.125    0.000    5.000 
#    2.250    2.500    0.000    0.000    0.000    0.000 
#    0.000    0.000    0.000    0.000    0.000    0.000 
#
# Total GULP energy -396720.082533 kJ/mol
# GULP energy per Si atom -12397.502579 kJ/mol
# Density = 2.107292 g / cm^3
# Si number density = 21.120994 Si / 1000 Ang^3
#
#
#
# Elastic Constant Matrix: (Units=GPa)
#
#
# Indices 1 2 3 4 5 6 
#
# 1 180.7287 37.8700 71.6370 0.0000 0.0000 0.0000
# 2 37.8700 95.4104 27.4374 0.0000 0.0000 0.0000
# 3 71.6370 27.4374 86.8869 0.0000 0.0000 0.0000
# 4 0.0000 0.0000 0.0000 15.2446 0.0000 0.0000
# 5 0.0000 0.0000 0.0000 0.0000 28.7285 0.0000
# 6 0.0000 0.0000 0.0000 0.0000 0.0000 30.2287
#
#
#
# Elastic Compliance Matrix: (Units=1/GPa)
#
#
# Indices 1 2 3 4 5 6 
#
# 1 0.008404 -0.001477 -0.006463 0.000000 0.000000 0.000000
# 2 -0.001477 0.011788 -0.002504 0.000000 0.000000 0.000000
# 3 -0.006463 -0.002504 0.017629 0.000000 0.000000 0.000000
# 4 0.000000 0.000000 0.000000 0.065597 0.000000 0.000000
# 5 0.000000 0.000000 0.000000 0.000000 0.034809 0.000000
# 6 0.000000 0.000000 0.000000 0.000000 0.000000 0.033081
#
#
# Mechanical properties :
#
#
# Convention : Reuss Voigt Hill
#
# Bulk Modulus (GPa) = 59.06090 70.76831 64.91460
# Shear Modulus (GPa) = 25.27294 29.91246 27.59270
#
# Velocity S-wave (km/s) = 3.46291 3.76738 3.61835
# Velocity P-wave (km/s) = 6.63422 7.24590 6.94680
#
# Compressibility (1/GPa) = 0.01693168
#
# Stress axis : x y z
#
# Youngs Moduli (GPa) = 118.98469 84.83505 56.72619
#
# Poissons Ratio (x) = 0.12533 0.36661
# Poissons Ratio (y) = 0.17578 0.14206
# Poissons Ratio (z) = 0.76898 0.21245
#
# Static dielectric constant tensor:
#      x y z
#    x 3.921520 0.000000 0.000000 
#    y 0.000000 3.762570 0.000000 
#    z 0.000000 0.000000 3.875640 
# 
# 
# High freq. dielectric constant tensor:
#      x y z
#    x 1.818130 0.000000 0.000000 
#    y 0.000000 1.825950 0.000000 
#    z 0.000000 0.000000 1.818190 
# 
# From -- ./inp_files/45098.got.cif
#   From: 2010.03.12/outbox.cif.g09.slc.cpg/sg65_23_cif.got.tgz:45098.got - 2010.04.10 20:52:16.
