data_PCOD8273690
_publ_section_title
;
Structure prediction by ZEFSAII (Michael W. Deem and Ramdas Pophale) SiO2 
 PCOD8273690
Probable space group: C M M M
;
_chemical_formula_sum "Si O2"
_cell_formula_units_Z 64
_cell_length_a 20.574826
_cell_length_b 17.819167
_cell_length_c 8.721963
_cell_angle_alpha 90.000000
_cell_angle_beta 90.000000
_cell_angle_gamma 90.000000
_cell_volume 3197.700679
_symmetry_space_group_name_H-M "C M M M"
_symmetry_group_IT_number 65
_symmetry_cell_setting 'orthorhombic'
loop_
_space_group_symop_operation_xyz
x,y,z
-x,-y,z
x,-y,-z
-x,y,-z
-x,-y,-z
x,y,-z
-x,y,z
x,-y,z
1/2+x,1/2+y,z
1/2-x,1/2-y,z
1/2+x,1/2-y,-z
1/2-x,1/2+y,-z
1/2-x,1/2-y,-z
1/2+x,1/2+y,-z
1/2-x,1/2+y,z
1/2+x,1/2-y,z
loop_
_atom_site_type_symbol
_atom_site_label
_atom_site_fract_x
_atom_site_fract_y
_atom_site_fract_z
Si Si1 0.500000 0.583886 0.680301
Si Si2 0.246298 0.087419 0.677468
Si Si3 0.630758 0.835701 0.819877
Si Si4 0.376990 0.338466 0.177851
Si Si5 0.000000 0.415738 0.181736
O O1 0.500000 0.500000 0.751675
O O2 0.500000 0.578136 0.500000
O O3 0.436285 0.627660 0.729669
O O4 0.230658 0.102866 0.500000
O O5 0.312680 0.127169 0.722598
O O6 0.188872 0.119567 0.780312
O O7 0.253611 0.000000 0.712585
O O8 0.629849 0.748377 0.780117
O O9 0.563548 0.871779 0.761238
O O10 0.642494 0.850180 0.000000
O O11 0.391937 0.349477 0.000000
O O12 0.000000 0.500000 0.249930
O O13 0.000000 0.418460 0.000000
#
# Coordination Sequence:
#
# PCOD8273690 Si02
#       5
#     8  16  16  16   8
#     4  11  24  41  61  87 120 157 196 239 290 348
#     4  11  24  40  58  84 118 154 194 241 293 350
#     4  10  21  38  60  87 117 150 193 241 288 345
#     4  11  23  39  61  88 117 152 196 244 292 345
#     4   9  17  32  57  85 112 145 184 228 280 337
#
# _framework density 20.014382000000001
#
# number of rings (size 3 to 8) (size 9 to 14) (size 15 to 20)
#    0.000    1.500    0.000    4.875    0.000   14.000 
#    0.000    0.625    0.000    2.250    0.000    0.000 
#    0.000    0.000    0.000    0.000    0.000    0.000 
#
# Total GULP energy -396984.602336 kJ/mol
# GULP energy per Si atom -12405.768823 kJ/mol
# Density = 1.996883 g / cm^3
# Si number density = 20.014382 Si / 1000 Ang^3
#
#
#
# Elastic Constant Matrix: (Units=GPa)
#
#
# Indices 1 2 3 4 5 6 
#
# 1 141.8046 56.5021 21.8078 0.0000 0.0000 0.0000
# 2 56.5021 142.3625 50.7330 0.0000 0.0000 0.0000
# 3 21.8078 50.7330 42.2197 0.0000 0.0000 0.0000
# 4 0.0000 0.0000 0.0000 29.5575 0.0000 0.0000
# 5 0.0000 0.0000 0.0000 0.0000 19.0652 0.0000
# 6 0.0000 0.0000 0.0000 0.0000 0.0000 4.3976
#
#
#
# Elastic Compliance Matrix: (Units=1/GPa)
#
#
# Indices 1 2 3 4 5 6 
#
# 1 0.008385 -0.003121 -0.000581 0.000000 0.000000 0.000000
# 2 -0.003121 0.013447 -0.014546 0.000000 0.000000 0.000000
# 3 -0.000581 -0.014546 0.041465 0.000000 0.000000 0.000000
# 4 0.000000 0.000000 0.000000 0.033832 0.000000 0.000000
# 5 0.000000 0.000000 0.000000 0.000000 0.052451 0.000000
# 6 0.000000 0.000000 0.000000 0.000000 0.000000 0.227396
#
#
# Mechanical properties :
#
#
# Convention : Reuss Voigt Hill
#
# Bulk Modulus (GPa) = 37.31246 64.94140 51.12693
# Shear Modulus (GPa) = 11.83699 23.76034 17.79867
#
# Velocity S-wave (km/s) = 2.43456 3.44926 2.98534
# Velocity P-wave (km/s) = 5.15617 6.95565 6.12238
#
# Compressibility (1/GPa) = 0.02680070
#
# Stress axis : x y z
#
# Youngs Moduli (GPa) = 119.26369 74.36800 24.11685
#
# Poissons Ratio (x) = 0.23209 0.01401
# Poissons Ratio (y) = 0.37220 0.35080
# Poissons Ratio (z) = 0.06928 1.08176
#
# Static dielectric constant tensor:
#      x y z
#    x 3.635100 0.000000 0.000000 
#    y 0.000000 3.941810 0.000000 
#    z 0.000000 0.000000 3.511370 
# 
# 
# High freq. dielectric constant tensor:
#      x y z
#    x 1.799720 0.000000 0.000000 
#    y 0.000000 1.802570 0.000000 
#    z 0.000000 0.000000 1.770330 
# 
# From -- ./inp_files/10853.got.cif
#   From: 2010.03.12/outbox.cif.g09.slc.cpg/sg65_6_cif.got.tgz:10853.got - 2010.04.10 20:52:16.
