data_PCOD8273992
_publ_section_title
;
Structure prediction by ZEFSAII (Michael W. Deem and Ramdas Pophale) SiO2 
 PCOD8273992
Probable space group: C M M M
;
_chemical_formula_sum "Si O2"
_cell_formula_units_Z 88
_cell_length_a 23.354405
_cell_length_b 8.858164
_cell_length_c 22.568452
_cell_angle_alpha 90.000000
_cell_angle_beta 90.000000
_cell_angle_gamma 90.000000
_cell_volume 4668.897021
_symmetry_space_group_name_H-M "C M M M"
_symmetry_group_IT_number 65
_symmetry_cell_setting 'orthorhombic'
loop_
_space_group_symop_operation_xyz
x,y,z
-x,-y,z
x,-y,-z
-x,y,-z
-x,-y,-z
x,y,-z
-x,y,z
x,-y,z
1/2+x,1/2+y,z
1/2-x,1/2-y,z
1/2+x,1/2-y,-z
1/2-x,1/2+y,-z
1/2-x,1/2-y,-z
1/2+x,1/2+y,-z
1/2-x,1/2+y,z
1/2+x,1/2-y,z
loop_
_atom_site_type_symbol
_atom_site_label
_atom_site_fract_x
_atom_site_fract_y
_atom_site_fract_z
Si Si1 0.885000 0.178820 0.324209
Si Si2 0.311075 0.821057 0.773199
Si Si3 0.934597 0.676064 0.432222
Si Si4 0.188891 0.322459 0.000000
Si Si5 0.000000 0.178693 0.869349
Si Si6 0.616865 0.822375 0.887668
Si Si7 0.000000 0.821188 0.263504
O O1 0.832632 0.256457 0.289741
O O2 0.888999 0.231535 0.392479
O O3 0.943558 0.240442 0.295301
O O4 0.877248 0.000000 0.320322
O O5 0.250000 0.750000 0.788484
O O6 0.354763 0.772183 0.825366
O O7 0.304813 0.000000 0.769201
O O8 0.917986 0.709030 0.500000
O O9 0.929031 0.500000 0.417726
O O10 0.000000 0.730178 0.420406
O O11 0.250000 0.250000 0.000000
O O12 0.156765 0.267541 0.941095
O O13 0.196050 0.500000 0.000000
O O14 0.943219 0.241161 0.900060
O O15 0.000000 0.241656 0.802624
O O16 0.000000 0.000000 0.872793
O O17 0.606523 0.000000 0.889089
O O18 0.000000 0.000000 0.264695
#
# Coordination Sequence:
#
# PCOD8273992 Si02
#       7
#    16  16  16   8   8  16   8
#     4  11  20  34  55  81 113 147 185 230 278 328
#     4  11  23  38  57  82 109 143 186 231 280 332
#     4   9  18  32  50  77 114 151 186 225 271 326
#     4  10  22  41  62  83 111 148 192 238 281 330
#     4  11  21  36  58  84 117 150 184 226 278 335
#     4  10  22  39  59  84 114 148 185 228 282 338
#     4   9  18  31  49  79 113 145 178 220 275 324
#
# _framework density 18.848134999999999
#
# number of rings (size 3 to 8) (size 9 to 14) (size 15 to 20)
#    0.000    1.818    2.727    2.455    0.000    2.182 
#    0.000    2.727    0.000    0.545    0.000    0.000 
#    0.000    0.000    0.000    0.000    0.000    0.000 
#
# Total GULP energy -545702.213068 kJ/mol
# GULP energy per Si atom -12402.323024 kJ/mol
# Density = 1.880524 g / cm^3
# Si number density = 18.848135 Si / 1000 Ang^3
#
#
#
# Elastic Constant Matrix: (Units=GPa)
#
#
# Indices 1 2 3 4 5 6 
#
# 1 127.4549 48.2060 50.4360 0.0000 0.0000 0.0000
# 2 48.2060 67.9285 42.1882 0.0000 0.0000 0.0000
# 3 50.4360 42.1882 115.5614 0.0000 0.0000 0.0000
# 4 0.0000 0.0000 0.0000 23.0004 0.0000 0.0000
# 5 0.0000 0.0000 0.0000 0.0000 27.9598 0.0000
# 6 0.0000 0.0000 0.0000 0.0000 0.0000 34.3289
#
#
#
# Elastic Compliance Matrix: (Units=1/GPa)
#
#
# Indices 1 2 3 4 5 6 
#
# 1 0.011294 -0.006406 -0.002591 0.000000 0.000000 0.000000
# 2 -0.006406 0.022671 -0.005481 0.000000 0.000000 0.000000
# 3 -0.002591 -0.005481 0.011785 0.000000 0.000000 0.000000
# 4 0.000000 0.000000 0.000000 0.043478 0.000000 0.000000
# 5 0.000000 0.000000 0.000000 0.000000 0.035766 0.000000
# 6 0.000000 0.000000 0.000000 0.000000 0.000000 0.029130
#
#
# Mechanical properties :
#
#
# Convention : Reuss Voigt Hill
#
# Bulk Modulus (GPa) = 59.53944 65.84503 62.69224
# Shear Modulus (GPa) = 26.50042 28.39880 27.44961
#
# Velocity S-wave (km/s) = 3.75373 3.88586 3.82036
# Velocity P-wave (km/s) = 7.10246 7.42587 7.26596
#
# Compressibility (1/GPa) = 0.01679559
#
# Stress axis : x y z
#
# Youngs Moduli (GPa) = 88.54371 44.10856 84.85421
#
# Poissons Ratio (x) = 0.28255 0.21982
# Poissons Ratio (y) = 0.56720 0.46507
# Poissons Ratio (z) = 0.22937 0.24175
#
# Static dielectric constant tensor:
#      x y z
#    x 3.343590 0.000000 0.000000 
#    y 0.000000 3.257150 0.000000 
#    z 0.000000 0.000000 3.579890 
# 
# 
# High freq. dielectric constant tensor:
#      x y z
#    x 1.720180 0.000000 0.000000 
#    y 0.000000 1.726150 0.000000 
#    z 0.000000 0.000000 1.736840 
# 
# From -- ./inp_files/65235.got.cif
#   From: 2010.03.12/outbox.cif.g09.slc.cpg/sg65_33_cif.got.tgz:65235.got - 2010.04.10 20:52:16.
