data_PCOD8273580
_publ_section_title
;
Structure prediction by ZEFSAII (Michael W. Deem and Ramdas Pophale) SiO2 
 PCOD8273580
Probable space group: C M M M
;
_chemical_formula_sum "Si O2"
_cell_formula_units_Z 84
_cell_length_a 16.111021
_cell_length_b 23.523594
_cell_length_c 11.897046
_cell_angle_alpha 90.000000
_cell_angle_beta 90.000000
_cell_angle_gamma 90.000000
_cell_volume 4508.850958
_symmetry_space_group_name_H-M "C M M M"
_symmetry_group_IT_number 65
_symmetry_cell_setting 'orthorhombic'
loop_
_space_group_symop_operation_xyz
x,y,z
-x,-y,z
x,-y,-z
-x,y,-z
-x,-y,-z
x,y,-z
-x,y,z
x,-y,z
1/2+x,1/2+y,z
1/2-x,1/2-y,z
1/2+x,1/2-y,-z
1/2-x,1/2+y,-z
1/2-x,1/2-y,-z
1/2+x,1/2+y,-z
1/2-x,1/2+y,z
1/2+x,1/2-y,z
loop_
_atom_site_type_symbol
_atom_site_label
_atom_site_fract_x
_atom_site_fract_y
_atom_site_fract_z
Si Si1 0.316991 0.133080 0.678545
Si Si2 0.500000 0.281785 0.868337
Si Si3 0.160234 0.725004 0.500000
Si Si4 0.500000 0.696877 0.500000
Si Si5 0.589849 0.066370 0.500000
Si Si6 0.500000 0.383817 0.711038
Si Si7 0.659647 0.564247 0.631242
Si Si8 0.833796 0.714816 0.868015
O O1 0.343894 0.188672 0.611912
O O2 0.367202 0.082296 0.618506
O O3 0.222337 0.113339 0.669610
O O4 0.334771 0.152436 0.807002
O O5 0.500000 0.346070 0.822949
O O6 0.416214 0.249071 0.829690
O O7 0.500000 0.288441 0.000000
O O8 0.250000 0.750000 0.500000
O O9 0.084294 0.767689 0.500000
O O10 0.500000 0.659637 0.609493
O O11 0.500000 0.095682 0.500000
O O12 0.583635 0.000000 0.500000
O O13 0.421485 0.425510 0.705794
O O14 0.638920 0.572215 0.500000
O O15 0.692546 0.500000 0.653947
O O16 0.750000 0.750000 0.835470
O O17 0.835337 0.701661 0.000000
#
# Coordination Sequence:
#
# PCOD8273580 Si02
#       8
#    16   8   8   4   8   8  16  16
#     4  11  21  34  58  77 110 145 186 226 277 327
#     4  10  22  39  60  82 115 156 188 224 274 335
#     4  11  21  31  46  76 113 141 174 218 275 331
#     4  12  22  30  49  80 117 142 168 226 282 328
#     4  10  22  37  55  79 107 140 180 226 281 336
#     4  12  21  35  56  82 115 145 186 228 280 335
#     4  11  21  37  56  81 112 148 190 230 279 340
#     4  10  21  38  58  83 114 151 192 229 271 331
#
# _framework density 18.630023000000001
#
# number of rings (size 3 to 8) (size 9 to 14) (size 15 to 20)
#    0.000    1.238    2.857    4.857    4.000    0.762 
#    0.000    0.000    0.000    4.571    0.000    1.333 
#    0.000    0.000    0.000    0.000    0.000    0.000 
#
# Total GULP energy -520462.838047 kJ/mol
# GULP energy per Si atom -12391.972334 kJ/mol
# Density = 1.858762 g / cm^3
# Si number density = 18.630023 Si / 1000 Ang^3
#
#
#
# Elastic Constant Matrix: (Units=GPa)
#
#
# Indices 1 2 3 4 5 6 
#
# 1 123.0052 22.0152 23.6499 0.0000 0.0000 0.0000
# 2 22.0152 68.3669 32.0836 0.0000 0.0000 0.0000
# 3 23.6499 32.0836 64.6385 0.0000 0.0000 0.0000
# 4 0.0000 0.0000 0.0000 16.7902 0.0000 0.0000
# 5 0.0000 0.0000 0.0000 0.0000 19.0092 0.0000
# 6 0.0000 0.0000 0.0000 0.0000 0.0000 60.2591
#
#
#
# Elastic Compliance Matrix: (Units=1/GPa)
#
#
# Indices 1 2 3 4 5 6 
#
# 1 0.008902 -0.001744 -0.002391 0.000000 0.000000 0.000000
# 2 -0.001744 0.019410 -0.008996 0.000000 0.000000 0.000000
# 3 -0.002391 -0.008996 0.020811 0.000000 0.000000 0.000000
# 4 0.000000 0.000000 0.000000 0.059559 0.000000 0.000000
# 5 0.000000 0.000000 0.000000 0.000000 0.052606 0.000000
# 6 0.000000 0.000000 0.000000 0.000000 0.000000 0.016595
#
#
# Mechanical properties :
#
#
# Convention : Reuss Voigt Hill
#
# Bulk Modulus (GPa) = 43.74542 45.72312 44.73427
# Shear Modulus (GPa) = 23.61095 31.09583 27.35339
#
# Velocity S-wave (km/s) = 3.56386 4.08992 3.83592
# Velocity P-wave (km/s) = 6.36136 6.84831 6.60932
#
# Compressibility (1/GPa) = 0.02285954
#
# Stress axis : x y z
#
# Youngs Moduli (GPa) = 112.33846 51.51860 48.05188
#
# Poissons Ratio (x) = 0.08987 0.11490
# Poissons Ratio (y) = 0.19596 0.43229
# Poissons Ratio (z) = 0.26862 0.46347
#
# Static dielectric constant tensor:
#      x y z
#    x 3.928880 0.000000 0.000000 
#    y 0.000000 3.307010 0.000000 
#    z 0.000000 0.000000 3.227910 
# 
# 
# High freq. dielectric constant tensor:
#      x y z
#    x 1.743070 0.000000 0.000000 
#    y 0.000000 1.718790 0.000000 
#    z 0.000000 0.000000 1.703540 
# 
# From -- ./inp_files/24902.got.cif
#   From: 2010.03.12/outbox.cif.g09.slc.cpg/sg65_13_cif.got.tgz:24902.got - 2010.04.10 20:52:16.
