data_PCOD8273563
_publ_section_title
;
Structure prediction by ZEFSAII (Michael W. Deem and Ramdas Pophale) SiO2 
 PCOD8273563
Probable space group: C M M M
;
_chemical_formula_sum "Si O2"
_cell_formula_units_Z 88
_cell_length_a 29.127273
_cell_length_b 8.643424
_cell_length_c 19.139200
_cell_angle_alpha 90.000000
_cell_angle_beta 90.000000
_cell_angle_gamma 90.000000
_cell_volume 4818.472944
_symmetry_space_group_name_H-M "C M M M"
_symmetry_group_IT_number 65
_symmetry_cell_setting 'orthorhombic'
loop_
_space_group_symop_operation_xyz
x,y,z
-x,-y,z
x,-y,-z
-x,y,-z
-x,-y,-z
x,y,-z
-x,y,z
x,-y,z
1/2+x,1/2+y,z
1/2-x,1/2-y,z
1/2+x,1/2-y,-z
1/2-x,1/2+y,-z
1/2-x,1/2-y,-z
1/2+x,1/2+y,-z
1/2-x,1/2+y,z
1/2+x,1/2-y,z
loop_
_atom_site_type_symbol
_atom_site_label
_atom_site_fract_x
_atom_site_fract_y
_atom_site_fract_z
Si Si1 0.298600 0.680956 0.652130
Si Si2 0.066343 0.318067 0.500000
Si Si3 0.881040 0.321952 0.265583
Si Si4 0.552560 0.816498 0.144368
Si Si5 0.835691 0.817933 0.500000
Si Si6 0.049785 0.174253 0.640535
Si Si7 0.445761 0.672338 0.000000
O O1 0.295831 0.500000 0.658592
O O2 0.250000 0.750000 0.673737
O O3 0.334685 0.736237 0.711302
O O4 0.309109 0.727862 0.571426
O O5 0.055312 0.500000 0.500000
O O6 0.120479 0.290423 0.500000
O O7 0.042172 0.230161 0.562760
O O8 0.868810 0.500000 0.253670
O O9 0.908926 0.251831 0.198642
O O10 0.916636 0.301666 0.328152
O O11 0.500000 0.755902 0.159412
O O12 0.570596 0.762653 0.068831
O O13 0.551979 0.000000 0.147784
O O14 0.848360 0.000000 0.500000
O O15 0.000000 0.175214 0.678140
O O16 0.071086 0.000000 0.644116
O O17 0.424563 0.500000 0.000000
O O18 0.500000 0.664323 0.000000
#
# Coordination Sequence:
#
# PCOD8273563 Si02
#       7
#    16   8  16  16   8  16   8
#     4  11  23  39  59  80 105 137 175 224 280 334
#     4  12  23  34  53  74  97 132 176 222 266 317
#     4  11  22  36  55  80 108 139 179 222 266 320
#     4   9  18  33  53  78 112 151 184 217 258 305
#     4  10  21  38  58  77 102 133 170 220 280 335
#     4  11  23  37  52  71 101 140 178 218 266 318
#     4   9  17  29  49  79 112 145 184 223 255 299
#
# _framework density 18.263048000000001
#
# number of rings (size 3 to 8) (size 9 to 14) (size 15 to 20)
#    0.000    1.545    1.818    3.818    0.000    6.545 
#    0.000    1.818    0.000    0.000    0.000    0.636 
#    0.000    0.000    0.000    0.000    0.000    0.000 
#
# Total GULP energy -545236.117753 kJ/mol
# GULP energy per Si atom -12391.729949 kJ/mol
# Density = 1.822148 g / cm^3
# Si number density = 18.263048 Si / 1000 Ang^3
#
#
#
# Elastic Constant Matrix: (Units=GPa)
#
#
# Indices 1 2 3 4 5 6 
#
# 1 123.8344 30.2624 55.7932 0.0000 0.0000 0.0000
# 2 30.2624 51.3590 19.7915 0.0000 0.0000 0.0000
# 3 55.7932 19.7915 115.9645 0.0000 0.0000 0.0000
# 4 0.0000 0.0000 0.0000 21.1731 0.0000 0.0000
# 5 0.0000 0.0000 0.0000 0.0000 76.1540 0.0000
# 6 0.0000 0.0000 0.0000 0.0000 0.0000 24.0504
#
#
#
# Elastic Compliance Matrix: (Units=1/GPa)
#
#
# Indices 1 2 3 4 5 6 
#
# 1 0.011360 -0.004911 -0.004628 0.000000 0.000000 0.000000
# 2 -0.004911 0.022964 -0.001557 0.000000 0.000000 0.000000
# 3 -0.004628 -0.001557 0.011115 0.000000 0.000000 0.000000
# 4 0.000000 0.000000 0.000000 0.047230 0.000000 0.000000
# 5 0.000000 0.000000 0.000000 0.000000 0.013131 0.000000
# 6 0.000000 0.000000 0.000000 0.000000 0.000000 0.041579
#
#
# Mechanical properties :
#
#
# Convention : Reuss Voigt Hill
#
# Bulk Modulus (GPa) = 43.01044 55.87244 49.44144
# Shear Modulus (GPa) = 28.19760 36.62954 32.41357
#
# Velocity S-wave (km/s) = 3.93360 4.48332 4.21743
# Velocity P-wave (km/s) = 6.65076 7.58023 7.13065
#
# Compressibility (1/GPa) = 0.02325017
#
# Stress axis : x y z
#
# Youngs Moduli (GPa) = 88.02590 43.54616 89.96485
#
# Poissons Ratio (x) = 0.21384 0.41632
# Poissons Ratio (y) = 0.43226 0.14005
# Poissons Ratio (z) = 0.40735 0.06779
#
# Static dielectric constant tensor:
#      x y z
#    x 3.117720 0.000000 0.000000 
#    y 0.000000 3.315380 0.000000 
#    z 0.000000 0.000000 3.528350 
# 
# 
# High freq. dielectric constant tensor:
#      x y z
#    x 1.690250 0.000000 0.000000 
#    y 0.000000 1.711140 0.000000 
#    z 0.000000 0.000000 1.693950 
# 
# From -- ./inp_files/58104.got.cif
#   From: 2010.03.12/outbox.cif.g09.slc.cpg/sg65_30_cif.got.tgz:58104.got - 2010.04.10 20:52:16.
