data_PCOD8273437
_publ_section_title
;
Structure prediction by ZEFSAII (Michael W. Deem and Ramdas Pophale) SiO2 
 PCOD8273437
Probable space group: C M M M
;
_chemical_formula_sum "Si O2"
_cell_formula_units_Z 104
_cell_length_a 26.678267
_cell_length_b 8.739113
_cell_length_c 22.537490
_cell_angle_alpha 90.000000
_cell_angle_beta 90.000000
_cell_angle_gamma 90.000000
_cell_volume 5254.489357
_symmetry_space_group_name_H-M "C M M M"
_symmetry_group_IT_number 65
_symmetry_cell_setting 'orthorhombic'
loop_
_space_group_symop_operation_xyz
x,y,z
-x,-y,z
x,-y,-z
-x,y,-z
-x,-y,-z
x,y,-z
-x,y,z
x,-y,z
1/2+x,1/2+y,z
1/2-x,1/2-y,z
1/2+x,1/2-y,-z
1/2-x,1/2+y,-z
1/2-x,1/2-y,-z
1/2+x,1/2+y,-z
1/2-x,1/2+y,z
1/2+x,1/2-y,z
loop_
_atom_site_type_symbol
_atom_site_label
_atom_site_fract_x
_atom_site_fract_y
_atom_site_fract_z
Si Si1 0.698064 0.319497 0.567907
Si Si2 0.152835 0.681627 0.932869
Si Si3 0.500000 0.826326 0.570088
Si Si4 0.801007 0.180446 0.178627
Si Si5 0.446102 0.178108 0.873991
Si Si6 0.892179 0.678313 0.755254
Si Si7 0.595766 0.318078 0.630009
O O1 0.690868 0.265820 0.500000
O O2 0.702489 0.500000 0.572773
O O3 0.750000 0.250000 0.593897
O O4 0.649421 0.260844 0.604163
O O5 0.155420 0.500000 0.923159
O O6 0.191788 0.759656 0.888618
O O7 0.097374 0.745467 0.916232
O O8 0.165972 0.728579 0.000000
O O9 0.500000 0.824796 0.500000
O O10 0.449871 0.740693 0.590438
O O11 0.500000 0.000000 0.594771
O O12 0.750000 0.250000 0.203677
O O13 0.842501 0.235419 0.224427
O O14 0.798730 0.000000 0.177793
O O15 0.500000 0.255847 0.888360
O O16 0.434410 0.205750 0.804854
O O17 0.449869 0.000000 0.887545
O O18 0.880093 0.500000 0.747043
O O19 0.912338 0.750508 0.695103
O O20 0.593933 0.500000 0.631768
#
# Coordination Sequence:
#
# PCOD8273437 Si02
#       7
#    16  16   8  16  16  16  16
#     4   9  19  36  58  83 112 147 187 232 285 344
#     4   9  18  33  53  80 113 146 186 234 284 344
#     4  11  25  43  63  89 121 161 208 255 304 359
#     4  11  22  38  59  81 110 148 191 238 293 350
#     4   8  15  29  51  78 107 142 181 225 275 326
#     4  10  21  37  57  83 115 148 188 235 282 339
#     4  11  23  39  60  88 121 158 198 243 298 360
#
# _framework density 19.792598999999999
#
# number of rings (size 3 to 8) (size 9 to 14) (size 15 to 20)
#    0.000    2.231    0.000    3.923    1.077    4.000 
#    0.000    4.615    0.000    4.154    0.000    4.308 
#    0.000    0.000    0.000    0.000    0.000    0.000 
#
# Total GULP energy -644731.512344 kJ/mol
# GULP energy per Si atom -12398.682930 kJ/mol
# Density = 1.974755 g / cm^3
# Si number density = 19.792599 Si / 1000 Ang^3
#
#
#
# Elastic Constant Matrix: (Units=GPa)
#
#
# Indices 1 2 3 4 5 6 
#
# 1 96.2441 26.2638 4.0755 0.0000 0.0000 0.0000
# 2 26.2638 80.3504 26.1995 0.0000 0.0000 0.0000
# 3 4.0755 26.1995 64.7602 0.0000 0.0000 0.0000
# 4 0.0000 0.0000 0.0000 29.4415 0.0000 0.0000
# 5 0.0000 0.0000 0.0000 0.0000 32.3905 0.0000
# 6 0.0000 0.0000 0.0000 0.0000 0.0000 26.7777
#
#
#
# Elastic Compliance Matrix: (Units=1/GPa)
#
#
# Indices 1 2 3 4 5 6 
#
# 1 0.011455 -0.004042 0.000915 0.000000 0.000000 0.000000
# 2 -0.004042 0.015763 -0.006123 0.000000 0.000000 0.000000
# 3 0.000915 -0.006123 0.017861 0.000000 0.000000 0.000000
# 4 0.000000 0.000000 0.000000 0.033966 0.000000 0.000000
# 5 0.000000 0.000000 0.000000 0.000000 0.030873 0.000000
# 6 0.000000 0.000000 0.000000 0.000000 0.000000 0.037345
#
#
# Mechanical properties :
#
#
# Convention : Reuss Voigt Hill
#
# Bulk Modulus (GPa) = 37.62555 39.38138 38.50347
# Shear Modulus (GPa) = 28.63313 30.04299 29.33806
#
# Velocity S-wave (km/s) = 3.80762 3.90024 3.85421
# Velocity P-wave (km/s) = 6.19531 6.34214 6.26915
#
# Compressibility (1/GPa) = 0.02657768
#
# Stress axis : x y z
#
# Youngs Moduli (GPa) = 87.30104 63.43878 55.98761
#
# Poissons Ratio (x) = 0.25644 -0.05120
# Poissons Ratio (y) = 0.35290 0.34280
# Poissons Ratio (z) = -0.07984 0.38842
#
# Static dielectric constant tensor:
#      x y z
#    x 4.026110 0.000000 0.000000 
#    y 0.000000 3.453120 0.000000 
#    z 0.000000 0.000000 3.607610 
# 
# 
# High freq. dielectric constant tensor:
#      x y z
#    x 1.784120 0.000000 0.000000 
#    y 0.000000 1.756250 0.000000 
#    z 0.000000 0.000000 1.769000 
# 
# From -- ./inp_files/65932.got.cif
#   From: 2010.03.12/outbox.cif.g09.slc.cpg/sg65_33_cif.got.tgz:65932.got - 2010.04.10 20:52:16.
