data_PCOD8273569
_publ_section_title
;
Structure prediction by ZEFSAII (Michael W. Deem and Ramdas Pophale) SiO2 
 PCOD8273569
Probable space group: C M M M
;
_chemical_formula_sum "Si O2"
_cell_formula_units_Z 80
_cell_length_a 28.944882
_cell_length_b 15.818271
_cell_length_c 9.218497
_cell_angle_alpha 90.000000
_cell_angle_beta 90.000000
_cell_angle_gamma 90.000000
_cell_volume 4220.762485
_symmetry_space_group_name_H-M "C M M M"
_symmetry_group_IT_number 65
_symmetry_cell_setting 'orthorhombic'
loop_
_space_group_symop_operation_xyz
x,y,z
-x,-y,z
x,-y,-z
-x,y,-z
-x,-y,-z
x,y,-z
-x,y,z
x,-y,z
1/2+x,1/2+y,z
1/2-x,1/2-y,z
1/2+x,1/2-y,-z
1/2-x,1/2+y,-z
1/2-x,1/2-y,-z
1/2+x,1/2+y,-z
1/2-x,1/2+y,z
1/2+x,1/2-y,z
loop_
_atom_site_type_symbol
_atom_site_label
_atom_site_fract_x
_atom_site_fract_y
_atom_site_fract_z
Si Si1 0.116366 0.000000 0.172504
Si Si2 0.721840 0.500000 0.173475
Si Si3 0.948900 0.144598 0.172504
Si Si4 0.134264 0.404401 0.662619
Si Si5 0.051634 0.333622 0.171108
Si Si6 0.768137 0.657583 0.670271
O O1 0.168742 0.000000 0.224956
O O2 0.090029 0.917741 0.235899
O O3 0.113489 0.000000 0.000000
O O4 0.743499 0.414527 0.236279
O O5 0.727384 0.500000 0.000000
O O6 0.938755 0.238954 0.229204
O O7 0.000000 0.115341 0.224066
O O8 0.947716 0.144570 0.000000
O O9 0.118042 0.383995 0.500000
O O10 0.152612 0.500000 0.676792
O O11 0.089964 0.394589 0.763743
O O12 0.177146 0.344465 0.706349
O O13 0.000000 0.362699 0.217796
O O14 0.056214 0.337668 0.000000
O O15 0.759352 0.639745 0.500000
O O16 0.750000 0.750000 0.716612
#
# Coordination Sequence:
#
# PCOD8273569 Si02
#       6
#     8   8  16  16  16  16
#     4   9  17  27  44  75 112 143 175 216 261 316
#     4  11  23  36  55  90 125 145 178 238 297 341
#     4   8  14  27  47  71 104 146 182 211 252 311
#     4  10  21  38  58  79 104 136 180 229 274 326
#     4   9  19  34  53  80 111 141 176 219 269 327
#     4  10  22  42  64  81 108 154 200 237 279 339
#
# _framework density 18.953921000000001
#
# number of rings (size 3 to 8) (size 9 to 14) (size 15 to 20)
#    0.000    2.600    1.000    1.800    2.800    3.600 
#    0.000    2.000    0.000    0.000    0.000    0.000 
#    0.000    6.400    0.000    0.000    0.000    0.000 
#
# Total GULP energy -495854.283478 kJ/mol
# GULP energy per Si atom -12396.357087 kJ/mol
# Density = 1.891078 g / cm^3
# Si number density = 18.953921 Si / 1000 Ang^3
#
#
#
# Elastic Constant Matrix: (Units=GPa)
#
#
# Indices 1 2 3 4 5 6 
#
# 1 144.5404 62.0360 44.0515 0.0000 0.0000 0.0000
# 2 62.0360 99.7688 34.6403 0.0000 0.0000 0.0000
# 3 44.0515 34.6403 43.1016 0.0000 0.0000 0.0000
# 4 0.0000 0.0000 0.0000 16.4471 0.0000 0.0000
# 5 0.0000 0.0000 0.0000 0.0000 24.8647 0.0000
# 6 0.0000 0.0000 0.0000 0.0000 0.0000 37.9745
#
#
#
# Elastic Compliance Matrix: (Units=1/GPa)
#
#
# Indices 1 2 3 4 5 6 
#
# 1 0.011154 -0.004130 -0.008080 0.000000 0.000000 0.000000
# 2 -0.004130 0.015432 -0.008182 0.000000 0.000000 0.000000
# 3 -0.008080 -0.008182 0.038035 0.000000 0.000000 0.000000
# 4 0.000000 0.000000 0.000000 0.060801 0.000000 0.000000
# 5 0.000000 0.000000 0.000000 0.000000 0.040218 0.000000
# 6 0.000000 0.000000 0.000000 0.000000 0.000000 0.026333
#
#
# Mechanical properties :
#
#
# Convention : Reuss Voigt Hill
#
# Bulk Modulus (GPa) = 41.95187 63.20739 52.57963
# Shear Modulus (GPa) = 20.77265 25.63614 23.20439
#
# Velocity S-wave (km/s) = 3.31411 3.68169 3.50273
# Velocity P-wave (km/s) = 6.06845 7.17590 6.64528
#
# Compressibility (1/GPa) = 0.02383684
#
# Stress axis : x y z
#
# Youngs Moduli (GPa) = 89.65720 64.80159 26.29163
#
# Poissons Ratio (x) = 0.26761 0.21245
# Poissons Ratio (y) = 0.37026 0.21511
# Poissons Ratio (z) = 0.72447 0.53018
#
# Static dielectric constant tensor:
#      x y z
#    x 3.621910 0.000000 0.000000 
#    y 0.000000 3.620790 0.000000 
#    z 0.000000 0.000000 3.070330 
# 
# 
# High freq. dielectric constant tensor:
#      x y z
#    x 1.748250 0.000000 0.000000 
#    y 0.000000 1.741520 0.000000 
#    z 0.000000 0.000000 1.695400 
# 
# From -- ./inp_files/16080.got.cif
#   From: 2010.03.12/outbox.cif.g09.slc.cpg/sg65_9_cif.got.tgz:16080.got - 2010.04.10 20:52:16.
