data_PCOD8273938
_publ_section_title
;
Structure prediction by ZEFSAII (Michael W. Deem and Ramdas Pophale) SiO2 
 PCOD8273938
Probable space group: C M M M
;
_chemical_formula_sum "Si O2"
_cell_formula_units_Z 96
_cell_length_a 13.476549
_cell_length_b 24.357353
_cell_length_c 14.885214
_cell_angle_alpha 90.000000
_cell_angle_beta 90.000000
_cell_angle_gamma 90.000000
_cell_volume 4886.117062
_symmetry_space_group_name_H-M "C M M M"
_symmetry_group_IT_number 65
_symmetry_cell_setting 'orthorhombic'
loop_
_space_group_symop_operation_xyz
x,y,z
-x,-y,z
x,-y,-z
-x,y,-z
-x,-y,-z
x,y,-z
-x,y,z
x,-y,z
1/2+x,1/2+y,z
1/2-x,1/2-y,z
1/2+x,1/2-y,-z
1/2-x,1/2+y,-z
1/2-x,1/2-y,-z
1/2+x,1/2+y,-z
1/2-x,1/2+y,z
1/2+x,1/2-y,z
loop_
_atom_site_type_symbol
_atom_site_label
_atom_site_fract_x
_atom_site_fract_y
_atom_site_fract_z
Si Si1 0.882947 0.848291 0.101556
Si Si2 0.115414 0.637264 0.243934
Si Si3 0.726569 0.189828 0.602005
Si Si4 0.117592 0.725999 0.899006
Si Si5 0.115084 0.099167 0.601055
Si Si6 0.288080 0.561162 0.227869
O O1 0.838366 0.787062 0.123519
O O2 0.844688 0.894990 0.167402
O O3 0.000000 0.845299 0.112944
O O4 0.854232 0.864622 0.000000
O O5 0.137995 0.663405 0.340773
O O6 0.156427 0.679042 0.167994
O O7 0.173592 0.579799 0.234880
O O8 0.000000 0.624199 0.234132
O O9 0.687935 0.191334 0.500000
O O10 0.750000 0.250000 0.638909
O O11 0.829264 0.156996 0.611778
O O12 0.000000 0.729827 0.890497
O O13 0.148573 0.708990 0.000000
O O14 0.130046 0.075236 0.500000
O O15 0.161032 0.057631 0.673737
O O16 0.000000 0.109683 0.621417
O O17 0.292230 0.500000 0.186020
#
# Coordination Sequence:
#
# PCOD8273938 Si02
#       6
#    16  16  16  16  16  16
#     4   9  19  36  58  85 116 145 175 221 282 344
#     4  10  22  37  57  81 108 148 192 233 274 319
#     4   9  19  34  53  82 118 148 176 214 269 336
#     4   8  16  33  57  84 110 138 176 221 271 327
#     4   9  19  36  57  80 107 141 180 222 272 329
#     4  11  24  38  54  78 110 147 190 235 277 324
#
# _framework density 19.647504000000001
#
# number of rings (size 3 to 8) (size 9 to 14) (size 15 to 20)
#    0.000    2.667    0.000    1.500    4.667    4.000 
#    0.000    5.000    0.000    0.000    0.000    8.167 
#    0.000    0.000    0.000    0.000    0.000    0.000 
#
# Total GULP energy -595076.635716 kJ/mol
# GULP energy per Si atom -12397.429911 kJ/mol
# Density = 1.960278 g / cm^3
# Si number density = 19.647504 Si / 1000 Ang^3
#
#
#
# Elastic Constant Matrix: (Units=GPa)
#
#
# Indices 1 2 3 4 5 6 
#
# 1 56.5663 21.4470 34.8156 0.0000 0.0000 0.0000
# 2 21.4470 115.7085 48.7575 0.0000 0.0000 0.0000
# 3 34.8156 48.7575 96.9699 0.0000 0.0000 0.0000
# 4 0.0000 0.0000 0.0000 18.9507 0.0000 0.0000
# 5 0.0000 0.0000 0.0000 0.0000 22.1507 0.0000
# 6 0.0000 0.0000 0.0000 0.0000 0.0000 12.8078
#
#
#
# Elastic Compliance Matrix: (Units=1/GPa)
#
#
# Indices 1 2 3 4 5 6 
#
# 1 0.022781 -0.000985 -0.007684 0.000000 0.000000 0.000000
# 2 -0.000985 0.011008 -0.005182 0.000000 0.000000 0.000000
# 3 -0.007684 -0.005182 0.015677 0.000000 0.000000 0.000000
# 4 0.000000 0.000000 0.000000 0.052769 0.000000 0.000000
# 5 0.000000 0.000000 0.000000 0.000000 0.045145 0.000000
# 6 0.000000 0.000000 0.000000 0.000000 0.000000 0.078077
#
#
# Mechanical properties :
#
#
# Convention : Reuss Voigt Hill
#
# Bulk Modulus (GPa) = 45.94432 53.25387 49.59910
# Shear Modulus (GPa) = 19.20025 21.73015 20.46520
#
# Velocity S-wave (km/s) = 3.12947 3.32927 3.23091
# Velocity P-wave (km/s) = 6.04096 6.47628 6.26240
#
# Compressibility (1/GPa) = 0.02176548
#
# Stress axis : x y z
#
# Youngs Moduli (GPa) = 43.89600 90.84020 63.78891
#
# Poissons Ratio (x) = 0.08944 0.49016
# Poissons Ratio (y) = 0.04322 0.33053
# Poissons Ratio (z) = 0.33730 0.47070
#
# Static dielectric constant tensor:
#      x y z
#    x 3.492780 0.000000 0.000000 
#    y 0.000000 3.416090 0.000000 
#    z 0.000000 0.000000 3.833050 
# 
# 
# High freq. dielectric constant tensor:
#      x y z
#    x 1.768810 0.000000 0.000000 
#    y 0.000000 1.745910 0.000000 
#    z 0.000000 0.000000 1.772660 
# 
# From -- ./inp_files/40395.got.cif
#   From: 2010.03.12/outbox.cif.g09.slc.cpg/sg65_21_cif.got.tgz:40395.got - 2010.04.10 20:52:16.
