data_PCOD8273406
_publ_section_title
;
Structure prediction by ZEFSAII (Michael W. Deem and Ramdas Pophale) SiO2 
 PCOD8273406
Probable space group: C M M M
;
_chemical_formula_sum "Si O2"
_cell_formula_units_Z 72
_cell_length_a 9.057527
_cell_length_b 26.318362
_cell_length_c 14.109231
_cell_angle_alpha 90.000000
_cell_angle_beta 90.000000
_cell_angle_gamma 90.000000
_cell_volume 3363.348248
_symmetry_space_group_name_H-M "C M M M"
_symmetry_group_IT_number 65
_symmetry_cell_setting 'orthorhombic'
loop_
_space_group_symop_operation_xyz
x,y,z
-x,-y,z
x,-y,-z
-x,y,-z
-x,-y,-z
x,y,-z
-x,y,z
x,-y,z
1/2+x,1/2+y,z
1/2-x,1/2-y,z
1/2+x,1/2-y,-z
1/2-x,1/2+y,-z
1/2-x,1/2-y,-z
1/2+x,1/2+y,-z
1/2-x,1/2+y,z
1/2+x,1/2-y,z
loop_
_atom_site_type_symbol
_atom_site_label
_atom_site_fract_x
_atom_site_fract_y
_atom_site_fract_z
Si Si1 0.830860 0.000000 0.112929
Si Si2 0.672945 0.899415 0.108668
Si Si3 0.828305 0.154129 0.389829
Si Si4 0.674273 0.799901 0.776946
Si Si5 0.664554 0.055519 0.612312
O O1 0.752985 0.948960 0.153103
O O2 0.000000 0.000000 0.145298
O O3 0.813010 0.000000 0.000000
O O4 0.500000 0.908754 0.119366
O O5 0.723962 0.848900 0.163191
O O6 0.719447 0.891498 0.000000
O O7 0.790697 0.162559 0.500000
O O8 0.735048 0.194812 0.330326
O O9 0.780023 0.097935 0.354601
O O10 0.000000 0.161096 0.368632
O O11 0.500000 0.792425 0.776118
O O12 0.750000 0.750000 0.822612
O O13 0.659844 0.053011 0.500000
O O14 0.500000 0.069619 0.650348
O O15 0.713216 0.000000 0.651749
#
# Coordination Sequence:
#
# PCOD8273406 Si02
#       5
#     8  16  16  16  16
#     4   9  17  31  57  93 126 155 190 235 285 336
#     4   9  19  38  63  90 121 157 194 232 283 348
#     4  10  21  37  57  81 111 149 194 244 295 345
#     4  11  24  41  61  85 115 153 196 245 295 348
#     4   8  14  27  49  76 106 141 181 227 280 339
#
# _framework density 21.407240000000002
#
# number of rings (size 3 to 8) (size 9 to 14) (size 15 to 20)
#    0.000    2.556    0.000    2.333    0.000    5.778 
#    2.000    2.222    0.000    0.000    0.000    0.000 
#    0.000    0.000    0.000    0.000    0.000    0.000 
#
# Total GULP energy -446379.310110 kJ/mol
# GULP energy per Si atom -12399.425281 kJ/mol
# Density = 2.135852 g / cm^3
# Si number density = 21.407240 Si / 1000 Ang^3
#
#
#
# Elastic Constant Matrix: (Units=GPa)
#
#
# Indices 1 2 3 4 5 6 
#
# 1 93.9908 74.3470 28.5209 0.0000 0.0000 0.0000
# 2 74.3470 176.8918 50.7595 0.0000 0.0000 0.0000
# 3 28.5209 50.7595 52.2054 0.0000 0.0000 0.0000
# 4 0.0000 0.0000 0.0000 29.8686 0.0000 0.0000
# 5 0.0000 0.0000 0.0000 0.0000 19.4615 0.0000
# 6 0.0000 0.0000 0.0000 0.0000 0.0000 44.3155
#
#
#
# Elastic Compliance Matrix: (Units=1/GPa)
#
#
# Indices 1 2 3 4 5 6 
#
# 1 0.016294 -0.005956 -0.003111 0.000000 0.000000 0.000000
# 2 -0.005956 0.010018 -0.006486 0.000000 0.000000 0.000000
# 3 -0.003111 -0.006486 0.027162 0.000000 0.000000 0.000000
# 4 0.000000 0.000000 0.000000 0.033480 0.000000 0.000000
# 5 0.000000 0.000000 0.000000 0.000000 0.051384 0.000000
# 6 0.000000 0.000000 0.000000 0.000000 0.000000 0.022565
#
#
# Mechanical properties :
#
#
# Convention : Reuss Voigt Hill
#
# Bulk Modulus (GPa) = 44.70888 70.03808 57.37348
# Shear Modulus (GPa) = 25.06705 30.02650 27.54677
#
# Velocity S-wave (km/s) = 3.42564 3.74924 3.59109
# Velocity P-wave (km/s) = 6.04789 7.17847 6.63730
#
# Compressibility (1/GPa) = 0.02236692
#
# Stress axis : x y z
#
# Youngs Moduli (GPa) = 61.37084 99.82386 36.81662
#
# Poissons Ratio (x) = 0.59452 0.11454
# Poissons Ratio (y) = 0.36551 0.23881
# Poissons Ratio (z) = 0.19094 0.64750
#
# Static dielectric constant tensor:
#      x y z
#    x 3.729700 0.000000 0.000000 
#    y 0.000000 4.154380 0.000000 
#    z 0.000000 0.000000 3.708610 
# 
# 
# High freq. dielectric constant tensor:
#      x y z
#    x 1.829690 0.000000 0.000000 
#    y 0.000000 1.848180 0.000000 
#    z 0.000000 0.000000 1.827910 
# 
# From -- ./inp_files/36599.got.cif
#   From: 2010.03.12/outbox.cif.g09.slc.cpg/sg65_19_cif.got.tgz:36599.got - 2010.04.10 20:52:16.
