data_PCOD8273920
_publ_section_title
;
Structure prediction by ZEFSAII (Michael W. Deem and Ramdas Pophale) SiO2 
 PCOD8273920
Probable space group: C M M M
;
_chemical_formula_sum "Si O2"
_cell_formula_units_Z 56
_cell_length_a 10.413848
_cell_length_b 13.672619
_cell_length_c 18.679020
_cell_angle_alpha 90.000000
_cell_angle_beta 90.000000
_cell_angle_gamma 90.000000
_cell_volume 2659.604343
_symmetry_space_group_name_H-M "C M M M"
_symmetry_group_IT_number 65
_symmetry_cell_setting 'orthorhombic'
loop_
_space_group_symop_operation_xyz
x,y,z
-x,-y,z
x,-y,-z
-x,y,-z
-x,-y,-z
x,y,-z
-x,y,z
x,-y,z
1/2+x,1/2+y,z
1/2-x,1/2-y,z
1/2+x,1/2-y,-z
1/2-x,1/2+y,-z
1/2-x,1/2-y,-z
1/2+x,1/2+y,-z
1/2-x,1/2+y,z
1/2+x,1/2-y,z
loop_
_atom_site_type_symbol
_atom_site_label
_atom_site_fract_x
_atom_site_fract_y
_atom_site_fract_z
Si Si1 0.645225 0.613145 0.191694
Si Si2 0.351250 0.106569 0.577733
Si Si3 0.750000 0.250000 0.691727
Si Si4 0.642920 0.115939 0.079879
O O1 0.500000 0.622827 0.161806
O O2 0.675468 0.500000 0.211045
O O3 0.658422 0.680422 0.261456
O O4 0.745669 0.654192 0.132616
O O5 0.293667 0.140789 0.500000
O O6 0.500000 0.092789 0.567622
O O7 0.334304 0.182613 0.641119
O O8 0.290980 0.000000 0.597810
O O9 0.500000 0.149279 0.106538
O O10 0.648026 0.000000 0.077487
O O11 0.668428 0.157164 0.000000
#
# Coordination Sequence:
#
# PCOD8273920 Si02
#       4
#    16  16   8  16
#     4  10  22  37  53  80 117 151 185 229 280 333
#     4   9  19  36  57  81 107 137 180 231 275 319
#     4  12  21  34  55  80 110 150 186 220 269 336
#     4   8  15  31  56  82 107 141 188 237 281 327
#
# _framework density 21.055764
#
# number of rings (size 3 to 8) (size 9 to 14) (size 15 to 20)
#    0.000    2.571    0.000    3.857    0.000    2.857 
#    0.000    6.429    0.000    0.000    0.000   12.000 
#    0.000    0.000    0.000    0.000    0.000    0.000 
#
# Total GULP energy -346923.936806 kJ/mol
# GULP energy per Si atom -12390.140600 kJ/mol
# Density = 2.100784 g / cm^3
# Si number density = 21.055764 Si / 1000 Ang^3
#
#
#
# Elastic Constant Matrix: (Units=GPa)
#
#
# Indices 1 2 3 4 5 6 
#
# 1 123.4267 36.1207 71.5547 0.0000 0.0000 0.0000
# 2 36.1207 92.9635 64.3234 0.0000 0.0000 0.0000
# 3 71.5547 64.3234 152.5127 0.0000 0.0000 0.0000
# 4 0.0000 0.0000 0.0000 32.6492 0.0000 0.0000
# 5 0.0000 0.0000 0.0000 0.0000 22.2965 0.0000
# 6 0.0000 0.0000 0.0000 0.0000 0.0000 11.8569
#
#
#
# Elastic Compliance Matrix: (Units=1/GPa)
#
#
# Indices 1 2 3 4 5 6 
#
# 1 0.011196 -0.001010 -0.004827 0.000000 0.000000 0.000000
# 2 -0.001010 0.015281 -0.005971 0.000000 0.000000 0.000000
# 3 -0.004827 -0.005971 0.011340 0.000000 0.000000 0.000000
# 4 0.000000 0.000000 0.000000 0.030629 0.000000 0.000000
# 5 0.000000 0.000000 0.000000 0.000000 0.044850 0.000000
# 6 0.000000 0.000000 0.000000 0.000000 0.000000 0.084339
#
#
# Mechanical properties :
#
#
# Convention : Reuss Voigt Hill
#
# Bulk Modulus (GPa) = 70.41962 79.21116 74.81539
# Shear Modulus (GPa) = 22.12554 26.48747 24.30650
#
# Velocity S-wave (km/s) = 3.24513 3.55063 3.40131
# Velocity P-wave (km/s) = 6.89624 7.38314 7.14384
#
# Compressibility (1/GPa) = 0.01420059
#
# Stress axis : x y z
#
# Youngs Moduli (GPa) = 89.31900 65.44172 88.18723
#
# Poissons Ratio (x) = 0.06613 0.42564
# Poissons Ratio (y) = 0.09026 0.52654
# Poissons Ratio (z) = 0.43111 0.39073
#
# Static dielectric constant tensor:
#      x y z
#    x 3.647240 0.000000 0.000000 
#    y 0.000000 3.865840 0.000000 
#    z 0.000000 0.000000 3.954370 
# 
# 
# High freq. dielectric constant tensor:
#      x y z
#    x 1.803620 0.000000 0.000000 
#    y 0.000000 1.833130 0.000000 
#    z 0.000000 0.000000 1.824140 
# 
# From -- ./inp_files/37436.got.cif
#   From: 2010.03.12/outbox.cif.g09.slc.cpg/sg65_19_cif.got.tgz:37436.got - 2010.04.10 20:52:16.
