data_PCOD8273147
_publ_section_title
;
Structure prediction by ZEFSAII (Michael W. Deem and Ramdas Pophale) SiO2 
 PCOD8273147
Probable space group: C M M M
;
_chemical_formula_sum "Si O2"
_cell_formula_units_Z 64
_cell_length_a 20.689999
_cell_length_b 19.060220
_cell_length_c 7.891072
_cell_angle_alpha 90.000000
_cell_angle_beta 90.000000
_cell_angle_gamma 90.000000
_cell_volume 3111.891059
_symmetry_space_group_name_H-M "C M M M"
_symmetry_group_IT_number 65
_symmetry_cell_setting 'orthorhombic'
loop_
_space_group_symop_operation_xyz
x,y,z
-x,-y,z
x,-y,-z
-x,y,-z
-x,-y,-z
x,y,-z
-x,y,z
x,-y,z
1/2+x,1/2+y,z
1/2-x,1/2-y,z
1/2+x,1/2-y,-z
1/2-x,1/2+y,-z
1/2-x,1/2-y,-z
1/2+x,1/2+y,-z
1/2-x,1/2+y,z
1/2+x,1/2-y,z
loop_
_atom_site_type_symbol
_atom_site_label
_atom_site_fract_x
_atom_site_fract_y
_atom_site_fract_z
Si Si1 0.500000 0.917487 0.186495
Si Si2 0.137482 0.577918 0.305675
Si Si3 0.925157 0.178771 0.801985
Si Si4 0.814479 0.281223 0.194282
Si Si5 0.924129 0.922557 0.500000
O O1 0.436064 0.894877 0.286504
O O2 0.500000 0.000000 0.165947
O O3 0.500000 0.881613 0.000000
O O4 0.155996 0.574128 0.500000
O O5 0.147035 0.500000 0.223596
O O6 0.183812 0.634860 0.219638
O O7 0.880450 0.244118 0.742948
O O8 0.904173 0.116262 0.675015
O O9 0.000000 0.200573 0.773578
O O10 0.914160 0.156814 0.000000
O O11 0.750000 0.250000 0.285712
O O12 0.808276 0.263104 0.000000
O O13 0.000000 0.931150 0.500000
O O14 0.891488 0.000000 0.500000
#
# Coordination Sequence:
#
# PCOD8273147 Si02
#       5
#     8  16  16  16   8
#     4   9  17  31  53  81 113 149 187 230 281 334
#     4  10  21  36  55  83 117 151 191 238 288 343
#     4   9  19  36  58  85 115 148 190 238 290 349
#     4  10  22  39  58  81 113 152 192 236 289 347
#     4   9  18  34  57  86 115 145 187 238 292 344
#
# _framework density 20.566274
#
# number of rings (size 3 to 8) (size 9 to 14) (size 15 to 20)
#    0.000    2.500    0.000    1.125    3.500    4.000 
#    0.000    3.750    0.000    4.500    0.000    0.000 
#    0.000    0.000    0.000    0.000    0.000    0.000 
#
# Total GULP energy -396495.568116 kJ/mol
# GULP energy per Si atom -12390.486504 kJ/mol
# Density = 2.051946 g / cm^3
# Si number density = 20.566274 Si / 1000 Ang^3
#
#
#
# Elastic Constant Matrix: (Units=GPa)
#
#
# Indices 1 2 3 4 5 6 
#
# 1 107.2407 71.3373 18.6759 0.0000 0.0000 0.0000
# 2 71.3373 150.1880 31.6103 0.0000 0.0000 0.0000
# 3 18.6759 31.6103 67.8198 0.0000 0.0000 0.0000
# 4 0.0000 0.0000 0.0000 29.7496 0.0000 0.0000
# 5 0.0000 0.0000 0.0000 0.0000 10.1608 0.0000
# 6 0.0000 0.0000 0.0000 0.0000 0.0000 20.1694
#
#
#
# Elastic Compliance Matrix: (Units=1/GPa)
#
#
# Indices 1 2 3 4 5 6 
#
# 1 0.013673 -0.006322 -0.000818 0.000000 0.000000 0.000000
# 2 -0.006322 0.010306 -0.003063 0.000000 0.000000 0.000000
# 3 -0.000818 -0.003063 0.016398 0.000000 0.000000 0.000000
# 4 0.000000 0.000000 0.000000 0.033614 0.000000 0.000000
# 5 0.000000 0.000000 0.000000 0.000000 0.098418 0.000000
# 6 0.000000 0.000000 0.000000 0.000000 0.000000 0.049580
#
#
# Mechanical properties :
#
#
# Convention : Reuss Voigt Hill
#
# Bulk Modulus (GPa) = 50.07459 63.16618 56.62038
# Shear Modulus (GPa) = 20.07620 25.59095 22.83358
#
# Velocity S-wave (km/s) = 3.12776 3.53131 3.33565
# Velocity P-wave (km/s) = 6.11920 6.88528 6.51351
#
# Compressibility (1/GPa) = 0.01997021
#
# Stress axis : x y z
#
# Youngs Moduli (GPa) = 73.13731 97.03232 60.98397
#
# Poissons Ratio (x) = 0.61346 0.04991
# Poissons Ratio (y) = 0.46239 0.18676
# Poissons Ratio (z) = 0.05986 0.29716
#
# Static dielectric constant tensor:
#      x y z
#    x 3.844090 0.000000 0.000000 
#    y 0.000000 3.839680 0.000000 
#    z 0.000000 0.000000 3.657780 
# 
# 
# High freq. dielectric constant tensor:
#      x y z
#    x 1.783690 0.000000 0.000000 
#    y 0.000000 1.794510 0.000000 
#    z 0.000000 0.000000 1.797970 
# 
# From -- ./inp_files/13541.got.cif
#   From: 2010.03.12/outbox.cif.g09.slc.cpg/sg65_7_cif.got.tgz:13541.got - 2010.04.10 20:52:16.
