data_PCOD8273565
_publ_section_title
;
Structure prediction by ZEFSAII (Michael W. Deem and Ramdas Pophale) SiO2 
 PCOD8273565
Probable space group: C M M M
;
_chemical_formula_sum "Si O2"
_cell_formula_units_Z 64
_cell_length_a 8.728411
_cell_length_b 25.440258
_cell_length_c 17.068848
_cell_angle_alpha 90.000000
_cell_angle_beta 90.000000
_cell_angle_gamma 90.000000
_cell_volume 3790.189379
_symmetry_space_group_name_H-M "C M M M"
_symmetry_group_IT_number 65
_symmetry_cell_setting 'orthorhombic'
loop_
_space_group_symop_operation_xyz
x,y,z
-x,-y,z
x,-y,-z
-x,y,-z
-x,-y,-z
x,y,-z
-x,y,z
x,-y,z
1/2+x,1/2+y,z
1/2-x,1/2-y,z
1/2+x,1/2-y,-z
1/2-x,1/2+y,-z
1/2-x,1/2-y,-z
1/2+x,1/2+y,-z
1/2-x,1/2+y,z
1/2+x,1/2-y,z
loop_
_atom_site_type_symbol
_atom_site_label
_atom_site_fract_x
_atom_site_fract_y
_atom_site_fract_z
Si Si1 0.681190 0.500000 0.411749
Si Si2 0.321301 0.306333 0.590160
Si Si3 0.677150 0.437478 0.169415
Si Si4 0.681022 0.442587 0.000000
Si Si5 0.820806 0.402445 0.677173
O O1 0.500000 0.500000 0.410283
O O2 0.744838 0.500000 0.500000
O O3 0.736914 0.551711 0.368945
O O4 0.293738 0.322644 0.500000
O O5 0.500000 0.305289 0.610471
O O6 0.250000 0.250000 0.608011
O O7 0.236051 0.346863 0.645968
O O8 0.500000 0.424821 0.187450
O O9 0.705137 0.500000 0.174300
O O10 0.726176 0.415093 0.082667
O O11 0.782412 0.406985 0.231004
O O12 0.758449 0.500000 0.000000
O O13 0.500000 0.450145 0.000000
O O14 0.000000 0.407868 0.663617
#
# Coordination Sequence:
#
# PCOD8273565 Si02
#       5
#     8  16  16   8  16
#     4  11  23  37  51  68  95 134 175 211 252 301
#     4  10  21  38  58  77  98 128 169 215 259 300
#     4   9  16  29  49  71 100 135 171 208 248 297
#     4   7  12  24  45  71  94 127 171 208 244 291
#     4  12  23  33  49  75 106 136 168 206 252 303
#
# _framework density 16.885698999999999
#
# number of rings (size 3 to 8) (size 9 to 14) (size 15 to 20)
#    0.000    2.000    1.250    5.625    0.000    5.500 
#    0.000    0.625    0.000    2.250    0.000    0.875 
#    0.000    0.000    0.000    0.000    0.000    0.000 
#
# Total GULP energy -396676.934934 kJ/mol
# GULP energy per Si atom -12396.154217 kJ/mol
# Density = 1.684727 g / cm^3
# Si number density = 16.885699 Si / 1000 Ang^3
#
#
#
# Elastic Constant Matrix: (Units=GPa)
#
#
# Indices 1 2 3 4 5 6 
#
# 1 57.6405 16.3379 30.9687 0.0000 0.0000 0.0000
# 2 16.3379 58.5130 41.4675 0.0000 0.0000 0.0000
# 3 30.9687 41.4675 133.5039 0.0000 0.0000 0.0000
# 4 0.0000 0.0000 0.0000 20.0538 0.0000 0.0000
# 5 0.0000 0.0000 0.0000 0.0000 13.3954 0.0000
# 6 0.0000 0.0000 0.0000 0.0000 0.0000 25.1215
#
#
#
# Elastic Compliance Matrix: (Units=1/GPa)
#
#
# Indices 1 2 3 4 5 6 
#
# 1 0.020215 -0.002976 -0.003765 0.000000 0.000000 0.000000
# 2 -0.002976 0.022352 -0.006252 0.000000 0.000000 0.000000
# 3 -0.003765 -0.006252 0.010306 0.000000 0.000000 0.000000
# 4 0.000000 0.000000 0.000000 0.049866 0.000000 0.000000
# 5 0.000000 0.000000 0.000000 0.000000 0.074653 0.000000
# 6 0.000000 0.000000 0.000000 0.000000 0.000000 0.039807
#
#
# Mechanical properties :
#
#
# Convention : Reuss Voigt Hill
#
# Bulk Modulus (GPa) = 37.19388 47.46729 42.33058
# Shear Modulus (GPa) = 19.82965 22.43969 21.13467
#
# Velocity S-wave (km/s) = 3.43059 3.64939 3.54168
# Velocity P-wave (km/s) = 6.14545 6.77712 6.46900
#
# Compressibility (1/GPa) = 0.02688614
#
# Stress axis : x y z
#
# Youngs Moduli (GPa) = 49.46747 44.73821 97.03297
#
# Poissons Ratio (x) = 0.13316 0.36531
# Poissons Ratio (y) = 0.14724 0.60669
# Poissons Ratio (z) = 0.18624 0.27972
#
# Static dielectric constant tensor:
#      x y z
#    x 3.116490 0.000000 0.000000 
#    y 0.000000 3.139380 0.000000 
#    z 0.000000 0.000000 3.610900 
# 
# 
# High freq. dielectric constant tensor:
#      x y z
#    x 1.649190 0.000000 0.000000 
#    y 0.000000 1.614630 0.000000 
#    z 0.000000 0.000000 1.664350 
# 
# From -- ./inp_files/49386.got.cif
#   From: 2010.03.12/outbox.cif.g09.slc.cpg/sg65_25_cif.got.tgz:49386.got - 2010.04.10 20:52:16.
