data_PCOD8273686
_publ_section_title
;
Structure prediction by ZEFSAII (Michael W. Deem and Ramdas Pophale) SiO2 
 PCOD8273686
Probable space group: C M M M
;
_chemical_formula_sum "Si O2"
_cell_formula_units_Z 64
_cell_length_a 17.844416
_cell_length_b 23.960752
_cell_length_c 7.416199
_cell_angle_alpha 90.000000
_cell_angle_beta 90.000000
_cell_angle_gamma 90.000000
_cell_volume 3170.911771
_symmetry_space_group_name_H-M "C M M M"
_symmetry_group_IT_number 65
_symmetry_cell_setting 'orthorhombic'
loop_
_space_group_symop_operation_xyz
x,y,z
-x,-y,z
x,-y,-z
-x,y,-z
-x,-y,-z
x,y,-z
-x,y,z
x,-y,z
1/2+x,1/2+y,z
1/2-x,1/2-y,z
1/2+x,1/2-y,-z
1/2-x,1/2+y,-z
1/2-x,1/2-y,-z
1/2+x,1/2+y,-z
1/2-x,1/2+y,z
1/2+x,1/2-y,z
loop_
_atom_site_type_symbol
_atom_site_label
_atom_site_fract_x
_atom_site_fract_y
_atom_site_fract_z
Si Si1 0.414072 0.635439 0.500000
Si Si2 0.838541 0.746747 0.500000
Si Si3 0.339527 0.564775 0.205453
Si Si4 0.828702 0.561038 0.213473
Si Si5 0.912728 0.330020 0.211626
O O1 0.500000 0.653073 0.500000
O O2 0.365558 0.690529 0.500000
O O3 0.397445 0.599778 0.322181
O O4 0.750000 0.750000 0.500000
O O5 0.867568 0.716605 0.680336
O O6 0.360419 0.500000 0.222212
O O7 0.255292 0.575201 0.279796
O O8 0.346955 0.585263 0.000000
O O9 0.853712 0.500000 0.289588
O O10 0.885610 0.608849 0.278541
O O11 0.827125 0.557405 0.000000
O O12 0.000000 0.324790 0.256903
O O13 0.896520 0.321374 0.000000
#
# Coordination Sequence:
#
# PCOD8273686 Si02
#       5
#     8   8  16  16  16
#     4  12  25  38  56  83 111 141 184 235 284 337
#     4  12  26  43  62  81 108 151 201 245 281 334
#     4   9  19  37  59  83 114 149 184 226 275 330
#     4   8  15  31  57  87 116 149 190 228 268 330
#     4  10  21  38  60  86 119 153 184 231 292 343
#
# _framework density 20.18347
#
# number of rings (size 3 to 8) (size 9 to 14) (size 15 to 20)
#    0.000    2.250    0.000    4.500    0.000    3.500 
#    0.000    5.625    0.000    1.500    0.000    0.000 
#    0.000    0.000    0.000    0.000    0.000    0.000 
#
# Total GULP energy -396792.682738 kJ/mol
# GULP energy per Si atom -12399.771336 kJ/mol
# Density = 2.013753 g / cm^3
# Si number density = 20.183470 Si / 1000 Ang^3
#
#
#
# Elastic Constant Matrix: (Units=GPa)
#
#
# Indices 1 2 3 4 5 6 
#
# 1 136.2241 59.9956 44.6916 0.0000 0.0000 0.0000
# 2 59.9956 110.4814 50.5733 0.0000 0.0000 0.0000
# 3 44.6916 50.5733 92.9115 0.0000 0.0000 0.0000
# 4 0.0000 0.0000 0.0000 28.8917 0.0000 0.0000
# 5 0.0000 0.0000 0.0000 0.0000 26.0950 0.0000
# 6 0.0000 0.0000 0.0000 0.0000 0.0000 26.1589
#
#
#
# Elastic Compliance Matrix: (Units=1/GPa)
#
#
# Indices 1 2 3 4 5 6 
#
# 1 0.010061 -0.004326 -0.002485 0.000000 0.000000 0.000000
# 2 -0.004326 0.013915 -0.005493 0.000000 0.000000 0.000000
# 3 -0.002485 -0.005493 0.014948 0.000000 0.000000 0.000000
# 4 0.000000 0.000000 0.000000 0.034612 0.000000 0.000000
# 5 0.000000 0.000000 0.000000 0.000000 0.038322 0.000000
# 6 0.000000 0.000000 0.000000 0.000000 0.000000 0.038228
#
#
# Mechanical properties :
#
#
# Convention : Reuss Voigt Hill
#
# Bulk Modulus (GPa) = 69.85135 72.23756 71.04445
# Shear Modulus (GPa) = 27.86024 28.51954 28.18989
#
# Velocity S-wave (km/s) = 3.71934 3.76309 3.74128
# Velocity P-wave (km/s) = 7.28889 7.39927 7.34429
#
# Compressibility (1/GPa) = 0.01431612
#
# Stress axis : x y z
#
# Youngs Moduli (GPa) = 99.38943 71.86374 66.89765
#
# Poissons Ratio (x) = 0.31091 0.16623
# Poissons Ratio (y) = 0.42999 0.36749
# Poissons Ratio (z) = 0.24696 0.39477
#
# Static dielectric constant tensor:
#      x y z
#    x 3.618950 0.000000 0.000000 
#    y 0.000000 3.910960 0.000000 
#    z 0.000000 0.000000 3.636190 
# 
# 
# High freq. dielectric constant tensor:
#      x y z
#    x 1.781590 0.000000 0.000000 
#    y 0.000000 1.791500 0.000000 
#    z 0.000000 0.000000 1.788700 
# 
# From -- ./inp_files/6759.got.cif
#   From: 2010.03.12/outbox.cif.g09.slc.cpg/sg65_4_cif.got.tgz:6759.got - 2010.04.10 20:52:16.
