data_PCOD8273910
_publ_section_title
;
Structure prediction by ZEFSAII (Michael W. Deem and Ramdas Pophale) SiO2 
 PCOD8273910
Probable space group: C M M M
;
_chemical_formula_sum "Si O2"
_cell_formula_units_Z 120
_cell_length_a 9.360170
_cell_length_b 27.350462
_cell_length_c 24.422127
_cell_angle_alpha 90.000000
_cell_angle_beta 90.000000
_cell_angle_gamma 90.000000
_cell_volume 6252.185985
_symmetry_space_group_name_H-M "C M M M"
_symmetry_group_IT_number 65
_symmetry_cell_setting 'orthorhombic'
loop_
_space_group_symop_operation_xyz
x,y,z
-x,-y,z
x,-y,-z
-x,y,-z
-x,-y,-z
x,y,-z
-x,y,z
x,-y,z
1/2+x,1/2+y,z
1/2-x,1/2-y,z
1/2+x,1/2-y,-z
1/2-x,1/2+y,-z
1/2-x,1/2-y,-z
1/2+x,1/2+y,-z
1/2-x,1/2+y,z
1/2+x,1/2-y,z
loop_
_atom_site_type_symbol
_atom_site_label
_atom_site_fract_x
_atom_site_fract_y
_atom_site_fract_z
Si Si1 0.659323 0.705686 0.736887
Si Si2 0.835752 0.385981 0.258924
Si Si3 0.668997 0.000000 0.437598
Si Si4 0.154762 0.556275 0.154453
Si Si5 0.668343 0.897692 0.384307
Si Si6 0.330326 0.399997 0.938947
Si Si7 0.155754 0.792298 0.064389
Si Si8 0.335538 0.298307 0.392919
O O1 0.500000 0.708337 0.760581
O O2 0.750000 0.750000 0.761149
O O3 0.733984 0.657627 0.758901
O O4 0.658726 0.706889 0.671691
O O5 0.795736 0.426488 0.214352
O O6 0.801711 0.404807 0.319877
O O7 0.000000 0.368806 0.256218
O O8 0.724593 0.948900 0.410716
O O9 0.500000 0.000000 0.432239
O O10 0.721520 0.000000 0.500000
O O11 0.136230 0.500000 0.161726
O O12 0.267054 0.564731 0.106365
O O13 0.000000 0.579746 0.139127
O O14 0.500000 0.889087 0.396579
O O15 0.753866 0.849724 0.407541
O O16 0.500000 0.401684 0.936457
O O17 0.274932 0.345366 0.925305
O O18 0.279696 0.415828 0.000000
O O19 0.250000 0.750000 0.092184
O O20 0.000000 0.789574 0.091919
O O21 0.140984 0.783222 0.000000
O O22 0.500000 0.299298 0.415871
O O23 0.250000 0.250000 0.416147
#
# Coordination Sequence:
#
# PCOD8273910 Si02
#       8
#    16  16   8  16  16  16  16  16
#     4   9  16  27  46  72 103 136 169 206 251 302
#     4   9  18  32  50  73 102 135 172 209 252 306
#     4   9  18  32  53  83 113 141 180 227 268 312
#     4  10  22  37  52  72  98 126 162 213 260 298
#     4   9  17  30  52  78 105 142 181 217 263 318
#     4   9  19  36  55  74  98 129 165 202 245 303
#     4   8  14  26  46  72  98 122 151 189 232 282
#     4   9  16  27  46  74 107 139 176 221 266 315
#
# _framework density 19.193287999999999
#
# number of rings (size 3 to 8) (size 9 to 14) (size 15 to 20)
#    0.000    3.000    0.000    1.600    0.933    5.067 
#    0.000    3.667    0.000    2.800    0.000    0.000 
#    0.000    0.000    0.000    0.000    0.000    0.000 
#
# Total GULP energy -743417.993896 kJ/mol
# GULP energy per Si atom -12390.299898 kJ/mol
# Density = 1.914960 g / cm^3
# Si number density = 19.193288 Si / 1000 Ang^3
#
#
#
# Elastic Constant Matrix: (Units=GPa)
#
#
# Indices 1 2 3 4 5 6 
#
# 1 82.6441 57.7502 30.6209 0.0000 0.0000 0.0000
# 2 57.7502 138.2160 48.4585 0.0000 0.0000 0.0000
# 3 30.6209 48.4585 70.3802 0.0000 0.0000 0.0000
# 4 0.0000 0.0000 0.0000 5.9622 0.0000 0.0000
# 5 0.0000 0.0000 0.0000 0.0000 -8.0398 0.0000
# 6 0.0000 0.0000 0.0000 0.0000 0.0000 28.8975
#
#
#
# Elastic Compliance Matrix: (Units=1/GPa)
#
#
# Indices 1 2 3 4 5 6 
#
# 1 0.017699 -0.006190 -0.003439 0.000000 0.000000 0.000000
# 2 -0.006190 0.011702 -0.005364 0.000000 0.000000 0.000000
# 3 -0.003439 -0.005364 0.019398 0.000000 0.000000 0.000000
# 4 0.000000 0.000000 0.000000 0.167723 0.000000 0.000000
# 5 0.000000 0.000000 0.000000 0.000000 -0.124381 0.000000
# 6 0.000000 0.000000 0.000000 0.000000 0.000000 0.034605
#
#
# Mechanical properties :
#
#
# Convention : Reuss Voigt Hill
#
# Bulk Modulus (GPa) = 53.15156 62.76661 57.95909
# Shear Modulus (GPa) = 30.67436 15.65805 23.16620
#
# Velocity S-wave (km/s) = 4.00206 2.85933 3.47795
# Velocity P-wave (km/s) = 7.00773 6.60866 6.81112
#
# Compressibility (1/GPa) = 0.01881412
#
# Stress axis : x y z
#
# Youngs Moduli (GPa) = 56.49901 85.45658 51.55164
#
# Poissons Ratio (x) = 0.52894 0.17728
# Poissons Ratio (y) = 0.34971 0.27653
# Poissons Ratio (z) = 0.19430 0.45839
#
# Static dielectric constant tensor:
#      x y z
#    x 3.737870 0.000000 0.000000 
#    y 0.000000 3.663700 0.000000 
#    z 0.000000 0.000000 3.153130 
# 
# 
# High freq. dielectric constant tensor:
#      x y z
#    x 1.735990 0.000000 0.000000 
#    y 0.000000 1.751630 0.000000 
#    z 0.000000 0.000000 1.714820 
# 
# From -- ./inp_files/73989.got.cif
#   From: 2010.03.12/outbox.cif.g09.slc.cpg/sg65_37_cif.got.tgz:73989.got - 2010.04.10 20:52:16.
