data_PCOD8273213
_publ_section_title
;
Structure prediction by ZEFSAII (Michael W. Deem and Ramdas Pophale) SiO2 
 PCOD8273213
Probable space group: C M M M
;
_chemical_formula_sum "Si O2"
_cell_formula_units_Z 120
_cell_length_a 11.140024
_cell_length_b 19.254800
_cell_length_c 26.638693
_cell_angle_alpha 90.000000
_cell_angle_beta 90.000000
_cell_angle_gamma 90.000000
_cell_volume 5713.971255
_symmetry_space_group_name_H-M "C M M M"
_symmetry_group_IT_number 65
_symmetry_cell_setting 'orthorhombic'
loop_
_space_group_symop_operation_xyz
x,y,z
-x,-y,z
x,-y,-z
-x,y,-z
-x,-y,-z
x,y,-z
-x,y,z
x,-y,z
1/2+x,1/2+y,z
1/2-x,1/2-y,z
1/2+x,1/2-y,-z
1/2-x,1/2+y,-z
1/2-x,1/2-y,-z
1/2+x,1/2+y,-z
1/2-x,1/2+y,z
1/2+x,1/2-y,z
loop_
_atom_site_type_symbol
_atom_site_label
_atom_site_fract_x
_atom_site_fract_y
_atom_site_fract_z
Si Si1 0.866497 0.577313 0.795734
Si Si2 0.294012 0.822790 0.710220
Si Si3 0.861707 0.925123 0.654013
Si Si4 0.751329 0.580758 0.101403
Si Si5 0.272460 0.921426 0.556468
Si Si6 0.634521 0.791645 0.941168
Si Si7 0.500000 0.581925 0.056445
Si Si8 0.870433 0.293267 0.602083
O O1 0.842207 0.500000 0.773662
O O2 0.863334 0.634316 0.752175
O O3 0.769680 0.593166 0.839123
O O4 0.000000 0.580481 0.819376
O O5 0.250000 0.750000 0.733751
O O6 0.179906 0.866665 0.692231
O O7 0.375442 0.809241 0.661439
O O8 0.834782 0.906947 0.595868
O O9 0.000000 0.930796 0.661570
O O10 0.802013 0.000000 0.667199
O O11 0.772226 0.500000 0.087247
O O12 0.846802 0.626956 0.071060
O O13 0.617687 0.606508 0.086520
O O14 0.224324 0.909234 0.500000
O O15 0.373668 0.864971 0.570442
O O16 0.324067 0.000000 0.561730
O O17 0.500000 0.768924 0.921037
O O18 0.750000 0.750000 0.917337
O O19 0.635021 0.779921 0.000000
O O20 0.500000 0.500000 0.052021
O O21 0.500000 0.614468 0.000000
O O22 0.750000 0.250000 0.587655
O O23 0.000000 0.256138 0.590016
#
# Coordination Sequence:
#
# PCOD8273213 Si02
#       8
#    16  16  16  16  16  16   8  16
#     4  10  21  38  59  82 114 153 193 243 297 350
#     4  10  21  36  58  84 112 148 195 245 294 353
#     4   9  18  34  55  81 115 154 196 242 295 356
#     4  10  21  38  61  89 119 153 199 248 297 352
#     4   9  19  35  55  82 115 150 193 244 297 353
#     4  10  22  38  58  86 121 160 199 242 293 349
#     4   9  18  34  60  92 122 154 191 239 296 352
#     4  10  22  39  60  84 115 153 197 247 298 357
#
# _framework density 21.001156999999999
#
# number of rings (size 3 to 8) (size 9 to 14) (size 15 to 20)
#    0.000    2.333    0.000    1.600    0.933    9.067 
#    1.200    2.667    0.000    0.000    0.000    0.000 
#    0.000    0.000    0.000    0.000    0.000    0.000 
#
# Total GULP energy -743356.192304 kJ/mol
# GULP energy per Si atom -12389.269872 kJ/mol
# Density = 2.095336 g / cm^3
# Si number density = 21.001157 Si / 1000 Ang^3
#
#
#
# Elastic Constant Matrix: (Units=GPa)
#
#
# Indices 1 2 3 4 5 6 
#
# 1 140.3416 56.1860 36.5504 0.0000 0.0000 0.0000
# 2 56.1860 106.5118 34.1883 0.0000 0.0000 0.0000
# 3 36.5504 34.1883 69.9842 0.0000 0.0000 0.0000
# 4 0.0000 0.0000 0.0000 27.0936 0.0000 0.0000
# 5 0.0000 0.0000 0.0000 0.0000 1.9873 0.0000
# 6 0.0000 0.0000 0.0000 0.0000 0.0000 27.3524
#
#
#
# Elastic Compliance Matrix: (Units=1/GPa)
#
#
# Indices 1 2 3 4 5 6 
#
# 1 0.009533 -0.004069 -0.002991 0.000000 0.000000 0.000000
# 2 -0.004069 0.012871 -0.004163 0.000000 0.000000 0.000000
# 3 -0.002991 -0.004163 0.017885 0.000000 0.000000 0.000000
# 4 0.000000 0.000000 0.000000 0.036909 0.000000 0.000000
# 5 0.000000 0.000000 0.000000 0.000000 0.503196 0.000000
# 6 0.000000 0.000000 0.000000 0.000000 0.000000 0.036560
#
#
# Mechanical properties :
#
#
# Convention : Reuss Voigt Hill
#
# Bulk Modulus (GPa) = 56.04252 63.40967 59.72609
# Shear Modulus (GPa) = 7.74776 23.94753 15.84764
#
# Velocity S-wave (km/s) = 1.92281 3.38049 2.74999
# Velocity P-wave (km/s) = 5.62788 6.74507 6.21164
#
# Compressibility (1/GPa) = 0.01784359
#
# Stress axis : x y z
#
# Youngs Moduli (GPa) = 104.89334 77.69317 55.91356
#
# Poissons Ratio (x) = 0.31612 0.16726
# Poissons Ratio (y) = 0.42679 0.23275
# Poissons Ratio (z) = 0.31377 0.32342
#
# Static dielectric constant tensor:
#      x y z
#    x 3.853930 0.000000 0.000000 
#    y 0.000000 4.158680 0.000000 
#    z 0.000000 0.000000 3.557440 
# 
# 
# High freq. dielectric constant tensor:
#      x y z
#    x 1.814310 0.000000 0.000000 
#    y 0.000000 1.834110 0.000000 
#    z 0.000000 0.000000 1.796890 
# 
# From -- ./inp_files/69193.got.cif
#   From: 2010.03.12/outbox.cif.g09.slc.cpg/sg65_35_cif.got.tgz:69193.got - 2010.04.10 20:52:16.
