data_PCOD8273133
_publ_section_title
;
Structure prediction by ZEFSAII (Michael W. Deem and Ramdas Pophale) SiO2 
 PCOD8273133
Probable space group: C M M M
;
_chemical_formula_sum "Si O2"
_cell_formula_units_Z 80
_cell_length_a 18.340945
_cell_length_b 25.431961
_cell_length_c 8.650375
_cell_angle_alpha 90.000000
_cell_angle_beta 90.000000
_cell_angle_gamma 90.000000
_cell_volume 4034.934530
_symmetry_space_group_name_H-M "C M M M"
_symmetry_group_IT_number 65
_symmetry_cell_setting 'orthorhombic'
loop_
_space_group_symop_operation_xyz
x,y,z
-x,-y,z
x,-y,-z
-x,y,-z
-x,-y,-z
x,y,-z
-x,y,z
x,-y,z
1/2+x,1/2+y,z
1/2-x,1/2-y,z
1/2+x,1/2-y,-z
1/2-x,1/2+y,-z
1/2-x,1/2-y,-z
1/2+x,1/2+y,-z
1/2-x,1/2+y,z
1/2+x,1/2-y,z
loop_
_atom_site_type_symbol
_atom_site_label
_atom_site_fract_x
_atom_site_fract_y
_atom_site_fract_z
Si Si1 0.918042 0.558252 0.183950
Si Si2 0.916070 0.748343 0.680524
Si Si3 0.084222 0.939923 0.322037
Si Si4 0.338983 0.654300 0.180623
Si Si5 0.174296 0.654569 0.817401
O O1 0.892988 0.500000 0.239612
O O2 0.864381 0.602561 0.254071
O O3 0.000000 0.569778 0.243723
O O4 0.917362 0.560387 0.000000
O O5 0.905042 0.739072 0.500000
O O6 0.889884 0.806348 0.724579
O O7 0.869129 0.706367 0.772879
O O8 0.000000 0.742232 0.729255
O O9 0.098471 0.924807 0.500000
O O10 0.133266 0.904581 0.210346
O O11 0.000000 0.930972 0.280320
O O12 0.106593 0.000000 0.291026
O O13 0.256586 0.658929 0.244536
O O14 0.343305 0.667830 0.000000
O O15 0.175430 0.649485 0.000000
#
# Coordination Sequence:
#
# PCOD8273133 Si02
#       5
#    16  16  16  16  16
#     4   8  14  27  50  78 105 136 174 212 253 305
#     4  11  24  40  58  79 104 139 183 227 273 328
#     4   9  19  37  59  81 108 146 190 230 269 319
#     4  11  23  36  54  83 114 143 179 224 275 329
#     4  10  21  36  55  81 112 143 177 221 271 322
#
# _framework density 19.826841000000002
#
# number of rings (size 3 to 8) (size 9 to 14) (size 15 to 20)
#    0.000    2.200    0.000    4.200    0.000   10.400 
#    0.000    3.000    0.000    0.600    0.000    2.800 
#    0.000    0.000    0.000    0.000    0.000    0.000 
#
# Total GULP energy -496068.918602 kJ/mol
# GULP energy per Si atom -12401.722965 kJ/mol
# Density = 1.978171 g / cm^3
# Si number density = 19.826841 Si / 1000 Ang^3
#
#
#
# Elastic Constant Matrix: (Units=GPa)
#
#
# Indices 1 2 3 4 5 6 
#
# 1 112.9800 45.4134 19.0182 0.0000 0.0000 0.0000
# 2 45.4134 104.9565 5.1244 0.0000 0.0000 0.0000
# 3 19.0182 5.1244 9.2843 0.0000 0.0000 0.0000
# 4 0.0000 0.0000 0.0000 27.5163 0.0000 0.0000
# 5 0.0000 0.0000 0.0000 0.0000 20.7882 0.0000
# 6 0.0000 0.0000 0.0000 0.0000 0.0000 26.2313
#
#
#
# Elastic Compliance Matrix: (Units=1/GPa)
#
#
# Indices 1 2 3 4 5 6 
#
# 1 0.016107 -0.005507 -0.029955 0.000000 0.000000 0.000000
# 2 -0.005507 0.011674 0.004837 0.000000 0.000000 0.000000
# 3 -0.029955 0.004837 0.166400 0.000000 0.000000 0.000000
# 4 0.000000 0.000000 0.000000 0.036342 0.000000 0.000000
# 5 0.000000 0.000000 0.000000 0.000000 0.048104 0.000000
# 6 0.000000 0.000000 0.000000 0.000000 0.000000 0.038122
#
#
# Mechanical properties :
#
#
# Convention : Reuss Voigt Hill
#
# Bulk Modulus (GPa) = 7.52267 40.70361 24.11314
# Shear Modulus (GPa) = 11.83967 25.41816 18.62891
#
# Velocity S-wave (km/s) = 2.44632 3.58440 3.06858
# Velocity P-wave (km/s) = 3.43246 6.14041 4.97425
#
# Compressibility (1/GPa) = 0.13293156
#
# Stress axis : x y z
#
# Youngs Moduli (GPa) = 62.08498 85.65802 6.00963
#
# Poissons Ratio (x) = 0.47170 0.18002
# Poissons Ratio (y) = 0.34189 -0.02907
# Poissons Ratio (z) = 1.85973 -0.41431
#
# Static dielectric constant tensor:
#      x y z
#    x 3.803520 0.000000 0.000000 
#    y 0.000000 3.772290 0.000000 
#    z 0.000000 0.000000 3.241150 
# 
# 
# High freq. dielectric constant tensor:
#      x y z
#    x 1.778410 0.000000 0.000000 
#    y 0.000000 1.788540 0.000000 
#    z 0.000000 0.000000 1.743260 
# 
# From -- ./inp_files/9615.got.cif
#   From: 2010.03.12/outbox.cif.g09.slc.cpg/sg65_5_cif.got.tgz:9615.got - 2010.04.10 20:52:16.
