data_PCOD8273676
_publ_section_title
;
Structure prediction by ZEFSAII (Michael W. Deem and Ramdas Pophale) SiO2 
 PCOD8273676
Probable space group: C M M M
;
_chemical_formula_sum "Si O2"
_cell_formula_units_Z 72
_cell_length_a 19.029727
_cell_length_b 22.651042
_cell_length_c 8.723791
_cell_angle_alpha 90.000000
_cell_angle_beta 90.000000
_cell_angle_gamma 90.000000
_cell_volume 3760.330314
_symmetry_space_group_name_H-M "C M M M"
_symmetry_group_IT_number 65
_symmetry_cell_setting 'orthorhombic'
loop_
_space_group_symop_operation_xyz
x,y,z
-x,-y,z
x,-y,-z
-x,y,-z
-x,-y,-z
x,y,-z
-x,y,z
x,-y,z
1/2+x,1/2+y,z
1/2-x,1/2-y,z
1/2+x,1/2-y,-z
1/2-x,1/2+y,-z
1/2-x,1/2-y,-z
1/2+x,1/2+y,-z
1/2-x,1/2+y,z
1/2+x,1/2-y,z
loop_
_atom_site_type_symbol
_atom_site_label
_atom_site_fract_x
_atom_site_fract_y
_atom_site_fract_z
Si Si1 0.316986 0.568240 0.677015
Si Si2 0.171112 0.398641 0.819841
Si Si3 0.581233 0.341310 0.180430
Si Si4 0.325857 0.233204 0.818468
Si Si5 0.920752 0.500000 0.680798
O O1 0.299614 0.580989 0.500000
O O2 0.334342 0.500000 0.704787
O O3 0.251127 0.587199 0.778819
O O4 0.385098 0.604199 0.729723
O O5 0.152381 0.332342 0.764797
O O6 0.117765 0.441554 0.736233
O O7 0.161635 0.406847 0.000000
O O8 0.500000 0.338173 0.224590
O O9 0.616458 0.280229 0.237471
O O10 0.592893 0.350663 0.000000
O O11 0.250000 0.250000 0.747278
O O12 0.319857 0.233888 0.000000
O O13 0.919445 0.500000 0.500000
O O14 0.000000 0.500000 0.744999
#
# Coordination Sequence:
#
# PCOD8273676 Si02
#       5
#    16  16  16  16   8
#     4  11  23  38  58  84 118 157 195 239 296 356
#     4  11  21  36  64  92 115 150 200 248 286 343
#     4  10  21  38  60  86 117 152 194 247 300 348
#     4   9  17  33  58  88 117 146 187 242 300 348
#     4  11  25  43  59  83 126 165 192 237 299 351
#
# _framework density 19.147254
#
# number of rings (size 3 to 8) (size 9 to 14) (size 15 to 20)
#    0.000    1.667    3.333    1.667    0.000    4.000 
#    0.000    7.778    0.000    0.000    0.000    0.000 
#    0.000    0.000    0.000    0.000    0.000    0.000 
#
# Total GULP energy -446497.253981 kJ/mol
# GULP energy per Si atom -12402.701499 kJ/mol
# Density = 1.910367 g / cm^3
# Si number density = 19.147254 Si / 1000 Ang^3
#
#
#
# Elastic Constant Matrix: (Units=GPa)
#
#
# Indices 1 2 3 4 5 6 
#
# 1 129.2312 65.9693 15.5635 0.0000 0.0000 0.0000
# 2 65.9693 159.4734 27.5562 0.0000 0.0000 0.0000
# 3 15.5635 27.5562 33.6789 0.0000 0.0000 0.0000
# 4 0.0000 0.0000 0.0000 -1.6046 0.0000 0.0000
# 5 0.0000 0.0000 0.0000 0.0000 25.0451 0.0000
# 6 0.0000 0.0000 0.0000 0.0000 0.0000 32.0217
#
#
#
# Elastic Compliance Matrix: (Units=1/GPa)
#
#
# Indices 1 2 3 4 5 6 
#
# 1 0.009868 -0.003836 -0.001421 0.000000 0.000000 0.000000
# 2 -0.003836 0.008795 -0.005423 0.000000 0.000000 0.000000
# 3 -0.001421 -0.005423 0.034786 0.000000 0.000000 0.000000
# 4 0.000000 0.000000 0.000000 -0.623205 0.000000 0.000000
# 5 0.000000 0.000000 0.000000 0.000000 0.039928 0.000000
# 6 0.000000 0.000000 0.000000 0.000000 0.000000 0.031229
#
#
# Mechanical properties :
#
#
# Convention : Reuss Voigt Hill
#
# Bulk Modulus (GPa) = 31.16481 60.06237 45.61359
# Shear Modulus (GPa) = -10.71712 25.31207 7.29748
#
# Velocity S-wave (km/s) = -2.36841 3.63983 1.95436
# Velocity P-wave (km/s) = 2.97196 7.00723 5.38209
#
# Compressibility (1/GPa) = 0.03208747
#
# Stress axis : x y z
#
# Youngs Moduli (GPa) = 101.34206 113.70494 28.74721
#
# Poissons Ratio (x) = 0.43621 0.04085
# Poissons Ratio (y) = 0.38879 0.15590
# Poissons Ratio (z) = 0.14401 0.61662
#
# Static dielectric constant tensor:
#      x y z
#    x 3.527980 0.000000 0.000000 
#    y 0.000000 3.880040 0.000000 
#    z 0.000000 0.000000 3.349210 
# 
# 
# High freq. dielectric constant tensor:
#      x y z
#    x 1.742890 0.000000 0.000000 
#    y 0.000000 1.764060 0.000000 
#    z 0.000000 0.000000 1.727320 
# 
# From -- ./inp_files/9278.got.cif
#   From: 2010.03.12/outbox.cif.g09.slc.cpg/sg65_5_cif.got.tgz:9278.got - 2010.04.10 20:52:16.
