data_PCOD8273191
_publ_section_title
;
Structure prediction by ZEFSAII (Michael W. Deem and Ramdas Pophale) SiO2 
 PCOD8273191
Probable space group: C M M M
;
_chemical_formula_sum "Si O2"
_cell_formula_units_Z 80
_cell_length_a 16.834481
_cell_length_b 27.191996
_cell_length_c 9.006596
_cell_angle_alpha 90.000000
_cell_angle_beta 90.000000
_cell_angle_gamma 90.000000
_cell_volume 4122.887666
_symmetry_space_group_name_H-M "C M M M"
_symmetry_group_IT_number 65
_symmetry_cell_setting 'orthorhombic'
loop_
_space_group_symop_operation_xyz
x,y,z
-x,-y,z
x,-y,-z
-x,y,-z
-x,-y,-z
x,y,-z
-x,y,z
x,-y,z
1/2+x,1/2+y,z
1/2-x,1/2-y,z
1/2+x,1/2-y,-z
1/2-x,1/2+y,-z
1/2-x,1/2-y,-z
1/2+x,1/2+y,-z
1/2-x,1/2+y,z
1/2+x,1/2-y,z
loop_
_atom_site_type_symbol
_atom_site_label
_atom_site_fract_x
_atom_site_fract_y
_atom_site_fract_z
Si Si1 0.411415 0.500000 0.824087
Si Si2 0.908748 0.714156 0.328049
Si Si3 0.812257 0.906170 0.176276
Si Si4 0.000000 0.558206 0.170720
Si Si5 0.147846 0.391513 0.675705
Si Si6 0.590022 0.688137 0.824774
O O1 0.500000 0.500000 0.755382
O O2 0.365810 0.548450 0.769968
O O3 0.417339 0.500000 0.000000
O O4 0.899787 0.726516 0.500000
O O5 0.858904 0.666144 0.283163
O O6 0.874986 0.761012 0.239371
O O7 0.000000 0.703596 0.285163
O O8 0.729278 0.911912 0.259041
O O9 0.855765 0.856638 0.230323
O O10 0.798277 0.906681 0.000000
O O11 0.922526 0.578223 0.251282
O O12 0.000000 0.500000 0.183224
O O13 0.000000 0.575621 0.000000
O O14 0.143957 0.399496 0.500000
O O15 0.500000 0.679780 0.766763
O O16 0.591043 0.691553 0.000000
#
# Coordination Sequence:
#
# PCOD8273191 Si02
#       6
#     8  16  16   8  16  16
#     4   9  18  36  63  86 111 152 193 235 290 345
#     4   9  18  35  56  78 109 151 196 235 280 346
#     4  10  21  36  56  86 119 148 192 247 293 344
#     4  11  25  43  65  89 115 151 195 240 289 342
#     4  11  23  40  60  85 119 155 194 235 286 348
#     4   9  18  33  55  83 114 150 195 245 295 343
#
# _framework density 19.403874999999999
#
# number of rings (size 3 to 8) (size 9 to 14) (size 15 to 20)
#    0.000    2.200    1.000    1.500    1.400    6.400 
#    0.000    4.000    0.000    2.400    0.000    0.000 
#    0.000    0.000    0.000    0.000    0.000    0.000 
#
# Total GULP energy -496104.629508 kJ/mol
# GULP energy per Si atom -12402.615738 kJ/mol
# Density = 1.935971 g / cm^3
# Si number density = 19.403875 Si / 1000 Ang^3
#
#
#
# Elastic Constant Matrix: (Units=GPa)
#
#
# Indices 1 2 3 4 5 6 
#
# 1 149.6860 79.1548 49.2578 0.0000 0.0000 0.0000
# 2 79.1548 134.8759 47.0060 0.0000 0.0000 0.0000
# 3 49.2578 47.0060 56.5935 0.0000 0.0000 0.0000
# 4 0.0000 0.0000 0.0000 3.0598 0.0000 0.0000
# 5 0.0000 0.0000 0.0000 0.0000 18.1275 0.0000
# 6 0.0000 0.0000 0.0000 0.0000 0.0000 5.9592
#
#
#
# Elastic Compliance Matrix: (Units=1/GPa)
#
#
# Indices 1 2 3 4 5 6 
#
# 1 0.010923 -0.004359 -0.005887 0.000000 0.000000 0.000000
# 2 -0.004359 0.012174 -0.006318 0.000000 0.000000 0.000000
# 3 -0.005887 -0.006318 0.028041 0.000000 0.000000 0.000000
# 4 0.000000 0.000000 0.000000 0.326818 0.000000 0.000000
# 5 0.000000 0.000000 0.000000 0.000000 0.055165 0.000000
# 6 0.000000 0.000000 0.000000 0.000000 0.000000 0.167806
#
#
# Mechanical properties :
#
#
# Convention : Reuss Voigt Hill
#
# Bulk Modulus (GPa) = 55.52049 76.88805 66.20427
# Shear Modulus (GPa) = 7.81180 16.47844 12.14512
#
# Velocity S-wave (km/s) = 2.00864 2.91732 2.50454
# Velocity P-wave (km/s) = 5.83564 7.14555 6.52356
#
# Compressibility (1/GPa) = 0.01801137
#
# Stress axis : x y z
#
# Youngs Moduli (GPa) = 91.55282 82.14169 35.66184
#
# Poissons Ratio (x) = 0.35802 0.20993
# Poissons Ratio (y) = 0.39904 0.22531
# Poissons Ratio (z) = 0.53894 0.51897
#
# Static dielectric constant tensor:
#      x y z
#    x 3.714740 0.000000 0.000000 
#    y 0.000000 3.730270 0.000000 
#    z 0.000000 0.000000 3.365360 
# 
# 
# High freq. dielectric constant tensor:
#      x y z
#    x 1.756010 0.000000 0.000000 
#    y 0.000000 1.768940 0.000000 
#    z 0.000000 0.000000 1.738110 
# 
# From -- ./inp_files/9685.got.cif
#   From: 2010.03.12/outbox.cif.g09.slc.cpg/sg65_5_cif.got.tgz:9685.got - 2010.04.10 20:52:16.
