data_PCOD8273016
_publ_section_title
;
Structure prediction by ZEFSAII (Michael W. Deem and Ramdas Pophale) SiO2 
 PCOD8273016
Probable space group: C M M M
;
_chemical_formula_sum "Si O2"
_cell_formula_units_Z 104
_cell_length_a 25.758877
_cell_length_b 23.770672
_cell_length_c 9.122031
_cell_angle_alpha 90.000000
_cell_angle_beta 90.000000
_cell_angle_gamma 90.000000
_cell_volume 5585.472637
_symmetry_space_group_name_H-M "C M M M"
_symmetry_group_IT_number 65
_symmetry_cell_setting 'orthorhombic'
loop_
_space_group_symop_operation_xyz
x,y,z
-x,-y,z
x,-y,-z
-x,y,-z
-x,-y,-z
x,y,-z
-x,y,z
x,-y,z
1/2+x,1/2+y,z
1/2-x,1/2-y,z
1/2+x,1/2-y,-z
1/2-x,1/2+y,-z
1/2-x,1/2-y,-z
1/2+x,1/2+y,-z
1/2-x,1/2+y,z
1/2+x,1/2-y,z
loop_
_atom_site_type_symbol
_atom_site_label
_atom_site_fract_x
_atom_site_fract_y
_atom_site_fract_z
Si Si1 0.675709 0.661893 0.329126
Si Si2 0.371588 0.236220 0.168993
Si Si3 0.145767 0.435682 0.329553
Si Si4 0.717664 0.145892 0.831123
Si Si5 0.440634 0.847493 0.669610
Si Si6 0.500000 0.433062 0.164750
Si Si7 0.100233 0.063551 0.668694
O O1 0.683203 0.675296 0.500000
O O2 0.636916 0.707175 0.259684
O O3 0.730632 0.664306 0.250473
O O4 0.651185 0.600509 0.302854
O O5 0.321478 0.197279 0.188317
O O6 0.421919 0.204883 0.233216
O O7 0.381852 0.250989 0.000000
O O8 0.160041 0.430402 0.500000
O O9 0.137641 0.500000 0.281842
O O10 0.193787 0.410327 0.239337
O O11 0.092584 0.403059 0.292397
O O12 0.730316 0.133696 0.000000
O O13 0.433822 0.830872 0.500000
O O14 0.500000 0.861315 0.708695
O O15 0.500000 0.500000 0.173626
O O16 0.551817 0.410415 0.242718
O O17 0.500000 0.410209 0.000000
O O18 0.083561 0.064844 0.500000
O O19 0.113524 0.000000 0.719614
#
# Coordination Sequence:
#
# PCOD8273016 Si02
#       7
#    16  16  16  16  16   8  16
#     4  11  22  35  55  82 106 135 177 222 267 319
#     4  10  21  37  55  76 105 141 180 221 269 323
#     4   9  18  33  54  81 112 146 184 224 269 323
#     4  10  21  36  54  76 106 143 179 220 269 319
#     4   9  18  34  56  81 110 144 182 227 275 321
#     4   9  17  31  53  77  99 127 163 201 242 291
#     4   9  19  36  55  75 102 135 168 205 254 310
#
# _framework density 18.619731000000002
#
# number of rings (size 3 to 8) (size 9 to 14) (size 15 to 20)
#    0.000    2.385    0.000    2.077    0.000    7.385 
#    1.385    3.077    0.000    0.000    0.000    4.308 
#    0.000    0.000    0.000    0.000    0.000    0.000 
#
# Total GULP energy -644968.901839 kJ/mol
# GULP energy per Si atom -12403.248112 kJ/mol
# Density = 1.857735 g / cm^3
# Si number density = 18.619731 Si / 1000 Ang^3
#
#
#
# Elastic Constant Matrix: (Units=GPa)
#
#
# Indices 1 2 3 4 5 6 
#
# 1 52.5260 23.8145 29.7026 0.0000 0.0000 0.0000
# 2 23.8145 95.1055 41.9731 0.0000 0.0000 0.0000
# 3 29.7026 41.9731 93.8640 0.0000 0.0000 0.0000
# 4 0.0000 0.0000 0.0000 21.7420 0.0000 0.0000
# 5 0.0000 0.0000 0.0000 0.0000 25.4752 0.0000
# 6 0.0000 0.0000 0.0000 0.0000 0.0000 16.5079
#
#
#
# Elastic Compliance Matrix: (Units=1/GPa)
#
#
# Indices 1 2 3 4 5 6 
#
# 1 0.023996 -0.003311 -0.006113 0.000000 0.000000 0.000000
# 2 -0.003311 0.013557 -0.005014 0.000000 0.000000 0.000000
# 3 -0.006113 -0.005014 0.014830 0.000000 0.000000 0.000000
# 4 0.000000 0.000000 0.000000 0.045994 0.000000 0.000000
# 5 0.000000 0.000000 0.000000 0.000000 0.039254 0.000000
# 6 0.000000 0.000000 0.000000 0.000000 0.000000 0.060577
#
#
# Mechanical properties :
#
#
# Convention : Reuss Voigt Hill
#
# Bulk Modulus (GPa) = 42.54085 48.05287 45.29686
# Shear Modulus (GPa) = 21.28387 22.47871 21.88129
#
# Velocity S-wave (km/s) = 3.38462 3.47832 3.43179
# Velocity P-wave (km/s) = 6.17826 6.48037 6.33112
#
# Compressibility (1/GPa) = 0.02350682
#
# Stress axis : x y z
#
# Youngs Moduli (GPa) = 41.67368 73.76420 67.42906
#
# Poissons Ratio (x) = 0.24422 0.41218
# Poissons Ratio (y) = 0.13797 0.33812
# Poissons Ratio (z) = 0.25475 0.36989
#
# Static dielectric constant tensor:
#      x y z
#    x 3.355810 0.000000 0.000000 
#    y 0.000000 3.414930 0.000000 
#    z 0.000000 0.000000 3.524120 
# 
# 
# High freq. dielectric constant tensor:
#      x y z
#    x 1.720330 0.000000 0.000000 
#    y 0.000000 1.715220 0.000000 
#    z 0.000000 0.000000 1.728060 
# 
# From -- ./inp_files/16438.got.cif
#   From: 2010.03.12/outbox.cif.g09.slc.cpg/sg65_9_cif.got.tgz:16438.got - 2010.04.10 20:52:16.
