data_PCOD8273209
_publ_section_title
;
Structure prediction by ZEFSAII (Michael W. Deem and Ramdas Pophale) SiO2 
 PCOD8273209
Probable space group: C M M M
;
_chemical_formula_sum "Si O2"
_cell_formula_units_Z 96
_cell_length_a 14.192877
_cell_length_b 14.338921
_cell_length_c 24.218456
_cell_angle_alpha 90.000000
_cell_angle_beta 90.000000
_cell_angle_gamma 90.000000
_cell_volume 4928.711109
_symmetry_space_group_name_H-M "C M M M"
_symmetry_group_IT_number 65
_symmetry_cell_setting 'orthorhombic'
loop_
_space_group_symop_operation_xyz
x,y,z
-x,-y,z
x,-y,-z
-x,y,-z
-x,-y,-z
x,y,-z
-x,y,z
x,-y,z
1/2+x,1/2+y,z
1/2-x,1/2-y,z
1/2+x,1/2-y,-z
1/2-x,1/2+y,-z
1/2-x,1/2-y,-z
1/2+x,1/2+y,-z
1/2-x,1/2+y,z
1/2+x,1/2-y,z
loop_
_atom_site_type_symbol
_atom_site_label
_atom_site_fract_x
_atom_site_fract_y
_atom_site_fract_z
Si Si1 0.604114 0.860501 0.000000
Si Si2 0.891626 0.249996 0.387911
Si Si3 0.750004 0.607133 0.565377
Si Si4 0.604114 0.360500 0.000000
Si Si5 0.891655 0.250002 0.742630
Si Si6 0.750000 0.139873 0.089389
Si Si7 0.749998 0.396340 0.786168
O O1 0.600413 0.750000 0.000000
O O2 0.658373 0.893248 0.055065
O O3 0.500000 0.904768 0.000000
O O4 0.843284 0.342951 0.411581
O O5 0.843276 0.157040 0.411574
O O6 0.879764 0.250002 0.322638
O O7 0.000000 0.249989 0.406400
O O8 0.749996 0.615594 0.500000
O O9 0.750012 0.500000 0.584995
O O10 0.658373 0.393248 0.944935
O O11 0.500000 0.404768 0.000000
O O12 0.843416 0.342463 0.766790
O O13 0.843418 0.157539 0.766791
O O14 0.000000 0.250003 0.761192
O O15 0.750000 0.250000 0.098838
O O16 0.750000 0.090851 0.148140
O O17 0.749996 0.500000 0.759929
#
# Coordination Sequence:
#
# PCOD8273209 Si02
#       7
#     8  16  16   8  16  16  16
#     4   8  15  27  48  74 102 138 175 215 268 329
#     4  10  21  38  60  83 112 153 196 236 279 330
#     4  10  21  36  57  88 122 153 188 231 279 332
#     4   8  15  27  48  74 102 138 175 215 268 329
#     4  10  23  41  59  83 113 148 192 239 284 331
#     4   9  16  31  50  76 106 136 179 222 269 333
#     4  11  22  38  60  84 112 147 186 234 288 338
#
# _framework density 19.477709000000001
#
# number of rings (size 3 to 8) (size 9 to 14) (size 15 to 20)
#    0.000    2.333    1.667    4.000    0.000    6.667 
#    0.000    6.667    0.000    1.000    0.000    0.000 
#    0.000    0.000    0.000    0.000    0.000    0.000 
#
# Total GULP energy -595162.735221 kJ/mol
# GULP energy per Si atom -12399.223650 kJ/mol
# Density = 1.943338 g / cm^3
# Si number density = 19.477709 Si / 1000 Ang^3
#
#
#
# Elastic Constant Matrix: (Units=GPa)
#
#
# Indices 1 2 3 4 5 6 
#
# 1 197.3173 68.3536 61.3024 0.0000 0.0000 0.0000
# 2 68.3536 157.6378 40.8500 0.0000 0.0000 0.0000
# 3 61.3024 40.8500 108.8227 0.0000 0.0000 0.0000
# 4 0.0000 0.0000 0.0000 11.0856 0.0000 0.0000
# 5 0.0000 0.0000 0.0000 0.0000 3.0982 0.0000
# 6 0.0000 0.0000 0.0000 0.0000 0.0000 13.9850
#
#
#
# Elastic Compliance Matrix: (Units=1/GPa)
#
#
# Indices 1 2 3 4 5 6 
#
# 1 0.006741 -0.002148 -0.002991 0.000000 0.000000 0.000000
# 2 -0.002148 0.007712 -0.001685 0.000000 0.000000 0.000000
# 3 -0.002991 -0.001685 0.011507 0.000000 0.000000 0.000000
# 4 0.000000 0.000000 0.000000 0.090207 0.000000 0.000000
# 5 0.000000 0.000000 0.000000 0.000000 0.322771 0.000000
# 6 0.000000 0.000000 0.000000 0.000000 0.000000 0.071505
#
#
# Mechanical properties :
#
#
# Convention : Reuss Voigt Hill
#
# Bulk Modulus (GPa) = 81.22369 89.42109 85.32239
# Shear Modulus (GPa) = 9.46620 25.18521 17.32571
#
# Velocity S-wave (km/s) = 2.20694 3.59977 2.98571
# Velocity P-wave (km/s) = 6.94877 7.95531 7.46902
#
# Compressibility (1/GPa) = 0.01231168
#
# Stress axis : x y z
#
# Youngs Moduli (GPa) = 148.33710 129.67403 86.90552
#
# Poissons Ratio (x) = 0.27854 0.25996
# Poissons Ratio (y) = 0.31863 0.14642
# Poissons Ratio (z) = 0.44372 0.21847
#
# Static dielectric constant tensor:
#      x y z
#    x 3.880660 0.000000 0.000000 
#    y 0.000000 3.486540 0.000000 
#    z 0.000000 0.000000 3.613210 
# 
# 
# High freq. dielectric constant tensor:
#      x y z
#    x 1.758850 0.000000 0.000000 
#    y 0.000000 1.757910 0.000000 
#    z 0.000000 0.000000 1.765900 
# 
# From -- ./inp_files/69918.got.cif
#   From: 2010.03.12/outbox.cif.g09.slc.cpg/sg65_35_cif.got.tgz:69918.got - 2010.04.10 20:52:16.
