data_PCOD8273652
_publ_section_title
;
Structure prediction by ZEFSAII (Michael W. Deem and Ramdas Pophale) SiO2 
 PCOD8273652
Probable space group: C M M M
;
_chemical_formula_sum "Si O2"
_cell_formula_units_Z 104
_cell_length_a 8.882265
_cell_length_b 26.861375
_cell_length_c 22.764213
_cell_angle_alpha 90.000000
_cell_angle_beta 90.000000
_cell_angle_gamma 90.000000
_cell_volume 5431.310188
_symmetry_space_group_name_H-M "C M M M"
_symmetry_group_IT_number 65
_symmetry_cell_setting 'orthorhombic'
loop_
_space_group_symop_operation_xyz
x,y,z
-x,-y,z
x,-y,-z
-x,y,-z
-x,-y,-z
x,y,-z
-x,y,z
x,-y,z
1/2+x,1/2+y,z
1/2-x,1/2-y,z
1/2+x,1/2-y,-z
1/2-x,1/2+y,-z
1/2-x,1/2-y,-z
1/2+x,1/2+y,-z
1/2-x,1/2+y,z
1/2+x,1/2-y,z
loop_
_atom_site_type_symbol
_atom_site_label
_atom_site_fract_x
_atom_site_fract_y
_atom_site_fract_z
Si Si1 0.826576 0.396033 0.749968
Si Si2 0.820086 0.647986 0.935164
Si Si3 0.822249 0.898608 0.627479
Si Si4 0.828303 0.298611 0.821821
Si Si5 0.821309 0.000000 0.433775
Si Si6 0.820893 0.554262 0.132008
Si Si7 0.676379 0.801987 0.431441
O O1 0.717534 0.404554 0.695552
O O2 0.807605 0.339935 0.772463
O O3 0.769930 0.432112 0.801965
O O4 0.000000 0.406527 0.732255
O O5 0.759047 0.685854 0.885551
O O6 0.761008 0.593152 0.916431
O O7 0.000000 0.648049 0.935397
O O8 0.756664 0.661463 0.000000
O O9 0.761961 0.949207 0.596576
O O10 0.743940 0.849466 0.601825
O O11 0.000000 0.892533 0.618997
O O12 0.750000 0.250000 0.796784
O O13 0.000000 0.285877 0.832410
O O14 0.759745 0.000000 0.500000
O O15 0.000000 0.000000 0.431675
O O16 0.757156 0.500000 0.115537
O O17 0.000000 0.555610 0.131688
O O18 0.710478 0.809499 0.500000
O O19 0.500000 0.799118 0.417771
O O20 0.750000 0.750000 0.409464
#
# Coordination Sequence:
#
# PCOD8273652 Si02
#       7
#    16  16  16  16   8  16  16
#     4   9  19  34  49  70 101 133 168 215 264 310
#     4   8  14  25  41  65  97 127 160 206 256 308
#     4  11  22  36  57  83 110 144 185 225 267 319
#     4   9  18  32  49  69  97 133 169 207 258 311
#     4   9  20  38  57  79 111 147 178 215 266 320
#     4   8  14  25  43  66  92 127 166 205 257 313
#     4  10  21  38  60  85 112 142 177 218 266 320
#
# _framework density 19.148233000000001
#
# number of rings (size 3 to 8) (size 9 to 14) (size 15 to 20)
#    0.000    2.846    0.000    3.231    1.077    3.385 
#    0.000    4.231    0.000    2.769    0.000    0.000 
#    0.000    0.000    0.000    6.769    0.000    6.769 
#
# Total GULP energy -644497.886314 kJ/mol
# GULP energy per Si atom -12394.190121 kJ/mol
# Density = 1.910465 g / cm^3
# Si number density = 19.148233 Si / 1000 Ang^3
#
#
#
# Elastic Constant Matrix: (Units=GPa)
#
#
# Indices 1 2 3 4 5 6 
#
# 1 36.8807 22.5829 18.9409 0.0000 0.0000 0.0000
# 2 22.5829 100.2876 17.9931 0.0000 0.0000 0.0000
# 3 18.9409 17.9931 87.3487 0.0000 0.0000 0.0000
# 4 0.0000 0.0000 0.0000 5.3116 0.0000 0.0000
# 5 0.0000 0.0000 0.0000 0.0000 20.2766 0.0000
# 6 0.0000 0.0000 0.0000 0.0000 0.0000 21.4264
#
#
#
# Elastic Compliance Matrix: (Units=1/GPa)
#
#
# Indices 1 2 3 4 5 6 
#
# 1 0.034293 -0.006633 -0.006070 0.000000 0.000000 0.000000
# 2 -0.006633 0.011637 -0.000959 0.000000 0.000000 0.000000
# 3 -0.006070 -0.000959 0.012962 0.000000 0.000000 0.000000
# 4 0.000000 0.000000 0.000000 0.188266 0.000000 0.000000
# 5 0.000000 0.000000 0.000000 0.000000 0.049318 0.000000
# 6 0.000000 0.000000 0.000000 0.000000 0.000000 0.046671
#
#
# Mechanical properties :
#
#
# Convention : Reuss Voigt Hill
#
# Bulk Modulus (GPa) = 31.67685 38.17232 34.92459
# Shear Modulus (GPa) = 13.12353 20.40293 16.76323
#
# Velocity S-wave (km/s) = 2.62079 3.26778 2.96200
# Velocity P-wave (km/s) = 5.07316 5.84947 5.47509
#
# Compressibility (1/GPa) = 0.03156879
#
# Stress axis : x y z
#
# Youngs Moduli (GPa) = 29.16011 85.93269 77.14814
#
# Poissons Ratio (x) = 0.57001 0.46828
# Poissons Ratio (y) = 0.19343 0.07397
# Poissons Ratio (z) = 0.17700 0.08239
#
# Static dielectric constant tensor:
#      x y z
#    x 3.066860 0.000000 0.000000 
#    y 0.000000 3.909500 0.000000 
#    z 0.000000 0.000000 3.580280 
# 
# 
# High freq. dielectric constant tensor:
#      x y z
#    x 1.700320 0.000000 0.000000 
#    y 0.000000 1.756180 0.000000 
#    z 0.000000 0.000000 1.746940 
# 
# From -- ./inp_files/60374.got.cif
#   From: 2010.03.12/outbox.cif.g09.slc.cpg/sg65_31_cif.got.tgz:60374.got - 2010.04.10 20:52:16.
