data_PCOD8273329
_publ_section_title
;
Structure prediction by ZEFSAII (Michael W. Deem and Ramdas Pophale) SiO2 
 PCOD8273329
Probable space group: C M M M
;
_chemical_formula_sum "Si O2"
_cell_formula_units_Z 88
_cell_length_a 23.659670
_cell_length_b 20.596185
_cell_length_c 9.103800
_cell_angle_alpha 90.000000
_cell_angle_beta 90.000000
_cell_angle_gamma 90.000000
_cell_volume 4436.272093
_symmetry_space_group_name_H-M "C M M M"
_symmetry_group_IT_number 65
_symmetry_cell_setting 'orthorhombic'
loop_
_space_group_symop_operation_xyz
x,y,z
-x,-y,z
x,-y,-z
-x,y,-z
-x,-y,-z
x,y,-z
-x,y,z
x,-y,z
1/2+x,1/2+y,z
1/2-x,1/2-y,z
1/2+x,1/2-y,-z
1/2-x,1/2+y,-z
1/2-x,1/2-y,-z
1/2+x,1/2+y,-z
1/2-x,1/2+y,z
1/2+x,1/2-y,z
loop_
_atom_site_type_symbol
_atom_site_label
_atom_site_fract_x
_atom_site_fract_y
_atom_site_fract_z
Si Si1 0.500000 0.576797 0.326966
Si Si2 0.000000 0.267792 0.841407
Si Si3 0.890958 0.574017 0.840589
Si Si4 0.214007 0.426200 0.666902
Si Si5 0.592129 0.661633 0.167678
Si Si6 0.000000 0.608560 0.329294
Si Si7 0.707429 0.307617 0.330442
O O1 0.500000 0.500000 0.297608
O O2 0.500000 0.592764 0.500000
O O3 0.557689 0.606091 0.256600
O O4 0.944233 0.226068 0.830277
O O5 0.000000 0.315340 0.703583
O O6 0.000000 0.304394 0.000000
O O7 0.875015 0.500000 0.864693
O O8 0.837013 0.605226 0.760720
O O9 0.945520 0.576487 0.740554
O O10 0.900739 0.607695 0.000000
O O11 0.192785 0.425745 0.500000
O O12 0.231185 0.500000 0.712964
O O13 0.266368 0.378919 0.689645
O O14 0.650448 0.685994 0.237957
O O15 0.601725 0.637134 0.000000
O O16 0.000000 0.594320 0.500000
O O17 0.692243 0.293365 0.500000
O O18 0.750000 0.250000 0.274749
#
# Coordination Sequence:
#
# PCOD8273329 Si02
#       7
#     8   8  16  16  16   8  16
#     4  10  21  39  66  96 125 160 200 247 309 377
#     4   9  21  40  57  80 114 150 188 233 288 344
#     4  10  21  37  56  79 110 145 182 230 284 337
#     4   9  19  37  58  81 112 151 195 241 288 343
#     4  10  22  40  61  88 121 156 196 246 300 355
#     4  12  24  34  54  82 107 143 188 232 281 338
#     4  10  22  38  58  86 121 160 204 251 301 362
#
# _framework density 19.836473999999999
#
# number of rings (size 3 to 8) (size 9 to 14) (size 15 to 20)
#    0.000    2.091    0.000    3.000    2.545    6.909 
#    0.000    1.818    0.000    0.000    0.000    0.000 
#    0.000    0.000    0.000    0.000    0.000    0.000 
#
# Total GULP energy -545301.725948 kJ/mol
# GULP energy per Si atom -12393.221044 kJ/mol
# Density = 1.979133 g / cm^3
# Si number density = 19.836474 Si / 1000 Ang^3
#
#
#
# Elastic Constant Matrix: (Units=GPa)
#
#
# Indices 1 2 3 4 5 6 
#
# 1 146.1635 41.6552 76.5813 0.0000 0.0000 0.0000
# 2 41.6552 82.4668 34.8623 0.0000 0.0000 0.0000
# 3 76.5813 34.8623 138.1812 0.0000 0.0000 0.0000
# 4 0.0000 0.0000 0.0000 21.9452 0.0000 0.0000
# 5 0.0000 0.0000 0.0000 0.0000 46.7612 0.0000
# 6 0.0000 0.0000 0.0000 0.0000 0.0000 15.4831
#
#
#
# Elastic Compliance Matrix: (Units=1/GPa)
#
#
# Indices 1 2 3 4 5 6 
#
# 1 0.010315 -0.003127 -0.004927 0.000000 0.000000 0.000000
# 2 -0.003127 0.014522 -0.001931 0.000000 0.000000 0.000000
# 3 -0.004927 -0.001931 0.010455 0.000000 0.000000 0.000000
# 4 0.000000 0.000000 0.000000 0.045568 0.000000 0.000000
# 5 0.000000 0.000000 0.000000 0.000000 0.021385 0.000000
# 6 0.000000 0.000000 0.000000 0.000000 0.000000 0.064586
#
#
# Mechanical properties :
#
#
# Convention : Reuss Voigt Hill
#
# Bulk Modulus (GPa) = 65.27107 74.77879 70.02493
# Shear Modulus (GPa) = 26.05413 31.08544 28.56979
#
# Velocity S-wave (km/s) = 3.62808 3.96294 3.79920
# Velocity P-wave (km/s) = 7.10821 7.66285 7.39073
#
# Compressibility (1/GPa) = 0.01532072
#
# Stress axis : x y z
#
# Youngs Moduli (GPa) = 96.95066 68.86212 95.64926
#
# Poissons Ratio (x) = 0.21533 0.47131
# Poissons Ratio (y) = 0.30316 0.18468
# Poissons Ratio (z) = 0.47772 0.13296
#
# Static dielectric constant tensor:
#      x y z
#    x 3.545010 0.000000 0.000000 
#    y 0.000000 3.623280 0.000000 
#    z 0.000000 0.000000 3.991880 
# 
# 
# High freq. dielectric constant tensor:
#      x y z
#    x 1.776380 0.000000 0.000000 
#    y 0.000000 1.769610 0.000000 
#    z 0.000000 0.000000 1.780680 
# 
# From -- ./inp_files/11855.got.cif
#   From: 2010.03.12/outbox.cif.g09.slc.cpg/sg65_6_cif.got.tgz:11855.got - 2010.04.10 20:52:16.
