data_PCOD8273170
_publ_section_title
;
Structure prediction by ZEFSAII (Michael W. Deem and Ramdas Pophale) SiO2 
 PCOD8273170
Probable space group: C M M M
;
_chemical_formula_sum "Si O2"
_cell_formula_units_Z 80
_cell_length_a 18.832404
_cell_length_b 9.031122
_cell_length_c 25.028633
_cell_angle_alpha 90.000000
_cell_angle_beta 90.000000
_cell_angle_gamma 90.000000
_cell_volume 4256.813288
_symmetry_space_group_name_H-M "C M M M"
_symmetry_group_IT_number 65
_symmetry_cell_setting 'orthorhombic'
loop_
_space_group_symop_operation_xyz
x,y,z
-x,-y,z
x,-y,-z
-x,y,-z
-x,-y,-z
x,y,-z
-x,y,z
x,-y,z
1/2+x,1/2+y,z
1/2-x,1/2-y,z
1/2+x,1/2-y,-z
1/2-x,1/2+y,-z
1/2-x,1/2-y,-z
1/2+x,1/2+y,-z
1/2-x,1/2+y,z
1/2+x,1/2-y,z
loop_
_atom_site_type_symbol
_atom_site_label
_atom_site_fract_x
_atom_site_fract_y
_atom_site_fract_z
Si Si1 0.918935 0.829833 0.437892
Si Si2 0.325685 0.174444 0.647179
Si Si3 0.081736 0.672416 0.251578
Si Si4 0.916119 0.831513 0.144853
Si Si5 0.177630 0.326943 0.938325
O O1 0.902585 0.806082 0.500000
O O2 0.865743 0.725546 0.405969
O O3 0.000000 0.784534 0.425075
O O4 0.905929 0.000000 0.421699
O O5 0.250000 0.250000 0.651853
O O6 0.372189 0.222747 0.698007
O O7 0.314993 0.000000 0.644310
O O8 0.091164 0.500000 0.238703
O O9 0.110270 0.762926 0.200708
O O10 0.000000 0.711141 0.264329
O O11 0.886453 0.738888 0.095521
O O12 0.000000 0.820015 0.140837
O O13 0.889328 0.000000 0.141546
O O14 0.184695 0.500000 0.927421
O O15 0.250000 0.250000 0.919581
O O16 0.161360 0.291862 0.000000
#
# Coordination Sequence:
#
# PCOD8273170 Si02
#       5
#    16  16  16  16  16
#     4   9  19  37  60  84 110 142 180 222 270 324
#     4  11  23  37  55  81 112 146 183 224 271 320
#     4   9  19  37  58  78 104 140 182 227 273 322
#     4  10  21  36  56  83 112 143 180 222 269 320
#     4  10  21  37  57  80 108 144 183 223 270 323
#
# _framework density 18.793402
#
# number of rings (size 3 to 8) (size 9 to 14) (size 15 to 20)
#    0.000    2.200    0.000    3.000    0.000    7.200 
#    0.000    7.000    0.000    0.000    0.000    0.000 
#    0.000    0.000    0.000    0.000    0.000    0.000 
#
# Total GULP energy -496178.861539 kJ/mol
# GULP energy per Si atom -12404.471538 kJ/mol
# Density = 1.875063 g / cm^3
# Si number density = 18.793402 Si / 1000 Ang^3
#
#
#
# Elastic Constant Matrix: (Units=GPa)
#
#
# Indices 1 2 3 4 5 6 
#
# 1 87.8092 50.5877 61.3554 0.0000 0.0000 0.0000
# 2 50.5877 97.0409 62.0208 0.0000 0.0000 0.0000
# 3 61.3554 62.0208 108.7639 0.0000 0.0000 0.0000
# 4 0.0000 0.0000 0.0000 34.0514 0.0000 0.0000
# 5 0.0000 0.0000 0.0000 0.0000 16.8395 0.0000
# 6 0.0000 0.0000 0.0000 0.0000 0.0000 21.7701
#
#
#
# Elastic Compliance Matrix: (Units=1/GPa)
#
#
# Indices 1 2 3 4 5 6 
#
# 1 0.020304 -0.005136 -0.008525 0.000000 0.000000 0.000000
# 2 -0.005136 0.017513 -0.007089 0.000000 0.000000 0.000000
# 3 -0.008525 -0.007089 0.018046 0.000000 0.000000 0.000000
# 4 0.000000 0.000000 0.000000 0.029367 0.000000 0.000000
# 5 0.000000 0.000000 0.000000 0.000000 0.059384 0.000000
# 6 0.000000 0.000000 0.000000 0.000000 0.000000 0.045934
#
#
# Mechanical properties :
#
#
# Convention : Reuss Voigt Hill
#
# Bulk Modulus (GPa) = 69.62644 71.28241 70.45443
# Shear Modulus (GPa) = 21.11151 22.50889 21.81020
#
# Velocity S-wave (km/s) = 3.35527 3.46454 3.41034
# Velocity P-wave (km/s) = 7.22075 7.34955 7.28543
#
# Compressibility (1/GPa) = 0.01436236
#
# Stress axis : x y z
#
# Youngs Moduli (GPa) = 49.25142 57.09945 55.41407
#
# Poissons Ratio (x) = 0.29326 0.47241
# Poissons Ratio (y) = 0.25295 0.39285
# Poissons Ratio (z) = 0.41987 0.40480
#
# Static dielectric constant tensor:
#      x y z
#    x 3.384540 0.000000 0.000000 
#    y 0.000000 3.518740 0.000000 
#    z 0.000000 0.000000 3.467880 
# 
# 
# High freq. dielectric constant tensor:
#      x y z
#    x 1.726970 0.000000 0.000000 
#    y 0.000000 1.737730 0.000000 
#    z 0.000000 0.000000 1.736960 
# 
# From -- ./inp_files/72808.got.cif
#   From: 2010.03.12/outbox.cif.g09.slc.cpg/sg65_37_cif.got.tgz:72808.got - 2010.04.10 20:52:16.
