data_PCOD8273042
_publ_section_title
;
Structure prediction by ZEFSAII (Michael W. Deem and Ramdas Pophale) SiO2 
 PCOD8273042
Probable space group: C M M M
;
_chemical_formula_sum "Si O2"
_cell_formula_units_Z 96
_cell_length_a 18.810718
_cell_length_b 9.079258
_cell_length_c 30.203390
_cell_angle_alpha 90.000000
_cell_angle_beta 90.000000
_cell_angle_gamma 90.000000
_cell_volume 5158.357298
_symmetry_space_group_name_H-M "C M M M"
_symmetry_group_IT_number 65
_symmetry_cell_setting 'orthorhombic'
loop_
_space_group_symop_operation_xyz
x,y,z
-x,-y,z
x,-y,-z
-x,y,-z
-x,-y,-z
x,y,-z
-x,y,z
x,-y,z
1/2+x,1/2+y,z
1/2-x,1/2-y,z
1/2+x,1/2-y,-z
1/2-x,1/2+y,-z
1/2-x,1/2-y,-z
1/2+x,1/2+y,-z
1/2-x,1/2+y,z
1/2+x,1/2-y,z
loop_
_atom_site_type_symbol
_atom_site_label
_atom_site_fract_x
_atom_site_fract_y
_atom_site_fract_z
Si Si1 0.083249 0.836114 0.115852
Si Si2 0.826309 0.675104 0.710793
Si Si3 0.920594 0.325384 0.371515
Si Si4 0.082030 0.171253 0.782955
Si Si5 0.321459 0.827991 0.949826
Si Si6 0.177298 0.672896 0.449930
O O1 0.101304 0.794054 0.166267
O O2 0.115785 0.718555 0.082553
O O3 0.000000 0.832542 0.108378
O O4 0.112466 0.000000 0.105389
O O5 0.816700 0.500000 0.711445
O O6 0.750000 0.750000 0.707613
O O7 0.872944 0.730359 0.669212
O O8 0.866671 0.725476 0.754786
O O9 0.925597 0.500000 0.370387
O O10 0.885159 0.272240 0.417507
O O11 0.000000 0.257316 0.368239
O O12 0.000000 0.211482 0.773028
O O13 0.095873 0.000000 0.772087
O O14 0.250000 0.750000 0.933652
O O15 0.309309 0.000000 0.946118
O O16 0.340849 0.780849 0.000000
O O17 0.155558 0.715980 0.500000
O O18 0.190035 0.500000 0.445043
O O19 0.250000 0.750000 0.435510
#
# Coordination Sequence:
#
# PCOD8273042 Si02
#       6
#    16  16  16  16  16  16
#     4   9  19  36  57  80 106 137 171 209 256 308
#     4  11  22  35  53  76 103 136 173 213 258 307
#     4   9  18  32  50  74 102 130 166 213 258 302
#     4   9  19  37  58  79 105 135 169 211 257 307
#     4  10  21  36  54  77 106 140 177 217 259 303
#     4   9  17  30  50  74 100 132 167 205 251 301
#
# _framework density 18.610576999999999
#
# number of rings (size 3 to 8) (size 9 to 14) (size 15 to 20)
#    0.000    2.500    0.000    3.000    0.000    4.333 
#    0.000    5.833    0.000    2.500    0.000    2.333 
#    0.000    0.000    0.000    0.000    0.000    0.000 
#
# Total GULP energy -595235.036740 kJ/mol
# GULP energy per Si atom -12400.729932 kJ/mol
# Density = 1.856822 g / cm^3
# Si number density = 18.610577 Si / 1000 Ang^3
#
#
#
# Elastic Constant Matrix: (Units=GPa)
#
#
# Indices 1 2 3 4 5 6 
#
# 1 127.4976 45.2634 79.8097 0.0000 0.0000 0.0000
# 2 45.2634 57.0739 42.0050 0.0000 0.0000 0.0000
# 3 79.8097 42.0050 116.6775 0.0000 0.0000 0.0000
# 4 0.0000 0.0000 0.0000 9.7155 0.0000 0.0000
# 5 0.0000 0.0000 0.0000 0.0000 36.6960 0.0000
# 6 0.0000 0.0000 0.0000 0.0000 0.0000 28.5411
#
#
#
# Elastic Compliance Matrix: (Units=1/GPa)
#
#
# Indices 1 2 3 4 5 6 
#
# 1 0.015062 -0.005935 -0.008166 0.000000 0.000000 0.000000
# 2 -0.005935 0.026176 -0.005364 0.000000 0.000000 0.000000
# 3 -0.008166 -0.005364 0.016087 0.000000 0.000000 0.000000
# 4 0.000000 0.000000 0.000000 0.102928 0.000000 0.000000
# 5 0.000000 0.000000 0.000000 0.000000 0.027251 0.000000
# 6 0.000000 0.000000 0.000000 0.000000 0.000000 0.035037
#
#
# Mechanical properties :
#
#
# Convention : Reuss Voigt Hill
#
# Bulk Modulus (GPa) = 54.36192 70.60060 62.48126
# Shear Modulus (GPa) = 18.68439 23.93525 21.30982
#
# Velocity S-wave (km/s) = 3.17198 3.59013 3.38751
# Velocity P-wave (km/s) = 6.53368 7.42990 6.99616
#
# Compressibility (1/GPa) = 0.01839523
#
# Stress axis : x y z
#
# Youngs Moduli (GPa) = 66.39207 38.20334 62.16085
#
# Poissons Ratio (x) = 0.22675 0.50760
# Poissons Ratio (y) = 0.39405 0.33341
# Poissons Ratio (z) = 0.54216 0.20491
#
# Static dielectric constant tensor:
#      x y z
#    x 3.476240 0.000000 0.000000 
#    y 0.000000 3.329520 0.000000 
#    z 0.000000 0.000000 3.555140 
# 
# 
# High freq. dielectric constant tensor:
#      x y z
#    x 1.723450 0.000000 0.000000 
#    y 0.000000 1.705750 0.000000 
#    z 0.000000 0.000000 1.732500 
# 
# From -- ./inp_files/75343.got.cif
#   From: 2010.03.12/outbox.cif.g09.slc.cpg/sg65_38_cif.got.tgz:75343.got - 2010.04.10 20:52:16.
