data_PCOD8273754
_publ_section_title
;
Structure prediction by ZEFSAII (Michael W. Deem and Ramdas Pophale) SiO2 
 PCOD8273754
Probable space group: C M M M
;
_chemical_formula_sum "Si O2"
_cell_formula_units_Z 88
_cell_length_a 23.567746
_cell_length_b 8.678632
_cell_length_c 22.601433
_cell_angle_alpha 90.000000
_cell_angle_beta 90.000000
_cell_angle_gamma 90.000000
_cell_volume 4622.802058
_symmetry_space_group_name_H-M "C M M M"
_symmetry_group_IT_number 65
_symmetry_cell_setting 'orthorhombic'
loop_
_space_group_symop_operation_xyz
x,y,z
-x,-y,z
x,-y,-z
-x,y,-z
-x,-y,-z
x,y,-z
-x,y,z
x,-y,z
1/2+x,1/2+y,z
1/2-x,1/2-y,z
1/2+x,1/2-y,-z
1/2-x,1/2+y,-z
1/2-x,1/2-y,-z
1/2+x,1/2+y,-z
1/2-x,1/2+y,z
1/2+x,1/2-y,z
loop_
_atom_site_type_symbol
_atom_site_label
_atom_site_fract_x
_atom_site_fract_y
_atom_site_fract_z
Si Si1 0.000000 0.819311 0.314077
Si Si2 0.188738 0.823170 0.433792
Si Si3 0.500000 0.181493 0.186313
Si Si4 0.616443 0.819906 0.667006
Si Si5 0.187968 0.683060 0.218303
Si Si6 0.935401 0.180795 0.000000
Si Si7 0.608293 0.682416 0.125186
O O1 0.000000 0.754803 0.249342
O O2 0.943181 0.762003 0.345658
O O3 0.000000 0.000000 0.314076
O O4 0.162726 0.814303 0.500000
O O5 0.250000 0.750000 0.434029
O O6 0.153062 0.719706 0.389740
O O7 0.191162 0.000000 0.411798
O O8 0.444944 0.236879 0.153613
O O9 0.500000 0.000000 0.192501
O O10 0.647002 0.763951 0.727748
O O11 0.605873 0.000000 0.671278
O O12 0.191653 0.500000 0.213880
O O13 0.250000 0.750000 0.230827
O O14 0.164798 0.750684 0.156027
O O15 0.896815 0.229061 0.943859
O O16 0.000000 0.253991 0.000000
O O17 0.944992 0.000000 0.000000
O O18 0.606156 0.500000 0.134651
#
# Coordination Sequence:
#
# PCOD8273754 Si02
#       7
#     8  16   8  16  16   8  16
#     4  12  24  38  60  88 120 158 196 235 291 352
#     4  10  21  38  61  89 121 158 203 249 292 343
#     4  12  22  35  55  85 122 154 191 238 289 345
#     4  11  23  39  61  89 123 154 192 244 295 349
#     4  11  24  40  59  85 118 152 194 243 291 348
#     4   9  18  34  57  88 117 146 191 241 288 346
#     4  11  21  37  61  86 116 153 194 240 294 348
#
# _framework density 19.036073999999999
#
# number of rings (size 3 to 8) (size 9 to 14) (size 15 to 20)
#    0.000    1.182    2.727    4.364    0.000    4.727 
#    0.000    3.182    0.000    2.727    0.000    0.000 
#    0.000    0.000    0.000    0.000    0.000    0.000 
#
# Total GULP energy -545567.919226 kJ/mol
# GULP energy per Si atom -12399.270891 kJ/mol
# Density = 1.899275 g / cm^3
# Si number density = 19.036074 Si / 1000 Ang^3
#
#
#
# Elastic Constant Matrix: (Units=GPa)
#
#
# Indices 1 2 3 4 5 6 
#
# 1 106.3824 40.7743 43.2511 0.0000 0.0000 0.0000
# 2 40.7743 97.1109 32.3350 0.0000 0.0000 0.0000
# 3 43.2511 32.3350 108.4491 0.0000 0.0000 0.0000
# 4 0.0000 0.0000 0.0000 25.8910 0.0000 0.0000
# 5 0.0000 0.0000 0.0000 0.0000 44.3303 0.0000
# 6 0.0000 0.0000 0.0000 0.0000 0.0000 33.2450
#
#
#
# Elastic Compliance Matrix: (Units=1/GPa)
#
#
# Indices 1 2 3 4 5 6 
#
# 1 0.012461 -0.003972 -0.003786 0.000000 0.000000 0.000000
# 2 -0.003972 0.012698 -0.002202 0.000000 0.000000 0.000000
# 3 -0.003786 -0.002202 0.011387 0.000000 0.000000 0.000000
# 4 0.000000 0.000000 0.000000 0.038623 0.000000 0.000000
# 5 0.000000 0.000000 0.000000 0.000000 0.022558 0.000000
# 6 0.000000 0.000000 0.000000 0.000000 0.000000 0.030080
#
#
# Mechanical properties :
#
#
# Convention : Reuss Voigt Hill
#
# Bulk Modulus (GPa) = 60.13910 60.51813 60.32862
# Shear Modulus (GPa) = 32.62221 33.73205 33.17713
#
# Velocity S-wave (km/s) = 4.14418 4.21409 4.17928
# Velocity P-wave (km/s) = 7.38646 7.45241 7.41951
#
# Compressibility (1/GPa) = 0.01662812
#
# Stress axis : x y z
#
# Youngs Moduli (GPa) = 80.24773 78.75017 87.81745
#
# Poissons Ratio (x) = 0.31277 0.33244
# Poissons Ratio (y) = 0.31872 0.19339
# Poissons Ratio (z) = 0.30378 0.17342
#
# Static dielectric constant tensor:
#      x y z
#    x 3.561160 0.000000 0.000000 
#    y 0.000000 3.605020 0.000000 
#    z 0.000000 0.000000 3.798210 
# 
# 
# High freq. dielectric constant tensor:
#      x y z
#    x 1.737740 0.000000 0.000000 
#    y 0.000000 1.749080 0.000000 
#    z 0.000000 0.000000 1.742860 
# 
# From -- ./inp_files/65257.got.cif
#   From: 2010.03.12/outbox.cif.g09.slc.cpg/sg65_33_cif.got.tgz:65257.got - 2010.04.10 20:52:16.
