data_PCOD8273726
_publ_section_title
;
Structure prediction by ZEFSAII (Michael W. Deem and Ramdas Pophale) SiO2 
 PCOD8273726
Probable space group: C M M M
;
_chemical_formula_sum "Si O2"
_cell_formula_units_Z 96
_cell_length_a 8.816849
_cell_length_b 18.705917
_cell_length_c 30.561395
_cell_angle_alpha 90.000000
_cell_angle_beta 90.000000
_cell_angle_gamma 90.000000
_cell_volume 5040.406699
_symmetry_space_group_name_H-M "C M M M"
_symmetry_group_IT_number 65
_symmetry_cell_setting 'orthorhombic'
loop_
_space_group_symop_operation_xyz
x,y,z
-x,-y,z
x,-y,-z
-x,y,-z
-x,-y,-z
x,y,-z
-x,y,z
x,-y,z
1/2+x,1/2+y,z
1/2-x,1/2-y,z
1/2+x,1/2-y,-z
1/2-x,1/2+y,-z
1/2-x,1/2-y,-z
1/2+x,1/2+y,-z
1/2-x,1/2+y,z
1/2+x,1/2-y,z
loop_
_atom_site_type_symbol
_atom_site_label
_atom_site_fract_x
_atom_site_fract_y
_atom_site_fract_z
Si Si1 0.320954 0.325558 0.951367
Si Si2 0.321710 0.583298 0.621940
Si Si3 0.320953 0.918653 0.217063
Si Si4 0.819979 0.328208 0.299938
Si Si5 0.321191 0.581208 0.128290
Si Si6 0.323332 0.175350 0.448887
O O1 0.500000 0.318338 0.948436
O O2 0.250000 0.250000 0.940398
O O3 0.258426 0.379656 0.914883
O O4 0.272502 0.352052 0.000000
O O5 0.500000 0.597348 0.625411
O O6 0.282118 0.500000 0.626670
O O7 0.235552 0.626790 0.659034
O O8 0.260402 0.610481 0.575329
O O9 0.500000 0.916882 0.213249
O O10 0.263504 0.869152 0.256520
O O11 0.252013 0.886570 0.172304
O O12 0.263259 0.000000 0.225058
O O13 0.750000 0.250000 0.300637
O O14 0.000000 0.322088 0.301720
O O15 0.500000 0.589277 0.132367
O O16 0.268805 0.500000 0.123054
O O17 0.296792 0.162526 0.500000
O O18 0.500000 0.176862 0.436571
O O19 0.250000 0.250000 0.433551
#
# Coordination Sequence:
#
# PCOD8273726 Si02
#       6
#    16  16  16  16  16  16
#     4   9  18  32  49  70  98 132 169 209 254 305
#     4  11  24  40  59  84 114 148 185 227 275 324
#     4   9  19  36  56  77 103 137 174 213 261 315
#     4  11  23  39  59  82 110 143 181 224 269 321
#     4   9  18  32  51  75 101 131 168 211 258 307
#     4  10  21  38  61  87 116 151 189 229 273 322
#
# _framework density 19.046081000000001
#
# number of rings (size 3 to 8) (size 9 to 14) (size 15 to 20)
#    0.000    2.167    0.000    2.500    0.000    6.333 
#    0.000    8.333    0.000    0.000    0.000    4.667 
#    0.000    0.000    0.000    0.000    0.000    0.000 
#
# Total GULP energy -595295.331249 kJ/mol
# GULP energy per Si atom -12401.986068 kJ/mol
# Density = 1.900273 g / cm^3
# Si number density = 19.046081 Si / 1000 Ang^3
#
#
#
# Elastic Constant Matrix: (Units=GPa)
#
#
# Indices 1 2 3 4 5 6 
#
# 1 51.4526 42.1079 38.0432 0.0000 0.0000 0.0000
# 2 42.1079 119.6792 78.7911 0.0000 0.0000 0.0000
# 3 38.0432 78.7911 134.0257 0.0000 0.0000 0.0000
# 4 0.0000 0.0000 0.0000 38.6044 0.0000 0.0000
# 5 0.0000 0.0000 0.0000 0.0000 33.6619 0.0000
# 6 0.0000 0.0000 0.0000 0.0000 0.0000 27.1948
#
#
#
# Elastic Compliance Matrix: (Units=1/GPa)
#
#
# Indices 1 2 3 4 5 6 
#
# 1 0.028296 -0.007615 -0.003555 0.000000 0.000000 0.000000
# 2 -0.007615 0.015681 -0.007057 0.000000 0.000000 0.000000
# 3 -0.003555 -0.007057 0.012619 0.000000 0.000000 0.000000
# 4 0.000000 0.000000 0.000000 0.025904 0.000000 0.000000
# 5 0.000000 0.000000 0.000000 0.000000 0.029707 0.000000
# 6 0.000000 0.000000 0.000000 0.000000 0.000000 0.036772
#
#
# Mechanical properties :
#
#
# Convention : Reuss Voigt Hill
#
# Bulk Modulus (GPa) = 49.64834 69.22686 59.43760
# Shear Modulus (GPa) = 26.02175 29.63991 27.83083
#
# Velocity S-wave (km/s) = 3.70029 3.94918 3.82676
# Velocity P-wave (km/s) = 6.66186 7.56443 7.12744
#
# Compressibility (1/GPa) = 0.02014166
#
# Stress axis : x y z
#
# Youngs Moduli (GPa) = 35.34059 63.77152 79.24572
#
# Poissons Ratio (x) = 0.48564 0.28172
# Poissons Ratio (y) = 0.26913 0.55923
# Poissons Ratio (z) = 0.12563 0.45003
#
# Static dielectric constant tensor:
#      x y z
#    x 3.470340 0.000000 0.000000 
#    y 0.000000 3.531590 0.000000 
#    z 0.000000 0.000000 3.778440 
# 
# 
# High freq. dielectric constant tensor:
#      x y z
#    x 1.740230 0.000000 0.000000 
#    y 0.000000 1.737460 0.000000 
#    z 0.000000 0.000000 1.756380 
# 
# From -- ./inp_files/73181.got.cif
#   From: 2010.03.12/outbox.cif.g09.slc.cpg/sg65_37_cif.got.tgz:73181.got - 2010.04.10 20:52:16.
