data_PCOD8273540
_publ_section_title
;
Structure prediction by ZEFSAII (Michael W. Deem and Ramdas Pophale) SiO2 
 PCOD8273540
Probable space group: C M M M
;
_chemical_formula_sum "Si O2"
_cell_formula_units_Z 56
_cell_length_a 10.348798
_cell_length_b 17.392961
_cell_length_c 15.698623
_cell_angle_alpha 90.000000
_cell_angle_beta 90.000000
_cell_angle_gamma 90.000000
_cell_volume 2825.693113
_symmetry_space_group_name_H-M "C M M M"
_symmetry_group_IT_number 65
_symmetry_cell_setting 'orthorhombic'
loop_
_space_group_symop_operation_xyz
x,y,z
-x,-y,z
x,-y,-z
-x,y,-z
-x,-y,-z
x,y,-z
-x,y,z
x,-y,z
1/2+x,1/2+y,z
1/2-x,1/2-y,z
1/2+x,1/2-y,-z
1/2-x,1/2+y,-z
1/2-x,1/2-y,-z
1/2+x,1/2+y,-z
1/2-x,1/2+y,z
1/2+x,1/2-y,z
loop_
_atom_site_type_symbol
_atom_site_label
_atom_site_fract_x
_atom_site_fract_y
_atom_site_fract_z
Si Si1 0.359239 0.686018 0.000000
Si Si2 0.143317 0.186484 0.500000
Si Si3 0.500000 0.090673 0.904665
Si Si4 0.226169 0.909434 0.155909
Si Si5 0.852496 0.181011 0.685007
O O1 0.250000 0.750000 0.000000
O O2 0.353939 0.632742 0.083028
O O3 0.500000 0.726396 0.000000
O O4 0.250000 0.250000 0.500000
O O5 0.161096 0.141740 0.409870
O O6 0.000000 0.224171 0.500000
O O7 0.374637 0.118071 0.853092
O O8 0.500000 0.000000 0.912928
O O9 0.500000 0.126043 0.000000
O O10 0.175788 0.886293 0.248536
O O11 0.209035 0.000000 0.143744
O O12 0.750000 0.250000 0.697955
O O13 0.000000 0.211598 0.697790
#
# Coordination Sequence:
#
# PCOD8273540 Si02
#       5
#     8   8   8  16  16
#     4  12  27  41  60  86 116 153 192 241 289 337
#     4   8  16  34  57  83 114 150 192 233 286 343
#     4   9  18  36  60  83 107 151 193 230 279 340
#     4  11  23  39  61  86 118 153 193 238 290 348
#     4  10  21  37  60  88 118 153 193 241 289 341
#
# _framework density 19.818145000000001
#
# number of rings (size 3 to 8) (size 9 to 14) (size 15 to 20)
#    0.000    1.857    1.429    2.143    4.000    2.857 
#    0.000    0.714    0.000    2.571    0.000    3.000 
#    0.000    0.000    0.000    0.000    0.000    0.000 
#
# Total GULP energy -346913.791874 kJ/mol
# GULP energy per Si atom -12389.778281 kJ/mol
# Density = 1.977304 g / cm^3
# Si number density = 19.818145 Si / 1000 Ang^3
#
#
#
# Elastic Constant Matrix: (Units=GPa)
#
#
# Indices 1 2 3 4 5 6 
#
# 1 153.7293 38.3948 58.1851 0.0000 0.0000 0.0000
# 2 38.3948 69.1932 47.2343 0.0000 0.0000 0.0000
# 3 58.1851 47.2343 179.6850 0.0000 0.0000 0.0000
# 4 0.0000 0.0000 0.0000 12.0929 0.0000 0.0000
# 5 0.0000 0.0000 0.0000 0.0000 28.8469 0.0000
# 6 0.0000 0.0000 0.0000 0.0000 0.0000 27.3354
#
#
#
# Elastic Compliance Matrix: (Units=1/GPa)
#
#
# Indices 1 2 3 4 5 6 
#
# 1 0.007969 -0.003242 -0.001728 0.000000 0.000000 0.000000
# 2 -0.003242 0.018932 -0.003927 0.000000 0.000000 0.000000
# 3 -0.001728 -0.003927 0.007157 0.000000 0.000000 0.000000
# 4 0.000000 0.000000 0.000000 0.082693 0.000000 0.000000
# 5 0.000000 0.000000 0.000000 0.000000 0.034666 0.000000
# 6 0.000000 0.000000 0.000000 0.000000 0.000000 0.036583
#
#
# Mechanical properties :
#
#
# Convention : Reuss Voigt Hill
#
# Bulk Modulus (GPa) = 61.48675 76.69288 69.08981
# Shear Modulus (GPa) = 23.67259 30.90793 27.29026
#
# Velocity S-wave (km/s) = 3.45989 3.95343 3.71487
# Velocity P-wave (km/s) = 6.85959 7.72152 7.30328
#
# Compressibility (1/GPa) = 0.01626367
#
# Stress axis : x y z
#
# Youngs Moduli (GPa) = 125.49002 52.82080 139.72011
#
# Poissons Ratio (x) = 0.17125 0.24146
# Poissons Ratio (y) = 0.40685 0.54866
# Poissons Ratio (z) = 0.21687 0.20742
#
# Static dielectric constant tensor:
#      x y z
#    x 4.081010 0.000000 0.000000 
#    y 0.000000 3.158890 0.000000 
#    z 0.000000 0.000000 4.194700 
# 
# 
# High freq. dielectric constant tensor:
#      x y z
#    x 1.799190 0.000000 0.000000 
#    y 0.000000 1.727070 0.000000 
#    z 0.000000 0.000000 1.789840 
# 
# From -- ./inp_files/35568.got.cif
#   From: 2010.03.12/outbox.cif.g09.slc.cpg/sg65_18_cif.got.tgz:35568.got - 2010.04.10 20:52:16.
