data_PCOD8273336
_publ_section_title
;
Structure prediction by ZEFSAII (Michael W. Deem and Ramdas Pophale) SiO2 
 PCOD8273336
Probable space group: C M M M
;
_chemical_formula_sum "Si O2"
_cell_formula_units_Z 88
_cell_length_a 16.282990
_cell_length_b 8.803551
_cell_length_c 29.391831
_cell_angle_alpha 90.000000
_cell_angle_beta 90.000000
_cell_angle_gamma 90.000000
_cell_volume 4213.264096
_symmetry_space_group_name_H-M "C M M M"
_symmetry_group_IT_number 65
_symmetry_cell_setting 'orthorhombic'
loop_
_space_group_symop_operation_xyz
x,y,z
-x,-y,z
x,-y,-z
-x,y,-z
-x,-y,-z
x,y,-z
-x,y,z
x,-y,z
1/2+x,1/2+y,z
1/2-x,1/2-y,z
1/2+x,1/2-y,-z
1/2-x,1/2+y,-z
1/2-x,1/2-y,-z
1/2+x,1/2+y,-z
1/2-x,1/2+y,z
1/2+x,1/2-y,z
loop_
_atom_site_type_symbol
_atom_site_label
_atom_site_fract_x
_atom_site_fract_y
_atom_site_fract_z
Si Si1 0.664555 0.678841 0.728036
Si Si2 0.164250 0.819750 0.897063
Si Si3 0.500000 0.319641 0.948398
Si Si4 0.906792 0.674741 0.811439
Si Si5 0.663036 0.821456 0.450291
Si Si6 0.593528 0.826308 0.643133
O O1 0.665874 0.500000 0.733767
O O2 0.750000 0.750000 0.743606
O O3 0.597045 0.751745 0.761321
O O4 0.646899 0.720108 0.675667
O O5 0.250000 0.750000 0.916305
O O6 0.152794 0.765930 0.845206
O O7 0.084534 0.759690 0.925199
O O8 0.171218 0.000000 0.899457
O O9 0.500000 0.500000 0.945760
O O10 0.500000 0.260206 0.000000
O O11 0.878678 0.500000 0.809454
O O12 0.000000 0.689457 0.828845
O O13 0.629768 0.765727 0.500000
O O14 0.750000 0.750000 0.439115
O O15 0.602374 0.773526 0.409484
O O16 0.674421 0.000000 0.451468
O O17 0.500000 0.808337 0.657642
O O18 0.623522 0.000000 0.649054
#
# Coordination Sequence:
#
# PCOD8273336 Si02
#       6
#    16  16   8  16  16  16
#     4  12  25  40  59  83 114 151 195 241 292 353
#     4  11  22  39  64  94 129 169 215 262 314 372
#     4   9  20  40  65  93 129 173 217 263 316 373
#     4  11  23  40  63  90 123 159 200 250 304 361
#     4   9  18  33  54  79 106 140 182 227 277 335
#     4  10  21  37  56  80 112 147 185 232 287 344
#
# _framework density 20.886419
#
# number of rings (size 3 to 8) (size 9 to 14) (size 15 to 20)
#    0.000    1.545    0.909    4.364    0.000    6.545 
#    0.000    1.818    0.000    3.818    0.000    3.818 
#    0.000    0.000    0.000    0.000    0.000    0.000 
#
# Total GULP energy -545608.240435 kJ/mol
# GULP energy per Si atom -12400.187283 kJ/mol
# Density = 2.083888 g / cm^3
# Si number density = 20.886419 Si / 1000 Ang^3
#
#
#
# Elastic Constant Matrix: (Units=GPa)
#
#
# Indices 1 2 3 4 5 6 
#
# 1 111.9316 43.4634 46.1609 0.0000 0.0000 0.0000
# 2 43.4634 92.0334 36.1028 0.0000 0.0000 0.0000
# 3 46.1609 36.1028 118.1867 0.0000 0.0000 0.0000
# 4 0.0000 0.0000 0.0000 24.0369 0.0000 0.0000
# 5 0.0000 0.0000 0.0000 0.0000 34.1762 0.0000
# 6 0.0000 0.0000 0.0000 0.0000 0.0000 31.1077
#
#
#
# Elastic Compliance Matrix: (Units=1/GPa)
#
#
# Indices 1 2 3 4 5 6 
#
# 1 0.012011 -0.004354 -0.003361 0.000000 0.000000 0.000000
# 2 -0.004354 0.013923 -0.002553 0.000000 0.000000 0.000000
# 3 -0.003361 -0.002553 0.010554 0.000000 0.000000 0.000000
# 4 0.000000 0.000000 0.000000 0.041603 0.000000 0.000000
# 5 0.000000 0.000000 0.000000 0.000000 0.029260 0.000000
# 6 0.000000 0.000000 0.000000 0.000000 0.000000 0.032146
#
#
# Mechanical properties :
#
#
# Convention : Reuss Voigt Hill
#
# Bulk Modulus (GPa) = 62.68604 63.73400 63.21002
# Shear Modulus (GPa) = 30.23902 30.95912 30.59907
#
# Velocity S-wave (km/s) = 3.80910 3.85419 3.83171
# Velocity P-wave (km/s) = 7.03020 7.09839 7.06438
#
# Compressibility (1/GPa) = 0.01595252
#
# Stress axis : x y z
#
# Youngs Moduli (GPa) = 83.25901 71.82354 94.75292
#
# Poissons Ratio (x) = 0.31269 0.31848
# Poissons Ratio (y) = 0.36248 0.24187
# Poissons Ratio (z) = 0.27985 0.18334
#
# Static dielectric constant tensor:
#      x y z
#    x 3.774910 0.000000 0.000000 
#    y 0.000000 3.582300 0.000000 
#    z 0.000000 0.000000 3.904960 
# 
# 
# High freq. dielectric constant tensor:
#      x y z
#    x 1.818960 0.000000 0.000000 
#    y 0.000000 1.804630 0.000000 
#    z 0.000000 0.000000 1.824040 
# 
# From -- ./inp_files/77793.got.cif
#   From: 2010.03.12/outbox.cif.g09.slc.cpg/sg65_39_cif.got.tgz:77793.got - 2010.04.10 20:52:16.
