data_PCOD8273264
_publ_section_title
;
Structure prediction by ZEFSAII (Michael W. Deem and Ramdas Pophale) SiO2 
 PCOD8273264
Probable space group: C M M M
;
_chemical_formula_sum "Si O2"
_cell_formula_units_Z 72
_cell_length_a 17.877862
_cell_length_b 8.761765
_cell_length_c 23.659637
_cell_angle_alpha 90.000000
_cell_angle_beta 90.000000
_cell_angle_gamma 90.000000
_cell_volume 3706.084000
_symmetry_space_group_name_H-M "C M M M"
_symmetry_group_IT_number 65
_symmetry_cell_setting 'orthorhombic'
loop_
_space_group_symop_operation_xyz
x,y,z
-x,-y,z
x,-y,-z
-x,y,-z
-x,-y,-z
x,y,-z
-x,y,z
x,-y,z
1/2+x,1/2+y,z
1/2-x,1/2-y,z
1/2+x,1/2-y,-z
1/2-x,1/2+y,-z
1/2-x,1/2-y,-z
1/2+x,1/2+y,-z
1/2-x,1/2+y,z
1/2+x,1/2-y,z
loop_
_atom_site_type_symbol
_atom_site_label
_atom_site_fract_x
_atom_site_fract_y
_atom_site_fract_z
Si Si1 0.414037 0.820319 0.207492
Si Si2 0.088407 0.327146 0.000000
Si Si3 0.668885 0.179794 0.440373
Si Si4 0.668865 0.820403 0.318514
Si Si5 0.831002 0.819619 0.103849
O O1 0.500000 0.773367 0.199404
O O2 0.388778 0.769231 0.270159
O O3 0.363096 0.728824 0.164130
O O4 0.402555 0.000000 0.197432
O O5 0.114565 0.239995 0.944507
O O6 0.119838 0.500000 0.000000
O O7 0.000000 0.328284 0.000000
O O8 0.626928 0.228610 0.500000
O O9 0.750000 0.250000 0.441828
O O10 0.632996 0.230202 0.379934
O O11 0.677397 0.000000 0.440038
O O12 0.750000 0.750000 0.307506
O O13 0.680389 0.000000 0.316509
O O14 0.750000 0.750000 0.093987
O O15 0.825147 0.000000 0.100644
#
# Coordination Sequence:
#
# PCOD8273264 Si02
#       5
#    16   8  16  16  16
#     4  10  21  37  55  76 106 143 181 222 271 324
#     4  11  24  43  66  91 121 153 182 215 260 311
#     4   8  13  22  38  62  92 124 161 208 260 312
#     4   9  17  29  47  71  98 131 171 216 266 318
#     4  12  25  41  62  87 115 145 182 225 267 313
#
# _framework density 19.427515
#
# number of rings (size 3 to 8) (size 9 to 14) (size 15 to 20)
#    0.000    2.111    0.000    4.000    0.000    6.667 
#    0.000    0.000    0.000    0.667    0.000    4.667 
#    0.000    0.000    0.000   38.000    0.000   19.111 
#
# Total GULP energy -446020.404889 kJ/mol
# GULP energy per Si atom -12389.455691 kJ/mol
# Density = 1.938330 g / cm^3
# Si number density = 19.427515 Si / 1000 Ang^3
#
#
#
# Elastic Constant Matrix: (Units=GPa)
#
#
# Indices 1 2 3 4 5 6 
#
# 1 61.9836 25.7614 27.5282 0.0000 0.0000 0.0000
# 2 25.7614 72.8715 42.9741 0.0000 0.0000 0.0000
# 3 27.5282 42.9741 157.1671 0.0000 0.0000 0.0000
# 4 0.0000 0.0000 0.0000 -34.4512 0.0000 0.0000
# 5 0.0000 0.0000 0.0000 0.0000 12.7219 0.0000
# 6 0.0000 0.0000 0.0000 0.0000 0.0000 21.6606
#
#
#
# Elastic Compliance Matrix: (Units=1/GPa)
#
#
# Indices 1 2 3 4 5 6 
#
# 1 0.019334 -0.005768 -0.001809 0.000000 0.000000 0.000000
# 2 -0.005768 0.018082 -0.003934 0.000000 0.000000 0.000000
# 3 -0.001809 -0.003934 0.007755 0.000000 0.000000 0.000000
# 4 0.000000 0.000000 0.000000 -0.029027 0.000000 0.000000
# 5 0.000000 0.000000 0.000000 0.000000 0.078605 0.000000
# 6 0.000000 0.000000 0.000000 0.000000 0.000000 0.046167
#
#
# Mechanical properties :
#
#
# Convention : Reuss Voigt Hill
#
# Bulk Modulus (GPa) = 45.14900 53.83883 49.49392
# Shear Modulus (GPa) = 29.18497 13.03683 21.11090
#
# Velocity S-wave (km/s) = 3.88009 2.59327 3.30001
# Velocity P-wave (km/s) = 6.58511 6.06132 6.32863
#
# Compressibility (1/GPa) = 0.02214888
#
# Stress axis : x y z
#
# Youngs Moduli (GPa) = 51.72207 55.30442 128.94626
#
# Poissons Ratio (x) = 0.31900 0.23330
# Poissons Ratio (y) = 0.29833 0.50725
# Poissons Ratio (z) = 0.09358 0.21756
#
# Static dielectric constant tensor:
#      x y z
#    x 3.282240 0.000000 0.000000 
#    y 0.000000 3.543360 0.000000 
#    z 0.000000 0.000000 4.536080 
# 
# 
# High freq. dielectric constant tensor:
#      x y z
#    x 1.721950 0.000000 0.000000 
#    y 0.000000 1.750670 0.000000 
#    z 0.000000 0.000000 1.793900 
# 
# From -- ./inp_files/64314.got.cif
#   From: 2010.03.12/outbox.cif.g09.slc.cpg/sg65_33_cif.got.tgz:64314.got - 2010.04.10 20:52:16.
