data_PCOD8273891
_publ_section_title
;
Structure prediction by ZEFSAII (Michael W. Deem and Ramdas Pophale) SiO2 
 PCOD8273891
Probable space group: C M M M
;
_chemical_formula_sum "Si O2"
_cell_formula_units_Z 40
_cell_length_a 7.287713
_cell_length_b 28.691909
_cell_length_c 9.689447
_cell_angle_alpha 90.000000
_cell_angle_beta 90.000000
_cell_angle_gamma 90.000000
_cell_volume 2026.047847
_symmetry_space_group_name_H-M "C M M M"
_symmetry_group_IT_number 65
_symmetry_cell_setting 'orthorhombic'
loop_
_space_group_symop_operation_xyz
x,y,z
-x,-y,z
x,-y,-z
-x,y,-z
-x,-y,-z
x,y,-z
-x,y,z
x,-y,z
1/2+x,1/2+y,z
1/2-x,1/2-y,z
1/2+x,1/2-y,-z
1/2-x,1/2+y,-z
1/2-x,1/2-y,-z
1/2+x,1/2+y,-z
1/2-x,1/2+y,z
1/2+x,1/2-y,z
loop_
_atom_site_type_symbol
_atom_site_label
_atom_site_fract_x
_atom_site_fract_y
_atom_site_fract_z
Si Si1 0.297971 0.554246 0.000000
Si Si2 0.211628 0.196220 0.156868
Si Si3 0.000000 0.647352 0.656362
Si Si4 0.000000 0.554211 0.222078
O O1 0.181798 0.566966 0.864924
O O2 0.331488 0.500000 0.000000
O O3 0.500000 0.579287 0.000000
O O4 0.250000 0.250000 0.187253
O O5 0.320857 0.165336 0.265279
O O6 0.000000 0.184900 0.179429
O O7 0.272611 0.183844 0.000000
O O8 0.000000 0.590586 0.651860
O O9 0.000000 0.665791 0.500000
O O10 0.000000 0.500000 0.270480
#
# Coordination Sequence:
#
# PCOD8273891 Si02
#       4
#     8  16   8   8
#     4   8  15  31  58  87 111 143 195 258 309 338
#     4  10  21  41  67  90 116 154 202 253 301 356
#     4  12  26  39  58  90 128 166 201 243 301 364
#     4   9  20  37  56  84 120 158 204 247 292 356
#
# _framework density 19.74287
#
# number of rings (size 3 to 8) (size 9 to 14) (size 15 to 20)
#    0.000    2.200    2.000    1.800    5.600    3.600 
#    0.000    0.000    0.000    0.000    0.000    8.400 
#    0.000    0.000    0.000    0.000    0.000    0.000 
#
# Total GULP energy -247898.919964 kJ/mol
# GULP energy per Si atom -12394.945998 kJ/mol
# Density = 1.969793 g / cm^3
# Si number density = 19.742870 Si / 1000 Ang^3
#
#
#
# Elastic Constant Matrix: (Units=GPa)
#
#
# Indices 1 2 3 4 5 6 
#
# 1 136.7536 40.1265 45.5496 0.0000 0.0000 0.0000
# 2 40.1265 95.1688 66.7311 0.0000 0.0000 0.0000
# 3 45.5496 66.7311 112.2671 0.0000 0.0000 0.0000
# 4 0.0000 0.0000 0.0000 19.9061 0.0000 0.0000
# 5 0.0000 0.0000 0.0000 0.0000 4.1347 0.0000
# 6 0.0000 0.0000 0.0000 0.0000 0.0000 14.5114
#
#
#
# Elastic Compliance Matrix: (Units=1/GPa)
#
#
# Indices 1 2 3 4 5 6 
#
# 1 0.008680 -0.002041 -0.002309 0.000000 0.000000 0.000000
# 2 -0.002041 0.018497 -0.010166 0.000000 0.000000 0.000000
# 3 -0.002309 -0.010166 0.015887 0.000000 0.000000 0.000000
# 4 0.000000 0.000000 0.000000 0.050236 0.000000 0.000000
# 5 0.000000 0.000000 0.000000 0.000000 0.241853 0.000000
# 6 0.000000 0.000000 0.000000 0.000000 0.000000 0.068911
#
#
# Mechanical properties :
#
#
# Convention : Reuss Voigt Hill
#
# Bulk Modulus (GPa) = 71.26656 72.11156 71.68906
# Shear Modulus (GPa) = 11.42144 20.49592 15.95868
#
# Velocity S-wave (km/s) = 2.40783 3.22552 2.84619
# Velocity P-wave (km/s) = 6.62616 7.10469 6.86959
#
# Compressibility (1/GPa) = 0.01403183
#
# Stress axis : x y z
#
# Youngs Moduli (GPa) = 115.20371 54.06370 62.94573
#
# Poissons Ratio (x) = 0.11036 0.14531
# Poissons Ratio (y) = 0.23515 0.63992
# Poissons Ratio (z) = 0.26595 0.54962
#
# Static dielectric constant tensor:
#      x y z
#    x 4.369170 0.000000 0.000000 
#    y 0.000000 3.655210 0.000000 
#    z 0.000000 0.000000 3.218470 
# 
# 
# High freq. dielectric constant tensor:
#      x y z
#    x 1.784000 0.000000 0.000000 
#    y 0.000000 1.779160 0.000000 
#    z 0.000000 0.000000 1.727630 
# 
# From -- ./inp_files/2694.got.cif
#   From: 2010.03.12/outbox.cif.g09.slc.cpg/sg65_2_cif.got.tgz:2694.got - 2010.04.10 20:52:16.
