data_PCOD8273519
_publ_section_title
;
Structure prediction by ZEFSAII (Michael W. Deem and Ramdas Pophale) SiO2 
 PCOD8273519
Probable space group: C M M M
;
_chemical_formula_sum "Si O2"
_cell_formula_units_Z 96
_cell_length_a 20.024401
_cell_length_b 15.468244
_cell_length_c 14.472174
_cell_angle_alpha 90.000000
_cell_angle_beta 90.000000
_cell_angle_gamma 90.000000
_cell_volume 4482.644759
_symmetry_space_group_name_H-M "C M M M"
_symmetry_group_IT_number 65
_symmetry_cell_setting 'orthorhombic'
loop_
_space_group_symop_operation_xyz
x,y,z
-x,-y,z
x,-y,-z
-x,y,-z
-x,-y,-z
x,y,-z
-x,y,z
x,-y,z
1/2+x,1/2+y,z
1/2-x,1/2-y,z
1/2+x,1/2-y,-z
1/2-x,1/2+y,-z
1/2-x,1/2-y,-z
1/2+x,1/2+y,-z
1/2-x,1/2+y,z
1/2+x,1/2-y,z
loop_
_atom_site_type_symbol
_atom_site_label
_atom_site_fract_x
_atom_site_fract_y
_atom_site_fract_z
Si Si1 0.183477 0.297373 0.602543
Si Si2 0.000000 0.790084 0.895871
Si Si3 0.609358 0.596889 0.200640
Si Si4 0.144281 0.597960 0.768843
Si Si5 0.422396 0.349721 0.397653
Si Si6 0.500000 0.900117 0.161931
Si Si7 0.244759 0.101755 0.897800
O O1 0.195890 0.334160 0.500000
O O2 0.250000 0.250000 0.637635
O O3 0.169212 0.376558 0.668546
O O4 0.118463 0.238162 0.605791
O O5 0.936574 0.828200 0.841826
O O6 0.000000 0.684398 0.904379
O O7 0.000000 0.826031 0.000000
O O8 0.590819 0.500000 0.164283
O O9 0.603313 0.592052 0.312450
O O10 0.683330 0.623801 0.169886
O O11 0.164115 0.500000 0.778662
O O12 0.187913 0.642609 0.851089
O O13 0.065303 0.612428 0.776065
O O14 0.411821 0.393733 0.500000
O O15 0.500000 0.327765 0.382840
O O16 0.500000 0.000000 0.117440
O O17 0.251029 0.000000 0.910825
O O18 0.235661 0.143678 0.000000
#
# Coordination Sequence:
#
# PCOD8273519 Si02
#       7
#    16   8  16  16  16   8  16
#     4  10  21  37  59  88 124 165 207 255 312 371
#     4  12  25  39  59  89 124 164 209 256 312 374
#     4  11  22  38  62  93 128 165 202 251 311 377
#     4  10  21  38  62  90 119 156 205 265 323 374
#     4  10  21  37  59  86 120 166 211 247 295 363
#     4  10  24  44  64  88 120 160 214 272 319 364
#     4   9  19  37  60  86 120 161 202 247 310 386
#
# _framework density 21.415927
#
# number of rings (size 3 to 8) (size 9 to 14) (size 15 to 20)
#    0.000    1.833    0.833    2.750    1.167    2.833 
#    0.000    2.500    0.000   13.000    0.000    0.000 
#    0.000    0.000    0.000    0.000    0.000    0.000 
#
# Total GULP energy -594681.497263 kJ/mol
# GULP energy per Si atom -12389.197860 kJ/mol
# Density = 2.136718 g / cm^3
# Si number density = 21.415927 Si / 1000 Ang^3
#
#
#
# Elastic Constant Matrix: (Units=GPa)
#
#
# Indices 1 2 3 4 5 6 
#
# 1 164.8549 29.8255 74.1702 0.0000 0.0000 0.0000
# 2 29.8255 54.1147 33.4601 0.0000 0.0000 0.0000
# 3 74.1702 33.4601 153.6209 0.0000 0.0000 0.0000
# 4 0.0000 0.0000 0.0000 -12.3518 0.0000 0.0000
# 5 0.0000 0.0000 0.0000 0.0000 13.5696 0.0000
# 6 0.0000 0.0000 0.0000 0.0000 0.0000 17.8064
#
#
#
# Elastic Compliance Matrix: (Units=1/GPa)
#
#
# Indices 1 2 3 4 5 6 
#
# 1 0.007997 -0.002335 -0.003352 0.000000 0.000000 0.000000
# 2 -0.002335 0.022037 -0.003673 0.000000 0.000000 0.000000
# 3 -0.003352 -0.003673 0.008928 0.000000 0.000000 0.000000
# 4 0.000000 0.000000 0.000000 -0.080960 0.000000 0.000000
# 5 0.000000 0.000000 0.000000 0.000000 0.073694 0.000000
# 6 0.000000 0.000000 0.000000 0.000000 0.000000 0.056160
#
#
# Mechanical properties :
#
#
# Convention : Reuss Voigt Hill
#
# Bulk Modulus (GPa) = 49.40154 71.94469 60.67311
# Shear Modulus (GPa) = 44.12199 19.48048 31.80123
#
# Velocity S-wave (km/s) = 4.54391 3.01927 3.85766
# Velocity P-wave (km/s) = 7.11669 6.76917 6.94510
#
# Compressibility (1/GPa) = 0.02024229
#
# Stress axis : x y z
#
# Youngs Moduli (GPa) = 125.05361 45.37857 112.00657
#
# Poissons Ratio (x) = 0.10594 0.37549
# Poissons Ratio (y) = 0.29194 0.41137
# Poissons Ratio (z) = 0.41923 0.16666
#
# Static dielectric constant tensor:
#      x y z
#    x 4.037260 0.000000 0.000000 
#    y 0.000000 3.624780 0.000000 
#    z 0.000000 0.000000 4.131500 
# 
# 
# High freq. dielectric constant tensor:
#      x y z
#    x 1.856510 0.000000 0.000000 
#    y 0.000000 1.814260 0.000000 
#    z 0.000000 0.000000 1.845610 
# 
# From -- ./inp_files/44194.got.cif
#   From: 2010.03.12/outbox.cif.g09.slc.cpg/sg65_23_cif.got.tgz:44194.got - 2010.04.10 20:52:16.
