data_PCOD8273225
_publ_section_title
;
Structure prediction by ZEFSAII (Michael W. Deem and Ramdas Pophale) SiO2 
 PCOD8273225
Probable space group: C M M M
;
_chemical_formula_sum "Si O2"
_cell_formula_units_Z 64
_cell_length_a 8.915597
_cell_length_b 28.625871
_cell_length_c 11.810354
_cell_angle_alpha 90.000000
_cell_angle_beta 90.000000
_cell_angle_gamma 90.000000
_cell_volume 3014.199923
_symmetry_space_group_name_H-M "C M M M"
_symmetry_group_IT_number 65
_symmetry_cell_setting 'orthorhombic'
loop_
_space_group_symop_operation_xyz
x,y,z
-x,-y,z
x,-y,-z
-x,y,-z
-x,-y,-z
x,y,-z
-x,y,z
x,-y,z
1/2+x,1/2+y,z
1/2-x,1/2-y,z
1/2+x,1/2-y,-z
1/2-x,1/2+y,-z
1/2-x,1/2-y,-z
1/2+x,1/2+y,-z
1/2-x,1/2+y,z
1/2+x,1/2-y,z
loop_
_atom_site_type_symbol
_atom_site_label
_atom_site_fract_x
_atom_site_fract_y
_atom_site_fract_z
Si Si1 0.664722 0.651724 0.000000
Si Si2 0.673842 0.633743 0.631020
Si Si3 0.834040 0.447660 0.248099
Si Si4 0.260921 0.551014 0.000000
Si Si5 0.821829 0.300278 0.794261
O O1 0.760127 0.665709 0.109078
O O2 0.500000 0.676017 0.000000
O O3 0.631420 0.596087 0.000000
O O4 0.711027 0.626572 0.500000
O O5 0.500000 0.645295 0.652128
O O6 0.712366 0.586478 0.697600
O O7 0.771671 0.677499 0.674987
O O8 0.793314 0.500000 0.288504
O O9 0.839916 0.445456 0.112096
O O10 0.000000 0.433323 0.291022
O O11 0.345836 0.500000 0.000000
O O12 0.750000 0.250000 0.811106
O O13 0.000000 0.296552 0.801477
#
# Coordination Sequence:
#
# PCOD8273225 Si02
#       5
#     8  16  16   8  16
#     4  12  24  41  67 100 139 173 211 259 315 383
#     4  11  25  44  65  92 128 170 217 269 324 383
#     4  10  21  38  63  95 132 172 215 264 319 383
#     4  10  21  36  63 101 138 172 207 254 312 379
#     4  12  26  45  70  97 129 167 212 265 324 385
#
# _framework density 21.232831999999998
#
# number of rings (size 3 to 8) (size 9 to 14) (size 15 to 20)
#    0.000    1.000    2.500    4.125    0.000    6.250 
#    0.000    5.000    0.000    0.000    0.000    0.000 
#    0.000    0.000    0.000    0.000    0.000    0.000 
#
# Total GULP energy -396753.267034 kJ/mol
# GULP energy per Si atom -12398.539595 kJ/mol
# Density = 2.118451 g / cm^3
# Si number density = 21.232832 Si / 1000 Ang^3
#
#
#
# Elastic Constant Matrix: (Units=GPa)
#
#
# Indices 1 2 3 4 5 6 
#
# 1 149.5229 50.8739 47.4036 0.0000 0.0000 0.0000
# 2 50.8739 144.5857 46.8937 0.0000 0.0000 0.0000
# 3 47.4036 46.8937 115.4263 0.0000 0.0000 0.0000
# 4 0.0000 0.0000 0.0000 17.7138 0.0000 0.0000
# 5 0.0000 0.0000 0.0000 0.0000 17.2003 0.0000
# 6 0.0000 0.0000 0.0000 0.0000 0.0000 33.0699
#
#
#
# Elastic Compliance Matrix: (Units=1/GPa)
#
#
# Indices 1 2 3 4 5 6 
#
# 1 0.008190 -0.002063 -0.002526 0.000000 0.000000 0.000000
# 2 -0.002063 0.008485 -0.002600 0.000000 0.000000 0.000000
# 3 -0.002526 -0.002600 0.010757 0.000000 0.000000 0.000000
# 4 0.000000 0.000000 0.000000 0.056453 0.000000 0.000000
# 5 0.000000 0.000000 0.000000 0.000000 0.058139 0.000000
# 6 0.000000 0.000000 0.000000 0.000000 0.000000 0.030239
#
#
# Mechanical properties :
#
#
# Convention : Reuss Voigt Hill
#
# Bulk Modulus (GPa) = 76.59408 77.76415 77.17911
# Shear Modulus (GPa) = 26.17898 31.22106 28.70002
#
# Velocity S-wave (km/s) = 3.51515 3.83876 3.68051
# Velocity P-wave (km/s) = 7.25443 7.50680 7.38169
#
# Compressibility (1/GPa) = 0.01305584
#
# Stress axis : x y z
#
# Youngs Moduli (GPa) = 122.09283 117.84887 92.96140
#
# Poissons Ratio (x) = 0.24309 0.23479
# Poissons Ratio (y) = 0.25185 0.24172
# Poissons Ratio (z) = 0.30837 0.30643
#
# Static dielectric constant tensor:
#      x y z
#    x 3.701560 0.000000 0.000000 
#    y 0.000000 4.034770 0.000000 
#    z 0.000000 0.000000 3.848130 
# 
# 
# High freq. dielectric constant tensor:
#      x y z
#    x 1.832070 0.000000 0.000000 
#    y 0.000000 1.847040 0.000000 
#    z 0.000000 0.000000 1.826840 
# 
# From -- ./inp_files/20953.got.cif
#   From: 2010.03.12/outbox.cif.g09.slc.cpg/sg65_11_cif.got.tgz:20953.got - 2010.04.10 20:52:16.
