data_PCOD8273684
_publ_section_title
;
Structure prediction by ZEFSAII (Michael W. Deem and Ramdas Pophale) SiO2 
 PCOD8273684
Probable space group: C M M M
;
_chemical_formula_sum "Si O2"
_cell_formula_units_Z 88
_cell_length_a 8.811819
_cell_length_b 20.469393
_cell_length_c 24.355332
_cell_angle_alpha 90.000000
_cell_angle_beta 90.000000
_cell_angle_gamma 90.000000
_cell_volume 4393.034220
_symmetry_space_group_name_H-M "C M M M"
_symmetry_group_IT_number 65
_symmetry_cell_setting 'orthorhombic'
loop_
_space_group_symop_operation_xyz
x,y,z
-x,-y,z
x,-y,-z
-x,y,-z
-x,-y,-z
x,y,-z
-x,y,z
x,-y,z
1/2+x,1/2+y,z
1/2-x,1/2-y,z
1/2+x,1/2-y,-z
1/2-x,1/2+y,-z
1/2-x,1/2-y,-z
1/2+x,1/2+y,-z
1/2-x,1/2+y,z
1/2+x,1/2-y,z
loop_
_atom_site_type_symbol
_atom_site_label
_atom_site_fract_x
_atom_site_fract_y
_atom_site_fract_z
Si Si1 0.169266 0.500000 0.435324
Si Si2 0.678938 0.366802 0.436959
Si Si3 0.176243 0.425602 0.147273
Si Si4 0.678845 0.185095 0.665221
Si Si5 0.677139 0.424941 0.737661
Si Si6 0.321049 0.817047 0.937940
O O1 0.152302 0.500000 0.500000
O O2 0.264446 0.562517 0.416674
O O3 0.000000 0.500000 0.408742
O O4 0.724638 0.352405 0.500000
O O5 0.500000 0.362907 0.428413
O O6 0.762720 0.315391 0.397854
O O7 0.204488 0.500000 0.127806
O O8 0.274218 0.408581 0.200513
O O9 0.232506 0.377940 0.098936
O O10 0.000000 0.414159 0.161571
O O11 0.500000 0.190226 0.666742
O O12 0.750000 0.250000 0.693186
O O13 0.731277 0.120499 0.696417
O O14 0.500000 0.410673 0.731075
O O15 0.717163 0.500000 0.723425
O O16 0.500000 0.809417 0.936006
O O17 0.250000 0.750000 0.914822
O O18 0.263910 0.830196 0.000000
#
# Coordination Sequence:
#
# PCOD8273684 Si02
#       6
#     8  16  16  16  16  16
#     4   9  17  31  53  83 115 147 187 231 274 325
#     4  10  21  38  60  86 118 154 191 234 286 344
#     4   9  18  34  56  82 112 147 191 240 288 339
#     4  12  26  43  63  87 118 152 193 240 291 351
#     4  10  22  41  64  88 116 151 192 239 293 351
#     4   9  18  32  51  78 113 153 194 236 284 338
#
# _framework density 20.031714000000001
#
# number of rings (size 3 to 8) (size 9 to 14) (size 15 to 20)
#    0.000    2.091    0.000    3.000    1.273    5.455 
#    0.000    3.636    0.000    0.000    0.000    5.091 
#    0.000    0.000    0.000    0.000    0.000    0.000 
#
# Total GULP energy -545678.925622 kJ/mol
# GULP energy per Si atom -12401.793764 kJ/mol
# Density = 1.998612 g / cm^3
# Si number density = 20.031714 Si / 1000 Ang^3
#
#
#
# Elastic Constant Matrix: (Units=GPa)
#
#
# Indices 1 2 3 4 5 6 
#
# 1 113.3435 55.7679 46.4717 0.0000 0.0000 0.0000
# 2 55.7679 123.7630 69.8937 0.0000 0.0000 0.0000
# 3 46.4717 69.8937 92.5708 0.0000 0.0000 0.0000
# 4 0.0000 0.0000 0.0000 32.3927 0.0000 0.0000
# 5 0.0000 0.0000 0.0000 0.0000 30.0175 0.0000
# 6 0.0000 0.0000 0.0000 0.0000 0.0000 35.5090
#
#
#
# Elastic Compliance Matrix: (Units=1/GPa)
#
#
# Indices 1 2 3 4 5 6 
#
# 1 0.011906 -0.003468 -0.003358 0.000000 0.000000 0.000000
# 2 -0.003468 0.015097 -0.009657 0.000000 0.000000 0.000000
# 3 -0.003358 -0.009657 0.019780 0.000000 0.000000 0.000000
# 4 0.000000 0.000000 0.000000 0.030871 0.000000 0.000000
# 5 0.000000 0.000000 0.000000 0.000000 0.033314 0.000000
# 6 0.000000 0.000000 0.000000 0.000000 0.000000 0.028162
#
#
# Mechanical properties :
#
#
# Convention : Reuss Voigt Hill
#
# Bulk Modulus (GPa) = 72.38558 74.88267 73.63412
# Shear Modulus (GPa) = 28.29612 30.08677 29.19145
#
# Velocity S-wave (km/s) = 3.76249 3.87971 3.82155
# Velocity P-wave (km/s) = 7.42220 7.58504 7.50406
#
# Compressibility (1/GPa) = 0.01381491
#
# Stress axis : x y z
#
# Youngs Moduli (GPa) = 83.98973 66.23988 50.55619
#
# Poissons Ratio (x) = 0.22975 0.16978
# Poissons Ratio (y) = 0.29131 0.48823
# Poissons Ratio (z) = 0.28206 0.63969
#
# Static dielectric constant tensor:
#      x y z
#    x 3.607290 0.000000 0.000000 
#    y 0.000000 3.824240 0.000000 
#    z 0.000000 0.000000 3.650160 
# 
# 
# High freq. dielectric constant tensor:
#      x y z
#    x 1.784040 0.000000 0.000000 
#    y 0.000000 1.788100 0.000000 
#    z 0.000000 0.000000 1.772440 
# 
# From -- ./inp_files/67467.got.cif
#   From: 2010.03.12/outbox.cif.g09.slc.cpg/sg65_34_cif.got.tgz:67467.got - 2010.04.10 20:52:16.
