data_PCOD8273898
_publ_section_title
;
Structure prediction by ZEFSAII (Michael W. Deem and Ramdas Pophale) SiO2 
 PCOD8273898
Probable space group: C M M M
;
_chemical_formula_sum "Si O2"
_cell_formula_units_Z 88
_cell_length_a 20.658894
_cell_length_b 24.367399
_cell_length_c 9.496541
_cell_angle_alpha 90.000000
_cell_angle_beta 90.000000
_cell_angle_gamma 90.000000
_cell_volume 4780.592101
_symmetry_space_group_name_H-M "C M M M"
_symmetry_group_IT_number 65
_symmetry_cell_setting 'orthorhombic'
loop_
_space_group_symop_operation_xyz
x,y,z
-x,-y,z
x,-y,-z
-x,y,-z
-x,-y,-z
x,y,-z
-x,y,z
x,-y,z
1/2+x,1/2+y,z
1/2-x,1/2-y,z
1/2+x,1/2-y,-z
1/2-x,1/2+y,-z
1/2-x,1/2-y,-z
1/2+x,1/2+y,-z
1/2-x,1/2+y,z
1/2+x,1/2-y,z
loop_
_atom_site_type_symbol
_atom_site_label
_atom_site_fract_x
_atom_site_fract_y
_atom_site_fract_z
Si Si1 0.318661 0.775627 0.167203
Si Si2 0.000000 0.563120 0.832574
Si Si3 0.290486 0.000000 0.833226
Si Si4 0.863377 0.605598 0.832723
Si Si5 0.856351 0.000000 0.834261
Si Si6 0.573867 0.413327 0.343640
Si Si7 0.573561 0.285286 0.339023
O O1 0.250000 0.750000 0.218853
O O2 0.328840 0.838394 0.219713
O O3 0.377667 0.742533 0.232303
O O4 0.323840 0.770939 0.000000
O O5 0.937341 0.597390 0.779094
O O6 0.000000 0.500000 0.774914
O O7 0.000000 0.559761 0.000000
O O8 0.323264 0.054559 0.770172
O O9 0.217148 0.000000 0.786020
O O10 0.298908 0.000000 0.000000
O O11 0.862238 0.605123 0.000000
O O12 0.886757 0.055149 0.774324
O O13 0.865823 0.000000 0.000000
O O14 0.599852 0.427874 0.500000
O O15 0.500000 0.432053 0.332072
O O16 0.581040 0.349532 0.314118
O O17 0.590621 0.269808 0.500000
O O18 0.500000 0.266916 0.304527
#
# Coordination Sequence:
#
# PCOD8273898 Si02
#       7
#    16   8   8  16   8  16  16
#     4  10  22  35  53  81 114 146 177 222 279 335
#     4   9  14  24  46  72  97 131 175 218 255 306
#     4   9  18  31  46  68 106 147 172 203 257 324
#     4   9  17  30  47  71 105 140 173 210 262 322
#     4  11  22  30  50  82 109 138 173 216 270 322
#     4   9  19  37  57  74  99 139 181 220 265 318
#     4   9  20  39  59  78 104 143 188 228 270 324
#
# _framework density 18.407762000000002
#
# number of rings (size 3 to 8) (size 9 to 14) (size 15 to 20)
#    0.000    2.636    0.909    1.636    3.818    2.909 
#    0.000    1.818    0.000    0.000    0.000    0.000 
#    0.000    2.182    0.000    0.000    0.000    0.000 
#
# Total GULP energy -545399.407688 kJ/mol
# GULP energy per Si atom -12395.441084 kJ/mol
# Density = 1.836587 g / cm^3
# Si number density = 18.407762 Si / 1000 Ang^3
#
#
#
# Elastic Constant Matrix: (Units=GPa)
#
#
# Indices 1 2 3 4 5 6 
#
# 1 142.4229 85.8138 40.2979 0.0000 0.0000 0.0000
# 2 85.8138 121.6230 28.4267 0.0000 0.0000 0.0000
# 3 40.2979 28.4267 36.4191 0.0000 0.0000 0.0000
# 4 0.0000 0.0000 0.0000 19.6645 0.0000 0.0000
# 5 0.0000 0.0000 0.0000 0.0000 16.2965 0.0000
# 6 0.0000 0.0000 0.0000 0.0000 0.0000 38.8161
#
#
#
# Elastic Compliance Matrix: (Units=1/GPa)
#
#
# Indices 1 2 3 4 5 6 
#
# 1 0.014681 -0.008026 -0.009980 0.000000 0.000000 0.000000
# 2 -0.008026 0.014444 -0.002394 0.000000 0.000000 0.000000
# 3 -0.009980 -0.002394 0.040370 0.000000 0.000000 0.000000
# 4 0.000000 0.000000 0.000000 0.050853 0.000000 0.000000
# 5 0.000000 0.000000 0.000000 0.000000 0.061363 0.000000
# 6 0.000000 0.000000 0.000000 0.000000 0.000000 0.025762
#
#
# Mechanical properties :
#
#
# Convention : Reuss Voigt Hill
#
# Bulk Modulus (GPa) = 34.84863 67.72686 51.28775
# Shear Modulus (GPa) = 19.39199 24.68385 22.03792
#
# Velocity S-wave (km/s) = 3.24924 3.66587 3.46382
# Velocity P-wave (km/s) = 5.74885 7.40206 6.62721
#
# Compressibility (1/GPa) = 0.02869553
#
# Stress axis : x y z
#
# Youngs Moduli (GPa) = 68.11549 69.23073 24.77107
#
# Poissons Ratio (x) = 0.55564 0.24722
# Poissons Ratio (y) = 0.54668 0.05930
# Poissons Ratio (z) = 0.67980 0.16573
#
# Static dielectric constant tensor:
#      x y z
#    x 3.563620 0.000000 0.000000 
#    y 0.000000 3.639490 0.000000 
#    z 0.000000 0.000000 2.952360 
# 
# 
# High freq. dielectric constant tensor:
#      x y z
#    x 1.722940 0.000000 0.000000 
#    y 0.000000 1.725850 0.000000 
#    z 0.000000 0.000000 1.668010 
# 
# From -- ./inp_files/11910.got.cif
#   From: 2010.03.12/outbox.cif.g09.slc.cpg/sg65_6_cif.got.tgz:11910.got - 2010.04.10 20:52:16.
