data_PCOD8273097
_publ_section_title
;
Structure prediction by ZEFSAII (Michael W. Deem and Ramdas Pophale) SiO2 
 PCOD8273097
Probable space group: C M M M
;
_chemical_formula_sum "Si O2"
_cell_formula_units_Z 64
_cell_length_a 27.571969
_cell_length_b 10.066120
_cell_length_c 13.659608
_cell_angle_alpha 90.000000
_cell_angle_beta 90.000000
_cell_angle_gamma 90.000000
_cell_volume 3791.125149
_symmetry_space_group_name_H-M "C M M M"
_symmetry_group_IT_number 65
_symmetry_cell_setting 'orthorhombic'
loop_
_space_group_symop_operation_xyz
x,y,z
-x,-y,z
x,-y,-z
-x,y,-z
-x,-y,-z
x,y,-z
-x,y,z
x,-y,z
1/2+x,1/2+y,z
1/2-x,1/2-y,z
1/2+x,1/2-y,-z
1/2-x,1/2+y,-z
1/2-x,1/2-y,-z
1/2+x,1/2+y,-z
1/2-x,1/2+y,z
1/2+x,1/2-y,z
loop_
_atom_site_type_symbol
_atom_site_label
_atom_site_fract_x
_atom_site_fract_y
_atom_site_fract_z
Si Si1 0.704662 0.655014 0.386942
Si Si2 0.148182 0.235044 0.210821
Si Si3 0.797197 0.000000 0.890030
Si Si4 0.182678 0.500000 0.886797
Si Si5 0.054237 0.157166 0.889856
O O1 0.690204 0.667099 0.500000
O O2 0.716320 0.500000 0.359943
O O3 0.750000 0.750000 0.361626
O O4 0.658784 0.712054 0.326102
O O5 0.182507 0.132019 0.156706
O O6 0.161985 0.377803 0.172594
O O7 0.091343 0.215309 0.189388
O O8 0.740020 0.000000 0.881522
O O9 0.815881 0.000000 0.000000
O O10 0.165171 0.500000 0.000000
O O11 0.000000 0.204910 0.861861
O O12 0.057406 0.000000 0.886504
O O13 0.067197 0.206134 0.000000
#
# Coordination Sequence:
#
# PCOD8273097 Si02
#       5
#    16  16   8   8  16
#     4  10  21  36  55  79 106 138 179 225 268 315
#     4  12  21  34  53  75 104 144 176 218 268 310
#     4  11  20  32  50  72 102 139 176 206 252 319
#     4  11  24  34  46  76 114 143 174 212 258 325
#     4   9  17  31  53  78 101 132 179 225 263 313
#
# _framework density 16.881530999999999
#
# number of rings (size 3 to 8) (size 9 to 14) (size 15 to 20)
#    0.000    1.500    2.500    5.250    1.750    2.000 
#    0.000    0.625    0.000    3.000    0.000    3.500 
#    0.000    2.000    0.000    0.000    0.000    0.000 
#
# Total GULP energy -396728.695118 kJ/mol
# GULP energy per Si atom -12397.771722 kJ/mol
# Density = 1.684311 g / cm^3
# Si number density = 16.881531 Si / 1000 Ang^3
#
#
#
# Elastic Constant Matrix: (Units=GPa)
#
#
# Indices 1 2 3 4 5 6 
#
# 1 107.3793 39.0872 62.3874 0.0000 0.0000 0.0000
# 2 39.0872 114.0945 46.1410 0.0000 0.0000 0.0000
# 3 62.3874 46.1410 103.5424 0.0000 0.0000 0.0000
# 4 0.0000 0.0000 0.0000 13.5016 0.0000 0.0000
# 5 0.0000 0.0000 0.0000 0.0000 27.9809 0.0000
# 6 0.0000 0.0000 0.0000 0.0000 0.0000 19.1833
#
#
#
# Elastic Compliance Matrix: (Units=1/GPa)
#
#
# Indices 1 2 3 4 5 6 
#
# 1 0.014614 -0.001763 -0.008020 0.000000 0.000000 0.000000
# 2 -0.001763 0.010904 -0.003797 0.000000 0.000000 0.000000
# 3 -0.008020 -0.003797 0.016182 0.000000 0.000000 0.000000
# 4 0.000000 0.000000 0.000000 0.074066 0.000000 0.000000
# 5 0.000000 0.000000 0.000000 0.000000 0.035739 0.000000
# 6 0.000000 0.000000 0.000000 0.000000 0.000000 0.052129
#
#
# Mechanical properties :
#
#
# Convention : Reuss Voigt Hill
#
# Bulk Modulus (GPa) = 68.77224 68.91638 68.84431
# Shear Modulus (GPa) = 21.21887 23.95984 22.58936
#
# Velocity S-wave (km/s) = 3.54916 3.77144 3.66199
# Velocity P-wave (km/s) = 7.59092 7.73803 7.66483
#
# Compressibility (1/GPa) = 0.01454075
#
# Stress axis : x y z
#
# Youngs Moduli (GPa) = 68.42726 91.70781 61.79776
#
# Poissons Ratio (x) = 0.16171 0.49559
# Poissons Ratio (y) = 0.12066 0.23463
# Poissons Ratio (z) = 0.54876 0.34819
#
# Static dielectric constant tensor:
#      x y z
#    x 3.369160 0.000000 0.000000 
#    y 0.000000 3.136350 0.000000 
#    z 0.000000 0.000000 3.397300 
# 
# 
# High freq. dielectric constant tensor:
#      x y z
#    x 1.636580 0.000000 0.000000 
#    y 0.000000 1.653430 0.000000 
#    z 0.000000 0.000000 1.646010 
# 
# From -- ./inp_files/36340.got.cif
#   From: 2010.03.12/outbox.cif.g09.slc.cpg/sg65_19_cif.got.tgz:36340.got - 2010.04.10 20:52:16.
