data_PCOD8273494
_publ_section_title
;
Structure prediction by ZEFSAII (Michael W. Deem and Ramdas Pophale) SiO2 
 PCOD8273494
Probable space group: C M M M
;
_chemical_formula_sum "Si O2"
_cell_formula_units_Z 80
_cell_length_a 20.051442
_cell_length_b 17.903288
_cell_length_c 11.776314
_cell_angle_alpha 90.000000
_cell_angle_beta 90.000000
_cell_angle_gamma 90.000000
_cell_volume 4227.540583
_symmetry_space_group_name_H-M "C M M M"
_symmetry_group_IT_number 65
_symmetry_cell_setting 'orthorhombic'
loop_
_space_group_symop_operation_xyz
x,y,z
-x,-y,z
x,-y,-z
-x,y,-z
-x,-y,-z
x,y,-z
-x,y,z
x,-y,z
1/2+x,1/2+y,z
1/2-x,1/2-y,z
1/2+x,1/2-y,-z
1/2-x,1/2+y,-z
1/2-x,1/2-y,-z
1/2+x,1/2+y,-z
1/2-x,1/2+y,z
1/2+x,1/2-y,z
loop_
_atom_site_type_symbol
_atom_site_label
_atom_site_fract_x
_atom_site_fract_y
_atom_site_fract_z
Si Si1 0.076979 0.319909 0.631808
Si Si2 0.573027 0.344771 0.279804
Si Si3 0.191832 0.412720 0.288376
Si Si4 0.740497 0.662221 0.500000
Si Si5 0.311656 0.586798 0.130319
Si Si6 0.393137 0.415803 0.500000
O O1 0.100041 0.328952 0.500000
O O2 0.090294 0.236166 0.671050
O O3 0.119181 0.373960 0.715413
O O4 0.000000 0.342605 0.644393
O O5 0.500000 0.344562 0.219066
O O6 0.631037 0.366707 0.193090
O O7 0.565546 0.402356 0.384959
O O8 0.181110 0.500000 0.308813
O O9 0.230843 0.375893 0.390020
O O10 0.237115 0.397122 0.177343
O O11 0.750000 0.750000 0.500000
O O12 0.662965 0.646730 0.500000
O O13 0.329319 0.500000 0.145906
O O14 0.311517 0.611585 0.000000
O O15 0.364795 0.500000 0.500000
#
# Coordination Sequence:
#
# PCOD8273494 Si02
#       6
#    16  16  16   8  16   8
#     4  10  21  37  58  86 121 156 185 224 288 355
#     4  11  22  37  56  82 117 154 189 230 282 343
#     4  11  22  37  59  86 116 149 191 241 286 338
#     4  12  22  33  56  85 116 152 186 230 292 349
#     4  10  23  41  59  81 112 153 198 242 289 338
#     4  12  21  32  52  83 117 145 182 231 281 342
#
# _framework density 18.923531000000001
#
# number of rings (size 3 to 8) (size 9 to 14) (size 15 to 20)
#    0.000    1.200    4.000    3.000    0.000    2.800 
#    0.000    4.000    0.000    1.800    0.000    2.800 
#    0.000    0.000    0.000    0.000    0.000    0.000 
#
# Total GULP energy -495886.884149 kJ/mol
# GULP energy per Si atom -12397.172104 kJ/mol
# Density = 1.888046 g / cm^3
# Si number density = 18.923531 Si / 1000 Ang^3
#
#
#
# Elastic Constant Matrix: (Units=GPa)
#
#
# Indices 1 2 3 4 5 6 
#
# 1 131.9939 68.2375 58.2026 0.0000 0.0000 0.0000
# 2 68.2375 114.8780 43.9521 0.0000 0.0000 0.0000
# 3 58.2026 43.9521 112.4791 0.0000 0.0000 0.0000
# 4 0.0000 0.0000 0.0000 22.9639 0.0000 0.0000
# 5 0.0000 0.0000 0.0000 0.0000 12.5110 0.0000
# 6 0.0000 0.0000 0.0000 0.0000 0.0000 30.9392
#
#
#
# Elastic Compliance Matrix: (Units=1/GPa)
#
#
# Indices 1 2 3 4 5 6 
#
# 1 0.012393 -0.005770 -0.004158 0.000000 0.000000 0.000000
# 2 -0.005770 0.012922 -0.002063 0.000000 0.000000 0.000000
# 3 -0.004158 -0.002063 0.011848 0.000000 0.000000 0.000000
# 4 0.000000 0.000000 0.000000 0.043547 0.000000 0.000000
# 5 0.000000 0.000000 0.000000 0.000000 0.079929 0.000000
# 6 0.000000 0.000000 0.000000 0.000000 0.000000 0.032321
#
#
# Mechanical properties :
#
#
# Convention : Reuss Voigt Hill
#
# Bulk Modulus (GPa) = 75.87467 77.79281 76.83374
# Shear Modulus (GPa) = 22.58999 25.88009 24.23504
#
# Velocity S-wave (km/s) = 3.45882 3.70214 3.58255
# Velocity P-wave (km/s) = 7.49224 7.71186 7.60284
#
# Compressibility (1/GPa) = 0.01317963
#
# Stress axis : x y z
#
# Youngs Moduli (GPa) = 80.69290 77.38727 84.40044
#
# Poissons Ratio (x) = 0.44656 0.35092
# Poissons Ratio (y) = 0.46564 0.17415
# Poissons Ratio (z) = 0.33550 0.15968
#
# Static dielectric constant tensor:
#      x y z
#    x 3.709900 0.000000 0.000000 
#    y 0.000000 3.824200 0.000000 
#    z 0.000000 0.000000 3.281670 
# 
# 
# High freq. dielectric constant tensor:
#      x y z
#    x 1.751370 0.000000 0.000000 
#    y 0.000000 1.738470 0.000000 
#    z 0.000000 0.000000 1.708120 
# 
# From -- ./inp_files/28582.got.cif
#   From: 2010.03.12/outbox.cif.g09.slc.cpg/sg65_15_cif.got.tgz:28582.got - 2010.04.10 20:52:16.
