data_PCOD8273978
_publ_section_title
;
Structure prediction by ZEFSAII (Michael W. Deem and Ramdas Pophale) SiO2 
 PCOD8273978
Probable space group: C M M M
;
_chemical_formula_sum "Si O2"
_cell_formula_units_Z 88
_cell_length_a 29.097584
_cell_length_b 17.614711
_cell_length_c 9.181132
_cell_angle_alpha 90.000000
_cell_angle_beta 90.000000
_cell_angle_gamma 90.000000
_cell_volume 4705.748194
_symmetry_space_group_name_H-M "C M M M"
_symmetry_group_IT_number 65
_symmetry_cell_setting 'orthorhombic'
loop_
_space_group_symop_operation_xyz
x,y,z
-x,-y,z
x,-y,-z
-x,y,-z
-x,-y,-z
x,y,-z
-x,y,z
x,-y,z
1/2+x,1/2+y,z
1/2-x,1/2-y,z
1/2+x,1/2-y,-z
1/2-x,1/2+y,-z
1/2-x,1/2-y,-z
1/2+x,1/2+y,-z
1/2-x,1/2+y,z
1/2+x,1/2-y,z
loop_
_atom_site_type_symbol
_atom_site_label
_atom_site_fract_x
_atom_site_fract_y
_atom_site_fract_z
Si Si1 0.946699 0.283133 0.168622
Si Si2 0.192062 0.084285 0.672316
Si Si3 0.445714 0.500000 0.834921
Si Si4 0.208758 0.409442 0.337825
Si Si5 0.879059 0.585270 0.830865
Si Si6 0.595926 0.642405 0.327332
O O1 0.923094 0.363428 0.205118
O O2 0.924247 0.220857 0.271484
O O3 0.000000 0.291770 0.206904
O O4 0.939485 0.260126 0.000000
O O5 0.196524 0.076897 0.500000
O O6 0.241487 0.116723 0.728261
O O7 0.150068 0.139353 0.715152
O O8 0.181891 0.000000 0.736783
O O9 0.500000 0.500000 0.840242
O O10 0.430117 0.574156 0.749616
O O11 0.425992 0.500000 0.000000
O O12 0.201701 0.376565 0.500000
O O13 0.209089 0.500000 0.339715
O O14 0.166465 0.378979 0.242455
O O15 0.889492 0.500000 0.773119
O O16 0.868314 0.583674 0.000000
O O17 0.588629 0.635271 0.500000
#
# Coordination Sequence:
#
# PCOD8273978 Si02
#       6
#    16  16   8  16  16  16
#     4  10  22  39  55  73 104 142 175 217 276 329
#     4   8  14  28  50  76 105 137 173 213 253 300
#     4  11  23  37  53  75 107 145 183 223 268 317
#     4   8  14  27  51  78 104 135 168 206 257 314
#     4   9  18  34  56  80 104 132 173 222 266 318
#     4  11  21  35  56  80 106 139 182 227 263 304
#
# _framework density 18.700534000000001
#
# number of rings (size 3 to 8) (size 9 to 14) (size 15 to 20)
#    0.000    2.636    0.909    2.455    0.000    4.364 
#    0.000    4.545    0.000    5.455    0.000    3.818 
#    0.000    0.000    0.000    0.000    0.000    0.000 
#
# Total GULP energy -545376.558326 kJ/mol
# GULP energy per Si atom -12394.921780 kJ/mol
# Density = 1.865797 g / cm^3
# Si number density = 18.700534 Si / 1000 Ang^3
#
#
#
# Elastic Constant Matrix: (Units=GPa)
#
#
# Indices 1 2 3 4 5 6 
#
# 1 164.8664 63.8115 53.4556 0.0000 0.0000 0.0000
# 2 63.8115 84.0847 44.3394 0.0000 0.0000 0.0000
# 3 53.4556 44.3394 68.9890 0.0000 0.0000 0.0000
# 4 0.0000 0.0000 0.0000 32.2447 0.0000 0.0000
# 5 0.0000 0.0000 0.0000 0.0000 21.9920 0.0000
# 6 0.0000 0.0000 0.0000 0.0000 0.0000 31.0649
#
#
#
# Elastic Compliance Matrix: (Units=1/GPa)
#
#
# Indices 1 2 3 4 5 6 
#
# 1 0.009273 -0.004914 -0.004027 0.000000 0.000000 0.000000
# 2 -0.004914 0.020593 -0.009428 0.000000 0.000000 0.000000
# 3 -0.004027 -0.009428 0.023675 0.000000 0.000000 0.000000
# 4 0.000000 0.000000 0.000000 0.031013 0.000000 0.000000
# 5 0.000000 0.000000 0.000000 0.000000 0.045471 0.000000
# 6 0.000000 0.000000 0.000000 0.000000 0.000000 0.032191
#
#
# Mechanical properties :
#
#
# Convention : Reuss Voigt Hill
#
# Bulk Modulus (GPa) = 59.51126 71.23925 65.37526
# Shear Modulus (GPa) = 24.44333 27.48257 25.96295
#
# Velocity S-wave (km/s) = 3.61930 3.83771 3.73010
# Velocity P-wave (km/s) = 7.02553 7.60361 7.32028
#
# Compressibility (1/GPa) = 0.01680354
#
# Stress axis : x y z
#
# Youngs Moduli (GPa) = 107.83850 48.55937 42.23895
#
# Poissons Ratio (x) = 0.23861 0.17010
# Poissons Ratio (y) = 0.52989 0.39823
# Poissons Ratio (z) = 0.43428 0.45782
#
# Static dielectric constant tensor:
#      x y z
#    x 3.859210 0.000000 0.000000 
#    y 0.000000 3.193540 0.000000 
#    z 0.000000 0.000000 3.367900 
# 
# 
# High freq. dielectric constant tensor:
#      x y z
#    x 1.744300 0.000000 0.000000 
#    y 0.000000 1.701070 0.000000 
#    z 0.000000 0.000000 1.705840 
# 
# From -- ./inp_files/10008.got.cif
#   From: 2010.03.12/outbox.cif.g09.slc.cpg/sg65_6_cif.got.tgz:10008.got - 2010.04.10 20:52:16.
