data_PCOD8273479
_publ_section_title
;
Structure prediction by ZEFSAII (Michael W. Deem and Ramdas Pophale) SiO2 
 PCOD8273479
Probable space group: C M M M
;
_chemical_formula_sum "Si O2"
_cell_formula_units_Z 104
_cell_length_a 28.978027
_cell_length_b 8.867494
_cell_length_c 20.386899
_cell_angle_alpha 90.000000
_cell_angle_beta 90.000000
_cell_angle_gamma 90.000000
_cell_volume 5238.668138
_symmetry_space_group_name_H-M "C M M M"
_symmetry_group_IT_number 65
_symmetry_cell_setting 'orthorhombic'
loop_
_space_group_symop_operation_xyz
x,y,z
-x,-y,z
x,-y,-z
-x,y,-z
-x,-y,-z
x,y,-z
-x,y,z
x,-y,z
1/2+x,1/2+y,z
1/2-x,1/2-y,z
1/2+x,1/2-y,-z
1/2-x,1/2+y,-z
1/2-x,1/2-y,-z
1/2+x,1/2+y,-z
1/2-x,1/2+y,z
1/2+x,1/2-y,z
loop_
_atom_site_type_symbol
_atom_site_label
_atom_site_fract_x
_atom_site_fract_y
_atom_site_fract_z
Si Si1 0.638698 0.176108 0.113135
Si Si2 0.801165 0.179904 0.000000
Si Si3 0.296296 0.822448 0.623868
Si Si4 0.552923 0.322738 0.832248
Si Si5 0.446423 0.829008 0.695856
Si Si6 0.392211 0.820729 0.428433
Si Si7 0.704660 0.826204 0.771421
O O1 0.586396 0.239833 0.115577
O O2 0.660000 0.205773 0.184765
O O3 0.637796 0.000000 0.093850
O O4 0.670099 0.266608 0.062648
O O5 0.750000 0.250000 0.000000
O O6 0.796551 0.000000 0.000000
O O7 0.250000 0.750000 0.594418
O O8 0.339315 0.769096 0.580358
O O9 0.305173 0.764781 0.698321
O O10 0.290566 0.000000 0.621744
O O11 0.500000 0.278778 0.849330
O O12 0.560820 0.500000 0.837720
O O13 0.565324 0.271199 0.758764
O O14 0.500000 0.829697 0.680047
O O15 0.422418 0.756086 0.631598
O O16 0.428594 0.000000 0.709639
O O17 0.409205 0.761311 0.500000
O O18 0.396209 0.000000 0.426302
O O19 0.750000 0.750000 0.802629
O O20 0.716677 0.000000 0.769363
#
# Coordination Sequence:
#
# PCOD8273479 Si02
#       7
#    16   8  16  16  16  16  16
#     4  11  22  38  61  87 115 150 191 233 279 328
#     4  12  26  44  63  88 125 164 200 233 269 319
#     4   9  17  30  46  66  94 128 167 213 265 317
#     4  10  21  37  58  85 115 146 182 227 281 338
#     4   9  17  31  53  79 105 134 172 221 274 330
#     4   9  17  29  46  69  98 133 173 219 272 327
#     4   9  18  31  50  76 104 134 172 221 273 325
#
# _framework density 19.852374000000001
#
# number of rings (size 3 to 8) (size 9 to 14) (size 15 to 20)
#    0.000    2.308    0.000    3.000    0.000    6.462 
#    0.000    5.769    0.000    3.692    0.000    2.154 
#    0.000    0.000    0.000    0.000    0.000    0.000 
#
# Total GULP energy -644686.192195 kJ/mol
# GULP energy per Si atom -12397.811388 kJ/mol
# Density = 1.980719 g / cm^3
# Si number density = 19.852374 Si / 1000 Ang^3
#
#
#
# Elastic Constant Matrix: (Units=GPa)
#
#
# Indices 1 2 3 4 5 6 
#
# 1 113.4280 45.1351 50.0347 0.0000 0.0000 0.0000
# 2 45.1351 72.1339 33.4422 0.0000 0.0000 0.0000
# 3 50.0347 33.4422 75.4254 0.0000 0.0000 0.0000
# 4 0.0000 0.0000 0.0000 19.8804 0.0000 0.0000
# 5 0.0000 0.0000 0.0000 0.0000 29.8952 0.0000
# 6 0.0000 0.0000 0.0000 0.0000 0.0000 31.9467
#
#
#
# Elastic Compliance Matrix: (Units=1/GPa)
#
#
# Indices 1 2 3 4 5 6 
#
# 1 0.014076 -0.005637 -0.006838 0.000000 0.000000 0.000000
# 2 -0.005637 0.019708 -0.004999 0.000000 0.000000 0.000000
# 3 -0.006838 -0.004999 0.020010 0.000000 0.000000 0.000000
# 4 0.000000 0.000000 0.000000 0.050301 0.000000 0.000000
# 5 0.000000 0.000000 0.000000 0.000000 0.033450 0.000000
# 6 0.000000 0.000000 0.000000 0.000000 0.000000 0.031302
#
#
# Mechanical properties :
#
#
# Convention : Reuss Voigt Hill
#
# Bulk Modulus (GPa) = 53.05993 57.57903 55.31948
# Shear Modulus (GPa) = 23.80091 25.16949 24.48520
#
# Velocity S-wave (km/s) = 3.46626 3.56453 3.51574
# Velocity P-wave (km/s) = 6.54257 6.78290 6.66382
#
# Compressibility (1/GPa) = 0.01884661
#
# Stress axis : x y z
#
# Youngs Moduli (GPa) = 71.04509 50.74154 49.97396
#
# Poissons Ratio (x) = 0.28604 0.34172
# Poissons Ratio (y) = 0.40049 0.24980
# Poissons Ratio (z) = 0.48580 0.25363
#
# Static dielectric constant tensor:
#      x y z
#    x 3.766080 0.000000 0.000000 
#    y 0.000000 3.426620 0.000000 
#    z 0.000000 0.000000 3.733550 
# 
# 
# High freq. dielectric constant tensor:
#      x y z
#    x 1.783810 0.000000 0.000000 
#    y 0.000000 1.749440 0.000000 
#    z 0.000000 0.000000 1.766650 
# 
# From -- ./inp_files/65916.got.cif
#   From: 2010.03.12/outbox.cif.g09.slc.cpg/sg65_33_cif.got.tgz:65916.got - 2010.04.10 20:52:16.
