data_PCOD8273925
_publ_section_title
;
Structure prediction by ZEFSAII (Michael W. Deem and Ramdas Pophale) SiO2 
 PCOD8273925
Probable space group: C M M M
;
_chemical_formula_sum "Si O2"
_cell_formula_units_Z 104
_cell_length_a 9.482166
_cell_length_b 20.217080
_cell_length_c 29.718936
_cell_angle_alpha 90.000000
_cell_angle_beta 90.000000
_cell_angle_gamma 90.000000
_cell_volume 5697.170809
_symmetry_space_group_name_H-M "C M M M"
_symmetry_group_IT_number 65
_symmetry_cell_setting 'orthorhombic'
loop_
_space_group_symop_operation_xyz
x,y,z
-x,-y,z
x,-y,-z
-x,y,-z
-x,-y,-z
x,y,-z
-x,y,z
x,-y,z
1/2+x,1/2+y,z
1/2-x,1/2-y,z
1/2+x,1/2-y,-z
1/2-x,1/2+y,-z
1/2-x,1/2-y,-z
1/2+x,1/2+y,-z
1/2-x,1/2+y,z
1/2+x,1/2-y,z
loop_
_atom_site_type_symbol
_atom_site_label
_atom_site_fract_x
_atom_site_fract_y
_atom_site_fract_z
Si Si1 0.156346 0.500000 0.946829
Si Si2 0.163522 0.076202 0.622074
Si Si3 0.336587 0.313116 0.448518
Si Si4 0.161082 0.877120 0.949263
Si Si5 0.659296 0.921570 0.707373
Si Si6 0.663693 0.575813 0.792596
Si Si7 0.659637 0.689255 0.139967
O O1 0.240002 0.564503 0.931404
O O2 0.000000 0.500000 0.925166
O O3 0.145998 0.500000 0.000000
O O4 0.202177 0.121274 0.579375
O O5 0.257758 0.102801 0.663275
O O6 0.000000 0.083358 0.635811
O O7 0.198591 0.000000 0.609800
O O8 0.295894 0.328698 0.500000
O O9 0.500000 0.295066 0.443408
O O10 0.250000 0.250000 0.430397
O O11 0.182793 0.817911 0.913883
O O12 0.000000 0.902773 0.947916
O O13 0.200503 0.853436 0.000000
O O14 0.500000 0.892771 0.707420
O O15 0.742755 0.897073 0.751368
O O16 0.656577 0.000000 0.707474
O O17 0.500000 0.581470 0.778755
O O18 0.701672 0.500000 0.805104
O O19 0.701086 0.620937 0.835496
O O20 0.500000 0.707753 0.151079
O O21 0.750000 0.750000 0.158470
#
# Coordination Sequence:
#
# PCOD8273925 Si02
#       7
#     8  16  16  16  16  16  16
#     4   9  17  29  47  75 105 129 159 205 253 287
#     4   9  17  30  50  75 102 132 167 208 253 301
#     4   9  18  32  49  70  99 136 175 213 252 296
#     4   9  18  33  53  75 101 136 173 206 246 300
#     4   9  17  30  50  77 105 129 159 205 257 305
#     4   9  18  34  56  77  98 130 170 208 247 300
#     4  10  22  37  54  76 105 137 170 209 253 301
#
# _framework density 18.254674000000001
#
# number of rings (size 3 to 8) (size 9 to 14) (size 15 to 20)
#    0.000    2.846    0.000    0.692    1.077    5.231 
#    0.000    2.308    0.000    0.000    0.000    4.308 
#    0.000    0.000    0.000    0.000    0.000    0.000 
#
# Total GULP energy -644680.414004 kJ/mol
# GULP energy per Si atom -12397.700269 kJ/mol
# Density = 1.821313 g / cm^3
# Si number density = 18.254674 Si / 1000 Ang^3
#
#
#
# Elastic Constant Matrix: (Units=GPa)
#
#
# Indices 1 2 3 4 5 6 
#
# 1 86.4170 49.7491 51.3463 0.0000 0.0000 0.0000
# 2 49.7491 91.7896 53.4574 0.0000 0.0000 0.0000
# 3 51.3463 53.4574 106.1890 0.0000 0.0000 0.0000
# 4 0.0000 0.0000 0.0000 13.4674 0.0000 0.0000
# 5 0.0000 0.0000 0.0000 0.0000 21.7726 0.0000
# 6 0.0000 0.0000 0.0000 0.0000 0.0000 25.0045
#
#
#
# Elastic Compliance Matrix: (Units=1/GPa)
#
#
# Indices 1 2 3 4 5 6 
#
# 1 0.018945 -0.006979 -0.005647 0.000000 0.000000 0.000000
# 2 -0.006979 0.017985 -0.005679 0.000000 0.000000 0.000000
# 3 -0.005647 -0.005679 0.015007 0.000000 0.000000 0.000000
# 4 0.000000 0.000000 0.000000 0.074253 0.000000 0.000000
# 5 0.000000 0.000000 0.000000 0.000000 0.045929 0.000000
# 6 0.000000 0.000000 0.000000 0.000000 0.000000 0.039993
#
#
# Mechanical properties :
#
#
# Convention : Reuss Voigt Hill
#
# Bulk Modulus (GPa) = 65.25078 65.94461 65.59769
# Shear Modulus (GPa) = 19.69817 20.70510 20.20164
#
# Velocity S-wave (km/s) = 3.28849 3.37150 3.33025
# Velocity P-wave (km/s) = 7.08810 7.16653 7.12743
#
# Compressibility (1/GPa) = 0.01532549
#
# Stress axis : x y z
#
# Youngs Moduli (GPa) = 52.78441 55.60332 66.63677
#
# Poissons Ratio (x) = 0.38806 0.37631
# Poissons Ratio (y) = 0.36839 0.37843
# Poissons Ratio (z) = 0.29808 0.31577
#
# Static dielectric constant tensor:
#      x y z
#    x 3.545580 0.000000 0.000000 
#    y 0.000000 3.090230 0.000000 
#    z 0.000000 0.000000 3.350380 
# 
# 
# High freq. dielectric constant tensor:
#      x y z
#    x 1.708260 0.000000 0.000000 
#    y 0.000000 1.680550 0.000000 
#    z 0.000000 0.000000 1.702760 
# 
# From -- ./inp_files/76866.got.cif
#   From: 2010.03.12/outbox.cif.g09.slc.cpg/sg65_39_cif.got.tgz:76866.got - 2010.04.10 20:52:16.
