data_PCOD8273278
_publ_section_title
;
Structure prediction by ZEFSAII (Michael W. Deem and Ramdas Pophale) SiO2 
 PCOD8273278
Probable space group: C M M M
;
_chemical_formula_sum "Si O2"
_cell_formula_units_Z 72
_cell_length_a 13.934518
_cell_length_b 28.570836
_cell_length_c 8.905838
_cell_angle_alpha 90.000000
_cell_angle_beta 90.000000
_cell_angle_gamma 90.000000
_cell_volume 3545.599603
_symmetry_space_group_name_H-M "C M M M"
_symmetry_group_IT_number 65
_symmetry_cell_setting 'orthorhombic'
loop_
_space_group_symop_operation_xyz
x,y,z
-x,-y,z
x,-y,-z
-x,y,-z
-x,-y,-z
x,y,-z
-x,y,z
x,-y,z
1/2+x,1/2+y,z
1/2-x,1/2-y,z
1/2+x,1/2-y,-z
1/2-x,1/2+y,-z
1/2-x,1/2-y,-z
1/2+x,1/2+y,-z
1/2-x,1/2+y,z
1/2+x,1/2-y,z
loop_
_atom_site_type_symbol
_atom_site_label
_atom_site_fract_x
_atom_site_fract_y
_atom_site_fract_z
Si Si1 0.282067 0.913172 0.822122
Si Si2 0.389586 0.372550 0.324787
Si Si3 0.386101 0.278929 0.833214
Si Si4 0.388114 0.000000 0.323032
Si Si5 0.893957 0.322652 0.177818
O O1 0.172266 0.911424 0.764053
O O2 0.339393 0.954860 0.747353
O O3 0.328908 0.864882 0.763313
O O4 0.284577 0.919597 0.000000
O O5 0.372641 0.379010 0.500000
O O6 0.500000 0.380864 0.279499
O O7 0.356403 0.320168 0.279044
O O8 0.500000 0.272736 0.841042
O O9 0.346150 0.227906 0.779212
O O10 0.346589 0.291858 0.000000
O O11 0.500000 0.000000 0.280515
O O12 0.371683 0.000000 0.500000
O O13 0.000000 0.328166 0.249962
O O14 0.902930 0.325395 0.000000
#
# Coordination Sequence:
#
# PCOD8273278 Si02
#       5
#    16  16  16   8  16
#     4  11  22  37  61  88 112 144 191 241 284 333
#     4  10  21  37  55  78 114 156 193 233 283 337
#     4   8  14  28  51  77 108 148 191 232 275 327
#     4  11  25  45  66  89 120 151 177 216 276 341
#     4   8  15  29  51  81 114 146 184 232 282 331
#
# _framework density 20.306861000000001
#
# number of rings (size 3 to 8) (size 9 to 14) (size 15 to 20)
#    0.000    2.556    0.000    3.667    0.000    4.000 
#    0.000    7.222    0.000    8.667    0.000    0.000 
#    0.000    0.000    0.000    0.000    0.000    0.000 
#
# Total GULP energy -446298.736601 kJ/mol
# GULP energy per Si atom -12397.187128 kJ/mol
# Density = 2.026064 g / cm^3
# Si number density = 20.306861 Si / 1000 Ang^3
#
#
#
# Elastic Constant Matrix: (Units=GPa)
#
#
# Indices 1 2 3 4 5 6 
#
# 1 100.2897 79.7510 54.2480 0.0000 0.0000 0.0000
# 2 79.7510 128.1542 57.5159 0.0000 0.0000 0.0000
# 3 54.2480 57.5159 80.5328 0.0000 0.0000 0.0000
# 4 0.0000 0.0000 0.0000 -3.6634 0.0000 0.0000
# 5 0.0000 0.0000 0.0000 0.0000 23.5663 0.0000
# 6 0.0000 0.0000 0.0000 0.0000 0.0000 32.2056
#
#
#
# Elastic Compliance Matrix: (Units=1/GPa)
#
#
# Indices 1 2 3 4 5 6 
#
# 1 0.022504 -0.010598 -0.007590 0.000000 0.000000 0.000000
# 2 -0.010598 0.016475 -0.004627 0.000000 0.000000 0.000000
# 3 -0.007590 -0.004627 0.020835 0.000000 0.000000 0.000000
# 4 0.000000 0.000000 0.000000 -0.272969 0.000000 0.000000
# 5 0.000000 0.000000 0.000000 0.000000 0.042434 0.000000
# 6 0.000000 0.000000 0.000000 0.000000 0.000000 0.031051
#
#
# Mechanical properties :
#
#
# Convention : Reuss Voigt Hill
#
# Bulk Modulus (GPa) = 70.50604 76.88963 73.69783
# Shear Modulus (GPa) = -55.98403 18.25247 -18.86578
#
# Velocity S-wave (km/s) = -5.25632 3.00131 -3.05131
# Velocity P-wave (km/s) = 1.42927 7.06799 4.89457
#
# Compressibility (1/GPa) = 0.01418318
#
# Stress axis : x y z
#
# Youngs Moduli (GPa) = 44.43561 60.69742 47.99614
#
# Poissons Ratio (x) = 0.64328 0.36430
# Poissons Ratio (y) = 0.47094 0.22210
# Poissons Ratio (z) = 0.33727 0.28087
#
# Static dielectric constant tensor:
#      x y z
#    x 3.867430 0.000000 0.000000 
#    y 0.000000 3.833490 0.000000 
#    z 0.000000 0.000000 3.390140 
# 
# 
# High freq. dielectric constant tensor:
#      x y z
#    x 1.804700 0.000000 0.000000 
#    y 0.000000 1.785760 0.000000 
#    z 0.000000 0.000000 1.763910 
# 
# From -- ./inp_files/7318.got.cif
#   From: 2010.03.12/outbox.cif.g09.slc.cpg/sg65_4_cif.got.tgz:7318.got - 2010.04.10 20:52:16.
