data_PCOD8273846
_publ_section_title
;
Structure prediction by ZEFSAII (Michael W. Deem and Ramdas Pophale) SiO2 
 PCOD8273846
Probable space group: C M M M
;
_chemical_formula_sum "Si O2"
_cell_formula_units_Z 64
_cell_length_a 15.085604
_cell_length_b 8.564628
_cell_length_c 24.062676
_cell_angle_alpha 90.000000
_cell_angle_beta 90.000000
_cell_angle_gamma 90.000000
_cell_volume 3108.959975
_symmetry_space_group_name_H-M "C M M M"
_symmetry_group_IT_number 65
_symmetry_cell_setting 'orthorhombic'
loop_
_space_group_symop_operation_xyz
x,y,z
-x,-y,z
x,-y,-z
-x,y,-z
-x,-y,-z
x,y,-z
-x,y,z
x,-y,z
1/2+x,1/2+y,z
1/2-x,1/2-y,z
1/2+x,1/2-y,-z
1/2-x,1/2+y,-z
1/2-x,1/2-y,-z
1/2+x,1/2+y,-z
1/2-x,1/2+y,z
1/2+x,1/2-y,z
loop_
_atom_site_type_symbol
_atom_site_label
_atom_site_fract_x
_atom_site_fract_y
_atom_site_fract_z
Si Si1 0.500000 0.181028 0.365157
Si Si2 0.152502 0.817172 0.060026
Si Si3 0.845109 0.819322 0.435304
Si Si4 0.848839 0.316411 0.172092
Si Si5 0.500000 0.318018 0.245701
O O1 0.414072 0.218385 0.401079
O O2 0.500000 0.287769 0.310930
O O3 0.500000 0.000000 0.348178
O O4 0.250000 0.750000 0.055700
O O5 0.106571 0.734492 0.112842
O O6 0.156441 0.000000 0.072530
O O7 0.104452 0.785888 0.000000
O O8 0.867371 0.799671 0.500000
O O9 0.750000 0.750000 0.420729
O O10 0.849715 0.000000 0.417536
O O11 0.843682 0.500000 0.175366
O O12 0.750000 0.250000 0.179250
O O13 0.910915 0.255896 0.220965
O O14 0.500000 0.500000 0.232901
#
# Coordination Sequence:
#
# PCOD8273846 Si02
#       5
#     8  16  16  16   8
#     4  12  25  41  62  90 123 160 203 248 297 351
#     4   9  16  28  50  81 114 149 190 236 290 352
#     4  10  21  39  64  95 129 164 202 244 293 348
#     4  11  22  39  62  88 118 154 196 243 299 358
#     4  12  26  45  64  85 116 155 203 253 299 350
#
# _framework density 20.585661999999999
#
# number of rings (size 3 to 8) (size 9 to 14) (size 15 to 20)
#    0.000    1.500    0.000    7.875    0.000    5.500 
#    0.000    5.625    0.000    3.750    0.000    0.000 
#    0.000    0.000    0.000    0.000    0.000    0.000 
#
# Total GULP energy -396738.665509 kJ/mol
# GULP energy per Si atom -12398.083297 kJ/mol
# Density = 2.053881 g / cm^3
# Si number density = 20.585662 Si / 1000 Ang^3
#
#
#
# Elastic Constant Matrix: (Units=GPa)
#
#
# Indices 1 2 3 4 5 6 
#
# 1 97.1325 42.0422 57.4385 0.0000 0.0000 0.0000
# 2 42.0422 154.9809 36.3923 0.0000 0.0000 0.0000
# 3 57.4385 36.3923 100.3420 0.0000 0.0000 0.0000
# 4 0.0000 0.0000 0.0000 36.7472 0.0000 0.0000
# 5 0.0000 0.0000 0.0000 0.0000 40.5493 0.0000
# 6 0.0000 0.0000 0.0000 0.0000 0.0000 -17.5216
#
#
#
# Elastic Compliance Matrix: (Units=1/GPa)
#
#
# Indices 1 2 3 4 5 6 
#
# 1 0.016372 -0.002449 -0.008483 0.000000 0.000000 0.000000
# 2 -0.002449 0.007419 -0.001289 0.000000 0.000000 0.000000
# 3 -0.008483 -0.001289 0.015290 0.000000 0.000000 0.000000
# 4 0.000000 0.000000 0.000000 0.027213 0.000000 0.000000
# 5 0.000000 0.000000 0.000000 0.000000 0.024661 0.000000
# 6 0.000000 0.000000 0.000000 0.000000 0.000000 -0.057072
#
#
# Mechanical properties :
#
#
# Convention : Reuss Voigt Hill
#
# Bulk Modulus (GPa) = 68.31632 69.35570 68.83601
# Shear Modulus (GPa) = 79.10730 26.39381 52.75055
#
# Velocity S-wave (km/s) = 6.20579 3.58459 5.06760
# Velocity P-wave (km/s) = 9.19823 7.13420 8.23117
#
# Compressibility (1/GPa) = 0.01463779
#
# Stress axis : x y z
#
# Youngs Moduli (GPa) = 61.08010 134.78051 65.40411
#
# Poissons Ratio (x) = 0.33010 0.55485
# Poissons Ratio (y) = 0.14960 0.08430
# Poissons Ratio (z) = 0.51817 0.17372
#
# Static dielectric constant tensor:
#      x y z
#    x 3.359750 0.000000 0.000000 
#    y 0.000000 3.901450 0.000000 
#    z 0.000000 0.000000 4.153040 
# 
# 
# High freq. dielectric constant tensor:
#      x y z
#    x 1.792600 0.000000 0.000000 
#    y 0.000000 1.823670 0.000000 
#    z 0.000000 0.000000 1.814360 
# 
# From -- ./inp_files/69534.got.cif
#   From: 2010.03.12/outbox.cif.g09.slc.cpg/sg65_35_cif.got.tgz:69534.got - 2010.04.10 20:52:16.
