data_PCOD8273409
_publ_section_title
;
Structure prediction by ZEFSAII (Michael W. Deem and Ramdas Pophale) SiO2 
 PCOD8273409
Probable space group: C M M M
;
_chemical_formula_sum "Si O2"
_cell_formula_units_Z 72
_cell_length_a 24.307716
_cell_length_b 14.610363
_cell_length_c 10.051577
_cell_angle_alpha 90.000000
_cell_angle_beta 90.000000
_cell_angle_gamma 90.000000
_cell_volume 3569.762835
_symmetry_space_group_name_H-M "C M M M"
_symmetry_group_IT_number 65
_symmetry_cell_setting 'orthorhombic'
loop_
_space_group_symop_operation_xyz
x,y,z
-x,-y,z
x,-y,-z
-x,y,-z
-x,-y,-z
x,y,-z
-x,y,z
x,-y,z
1/2+x,1/2+y,z
1/2-x,1/2-y,z
1/2+x,1/2-y,-z
1/2-x,1/2+y,-z
1/2-x,1/2-y,-z
1/2+x,1/2+y,-z
1/2-x,1/2+y,z
1/2+x,1/2-y,z
loop_
_atom_site_type_symbol
_atom_site_label
_atom_site_fract_x
_atom_site_fract_y
_atom_site_fract_z
Si Si1 0.646444 0.602883 0.722125
Si Si2 0.939979 0.602082 0.842034
Si Si3 0.938084 0.891908 0.500000
Si Si4 0.731747 0.102578 0.352194
Si Si5 0.337444 0.214560 0.847517
O O1 0.635530 0.500000 0.779090
O O2 0.595820 0.637438 0.630970
O O3 0.702353 0.603710 0.637782
O O4 0.654041 0.676040 0.840793
O O5 0.928274 0.500000 0.788379
O O6 0.892766 0.668641 0.789515
O O7 0.000000 0.635561 0.790775
O O8 0.939752 0.601941 0.000000
O O9 0.000000 0.849163 0.500000
O O10 0.942198 0.000000 0.500000
O O11 0.709534 0.127760 0.500000
O O12 0.711752 0.176833 0.244343
O O13 0.711977 0.000000 0.311299
O O14 0.324389 0.187777 0.000000
#
# Coordination Sequence:
#
# PCOD8273409 Si02
#       5
#    16  16   8  16  16
#     4  10  21  37  57  81 113 153 197 242 293 348
#     4   8  15  31  54  77 105 144 188 232 278 333
#     4   9  18  36  61  84 105 139 195 252 294 340
#     4  10  21  38  60  83 113 153 195 241 292 347
#     4  11  23  35  55  87 120 156 196 238 287 349
#
# _framework density 20.169405999999999
#
# number of rings (size 3 to 8) (size 9 to 14) (size 15 to 20)
#    0.000    2.333    1.111    2.000    1.556    5.333 
#    0.000    2.222    0.000    0.000    0.000    9.333 
#    0.000    0.000    0.000    0.000    0.000    0.000 
#
# Total GULP energy -446128.753504 kJ/mol
# GULP energy per Si atom -12392.465375 kJ/mol
# Density = 2.012350 g / cm^3
# Si number density = 20.169406 Si / 1000 Ang^3
#
#
#
# Elastic Constant Matrix: (Units=GPa)
#
#
# Indices 1 2 3 4 5 6 
#
# 1 114.1027 37.8319 33.9982 0.0000 0.0000 0.0000
# 2 37.8319 104.7084 34.8117 0.0000 0.0000 0.0000
# 3 33.9982 34.8117 79.1516 0.0000 0.0000 0.0000
# 4 0.0000 0.0000 0.0000 25.7681 0.0000 0.0000
# 5 0.0000 0.0000 0.0000 0.0000 22.7118 0.0000
# 6 0.0000 0.0000 0.0000 0.0000 0.0000 18.9586
#
#
#
# Elastic Compliance Matrix: (Units=1/GPa)
#
#
# Indices 1 2 3 4 5 6 
#
# 1 0.010679 -0.002733 -0.003385 0.000000 0.000000 0.000000
# 2 -0.002733 0.011885 -0.004053 0.000000 0.000000 0.000000
# 3 -0.003385 -0.004053 0.015871 0.000000 0.000000 0.000000
# 4 0.000000 0.000000 0.000000 0.038808 0.000000 0.000000
# 5 0.000000 0.000000 0.000000 0.000000 0.044030 0.000000
# 6 0.000000 0.000000 0.000000 0.000000 0.000000 0.052746
#
#
# Mechanical properties :
#
#
# Convention : Reuss Voigt Hill
#
# Bulk Modulus (GPa) = 55.27230 56.80512 56.03871
# Shear Modulus (GPa) = 24.95110 26.24244 25.59677
#
# Velocity S-wave (km/s) = 3.52103 3.61099 3.56629
# Velocity P-wave (km/s) = 6.63277 6.75358 6.69345
#
# Compressibility (1/GPa) = 0.01809225
#
# Stress axis : x y z
#
# Youngs Moduli (GPa) = 93.64402 84.13697 63.00941
#
# Poissons Ratio (x) = 0.22994 0.21328
# Poissons Ratio (y) = 0.25592 0.25540
# Poissons Ratio (z) = 0.31697 0.34104
#
# Static dielectric constant tensor:
#      x y z
#    x 4.092380 0.000000 0.000000 
#    y 0.000000 3.739310 0.000000 
#    z 0.000000 0.000000 3.160270 
# 
# 
# High freq. dielectric constant tensor:
#      x y z
#    x 1.791150 0.000000 0.000000 
#    y 0.000000 1.787320 0.000000 
#    z 0.000000 0.000000 1.746240 
# 
# From -- ./inp_files/15774.got.cif
#   From: 2010.03.12/outbox.cif.g09.slc.cpg/sg65_8_cif.got.tgz:15774.got - 2010.04.10 20:52:16.
