data_PCOD8273864
_publ_section_title
;
Structure prediction by ZEFSAII (Michael W. Deem and Ramdas Pophale) SiO2 
 PCOD8273864
Probable space group: C M M M
;
_chemical_formula_sum "Si O2"
_cell_formula_units_Z 64
_cell_length_a 8.586017
_cell_length_b 15.126665
_cell_length_c 23.804566
_cell_angle_alpha 90.000000
_cell_angle_beta 90.000000
_cell_angle_gamma 90.000000
_cell_volume 3091.684730
_symmetry_space_group_name_H-M "C M M M"
_symmetry_group_IT_number 65
_symmetry_cell_setting 'orthorhombic'
loop_
_space_group_symop_operation_xyz
x,y,z
-x,-y,z
x,-y,-z
-x,y,-z
-x,-y,-z
x,y,-z
-x,y,z
x,-y,z
1/2+x,1/2+y,z
1/2-x,1/2-y,z
1/2+x,1/2-y,-z
1/2-x,1/2+y,-z
1/2-x,1/2-y,-z
1/2+x,1/2+y,-z
1/2-x,1/2+y,z
1/2+x,1/2-y,z
loop_
_atom_site_type_symbol
_atom_site_label
_atom_site_fract_x
_atom_site_fract_y
_atom_site_fract_z
Si Si1 0.321317 0.155069 0.000000
Si Si2 0.316324 0.500000 0.578673
Si Si3 0.686217 0.148118 0.500000
Si Si4 0.328517 0.599639 0.110928
Si Si5 0.685334 0.658423 0.230052
Si Si6 0.681900 0.000000 0.700095
O O1 0.250000 0.250000 0.000000
O O2 0.278309 0.103288 0.943681
O O3 0.500000 0.168682 0.000000
O O4 0.500000 0.500000 0.566445
O O5 0.243685 0.590852 0.553605
O O6 0.284657 0.500000 0.644352
O O7 0.500000 0.153490 0.500000
O O8 0.750000 0.250000 0.500000
O O9 0.500000 0.633469 0.093164
O O10 0.335749 0.500000 0.132923
O O11 0.266665 0.654933 0.164051
O O12 0.500000 0.648048 0.237795
O O13 0.750000 0.750000 0.254361
O O14 0.776458 0.585109 0.264028
O O15 0.500000 0.000000 0.684813
#
# Coordination Sequence:
#
# PCOD8273864 Si02
#       6
#     8   8   8  16  16   8
#     4  12  25  38  55  83 115 151 197 251 308 377
#     4  11  23  42  67  98 135 177 221 270 321 375
#     4  11  22  41  68 102 140 179 222 267 318 376
#     4  10  21  40  63  86 116 154 196 249 314 380
#     4  11  23  42  65  93 124 164 211 262 320 384
#     4  12  25  43  66  95 130 172 217 268 320 376
#
# _framework density 20.700686999999999
#
# number of rings (size 3 to 8) (size 9 to 14) (size 15 to 20)
#    0.000    1.000    1.250    7.125    0.000    7.000 
#    0.000    5.000    0.000    0.000    0.000    0.000 
#    0.000    0.000    0.000    0.000    0.000    0.000 
#
# Total GULP energy -396752.799211 kJ/mol
# GULP energy per Si atom -12398.524975 kJ/mol
# Density = 2.065357 g / cm^3
# Si number density = 20.700687 Si / 1000 Ang^3
#
#
#
# Elastic Constant Matrix: (Units=GPa)
#
#
# Indices 1 2 3 4 5 6 
#
# 1 136.0166 41.8990 42.0117 0.0000 0.0000 0.0000
# 2 41.8990 150.7449 41.3870 0.0000 0.0000 0.0000
# 3 42.0117 41.3870 102.8068 0.0000 0.0000 0.0000
# 4 0.0000 0.0000 0.0000 41.0835 0.0000 0.0000
# 5 0.0000 0.0000 0.0000 0.0000 30.9157 0.0000
# 6 0.0000 0.0000 0.0000 0.0000 0.0000 35.9936
#
#
#
# Elastic Compliance Matrix: (Units=1/GPa)
#
#
# Indices 1 2 3 4 5 6 
#
# 1 0.008757 -0.001632 -0.002922 0.000000 0.000000 0.000000
# 2 -0.001632 0.007762 -0.002458 0.000000 0.000000 0.000000
# 3 -0.002922 -0.002458 0.011910 0.000000 0.000000 0.000000
# 4 0.000000 0.000000 0.000000 0.024341 0.000000 0.000000
# 5 0.000000 0.000000 0.000000 0.000000 0.032346 0.000000
# 6 0.000000 0.000000 0.000000 0.000000 0.000000 0.027783
#
#
# Mechanical properties :
#
#
# Convention : Reuss Voigt Hill
#
# Bulk Modulus (GPa) = 69.41190 71.12931 70.27061
# Shear Modulus (GPa) = 37.95806 39.21658 38.58732
#
# Velocity S-wave (km/s) = 4.28677 4.35726 4.32216
# Velocity P-wave (km/s) = 7.62272 7.72979 7.67645
#
# Compressibility (1/GPa) = 0.01440675
#
# Stress axis : x y z
#
# Youngs Moduli (GPa) = 114.19247 128.83060 83.96027
#
# Poissons Ratio (x) = 0.21024 0.24530
# Poissons Ratio (y) = 0.18635 0.20637
# Poissons Ratio (z) = 0.33363 0.31666
#
# Static dielectric constant tensor:
#      x y z
#    x 2.026380 0.000000 0.000000 
#    y 0.000000 3.933660 0.000000 
#    z 0.000000 0.000000 6.859710 
# 
# 
# High freq. dielectric constant tensor:
#      x y z
#    x 1.819180 0.000000 0.000000 
#    y 0.000000 1.823440 0.000000 
#    z 0.000000 0.000000 1.809260 
# 
# From -- ./inp_files/66882.got.cif
#   From: 2010.03.12/outbox.cif.g09.slc.cpg/sg65_34_cif.got.tgz:66882.got - 2010.04.10 20:52:16.
