data_PCOD8273161
_publ_section_title
;
Structure prediction by ZEFSAII (Michael W. Deem and Ramdas Pophale) SiO2 
 PCOD8273161
Probable space group: C M M M
;
_chemical_formula_sum "Si O2"
_cell_formula_units_Z 88
_cell_length_a 24.194556
_cell_length_b 20.031002
_cell_length_c 9.094425
_cell_angle_alpha 90.000000
_cell_angle_beta 90.000000
_cell_angle_gamma 90.000000
_cell_volume 4407.533042
_symmetry_space_group_name_H-M "C M M M"
_symmetry_group_IT_number 65
_symmetry_cell_setting 'orthorhombic'
loop_
_space_group_symop_operation_xyz
x,y,z
-x,-y,z
x,-y,-z
-x,y,-z
-x,-y,-z
x,y,-z
-x,y,z
x,-y,z
1/2+x,1/2+y,z
1/2-x,1/2-y,z
1/2+x,1/2-y,-z
1/2-x,1/2+y,-z
1/2-x,1/2-y,-z
1/2+x,1/2+y,-z
1/2-x,1/2+y,z
1/2+x,1/2-y,z
loop_
_atom_site_type_symbol
_atom_site_label
_atom_site_fract_x
_atom_site_fract_y
_atom_site_fract_z
Si Si1 0.561271 0.114244 0.328995
Si Si2 0.665715 0.073781 0.168295
Si Si3 0.064793 0.000000 0.674984
Si Si4 0.124741 0.123219 0.827462
Si Si5 0.436186 0.268063 0.663533
Si Si6 0.243423 0.174459 0.174946
O O1 0.565115 0.098276 0.500000
O O2 0.500000 0.094954 0.271477
O O3 0.606805 0.071174 0.247072
O O4 0.573140 0.191427 0.297037
O O5 0.706735 0.128962 0.237901
O O6 0.692572 0.000000 0.183675
O O7 0.654986 0.092213 0.000000
O O8 0.096561 0.064097 0.736818
O O9 0.069177 0.000000 0.500000
O O10 0.000000 0.000000 0.723416
O O11 0.092861 0.191157 0.792232
O O12 0.187459 0.137109 0.775306
O O13 0.121023 0.106748 0.000000
O O14 0.412249 0.284146 0.500000
O O15 0.500000 0.287278 0.663720
O O16 0.250000 0.250000 0.238551
O O17 0.244707 0.177361 0.000000
#
# Coordination Sequence:
#
# PCOD8273161 Si02
#       6
#    16  16   8  16  16  16
#     4   9  19  36  57  81 111 148 187 228 278 335
#     4  10  21  36  56  80 110 147 185 229 283 340
#     4  11  25  43  59  79 117 165 202 239 298 363
#     4  11  22  35  59  88 113 146 194 245 289 341
#     4   9  18  34  55  79 111 149 184 224 283 345
#     4   9  19  36  58  84 114 148 186 231 289 349
#
# _framework density 19.965817999999999
#
# number of rings (size 3 to 8) (size 9 to 14) (size 15 to 20)
#    0.000    2.273    0.000    3.545    1.273    6.545 
#    0.000    5.455    0.000    4.909    0.000    0.000 
#    0.000    0.000    0.000    0.000    0.000    0.000 
#
# Total GULP energy -545479.708248 kJ/mol
# GULP energy per Si atom -12397.266097 kJ/mol
# Density = 1.992037 g / cm^3
# Si number density = 19.965818 Si / 1000 Ang^3
#
#
#
# Elastic Constant Matrix: (Units=GPa)
#
#
# Indices 1 2 3 4 5 6 
#
# 1 129.0552 72.5134 35.7667 0.0000 0.0000 0.0000
# 2 72.5134 104.1759 34.5123 0.0000 0.0000 0.0000
# 3 35.7667 34.5123 46.6559 0.0000 0.0000 0.0000
# 4 0.0000 0.0000 0.0000 20.3649 0.0000 0.0000
# 5 0.0000 0.0000 0.0000 0.0000 -12.1726 0.0000
# 6 0.0000 0.0000 0.0000 0.0000 0.0000 37.6581
#
#
#
# Elastic Compliance Matrix: (Units=1/GPa)
#
#
# Indices 1 2 3 4 5 6 
#
# 1 0.013393 -0.007843 -0.004466 0.000000 0.000000 0.000000
# 2 -0.007843 0.017308 -0.006791 0.000000 0.000000 0.000000
# 3 -0.004466 -0.006791 0.029880 0.000000 0.000000 0.000000
# 4 0.000000 0.000000 0.000000 0.049104 0.000000 0.000000
# 5 0.000000 0.000000 0.000000 0.000000 -0.082152 0.000000
# 6 0.000000 0.000000 0.000000 0.000000 0.000000 0.026555
#
#
# Mechanical properties :
#
#
# Convention : Reuss Voigt Hill
#
# Bulk Modulus (GPa) = 44.67731 62.83019 53.75375
# Shear Modulus (GPa) = 50.12653 18.30972 34.21813
#
# Velocity S-wave (km/s) = 5.01604 3.03157 4.14434
# Velocity P-wave (km/s) = 7.48151 6.61749 7.06272
#
# Compressibility (1/GPa) = 0.02238273
#
# Stress axis : x y z
#
# Youngs Moduli (GPa) = 74.66537 57.77638 33.46729
#
# Poissons Ratio (x) = 0.45315 0.14945
# Poissons Ratio (y) = 0.58561 0.22726
# Poissons Ratio (z) = 0.33342 0.39233
#
# Static dielectric constant tensor:
#      x y z
#    x 3.791020 0.000000 0.000000 
#    y 0.000000 3.785400 0.000000 
#    z 0.000000 0.000000 3.366270 
# 
# 
# High freq. dielectric constant tensor:
#      x y z
#    x 1.784520 0.000000 0.000000 
#    y 0.000000 1.790590 0.000000 
#    z 0.000000 0.000000 1.752050 
# 
# From -- ./inp_files/14009.got.cif
#   From: 2010.03.12/outbox.cif.g09.slc.cpg/sg65_8_cif.got.tgz:14009.got - 2010.04.10 20:52:16.
