data_PCOD8273648
_publ_section_title
;
Structure prediction by ZEFSAII (Michael W. Deem and Ramdas Pophale) SiO2 
 PCOD8273648
Probable space group: C M M M
;
_chemical_formula_sum "Si O2"
_cell_formula_units_Z 104
_cell_length_a 20.365029
_cell_length_b 8.924625
_cell_length_c 29.859231
_cell_angle_alpha 90.000000
_cell_angle_beta 90.000000
_cell_angle_gamma 90.000000
_cell_volume 5426.922608
_symmetry_space_group_name_H-M "C M M M"
_symmetry_group_IT_number 65
_symmetry_cell_setting 'orthorhombic'
loop_
_space_group_symop_operation_xyz
x,y,z
-x,-y,z
x,-y,-z
-x,y,-z
-x,-y,-z
x,y,-z
-x,y,z
x,-y,z
1/2+x,1/2+y,z
1/2-x,1/2-y,z
1/2+x,1/2-y,-z
1/2-x,1/2+y,-z
1/2-x,1/2-y,-z
1/2+x,1/2+y,-z
1/2-x,1/2+y,z
1/2+x,1/2-y,z
loop_
_atom_site_type_symbol
_atom_site_label
_atom_site_fract_x
_atom_site_fract_y
_atom_site_fract_z
Si Si1 0.000000 0.832584 0.552700
Si Si2 0.924107 0.676826 0.307013
Si Si3 0.314687 0.677434 0.634012
Si Si4 0.073893 0.823149 0.119496
Si Si5 0.682483 0.323202 0.051043
Si Si6 0.422241 0.835128 0.207648
Si Si7 0.632948 0.823345 0.448320
O O1 0.062527 0.737480 0.567831
O O2 0.000000 0.850433 0.500000
O O3 0.000000 0.000000 0.574393
O O4 0.913964 0.500000 0.314389
O O5 0.880002 0.770468 0.340826
O O6 0.900883 0.722937 0.256729
O O7 0.000000 0.720907 0.315341
O O8 0.309356 0.500000 0.634591
O O9 0.250000 0.750000 0.657026
O O10 0.315005 0.738291 0.582836
O O11 0.122287 0.761680 0.081001
O O12 0.101737 0.773413 0.167949
O O13 0.000000 0.760052 0.110952
O O14 0.072390 0.000000 0.118651
O O15 0.689987 0.500000 0.055895
O O16 0.750000 0.250000 0.068041
O O17 0.667555 0.275741 0.000000
O O18 0.500000 0.845775 0.208065
O O19 0.392420 0.000000 0.198642
O O20 0.647834 0.783602 0.500000
O O21 0.635422 0.000000 0.439844
#
# Coordination Sequence:
#
# PCOD8273648 Si02
#       7
#     8  16  16  16  16  16  16
#     4   9  17  31  53  83 115 143 177 223 267 307
#     4   9  19  38  63  87 112 144 182 222 269 328
#     4  12  26  42  60  83 115 149 185 228 276 328
#     4   9  17  29  48  75 104 133 169 217 267 313
#     4   9  18  32  48  67  96 136 179 220 264 315
#     4   8  15  30  53  80 108 138 171 211 262 319
#     4  10  21  38  60  84 112 148 186 224 271 324
#
# _framework density 19.163716000000001
#
# number of rings (size 3 to 8) (size 9 to 14) (size 15 to 20)
#    0.000    2.538    0.000    3.000    1.077    4.000 
#    0.000    3.846    0.000    1.846    0.000    4.308 
#    0.000    0.000    0.000    0.000    0.000    0.000 
#
# Total GULP energy -644632.305815 kJ/mol
# GULP energy per Si atom -12396.775112 kJ/mol
# Density = 1.912010 g / cm^3
# Si number density = 19.163716 Si / 1000 Ang^3
#
#
#
# Elastic Constant Matrix: (Units=GPa)
#
#
# Indices 1 2 3 4 5 6 
#
# 1 99.1613 46.0441 59.7347 0.0000 0.0000 0.0000
# 2 46.0441 84.0873 44.3935 0.0000 0.0000 0.0000
# 3 59.7347 44.3935 112.5026 0.0000 0.0000 0.0000
# 4 0.0000 0.0000 0.0000 31.7712 0.0000 0.0000
# 5 0.0000 0.0000 0.0000 0.0000 15.2114 0.0000
# 6 0.0000 0.0000 0.0000 0.0000 0.0000 29.0442
#
#
#
# Elastic Compliance Matrix: (Units=1/GPa)
#
#
# Indices 1 2 3 4 5 6 
#
# 1 0.016706 -0.005640 -0.006645 0.000000 0.000000 0.000000
# 2 -0.005640 0.016926 -0.003684 0.000000 0.000000 0.000000
# 3 -0.006645 -0.003684 0.013871 0.000000 0.000000 0.000000
# 4 0.000000 0.000000 0.000000 0.031475 0.000000 0.000000
# 5 0.000000 0.000000 0.000000 0.000000 0.065740 0.000000
# 6 0.000000 0.000000 0.000000 0.000000 0.000000 0.034430
#
#
# Mechanical properties :
#
#
# Convention : Reuss Voigt Hill
#
# Bulk Modulus (GPa) = 64.24853 66.23287 65.24070
# Shear Modulus (GPa) = 23.11877 24.91062 24.01469
#
# Velocity S-wave (km/s) = 3.47707 3.60930 3.54380
# Velocity P-wave (km/s) = 7.05117 7.21152 7.13179
#
# Compressibility (1/GPa) = 0.01556456
#
# Stress axis : x y z
#
# Youngs Moduli (GPa) = 59.85798 59.08156 72.09410
#
# Poissons Ratio (x) = 0.33320 0.47906
# Poissons Ratio (y) = 0.33758 0.26562
# Poissons Ratio (z) = 0.39775 0.21768
#
# Static dielectric constant tensor:
#      x y z
#    x 3.559320 0.000000 0.000000 
#    y 0.000000 3.445150 0.000000 
#    z 0.000000 0.000000 3.712740 
# 
# 
# High freq. dielectric constant tensor:
#      x y z
#    x 1.729750 0.000000 0.000000 
#    y 0.000000 1.738930 0.000000 
#    z 0.000000 0.000000 1.744520 
# 
# From -- ./inp_files/78234.got.cif
#   From: 2010.03.12/outbox.cif.g09.slc.cpg/sg65_40_cif.got.tgz:78234.got - 2010.04.10 20:52:16.
