data_PCOD8273732
_publ_section_title
;
Structure prediction by ZEFSAII (Michael W. Deem and Ramdas Pophale) SiO2 
 PCOD8273732
Probable space group: C M M M
;
_chemical_formula_sum "Si O2"
_cell_formula_units_Z 96
_cell_length_a 23.162031
_cell_length_b 18.278808
_cell_length_c 11.913298
_cell_angle_alpha 90.000000
_cell_angle_beta 90.000000
_cell_angle_gamma 90.000000
_cell_volume 5043.784410
_symmetry_space_group_name_H-M "C M M M"
_symmetry_group_IT_number 65
_symmetry_cell_setting 'orthorhombic'
loop_
_space_group_symop_operation_xyz
x,y,z
-x,-y,z
x,-y,-z
-x,y,-z
-x,-y,-z
x,y,-z
-x,y,z
x,-y,z
1/2+x,1/2+y,z
1/2-x,1/2-y,z
1/2+x,1/2-y,-z
1/2-x,1/2+y,-z
1/2-x,1/2-y,-z
1/2+x,1/2+y,-z
1/2-x,1/2+y,z
1/2+x,1/2-y,z
loop_
_atom_site_type_symbol
_atom_site_label
_atom_site_fract_x
_atom_site_fract_y
_atom_site_fract_z
Si Si1 0.066910 0.418812 0.625887
Si Si2 0.353806 0.678326 0.131670
Si Si3 0.066609 0.082334 0.274324
Si Si4 0.316315 0.776821 0.500000
Si Si5 0.654213 0.829026 0.736259
Si Si6 0.931463 0.828562 0.500000
Si Si7 0.256352 0.082626 0.130305
O O1 0.080491 0.389936 0.500000
O O2 0.093676 0.500000 0.640717
O O3 0.090776 0.362279 0.717451
O O4 0.000000 0.422970 0.647639
O O5 0.406065 0.628616 0.173451
O O6 0.351112 0.753985 0.197453
O O7 0.295851 0.635574 0.161292
O O8 0.360854 0.693885 0.000000
O O9 0.077691 0.120976 0.392436
O O10 0.000000 0.078434 0.245071
O O11 0.092479 0.000000 0.278561
O O12 0.250000 0.750000 0.500000
O O13 0.317095 0.822817 0.385915
O O14 0.375844 0.726360 0.500000
O O15 0.688245 0.889514 0.804989
O O16 0.000000 0.797177 0.500000
O O17 0.241030 0.000000 0.166958
O O18 0.270973 0.086419 0.000000
#
# Coordination Sequence:
#
# PCOD8273732 Si02
#       7
#    16  16  16   8  16   8  16
#     4   9  19  37  60  87 118 152 194 244 295 354
#     4  11  23  39  59  85 118 157 200 248 297 353
#     4  10  21  38  61  87 117 156 202 252 299 351
#     4  12  24  37  56  90 132 158 187 248 318 370
#     4  12  22  37  60  89 120 154 195 239 303 364
#     4  10  21  40  64  88 119 163 211 245 295 375
#     4  10  22  41  63  84 111 153 202 246 293 356
#
# _framework density 19.033325999999999
#
# number of rings (size 3 to 8) (size 9 to 14) (size 15 to 20)
#    0.000    1.500    2.500    3.750    0.000    5.000 
#    0.000    0.833    0.000    1.500    0.000    5.833 
#    0.000    0.000    0.000    0.000    0.000    0.000 
#
# Total GULP energy -594849.755413 kJ/mol
# GULP energy per Si atom -12392.703238 kJ/mol
# Density = 1.899001 g / cm^3
# Si number density = 19.033326 Si / 1000 Ang^3
#
#
#
# Elastic Constant Matrix: (Units=GPa)
#
#
# Indices 1 2 3 4 5 6 
#
# 1 91.4381 55.8755 43.2663 0.0000 0.0000 0.0000
# 2 55.8755 128.0140 64.8893 0.0000 0.0000 0.0000
# 3 43.2663 64.8893 61.3551 0.0000 0.0000 0.0000
# 4 0.0000 0.0000 0.0000 35.5473 0.0000 0.0000
# 5 0.0000 0.0000 0.0000 0.0000 29.2521 0.0000
# 6 0.0000 0.0000 0.0000 0.0000 0.0000 33.5628
#
#
#
# Elastic Compliance Matrix: (Units=1/GPa)
#
#
# Indices 1 2 3 4 5 6 
#
# 1 0.016891 -0.002877 -0.008868 0.000000 0.000000 0.000000
# 2 -0.002877 0.017329 -0.016298 0.000000 0.000000 0.000000
# 3 -0.008868 -0.016298 0.039789 0.000000 0.000000 0.000000
# 4 0.000000 0.000000 0.000000 0.028132 0.000000 0.000000
# 5 0.000000 0.000000 0.000000 0.000000 0.034186 0.000000
# 6 0.000000 0.000000 0.000000 0.000000 0.000000 0.029795
#
#
# Mechanical properties :
#
#
# Convention : Reuss Voigt Hill
#
# Bulk Modulus (GPa) = 55.79758 67.65215 61.72487
# Shear Modulus (GPa) = 21.91246 27.45751 24.68498
#
# Velocity S-wave (km/s) = 3.39671 3.80228 3.60521
# Velocity P-wave (km/s) = 6.69051 7.40930 7.05906
#
# Compressibility (1/GPa) = 0.01792192
#
# Stress axis : x y z
#
# Youngs Moduli (GPa) = 59.20419 57.70705 25.13276
#
# Poissons Ratio (x) = 0.16605 0.22287
# Poissons Ratio (y) = 0.17036 0.40961
# Poissons Ratio (z) = 0.52501 0.94051
#
# Static dielectric constant tensor:
#      x y z
#    x 3.652200 0.000000 0.000000 
#    y 0.000000 3.793030 0.000000 
#    z 0.000000 0.000000 3.559810 
# 
# 
# High freq. dielectric constant tensor:
#      x y z
#    x 1.741990 0.000000 0.000000 
#    y 0.000000 1.751610 0.000000 
#    z 0.000000 0.000000 1.742290 
# 
# From -- ./inp_files/30820.got.cif
#   From: 2010.03.12/outbox.cif.g09.slc.cpg/sg65_16_cif.got.tgz:30820.got - 2010.04.10 20:52:16.
