data_PCOD8273361
_publ_section_title
;
Structure prediction by ZEFSAII (Michael W. Deem and Ramdas Pophale) SiO2 
 PCOD8273361
Probable space group: C M M M
;
_chemical_formula_sum "Si O2"
_cell_formula_units_Z 80
_cell_length_a 18.708095
_cell_length_b 9.229247
_cell_length_c 22.931375
_cell_angle_alpha 90.000000
_cell_angle_beta 90.000000
_cell_angle_gamma 90.000000
_cell_volume 3959.368578
_symmetry_space_group_name_H-M "C M M M"
_symmetry_group_IT_number 65
_symmetry_cell_setting 'orthorhombic'
loop_
_space_group_symop_operation_xyz
x,y,z
-x,-y,z
x,-y,-z
-x,y,-z
-x,-y,-z
x,y,-z
-x,y,z
x,-y,z
1/2+x,1/2+y,z
1/2-x,1/2-y,z
1/2+x,1/2-y,-z
1/2-x,1/2+y,-z
1/2-x,1/2-y,-z
1/2+x,1/2+y,-z
1/2-x,1/2+y,z
1/2+x,1/2-y,z
loop_
_atom_site_type_symbol
_atom_site_label
_atom_site_fract_x
_atom_site_fract_y
_atom_site_fract_z
Si Si1 0.085222 0.664933 0.000000
Si Si2 0.332683 0.277855 0.563685
Si Si3 0.822090 0.841633 0.687742
Si Si4 0.415357 0.833322 0.226990
Si Si5 0.585108 0.664843 0.113011
Si Si6 0.078495 0.500000 0.432247
O O1 0.114282 0.750501 0.056415
O O2 0.114551 0.500000 0.000000
O O3 0.000000 0.662234 0.000000
O O4 0.361865 0.336562 0.500000
O O5 0.250000 0.250000 0.553508
O O6 0.341953 0.378969 0.619969
O O7 0.374581 0.136521 0.585216
O O8 0.750000 0.750000 0.693181
O O9 0.884792 0.750257 0.717351
O O10 0.813580 0.000000 0.717739
O O11 0.500000 0.824906 0.231005
O O12 0.386824 0.752448 0.169170
O O13 0.389342 0.000000 0.225965
O O14 0.500000 0.662347 0.112256
O O15 0.614700 0.500000 0.113641
O O16 0.064444 0.500000 0.500000
O O17 0.000000 0.500000 0.400824
#
# Coordination Sequence:
#
# PCOD8273361 Si02
#       6
#     8  16  16  16  16   8
#     4   9  15  23  39  67 104 143 182 225 276 331
#     4   9  20  35  57  84 111 143 184 233 286 348
#     4  11  24  39  58  82 111 145 185 233 284 339
#     4  10  21  37  57  80 109 147 189 232 280 338
#     4   9  16  27  45  71 105 142 182 228 279 332
#     4   9  18  34  56  84 115 147 185 230 285 349
#
# _framework density 20.205241000000001
#
# number of rings (size 3 to 8) (size 9 to 14) (size 15 to 20)
#    0.000    2.400    0.000    2.100    7.000    6.000 
#    0.000    0.000    0.000    0.000    0.000    4.900 
#    0.000    0.000    0.000    0.000    0.000    0.000 
#
# Total GULP energy -495535.542809 kJ/mol
# GULP energy per Si atom -12388.388570 kJ/mol
# Density = 2.015925 g / cm^3
# Si number density = 20.205241 Si / 1000 Ang^3
#
#
#
# Elastic Constant Matrix: (Units=GPa)
#
#
# Indices 1 2 3 4 5 6 
#
# 1 54.1780 35.9130 11.9469 0.0000 0.0000 0.0000
# 2 35.9130 180.0044 56.8613 0.0000 0.0000 0.0000
# 3 11.9469 56.8613 145.1995 0.0000 0.0000 0.0000
# 4 0.0000 0.0000 0.0000 26.4619 0.0000 0.0000
# 5 0.0000 0.0000 0.0000 0.0000 12.6614 0.0000
# 6 0.0000 0.0000 0.0000 0.0000 0.0000 21.0196
#
#
#
# Elastic Compliance Matrix: (Units=1/GPa)
#
#
# Indices 1 2 3 4 5 6 
#
# 1 0.021272 -0.004212 -0.000101 0.000000 0.000000 0.000000
# 2 -0.004212 0.007174 -0.002463 0.000000 0.000000 0.000000
# 3 -0.000101 -0.002463 0.007860 0.000000 0.000000 0.000000
# 4 0.000000 0.000000 0.000000 0.037790 0.000000 0.000000
# 5 0.000000 0.000000 0.000000 0.000000 0.078980 0.000000
# 6 0.000000 0.000000 0.000000 0.000000 0.000000 0.047575
#
#
# Mechanical properties :
#
#
# Convention : Reuss Voigt Hill
#
# Bulk Modulus (GPa) = 43.94777 65.42493 54.68635
# Shear Modulus (GPa) = 22.54421 30.33930 26.44175
#
# Velocity S-wave (km/s) = 3.34392 3.87920 3.62146
# Velocity P-wave (km/s) = 6.05863 7.24670 6.67913
#
# Compressibility (1/GPa) = 0.02275428
#
# Stress axis : x y z
#
# Youngs Moduli (GPa) = 47.01006 139.39707 127.22994
#
# Poissons Ratio (x) = 0.58717 0.01281
# Poissons Ratio (y) = 0.19802 0.31333
# Poissons Ratio (z) = 0.00473 0.34330
#
# Static dielectric constant tensor:
#      x y z
#    x 3.259410 0.000000 0.000000 
#    y 0.000000 3.866040 0.000000 
#    z 0.000000 0.000000 3.926390 
# 
# 
# High freq. dielectric constant tensor:
#      x y z
#    x 1.735030 0.000000 0.000000 
#    y 0.000000 1.801220 0.000000 
#    z 0.000000 0.000000 1.797900 
# 
# From -- ./inp_files/70805.got.cif
#   From: 2010.03.12/outbox.cif.g09.slc.cpg/sg65_36_cif.got.tgz:70805.got - 2010.04.10 20:52:16.
