data_PCOD8273485
_publ_section_title
;
Structure prediction by ZEFSAII (Michael W. Deem and Ramdas Pophale) SiO2 
 PCOD8273485
Probable space group: C M M M
;
_chemical_formula_sum "Si O2"
_cell_formula_units_Z 104
_cell_length_a 18.977485
_cell_length_b 9.086661
_cell_length_c 29.234049
_cell_angle_alpha 90.000000
_cell_angle_beta 90.000000
_cell_angle_gamma 90.000000
_cell_volume 5041.177083
_symmetry_space_group_name_H-M "C M M M"
_symmetry_group_IT_number 65
_symmetry_cell_setting 'orthorhombic'
loop_
_space_group_symop_operation_xyz
x,y,z
-x,-y,z
x,-y,-z
-x,y,-z
-x,-y,-z
x,y,-z
-x,y,z
x,-y,z
1/2+x,1/2+y,z
1/2-x,1/2-y,z
1/2+x,1/2-y,-z
1/2-x,1/2+y,-z
1/2-x,1/2-y,-z
1/2+x,1/2+y,-z
1/2-x,1/2+y,z
1/2+x,1/2-y,z
loop_
_atom_site_type_symbol
_atom_site_label
_atom_site_fract_x
_atom_site_fract_y
_atom_site_fract_z
Si Si1 0.418826 0.329289 0.215837
Si Si2 0.581264 0.171340 0.620855
Si Si3 0.821187 0.829468 0.553528
Si Si4 0.849399 0.674906 0.947180
Si Si5 0.674025 0.173420 0.708985
Si Si6 0.500000 0.828043 0.052163
Si Si7 0.313143 0.331057 0.139523
O O1 0.500000 0.276282 0.215729
O O2 0.413021 0.500000 0.230347
O O3 0.372628 0.231555 0.249421
O O4 0.387492 0.305412 0.164895
O O5 0.500000 0.216575 0.630387
O O6 0.610415 0.262595 0.577967
O O7 0.629212 0.211981 0.664077
O O8 0.586482 0.000000 0.608826
O O9 0.832542 0.803734 0.500000
O O10 0.750000 0.750000 0.570722
O O11 0.813774 0.000000 0.566146
O O12 0.840416 0.500000 0.942288
O O13 0.803595 0.764333 0.911497
O O14 0.926398 0.731297 0.928850
O O15 0.833978 0.721427 0.000000
O O16 0.750000 0.250000 0.706381
O O17 0.685785 0.000000 0.714869
O O18 0.500000 0.000000 0.058405
O O19 0.500000 0.784259 0.000000
O O20 0.293764 0.500000 0.136125
O O21 0.250000 0.250000 0.167890
#
# Coordination Sequence:
#
# PCOD8273485 Si02
#       7
#    16  16  16  16  16   8  16
#     4  10  23  43  65  90 120 152 189 238 294 350
#     4  10  22  39  59  87 123 160 201 250 302 358
#     4  10  21  37  58  85 118 159 209 260 308 362
#     4   9  18  34  57  84 114 148 188 233 280 334
#     4  11  23  40  64  93 123 156 197 243 293 352
#     4   7  12  26  49  77 107 137 171 215 265 319
#     4  11  24  40  59  83 116 153 191 234 282 340
#
# _framework density 20.630102000000001
#
# number of rings (size 3 to 8) (size 9 to 14) (size 15 to 20)
#    0.000    2.077    0.000    3.692    1.077    8.000 
#    0.000    1.538    0.000    1.385    0.000    0.000 
#    0.000    0.000    0.000    0.000    0.000    0.000 
#
# Total GULP energy -644337.011618 kJ/mol
# GULP energy per Si atom -12391.096377 kJ/mol
# Density = 2.058315 g / cm^3
# Si number density = 20.630102 Si / 1000 Ang^3
#
#
#
# Elastic Constant Matrix: (Units=GPa)
#
#
# Indices 1 2 3 4 5 6 
#
# 1 181.3826 70.0121 60.9504 0.0000 0.0000 0.0000
# 2 70.0121 100.6133 59.5594 0.0000 0.0000 0.0000
# 3 60.9504 59.5594 94.7286 0.0000 0.0000 0.0000
# 4 0.0000 0.0000 0.0000 29.6322 0.0000 0.0000
# 5 0.0000 0.0000 0.0000 0.0000 29.2559 0.0000
# 6 0.0000 0.0000 0.0000 0.0000 0.0000 31.3113
#
#
#
# Elastic Compliance Matrix: (Units=1/GPa)
#
#
# Indices 1 2 3 4 5 6 
#
# 1 0.007920 -0.003973 -0.002598 0.000000 0.000000 0.000000
# 2 -0.003973 0.017825 -0.008651 0.000000 0.000000 0.000000
# 3 -0.002598 -0.008651 0.017667 0.000000 0.000000 0.000000
# 4 0.000000 0.000000 0.000000 0.033747 0.000000 0.000000
# 5 0.000000 0.000000 0.000000 0.000000 0.034181 0.000000
# 6 0.000000 0.000000 0.000000 0.000000 0.000000 0.031937
#
#
# Mechanical properties :
#
#
# Convention : Reuss Voigt Hill
#
# Bulk Modulus (GPa) = 77.11094 84.19649 80.65371
# Shear Modulus (GPa) = 28.08322 30.45339 29.26831
#
# Velocity S-wave (km/s) = 3.69355 3.84625 3.77067
# Velocity P-wave (km/s) = 7.45981 7.78627 7.62478
#
# Compressibility (1/GPa) = 0.01296833
#
# Stress axis : x y z
#
# Youngs Moduli (GPa) = 126.26680 56.10201 56.60363
#
# Poissons Ratio (x) = 0.22291 0.14703
# Poissons Ratio (y) = 0.50170 0.48965
# Poissons Ratio (z) = 0.32799 0.48531
#
# Static dielectric constant tensor:
#      x y z
#    x 4.272770 0.000000 0.000000 
#    y 0.000000 3.583050 0.000000 
#    z 0.000000 0.000000 3.648320 
# 
# 
# High freq. dielectric constant tensor:
#      x y z
#    x 1.832950 0.000000 0.000000 
#    y 0.000000 1.796660 0.000000 
#    z 0.000000 0.000000 1.800490 
# 
# From -- ./inp_files/75469.got.cif
#   From: 2010.03.12/outbox.cif.g09.slc.cpg/sg65_38_cif.got.tgz:75469.got - 2010.04.10 20:52:16.
