data_PCOD8273948
_publ_section_title
;
Structure prediction by ZEFSAII (Michael W. Deem and Ramdas Pophale) SiO2 
 PCOD8273948
Probable space group: C M M M
;
_chemical_formula_sum "Si O2"
_cell_formula_units_Z 72
_cell_length_a 19.935528
_cell_length_b 19.243259
_cell_length_c 9.766954
_cell_angle_alpha 90.000000
_cell_angle_beta 90.000000
_cell_angle_gamma 90.000000
_cell_volume 3746.843124
_symmetry_space_group_name_H-M "C M M M"
_symmetry_group_IT_number 65
_symmetry_cell_setting 'orthorhombic'
loop_
_space_group_symop_operation_xyz
x,y,z
-x,-y,z
x,-y,-z
-x,y,-z
-x,-y,-z
x,y,-z
-x,y,z
x,-y,z
1/2+x,1/2+y,z
1/2-x,1/2-y,z
1/2+x,1/2-y,-z
1/2-x,1/2+y,-z
1/2-x,1/2-y,-z
1/2+x,1/2+y,-z
1/2-x,1/2+y,z
1/2+x,1/2-y,z
loop_
_atom_site_type_symbol
_atom_site_label
_atom_site_fract_x
_atom_site_fract_y
_atom_site_fract_z
Si Si1 0.079711 0.576632 0.153383
Si Si2 0.145867 0.920047 0.162602
Si Si3 0.000000 0.918671 0.852365
Si Si4 0.808207 0.197118 0.342312
Si Si5 0.576459 0.801494 0.343272
O O1 0.106823 0.500000 0.195466
O O2 0.107387 0.634913 0.255994
O O3 0.000000 0.575778 0.159859
O O4 0.104105 0.594743 0.000000
O O5 0.196769 0.870669 0.245473
O O6 0.070707 0.901160 0.221344
O O7 0.164413 0.000000 0.194212
O O8 0.150351 0.905962 0.000000
O O9 0.000000 0.000000 0.880517
O O10 0.000000 0.880621 0.000000
O O11 0.799391 0.174087 0.500000
O O12 0.750000 0.250000 0.298932
O O13 0.879808 0.233365 0.317095
O O14 0.580600 0.825623 0.500000
O O15 0.500000 0.783602 0.300333
#
# Coordination Sequence:
#
# PCOD8273948 Si02
#       5
#    16  16   8  16  16
#     4   8  14  26  45  70  99 127 158 202 253 300
#     4   9  18  34  57  83 109 138 176 221 268 321
#     4   7  12  26  49  79 111 135 160 207 268 319
#     4  10  22  38  53  73 107 145 177 214 265 318
#     4   9  18  32  50  72  97 128 170 215 256 305
#
# _framework density 19.216177999999999
#
# number of rings (size 3 to 8) (size 9 to 14) (size 15 to 20)
#    0.000    3.222    0.000    2.000    1.556    2.222 
#    0.000    3.333    0.000    8.667    0.000    0.000 
#    0.000    0.000    0.000    0.000    0.000    0.000 
#
# Total GULP energy -446063.013993 kJ/mol
# GULP energy per Si atom -12390.639278 kJ/mol
# Density = 1.917244 g / cm^3
# Si number density = 19.216178 Si / 1000 Ang^3
#
#
#
# Elastic Constant Matrix: (Units=GPa)
#
#
# Indices 1 2 3 4 5 6 
#
# 1 61.2801 39.8522 29.4188 0.0000 0.0000 0.0000
# 2 39.8522 115.5546 70.0389 0.0000 0.0000 0.0000
# 3 29.4188 70.0389 77.1779 0.0000 0.0000 0.0000
# 4 0.0000 0.0000 0.0000 37.4709 0.0000 0.0000
# 5 0.0000 0.0000 0.0000 0.0000 9.9836 0.0000
# 6 0.0000 0.0000 0.0000 0.0000 0.0000 22.5401
#
#
#
# Elastic Compliance Matrix: (Units=1/GPa)
#
#
# Indices 1 2 3 4 5 6 
#
# 1 0.021396 -0.005413 -0.003243 0.000000 0.000000 0.000000
# 2 -0.005413 0.020602 -0.016633 0.000000 0.000000 0.000000
# 3 -0.003243 -0.016633 0.029288 0.000000 0.000000 0.000000
# 4 0.000000 0.000000 0.000000 0.026687 0.000000 0.000000
# 5 0.000000 0.000000 0.000000 0.000000 0.100164 0.000000
# 6 0.000000 0.000000 0.000000 0.000000 0.000000 0.044365
#
#
# Mechanical properties :
#
#
# Convention : Reuss Voigt Hill
#
# Bulk Modulus (GPa) = 48.29309 59.18137 53.73723
# Shear Modulus (GPa) = 16.66753 21.64577 19.15665
#
# Velocity S-wave (km/s) = 2.94831 3.35988 3.16080
# Velocity P-wave (km/s) = 6.06433 6.77616 6.43010
#
# Compressibility (1/GPa) = 0.02070690
#
# Stress axis : x y z
#
# Youngs Moduli (GPa) = 46.73799 48.53808 34.14370
#
# Poissons Ratio (x) = 0.26275 0.11074
# Poissons Ratio (y) = 0.25300 0.56792
# Poissons Ratio (z) = 0.15158 0.80734
#
# Static dielectric constant tensor:
#      x y z
#    x 3.394590 0.000000 0.000000 
#    y 0.000000 3.484670 0.000000 
#    z 0.000000 0.000000 3.386350 
# 
# 
# High freq. dielectric constant tensor:
#      x y z
#    x 1.725030 0.000000 0.000000 
#    y 0.000000 1.741430 0.000000 
#    z 0.000000 0.000000 1.729140 
# 
# From -- ./inp_files/11269.got.cif
#   From: 2010.03.12/outbox.cif.g09.slc.cpg/sg65_6_cif.got.tgz:11269.got - 2010.04.10 20:52:16.
