data_PCOD8273259
_publ_section_title
;
Structure prediction by ZEFSAII (Michael W. Deem and Ramdas Pophale) SiO2 
 PCOD8273259
Probable space group: C M M M
;
_chemical_formula_sum "Si O2"
_cell_formula_units_Z 88
_cell_length_a 8.838620
_cell_length_b 21.970492
_cell_length_c 24.133200
_cell_angle_alpha 90.000000
_cell_angle_beta 90.000000
_cell_angle_gamma 90.000000
_cell_volume 4686.397872
_symmetry_space_group_name_H-M "C M M M"
_symmetry_group_IT_number 65
_symmetry_cell_setting 'orthorhombic'
loop_
_space_group_symop_operation_xyz
x,y,z
-x,-y,z
x,-y,-z
-x,y,-z
-x,-y,-z
x,y,-z
-x,y,z
x,-y,z
1/2+x,1/2+y,z
1/2-x,1/2-y,z
1/2+x,1/2-y,-z
1/2-x,1/2+y,-z
1/2-x,1/2-y,-z
1/2+x,1/2+y,-z
1/2-x,1/2+y,z
1/2+x,1/2-y,z
loop_
_atom_site_type_symbol
_atom_site_label
_atom_site_fract_x
_atom_site_fract_y
_atom_site_fract_z
Si Si1 0.821849 0.500000 0.437984
Si Si2 0.178241 0.431008 0.868894
Si Si3 0.326348 0.187713 0.440388
Si Si4 0.822018 0.313283 0.064089
Si Si5 0.669175 0.570788 0.244397
Si Si6 0.323425 0.398424 0.364582
O O1 0.750632 0.500000 0.500000
O O2 0.771863 0.557605 0.403226
O O3 0.000000 0.500000 0.442395
O O4 0.241720 0.500000 0.883933
O O5 0.241474 0.375524 0.907029
O O6 0.220742 0.413487 0.806227
O O7 0.000000 0.433516 0.875044
O O8 0.321589 0.150901 0.500000
O O9 0.500000 0.192412 0.419969
O O10 0.250000 0.250000 0.455365
O O11 0.218574 0.165627 0.390682
O O12 0.750000 0.250000 0.087543
O O13 0.000000 0.308001 0.073842
O O14 0.778631 0.320265 0.000000
O O15 0.500000 0.593124 0.228924
O O16 0.668642 0.500000 0.257867
O O17 0.729305 0.602340 0.300450
O O18 0.500000 0.414891 0.367767
#
# Coordination Sequence:
#
# PCOD8273259 Si02
#       6
#     8  16  16  16  16  16
#     4  11  23  35  49  75 107 135 166 209 260 313
#     4   9  18  32  52  79 106 137 180 223 266 316
#     4  10  21  37  55  75  99 129 167 211 261 316
#     4   9  18  33  53  78 110 145 179 218 265 318
#     4   9  18  34  52  73 103 137 172 211 259 310
#     4  11  21  35  54  76 102 134 171 211 259 315
#
# _framework density 18.777747000000002
#
# number of rings (size 3 to 8) (size 9 to 14) (size 15 to 20)
#    0.000    2.273    0.909    1.909    0.000    6.545 
#    0.000    2.727    0.000    2.182    0.000    5.091 
#    0.000    0.000    0.000    0.000    0.000    0.000 
#
# Total GULP energy -545082.109095 kJ/mol
# GULP energy per Si atom -12388.229752 kJ/mol
# Density = 1.873501 g / cm^3
# Si number density = 18.777747 Si / 1000 Ang^3
#
#
#
# Elastic Constant Matrix: (Units=GPa)
#
#
# Indices 1 2 3 4 5 6 
#
# 1 38.2153 21.5581 25.0983 0.0000 0.0000 0.0000
# 2 21.5581 106.2110 66.3872 0.0000 0.0000 0.0000
# 3 25.0983 66.3872 108.8965 0.0000 0.0000 0.0000
# 4 0.0000 0.0000 0.0000 40.9779 0.0000 0.0000
# 5 0.0000 0.0000 0.0000 0.0000 27.6426 0.0000
# 6 0.0000 0.0000 0.0000 0.0000 0.0000 29.7219
#
#
#
# Elastic Compliance Matrix: (Units=1/GPa)
#
#
# Indices 1 2 3 4 5 6 
#
# 1 0.031412 -0.002990 -0.005417 0.000000 0.000000 0.000000
# 2 -0.002990 0.015496 -0.008758 0.000000 0.000000 0.000000
# 3 -0.005417 -0.008758 0.015771 0.000000 0.000000 0.000000
# 4 0.000000 0.000000 0.000000 0.024403 0.000000 0.000000
# 5 0.000000 0.000000 0.000000 0.000000 0.036176 0.000000
# 6 0.000000 0.000000 0.000000 0.000000 0.000000 0.033645
#
#
# Mechanical properties :
#
#
# Convention : Reuss Voigt Hill
#
# Bulk Modulus (GPa) = 35.27447 53.26777 44.27112
# Shear Modulus (GPa) = 24.91490 29.02043 26.96767
#
# Velocity S-wave (km/s) = 3.64652 3.93551 3.79377
# Velocity P-wave (km/s) = 6.04612 7.00572 6.54353
#
# Compressibility (1/GPa) = 0.02834912
#
# Stress axis : x y z
#
# Youngs Moduli (GPa) = 31.83505 64.53163 63.40856
#
# Poissons Ratio (x) = 0.19294 0.34349
# Poissons Ratio (y) = 0.09518 0.55533
# Poissons Ratio (z) = 0.17245 0.56517
#
# Static dielectric constant tensor:
#      x y z
#    x 3.313480 0.000000 0.000000 
#    y 0.000000 4.451520 0.000000 
#    z 0.000000 0.000000 3.489700 
# 
# 
# High freq. dielectric constant tensor:
#      x y z
#    x 1.720210 0.000000 0.000000 
#    y 0.000000 1.721940 0.000000 
#    z 0.000000 0.000000 1.727480 
# 
# From -- ./inp_files/59799.got.cif
#   From: 2010.03.12/outbox.cif.g09.slc.cpg/sg65_30_cif.got.tgz:59799.got - 2010.04.10 20:52:16.
