data_PCOD8273678
_publ_section_title
;
Structure prediction by ZEFSAII (Michael W. Deem and Ramdas Pophale) SiO2 
 PCOD8273678
Probable space group: C M M M
;
_chemical_formula_sum "Si O2"
_cell_formula_units_Z 88
_cell_length_a 23.879892
_cell_length_b 8.355419
_cell_length_c 22.617886
_cell_angle_alpha 90.000000
_cell_angle_beta 90.000000
_cell_angle_gamma 90.000000
_cell_volume 4512.867706
_symmetry_space_group_name_H-M "C M M M"
_symmetry_group_IT_number 65
_symmetry_cell_setting 'orthorhombic'
loop_
_space_group_symop_operation_xyz
x,y,z
-x,-y,z
x,-y,-z
-x,y,-z
-x,-y,-z
x,y,-z
-x,y,z
x,-y,z
1/2+x,1/2+y,z
1/2-x,1/2-y,z
1/2+x,1/2-y,-z
1/2-x,1/2+y,-z
1/2-x,1/2-y,-z
1/2+x,1/2+y,-z
1/2-x,1/2+y,z
1/2+x,1/2-y,z
loop_
_atom_site_type_symbol
_atom_site_label
_atom_site_fract_x
_atom_site_fract_y
_atom_site_fract_z
Si Si1 0.188124 0.684204 0.433279
Si Si2 0.500000 0.680662 0.685908
Si Si3 0.378745 0.687368 0.327419
Si Si4 0.102710 0.812900 0.874157
Si Si5 0.000000 0.319413 0.192346
Si Si6 0.563394 0.687409 0.000000
Si Si7 0.312341 0.812538 0.215320
O O1 0.165239 0.704733 0.500000
O O2 0.187232 0.500000 0.413402
O O3 0.250000 0.750000 0.428593
O O4 0.150737 0.788256 0.389833
O O5 0.500000 0.500000 0.663381
O O6 0.558310 0.760006 0.664080
O O7 0.500000 0.688570 0.756477
O O8 0.380706 0.500000 0.311124
O O9 0.348052 0.776949 0.274067
O O10 0.055152 0.705270 0.845489
O O11 0.100888 0.763345 0.943254
O O12 0.161647 0.771032 0.843019
O O13 0.089549 0.000000 0.865761
O O14 0.000000 0.500000 0.217716
O O15 0.553942 0.500000 0.000000
O O16 0.500000 0.764194 0.000000
O O17 0.250000 0.750000 0.225620
O O18 0.310989 0.000000 0.204251
#
# Coordination Sequence:
#
# PCOD8273678 Si02
#       7
#    16   8  16  16   8   8  16
#     4  10  21  38  60  86 117 154 196 243 292 342
#     4  10  22  38  58  84 118 157 194 234 288 347
#     4  11  22  38  61  88 118 154 194 239 290 344
#     4  11  21  38  61  86 118 153 194 241 290 345
#     4  12  22  33  55  87 120 156 191 237 292 345
#     4   9  18  34  59  88 115 152 193 233 286 346
#     4  12  25  41  60  86 117 152 195 240 294 350
#
# _framework density 19.499796
#
# number of rings (size 3 to 8) (size 9 to 14) (size 15 to 20)
#    0.000    1.182    2.727    4.636    0.000    1.818 
#    0.000    3.182    0.000    2.727    0.000    0.000 
#    0.000    0.000    0.000    0.000    0.000    0.000 
#
# Total GULP energy -545512.577217 kJ/mol
# GULP energy per Si atom -12398.013119 kJ/mol
# Density = 1.945541 g / cm^3
# Si number density = 19.499796 Si / 1000 Ang^3
#
#
#
# Elastic Constant Matrix: (Units=GPa)
#
#
# Indices 1 2 3 4 5 6 
#
# 1 120.3358 15.8829 48.5028 0.0000 0.0000 0.0000
# 2 15.8829 62.9134 13.8917 0.0000 0.0000 0.0000
# 3 48.5028 13.8917 113.5355 0.0000 0.0000 0.0000
# 4 0.0000 0.0000 0.0000 26.1034 0.0000 0.0000
# 5 0.0000 0.0000 0.0000 0.0000 35.0208 0.0000
# 6 0.0000 0.0000 0.0000 0.0000 0.0000 24.0620
#
#
#
# Elastic Compliance Matrix: (Units=1/GPa)
#
#
# Indices 1 2 3 4 5 6 
#
# 1 0.010204 -0.001658 -0.004156 0.000000 0.000000 0.000000
# 2 -0.001658 0.016606 -0.001323 0.000000 0.000000 0.000000
# 3 -0.004156 -0.001323 0.010745 0.000000 0.000000 0.000000
# 4 0.000000 0.000000 0.000000 0.038309 0.000000 0.000000
# 5 0.000000 0.000000 0.000000 0.000000 0.028554 0.000000
# 6 0.000000 0.000000 0.000000 0.000000 0.000000 0.041559
#
#
# Mechanical properties :
#
#
# Convention : Reuss Voigt Hill
#
# Bulk Modulus (GPa) = 42.95694 50.37109 46.66401
# Shear Modulus (GPa) = 29.75938 31.60438 30.68188
#
# Velocity S-wave (km/s) = 3.91082 4.03023 3.97097
# Velocity P-wave (km/s) = 6.51690 6.89526 6.70875
#
# Compressibility (1/GPa) = 0.02327913
#
# Stress axis : x y z
#
# Youngs Moduli (GPa) = 97.99843 60.22017 93.06341
#
# Poissons Ratio (x) = 0.09987 0.38681
# Poissons Ratio (y) = 0.16252 0.12316
# Poissons Ratio (z) = 0.40732 0.07969
#
# Static dielectric constant tensor:
#      x y z
#    x 4.123700 0.000000 0.000000 
#    y 0.000000 3.505160 0.000000 
#    z 0.000000 0.000000 3.681820 
# 
# 
# High freq. dielectric constant tensor:
#      x y z
#    x 1.758780 0.000000 0.000000 
#    y 0.000000 1.758620 0.000000 
#    z 0.000000 0.000000 1.756650 
# 
# From -- ./inp_files/65213.got.cif
#   From: 2010.03.12/outbox.cif.g09.slc.cpg/sg65_33_cif.got.tgz:65213.got - 2010.04.10 20:52:16.
