data_PCOD8273100
_publ_section_title
;
Structure prediction by ZEFSAII (Michael W. Deem and Ramdas Pophale) SiO2 
 PCOD8273100
Probable space group: C M M M
;
_chemical_formula_sum "Si O2"
_cell_formula_units_Z 88
_cell_length_a 23.972119
_cell_length_b 20.071784
_cell_length_c 9.657641
_cell_angle_alpha 90.000000
_cell_angle_beta 90.000000
_cell_angle_gamma 90.000000
_cell_volume 4646.901396
_symmetry_space_group_name_H-M "C M M M"
_symmetry_group_IT_number 65
_symmetry_cell_setting 'orthorhombic'
loop_
_space_group_symop_operation_xyz
x,y,z
-x,-y,z
x,-y,-z
-x,y,-z
-x,-y,-z
x,y,-z
-x,y,z
x,-y,z
1/2+x,1/2+y,z
1/2-x,1/2-y,z
1/2+x,1/2-y,-z
1/2-x,1/2+y,-z
1/2-x,1/2-y,-z
1/2+x,1/2+y,-z
1/2-x,1/2+y,z
1/2+x,1/2-y,z
loop_
_atom_site_type_symbol
_atom_site_label
_atom_site_fract_x
_atom_site_fract_y
_atom_site_fract_z
Si Si1 0.250586 0.828075 0.337180
Si Si2 0.678681 0.926460 0.159038
Si Si3 0.561315 0.878915 0.156295
Si Si4 0.563767 0.246292 0.655931
Si Si5 0.628621 0.628789 0.663624
Si Si6 0.064238 0.000000 0.665394
O O1 0.263033 0.833869 0.500000
O O2 0.250000 0.750000 0.293769
O O3 0.298115 0.867726 0.255155
O O4 0.193453 0.865721 0.296179
O O5 0.611333 0.931125 0.175968
O O6 0.701390 0.000000 0.201511
O O7 0.694705 0.910622 0.000000
O O8 0.500000 0.910388 0.191721
O O9 0.574889 0.818133 0.255246
O O10 0.560676 0.851432 0.000000
O O11 0.584491 0.230872 0.500000
O O12 0.500000 0.268981 0.656063
O O13 0.598494 0.306133 0.724203
O O14 0.620870 0.628145 0.500000
O O15 0.598389 0.563397 0.725021
O O16 0.064467 0.000000 0.500000
O O17 0.000000 0.000000 0.718978
#
# Coordination Sequence:
#
# PCOD8273100 Si02
#       6
#    16  16  16  16  16   8
#     4  10  21  36  55  79 107 140 179 221 265 318
#     4  10  22  38  55  77 106 138 175 219 265 316
#     4   9  18  33  53  76 101 131 168 210 259 312
#     4   9  16  28  49  76 104 132 165 210 260 305
#     4   9  17  28  45  70 101 134 169 209 257 310
#     4   9  16  26  42  68 101 133 168 211 256 306
#
# _framework density 18.937351
#
# number of rings (size 3 to 8) (size 9 to 14) (size 15 to 20)
#    0.000    2.636    0.000    1.636    1.273    5.455 
#    0.000    2.727    0.000    0.000    0.000    3.818 
#    0.000    4.364    0.000    0.000    0.000    0.000 
#
# Total GULP energy -545309.933234 kJ/mol
# GULP energy per Si atom -12393.407573 kJ/mol
# Density = 1.889425 g / cm^3
# Si number density = 18.937351 Si / 1000 Ang^3
#
#
#
# Elastic Constant Matrix: (Units=GPa)
#
#
# Indices 1 2 3 4 5 6 
#
# 1 103.6424 52.8319 28.3528 0.0000 0.0000 0.0000
# 2 52.8319 108.2396 41.0093 0.0000 0.0000 0.0000
# 3 28.3528 41.0093 48.2172 0.0000 0.0000 0.0000
# 4 0.0000 0.0000 0.0000 -15.9639 0.0000 0.0000
# 5 0.0000 0.0000 0.0000 0.0000 20.9747 0.0000
# 6 0.0000 0.0000 0.0000 0.0000 0.0000 34.1782
#
#
#
# Elastic Compliance Matrix: (Units=1/GPa)
#
#
# Indices 1 2 3 4 5 6 
#
# 1 0.013205 -0.005169 -0.003368 0.000000 0.000000 0.000000
# 2 -0.005169 0.015655 -0.010275 0.000000 0.000000 0.000000
# 3 -0.003368 -0.010275 0.031459 0.000000 0.000000 0.000000
# 4 0.000000 0.000000 0.000000 -0.062641 0.000000 0.000000
# 5 0.000000 0.000000 0.000000 0.000000 0.047676 0.000000
# 6 0.000000 0.000000 0.000000 0.000000 0.000000 0.029258
#
#
# Mechanical properties :
#
#
# Convention : Reuss Voigt Hill
#
# Bulk Modulus (GPa) = 44.06477 56.05414 50.05946
# Shear Modulus (GPa) = 41.73535 17.03148 29.38341
#
# Velocity S-wave (km/s) = 4.69963 3.00218 3.94332
# Velocity P-wave (km/s) = 7.26415 6.45612 6.87202
#
# Compressibility (1/GPa) = 0.02269386
#
# Stress axis : x y z
#
# Youngs Moduli (GPa) = 75.72862 63.87821 31.78720
#
# Poissons Ratio (x) = 0.33020 0.10707
# Poissons Ratio (y) = 0.39146 0.32661
# Poissons Ratio (z) = 0.25508 0.65635
#
# Static dielectric constant tensor:
#      x y z
#    x 3.652850 0.000000 0.000000 
#    y 0.000000 3.477820 0.000000 
#    z 0.000000 0.000000 3.123180 
# 
# 
# High freq. dielectric constant tensor:
#      x y z
#    x 1.750710 0.000000 0.000000 
#    y 0.000000 1.734970 0.000000 
#    z 0.000000 0.000000 1.693140 
# 
# From -- ./inp_files/11721.got.cif
#   From: 2010.03.12/outbox.cif.g09.slc.cpg/sg65_6_cif.got.tgz:11721.got - 2010.04.10 20:52:16.
