data_PCOD8273255
_publ_section_title
;
Structure prediction by ZEFSAII (Michael W. Deem and Ramdas Pophale) SiO2 
 PCOD8273255
Probable space group: C M M M
;
_chemical_formula_sum "Si O2"
_cell_formula_units_Z 88
_cell_length_a 8.876441
_cell_length_b 17.881086
_cell_length_c 28.779583
_cell_angle_alpha 90.000000
_cell_angle_beta 90.000000
_cell_angle_gamma 90.000000
_cell_volume 4567.907066
_symmetry_space_group_name_H-M "C M M M"
_symmetry_group_IT_number 65
_symmetry_cell_setting 'orthorhombic'
loop_
_space_group_symop_operation_xyz
x,y,z
-x,-y,z
x,-y,-z
-x,y,-z
-x,-y,-z
x,y,-z
-x,y,z
x,-y,z
1/2+x,1/2+y,z
1/2-x,1/2-y,z
1/2+x,1/2-y,-z
1/2-x,1/2+y,-z
1/2-x,1/2-y,-z
1/2+x,1/2+y,-z
1/2-x,1/2+y,z
1/2+x,1/2-y,z
loop_
_atom_site_type_symbol
_atom_site_label
_atom_site_fract_x
_atom_site_fract_y
_atom_site_fract_z
Si Si1 0.173401 0.587570 0.592676
Si Si2 0.823069 0.330223 0.950982
Si Si3 0.677700 0.169676 0.500000
Si Si4 0.822179 0.829974 0.324425
Si Si5 0.677462 0.914194 0.759679
Si Si6 0.323054 0.830434 0.850727
O O1 0.193132 0.500000 0.586073
O O2 0.231992 0.625768 0.545584
O O3 0.276528 0.613742 0.634890
O O4 0.000000 0.608556 0.603366
O O5 0.750000 0.250000 0.952248
O O6 0.775486 0.366777 0.901302
O O7 0.000000 0.318931 0.950632
O O8 0.777285 0.372875 0.000000
O O9 0.500000 0.177741 0.500000
O O10 0.750000 0.250000 0.500000
O O11 0.750000 0.750000 0.334604
O O12 0.765953 0.862185 0.275764
O O13 0.000000 0.820939 0.322767
O O14 0.500000 0.904130 0.751243
O O15 0.726426 0.888891 0.811310
O O16 0.725928 0.000000 0.752836
O O17 0.500000 0.817008 0.848474
O O18 0.250000 0.750000 0.841851
#
# Coordination Sequence:
#
# PCOD8273255 Si02
#       6
#    16  16   8  16  16  16
#     4  10  21  39  62  87 117 151 185 222 267 317
#     4   8  13  22  38  62  92 123 157 201 251 301
#     4  10  21  37  59  87 117 152 191 228 266 310
#     4  12  25  40  59  83 110 140 178 222 268 319
#     4  10  21  37  55  75 103 139 176 216 265 318
#     4   9  17  29  47  71  97 128 167 210 257 309
#
# _framework density 19.264841000000001
#
# number of rings (size 3 to 8) (size 9 to 14) (size 15 to 20)
#    0.000    2.182    0.000    3.545    0.000    8.364 
#    0.000    0.000    0.000    2.182    0.000    3.818 
#    0.000    0.000    0.000   31.091    0.000   15.636 
#
# Total GULP energy -545256.987945 kJ/mol
# GULP energy per Si atom -12392.204271 kJ/mol
# Density = 1.922099 g / cm^3
# Si number density = 19.264841 Si / 1000 Ang^3
#
#
#
# Elastic Constant Matrix: (Units=GPa)
#
#
# Indices 1 2 3 4 5 6 
#
# 1 48.8072 22.9421 37.0299 0.0000 0.0000 0.0000
# 2 22.9421 76.0795 35.5118 0.0000 0.0000 0.0000
# 3 37.0299 35.5118 157.0962 0.0000 0.0000 0.0000
# 4 0.0000 0.0000 0.0000 15.6476 0.0000 0.0000
# 5 0.0000 0.0000 0.0000 0.0000 7.1945 0.0000
# 6 0.0000 0.0000 0.0000 0.0000 0.0000 24.7388
#
#
#
# Elastic Compliance Matrix: (Units=1/GPa)
#
#
# Indices 1 2 3 4 5 6 
#
# 1 0.027057 -0.005794 -0.005068 0.000000 0.000000 0.000000
# 2 -0.005794 0.015935 -0.002237 0.000000 0.000000 0.000000
# 3 -0.005068 -0.002237 0.008066 0.000000 0.000000 0.000000
# 4 0.000000 0.000000 0.000000 0.063908 0.000000 0.000000
# 5 0.000000 0.000000 0.000000 0.000000 0.138994 0.000000
# 6 0.000000 0.000000 0.000000 0.000000 0.000000 0.040422
#
#
# Mechanical properties :
#
#
# Convention : Reuss Voigt Hill
#
# Bulk Modulus (GPa) = 40.22252 52.55004 46.38628
# Shear Modulus (GPa) = 15.20375 21.94945 18.57660
#
# Velocity S-wave (km/s) = 2.81231 3.37909 3.10865
# Velocity P-wave (km/s) = 5.60977 6.52390 6.08403
#
# Compressibility (1/GPa) = 0.02486169
#
# Stress axis : x y z
#
# Youngs Moduli (GPa) = 36.95862 62.75427 123.98121
#
# Poissons Ratio (x) = 0.36357 0.62836
# Poissons Ratio (y) = 0.21412 0.27729
# Poissons Ratio (z) = 0.18731 0.14035
#
# Static dielectric constant tensor:
#      x y z
#    x 3.432110 0.000000 0.000000 
#    y 0.000000 3.309910 0.000000 
#    z 0.000000 0.000000 4.302700 
# 
# 
# High freq. dielectric constant tensor:
#      x y z
#    x 1.736840 0.000000 0.000000 
#    y 0.000000 1.724560 0.000000 
#    z 0.000000 0.000000 1.783430 
# 
# From -- ./inp_files/76429.got.cif
#   From: 2010.03.12/outbox.cif.g09.slc.cpg/sg65_39_cif.got.tgz:76429.got - 2010.04.10 20:52:16.
