data_PCOD8273939
_publ_section_title
;
Structure prediction by ZEFSAII (Michael W. Deem and Ramdas Pophale) SiO2 
 PCOD8273939
Probable space group: C M M M
;
_chemical_formula_sum "Si O2"
_cell_formula_units_Z 64
_cell_length_a 8.818621
_cell_length_b 21.415541
_cell_length_c 17.320906
_cell_angle_alpha 90.000000
_cell_angle_beta 90.000000
_cell_angle_gamma 90.000000
_cell_volume 3271.149049
_symmetry_space_group_name_H-M "C M M M"
_symmetry_group_IT_number 65
_symmetry_cell_setting 'orthorhombic'
loop_
_space_group_symop_operation_xyz
x,y,z
-x,-y,z
x,-y,-z
-x,y,-z
-x,-y,-z
x,y,-z
-x,y,z
x,-y,z
1/2+x,1/2+y,z
1/2-x,1/2-y,z
1/2+x,1/2-y,-z
1/2-x,1/2+y,-z
1/2-x,1/2-y,-z
1/2+x,1/2+y,-z
1/2-x,1/2+y,z
1/2+x,1/2-y,z
loop_
_atom_site_type_symbol
_atom_site_label
_atom_site_fract_x
_atom_site_fract_y
_atom_site_fract_z
Si Si1 0.819981 0.069610 0.912251
Si Si2 0.681017 0.000000 0.592122
Si Si3 0.821650 0.877533 0.356456
Si Si4 0.676836 0.815029 0.500000
Si Si5 0.178100 0.182423 0.193408
O O1 0.754671 0.127010 0.861189
O O2 0.000000 0.070063 0.905664
O O3 0.763009 0.000000 0.885257
O O4 0.767444 0.081252 0.000000
O O5 0.755176 0.053645 0.643965
O O6 0.500000 0.000000 0.597892
O O7 0.727570 0.000000 0.500000
O O8 0.727807 0.848528 0.424351
O O9 0.783384 0.838738 0.279907
O O10 0.000000 0.878005 0.373383
O O11 0.500000 0.809478 0.500000
O O12 0.750000 0.750000 0.500000
O O13 0.250000 0.250000 0.174791
O O14 0.000000 0.189492 0.180090
#
# Coordination Sequence:
#
# PCOD8273939 Si02
#       5
#    16   8  16   8  16
#     4   8  15  31  57  86 115 149 191 236 281 335
#     4  11  23  39  59  85 113 146 187 239 294 350
#     4  11  23  38  58  83 112 149 191 240 288 341
#     4  12  24  39  58  79 108 148 194 240 288 348
#     4  10  22  37  57  86 118 151 192 238 287 342
#
# _framework density 19.564990999999999
#
# number of rings (size 3 to 8) (size 9 to 14) (size 15 to 20)
#    0.000    1.875    1.250    3.750    1.750    5.000 
#    0.000    0.000    0.000    0.000    0.000    1.750 
#    0.000    0.000    0.000    0.000    0.000    0.000 
#
# Total GULP energy -396482.613924 kJ/mol
# GULP energy per Si atom -12390.081685 kJ/mol
# Density = 1.952046 g / cm^3
# Si number density = 19.564991 Si / 1000 Ang^3
#
#
#
# Elastic Constant Matrix: (Units=GPa)
#
#
# Indices 1 2 3 4 5 6 
#
# 1 77.5456 47.2163 42.2550 0.0000 0.0000 0.0000
# 2 47.2163 191.4115 69.4645 0.0000 0.0000 0.0000
# 3 42.2550 69.4645 95.8314 0.0000 0.0000 0.0000
# 4 0.0000 0.0000 0.0000 62.4846 0.0000 0.0000
# 5 0.0000 0.0000 0.0000 0.0000 80.7096 0.0000
# 6 0.0000 0.0000 0.0000 0.0000 0.0000 37.4405
#
#
#
# Elastic Compliance Matrix: (Units=1/GPa)
#
#
# Indices 1 2 3 4 5 6 
#
# 1 0.017555 -0.002064 -0.006244 0.000000 0.000000 0.000000
# 2 -0.002064 0.007332 -0.004404 0.000000 0.000000 0.000000
# 3 -0.006244 -0.004404 0.016381 0.000000 0.000000 0.000000
# 4 0.000000 0.000000 0.000000 0.016004 0.000000 0.000000
# 5 0.000000 0.000000 0.000000 0.000000 0.012390 0.000000
# 6 0.000000 0.000000 0.000000 0.000000 0.000000 0.026709
#
#
# Mechanical properties :
#
#
# Convention : Reuss Voigt Hill
#
# Bulk Modulus (GPa) = 63.12355 75.85112 69.48734
# Shear Modulus (GPa) = 39.34605 49.85046 44.59825
#
# Velocity S-wave (km/s) = 4.48933 5.05319 4.77958
# Velocity P-wave (km/s) = 7.69452 8.53811 8.12727
#
# Compressibility (1/GPa) = 0.01584195
#
# Stress axis : x y z
#
# Youngs Moduli (GPa) = 56.96361 136.38916 61.04683
#
# Poissons Ratio (x) = 0.28155 0.38119
# Poissons Ratio (y) = 0.11759 0.26888
# Poissons Ratio (z) = 0.35569 0.60072
#
# Static dielectric constant tensor:
#      x y z
#    x 3.343950 0.000000 0.000000 
#    y 0.000000 4.872590 0.000000 
#    z 0.000000 0.000000 3.679310 
# 
# 
# High freq. dielectric constant tensor:
#      x y z
#    x 1.736670 0.000000 0.000000 
#    y 0.000000 1.789070 0.000000 
#    z 0.000000 0.000000 1.761310 
# 
# From -- ./inp_files/36047.got.cif
#   From: 2010.03.12/outbox.cif.g09.slc.cpg/sg65_19_cif.got.tgz:36047.got - 2010.04.10 20:52:16.
