data_PCOD8273803
_publ_section_title
;
Structure prediction by ZEFSAII (Michael W. Deem and Ramdas Pophale) SiO2 
 PCOD8273803
Probable space group: C M M M
;
_chemical_formula_sum "Si O2"
_cell_formula_units_Z 112
_cell_length_a 14.259501
_cell_length_b 15.235105
_cell_length_c 23.925323
_cell_angle_alpha 90.000000
_cell_angle_beta 90.000000
_cell_angle_gamma 90.000000
_cell_volume 5197.656675
_symmetry_space_group_name_H-M "C M M M"
_symmetry_group_IT_number 65
_symmetry_cell_setting 'orthorhombic'
loop_
_space_group_symop_operation_xyz
x,y,z
-x,-y,z
x,-y,-z
-x,y,-z
-x,-y,-z
x,y,-z
-x,y,z
x,-y,z
1/2+x,1/2+y,z
1/2-x,1/2-y,z
1/2+x,1/2-y,-z
1/2-x,1/2+y,-z
1/2-x,1/2-y,-z
1/2+x,1/2+y,-z
1/2-x,1/2+y,z
1/2+x,1/2-y,z
loop_
_atom_site_type_symbol
_atom_site_label
_atom_site_fract_x
_atom_site_fract_y
_atom_site_fract_z
Si Si1 0.893628 0.327332 0.764556
Si Si2 0.202956 0.601263 0.657627
Si Si3 0.896314 0.276723 0.936875
Si Si4 0.104528 0.097572 0.611037
Si Si5 0.704833 0.093854 0.863707
Si Si6 0.397575 0.656176 0.835058
Si Si7 0.607396 0.784742 0.563206
O O1 0.829724 0.344890 0.711190
O O2 0.869727 0.393948 0.814146
O O3 0.876977 0.230039 0.788513
O O4 0.000000 0.341912 0.745647
O O5 0.165816 0.500000 0.657113
O O6 0.316517 0.602109 0.659242
O O7 0.169886 0.654376 0.602966
O O8 0.812846 0.337976 0.913581
O O9 0.900938 0.191959 0.898137
O O10 0.000000 0.322597 0.934696
O O11 0.870827 0.249252 0.000000
O O12 0.122461 0.179435 0.569661
O O13 0.000000 0.106771 0.637838
O O14 0.112605 0.000000 0.581564
O O15 0.808210 0.093177 0.835125
O O16 0.688155 0.000000 0.891251
O O17 0.500000 0.611688 0.822707
O O18 0.635851 0.808308 0.500000
O O19 0.500000 0.809018 0.575586
#
# Coordination Sequence:
#
# PCOD8273803 Si02
#       7
#    16  16  16  16  16  16  16
#     4  10  21  39  61  81 105 141 186 230 270 322
#     4  11  23  38  60  88 116 149 186 228 285 347
#     4   9  18  34  57  82 108 144 190 234 274 322
#     4   9  20  39  60  83 112 147 191 238 278 324
#     4  11  22  34  53  83 116 146 177 223 283 337
#     4   9  20  38  58  80 107 145 191 233 272 320
#     4  10  22  39  59  85 116 150 188 231 282 340
#
# _framework density 21.548172999999998
#
# number of rings (size 3 to 8) (size 9 to 14) (size 15 to 20)
#    0.000    2.143    0.000    4.286    0.000    8.571 
#    0.000    6.429    0.000    2.571    0.000    3.000 
#    0.000    0.000    0.000    0.000    0.000    0.000 
#
# Total GULP energy -693797.340465 kJ/mol
# GULP energy per Si atom -12389.238223 kJ/mol
# Density = 2.149913 g / cm^3
# Si number density = 21.548173 Si / 1000 Ang^3
#
#
#
# Elastic Constant Matrix: (Units=GPa)
#
#
# Indices 1 2 3 4 5 6 
#
# 1 89.4999 9.4448 27.6081 0.0000 0.0000 0.0000
# 2 9.4448 65.7523 25.0718 0.0000 0.0000 0.0000
# 3 27.6081 25.0718 119.7565 0.0000 0.0000 0.0000
# 4 0.0000 0.0000 0.0000 4.4672 0.0000 0.0000
# 5 0.0000 0.0000 0.0000 0.0000 24.0490 0.0000
# 6 0.0000 0.0000 0.0000 0.0000 0.0000 16.8266
#
#
#
# Elastic Compliance Matrix: (Units=1/GPa)
#
#
# Indices 1 2 3 4 5 6 
#
# 1 0.012061 -0.000731 -0.002627 0.000000 0.000000 0.000000
# 2 -0.000731 0.016572 -0.003301 0.000000 0.000000 0.000000
# 3 -0.002627 -0.003301 0.009647 0.000000 0.000000 0.000000
# 4 0.000000 0.000000 0.000000 0.223855 0.000000 0.000000
# 5 0.000000 0.000000 0.000000 0.000000 0.041582 0.000000
# 6 0.000000 0.000000 0.000000 0.000000 0.000000 0.059430
#
#
# Mechanical properties :
#
#
# Convention : Reuss Voigt Hill
#
# Bulk Modulus (GPa) = 40.06107 44.36202 42.21155
# Shear Modulus (GPa) = 12.99427 23.26084 18.12756
#
# Velocity S-wave (km/s) = 2.45834 3.28911 2.90359
# Velocity P-wave (km/s) = 5.16620 5.92084 5.55635
#
# Compressibility (1/GPa) = 0.02496189
#
# Stress axis : x y z
#
# Youngs Moduli (GPa) = 82.91326 60.34179 103.65795
#
# Poissons Ratio (x) = 0.04408 0.27236
# Poissons Ratio (y) = 0.06057 0.34218
# Poissons Ratio (z) = 0.21785 0.19919
#
# Static dielectric constant tensor:
#      x y z
#    x 4.416650 0.000000 0.000000 
#    y 0.000000 3.786800 0.000000 
#    z 0.000000 0.000000 3.650270 
# 
# 
# High freq. dielectric constant tensor:
#      x y z
#    x 1.871360 0.000000 0.000000 
#    y 0.000000 1.823750 0.000000 
#    z 0.000000 0.000000 1.824290 
# 
# From -- ./inp_files/70035.got.cif
#   From: 2010.03.12/outbox.cif.g09.slc.cpg/sg65_36_cif.got.tgz:70035.got - 2010.04.10 20:52:16.
