data_PCOD8273543
_publ_section_title
;
Structure prediction by ZEFSAII (Michael W. Deem and Ramdas Pophale) SiO2 
 PCOD8273543
Probable space group: C M M M
;
_chemical_formula_sum "Si O2"
_cell_formula_units_Z 88
_cell_length_a 23.987390
_cell_length_b 20.441966
_cell_length_c 9.048440
_cell_angle_alpha 90.000000
_cell_angle_beta 90.000000
_cell_angle_gamma 90.000000
_cell_volume 4436.897223
_symmetry_space_group_name_H-M "C M M M"
_symmetry_group_IT_number 65
_symmetry_cell_setting 'orthorhombic'
loop_
_space_group_symop_operation_xyz
x,y,z
-x,-y,z
x,-y,-z
-x,y,-z
-x,-y,-z
x,y,-z
-x,y,z
x,-y,z
1/2+x,1/2+y,z
1/2-x,1/2-y,z
1/2+x,1/2-y,-z
1/2-x,1/2+y,-z
1/2-x,1/2-y,-z
1/2+x,1/2+y,-z
1/2-x,1/2+y,z
1/2+x,1/2-y,z
loop_
_atom_site_type_symbol
_atom_site_label
_atom_site_fract_x
_atom_site_fract_y
_atom_site_fract_z
Si Si1 0.500000 0.576324 0.326168
Si Si2 0.000000 0.270361 0.838526
Si Si3 0.890457 0.573639 0.838879
Si Si4 0.216011 0.423144 0.672500
Si Si5 0.589428 0.662544 0.167331
Si Si6 0.000000 0.603911 0.327936
Si Si7 0.715854 0.314990 0.174701
O O1 0.500000 0.500000 0.284885
O O2 0.500000 0.588041 0.500000
O O3 0.557337 0.607816 0.263533
O O4 0.944585 0.228972 0.823339
O O5 0.000000 0.319172 0.701508
O O6 0.000000 0.305607 0.000000
O O7 0.872630 0.500000 0.868946
O O8 0.841256 0.605098 0.742598
O O9 0.946659 0.572547 0.746963
O O10 0.896531 0.609182 0.000000
O O11 0.213523 0.408737 0.500000
O O12 0.226819 0.500000 0.703247
O O13 0.263990 0.380893 0.746776
O O14 0.650747 0.684622 0.221560
O O15 0.591477 0.635355 0.000000
O O16 0.000000 0.587619 0.500000
O O17 0.750000 0.250000 0.229061
O O18 0.723695 0.322079 0.000000
#
# Coordination Sequence:
#
# PCOD8273543 Si02
#       7
#     8   8  16  16  16   8  16
#     4  10  21  37  60  90 121 154 194 245 309 375
#     4   9  19  36  57  80 110 150 192 233 286 344
#     4  10  21  38  59  81 108 147 194 240 285 338
#     4  10  22  40  60  86 121 158 197 246 303 360
#     4   9  20  39  60  85 116 152 195 244 294 349
#     4  12  24  34  52  84 115 147 186 232 291 350
#     4  10  22  39  62  91 121 159 207 254 301 362
#
# _framework density 19.833680000000001
#
# number of rings (size 3 to 8) (size 9 to 14) (size 15 to 20)
#    0.000    2.091    0.000    3.000    2.545    7.273 
#    0.000    3.636    0.000    0.000    0.000    0.000 
#    0.000    0.000    0.000    0.000    0.000    0.000 
#
# Total GULP energy -545313.262017 kJ/mol
# GULP energy per Si atom -12393.483228 kJ/mol
# Density = 1.978854 g / cm^3
# Si number density = 19.833680 Si / 1000 Ang^3
#
#
#
# Elastic Constant Matrix: (Units=GPa)
#
#
# Indices 1 2 3 4 5 6 
#
# 1 173.3228 48.5690 56.1327 0.0000 0.0000 0.0000
# 2 48.5690 81.0026 37.8720 0.0000 0.0000 0.0000
# 3 56.1327 37.8720 99.4561 0.0000 0.0000 0.0000
# 4 0.0000 0.0000 0.0000 32.5771 0.0000 0.0000
# 5 0.0000 0.0000 0.0000 0.0000 22.2048 0.0000
# 6 0.0000 0.0000 0.0000 0.0000 0.0000 22.0628
#
#
#
# Elastic Compliance Matrix: (Units=1/GPa)
#
#
# Indices 1 2 3 4 5 6 
#
# 1 0.007661 -0.003129 -0.003132 0.000000 0.000000 0.000000
# 2 -0.003129 0.016297 -0.004440 0.000000 0.000000 0.000000
# 3 -0.003132 -0.004440 0.013513 0.000000 0.000000 0.000000
# 4 0.000000 0.000000 0.000000 0.030696 0.000000 0.000000
# 5 0.000000 0.000000 0.000000 0.000000 0.045035 0.000000
# 6 0.000000 0.000000 0.000000 0.000000 0.000000 0.045325
#
#
# Mechanical properties :
#
#
# Convention : Reuss Voigt Hill
#
# Bulk Modulus (GPa) = 62.23138 70.99208 66.61173
# Shear Modulus (GPa) = 26.98523 29.44947 28.21735
#
# Velocity S-wave (km/s) = 3.69260 3.85752 3.77596
# Velocity P-wave (km/s) = 7.04451 7.46405 7.25731
#
# Compressibility (1/GPa) = 0.01606906
#
# Stress axis : x y z
#
# Youngs Moduli (GPa) = 130.53459 61.36022 74.00185
#
# Poissons Ratio (x) = 0.19199 0.23179
# Poissons Ratio (y) = 0.40844 0.32856
# Poissons Ratio (z) = 0.40887 0.27243
#
# Static dielectric constant tensor:
#      x y z
#    x 3.862270 0.000000 0.000000 
#    y 0.000000 3.480420 0.000000 
#    z 0.000000 0.000000 3.728120 
# 
# 
# High freq. dielectric constant tensor:
#      x y z
#    x 1.784040 0.000000 0.000000 
#    y 0.000000 1.764410 0.000000 
#    z 0.000000 0.000000 1.773750 
# 
# From -- ./inp_files/11854.got.cif
#   From: 2010.03.12/outbox.cif.g09.slc.cpg/sg65_6_cif.got.tgz:11854.got - 2010.04.10 20:52:16.
