data_PCOD8273955
_publ_section_title
;
Structure prediction by ZEFSAII (Michael W. Deem and Ramdas Pophale) SiO2 
 PCOD8273955
Probable space group: C M M M
;
_chemical_formula_sum "Si O2"
_cell_formula_units_Z 72
_cell_length_a 9.711766
_cell_length_b 27.837624
_cell_length_c 14.268300
_cell_angle_alpha 90.000000
_cell_angle_beta 90.000000
_cell_angle_gamma 90.000000
_cell_volume 3857.470437
_symmetry_space_group_name_H-M "C M M M"
_symmetry_group_IT_number 65
_symmetry_cell_setting 'orthorhombic'
loop_
_space_group_symop_operation_xyz
x,y,z
-x,-y,z
x,-y,-z
-x,y,-z
-x,-y,-z
x,y,-z
-x,y,z
x,-y,z
1/2+x,1/2+y,z
1/2-x,1/2-y,z
1/2+x,1/2-y,-z
1/2-x,1/2+y,-z
1/2-x,1/2-y,-z
1/2+x,1/2+y,-z
1/2-x,1/2+y,z
1/2+x,1/2-y,z
loop_
_atom_site_type_symbol
_atom_site_label
_atom_site_fract_x
_atom_site_fract_y
_atom_site_fract_z
Si Si1 0.237912 0.348773 0.718360
Si Si2 0.348377 0.443990 0.500000
Si Si3 0.341696 0.296781 0.895378
Si Si4 0.000000 0.179174 0.610133
Si Si5 0.843820 0.553530 0.669338
Si Si6 0.000000 0.292242 0.612905
O O1 0.275073 0.333088 0.822644
O O2 0.370607 0.348266 0.652812
O O3 0.177711 0.402389 0.740566
O O4 0.131762 0.314899 0.663210
O O5 0.373133 0.500000 0.500000
O O6 0.500000 0.418552 0.500000
O O7 0.258551 0.429628 0.588473
O O8 0.500000 0.284775 0.868292
O O9 0.250000 0.250000 0.890712
O O10 0.335020 0.319200 0.000000
O O11 0.000000 0.235700 0.635179
O O12 0.000000 0.172132 0.500000
O O13 0.807059 0.500000 0.709709
O O14 0.000000 0.552660 0.631568
O O15 0.000000 0.302059 0.500000
#
# Coordination Sequence:
#
# PCOD8273955 Si02
#       6
#    16   8  16   8  16   8
#     4  12  23  37  61  86 113 161 198 240 291 351
#     4   9  19  33  53  79 108 143 192 250 296 336
#     4  10  22  40  63  91 121 152 192 245 300 352
#     4  11  24  38  54  82 122 157 198 240 286 344
#     4  10  22  38  55  78 112 153 198 246 292 344
#     4  11  24  40  56  82 122 163 202 236 278 352
#
# _framework density 18.66508
#
# number of rings (size 3 to 8) (size 9 to 14) (size 15 to 20)
#    0.000    1.444    2.222    3.000    6.222    3.111 
#    0.000    0.000    0.000    0.667    0.000    3.111 
#    0.000    0.000    0.000    0.000    0.000    0.000 
#
# Total GULP energy -446072.540314 kJ/mol
# GULP energy per Si atom -12390.903898 kJ/mol
# Density = 1.862260 g / cm^3
# Si number density = 18.665080 Si / 1000 Ang^3
#
#
#
# Elastic Constant Matrix: (Units=GPa)
#
#
# Indices 1 2 3 4 5 6 
#
# 1 136.5550 43.1050 45.6184 0.0000 0.0000 0.0000
# 2 43.1050 131.0825 42.7887 0.0000 0.0000 0.0000
# 3 45.6184 42.7887 102.1366 0.0000 0.0000 0.0000
# 4 0.0000 0.0000 0.0000 17.0140 0.0000 0.0000
# 5 0.0000 0.0000 0.0000 0.0000 28.0191 0.0000
# 6 0.0000 0.0000 0.0000 0.0000 0.0000 29.4807
#
#
#
# Elastic Compliance Matrix: (Units=1/GPa)
#
#
# Indices 1 2 3 4 5 6 
#
# 1 0.009002 -0.001909 -0.003221 0.000000 0.000000 0.000000
# 2 -0.001909 0.009242 -0.003019 0.000000 0.000000 0.000000
# 3 -0.003221 -0.003019 0.012494 0.000000 0.000000 0.000000
# 4 0.000000 0.000000 0.000000 0.058775 0.000000 0.000000
# 5 0.000000 0.000000 0.000000 0.000000 0.035690 0.000000
# 6 0.000000 0.000000 0.000000 0.000000 0.000000 0.033921
#
#
# Mechanical properties :
#
#
# Convention : Reuss Voigt Hill
#
# Bulk Modulus (GPa) = 69.25143 70.31092 69.78118
# Shear Modulus (GPa) = 27.74168 30.78691 29.26429
#
# Velocity S-wave (km/s) = 3.85942 4.06573 3.96392
# Velocity P-wave (km/s) = 7.55267 7.73252 7.64312
#
# Compressibility (1/GPa) = 0.01444014
#
# Stress axis : x y z
#
# Youngs Moduli (GPa) = 111.09234 108.20142 80.03673
#
# Poissons Ratio (x) = 0.20652 0.25778
# Poissons Ratio (y) = 0.21204 0.24166
# Poissons Ratio (z) = 0.35781 0.32669
#
# Static dielectric constant tensor:
#      x y z
#    x 3.843050 0.000000 0.000000 
#    y 0.000000 3.564270 0.000000 
#    z 0.000000 0.000000 2.831540 
# 
# 
# High freq. dielectric constant tensor:
#      x y z
#    x 1.750700 0.000000 0.000000 
#    y 0.000000 1.730010 0.000000 
#    z 0.000000 0.000000 1.693850 
# 
# From -- ./inp_files/36635.got.cif
#   From: 2010.03.12/outbox.cif.g09.slc.cpg/sg65_19_cif.got.tgz:36635.got - 2010.04.10 20:52:16.
