data_PCOD8273981
_publ_section_title
;
Structure prediction by ZEFSAII (Michael W. Deem and Ramdas Pophale) SiO2 
 PCOD8273981
Probable space group: C M M M
;
_chemical_formula_sum "Si O2"
_cell_formula_units_Z 96
_cell_length_a 19.244414
_cell_length_b 19.575456
_cell_length_c 13.919480
_cell_angle_alpha 90.000000
_cell_angle_beta 90.000000
_cell_angle_gamma 90.000000
_cell_volume 5243.721165
_symmetry_space_group_name_H-M "C M M M"
_symmetry_group_IT_number 65
_symmetry_cell_setting 'orthorhombic'
loop_
_space_group_symop_operation_xyz
x,y,z
-x,-y,z
x,-y,-z
-x,y,-z
-x,-y,-z
x,y,-z
-x,y,z
x,-y,z
1/2+x,1/2+y,z
1/2-x,1/2-y,z
1/2+x,1/2-y,-z
1/2-x,1/2+y,-z
1/2-x,1/2-y,-z
1/2+x,1/2+y,-z
1/2-x,1/2+y,z
1/2+x,1/2-y,z
loop_
_atom_site_type_symbol
_atom_site_label
_atom_site_fract_x
_atom_site_fract_y
_atom_site_fract_z
Si Si1 0.579477 0.380416 0.393689
Si Si2 0.617345 0.425314 0.197242
Si Si3 0.924054 0.206525 0.891327
Si Si4 0.181001 0.295198 0.228304
Si Si5 0.731635 0.077338 0.887829
Si Si6 0.578365 0.218883 0.391098
O O1 0.606054 0.402038 0.500000
O O2 0.500000 0.404475 0.380197
O O3 0.627098 0.415789 0.312647
O O4 0.584571 0.299708 0.381827
O O5 0.585381 0.500000 0.177104
O O6 0.566504 0.367645 0.157148
O O7 0.688994 0.417594 0.141900
O O8 0.867010 0.250582 0.839433
O O9 0.000000 0.241885 0.884721
O O10 0.899367 0.197506 0.000000
O O11 0.250000 0.250000 0.249593
O O12 0.191743 0.367353 0.176121
O O13 0.138792 0.313530 0.325307
O O14 0.703694 0.000000 0.868370
O O15 0.723476 0.095964 0.000000
O O16 0.591974 0.194777 0.500000
O O17 0.500000 0.196654 0.359392
#
# Coordination Sequence:
#
# PCOD8273981 Si02
#       6
#    16  16  16  16  16  16
#     4   9  17  31  50  73 105 144 184 224 268 322
#     4  11  21  34  52  75 109 152 190 228 276 332
#     4  11  23  36  52  79 112 144 186 239 287 335
#     4  12  21  34  60  87 110 145 188 238 279 329
#     4  10  22  39  57  79 111 150 189 229 277 333
#     4   9  18  34  57  84 114 145 179 226 284 339
#
# _framework density 18.30761
#
# number of rings (size 3 to 8) (size 9 to 14) (size 15 to 20)
#    0.000    1.667    3.333    3.000    0.000    3.667 
#    0.000    2.500    0.000    3.500    0.000    7.000 
#    0.000    0.000    0.000    0.000    0.000    0.000 
#
# Total GULP energy -594914.594671 kJ/mol
# GULP energy per Si atom -12394.054056 kJ/mol
# Density = 1.826594 g / cm^3
# Si number density = 18.307610 Si / 1000 Ang^3
#
#
#
# Elastic Constant Matrix: (Units=GPa)
#
#
# Indices 1 2 3 4 5 6 
#
# 1 87.9015 37.9203 55.7800 0.0000 0.0000 0.0000
# 2 37.9203 76.7619 40.1793 0.0000 0.0000 0.0000
# 3 55.7800 40.1793 129.2158 0.0000 0.0000 0.0000
# 4 0.0000 0.0000 0.0000 14.0995 0.0000 0.0000
# 5 0.0000 0.0000 0.0000 0.0000 36.9892 0.0000
# 6 0.0000 0.0000 0.0000 0.0000 0.0000 -9.9347
#
#
#
# Elastic Compliance Matrix: (Units=1/GPa)
#
#
# Indices 1 2 3 4 5 6 
#
# 1 0.017472 -0.005594 -0.005803 0.000000 0.000000 0.000000
# 2 -0.005594 0.017351 -0.002980 0.000000 0.000000 0.000000
# 3 -0.005803 -0.002980 0.011171 0.000000 0.000000 0.000000
# 4 0.000000 0.000000 0.000000 0.070925 0.000000 0.000000
# 5 0.000000 0.000000 0.000000 0.000000 0.027035 0.000000
# 6 0.000000 0.000000 0.000000 0.000000 0.000000 -0.100657
#
#
# Mechanical properties :
#
#
# Convention : Reuss Voigt Hill
#
# Bulk Modulus (GPa) = 58.00752 62.40427 60.20589
# Shear Modulus (GPa) = 64.27044 18.89742 41.58393
#
# Velocity S-wave (km/s) = 5.93145 3.21630 4.77109
# Velocity P-wave (km/s) = 8.86922 6.92483 7.95665
#
# Compressibility (1/GPa) = 0.01723915
#
# Stress axis : x y z
#
# Youngs Moduli (GPa) = 57.23498 57.63488 89.51931
#
# Poissons Ratio (x) = 0.32239 0.51947
# Poissons Ratio (y) = 0.32015 0.26681
# Poissons Ratio (z) = 0.33213 0.17178
#
# Static dielectric constant tensor:
#      x y z
#    x 3.293520 0.000000 0.000000 
#    y 0.000000 3.468180 0.000000 
#    z 0.000000 0.000000 3.772890 
# 
# 
# High freq. dielectric constant tensor:
#      x y z
#    x 1.691020 0.000000 0.000000 
#    y 0.000000 1.684290 0.000000 
#    z 0.000000 0.000000 1.729710 
# 
# From -- ./inp_files/40353.got.cif
#   From: 2010.03.12/outbox.cif.g09.slc.cpg/sg65_21_cif.got.tgz:40353.got - 2010.04.10 20:52:16.
