data_PCOD8273681
_publ_section_title
;
Structure prediction by ZEFSAII (Michael W. Deem and Ramdas Pophale) SiO2 
 PCOD8273681
Probable space group: C M M M
;
_chemical_formula_sum "Si O2"
_cell_formula_units_Z 72
_cell_length_a 15.356232
_cell_length_b 26.612953
_cell_length_c 8.768656
_cell_angle_alpha 90.000000
_cell_angle_beta 90.000000
_cell_angle_gamma 90.000000
_cell_volume 3583.527689
_symmetry_space_group_name_H-M "C M M M"
_symmetry_group_IT_number 65
_symmetry_cell_setting 'orthorhombic'
loop_
_space_group_symop_operation_xyz
x,y,z
-x,-y,z
x,-y,-z
-x,y,-z
-x,-y,-z
x,y,-z
-x,y,z
x,-y,z
1/2+x,1/2+y,z
1/2-x,1/2-y,z
1/2+x,1/2-y,-z
1/2-x,1/2+y,-z
1/2-x,1/2-y,-z
1/2+x,1/2+y,-z
1/2-x,1/2+y,z
1/2+x,1/2-y,z
loop_
_atom_site_type_symbol
_atom_site_label
_atom_site_fract_x
_atom_site_fract_y
_atom_site_fract_z
Si Si1 0.158198 0.272996 0.320699
Si Si2 0.682392 0.442198 0.323206
Si Si3 0.165127 0.381591 0.820292
Si Si4 0.000000 0.786260 0.821197
Si Si5 0.000000 0.892956 0.324790
Si Si6 0.500000 0.055770 0.819116
O O1 0.143875 0.271559 0.500000
O O2 0.250000 0.250000 0.271716
O O3 0.153328 0.329525 0.264579
O O4 0.085348 0.239253 0.244663
O O5 0.705398 0.433647 0.500000
O O6 0.695402 0.500000 0.275756
O O7 0.744197 0.407599 0.221502
O O8 0.583397 0.427055 0.288823
O O9 0.086283 0.416246 0.761607
O O10 0.161366 0.372151 0.000000
O O11 0.000000 0.844851 0.782786
O O12 0.000000 0.778599 0.000000
O O13 0.000000 0.874588 0.500000
O O14 0.500000 0.000000 0.748007
O O15 0.500000 0.052968 0.000000
#
# Coordination Sequence:
#
# PCOD8273681 Si02
#       6
#    16  16  16   8   8   8
#     4  11  24  42  63  86 116 157 201 244 293 352
#     4  10  21  38  60  86 117 155 199 244 291 348
#     4  11  22  37  60  88 117 151 192 242 298 350
#     4  12  25  40  61  90 122 155 194 245 304 361
#     4  10  21  39  61  84 115 157 200 241 291 352
#     4   9  19  36  56  80 113 151 186 221 273 342
#
# _framework density 20.091933000000001
#
# number of rings (size 3 to 8) (size 9 to 14) (size 15 to 20)
#    0.000    1.444    0.000    5.333    0.000   11.556 
#    0.000    1.667    0.000    6.000    0.000    0.000 
#    0.000    0.000    0.000    0.000    0.000    0.000 
#
# Total GULP energy -446615.031005 kJ/mol
# GULP energy per Si atom -12405.973083 kJ/mol
# Density = 2.004620 g / cm^3
# Si number density = 20.091933 Si / 1000 Ang^3
#
#
#
# Elastic Constant Matrix: (Units=GPa)
#
#
# Indices 1 2 3 4 5 6 
#
# 1 98.1133 11.1567 40.3068 0.0000 0.0000 0.0000
# 2 11.1567 99.6904 19.2734 0.0000 0.0000 0.0000
# 3 40.3068 19.2734 55.0531 0.0000 0.0000 0.0000
# 4 0.0000 0.0000 0.0000 54.3328 0.0000 0.0000
# 5 0.0000 0.0000 0.0000 0.0000 215.5880 0.0000
# 6 0.0000 0.0000 0.0000 0.0000 0.0000 42.9196
#
#
#
# Elastic Compliance Matrix: (Units=1/GPa)
#
#
# Indices 1 2 3 4 5 6 
#
# 1 0.014597 0.000464 -0.010849 0.000000 0.000000 0.000000
# 2 0.000464 0.010774 -0.004112 0.000000 0.000000 0.000000
# 3 -0.010849 -0.004112 0.027547 0.000000 0.000000 0.000000
# 4 0.000000 0.000000 0.000000 0.018405 0.000000 0.000000
# 5 0.000000 0.000000 0.000000 0.000000 0.004638 0.000000
# 6 0.000000 0.000000 0.000000 0.000000 0.000000 0.023299
#
#
# Mechanical properties :
#
#
# Convention : Reuss Voigt Hill
#
# Bulk Modulus (GPa) = 41.79925 43.81451 42.80688
# Shear Modulus (GPa) = 36.70295 74.70942 55.70619
#
# Velocity S-wave (km/s) = 4.27869 6.10447 5.27123
# Velocity P-wave (km/s) = 6.72746 8.45815 7.64196
#
# Compressibility (1/GPa) = 0.02392388
#
# Stress axis : x y z
#
# Youngs Moduli (GPa) = 68.50897 92.81581 36.30170
#
# Poissons Ratio (x) = -0.04306 0.39385
# Poissons Ratio (y) = -0.03179 0.14926
# Poissons Ratio (z) = 0.74327 0.38162
#
# Static dielectric constant tensor:
#      x y z
#    x 3.933970 0.000000 0.000000 
#    y 0.000000 3.792850 0.000000 
#    z 0.000000 0.000000 3.623600 
# 
# 
# High freq. dielectric constant tensor:
#      x y z
#    x 1.803890 0.000000 0.000000 
#    y 0.000000 1.802880 0.000000 
#    z 0.000000 0.000000 1.775820 
# 
# From -- ./inp_files/7382.got.cif
#   From: 2010.03.12/outbox.cif.g09.slc.cpg/sg65_4_cif.got.tgz:7382.got - 2010.04.10 20:52:16.
