data_PCOD8273132
_publ_section_title
;
Structure prediction by ZEFSAII (Michael W. Deem and Ramdas Pophale) SiO2 
 PCOD8273132
Probable space group: C M M M
;
_chemical_formula_sum "Si O2"
_cell_formula_units_Z 80
_cell_length_a 9.105524
_cell_length_b 18.389452
_cell_length_c 25.008310
_cell_angle_alpha 90.000000
_cell_angle_beta 90.000000
_cell_angle_gamma 90.000000
_cell_volume 4187.531386
_symmetry_space_group_name_H-M "C M M M"
_symmetry_group_IT_number 65
_symmetry_cell_setting 'orthorhombic'
loop_
_space_group_symop_operation_xyz
x,y,z
-x,-y,z
x,-y,-z
-x,y,-z
-x,-y,-z
x,y,-z
-x,y,z
x,-y,z
1/2+x,1/2+y,z
1/2-x,1/2-y,z
1/2+x,1/2-y,-z
1/2-x,1/2+y,-z
1/2-x,1/2-y,-z
1/2+x,1/2+y,-z
1/2-x,1/2+y,z
1/2+x,1/2-y,z
loop_
_atom_site_type_symbol
_atom_site_label
_atom_site_fract_x
_atom_site_fract_y
_atom_site_fract_z
Si Si1 0.829334 0.416100 0.840821
Si Si2 0.330129 0.583705 0.645056
Si Si3 0.829005 0.323583 0.561909
Si Si4 0.673106 0.327213 0.749996
Si Si5 0.170407 0.677689 0.059852
O O1 0.784812 0.500000 0.837745
O O2 0.729307 0.371782 0.800435
O O3 0.794248 0.388887 0.900755
O O4 0.000000 0.404054 0.826383
O O5 0.500000 0.595378 0.630578
O O6 0.294317 0.500000 0.656870
O O7 0.233833 0.608904 0.594851
O O8 0.284130 0.628846 0.696984
O O9 0.796859 0.339663 0.500000
O O10 0.750000 0.250000 0.580959
O O11 0.000000 0.314188 0.573726
O O12 0.500000 0.316003 0.755562
O O13 0.750000 0.250000 0.747171
O O14 0.250000 0.750000 0.080872
O O15 0.000000 0.696357 0.059936
O O16 0.223893 0.656405 0.000000
#
# Coordination Sequence:
#
# PCOD8273132 Si02
#       5
#    16  16  16  16  16
#     4  10  21  36  55  81 111 143 181 224 272 325
#     4  10  22  39  58  82 112 145 181 222 271 325
#     4  10  21  37  58  84 113 146 185 227 270 318
#     4  11  23  39  59  82 109 142 182 226 272 323
#     4   9  18  33  53  77 106 141 181 224 268 317
#
# _framework density 19.104334999999999
#
# number of rings (size 3 to 8) (size 9 to 14) (size 15 to 20)
#    0.000    2.000    0.000    3.000    0.000    9.200 
#    0.000    4.000    0.000    0.000    0.000    4.200 
#    0.000    0.000    0.000    0.000    0.000    0.000 
#
# Total GULP energy -496184.148728 kJ/mol
# GULP energy per Si atom -12404.603718 kJ/mol
# Density = 1.906085 g / cm^3
# Si number density = 19.104335 Si / 1000 Ang^3
#
#
#
# Elastic Constant Matrix: (Units=GPa)
#
#
# Indices 1 2 3 4 5 6 
#
# 1 77.7739 63.6959 58.5924 0.0000 0.0000 0.0000
# 2 63.6959 156.8589 76.4446 0.0000 0.0000 0.0000
# 3 58.5924 76.4446 110.5141 0.0000 0.0000 0.0000
# 4 0.0000 0.0000 0.0000 30.6726 0.0000 0.0000
# 5 0.0000 0.0000 0.0000 0.0000 32.2474 0.0000
# 6 0.0000 0.0000 0.0000 0.0000 0.0000 28.1093
#
#
#
# Elastic Compliance Matrix: (Units=1/GPa)
#
#
# Indices 1 2 3 4 5 6 
#
# 1 0.024069 -0.005362 -0.009051 0.000000 0.000000 0.000000
# 2 -0.005362 0.010812 -0.004636 0.000000 0.000000 0.000000
# 3 -0.009051 -0.004636 0.017054 0.000000 0.000000 0.000000
# 4 0.000000 0.000000 0.000000 0.032602 0.000000 0.000000
# 5 0.000000 0.000000 0.000000 0.000000 0.031010 0.000000
# 6 0.000000 0.000000 0.000000 0.000000 0.000000 0.035575
#
#
# Mechanical properties :
#
#
# Convention : Reuss Voigt Hill
#
# Bulk Modulus (GPa) = 72.27791 82.51251 77.39521
# Shear Modulus (GPa) = 25.79533 27.96678 26.88106
#
# Velocity S-wave (km/s) = 3.67854 3.83024 3.75516
# Velocity P-wave (km/s) = 7.48048 7.92750 7.70723
#
# Compressibility (1/GPa) = 0.01383548
#
# Stress axis : x y z
#
# Youngs Moduli (GPa) = 41.54804 92.49090 58.63683
#
# Poissons Ratio (x) = 0.49597 0.53075
# Poissons Ratio (y) = 0.22280 0.27183
# Poissons Ratio (z) = 0.37607 0.42876
#
# Static dielectric constant tensor:
#      x y z
#    x 3.511650 0.000000 0.000000 
#    y 0.000000 3.552390 0.000000 
#    z 0.000000 0.000000 3.657280 
# 
# 
# High freq. dielectric constant tensor:
#      x y z
#    x 1.743440 0.000000 0.000000 
#    y 0.000000 1.746510 0.000000 
#    z 0.000000 0.000000 1.753540 
# 
# From -- ./inp_files/72784.got.cif
#   From: 2010.03.12/outbox.cif.g09.slc.cpg/sg65_37_cif.got.tgz:72784.got - 2010.04.10 20:52:16.
