data_PCOD8273150
_publ_section_title
;
Structure prediction by ZEFSAII (Michael W. Deem and Ramdas Pophale) SiO2 
 PCOD8273150
Probable space group: C M M M
;
_chemical_formula_sum "Si O2"
_cell_formula_units_Z 104
_cell_length_a 27.718843
_cell_length_b 9.140095
_cell_length_c 21.241777
_cell_angle_alpha 90.000000
_cell_angle_beta 90.000000
_cell_angle_gamma 90.000000
_cell_volume 5381.664919
_symmetry_space_group_name_H-M "C M M M"
_symmetry_group_IT_number 65
_symmetry_cell_setting 'orthorhombic'
loop_
_space_group_symop_operation_xyz
x,y,z
-x,-y,z
x,-y,-z
-x,y,-z
-x,-y,-z
x,y,-z
-x,y,z
x,-y,z
1/2+x,1/2+y,z
1/2-x,1/2-y,z
1/2+x,1/2-y,-z
1/2-x,1/2+y,-z
1/2-x,1/2-y,-z
1/2+x,1/2+y,-z
1/2-x,1/2+y,z
1/2+x,1/2-y,z
loop_
_atom_site_type_symbol
_atom_site_label
_atom_site_fract_x
_atom_site_fract_y
_atom_site_fract_z
Si Si1 0.111054 0.668337 0.427769
Si Si2 0.199822 0.829223 0.372401
Si Si3 0.145364 0.167004 0.245527
Si Si4 0.800678 0.673025 0.000000
Si Si5 0.055011 0.830030 0.325510
Si Si6 0.359151 0.172034 0.877690
Si Si7 0.945422 0.166935 0.072161
O O1 0.095263 0.681579 0.500000
O O2 0.119510 0.500000 0.408133
O O3 0.160250 0.757685 0.417696
O O4 0.067514 0.735119 0.386868
O O5 0.250000 0.750000 0.384953
O O6 0.184051 0.806077 0.300278
O O7 0.204532 0.000000 0.388969
O O8 0.091633 0.212240 0.269125
O O9 0.162532 0.264617 0.186819
O O10 0.145297 0.000000 0.223023
O O11 0.750000 0.750000 0.000000
O O12 0.828768 0.726352 0.062183
O O13 0.793690 0.500000 0.000000
O O14 0.000000 0.798299 0.304425
O O15 0.062774 0.000000 0.343119
O O16 0.413567 0.229407 0.884303
O O17 0.359338 0.000000 0.873002
O O18 0.000000 0.183380 0.095802
O O19 0.928084 0.000000 0.079599
O O20 0.940996 0.217553 0.000000
#
# Coordination Sequence:
#
# PCOD8273150 Si02
#       7
#    16  16  16   8  16  16  16
#     4  10  21  36  55  83 118 152 188 231 276 325
#     4  10  21  38  60  83 110 144 184 231 282 334
#     4   9  20  37  56  81 110 144 186 227 271 328
#     4  10  24  42  57  78 107 139 178 223 271 328
#     4   9  19  37  59  82 112 151 192 234 277 323
#     4  11  22  37  56  81 112 142 177 225 279 329
#     4   9  18  33  54  79 105 137 176 213 257 320
#
# _framework density 19.324874999999999
#
# number of rings (size 3 to 8) (size 9 to 14) (size 15 to 20)
#    0.000    2.308    0.769    2.769    0.000    8.000 
#    0.000    6.923    0.000    0.000    0.000    0.000 
#    0.000    0.000    0.000    0.000    0.000    0.000 
#
# Total GULP energy -644907.439401 kJ/mol
# GULP energy per Si atom -12402.066142 kJ/mol
# Density = 1.928089 g / cm^3
# Si number density = 19.324875 Si / 1000 Ang^3
#
#
#
# Elastic Constant Matrix: (Units=GPa)
#
#
# Indices 1 2 3 4 5 6 
#
# 1 75.9651 26.7625 11.8368 0.0000 0.0000 0.0000
# 2 26.7625 84.0954 40.0296 0.0000 0.0000 0.0000
# 3 11.8368 40.0296 88.5229 0.0000 0.0000 0.0000
# 4 0.0000 0.0000 0.0000 35.3126 0.0000 0.0000
# 5 0.0000 0.0000 0.0000 0.0000 14.2846 0.0000
# 6 0.0000 0.0000 0.0000 0.0000 0.0000 34.0505
#
#
#
# Elastic Compliance Matrix: (Units=1/GPa)
#
#
# Indices 1 2 3 4 5 6 
#
# 1 0.014829 -0.004811 0.000193 0.000000 0.000000 0.000000
# 2 -0.004811 0.016714 -0.006915 0.000000 0.000000 0.000000
# 3 0.000193 -0.006915 0.014397 0.000000 0.000000 0.000000
# 4 0.000000 0.000000 0.000000 0.028318 0.000000 0.000000
# 5 0.000000 0.000000 0.000000 0.000000 0.070005 0.000000
# 6 0.000000 0.000000 0.000000 0.000000 0.000000 0.029368
#
#
# Mechanical properties :
#
#
# Convention : Reuss Voigt Hill
#
# Bulk Modulus (GPa) = 43.71702 45.09347 44.40525
# Shear Modulus (GPa) = 24.47118 28.05984 26.26551
#
# Velocity S-wave (km/s) = 3.56238 3.81465 3.69067
# Velocity P-wave (km/s) = 6.29222 6.54119 6.41791
#
# Compressibility (1/GPa) = 0.02287438
#
# Stress axis : x y z
#
# Youngs Moduli (GPa) = 67.43650 59.83169 69.45665
#
# Poissons Ratio (x) = 0.28784 -0.01338
# Poissons Ratio (y) = 0.32442 0.48026
# Poissons Ratio (z) = -0.01299 0.41371
#
# Static dielectric constant tensor:
#      x y z
#    x 3.469210 0.000000 0.000000 
#    y 0.000000 3.536150 0.000000 
#    z 0.000000 0.000000 3.486840 
# 
# 
# High freq. dielectric constant tensor:
#      x y z
#    x 1.748140 0.000000 0.000000 
#    y 0.000000 1.752830 0.000000 
#    z 0.000000 0.000000 1.748400 
# 
# From -- ./inp_files/65900.got.cif
#   From: 2010.03.12/outbox.cif.g09.slc.cpg/sg65_33_cif.got.tgz:65900.got - 2010.04.10 20:52:16.
