data_PCOD8273893
_publ_section_title
;
Structure prediction by ZEFSAII (Michael W. Deem and Ramdas Pophale) SiO2 
 PCOD8273893
Probable space group: C M M M
;
_chemical_formula_sum "Si O2"
_cell_formula_units_Z 72
_cell_length_a 26.598857
_cell_length_b 14.763043
_cell_length_c 9.566024
_cell_angle_alpha 90.000000
_cell_angle_beta 90.000000
_cell_angle_gamma 90.000000
_cell_volume 3756.386971
_symmetry_space_group_name_H-M "C M M M"
_symmetry_group_IT_number 65
_symmetry_cell_setting 'orthorhombic'
loop_
_space_group_symop_operation_xyz
x,y,z
-x,-y,z
x,-y,-z
-x,y,-z
-x,-y,-z
x,y,-z
-x,y,z
x,-y,z
1/2+x,1/2+y,z
1/2-x,1/2-y,z
1/2+x,1/2-y,-z
1/2-x,1/2+y,-z
1/2-x,1/2-y,-z
1/2+x,1/2+y,-z
1/2-x,1/2+y,z
1/2+x,1/2-y,z
loop_
_atom_site_type_symbol
_atom_site_label
_atom_site_fract_x
_atom_site_fract_y
_atom_site_fract_z
Si Si1 0.442570 0.598744 0.000000
Si Si2 0.790949 0.500000 0.328914
Si Si3 0.941547 0.107976 0.500000
Si Si4 0.444491 0.000000 0.837104
Si Si5 0.382127 0.335253 0.765470
Si Si6 0.810365 0.000000 0.163110
Si Si7 0.858930 0.364768 0.166796
O O1 0.428944 0.658800 0.131128
O O2 0.414109 0.500000 0.000000
O O3 0.500000 0.576506 0.000000
O O4 0.793471 0.500000 0.500000
O O5 0.734206 0.500000 0.275218
O O6 0.816758 0.411836 0.261553
O O7 0.909020 0.149968 0.378690
O O8 0.000000 0.139599 0.500000
O O9 0.939386 0.000000 0.500000
O O10 0.412744 0.089621 0.796204
O O11 0.500000 0.000000 0.763405
O O12 0.453689 0.000000 0.000000
O O13 0.341107 0.409645 0.803914
O O14 0.356978 0.237824 0.781428
O O15 0.792749 0.000000 0.000000
O O16 0.847204 0.374181 0.000000
#
# Coordination Sequence:
#
# PCOD8273893 Si02
#       7
#     8   8   8   8  16   8  16
#     4  11  20  36  60  94 134 170 210 251 300 371
#     4  11  27  45  68  93 122 168 206 261 332 395
#     4  11  24  40  58  88 138 188 216 249 310 381
#     4   8  16  32  58  89 121 158 201 252 304 358
#     4  12  22  39  64  94 129 171 215 262 316 374
#     4  12  23  43  67  95 127 158 216 272 325 381
#     4  10  21  42  66  93 129 164 211 266 318 371
#
# _framework density 19.167355000000001
#
# number of rings (size 3 to 8) (size 9 to 14) (size 15 to 20)
#    0.000    1.222    4.444    2.333    3.111    4.444 
#    0.000    3.333    0.000    1.333    0.000    0.000 
#    0.000    0.000    0.000    0.000    0.000    0.000 
#
# Total GULP energy -446098.657110 kJ/mol
# GULP energy per Si atom -12391.629364 kJ/mol
# Density = 1.912373 g / cm^3
# Si number density = 19.167355 Si / 1000 Ang^3
#
#
#
# Elastic Constant Matrix: (Units=GPa)
#
#
# Indices 1 2 3 4 5 6 
#
# 1 107.3120 54.1012 54.6832 0.0000 0.0000 0.0000
# 2 54.1012 160.6223 48.2826 0.0000 0.0000 0.0000
# 3 54.6832 48.2826 163.5881 0.0000 0.0000 0.0000
# 4 0.0000 0.0000 0.0000 40.0508 0.0000 0.0000
# 5 0.0000 0.0000 0.0000 0.0000 38.4118 0.0000
# 6 0.0000 0.0000 0.0000 0.0000 0.0000 -8.3253
#
#
#
# Elastic Compliance Matrix: (Units=1/GPa)
#
#
# Indices 1 2 3 4 5 6 
#
# 1 0.012628 -0.003275 -0.003255 0.000000 0.000000 0.000000
# 2 -0.003275 0.007681 -0.001172 0.000000 0.000000 0.000000
# 3 -0.003255 -0.001172 0.007547 0.000000 0.000000 0.000000
# 4 0.000000 0.000000 0.000000 0.024968 0.000000 0.000000
# 5 0.000000 0.000000 0.000000 0.000000 0.026034 0.000000
# 6 0.000000 0.000000 0.000000 0.000000 0.000000 -0.120116
#
#
# Mechanical properties :
#
#
# Convention : Reuss Voigt Hill
#
# Bulk Modulus (GPa) = 80.30700 82.85072 81.57886
# Shear Modulus (GPa) = -230.39037 32.32449 -99.03294
#
# Velocity S-wave (km/s) = -10.97544 4.11108 -7.19581
# Velocity P-wave (km/s) = 10.89151 8.11501 5.13671
#
# Compressibility (1/GPa) = 0.01245221
#
# Stress axis : x y z
#
# Youngs Moduli (GPa) = 79.18749 130.18584 132.50538
#
# Poissons Ratio (x) = 0.42638 0.43126
# Poissons Ratio (y) = 0.25935 0.15534
# Poissons Ratio (z) = 0.25773 0.15262
#
# Static dielectric constant tensor:
#      x y z
#    x 3.621010 0.000000 0.000000 
#    y 0.000000 3.555840 0.000000 
#    z 0.000000 0.000000 3.602840 
# 
# 
# High freq. dielectric constant tensor:
#      x y z
#    x 1.748510 0.000000 0.000000 
#    y 0.000000 1.749840 0.000000 
#    z 0.000000 0.000000 1.744250 
# 
# From -- ./inp_files/15859.got.cif
#   From: 2010.03.12/outbox.cif.g09.slc.cpg/sg65_8_cif.got.tgz:15859.got - 2010.04.10 20:52:16.
