data_PCOD8273975
_publ_section_title
;
Structure prediction by ZEFSAII (Michael W. Deem and Ramdas Pophale) SiO2 
 PCOD8273975
Probable space group: C M M M
;
_chemical_formula_sum "Si O2"
_cell_formula_units_Z 40
_cell_length_a 7.934557
_cell_length_b 24.374156
_cell_length_c 10.376149
_cell_angle_alpha 90.000000
_cell_angle_beta 90.000000
_cell_angle_gamma 90.000000
_cell_volume 2006.727814
_symmetry_space_group_name_H-M "C M M M"
_symmetry_group_IT_number 65
_symmetry_cell_setting 'orthorhombic'
loop_
_space_group_symop_operation_xyz
x,y,z
-x,-y,z
x,-y,-z
-x,y,-z
-x,-y,-z
x,y,-z
-x,y,z
x,-y,z
1/2+x,1/2+y,z
1/2-x,1/2-y,z
1/2+x,1/2-y,-z
1/2-x,1/2+y,-z
1/2-x,1/2-y,-z
1/2+x,1/2+y,-z
1/2-x,1/2+y,z
1/2+x,1/2-y,z
loop_
_atom_site_type_symbol
_atom_site_label
_atom_site_fract_x
_atom_site_fract_y
_atom_site_fract_z
Si Si1 0.000000 0.172733 0.145127
Si Si2 0.306666 0.564747 0.500000
Si Si3 0.500000 0.766799 0.356062
Si Si4 0.182584 0.365927 0.730954
O O1 0.166877 0.135544 0.165085
O O2 0.000000 0.221280 0.246738
O O3 0.000000 0.196168 0.000000
O O4 0.287227 0.500000 0.500000
O O5 0.500000 0.583915 0.500000
O O6 0.217494 0.587628 0.373579
O O7 0.500000 0.741235 0.500000
O O8 0.334130 0.805878 0.338126
O O9 0.000000 0.379351 0.797250
#
# Coordination Sequence:
#
# PCOD8273975 Si02
#       4
#     8   8   8  16
#     4  12  26  40  60  89 134 179 214 256 296 364
#     4  11  21  39  70 100 124 156 203 266 334 379
#     4  10  22  38  62  92 125 176 207 252 310 374
#     4  10  22  40  60  91 128 163 209 257 317 367
#
# _framework density 19.932946000000001
#
# number of rings (size 3 to 8) (size 9 to 14) (size 15 to 20)
#    1.200    0.200    4.000    1.800    2.800    7.200 
#    0.000    0.000    0.000    2.400    0.000    2.800 
#    0.000    0.000    0.000    0.000    0.000    0.000 
#
# Total GULP energy -247854.576837 kJ/mol
# GULP energy per Si atom -12392.728842 kJ/mol
# Density = 1.988758 g / cm^3
# Si number density = 19.932946 Si / 1000 Ang^3
#
#
#
# Elastic Constant Matrix: (Units=GPa)
#
#
# Indices 1 2 3 4 5 6 
#
# 1 175.9550 32.6368 50.1568 0.0000 0.0000 0.0000
# 2 32.6368 63.0786 29.0418 0.0000 0.0000 0.0000
# 3 50.1568 29.0418 123.0202 0.0000 0.0000 0.0000
# 4 0.0000 0.0000 0.0000 -1.8383 0.0000 0.0000
# 5 0.0000 0.0000 0.0000 0.0000 5.8534 0.0000
# 6 0.0000 0.0000 0.0000 0.0000 0.0000 15.9698
#
#
#
# Elastic Compliance Matrix: (Units=1/GPa)
#
#
# Indices 1 2 3 4 5 6 
#
# 1 0.006765 -0.002502 -0.002168 0.000000 0.000000 0.000000
# 2 -0.002502 0.018712 -0.003397 0.000000 0.000000 0.000000
# 3 -0.002168 -0.003397 0.009814 0.000000 0.000000 0.000000
# 4 0.000000 0.000000 0.000000 -0.543968 0.000000 0.000000
# 5 0.000000 0.000000 0.000000 0.000000 0.170840 0.000000
# 6 0.000000 0.000000 0.000000 0.000000 0.000000 0.062618
#
#
# Mechanical properties :
#
#
# Convention : Reuss Voigt Hill
#
# Bulk Modulus (GPa) = 52.19862 65.08053 58.63957
# Shear Modulus (GPa) = -19.78648 20.67818 0.44585
#
# Velocity S-wave (km/s) = -3.15406 3.22434 0.47346
# Velocity P-wave (km/s) = 3.60276 6.82513 5.45721
#
# Compressibility (1/GPa) = 0.01915760
#
# Stress axis : x y z
#
# Youngs Moduli (GPa) = 147.81320 53.44143 101.89043
#
# Poissons Ratio (x) = 0.13373 0.22085
# Poissons Ratio (y) = 0.36989 0.34614
# Poissons Ratio (z) = 0.32039 0.18155
#
# Static dielectric constant tensor:
#      x y z
#    x 4.167250 0.000000 0.000000 
#    y 0.000000 3.285000 0.000000 
#    z 0.000000 0.000000 3.287080 
# 
# 
# High freq. dielectric constant tensor:
#      x y z
#    x 1.810310 0.000000 0.000000 
#    y 0.000000 1.746700 0.000000 
#    z 0.000000 0.000000 1.739780 
# 
# From -- ./inp_files/2476.got.cif
#   From: 2010.03.12/outbox.cif.g09.slc.cpg/sg65_2_cif.got.tgz:2476.got - 2010.04.10 20:52:16.
