data_PCOD8273737
_publ_section_title
;
Structure prediction by ZEFSAII (Michael W. Deem and Ramdas Pophale) SiO2 
 PCOD8273737
Probable space group: C M M M
;
_chemical_formula_sum "Si O2"
_cell_formula_units_Z 64
_cell_length_a 18.149523
_cell_length_b 8.824420
_cell_length_c 20.435884
_cell_angle_alpha 90.000000
_cell_angle_beta 90.000000
_cell_angle_gamma 90.000000
_cell_volume 3272.991027
_symmetry_space_group_name_H-M "C M M M"
_symmetry_group_IT_number 65
_symmetry_cell_setting 'orthorhombic'
loop_
_space_group_symop_operation_xyz
x,y,z
-x,-y,z
x,-y,-z
-x,y,-z
-x,-y,-z
x,y,-z
-x,y,z
x,-y,z
1/2+x,1/2+y,z
1/2-x,1/2-y,z
1/2+x,1/2-y,-z
1/2-x,1/2+y,-z
1/2-x,1/2-y,-z
1/2+x,1/2+y,-z
1/2-x,1/2+y,z
1/2+x,1/2-y,z
loop_
_atom_site_type_symbol
_atom_site_label
_atom_site_fract_x
_atom_site_fract_y
_atom_site_fract_z
Si Si1 0.087013 0.325457 0.000000
Si Si2 0.329912 0.679090 0.880990
Si Si3 0.586357 0.825765 0.382657
Si Si4 0.915498 0.175811 0.751426
Si Si5 0.670587 0.677790 0.500000
O O1 0.117403 0.244354 0.936099
O O2 0.111889 0.500000 0.000000
O O3 0.000000 0.307843 0.000000
O O4 0.324685 0.500000 0.889497
O O5 0.250000 0.750000 0.888078
O O6 0.364165 0.724971 0.811352
O O7 0.500000 0.799853 0.392614
O O8 0.610647 0.773281 0.310579
O O9 0.627440 0.725890 0.435533
O O10 0.608637 0.000000 0.392173
O O11 0.000000 0.212325 0.769994
O O12 0.905908 0.000000 0.733886
O O13 0.679568 0.500000 0.500000
O O14 0.750000 0.750000 0.500000
#
# Coordination Sequence:
#
# PCOD8273737 Si02
#       5
#     8  16  16  16   8
#     4  11  24  41  62  87 115 149 192 241 290 343
#     4  11  23  39  60  86 119 156 193 236 286 341
#     4  10  21  38  61  88 118 152 191 236 285 340
#     4   9  19  37  60  85 113 150 196 240 284 337
#     4  12  25  40  59  83 115 153 193 240 291 344
#
# _framework density 19.553979999999999
#
# number of rings (size 3 to 8) (size 9 to 14) (size 15 to 20)
#    0.000    1.625    0.000    4.500    0.000    8.000 
#    0.000    5.000    0.000    0.000    0.000    0.000 
#    0.000    0.000    0.000    0.000    0.000    0.000 
#
# Total GULP energy -396982.721337 kJ/mol
# GULP energy per Si atom -12405.710042 kJ/mol
# Density = 1.950947 g / cm^3
# Si number density = 19.553980 Si / 1000 Ang^3
#
#
#
# Elastic Constant Matrix: (Units=GPa)
#
#
# Indices 1 2 3 4 5 6 
#
# 1 79.0062 54.1148 63.4484 0.0000 0.0000 0.0000
# 2 54.1148 132.8380 80.2627 0.0000 0.0000 0.0000
# 3 63.4484 80.2627 142.9930 0.0000 0.0000 0.0000
# 4 0.0000 0.0000 0.0000 41.2727 0.0000 0.0000
# 5 0.0000 0.0000 0.0000 0.0000 -160.8827 0.0000
# 6 0.0000 0.0000 0.0000 0.0000 0.0000 29.9761
#
#
#
# Elastic Compliance Matrix: (Units=1/GPa)
#
#
# Indices 1 2 3 4 5 6 
#
# 1 0.021297 -0.004488 -0.006931 0.000000 0.000000 0.000000
# 2 -0.004488 0.012337 -0.004933 0.000000 0.000000 0.000000
# 3 -0.006931 -0.004933 0.012838 0.000000 0.000000 0.000000
# 4 0.000000 0.000000 0.000000 0.024229 0.000000 0.000000
# 5 0.000000 0.000000 0.000000 0.000000 -0.006216 0.000000
# 6 0.000000 0.000000 0.000000 0.000000 0.000000 0.033360
#
#
# Mechanical properties :
#
#
# Convention : Reuss Voigt Hill
#
# Bulk Modulus (GPa) = 72.63481 83.38767 78.01124
# Shear Modulus (GPa) = 36.99873 -7.45936 14.76969
#
# Velocity S-wave (km/s) = 4.35458 -1.95526 2.75131
# Velocity P-wave (km/s) = 7.90630 6.13515 7.07636
#
# Compressibility (1/GPa) = 0.01376750
#
# Stress axis : x y z
#
# Youngs Moduli (GPa) = 46.95406 81.05537 77.89536
#
# Poissons Ratio (x) = 0.36381 0.53987
# Poissons Ratio (y) = 0.21075 0.38429
# Poissons Ratio (z) = 0.32542 0.39988
#
# Static dielectric constant tensor:
#      x y z
#    x 3.690970 0.000000 0.000000 
#    y 0.000000 3.716680 0.000000 
#    z 0.000000 0.000000 3.731210 
# 
# 
# High freq. dielectric constant tensor:
#      x y z
#    x 1.764710 0.000000 0.000000 
#    y 0.000000 1.773490 0.000000 
#    z 0.000000 0.000000 1.777790 
# 
# From -- ./inp_files/55326.got.cif
#   From: 2010.03.12/outbox.cif.g09.slc.cpg/sg65_28_cif.got.tgz:55326.got - 2010.04.10 20:52:16.
