data_PCOD8273605
_publ_section_title
;
Structure prediction by ZEFSAII (Michael W. Deem and Ramdas Pophale) SiO2 
 PCOD8273605
Probable space group: C M M M
;
_chemical_formula_sum "Si O2"
_cell_formula_units_Z 88
_cell_length_a 18.163910
_cell_length_b 29.570807
_cell_length_c 8.874245
_cell_angle_alpha 90.000000
_cell_angle_beta 90.000000
_cell_angle_gamma 90.000000
_cell_volume 4766.547581
_symmetry_space_group_name_H-M "C M M M"
_symmetry_group_IT_number 65
_symmetry_cell_setting 'orthorhombic'
loop_
_space_group_symop_operation_xyz
x,y,z
-x,-y,z
x,-y,-z
-x,y,-z
-x,-y,-z
x,y,-z
-x,y,z
x,-y,z
1/2+x,1/2+y,z
1/2-x,1/2-y,z
1/2+x,1/2-y,-z
1/2-x,1/2+y,-z
1/2-x,1/2-y,-z
1/2+x,1/2+y,-z
1/2-x,1/2+y,z
1/2+x,1/2-y,z
loop_
_atom_site_type_symbol
_atom_site_label
_atom_site_fract_x
_atom_site_fract_y
_atom_site_fract_z
Si Si1 0.580175 0.853999 0.321398
Si Si2 0.500000 0.553742 0.671133
Si Si3 0.084391 0.252797 0.669183
Si Si4 0.148912 0.947577 0.176281
Si Si5 0.264691 0.116451 0.322671
Si Si6 0.295077 0.295360 0.172982
O O1 0.576103 0.850086 0.500000
O O2 0.500000 0.872113 0.261615
O O3 0.594342 0.803183 0.260619
O O4 0.648429 0.886286 0.274227
O O5 0.500000 0.500000 0.683431
O O6 0.500000 0.570867 0.500000
O O7 0.574032 0.572313 0.750391
O O8 0.117885 0.250596 0.500000
O O9 0.122182 0.216033 0.777061
O O10 0.000000 0.238882 0.664872
O O11 0.220835 0.922652 0.237959
O O12 0.158708 0.000000 0.217148
O O13 0.142453 0.939297 0.000000
O O14 0.255036 0.109302 0.500000
O O15 0.235313 0.165428 0.278447
O O16 0.250000 0.250000 0.202282
O O17 0.293001 0.311367 0.000000
#
# Coordination Sequence:
#
# PCOD8273605 Si02
#       6
#    16   8  16  16  16  16
#     4   8  15  29  51  78 104 133 173 222 271 315
#     4   9  17  33  59  87 111 137 177 221 259 311
#     4   9  17  32  53  73  97 134 180 223 262 309
#     4  10  21  38  59  82 112 145 175 215 269 323
#     4  11  21  34  57  82 106 138 180 227 269 319
#     4  11  22  34  49  73 109 145 176 216 265 321
#
# _framework density 18.461998999999999
#
# number of rings (size 3 to 8) (size 9 to 14) (size 15 to 20)
#    0.000    2.273    1.818    3.000    0.000    3.273 
#    1.636    0.000    0.000    2.727    0.000    3.818 
#    0.000    0.000    0.000    0.000    0.000    0.000 
#
# Total GULP energy -545427.929795 kJ/mol
# GULP energy per Si atom -12396.089314 kJ/mol
# Density = 1.841998 g / cm^3
# Si number density = 18.461999 Si / 1000 Ang^3
#
#
#
# Elastic Constant Matrix: (Units=GPa)
#
#
# Indices 1 2 3 4 5 6 
#
# 1 154.0081 51.5830 42.2174 0.0000 0.0000 0.0000
# 2 51.5830 53.6998 29.0400 0.0000 0.0000 0.0000
# 3 42.2174 29.0400 57.8343 0.0000 0.0000 0.0000
# 4 0.0000 0.0000 0.0000 26.1515 0.0000 0.0000
# 5 0.0000 0.0000 0.0000 0.0000 21.5373 0.0000
# 6 0.0000 0.0000 0.0000 0.0000 0.0000 29.5992
#
#
#
# Elastic Compliance Matrix: (Units=1/GPa)
#
#
# Indices 1 2 3 4 5 6 
#
# 1 0.010041 -0.007799 -0.003414 0.000000 0.000000 0.000000
# 2 -0.007799 0.031622 -0.010185 0.000000 0.000000 0.000000
# 3 -0.003414 -0.010185 0.024897 0.000000 0.000000 0.000000
# 4 0.000000 0.000000 0.000000 0.038239 0.000000 0.000000
# 5 0.000000 0.000000 0.000000 0.000000 0.046431 0.000000
# 6 0.000000 0.000000 0.000000 0.000000 0.000000 0.033785
#
#
# Mechanical properties :
#
#
# Convention : Reuss Voigt Hill
#
# Bulk Modulus (GPa) = 42.08005 56.80255 49.44130
# Shear Modulus (GPa) = 21.21065 24.97105 23.09085
#
# Velocity S-wave (km/s) = 3.39319 3.68171 3.54039
# Velocity P-wave (km/s) = 6.18013 6.99338 6.59929
#
# Compressibility (1/GPa) = 0.02376423
#
# Stress axis : x y z
#
# Youngs Moduli (GPa) = 99.58962 31.62382 40.16627
#
# Poissons Ratio (x) = 0.24665 0.13711
# Poissons Ratio (y) = 0.77674 0.40908
# Poissons Ratio (z) = 0.33995 0.32208
#
# Static dielectric constant tensor:
#      x y z
#    x 3.809790 0.000000 0.000000 
#    y 0.000000 3.098140 0.000000 
#    z 0.000000 0.000000 3.277700 
# 
# 
# High freq. dielectric constant tensor:
#      x y z
#    x 1.732180 0.000000 0.000000 
#    y 0.000000 1.676160 0.000000 
#    z 0.000000 0.000000 1.706290 
# 
# From -- ./inp_files/10040.got.cif
#   From: 2010.03.12/outbox.cif.g09.slc.cpg/sg65_6_cif.got.tgz:10040.got - 2010.04.10 20:52:16.
