data_PCOD8273061
_publ_section_title
;
Structure prediction by ZEFSAII (Michael W. Deem and Ramdas Pophale) SiO2 
 PCOD8273061
Probable space group: C M M M
;
_chemical_formula_sum "Si O2"
_cell_formula_units_Z 72
_cell_length_a 8.944276
_cell_length_b 15.243638
_cell_length_c 26.271435
_cell_angle_alpha 90.000000
_cell_angle_beta 90.000000
_cell_angle_gamma 90.000000
_cell_volume 3581.934289
_symmetry_space_group_name_H-M "C M M M"
_symmetry_group_IT_number 65
_symmetry_cell_setting 'orthorhombic'
loop_
_space_group_symop_operation_xyz
x,y,z
-x,-y,z
x,-y,-z
-x,y,-z
-x,-y,-z
x,y,-z
-x,y,z
x,-y,z
1/2+x,1/2+y,z
1/2-x,1/2-y,z
1/2+x,1/2-y,-z
1/2-x,1/2+y,-z
1/2-x,1/2-y,-z
1/2+x,1/2+y,-z
1/2-x,1/2+y,z
1/2+x,1/2-y,z
loop_
_atom_site_type_symbol
_atom_site_label
_atom_site_fract_x
_atom_site_fract_y
_atom_site_fract_z
Si Si1 0.335517 0.097720 0.849972
Si Si2 0.174648 0.157820 0.943874
Si Si3 0.674002 0.152726 0.500000
Si Si4 0.821868 0.338857 0.257180
Si Si5 0.177554 0.000000 0.314521
Si Si6 0.175833 0.500000 0.577840
O O1 0.500000 0.129692 0.867709
O O2 0.227517 0.095106 0.898791
O O3 0.278073 0.155500 0.802789
O O4 0.343748 0.000000 0.827919
O O5 0.250000 0.250000 0.933567
O O6 0.000000 0.170392 0.940284
O O7 0.219215 0.120717 0.000000
O O8 0.500000 0.173874 0.500000
O O9 0.750000 0.250000 0.500000
O O10 0.715403 0.090563 0.548072
O O11 0.750000 0.250000 0.278598
O O12 0.747126 0.415283 0.288723
O O13 0.000000 0.340859 0.264696
O O14 0.219662 0.000000 0.373390
O O15 0.000000 0.000000 0.307581
O O16 0.000000 0.500000 0.591595
#
# Coordination Sequence:
#
# PCOD8273061 Si02
#       6
#    16  16   8  16   8   8
#     4  10  21  38  59  83 111 146 189 239 298 360
#     4  10  21  36  54  78 108 143 184 233 290 354
#     4   9  19  37  64  94 126 169 215 255 307 362
#     4  11  23  42  64  89 121 159 204 257 312 371
#     4  12  25  41  63  94 127 167 214 259 312 368
#     4   9  20  40  62  88 128 173 209 255 312 363
#
# _framework density 20.10087
#
# number of rings (size 3 to 8) (size 9 to 14) (size 15 to 20)
#    0.000    1.778    1.111    3.667    0.000    7.556 
#    0.000    5.556    0.000    0.000    0.000    0.000 
#    0.000    0.000    0.000    0.000    0.000    0.000 
#
# Total GULP energy -446205.766343 kJ/mol
# GULP energy per Si atom -12394.604621 kJ/mol
# Density = 2.005512 g / cm^3
# Si number density = 20.100870 Si / 1000 Ang^3
#
#
#
# Elastic Constant Matrix: (Units=GPa)
#
#
# Indices 1 2 3 4 5 6 
#
# 1 100.8976 56.3279 66.6604 0.0000 0.0000 0.0000
# 2 56.3279 147.1316 60.8040 0.0000 0.0000 0.0000
# 3 66.6604 60.8040 124.1094 0.0000 0.0000 0.0000
# 4 0.0000 0.0000 0.0000 17.3065 0.0000 0.0000
# 5 0.0000 0.0000 0.0000 0.0000 31.1364 0.0000
# 6 0.0000 0.0000 0.0000 0.0000 0.0000 36.1944
#
#
#
# Elastic Compliance Matrix: (Units=1/GPa)
#
#
# Indices 1 2 3 4 5 6 
#
# 1 0.016578 -0.003344 -0.007266 0.000000 0.000000 0.000000
# 2 -0.003344 0.009197 -0.002709 0.000000 0.000000 0.000000
# 3 -0.007266 -0.002709 0.013288 0.000000 0.000000 0.000000
# 4 0.000000 0.000000 0.000000 0.057782 0.000000 0.000000
# 5 0.000000 0.000000 0.000000 0.000000 0.032117 0.000000
# 6 0.000000 0.000000 0.000000 0.000000 0.000000 0.027629
#
#
# Mechanical properties :
#
#
# Convention : Reuss Voigt Hill
#
# Bulk Modulus (GPa) = 80.49425 82.19148 81.34286
# Shear Modulus (GPa) = 26.68513 29.48387 28.08450
#
# Velocity S-wave (km/s) = 3.64752 3.83403 3.74194
# Velocity P-wave (km/s) = 7.60732 7.78319 7.69576
#
# Compressibility (1/GPa) = 0.01242325
#
# Stress axis : x y z
#
# Youngs Moduli (GPa) = 60.31918 108.73557 75.25838
#
# Poissons Ratio (x) = 0.36362 0.54684
# Poissons Ratio (y) = 0.20171 0.20391
# Poissons Ratio (z) = 0.43829 0.29462
#
# Static dielectric constant tensor:
#      x y z
#    x 3.746780 0.000000 0.000000 
#    y 0.000000 3.604000 0.000000 
#    z 0.000000 0.000000 3.690500 
# 
# 
# High freq. dielectric constant tensor:
#      x y z
#    x 1.785130 0.000000 0.000000 
#    y 0.000000 1.789770 0.000000 
#    z 0.000000 0.000000 1.785210 
# 
# From -- ./inp_files/72618.got.cif
#   From: 2010.03.12/outbox.cif.g09.slc.cpg/sg65_37_cif.got.tgz:72618.got - 2010.04.10 20:52:16.
