data_PCOD8273148
_publ_section_title
;
Structure prediction by ZEFSAII (Michael W. Deem and Ramdas Pophale) SiO2 
 PCOD8273148
Probable space group: C M M M
;
_chemical_formula_sum "Si O2"
_cell_formula_units_Z 104
_cell_length_a 28.808429
_cell_length_b 10.139507
_cell_length_c 18.423587
_cell_angle_alpha 90.000000
_cell_angle_beta 90.000000
_cell_angle_gamma 90.000000
_cell_volume 5381.589962
_symmetry_space_group_name_H-M "C M M M"
_symmetry_group_IT_number 65
_symmetry_cell_setting 'orthorhombic'
loop_
_space_group_symop_operation_xyz
x,y,z
-x,-y,z
x,-y,-z
-x,y,-z
-x,-y,-z
x,y,-z
-x,y,z
x,-y,z
1/2+x,1/2+y,z
1/2-x,1/2-y,z
1/2+x,1/2-y,-z
1/2-x,1/2+y,-z
1/2-x,1/2-y,-z
1/2+x,1/2+y,-z
1/2-x,1/2+y,z
1/2+x,1/2-y,z
loop_
_atom_site_type_symbol
_atom_site_label
_atom_site_fract_x
_atom_site_fract_y
_atom_site_fract_z
Si Si1 0.877682 0.350265 0.417180
Si Si2 0.113757 0.261232 0.915434
Si Si3 0.945870 0.151161 0.350932
Si Si4 0.949806 0.148922 0.191850
Si Si5 0.948948 0.500000 0.914052
Si Si6 0.208424 0.652611 0.150547
Si Si7 0.209036 0.349082 0.681633
O O1 0.860744 0.340118 0.500000
O O2 0.894021 0.500000 0.399405
O O3 0.919103 0.247485 0.405571
O O4 0.834809 0.310065 0.366244
O O5 0.092652 0.145530 0.866238
O O6 0.079496 0.375239 0.887182
O O7 0.166120 0.300823 0.899463
O O8 0.108718 0.226669 0.000000
O O9 0.936180 0.210995 0.269853
O O10 0.000000 0.159512 0.370042
O O11 0.928067 0.000000 0.360635
O O12 0.000000 0.206119 0.162349
O O13 0.959499 0.000000 0.213276
O O14 0.000000 0.500000 0.879024
O O15 0.951510 0.500000 0.000000
O O16 0.221346 0.500000 0.132722
O O17 0.250000 0.750000 0.128740
O O18 0.194988 0.669880 0.234296
O O19 0.225138 0.500000 0.667572
O O20 0.250000 0.250000 0.660057
#
# Coordination Sequence:
#
# PCOD8273148 Si02
#       7
#    16  16  16  16   8  16  16
#     4  10  21  36  55  83 118 149 178 221 276 330
#     4  11  21  34  54  79 109 144 183 228 284 340
#     4   9  19  37  58  79 108 148 192 232 269 320
#     4   9  19  36  56  79 109 144 183 230 282 335
#     4   9  18  32  50  74 106 140 175 219 274 332
#     4  10  21  38  58  79 106 144 190 238 283 334
#     4   9  19  36  57  80 106 141 183 228 276 329
#
# _framework density 19.325143000000001
#
# number of rings (size 3 to 8) (size 9 to 14) (size 15 to 20)
#    0.000    2.385    0.769    2.308    0.000    4.000 
#    1.385    5.385    0.000    0.000    0.000    0.000 
#    0.000    0.000    0.000    0.000    0.000    0.000 
#
# Total GULP energy -644485.104967 kJ/mol
# GULP energy per Si atom -12393.944326 kJ/mol
# Density = 1.928116 g / cm^3
# Si number density = 19.325143 Si / 1000 Ang^3
#
#
#
# Elastic Constant Matrix: (Units=GPa)
#
#
# Indices 1 2 3 4 5 6 
#
# 1 102.2170 41.8155 31.4972 0.0000 0.0000 0.0000
# 2 41.8155 73.1255 21.2289 0.0000 0.0000 0.0000
# 3 31.4972 21.2289 61.6409 0.0000 0.0000 0.0000
# 4 0.0000 0.0000 0.0000 19.5301 0.0000 0.0000
# 5 0.0000 0.0000 0.0000 0.0000 26.8231 0.0000
# 6 0.0000 0.0000 0.0000 0.0000 0.0000 82.0176
#
#
#
# Elastic Compliance Matrix: (Units=1/GPa)
#
#
# Indices 1 2 3 4 5 6 
#
# 1 0.013976 -0.006576 -0.004877 0.000000 0.000000 0.000000
# 2 -0.006576 0.018289 -0.002938 0.000000 0.000000 0.000000
# 3 -0.004877 -0.002938 0.019727 0.000000 0.000000 0.000000
# 4 0.000000 0.000000 0.000000 0.051203 0.000000 0.000000
# 5 0.000000 0.000000 0.000000 0.000000 0.037281 0.000000
# 6 0.000000 0.000000 0.000000 0.000000 0.000000 0.012192
#
#
# Mechanical properties :
#
#
# Convention : Reuss Voigt Hill
#
# Bulk Modulus (GPa) = 43.08627 47.34075 45.21351
# Shear Modulus (GPa) = 26.42891 35.17028 30.79959
#
# Velocity S-wave (km/s) = 3.70211 4.27068 3.99652
# Velocity P-wave (km/s) = 6.37322 6.99060 6.68904
#
# Compressibility (1/GPa) = 0.02320925
#
# Stress axis : x y z
#
# Youngs Moduli (GPa) = 71.55105 54.67888 50.69251
#
# Poissons Ratio (x) = 0.35958 0.24721
# Poissons Ratio (y) = 0.47053 0.14895
# Poissons Ratio (z) = 0.34893 0.16066
#
# Static dielectric constant tensor:
#      x y z
#    x 3.444760 0.000000 0.000000 
#    y 0.000000 4.621340 0.000000 
#    z 0.000000 0.000000 3.368150 
# 
# 
# High freq. dielectric constant tensor:
#      x y z
#    x 1.747720 0.000000 0.000000 
#    y 0.000000 1.749880 0.000000 
#    z 0.000000 0.000000 1.745930 
# 
# From -- ./inp_files/57542.got.cif
#   From: 2010.03.12/outbox.cif.g09.slc.cpg/sg65_29_cif.got.tgz:57542.got - 2010.04.10 20:52:16.
