data_PCOD8273616
_publ_section_title
;
Structure prediction by ZEFSAII (Michael W. Deem and Ramdas Pophale) SiO2 
 PCOD8273616
Probable space group: C M M M
;
_chemical_formula_sum "Si O2"
_cell_formula_units_Z 72
_cell_length_a 14.283504
_cell_length_b 29.421312
_cell_length_c 8.883938
_cell_angle_alpha 90.000000
_cell_angle_beta 90.000000
_cell_angle_gamma 90.000000
_cell_volume 3733.381020
_symmetry_space_group_name_H-M "C M M M"
_symmetry_group_IT_number 65
_symmetry_cell_setting 'orthorhombic'
loop_
_space_group_symop_operation_xyz
x,y,z
-x,-y,z
x,-y,-z
-x,y,-z
-x,-y,-z
x,y,-z
-x,y,z
x,-y,z
1/2+x,1/2+y,z
1/2-x,1/2-y,z
1/2+x,1/2-y,-z
1/2-x,1/2+y,-z
1/2-x,1/2-y,-z
1/2+x,1/2+y,-z
1/2-x,1/2+y,z
1/2+x,1/2-y,z
loop_
_atom_site_type_symbol
_atom_site_label
_atom_site_fract_x
_atom_site_fract_y
_atom_site_fract_z
Si Si1 0.310792 0.053524 0.174342
Si Si2 0.000000 0.160933 0.178696
Si Si3 0.000000 0.446017 0.669485
Si Si4 0.185068 0.876217 0.324148
Si Si5 0.000000 0.264599 0.822525
Si Si6 0.186141 0.291161 0.325092
O O1 0.408078 0.071584 0.244644
O O2 0.224310 0.076593 0.259807
O O3 0.299580 0.000000 0.198003
O O4 0.309706 0.067030 0.000000
O O5 0.909960 0.135068 0.239464
O O6 0.000000 0.212799 0.238990
O O7 0.000000 0.159256 0.000000
O O8 0.000000 0.500000 0.666612
O O9 0.000000 0.426154 0.500000
O O10 0.163723 0.881041 0.500000
O O11 0.261673 0.837854 0.290836
O O12 0.089818 0.291701 0.764856
O O13 0.000000 0.264760 0.000000
O O14 0.163435 0.284383 0.500000
O O15 0.250000 0.250000 0.265050
#
# Coordination Sequence:
#
# PCOD8273616 Si02
#       6
#    16   8   8  16   8  16
#     4  10  21  38  60  87 121 158 194 240 298 352
#     4  11  23  39  59  85 117 154 194 240 295 354
#     4   9  17  32  57  86 115 150 192 235 282 343
#     4  11  23  39  62  88 115 153 199 245 291 345
#     4  11  23  36  58  88 119 155 194 241 290 343
#     4  10  21  38  59  83 114 152 192 236 285 342
#
# _framework density 19.285468999999999
#
# number of rings (size 3 to 8) (size 9 to 14) (size 15 to 20)
#    0.000    1.667    2.222    2.333    0.000    6.667 
#    0.000    1.667    0.000    3.333    0.000    0.000 
#    0.000    0.000    0.000    0.000    0.000    0.000 
#
# Total GULP energy -446612.015054 kJ/mol
# GULP energy per Si atom -12405.889307 kJ/mol
# Density = 1.924157 g / cm^3
# Si number density = 19.285469 Si / 1000 Ang^3
#
#
#
# Elastic Constant Matrix: (Units=GPa)
#
#
# Indices 1 2 3 4 5 6 
#
# 1 146.3758 38.6095 64.4329 0.0000 0.0000 0.0000
# 2 38.6095 55.4333 40.8665 0.0000 0.0000 0.0000
# 3 64.4329 40.8665 102.4279 0.0000 0.0000 0.0000
# 4 0.0000 0.0000 0.0000 28.4553 0.0000 0.0000
# 5 0.0000 0.0000 0.0000 0.0000 21.1965 0.0000
# 6 0.0000 0.0000 0.0000 0.0000 0.0000 30.3585
#
#
#
# Elastic Compliance Matrix: (Units=1/GPa)
#
#
# Indices 1 2 3 4 5 6 
#
# 1 0.009844 -0.003246 -0.004897 0.000000 0.000000 0.000000
# 2 -0.003246 0.026627 -0.008582 0.000000 0.000000 0.000000
# 3 -0.004897 -0.008582 0.016268 0.000000 0.000000 0.000000
# 4 0.000000 0.000000 0.000000 0.035143 0.000000 0.000000
# 5 0.000000 0.000000 0.000000 0.000000 0.047178 0.000000
# 6 0.000000 0.000000 0.000000 0.000000 0.000000 0.032940
#
#
# Mechanical properties :
#
#
# Convention : Reuss Voigt Hill
#
# Bulk Modulus (GPa) = 51.84411 65.78386 58.81399
# Shear Modulus (GPa) = 24.05264 26.69060 25.37162
#
# Velocity S-wave (km/s) = 3.53539 3.72422 3.63103
# Velocity P-wave (km/s) = 6.60349 7.25794 6.93844
#
# Compressibility (1/GPa) = 0.01928859
#
# Stress axis : x y z
#
# Youngs Moduli (GPa) = 101.58952 37.55567 61.47220
#
# Poissons Ratio (x) = 0.12190 0.30104
# Poissons Ratio (y) = 0.32974 0.52755
# Poissons Ratio (z) = 0.49750 0.32230
#
# Static dielectric constant tensor:
#      x y z
#    x 3.457290 0.000000 0.000000 
#    y 0.000000 3.406500 0.000000 
#    z 0.000000 0.000000 3.584200 
# 
# 
# High freq. dielectric constant tensor:
#      x y z
#    x 1.756490 0.000000 0.000000 
#    y 0.000000 1.739830 0.000000 
#    z 0.000000 0.000000 1.760330 
# 
# From -- ./inp_files/7398.got.cif
#   From: 2010.03.12/outbox.cif.g09.slc.cpg/sg65_4_cif.got.tgz:7398.got - 2010.04.10 20:52:16.
