data_PCOD8273151
_publ_section_title
;
Structure prediction by ZEFSAII (Michael W. Deem and Ramdas Pophale) SiO2 
 PCOD8273151
Probable space group: C M M M
;
_chemical_formula_sum "Si O2"
_cell_formula_units_Z 104
_cell_length_a 28.099853
_cell_length_b 8.873529
_cell_length_c 21.284642
_cell_angle_alpha 90.000000
_cell_angle_beta 90.000000
_cell_angle_gamma 90.000000
_cell_volume 5307.216090
_symmetry_space_group_name_H-M "C M M M"
_symmetry_group_IT_number 65
_symmetry_cell_setting 'orthorhombic'
loop_
_space_group_symop_operation_xyz
x,y,z
-x,-y,z
x,-y,-z
-x,y,-z
-x,-y,-z
x,y,-z
-x,y,z
x,-y,z
1/2+x,1/2+y,z
1/2-x,1/2-y,z
1/2+x,1/2-y,-z
1/2-x,1/2+y,-z
1/2-x,1/2-y,-z
1/2+x,1/2+y,-z
1/2-x,1/2+y,z
1/2+x,1/2-y,z
loop_
_atom_site_type_symbol
_atom_site_label
_atom_site_fract_x
_atom_site_fract_y
_atom_site_fract_z
Si Si1 0.698860 0.679105 0.500000
Si Si2 0.355131 0.673339 0.745400
Si Si3 0.699342 0.674896 0.128214
Si Si4 0.448945 0.178168 0.569781
Si Si5 0.351402 0.177382 0.618710
Si Si6 0.110268 0.326649 0.928182
Si Si7 0.554182 0.676971 0.821501
O O1 0.701208 0.500000 0.500000
O O2 0.750000 0.750000 0.500000
O O3 0.674177 0.734543 0.563357
O O4 0.356101 0.500000 0.724487
O O5 0.317602 0.702049 0.800594
O O6 0.335015 0.771630 0.687576
O O7 0.408234 0.725425 0.767252
O O8 0.703774 0.500000 0.112497
O O9 0.750000 0.750000 0.116646
O O10 0.660611 0.744704 0.081537
O O11 0.439178 0.243996 0.500000
O O12 0.500000 0.239071 0.595100
O O13 0.406947 0.226091 0.616121
O O14 0.450522 0.000000 0.564577
O O15 0.342593 0.000000 0.609366
O O16 0.117104 0.500000 0.909596
O O17 0.068026 0.258154 0.886183
O O18 0.094332 0.306811 0.000000
O O19 0.500000 0.720702 0.802161
O O20 0.559398 0.500000 0.833829
#
# Coordination Sequence:
#
# PCOD8273151 Si02
#       7
#     8  16  16  16  16  16  16
#     4  12  26  44  63  82 109 143 182 231 285 340
#     4   9  20  37  55  80 113 149 188 230 278 331
#     4  10  21  38  60  82 109 145 187 234 284 340
#     4   8  14  27  49  76 107 140 172 209 253 308
#     4  11  21  36  59  86 114 145 184 228 278 333
#     4  10  21  36  55  83 118 152 189 235 284 335
#     4   9  19  37  59  82 114 157 199 238 280 329
#
# _framework density 19.595960000000002
#
# number of rings (size 3 to 8) (size 9 to 14) (size 15 to 20)
#    0.000    2.308    0.769    3.462    0.000    6.462 
#    0.000    3.077    0.000    1.846    0.000    0.000 
#    0.000    0.000    0.000    0.000    0.000    0.000 
#
# Total GULP energy -644641.024762 kJ/mol
# GULP energy per Si atom -12396.942784 kJ/mol
# Density = 1.955136 g / cm^3
# Si number density = 19.595960 Si / 1000 Ang^3
#
#
#
# Elastic Constant Matrix: (Units=GPa)
#
#
# Indices 1 2 3 4 5 6 
#
# 1 83.8980 31.6892 15.8337 0.0000 0.0000 0.0000
# 2 31.6892 95.1280 41.0384 0.0000 0.0000 0.0000
# 3 15.8337 41.0384 90.0095 0.0000 0.0000 0.0000
# 4 0.0000 0.0000 0.0000 31.2353 0.0000 0.0000
# 5 0.0000 0.0000 0.0000 0.0000 11.4380 0.0000
# 6 0.0000 0.0000 0.0000 0.0000 0.0000 29.0566
#
#
#
# Elastic Compliance Matrix: (Units=1/GPa)
#
#
# Indices 1 2 3 4 5 6 
#
# 1 0.013647 -0.004370 -0.000408 0.000000 0.000000 0.000000
# 2 -0.004370 0.014485 -0.005836 0.000000 0.000000 0.000000
# 3 -0.000408 -0.005836 0.013842 0.000000 0.000000 0.000000
# 4 0.000000 0.000000 0.000000 0.032015 0.000000 0.000000
# 5 0.000000 0.000000 0.000000 0.000000 0.087428 0.000000
# 6 0.000000 0.000000 0.000000 0.000000 0.000000 0.034416
#
#
# Mechanical properties :
#
#
# Convention : Reuss Voigt Hill
#
# Bulk Modulus (GPa) = 48.19978 49.57314 48.88646
# Shear Modulus (GPa) = 22.32376 26.37760 24.35068
#
# Velocity S-wave (km/s) = 3.37887 3.67287 3.52893
# Velocity P-wave (km/s) = 6.31447 6.58325 6.45026
#
# Compressibility (1/GPa) = 0.02074698
#
# Stress axis : x y z
#
# Youngs Moduli (GPa) = 73.27696 69.03504 72.24166
#
# Poissons Ratio (x) = 0.30168 0.02949
# Poissons Ratio (y) = 0.32022 0.42158
# Poissons Ratio (z) = 0.02991 0.40287
#
# Static dielectric constant tensor:
#      x y z
#    x 3.674800 0.000000 0.000000 
#    y 0.000000 3.466250 0.000000 
#    z 0.000000 0.000000 3.429840 
# 
# 
# High freq. dielectric constant tensor:
#      x y z
#    x 1.768320 0.000000 0.000000 
#    y 0.000000 1.754240 0.000000 
#    z 0.000000 0.000000 1.757500 
# 
# From -- ./inp_files/71869.got.cif
#   From: 2010.03.12/outbox.cif.g09.slc.cpg/sg65_36_cif.got.tgz:71869.got - 2010.04.10 20:52:16.
