data_PCOD8273206
_publ_section_title
;
Structure prediction by ZEFSAII (Michael W. Deem and Ramdas Pophale) SiO2 
 PCOD8273206
Probable space group: C M M M
;
_chemical_formula_sum "Si O2"
_cell_formula_units_Z 104
_cell_length_a 8.667407
_cell_length_b 22.023588
_cell_length_c 26.927469
_cell_angle_alpha 90.000000
_cell_angle_beta 90.000000
_cell_angle_gamma 90.000000
_cell_volume 5140.114567
_symmetry_space_group_name_H-M "C M M M"
_symmetry_group_IT_number 65
_symmetry_cell_setting 'orthorhombic'
loop_
_space_group_symop_operation_xyz
x,y,z
-x,-y,z
x,-y,-z
-x,y,-z
-x,-y,-z
x,y,-z
-x,y,z
x,-y,z
1/2+x,1/2+y,z
1/2-x,1/2-y,z
1/2+x,1/2-y,-z
1/2-x,1/2+y,-z
1/2-x,1/2-y,-z
1/2+x,1/2+y,-z
1/2-x,1/2+y,z
1/2+x,1/2-y,z
loop_
_atom_site_type_symbol
_atom_site_label
_atom_site_fract_x
_atom_site_fract_y
_atom_site_fract_z
Si Si1 0.180062 0.500000 0.892139
Si Si2 0.176188 0.685069 0.811998
Si Si3 0.818697 0.314569 0.000000
Si Si4 0.824048 0.402024 0.273024
Si Si5 0.681176 0.623357 0.905279
Si Si6 0.681299 0.313640 0.556544
Si Si7 0.175129 0.000000 0.789702
Si Si8 0.818162 0.071616 0.623422
O O1 0.268596 0.444577 0.916539
O O2 0.199170 0.500000 0.832892
O O3 0.000000 0.500000 0.905702
O O4 0.250000 0.750000 0.815981
O O5 0.188951 0.662887 0.754710
O O6 0.261427 0.640594 0.850236
O O7 0.000000 0.688641 0.829337
O O8 0.750000 0.250000 0.000000
O O9 0.760120 0.340836 0.948802
O O10 0.000000 0.316282 0.000000
O O11 0.700932 0.442754 0.244875
O O12 0.774333 0.401649 0.329942
O O13 0.000000 0.426407 0.269174
O O14 0.500000 0.632394 0.907716
O O15 0.739059 0.319601 0.500000
O O16 0.500000 0.306179 0.560614
O O17 0.750000 0.250000 0.579435
O O18 0.729731 0.378373 0.581743
O O19 0.000000 0.000000 0.810807
O O20 0.000000 0.074047 0.633682
O O21 0.772942 0.000000 0.611106
#
# Coordination Sequence:
#
# PCOD8273206 Si02
#       8
#     8  16   8  16  16  16   8  16
#     4  12  24  41  65  96 128 161 202 248 303 362
#     4  11  24  41  61  87 121 160 204 252 301 361
#     4  12  26  47  70  93 124 162 202 250 306 366
#     4  11  23  38  59  86 121 161 201 246 301 361
#     4  12  25  43  67  95 124 159 203 251 305 365
#     4   9  19  37  60  85 116 158 206 256 311 372
#     4  12  22  36  61  89 119 159 202 244 292 353
#     4  10  21  36  57  87 121 157 203 256 311 372
#
# _framework density 20.233011999999999
#
# number of rings (size 3 to 8) (size 9 to 14) (size 15 to 20)
#    0.000    1.077    2.308    4.846    0.000    3.692 
#    0.000    6.154    0.000    0.000    0.000    3.231 
#    0.000    0.000    0.000    0.000    0.000    0.000 
#
# Total GULP energy -644421.071642 kJ/mol
# GULP energy per Si atom -12392.712916 kJ/mol
# Density = 2.018696 g / cm^3
# Si number density = 20.233012 Si / 1000 Ang^3
#
#
#
# Elastic Constant Matrix: (Units=GPa)
#
#
# Indices 1 2 3 4 5 6 
#
# 1 125.6921 47.7545 37.7840 0.0000 0.0000 0.0000
# 2 47.7545 155.0560 58.9223 0.0000 0.0000 0.0000
# 3 37.7840 58.9223 103.6663 0.0000 0.0000 0.0000
# 4 0.0000 0.0000 0.0000 44.2651 0.0000 0.0000
# 5 0.0000 0.0000 0.0000 0.0000 33.3677 0.0000
# 6 0.0000 0.0000 0.0000 0.0000 0.0000 46.1078
#
#
#
# Elastic Compliance Matrix: (Units=1/GPa)
#
#
# Indices 1 2 3 4 5 6 
#
# 1 0.009413 -0.002035 -0.002274 0.000000 0.000000 0.000000
# 2 -0.002035 0.008666 -0.004184 0.000000 0.000000 0.000000
# 3 -0.002274 -0.004184 0.012853 0.000000 0.000000 0.000000
# 4 0.000000 0.000000 0.000000 0.022591 0.000000 0.000000
# 5 0.000000 0.000000 0.000000 0.000000 0.029969 0.000000
# 6 0.000000 0.000000 0.000000 0.000000 0.000000 0.021688
#
#
# Mechanical properties :
#
#
# Convention : Reuss Voigt Hill
#
# Bulk Modulus (GPa) = 71.70448 74.81511 73.25980
# Shear Modulus (GPa) = 39.42758 40.74502 40.08630
#
# Velocity S-wave (km/s) = 4.41917 4.49239 4.45593
# Velocity P-wave (km/s) = 7.84570 7.99786 7.92215
#
# Compressibility (1/GPa) = 0.01394613
#
# Stress axis : x y z
#
# Youngs Moduli (GPa) = 106.24003 115.39538 77.80101
#
# Poissons Ratio (x) = 0.23480 0.17693
# Poissons Ratio (y) = 0.21617 0.32551
# Poissons Ratio (z) = 0.24161 0.48281
#
# Static dielectric constant tensor:
#      x y z
#    x 3.711460 0.000000 0.000000 
#    y 0.000000 3.962840 0.000000 
#    z 0.000000 0.000000 3.775320 
# 
# 
# High freq. dielectric constant tensor:
#      x y z
#    x 1.797590 0.000000 0.000000 
#    y 0.000000 1.804070 0.000000 
#    z 0.000000 0.000000 1.783920 
# 
# From -- ./inp_files/73384.got.cif
#   From: 2010.03.12/outbox.cif.g09.slc.cpg/sg65_37_cif.got.tgz:73384.got - 2010.04.10 20:52:16.
