data_PCOD8273736
_publ_section_title
;
Structure prediction by ZEFSAII (Michael W. Deem and Ramdas Pophale) SiO2 
 PCOD8273736
Probable space group: C M M M
;
_chemical_formula_sum "Si O2"
_cell_formula_units_Z 80
_cell_length_a 29.959861
_cell_length_b 8.902764
_cell_length_c 14.606083
_cell_angle_alpha 90.000000
_cell_angle_beta 90.000000
_cell_angle_gamma 90.000000
_cell_volume 3895.815842
_symmetry_space_group_name_H-M "C M M M"
_symmetry_group_IT_number 65
_symmetry_cell_setting 'orthorhombic'
loop_
_space_group_symop_operation_xyz
x,y,z
-x,-y,z
x,-y,-z
-x,y,-z
-x,-y,-z
x,y,-z
-x,y,z
x,-y,z
1/2+x,1/2+y,z
1/2-x,1/2-y,z
1/2+x,1/2-y,-z
1/2-x,1/2+y,-z
1/2-x,1/2-y,-z
1/2+x,1/2+y,-z
1/2-x,1/2+y,z
1/2+x,1/2-y,z
loop_
_atom_site_type_symbol
_atom_site_label
_atom_site_fract_x
_atom_site_fract_y
_atom_site_fract_z
Si Si1 0.297862 0.177169 0.744089
Si Si2 0.863502 0.827661 0.392150
Si Si3 0.952861 0.178053 0.102782
Si Si4 0.548889 0.832121 0.391436
Si Si5 0.143792 0.175185 0.107970
O O1 0.250000 0.250000 0.732579
O O2 0.327203 0.226406 0.657636
O O3 0.319318 0.229145 0.839714
O O4 0.292729 0.000000 0.744401
O O5 0.858101 0.800942 0.500000
O O6 0.912885 0.780939 0.356969
O O7 0.856182 0.000000 0.364801
O O8 0.905413 0.229912 0.145822
O O9 0.000000 0.230871 0.151861
O O10 0.951448 0.000000 0.099086
O O11 0.954229 0.241236 0.000000
O O12 0.549025 0.836361 0.500000
O O13 0.500000 0.776221 0.357135
O O14 0.558466 0.000000 0.353834
O O15 0.151356 0.000000 0.129772
O O16 0.148286 0.205797 0.000000
#
# Coordination Sequence:
#
# PCOD8273736 Si02
#       5
#    16  16  16  16  16
#     4  12  26  43  62  82 109 145 187 239 293 347
#     4  10  21  38  61  88 117 149 188 234 283 339
#     4   7  10  20  44  79 114 146 180 218 262 313
#     4   8  14  27  50  81 117 155 191 227 272 327
#     4   9  18  35  60  88 118 151 188 232 280 332
#
# _framework density 20.534852000000001
#
# number of rings (size 3 to 8) (size 9 to 14) (size 15 to 20)
#    0.000    2.800    0.000    4.800    0.000    2.800 
#    0.000    3.000    0.000    4.200    0.000    2.800 
#    0.000    0.000    0.000    0.000    0.000    0.000 
#
# Total GULP energy -495525.427828 kJ/mol
# GULP energy per Si atom -12388.135696 kJ/mol
# Density = 2.048811 g / cm^3
# Si number density = 20.534852 Si / 1000 Ang^3
#
#
#
# Elastic Constant Matrix: (Units=GPa)
#
#
# Indices 1 2 3 4 5 6 
#
# 1 175.6491 69.7641 41.3195 0.0000 0.0000 0.0000
# 2 69.7641 115.4293 36.8108 0.0000 0.0000 0.0000
# 3 41.3195 36.8108 62.7259 0.0000 0.0000 0.0000
# 4 0.0000 0.0000 0.0000 25.8871 0.0000 0.0000
# 5 0.0000 0.0000 0.0000 0.0000 45.9074 0.0000
# 6 0.0000 0.0000 0.0000 0.0000 0.0000 0.3173
#
#
#
# Elastic Compliance Matrix: (Units=1/GPa)
#
#
# Indices 1 2 3 4 5 6 
#
# 1 0.007914 -0.003839 -0.002960 0.000000 0.000000 0.000000
# 2 -0.003839 0.012520 -0.004819 0.000000 0.000000 0.000000
# 3 -0.002960 -0.004819 0.020720 0.000000 0.000000 0.000000
# 4 0.000000 0.000000 0.000000 0.038629 0.000000 0.000000
# 5 0.000000 0.000000 0.000000 0.000000 0.021783 0.000000
# 6 0.000000 0.000000 0.000000 0.000000 0.000000 3.151313
#
#
# Mechanical properties :
#
#
# Convention : Reuss Voigt Hill
#
# Bulk Modulus (GPa) = 55.80790 72.17701 63.99246
# Shear Modulus (GPa) = 1.52342 28.14970 14.83656
#
# Velocity S-wave (km/s) = 0.86225 3.70648 2.69086
# Velocity P-wave (km/s) = 5.31295 7.31725 6.39412
#
# Compressibility (1/GPa) = 0.01791861
#
# Stress axis : x y z
#
# Youngs Moduli (GPa) = 126.35092 79.86962 48.26197
#
# Poissons Ratio (x) = 0.30665 0.14287
# Poissons Ratio (y) = 0.48510 0.23255
# Poissons Ratio (z) = 0.37405 0.38485
#
# Static dielectric constant tensor:
#      x y z
#    x 4.310690 0.000000 0.000000 
#    y 0.000000 3.481790 0.000000 
#    z 0.000000 0.000000 3.399970 
# 
# 
# High freq. dielectric constant tensor:
#      x y z
#    x 1.821040 0.000000 0.000000 
#    y 0.000000 1.775690 0.000000 
#    z 0.000000 0.000000 1.783170 
# 
# From -- ./inp_files/57846.got.cif
#   From: 2010.03.12/outbox.cif.g09.slc.cpg/sg65_29_cif.got.tgz:57846.got - 2010.04.10 20:52:16.
