data_PCOD8273513
_publ_section_title
;
Structure prediction by ZEFSAII (Michael W. Deem and Ramdas Pophale) SiO2 
 PCOD8273513
Probable space group: C M M M
;
_chemical_formula_sum "Si O2"
_cell_formula_units_Z 72
_cell_length_a 9.814729
_cell_length_b 17.817601
_cell_length_c 21.547692
_cell_angle_alpha 90.000000
_cell_angle_beta 90.000000
_cell_angle_gamma 90.000000
_cell_volume 3768.151028
_symmetry_space_group_name_H-M "C M M M"
_symmetry_group_IT_number 65
_symmetry_cell_setting 'orthorhombic'
loop_
_space_group_symop_operation_xyz
x,y,z
-x,-y,z
x,-y,-z
-x,y,-z
-x,-y,-z
x,y,-z
-x,y,z
x,-y,z
1/2+x,1/2+y,z
1/2-x,1/2-y,z
1/2+x,1/2-y,-z
1/2-x,1/2+y,-z
1/2-x,1/2-y,-z
1/2+x,1/2+y,-z
1/2-x,1/2+y,z
1/2+x,1/2-y,z
loop_
_atom_site_type_symbol
_atom_site_label
_atom_site_fract_x
_atom_site_fract_y
_atom_site_fract_z
Si Si1 0.000000 0.186803 0.927288
Si Si2 0.000000 0.641063 0.925654
Si Si3 0.838742 0.918623 0.500000
Si Si4 0.341310 0.323551 0.246311
Si Si5 0.156083 0.820465 0.386532
Si Si6 0.226921 0.086586 0.131782
O O1 0.000000 0.272437 0.902645
O O2 0.867360 0.143240 0.905859
O O3 0.000000 0.189662 0.000000
O O4 0.125292 0.596543 0.896690
O O5 0.000000 0.634509 0.000000
O O6 0.789903 0.879455 0.563195
O O7 0.000000 0.924660 0.500000
O O8 0.770002 0.000000 0.500000
O O9 0.500000 0.306192 0.229323
O O10 0.250000 0.250000 0.235127
O O11 0.328665 0.352715 0.316945
O O12 0.282225 0.390436 0.204087
O O13 0.250000 0.750000 0.395909
O O14 0.000000 0.797156 0.399540
O O15 0.180505 0.000000 0.124927
#
# Coordination Sequence:
#
# PCOD8273513 Si02
#       6
#     8   8   8  16  16  16
#     4  11  23  41  65  87 111 148 193 236 279 339
#     4  11  25  45  65  85 113 154 195 232 283 351
#     4   9  17  30  51  81 114 151 190 234 286 335
#     4  10  21  37  59  85 115 153 195 238 286 344
#     4   9  18  33  55  83 111 147 192 237 278 328
#     4  12  25  39  59  89 120 149 186 237 295 346
#
# _framework density 19.107514999999999
#
# number of rings (size 3 to 8) (size 9 to 14) (size 15 to 20)
#    0.000    1.667    1.111    3.667    1.556    5.333 
#    0.000    2.222    0.000    1.333    0.000    0.000 
#    0.000    0.000    0.000    0.000    0.000    0.000 
#
# Total GULP energy -446361.315155 kJ/mol
# GULP energy per Si atom -12398.925421 kJ/mol
# Density = 1.906403 g / cm^3
# Si number density = 19.107515 Si / 1000 Ang^3
#
#
#
# Elastic Constant Matrix: (Units=GPa)
#
#
# Indices 1 2 3 4 5 6 
#
# 1 86.1702 21.3233 36.9959 0.0000 0.0000 0.0000
# 2 21.3233 105.6556 56.3230 0.0000 0.0000 0.0000
# 3 36.9959 56.3230 116.1131 0.0000 0.0000 0.0000
# 4 0.0000 0.0000 0.0000 35.6997 0.0000 0.0000
# 5 0.0000 0.0000 0.0000 0.0000 98.6488 0.0000
# 6 0.0000 0.0000 0.0000 0.0000 0.0000 26.4720
#
#
#
# Elastic Compliance Matrix: (Units=1/GPa)
#
#
# Indices 1 2 3 4 5 6 
#
# 1 0.013470 -0.000581 -0.004010 0.000000 0.000000 0.000000
# 2 -0.000581 0.012791 -0.006019 0.000000 0.000000 0.000000
# 3 -0.004010 -0.006019 0.012810 0.000000 0.000000 0.000000
# 4 0.000000 0.000000 0.000000 0.028011 0.000000 0.000000
# 5 0.000000 0.000000 0.000000 0.000000 0.010137 0.000000
# 6 0.000000 0.000000 0.000000 0.000000 0.000000 0.037776
#
#
# Mechanical properties :
#
#
# Convention : Reuss Voigt Hill
#
# Bulk Modulus (GPa) = 56.02166 59.69147 57.85657
# Shear Modulus (GPa) = 35.17020 45.05055 40.11037
#
# Velocity S-wave (km/s) = 4.29493 4.86092 4.58667
# Velocity P-wave (km/s) = 7.34698 7.92543 7.64168
#
# Compressibility (1/GPa) = 0.01785024
#
# Stress axis : x y z
#
# Youngs Moduli (GPa) = 74.23692 78.18158 78.06510
#
# Poissons Ratio (x) = 0.04541 0.31306
# Poissons Ratio (y) = 0.04312 0.46990
# Poissons Ratio (z) = 0.29770 0.47060
#
# Static dielectric constant tensor:
#      x y z
#    x 2.337700 0.000000 0.000000 
#    y 0.000000 3.491070 0.000000 
#    z 0.000000 0.000000 3.904430 
# 
# 
# High freq. dielectric constant tensor:
#      x y z
#    x 1.739870 0.000000 0.000000 
#    y 0.000000 1.733330 0.000000 
#    z 0.000000 0.000000 1.763160 
# 
# From -- ./inp_files/59347.got.cif
#   From: 2010.03.12/outbox.cif.g09.slc.cpg/sg65_30_cif.got.tgz:59347.got - 2010.04.10 20:52:16.
