data_PCOD8273215
_publ_section_title
;
Structure prediction by ZEFSAII (Michael W. Deem and Ramdas Pophale) SiO2 
 PCOD8273215
Probable space group: C M M M
;
_chemical_formula_sum "Si O2"
_cell_formula_units_Z 80
_cell_length_a 28.437427
_cell_length_b 15.888484
_cell_length_c 9.122415
_cell_angle_alpha 90.000000
_cell_angle_beta 90.000000
_cell_angle_gamma 90.000000
_cell_volume 4121.758911
_symmetry_space_group_name_H-M "C M M M"
_symmetry_group_IT_number 65
_symmetry_cell_setting 'orthorhombic'
loop_
_space_group_symop_operation_xyz
x,y,z
-x,-y,z
x,-y,-z
-x,y,-z
-x,-y,-z
x,y,-z
-x,y,z
x,-y,z
1/2+x,1/2+y,z
1/2-x,1/2-y,z
1/2+x,1/2-y,-z
1/2-x,1/2+y,-z
1/2-x,1/2-y,-z
1/2+x,1/2+y,-z
1/2-x,1/2+y,z
1/2+x,1/2-y,z
loop_
_atom_site_type_symbol
_atom_site_label
_atom_site_fract_x
_atom_site_fract_y
_atom_site_fract_z
Si Si1 0.119916 0.500000 0.670736
Si Si2 0.218058 0.500000 0.174992
Si Si3 0.446687 0.153476 0.331520
Si Si4 0.447141 0.322382 0.827730
Si Si5 0.733172 0.342697 0.671668
Si Si6 0.866753 0.095297 0.664680
O O1 0.135112 0.500000 0.500000
O O2 0.164215 0.500000 0.776054
O O3 0.088645 0.580095 0.710335
O O4 0.241391 0.414924 0.235858
O O5 0.221994 0.500000 0.000000
O O6 0.441405 0.179943 0.500000
O O7 0.500000 0.124050 0.297810
O O8 0.431927 0.232560 0.234747
O O9 0.500000 0.346273 0.776339
O O10 0.410771 0.391541 0.771065
O O11 0.443984 0.318281 0.000000
O O12 0.743796 0.358831 0.500000
O O13 0.750000 0.250000 0.720775
O O14 0.677393 0.345578 0.704053
O O15 0.884090 0.113734 0.500000
O O16 0.848895 0.000000 0.681935
#
# Coordination Sequence:
#
# PCOD8273215 Si02
#       6
#     8   8  16  16  16  16
#     4  10  21  36  58  84 116 157 199 244 293 340
#     4  12  26  41  59  91 131 161 196 246 299 363
#     4   9  18  35  59  85 113 150 200 249 290 338
#     4  10  22  38  56  83 121 158 190 231 288 354
#     4  10  22  43  69  91 117 157 204 253 303 356
#     4  10  21  39  63  89 115 146 192 245 294 347
#
# _framework density 19.409189999999999
#
# number of rings (size 3 to 8) (size 9 to 14) (size 15 to 20)
#    0.000    2.000    1.000    1.800    2.800    5.200 
#    0.000    2.000    0.000    3.000    0.000    0.000 
#    0.000    0.000    0.000    0.000    0.000    0.000 
#
# Total GULP energy -496076.715461 kJ/mol
# GULP energy per Si atom -12401.917887 kJ/mol
# Density = 1.936501 g / cm^3
# Si number density = 19.409190 Si / 1000 Ang^3
#
#
#
# Elastic Constant Matrix: (Units=GPa)
#
#
# Indices 1 2 3 4 5 6 
#
# 1 115.0420 63.7969 52.6223 0.0000 0.0000 0.0000
# 2 63.7969 112.1087 48.5791 0.0000 0.0000 0.0000
# 3 52.6223 48.5791 78.1834 0.0000 0.0000 0.0000
# 4 0.0000 0.0000 0.0000 7.2239 0.0000 0.0000
# 5 0.0000 0.0000 0.0000 0.0000 25.3121 0.0000
# 6 0.0000 0.0000 0.0000 0.0000 0.0000 38.2449
#
#
#
# Elastic Compliance Matrix: (Units=1/GPa)
#
#
# Indices 1 2 3 4 5 6 
#
# 1 0.014745 -0.005598 -0.006446 0.000000 0.000000 0.000000
# 2 -0.005598 0.014331 -0.005137 0.000000 0.000000 0.000000
# 3 -0.006446 -0.005137 0.020321 0.000000 0.000000 0.000000
# 4 0.000000 0.000000 0.000000 0.138429 0.000000 0.000000
# 5 0.000000 0.000000 0.000000 0.000000 0.039507 0.000000
# 6 0.000000 0.000000 0.000000 0.000000 0.000000 0.026147
#
#
# Mechanical properties :
#
#
# Convention : Reuss Voigt Hill
#
# Bulk Modulus (GPa) = 66.50965 70.59232 68.55098
# Shear Modulus (GPa) = 17.07324 23.51189 20.29257
#
# Velocity S-wave (km/s) = 2.96910 3.48426 3.23695
# Velocity P-wave (km/s) = 6.78937 7.25509 7.02609
#
# Compressibility (1/GPa) = 0.01503541
#
# Stress axis : x y z
#
# Youngs Moduli (GPa) = 67.81769 69.77686 49.20935
#
# Poissons Ratio (x) = 0.39059 0.31723
# Poissons Ratio (y) = 0.37962 0.25280
# Poissons Ratio (z) = 0.43719 0.35846
#
# Static dielectric constant tensor:
#      x y z
#    x 3.652840 0.000000 0.000000 
#    y 0.000000 3.539280 0.000000 
#    z 0.000000 0.000000 3.445900 
# 
# 
# High freq. dielectric constant tensor:
#      x y z
#    x 1.766050 0.000000 0.000000 
#    y 0.000000 1.758680 0.000000 
#    z 0.000000 0.000000 1.743200 
# 
# From -- ./inp_files/16119.got.cif
#   From: 2010.03.12/outbox.cif.g09.slc.cpg/sg65_9_cif.got.tgz:16119.got - 2010.04.10 20:52:16.
