data_PCOD8273402
_publ_section_title
;
Structure prediction by ZEFSAII (Michael W. Deem and Ramdas Pophale) SiO2 
 PCOD8273402
Probable space group: C M M M
;
_chemical_formula_sum "Si O2"
_cell_formula_units_Z 72
_cell_length_a 8.771012
_cell_length_b 15.231423
_cell_length_c 26.149597
_cell_angle_alpha 90.000000
_cell_angle_beta 90.000000
_cell_angle_gamma 90.000000
_cell_volume 3493.455252
_symmetry_space_group_name_H-M "C M M M"
_symmetry_group_IT_number 65
_symmetry_cell_setting 'orthorhombic'
loop_
_space_group_symop_operation_xyz
x,y,z
-x,-y,z
x,-y,-z
-x,y,-z
-x,-y,-z
x,y,-z
-x,y,z
x,-y,z
1/2+x,1/2+y,z
1/2-x,1/2-y,z
1/2+x,1/2-y,-z
1/2-x,1/2+y,-z
1/2-x,1/2-y,-z
1/2+x,1/2+y,-z
1/2-x,1/2+y,z
1/2+x,1/2-y,z
loop_
_atom_site_type_symbol
_atom_site_label
_atom_site_fract_x
_atom_site_fract_y
_atom_site_fract_z
Si Si1 0.177862 0.151603 0.500000
Si Si2 0.678098 0.344844 0.056991
Si Si3 0.670566 0.098435 0.844827
Si Si4 0.820399 0.500000 0.687781
Si Si5 0.320226 0.500000 0.421716
Si Si6 0.320074 0.338977 0.253054
O O1 0.250000 0.250000 0.500000
O O2 0.222673 0.090341 0.451539
O O3 0.000000 0.169593 0.500000
O O4 0.500000 0.339346 0.068425
O O5 0.750000 0.250000 0.062758
O O6 0.757704 0.406122 0.098638
O O7 0.708486 0.382831 0.000000
O O8 0.500000 0.138647 0.846622
O O9 0.774267 0.154539 0.806659
O O10 0.664330 0.000000 0.823302
O O11 0.781618 0.500000 0.628363
O O12 0.749260 0.415371 0.713535
O O13 0.000000 0.500000 0.696376
O O14 0.500000 0.500000 0.409185
O O15 0.500000 0.339093 0.258341
O O16 0.250000 0.250000 0.275733
#
# Coordination Sequence:
#
# PCOD8273402 Si02
#       6
#     8  16  16   8   8  16
#     4   9  19  37  64  94 130 173 221 267 313 372
#     4  10  21  37  57  81 111 147 191 243 301 368
#     4  11  23  39  60  85 117 153 196 250 306 374
#     4  12  25  43  65  96 133 169 216 269 320 379
#     4   9  20  40  62  90 130 177 217 261 320 375
#     4  12  25  43  67  92 123 165 210 262 319 380
#
# _framework density 20.609967000000001
#
# number of rings (size 3 to 8) (size 9 to 14) (size 15 to 20)
#    0.000    1.333    1.111    5.667    0.000    4.889 
#    0.000    5.556    0.000    0.000    0.000    0.000 
#    0.000    0.000    0.000    0.000    0.000    0.000 
#
# Total GULP energy -446371.012488 kJ/mol
# GULP energy per Si atom -12399.194791 kJ/mol
# Density = 2.056306 g / cm^3
# Si number density = 20.609967 Si / 1000 Ang^3
#
#
#
# Elastic Constant Matrix: (Units=GPa)
#
#
# Indices 1 2 3 4 5 6 
#
# 1 176.1170 66.0665 67.1847 0.0000 0.0000 0.0000
# 2 66.0665 149.7189 57.2764 0.0000 0.0000 0.0000
# 3 67.1847 57.2764 121.7933 0.0000 0.0000 0.0000
# 4 0.0000 0.0000 0.0000 67.9078 0.0000 0.0000
# 5 0.0000 0.0000 0.0000 0.0000 36.0455 0.0000
# 6 0.0000 0.0000 0.0000 0.0000 0.0000 36.8396
#
#
#
# Elastic Compliance Matrix: (Units=1/GPa)
#
#
# Indices 1 2 3 4 5 6 
#
# 1 0.007729 -0.002170 -0.003243 0.000000 0.000000 0.000000
# 2 -0.002170 0.008754 -0.002920 0.000000 0.000000 0.000000
# 3 -0.003243 -0.002920 0.011373 0.000000 0.000000 0.000000
# 4 0.000000 0.000000 0.000000 0.014726 0.000000 0.000000
# 5 0.000000 0.000000 0.000000 0.000000 0.027743 0.000000
# 6 0.000000 0.000000 0.000000 0.000000 0.000000 0.027145
#
#
# Mechanical properties :
#
#
# Convention : Reuss Voigt Hill
#
# Bulk Modulus (GPa) = 89.36512 92.07604 90.72058
# Shear Modulus (GPa) = 42.42161 45.29870 43.86015
#
# Velocity S-wave (km/s) = 4.54178 4.69327 4.61814
# Velocity P-wave (km/s) = 8.42365 8.61054 8.51761
#
# Compressibility (1/GPa) = 0.01119005
#
# Stress axis : x y z
#
# Youngs Moduli (GPa) = 129.37819 114.23806 87.92991
#
# Poissons Ratio (x) = 0.24789 0.28517
# Poissons Ratio (y) = 0.28075 0.25672
# Poissons Ratio (z) = 0.41960 0.33353
#
# Static dielectric constant tensor:
#      x y z
#    x 3.798420 0.000000 0.000000 
#    y 0.000000 3.915980 0.000000 
#    z 0.000000 0.000000 3.799930 
# 
# 
# High freq. dielectric constant tensor:
#      x y z
#    x 1.815540 0.000000 0.000000 
#    y 0.000000 1.811990 0.000000 
#    z 0.000000 0.000000 1.805700 
# 
# From -- ./inp_files/72604.got.cif
#   From: 2010.03.12/outbox.cif.g09.slc.cpg/sg65_37_cif.got.tgz:72604.got - 2010.04.10 20:52:16.
