data_PCOD8273115
_publ_section_title
;
Structure prediction by ZEFSAII (Michael W. Deem and Ramdas Pophale) SiO2 
 PCOD8273115
Probable space group: C M M M
;
_chemical_formula_sum "Si O2"
_cell_formula_units_Z 80
_cell_length_a 28.872285
_cell_length_b 15.756169
_cell_length_c 9.514804
_cell_angle_alpha 90.000000
_cell_angle_beta 90.000000
_cell_angle_gamma 90.000000
_cell_volume 4328.442303
_symmetry_space_group_name_H-M "C M M M"
_symmetry_group_IT_number 65
_symmetry_cell_setting 'orthorhombic'
loop_
_space_group_symop_operation_xyz
x,y,z
-x,-y,z
x,-y,-z
-x,y,-z
-x,-y,-z
x,y,-z
-x,y,z
x,-y,z
1/2+x,1/2+y,z
1/2-x,1/2-y,z
1/2+x,1/2-y,-z
1/2-x,1/2+y,-z
1/2-x,1/2-y,-z
1/2+x,1/2+y,-z
1/2-x,1/2+y,z
1/2+x,1/2-y,z
loop_
_atom_site_type_symbol
_atom_site_label
_atom_site_fract_x
_atom_site_fract_y
_atom_site_fract_z
Si Si1 0.448896 0.665786 0.839035
Si Si2 0.147636 0.904569 0.162545
Si Si3 0.696062 0.742382 0.335111
Si Si4 0.855094 0.591732 0.665118
Si Si5 0.948978 0.668240 0.338011
O O1 0.500000 0.626874 0.802857
O O2 0.407770 0.599575 0.808235
O O3 0.438531 0.747763 0.747740
O O4 0.447786 0.695262 0.000000
O O5 0.176058 0.839569 0.257533
O O6 0.163569 0.000000 0.200457
O O7 0.158141 0.883738 0.000000
O O8 0.685398 0.731591 0.500000
O O9 0.750000 0.750000 0.304057
O O10 0.672926 0.828364 0.272057
O O11 0.846010 0.590842 0.500000
O O12 0.838891 0.500000 0.727836
O O13 0.909816 0.599640 0.699400
O O14 0.945397 0.694900 0.500000
O O15 0.000000 0.630554 0.303074
#
# Coordination Sequence:
#
# PCOD8273115 Si02
#       5
#    16  16  16  16  16
#     4   9  17  30  50  75 104 139 176 213 255 305
#     4  10  21  36  55  80 109 141 177 217 263 315
#     4  10  21  37  57  79 103 135 175 220 269 315
#     4   9  17  30  49  74 103 131 164 209 258 309
#     4   9  16  27  47  73  99 130 169 210 254 307
#
# _framework density 18.482399000000001
#
# number of rings (size 3 to 8) (size 9 to 14) (size 15 to 20)
#    0.000    2.600    2.000    0.000    0.000    2.400 
#    0.000    6.000    0.000    2.400    0.000    7.000 
#    0.000    0.000    0.000    0.000    0.000    0.000 
#
# Total GULP energy -495683.073103 kJ/mol
# GULP energy per Si atom -12392.076828 kJ/mol
# Density = 1.844033 g / cm^3
# Si number density = 18.482399 Si / 1000 Ang^3
#
#
#
# Elastic Constant Matrix: (Units=GPa)
#
#
# Indices 1 2 3 4 5 6 
#
# 1 109.8635 73.3448 37.1342 0.0000 0.0000 0.0000
# 2 73.3448 148.0448 43.0896 0.0000 0.0000 0.0000
# 3 37.1342 43.0896 41.5746 0.0000 0.0000 0.0000
# 4 0.0000 0.0000 0.0000 11.9111 0.0000 0.0000
# 5 0.0000 0.0000 0.0000 0.0000 18.2766 0.0000
# 6 0.0000 0.0000 0.0000 0.0000 0.0000 15.1551
#
#
#
# Elastic Compliance Matrix: (Units=1/GPa)
#
#
# Indices 1 2 3 4 5 6 
#
# 1 0.015398 -0.005192 -0.008373 0.000000 0.000000 0.000000
# 2 -0.005192 0.011423 -0.007202 0.000000 0.000000 0.000000
# 3 -0.008373 -0.007202 0.038996 0.000000 0.000000 0.000000
# 4 0.000000 0.000000 0.000000 0.083955 0.000000 0.000000
# 5 0.000000 0.000000 0.000000 0.000000 0.054715 0.000000
# 6 0.000000 0.000000 0.000000 0.000000 0.000000 0.065984
#
#
# Mechanical properties :
#
#
# Convention : Reuss Voigt Hill
#
# Bulk Modulus (GPa) = 41.17877 67.40226 54.29051
# Shear Modulus (GPa) = 15.62015 18.79618 17.20817
#
# Velocity S-wave (km/s) = 2.91028 3.19247 3.05463
# Velocity P-wave (km/s) = 5.79839 7.08072 6.47140
#
# Compressibility (1/GPa) = 0.02428436
#
# Stress axis : x y z
#
# Youngs Moduli (GPa) = 64.94282 87.54261 25.64357
#
# Poissons Ratio (x) = 0.45449 0.21471
# Poissons Ratio (y) = 0.33716 0.18469
# Poissons Ratio (z) = 0.54375 0.63049
#
# Static dielectric constant tensor:
#      x y z
#    x 3.630690 0.000000 0.000000 
#    y 0.000000 3.480040 0.000000 
#    z 0.000000 0.000000 3.181840 
# 
# 
# High freq. dielectric constant tensor:
#      x y z
#    x 1.727060 0.000000 0.000000 
#    y 0.000000 1.708090 0.000000 
#    z 0.000000 0.000000 1.686370 
# 
# From -- ./inp_files/9867.got.cif
#   From: 2010.03.12/outbox.cif.g09.slc.cpg/sg65_5_cif.got.tgz:9867.got - 2010.04.10 20:52:16.
