data_PCOD8273084
_publ_section_title
;
Structure prediction by ZEFSAII (Michael W. Deem and Ramdas Pophale) SiO2 
 PCOD8273084
Probable space group: C M M M
;
_chemical_formula_sum "Si O2"
_cell_formula_units_Z 72
_cell_length_a 15.608514
_cell_length_b 7.837851
_cell_length_c 28.369874
_cell_angle_alpha 90.000000
_cell_angle_beta 90.000000
_cell_angle_gamma 90.000000
_cell_volume 3470.691150
_symmetry_space_group_name_H-M "C M M M"
_symmetry_group_IT_number 65
_symmetry_cell_setting 'orthorhombic'
loop_
_space_group_symop_operation_xyz
x,y,z
-x,-y,z
x,-y,-z
-x,y,-z
-x,-y,-z
x,y,-z
-x,y,z
x,-y,z
1/2+x,1/2+y,z
1/2-x,1/2-y,z
1/2+x,1/2-y,-z
1/2-x,1/2+y,-z
1/2-x,1/2-y,-z
1/2+x,1/2+y,-z
1/2-x,1/2+y,z
1/2+x,1/2-y,z
loop_
_atom_site_type_symbol
_atom_site_label
_atom_site_fract_x
_atom_site_fract_y
_atom_site_fract_z
Si Si1 0.398120 0.500000 0.052784
Si Si2 0.500000 0.799806 0.279468
Si Si3 0.842577 0.799150 0.447236
Si Si4 0.156391 0.300134 0.779747
Si Si5 0.000000 0.202147 0.387327
Si Si6 0.601522 0.194507 0.881706
O O1 0.500000 0.500000 0.051557
O O2 0.366196 0.326719 0.078464
O O3 0.360186 0.500000 0.000000
O O4 0.415245 0.718893 0.254925
O O5 0.500000 0.761646 0.334168
O O6 0.500000 0.000000 0.271123
O O7 0.852390 0.721531 0.500000
O O8 0.750000 0.750000 0.426027
O O9 0.916077 0.722554 0.413524
O O10 0.852598 0.000000 0.449654
O O11 0.144797 0.500000 0.779169
O O12 0.250000 0.250000 0.760975
O O13 0.143100 0.237179 0.833254
O O14 0.000000 0.000000 0.389438
O O15 0.500000 0.200752 0.875397
O O16 0.630168 0.000000 0.894548
#
# Coordination Sequence:
#
# PCOD8273084 Si02
#       6
#     8   8  16  16   8  16
#     4   9  18  30  50  86 118 145 189 235 283 348
#     4  10  22  41  57  77 116 149 182 231 293 341
#     4   9  18  34  56  80 109 145 188 234 275 327
#     4  10  21  37  58  83 107 142 190 235 280 340
#     4  10  21  36  54  80 110 146 185 225 283 344
#     4   9  17  33  55  78 111 150 186 233 288 340
#
# _framework density 20.745148
#
# number of rings (size 3 to 8) (size 9 to 14) (size 15 to 20)
#    0.000    2.556    1.111    0.333    1.556    4.444 
#    0.000    6.667    0.000    4.000    0.000    0.000 
#    0.000    0.000    0.000    0.000    0.000    0.000 
#
# Total GULP energy -446298.994868 kJ/mol
# GULP energy per Si atom -12397.194302 kJ/mol
# Density = 2.069793 g / cm^3
# Si number density = 20.745148 Si / 1000 Ang^3
#
#
#
# Elastic Constant Matrix: (Units=GPa)
#
#
# Indices 1 2 3 4 5 6 
#
# 1 149.6394 22.5992 89.8931 0.0000 0.0000 0.0000
# 2 22.5992 56.1688 38.4561 0.0000 0.0000 0.0000
# 3 89.8931 38.4561 158.9940 0.0000 0.0000 0.0000
# 4 0.0000 0.0000 0.0000 29.4927 0.0000 0.0000
# 5 0.0000 0.0000 0.0000 0.0000 17.0399 0.0000
# 6 0.0000 0.0000 0.0000 0.0000 0.0000 22.4716
#
#
#
# Elastic Compliance Matrix: (Units=1/GPa)
#
#
# Indices 1 2 3 4 5 6 
#
# 1 0.010122 -0.000185 -0.005678 0.000000 0.000000 0.000000
# 2 -0.000185 0.021340 -0.005057 0.000000 0.000000 0.000000
# 3 -0.005678 -0.005057 0.010723 0.000000 0.000000 0.000000
# 4 0.000000 0.000000 0.000000 0.033907 0.000000 0.000000
# 5 0.000000 0.000000 0.000000 0.000000 0.058686 0.000000
# 6 0.000000 0.000000 0.000000 0.000000 0.000000 0.044501
#
#
# Mechanical properties :
#
#
# Convention : Reuss Voigt Hill
#
# Bulk Modulus (GPa) = 49.15226 74.07766 61.61496
# Shear Modulus (GPa) = 24.05011 28.05773 26.05392
#
# Velocity S-wave (km/s) = 3.40856 3.68162 3.54772
# Velocity P-wave (km/s) = 6.26385 7.33883 6.82255
#
# Compressibility (1/GPa) = 0.02034495
#
# Stress axis : x y z
#
# Youngs Moduli (GPa) = 98.79934 46.85992 93.25877
#
# Poissons Ratio (x) = 0.00867 0.52951
# Poissons Ratio (y) = 0.01828 0.47161
# Poissons Ratio (z) = 0.56097 0.23697
#
# Static dielectric constant tensor:
#      x y z
#    x 2.877330 0.000000 0.000000 
#    y 0.000000 3.629380 0.000000 
#    z 0.000000 0.000000 4.068200 
# 
# 
# High freq. dielectric constant tensor:
#      x y z
#    x 1.809060 0.000000 0.000000 
#    y 0.000000 1.798670 0.000000 
#    z 0.000000 0.000000 1.801250 
# 
# From -- ./inp_files/74699.got.cif
#   From: 2010.03.12/outbox.cif.g09.slc.cpg/sg65_38_cif.got.tgz:74699.got - 2010.04.10 20:52:16.
