data_PCOD8273027
_publ_section_title
;
Structure prediction by ZEFSAII (Michael W. Deem and Ramdas Pophale) SiO2 
 PCOD8273027
Probable space group: C M M M
;
_chemical_formula_sum "Si O2"
_cell_formula_units_Z 96
_cell_length_a 9.029952
_cell_length_b 20.094413
_cell_length_c 29.704365
_cell_angle_alpha 90.000000
_cell_angle_beta 90.000000
_cell_angle_gamma 90.000000
_cell_volume 5389.904106
_symmetry_space_group_name_H-M "C M M M"
_symmetry_group_IT_number 65
_symmetry_cell_setting 'orthorhombic'
loop_
_space_group_symop_operation_xyz
x,y,z
-x,-y,z
x,-y,-z
-x,y,-z
-x,-y,-z
x,y,-z
-x,y,z
x,-y,z
1/2+x,1/2+y,z
1/2-x,1/2-y,z
1/2+x,1/2-y,-z
1/2-x,1/2+y,-z
1/2-x,1/2-y,-z
1/2+x,1/2+y,-z
1/2-x,1/2+y,z
1/2+x,1/2-y,z
loop_
_atom_site_type_symbol
_atom_site_label
_atom_site_fract_x
_atom_site_fract_y
_atom_site_fract_z
Si Si1 0.671496 0.317277 0.052880
Si Si2 0.673446 0.317440 0.278419
Si Si3 0.172966 0.577234 0.113678
Si Si4 0.324922 0.317873 0.380608
Si Si5 0.327761 0.423919 0.205651
Si Si6 0.324043 0.573995 0.550134
O O1 0.500000 0.313010 0.066162
O O2 0.750000 0.250000 0.070081
O O3 0.744529 0.381004 0.075737
O O4 0.694858 0.326323 0.000000
O O5 0.500000 0.305403 0.275083
O O6 0.750000 0.250000 0.261456
O O7 0.720978 0.334993 0.329398
O O8 0.724247 0.378453 0.247176
O O9 0.206349 0.500000 0.103909
O O10 0.233907 0.597812 0.162433
O O11 0.000000 0.593230 0.111985
O O12 0.500000 0.310265 0.385615
O O13 0.250000 0.250000 0.396662
O O14 0.260202 0.375603 0.412693
O O15 0.500000 0.413472 0.194208
O O16 0.294830 0.500000 0.219306
O O17 0.272985 0.595995 0.500000
O O18 0.500000 0.573311 0.552581
O O19 0.263487 0.500000 0.560822
#
# Coordination Sequence:
#
# PCOD8273027 Si02
#       6
#    16  16  16  16  16  16
#     4  10  21  37  57  80 106 136 170 208 249 293
#     4   9  18  31  47  68  93 122 155 193 238 285
#     4  10  21  36  54  77 105 136 169 205 246 293
#     4   9  17  29  45  66  92 120 152 191 234 282
#     4   9  18  33  51  70  94 124 160 202 244 286
#     4   8  14  25  42  65  91 118 151 192 234 275
#
# _framework density 17.811077999999998
#
# number of rings (size 3 to 8) (size 9 to 14) (size 15 to 20)
#    0.000    2.833    0.000    1.500    0.000    4.667 
#    0.000    6.667    0.000    0.500    0.000    5.833 
#    0.000    0.000    0.000    0.000    0.000    0.000 
#
# Total GULP energy -595211.842624 kJ/mol
# GULP energy per Si atom -12400.246721 kJ/mol
# Density = 1.777054 g / cm^3
# Si number density = 17.811078 Si / 1000 Ang^3
#
#
#
# Elastic Constant Matrix: (Units=GPa)
#
#
# Indices 1 2 3 4 5 6 
#
# 1 59.9275 49.0078 45.3347 0.0000 0.0000 0.0000
# 2 49.0078 123.5202 80.2144 0.0000 0.0000 0.0000
# 3 45.3347 80.2144 93.4840 0.0000 0.0000 0.0000
# 4 0.0000 0.0000 0.0000 39.4626 0.0000 0.0000
# 5 0.0000 0.0000 0.0000 0.0000 18.3072 0.0000
# 6 0.0000 0.0000 0.0000 0.0000 0.0000 30.4747
#
#
#
# Elastic Compliance Matrix: (Units=1/GPa)
#
#
# Indices 1 2 3 4 5 6 
#
# 1 0.027720 -0.005123 -0.009047 0.000000 0.000000 0.000000
# 2 -0.005123 0.019231 -0.014017 0.000000 0.000000 0.000000
# 3 -0.009047 -0.014017 0.027112 0.000000 0.000000 0.000000
# 4 0.000000 0.000000 0.000000 0.025340 0.000000 0.000000
# 5 0.000000 0.000000 0.000000 0.000000 0.054623 0.000000
# 6 0.000000 0.000000 0.000000 0.000000 0.000000 0.032814
#
#
# Mechanical properties :
#
#
# Convention : Reuss Voigt Hill
#
# Bulk Modulus (GPa) = 56.53208 69.56062 63.04635
# Shear Modulus (GPa) = 20.07134 24.47387 22.27261
#
# Velocity S-wave (km/s) = 3.36058 3.71088 3.54007
# Velocity P-wave (km/s) = 6.84593 7.58290 7.22382
#
# Compressibility (1/GPa) = 0.01768907
#
# Stress axis : x y z
#
# Youngs Moduli (GPa) = 36.07445 51.99889 36.88468
#
# Poissons Ratio (x) = 0.26641 0.33369
# Poissons Ratio (y) = 0.18482 0.51701
# Poissons Ratio (z) = 0.32636 0.72886
#
# Static dielectric constant tensor:
#      x y z
#    x 3.148700 0.000000 0.000000 
#    y 0.000000 3.461970 0.000000 
#    z 0.000000 0.000000 3.406300 
# 
# 
# High freq. dielectric constant tensor:
#      x y z
#    x 1.672090 0.000000 0.000000 
#    y 0.000000 1.693620 0.000000 
#    z 0.000000 0.000000 1.690200 
# 
# From -- ./inp_files/73109.got.cif
#   From: 2010.03.12/outbox.cif.g09.slc.cpg/sg65_37_cif.got.tgz:73109.got - 2010.04.10 20:52:16.
