data_PCOD8273223
_publ_section_title
;
Structure prediction by ZEFSAII (Michael W. Deem and Ramdas Pophale) SiO2 
 PCOD8273223
Probable space group: C M M M
;
_chemical_formula_sum "Si O2"
_cell_formula_units_Z 88
_cell_length_a 19.775671
_cell_length_b 20.116000
_cell_length_c 11.322552
_cell_angle_alpha 90.000000
_cell_angle_beta 90.000000
_cell_angle_gamma 90.000000
_cell_volume 4504.194948
_symmetry_space_group_name_H-M "C M M M"
_symmetry_group_IT_number 65
_symmetry_cell_setting 'orthorhombic'
loop_
_space_group_symop_operation_xyz
x,y,z
-x,-y,z
x,-y,-z
-x,y,-z
-x,-y,-z
x,y,-z
-x,y,z
x,-y,z
1/2+x,1/2+y,z
1/2-x,1/2-y,z
1/2+x,1/2-y,-z
1/2-x,1/2+y,-z
1/2-x,1/2-y,-z
1/2+x,1/2+y,-z
1/2-x,1/2+y,z
1/2+x,1/2-y,z
loop_
_atom_site_type_symbol
_atom_site_label
_atom_site_fract_x
_atom_site_fract_y
_atom_site_fract_z
Si Si1 0.151540 0.316777 0.000000
Si Si2 0.862579 0.118365 0.765812
Si Si3 0.130657 0.500000 0.638923
Si Si4 0.423409 0.736418 0.361793
Si Si5 0.421392 0.869482 0.769793
Si Si6 0.290349 0.500000 0.635510
Si Si7 0.189384 0.172847 0.000000
Si Si8 0.000000 0.923832 0.129453
O O1 0.121752 0.354628 0.113009
O O2 0.137768 0.236853 0.000000
O O3 0.231735 0.313781 0.000000
O O4 0.868629 0.187867 0.696715
O O5 0.936857 0.092366 0.789858
O O6 0.820544 0.066338 0.690579
O O7 0.823788 0.127808 0.887201
O O8 0.109713 0.500000 0.500000
O O9 0.100690 0.563530 0.705381
O O10 0.210586 0.500000 0.653846
O O11 0.413608 0.731823 0.500000
O O12 0.500000 0.716923 0.324376
O O13 0.407306 0.811032 0.322671
O O14 0.500000 0.873977 0.806051
O O15 0.311247 0.500000 0.500000
O O16 0.000000 0.000000 0.099069
O O17 0.000000 0.886589 0.000000
#
# Coordination Sequence:
#
# PCOD8273223 Si02
#       8
#     8  16   8  16  16   8   8   8
#     4  11  23  43  61  97 131 162 206 259 319 386
#     4  12  21  40  62  91 127 168 213 263 312 374
#     4  11  25  47  68  93 128 170 217 263 316 391
#     4  10  21  36  59  92 126 161 205 260 318 374
#     4  11  23  42  69  97 128 161 208 268 326 381
#     4  11  26  43  62  89 131 178 219 261 314 375
#     4  11  24  38  66  90 129 173 209 254 313 383
#     4  11  22  36  56  90 126 157 208 257 309 371
#
# _framework density 19.537341999999999
#
# number of rings (size 3 to 8) (size 9 to 14) (size 15 to 20)
#    0.000    1.000    4.545    2.727    0.000    2.182 
#    1.636    3.182    0.000    4.364    0.000    0.000 
#    0.000    0.000    0.000    0.000    0.000    0.000 
#
# Total GULP energy -545615.741035 kJ/mol
# GULP energy per Si atom -12400.357751 kJ/mol
# Density = 1.949287 g / cm^3
# Si number density = 19.537342 Si / 1000 Ang^3
#
#
#
# Elastic Constant Matrix: (Units=GPa)
#
#
# Indices 1 2 3 4 5 6 
#
# 1 90.4217 50.3927 50.2762 0.0000 0.0000 0.0000
# 2 50.3927 146.7228 68.9659 0.0000 0.0000 0.0000
# 3 50.2762 68.9659 130.5746 0.0000 0.0000 0.0000
# 4 0.0000 0.0000 0.0000 43.3757 0.0000 0.0000
# 5 0.0000 0.0000 0.0000 0.0000 39.6031 0.0000
# 6 0.0000 0.0000 0.0000 0.0000 0.0000 58.1111
#
#
#
# Elastic Compliance Matrix: (Units=1/GPa)
#
#
# Indices 1 2 3 4 5 6 
#
# 1 0.015172 -0.003279 -0.004110 0.000000 0.000000 0.000000
# 2 -0.003279 0.009775 -0.003900 0.000000 0.000000 0.000000
# 3 -0.004110 -0.003900 0.011301 0.000000 0.000000 0.000000
# 4 0.000000 0.000000 0.000000 0.023054 0.000000 0.000000
# 5 0.000000 0.000000 0.000000 0.000000 0.025251 0.000000
# 6 0.000000 0.000000 0.000000 0.000000 0.000000 0.017208
#
#
# Mechanical properties :
#
#
# Convention : Reuss Voigt Hill
#
# Bulk Modulus (GPa) = 73.15606 78.55430 75.85518
# Shear Modulus (GPa) = 38.79084 41.42360 40.10722
#
# Velocity S-wave (km/s) = 4.46070 4.60959 4.53575
# Velocity P-wave (km/s) = 8.00350 8.28406 8.14498
#
# Compressibility (1/GPa) = 0.01366941
#
# Stress axis : x y z
#
# Youngs Moduli (GPa) = 65.91140 102.30041 88.48785
#
# Poissons Ratio (x) = 0.33545 0.36367
# Poissons Ratio (y) = 0.21613 0.34514
# Poissons Ratio (z) = 0.27089 0.39901
#
# Static dielectric constant tensor:
#      x y z
#    x 3.552300 0.000000 0.000000 
#    y 0.000000 3.680260 0.000000 
#    z 0.000000 0.000000 3.867910 
# 
# 
# High freq. dielectric constant tensor:
#      x y z
#    x 1.762900 0.000000 0.000000 
#    y 0.000000 1.770880 0.000000 
#    z 0.000000 0.000000 1.774920 
# 
# From -- ./inp_files/26896.got.cif
#   From: 2010.03.12/outbox.cif.g09.slc.cpg/sg65_14_cif.got.tgz:26896.got - 2010.04.10 20:52:16.
