data_PCOD8273766
_publ_section_title
;
Structure prediction by ZEFSAII (Michael W. Deem and Ramdas Pophale) SiO2 
 PCOD8273766
Probable space group: C M M M
;
_chemical_formula_sum "Si O2"
_cell_formula_units_Z 72
_cell_length_a 8.512206
_cell_length_b 28.868351
_cell_length_c 13.736164
_cell_angle_alpha 90.000000
_cell_angle_beta 90.000000
_cell_angle_gamma 90.000000
_cell_volume 3375.433604
_symmetry_space_group_name_H-M "C M M M"
_symmetry_group_IT_number 65
_symmetry_cell_setting 'orthorhombic'
loop_
_space_group_symop_operation_xyz
x,y,z
-x,-y,z
x,-y,-z
-x,y,-z
-x,-y,-z
x,y,-z
-x,y,z
x,-y,z
1/2+x,1/2+y,z
1/2-x,1/2-y,z
1/2+x,1/2-y,-z
1/2-x,1/2+y,-z
1/2-x,1/2-y,-z
1/2+x,1/2+y,-z
1/2-x,1/2+y,z
1/2+x,1/2-y,z
loop_
_atom_site_type_symbol
_atom_site_label
_atom_site_fract_x
_atom_site_fract_y
_atom_site_fract_z
Si Si1 0.321663 0.883681 0.671062
Si Si2 0.176013 0.950090 0.196199
Si Si3 0.315856 0.446176 0.500000
Si Si4 0.315783 0.299689 0.786551
Si Si5 0.816738 0.434871 0.000000
Si Si6 0.315485 0.335772 0.000000
O O1 0.500000 0.876300 0.637164
O O2 0.308990 0.915522 0.765856
O O3 0.230728 0.914193 0.591222
O O4 0.250553 0.834534 0.703756
O O5 0.225237 0.958971 0.086983
O O6 0.000000 0.928129 0.204331
O O7 0.177024 0.000000 0.250828
O O8 0.245367 0.500000 0.500000
O O9 0.500000 0.451908 0.500000
O O10 0.500000 0.300305 0.774477
O O11 0.250000 0.250000 0.757265
O O12 0.269897 0.309119 0.899904
O O13 0.794037 0.380059 0.000000
O O14 0.000000 0.447588 0.000000
O O15 0.500000 0.348578 0.000000
#
# Coordination Sequence:
#
# PCOD8273766 Si02
#       6
#    16  16   8  16   8   8
#     4  12  25  42  66  97 130 164 210 268 324 381
#     4  11  23  39  59  84 121 169 214 258 316 385
#     4  11  25  47  74 101 130 169 213 259 323 395
#     4  11  23  41  66  96 132 175 221 268 322 383
#     4  12  23  34  55  86 123 164 212 264 316 377
#     4  10  21  38  62  89 128 177 220 264 318 379
#
# _framework density 21.330593
#
# number of rings (size 3 to 8) (size 9 to 14) (size 15 to 20)
#    0.000    0.778    2.222    6.000    0.000    7.556 
#    0.000    0.556    0.000    0.000    0.000    0.000 
#    0.000    0.000    0.000    0.000    0.000    0.000 
#
# Total GULP energy -446004.045234 kJ/mol
# GULP energy per Si atom -12389.001257 kJ/mol
# Density = 2.128204 g / cm^3
# Si number density = 21.330593 Si / 1000 Ang^3
#
#
#
# Elastic Constant Matrix: (Units=GPa)
#
#
# Indices 1 2 3 4 5 6 
#
# 1 101.6338 44.8905 20.5770 0.0000 0.0000 0.0000
# 2 44.8905 176.0447 57.9082 0.0000 0.0000 0.0000
# 3 20.5770 57.9082 89.9888 0.0000 0.0000 0.0000
# 4 0.0000 0.0000 0.0000 25.2179 0.0000 0.0000
# 5 0.0000 0.0000 0.0000 0.0000 27.8070 0.0000
# 6 0.0000 0.0000 0.0000 0.0000 0.0000 29.3402
#
#
#
# Elastic Compliance Matrix: (Units=1/GPa)
#
#
# Indices 1 2 3 4 5 6 
#
# 1 0.011147 -0.002542 -0.000913 0.000000 0.000000 0.000000
# 2 -0.002542 0.007785 -0.004429 0.000000 0.000000 0.000000
# 3 -0.000913 -0.004429 0.014171 0.000000 0.000000 0.000000
# 4 0.000000 0.000000 0.000000 0.039654 0.000000 0.000000
# 5 0.000000 0.000000 0.000000 0.000000 0.035962 0.000000
# 6 0.000000 0.000000 0.000000 0.000000 0.000000 0.034083
#
#
# Mechanical properties :
#
#
# Convention : Reuss Voigt Hill
#
# Bulk Modulus (GPa) = 57.68379 68.26873 62.97626
# Shear Modulus (GPa) = 30.42308 32.75913 31.59110
#
# Velocity S-wave (km/s) = 3.78069 3.92316 3.85258
# Velocity P-wave (km/s) = 6.79409 7.25232 7.02694
#
# Compressibility (1/GPa) = 0.01733589
#
# Stress axis : x y z
#
# Youngs Moduli (GPa) = 89.71096 128.44651 70.56610
#
# Poissons Ratio (x) = 0.32652 0.06443
# Poissons Ratio (y) = 0.22805 0.31251
# Poissons Ratio (z) = 0.08191 0.56884
#
# Static dielectric constant tensor:
#      x y z
#    x 3.724430 0.000000 0.000000 
#    y 0.000000 3.831390 0.000000 
#    z 0.000000 0.000000 4.139370 
# 
# 
# High freq. dielectric constant tensor:
#      x y z
#    x 1.835910 0.000000 0.000000 
#    y 0.000000 1.849260 0.000000 
#    z 0.000000 0.000000 1.830740 
# 
# From -- ./inp_files/36670.got.cif
#   From: 2010.03.12/outbox.cif.g09.slc.cpg/sg65_19_cif.got.tgz:36670.got - 2010.04.10 20:52:16.
