data_PCOD8273116
_publ_section_title
;
Structure prediction by ZEFSAII (Michael W. Deem and Ramdas Pophale) SiO2 
 PCOD8273116
Probable space group: C M M M
;
_chemical_formula_sum "Si O2"
_cell_formula_units_Z 64
_cell_length_a 40.552346
_cell_length_b 9.210334
_cell_length_c 9.144364
_cell_angle_alpha 90.000000
_cell_angle_beta 90.000000
_cell_angle_gamma 90.000000
_cell_volume 3415.425908
_symmetry_space_group_name_H-M "C M M M"
_symmetry_group_IT_number 65
_symmetry_cell_setting 'orthorhombic'
loop_
_space_group_symop_operation_xyz
x,y,z
-x,-y,z
x,-y,-z
-x,y,-z
-x,-y,-z
x,y,-z
-x,y,z
x,-y,z
1/2+x,1/2+y,z
1/2-x,1/2-y,z
1/2+x,1/2-y,-z
1/2-x,1/2+y,-z
1/2-x,1/2-y,-z
1/2+x,1/2+y,-z
1/2-x,1/2+y,z
1/2+x,1/2-y,z
loop_
_atom_site_type_symbol
_atom_site_label
_atom_site_fract_x
_atom_site_fract_y
_atom_site_fract_z
Si Si1 0.159104 0.833026 0.172265
Si Si2 0.716616 0.830316 0.331075
Si Si3 0.093237 0.831091 0.668107
Si Si4 0.537575 0.170101 0.834680
O O1 0.187721 0.731374 0.231860
O O2 0.124868 0.778216 0.240911
O O3 0.166177 0.000000 0.216880
O O4 0.156677 0.813987 0.000000
O O5 0.708067 0.799698 0.500000
O O6 0.750000 0.750000 0.284913
O O7 0.721101 0.000000 0.299501
O O8 0.099792 0.792638 0.500000
O O9 0.060770 0.750080 0.720869
O O10 0.086995 0.000000 0.692997
O O11 0.500000 0.210168 0.795411
O O12 0.543445 0.000000 0.819279
O O13 0.545657 0.220449 0.000000
#
# Coordination Sequence:
#
# PCOD8273116 Si02
#       4
#    16  16  16  16
#     4  10  21  37  57  80 107 141 180 221 266 316
#     4  10  21  37  58  83 110 142 179 218 263 315
#     4  10  21  36  55  80 109 141 178 221 268 318
#     4   9  19  36  56  78 106 141 180 221 266 317
#
# _framework density 18.738512
#
# number of rings (size 3 to 8) (size 9 to 14) (size 15 to 20)
#    0.000    2.250    0.000    3.000    0.000    7.500 
#    0.000    3.750    0.000    0.000    0.000    0.000 
#    0.000    0.000    0.000    0.000    0.000    0.000 
#
# Total GULP energy -396936.393853 kJ/mol
# GULP energy per Si atom -12404.262308 kJ/mol
# Density = 1.869586 g / cm^3
# Si number density = 18.738512 Si / 1000 Ang^3
#
#
#
# Elastic Constant Matrix: (Units=GPa)
#
#
# Indices 1 2 3 4 5 6 
#
# 1 141.2384 65.1596 71.1556 0.0000 0.0000 0.0000
# 2 65.1596 74.2632 50.1202 0.0000 0.0000 0.0000
# 3 71.1556 50.1202 92.3522 0.0000 0.0000 0.0000
# 4 0.0000 0.0000 0.0000 33.0939 0.0000 0.0000
# 5 0.0000 0.0000 0.0000 0.0000 38.1107 0.0000
# 6 0.0000 0.0000 0.0000 0.0000 0.0000 37.2301
#
#
#
# Elastic Compliance Matrix: (Units=1/GPa)
#
#
# Indices 1 2 3 4 5 6 
#
# 1 0.013997 -0.007894 -0.006500 0.000000 0.000000 0.000000
# 2 -0.007894 0.025700 -0.007866 0.000000 0.000000 0.000000
# 3 -0.006500 -0.007866 0.020105 0.000000 0.000000 0.000000
# 4 0.000000 0.000000 0.000000 0.030217 0.000000 0.000000
# 5 0.000000 0.000000 0.000000 0.000000 0.026239 0.000000
# 6 0.000000 0.000000 0.000000 0.000000 0.000000 0.026860
#
#
# Mechanical properties :
#
#
# Convention : Reuss Voigt Hill
#
# Bulk Modulus (GPa) = 65.43319 75.63605 70.53462
# Shear Modulus (GPa) = 25.94268 29.78153 27.86210
#
# Velocity S-wave (km/s) = 3.72487 3.99095 3.86020
# Velocity P-wave (km/s) = 7.31399 7.85421 7.58891
#
# Compressibility (1/GPa) = 0.01528276
#
# Stress axis : x y z
#
# Youngs Moduli (GPa) = 71.44438 38.90980 49.73880
#
# Poissons Ratio (x) = 0.30716 0.32331
# Poissons Ratio (y) = 0.56399 0.39122
# Poissons Ratio (z) = 0.46440 0.30605
#
# Static dielectric constant tensor:
#      x y z
#    x 3.505040 0.000000 0.000000 
#    y 0.000000 3.368540 0.000000 
#    z 0.000000 0.000000 3.439370 
# 
# 
# High freq. dielectric constant tensor:
#      x y z
#    x 1.737770 0.000000 0.000000 
#    y 0.000000 1.723650 0.000000 
#    z 0.000000 0.000000 1.731550 
# 
# From -- ./inp_files/17782.got.cif
#   From: 2010.03.12/outbox.cif.g09.slc.cpg/sg65_9_cif.got.tgz:17782.got - 2010.04.10 20:52:16.
