data_PCOD8273567
_publ_section_title
;
Structure prediction by ZEFSAII (Michael W. Deem and Ramdas Pophale) SiO2 
 PCOD8273567
Probable space group: C M M M
;
_chemical_formula_sum "Si O2"
_cell_formula_units_Z 96
_cell_length_a 16.034699
_cell_length_b 15.661516
_cell_length_c 18.926533
_cell_angle_alpha 90.000000
_cell_angle_beta 90.000000
_cell_angle_gamma 90.000000
_cell_volume 4752.976606
_symmetry_space_group_name_H-M "C M M M"
_symmetry_group_IT_number 65
_symmetry_cell_setting 'orthorhombic'
loop_
_space_group_symop_operation_xyz
x,y,z
-x,-y,z
x,-y,-z
-x,y,-z
-x,-y,-z
x,y,-z
-x,y,z
x,-y,z
1/2+x,1/2+y,z
1/2-x,1/2-y,z
1/2+x,1/2-y,-z
1/2-x,1/2+y,-z
1/2-x,1/2-y,-z
1/2+x,1/2+y,-z
1/2-x,1/2+y,z
1/2+x,1/2-y,z
loop_
_atom_site_type_symbol
_atom_site_label
_atom_site_fract_x
_atom_site_fract_y
_atom_site_fract_z
Si Si1 0.765293 0.655640 0.183110
Si Si2 0.905761 0.400548 0.918019
Si Si3 0.625249 0.595064 0.642145
Si Si4 0.188085 0.593348 0.331972
Si Si5 0.910024 0.901373 0.195661
Si Si6 0.406816 0.228880 0.577654
O O1 0.750000 0.750000 0.211870
O O2 0.835255 0.653566 0.122278
O O3 0.799549 0.599704 0.247726
O O4 0.673605 0.627215 0.153909
O O5 0.888242 0.500000 0.904742
O O6 0.000000 0.377587 0.892070
O O7 0.897505 0.377796 0.000000
O O8 0.589372 0.500000 0.623119
O O9 0.723577 0.594288 0.629718
O O10 0.602781 0.619213 0.722100
O O11 0.589341 0.669913 0.593655
O O12 0.145519 0.500000 0.346007
O O13 0.137988 0.673322 0.362451
O O14 0.000000 0.859104 0.171823
O O15 0.918971 0.000000 0.181655
O O16 0.365512 0.215512 0.500000
O O17 0.500000 0.193830 0.575438
#
# Coordination Sequence:
#
# PCOD8273567 Si02
#       6
#    16  16  16  16  16  16
#     4  11  21  33  56  87 116 142 178 233 289 342
#     4   9  19  37  59  82 113 155 198 237 277 325
#     4   9  18  34  56  79 103 136 181 232 286 345
#     4  10  21  38  58  78 103 140 187 235 281 334
#     4   9  17  31  52  76 105 141 178 220 274 337
#     4  11  24  38  52  75 109 145 181 229 290 351
#
# _framework density 20.197869000000001
#
# number of rings (size 3 to 8) (size 9 to 14) (size 15 to 20)
#    0.000    2.167    0.000    6.000    0.000    5.000 
#    0.000    3.333    0.000    0.500    0.000    2.333 
#    0.000    0.000    0.000    0.000    0.000    0.000 
#
# Total GULP energy -594682.600177 kJ/mol
# GULP energy per Si atom -12389.220837 kJ/mol
# Density = 2.015190 g / cm^3
# Si number density = 20.197869 Si / 1000 Ang^3
#
#
#
# Elastic Constant Matrix: (Units=GPa)
#
#
# Indices 1 2 3 4 5 6 
#
# 1 139.5075 36.2684 42.4414 0.0000 0.0000 0.0000
# 2 36.2684 95.8437 23.8654 0.0000 0.0000 0.0000
# 3 42.4414 23.8654 54.7970 0.0000 0.0000 0.0000
# 4 0.0000 0.0000 0.0000 9.6869 0.0000 0.0000
# 5 0.0000 0.0000 0.0000 0.0000 23.0881 0.0000
# 6 0.0000 0.0000 0.0000 0.0000 0.0000 16.0033
#
#
#
# Elastic Compliance Matrix: (Units=1/GPa)
#
#
# Indices 1 2 3 4 5 6 
#
# 1 0.009715 -0.002022 -0.006644 0.000000 0.000000 0.000000
# 2 -0.002022 0.012124 -0.003714 0.000000 0.000000 0.000000
# 3 -0.006644 -0.003714 0.025013 0.000000 0.000000 0.000000
# 4 0.000000 0.000000 0.000000 0.103232 0.000000 0.000000
# 5 0.000000 0.000000 0.000000 0.000000 0.043312 0.000000
# 6 0.000000 0.000000 0.000000 0.000000 0.000000 0.062487
#
#
# Mechanical properties :
#
#
# Convention : Reuss Voigt Hill
#
# Bulk Modulus (GPa) = 45.26651 55.03316 50.14983
# Shear Modulus (GPa) = 17.36072 22.26052 19.81062
#
# Velocity S-wave (km/s) = 2.93496 3.32342 3.13521
# Velocity P-wave (km/s) = 5.82628 6.48329 6.16354
#
# Compressibility (1/GPa) = 0.02209139
#
# Stress axis : x y z
#
# Youngs Moduli (GPa) = 102.93444 82.48378 39.97995
#
# Poissons Ratio (x) = 0.16677 0.26562
# Poissons Ratio (y) = 0.20812 0.14849
# Poissons Ratio (z) = 0.68388 0.30635
#
# Static dielectric constant tensor:
#      x y z
#    x 3.890120 0.000000 0.000000 
#    y 0.000000 3.637790 0.000000 
#    z 0.000000 0.000000 3.278750 
# 
# 
# High freq. dielectric constant tensor:
#      x y z
#    x 1.800950 0.000000 0.000000 
#    y 0.000000 1.787380 0.000000 
#    z 0.000000 0.000000 1.746370 
# 
# From -- ./inp_files/62634.got.cif
#   From: 2010.03.12/outbox.cif.g09.slc.cpg/sg65_32_cif.got.tgz:62634.got - 2010.04.10 20:52:16.
