data_PCOD8273111
_publ_section_title
;
Structure prediction by ZEFSAII (Michael W. Deem and Ramdas Pophale) SiO2 
 PCOD8273111
Probable space group: C M M M
;
_chemical_formula_sum "Si O2"
_cell_formula_units_Z 104
_cell_length_a 18.577427
_cell_length_b 9.221530
_cell_length_c 33.433661
_cell_angle_alpha 90.000000
_cell_angle_beta 90.000000
_cell_angle_gamma 90.000000
_cell_volume 5727.597377
_symmetry_space_group_name_H-M "C M M M"
_symmetry_group_IT_number 65
_symmetry_cell_setting 'orthorhombic'
loop_
_space_group_symop_operation_xyz
x,y,z
-x,-y,z
x,-y,-z
-x,y,-z
-x,-y,-z
x,y,-z
-x,y,z
x,-y,z
1/2+x,1/2+y,z
1/2-x,1/2-y,z
1/2+x,1/2-y,-z
1/2-x,1/2+y,-z
1/2-x,1/2-y,-z
1/2+x,1/2+y,-z
1/2-x,1/2+y,z
1/2+x,1/2-y,z
loop_
_atom_site_type_symbol
_atom_site_label
_atom_site_fract_x
_atom_site_fract_y
_atom_site_fract_z
Si Si1 0.825315 0.829961 0.913826
Si Si2 0.917673 0.330864 0.761494
Si Si3 0.082534 0.169827 0.160188
Si Si4 0.320350 0.667549 0.544908
Si Si5 0.583496 0.331974 0.618158
Si Si6 0.176770 0.833575 0.000000
Si Si7 0.826353 0.328086 0.315754
O O1 0.750000 0.750000 0.910062
O O2 0.876917 0.771268 0.879039
O O3 0.863075 0.798113 0.957646
O O4 0.811531 0.000000 0.908274
O O5 0.913041 0.500000 0.770479
O O6 0.887300 0.248380 0.800367
O O7 0.867776 0.285816 0.724681
O O8 0.000000 0.284087 0.751947
O O9 0.000000 0.211488 0.153711
O O10 0.093879 0.000000 0.166321
O O11 0.340854 0.719080 0.500000
O O12 0.299685 0.500000 0.545383
O O13 0.250000 0.750000 0.561093
O O14 0.387904 0.699293 0.573476
O O15 0.500000 0.290037 0.619254
O O16 0.595688 0.500000 0.630063
O O17 0.625874 0.228247 0.647912
O O18 0.250000 0.750000 0.000000
O O19 0.198674 0.000000 0.000000
O O20 0.815536 0.500000 0.320043
O O21 0.750000 0.250000 0.315835
#
# Coordination Sequence:
#
# PCOD8273111 Si02
#       7
#    16  16  16  16  16   8  16
#     4   9  17  29  46  68  93 122 158 197 237 282
#     4   9  19  36  55  73  95 127 165 201 242 295
#     4   9  18  32  49  70  97 127 158 195 240 289
#     4   9  18  33  53  77 106 140 176 214 256 301
#     4  10  21  36  55  80 108 139 176 215 256 304
#     4   8  14  26  43  63  89 121 155 192 234 280
#     4  11  23  38  56  78 105 135 169 211 257 304
#
# _framework density 18.157700999999999
#
# number of rings (size 3 to 8) (size 9 to 14) (size 15 to 20)
#    0.000    2.615    0.000    1.385    0.000    5.538 
#    0.000    6.538    0.000    2.308    0.000    3.231 
#    0.000    8.615    0.000    0.000    0.000    0.000 
#
# Total GULP energy -644590.277553 kJ/mol
# GULP energy per Si atom -12395.966876 kJ/mol
# Density = 1.811637 g / cm^3
# Si number density = 18.157701 Si / 1000 Ang^3
#
#
#
# Elastic Constant Matrix: (Units=GPa)
#
#
# Indices 1 2 3 4 5 6 
#
# 1 106.5812 41.9159 78.4623 0.0000 0.0000 0.0000
# 2 41.9159 47.6601 53.6765 0.0000 0.0000 0.0000
# 3 78.4623 53.6765 156.9982 0.0000 0.0000 0.0000
# 4 0.0000 0.0000 0.0000 28.3999 0.0000 0.0000
# 5 0.0000 0.0000 0.0000 0.0000 31.4644 0.0000
# 6 0.0000 0.0000 0.0000 0.0000 0.0000 22.4019
#
#
#
# Elastic Compliance Matrix: (Units=1/GPa)
#
#
# Indices 1 2 3 4 5 6 
#
# 1 0.016779 -0.008639 -0.005432 0.000000 0.000000 0.000000
# 2 -0.008639 0.038568 -0.008869 0.000000 0.000000 0.000000
# 3 -0.005432 -0.008869 0.012116 0.000000 0.000000 0.000000
# 4 0.000000 0.000000 0.000000 0.035211 0.000000 0.000000
# 5 0.000000 0.000000 0.000000 0.000000 0.031782 0.000000
# 6 0.000000 0.000000 0.000000 0.000000 0.000000 0.044639
#
#
# Mechanical properties :
#
#
# Convention : Reuss Voigt Hill
#
# Bulk Modulus (GPa) = 46.33059 73.26099 59.79579
# Shear Modulus (GPa) = 21.53604 25.59889 23.56746
#
# Velocity S-wave (km/s) = 3.44765 3.75882 3.60659
# Velocity P-wave (km/s) = 6.43580 7.69889 7.09550
#
# Compressibility (1/GPa) = 0.02158401
#
# Stress axis : x y z
#
# Youngs Moduli (GPa) = 59.59887 25.92836 82.53372
#
# Poissons Ratio (x) = 0.22400 0.44831
# Poissons Ratio (y) = 0.51488 0.73196
# Poissons Ratio (z) = 0.32373 0.22995
#
# Static dielectric constant tensor:
#      x y z
#    x 3.231170 0.000000 0.000000 
#    y 0.000000 3.266940 0.000000 
#    z 0.000000 0.000000 3.840810 
# 
# 
# High freq. dielectric constant tensor:
#      x y z
#    x 1.685970 0.000000 0.000000 
#    y 0.000000 1.699330 0.000000 
#    z 0.000000 0.000000 1.723390 
# 
# From -- ./inp_files/78177.got.cif
#   From: 2010.03.12/outbox.cif.g09.slc.cpg/sg65_40_cif.got.tgz:78177.got - 2010.04.10 20:52:16.
