data_PCOD8273761
_publ_section_title
;
Structure prediction by ZEFSAII (Michael W. Deem and Ramdas Pophale) SiO2 
 PCOD8273761
Probable space group: C M M M
;
_chemical_formula_sum "Si O2"
_cell_formula_units_Z 72
_cell_length_a 26.887776
_cell_length_b 16.361251
_cell_length_c 7.657687
_cell_angle_alpha 90.000000
_cell_angle_beta 90.000000
_cell_angle_gamma 90.000000
_cell_volume 3368.751685
_symmetry_space_group_name_H-M "C M M M"
_symmetry_group_IT_number 65
_symmetry_cell_setting 'orthorhombic'
loop_
_space_group_symop_operation_xyz
x,y,z
-x,-y,z
x,-y,-z
-x,y,-z
-x,-y,-z
x,y,-z
-x,y,z
x,-y,z
1/2+x,1/2+y,z
1/2-x,1/2-y,z
1/2+x,1/2-y,-z
1/2-x,1/2+y,-z
1/2-x,1/2-y,-z
1/2+x,1/2+y,-z
1/2-x,1/2+y,z
1/2+x,1/2-y,z
loop_
_atom_site_type_symbol
_atom_site_label
_atom_site_fract_x
_atom_site_fract_y
_atom_site_fract_z
Si Si1 0.727422 0.000000 0.208345
Si Si2 0.109176 0.821219 0.202439
Si Si3 0.274764 0.668228 0.203604
Si Si4 0.055876 0.655931 0.206585
Si Si5 0.553956 0.405882 0.500000
Si Si6 0.614223 0.000000 0.791738
O O1 0.753802 0.917347 0.282925
O O2 0.670766 0.000000 0.276299
O O3 0.730767 0.000000 0.000000
O O4 0.167237 0.824791 0.241113
O O5 0.087752 0.734144 0.261836
O O6 0.083392 0.887586 0.322923
O O7 0.097235 0.840251 0.000000
O O8 0.250000 0.750000 0.287412
O O9 0.262081 0.667478 0.000000
O O10 0.085111 0.578300 0.283267
O O11 0.000000 0.660220 0.284954
O O12 0.052608 0.648945 0.000000
O O13 0.544152 0.500000 0.500000
O O14 0.500000 0.360976 0.500000
O O15 0.614515 0.000000 0.000000
#
# Coordination Sequence:
#
# PCOD8273761 Si02
#       6
#     8  16  16  16   8   8
#     4   9  16  25  42  70 107 147 183 226 282 333
#     4  10  21  38  62  87 117 154 197 244 296 358
#     4   9  17  30  51  82 116 151 193 237 286 348
#     4   9  16  27  47  77 112 151 191 232 282 339
#     4  11  26  44  61  85 115 149 196 254 313 367
#     4   9  15  24  43  77 118 152 188 233 278 337
#
# _framework density 21.372903999999998
#
# number of rings (size 3 to 8) (size 9 to 14) (size 15 to 20)
#    0.000    2.556    0.000    2.333    1.556    8.444 
#    0.000    1.667    0.000    0.667    0.000    2.333 
#    0.000    0.000    0.000    0.000    0.000    0.000 
#
# Total GULP energy -446270.363367 kJ/mol
# GULP energy per Si atom -12396.398982 kJ/mol
# Density = 2.132426 g / cm^3
# Si number density = 21.372904 Si / 1000 Ang^3
#
#
#
# Elastic Constant Matrix: (Units=GPa)
#
#
# Indices 1 2 3 4 5 6 
#
# 1 184.3350 99.2240 31.3833 0.0000 0.0000 0.0000
# 2 99.2240 173.2920 19.7211 0.0000 0.0000 0.0000
# 3 31.3833 19.7211 51.0798 0.0000 0.0000 0.0000
# 4 0.0000 0.0000 0.0000 -41.0429 0.0000 0.0000
# 5 0.0000 0.0000 0.0000 0.0000 -3.7305 0.0000
# 6 0.0000 0.0000 0.0000 0.0000 0.0000 50.0597
#
#
#
# Elastic Compliance Matrix: (Units=1/GPa)
#
#
# Indices 1 2 3 4 5 6 
#
# 1 0.008385 -0.004409 -0.003450 0.000000 0.000000 0.000000
# 2 -0.004409 0.008354 -0.000517 0.000000 0.000000 0.000000
# 3 -0.003450 -0.000517 0.021896 0.000000 0.000000 0.000000
# 4 0.000000 0.000000 0.000000 -0.024365 0.000000 0.000000
# 5 0.000000 0.000000 0.000000 0.000000 -0.268062 0.000000
# 6 0.000000 0.000000 0.000000 0.000000 0.000000 0.019976
#
#
# Mechanical properties :
#
#
# Convention : Reuss Voigt Hill
#
# Bulk Modulus (GPa) = 45.69308 78.81818 62.25563
# Shear Modulus (GPa) = -23.83558 18.28249 -2.77655
#
# Velocity S-wave (km/s) = -3.34312 2.92790 -1.14102
# Velocity P-wave (km/s) = 2.55410 6.95614 5.23981
#
# Compressibility (1/GPa) = 0.02188515
#
# Stress axis : x y z
#
# Youngs Moduli (GPa) = 119.25530 119.70675 45.67007
#
# Poissons Ratio (x) = 0.52775 0.15755
# Poissons Ratio (y) = 0.52576 0.02359
# Poissons Ratio (z) = 0.41141 0.06183
#
# Static dielectric constant tensor:
#      x y z
#    x 4.042560 0.000000 0.000000 
#    y 0.000000 4.067080 0.000000 
#    z 0.000000 0.000000 3.248100 
# 
# 
# High freq. dielectric constant tensor:
#      x y z
#    x 1.854480 0.000000 0.000000 
#    y 0.000000 1.847860 0.000000 
#    z 0.000000 0.000000 1.793160 
# 
# From -- ./inp_files/15803.got.cif
#   From: 2010.03.12/outbox.cif.g09.slc.cpg/sg65_8_cif.got.tgz:15803.got - 2010.04.10 20:52:16.
