data_PCOD8273214
_publ_section_title
;
Structure prediction by ZEFSAII (Michael W. Deem and Ramdas Pophale) SiO2 
 PCOD8273214
Probable space group: C M M M
;
_chemical_formula_sum "Si O2"
_cell_formula_units_Z 72
_cell_length_a 8.786691
_cell_length_b 15.665375
_cell_length_c 26.036285
_cell_angle_alpha 90.000000
_cell_angle_beta 90.000000
_cell_angle_gamma 90.000000
_cell_volume 3583.811562
_symmetry_space_group_name_H-M "C M M M"
_symmetry_group_IT_number 65
_symmetry_cell_setting 'orthorhombic'
loop_
_space_group_symop_operation_xyz
x,y,z
-x,-y,z
x,-y,-z
-x,y,-z
-x,-y,-z
x,y,-z
-x,y,z
x,-y,z
1/2+x,1/2+y,z
1/2-x,1/2-y,z
1/2+x,1/2-y,-z
1/2-x,1/2+y,-z
1/2-x,1/2-y,-z
1/2+x,1/2+y,-z
1/2-x,1/2+y,z
1/2+x,1/2-y,z
loop_
_atom_site_type_symbol
_atom_site_label
_atom_site_fract_x
_atom_site_fract_y
_atom_site_fract_z
Si Si1 0.326276 0.597546 0.897691
Si Si2 0.678924 0.000000 0.732088
Si Si3 0.680233 0.156924 0.000000
Si Si4 0.820218 0.837789 0.441333
Si Si5 0.320015 0.163710 0.797795
Si Si6 0.180493 0.000000 0.378951
O O1 0.500000 0.628115 0.905349
O O2 0.318836 0.500000 0.879482
O O3 0.235775 0.605915 0.950455
O O4 0.247594 0.655076 0.854708
O O5 0.729977 0.916141 0.763120
O O6 0.766467 0.000000 0.679055
O O7 0.500000 0.000000 0.721757
O O8 0.750000 0.250000 0.000000
O O9 0.500000 0.162357 0.000000
O O10 0.768721 0.853322 0.500000
O O11 0.750000 0.750000 0.419805
O O12 0.000000 0.831027 0.436933
O O13 0.755909 0.915939 0.407594
O O14 0.500000 0.171055 0.801494
O O15 0.250000 0.250000 0.773160
O O16 0.000000 0.000000 0.381460
#
# Coordination Sequence:
#
# PCOD8273214 Si02
#       6
#    16   8   8  16  16   8
#     4  11  23  40  63  90 120 153 193 242 295 354
#     4  10  24  43  61  84 119 156 196 249 299 353
#     4  12  25  40  59  85 121 159 197 239 290 353
#     4   9  18  34  56  84 118 156 197 241 290 347
#     4  11  23  42  65  89 117 154 199 245 300 358
#     4  10  21  36  58  84 115 155 198 243 294 351
#
# _framework density 20.090343000000001
#
# number of rings (size 3 to 8) (size 9 to 14) (size 15 to 20)
#    0.000    1.556    1.111    3.667    0.000    7.556 
#    0.000    4.444    0.000    3.333    0.000    0.000 
#    0.000    0.000    0.000    0.000    0.000    0.000 
#
# Total GULP energy -446576.690644 kJ/mol
# GULP energy per Si atom -12404.908073 kJ/mol
# Density = 2.004462 g / cm^3
# Si number density = 20.090343 Si / 1000 Ang^3
#
#
#
# Elastic Constant Matrix: (Units=GPa)
#
#
# Indices 1 2 3 4 5 6 
#
# 1 91.7150 51.8811 42.8933 0.0000 0.0000 0.0000
# 2 51.8811 169.9437 70.3544 0.0000 0.0000 0.0000
# 3 42.8933 70.3544 114.6173 0.0000 0.0000 0.0000
# 4 0.0000 0.0000 0.0000 18.9963 0.0000 0.0000
# 5 0.0000 0.0000 0.0000 0.0000 34.6491 0.0000
# 6 0.0000 0.0000 0.0000 0.0000 0.0000 35.4768
#
#
#
# Elastic Compliance Matrix: (Units=1/GPa)
#
#
# Indices 1 2 3 4 5 6 
#
# 1 0.014182 -0.002859 -0.003553 0.000000 0.000000 0.000000
# 2 -0.002859 0.008465 -0.004126 0.000000 0.000000 0.000000
# 3 -0.003553 -0.004126 0.012587 0.000000 0.000000 0.000000
# 4 0.000000 0.000000 0.000000 0.052642 0.000000 0.000000
# 5 0.000000 0.000000 0.000000 0.000000 0.028861 0.000000
# 6 0.000000 0.000000 0.000000 0.000000 0.000000 0.028187
#
#
# Mechanical properties :
#
#
# Convention : Reuss Voigt Hill
#
# Bulk Modulus (GPa) = 70.62692 78.50374 74.56533
# Shear Modulus (GPa) = 29.28786 31.90092 30.59439
#
# Velocity S-wave (km/s) = 3.82227 3.98914 3.90659
# Velocity P-wave (km/s) = 7.39666 7.77032 7.58579
#
# Compressibility (1/GPa) = 0.01415891
#
# Stress axis : x y z
#
# Youngs Moduli (GPa) = 70.51204 118.12943 79.44733
#
# Poissons Ratio (x) = 0.33771 0.28224
# Poissons Ratio (y) = 0.20158 0.32782
# Poissons Ratio (z) = 0.25050 0.48744
#
# Static dielectric constant tensor:
#      x y z
#    x 3.613140 0.000000 0.000000 
#    y 0.000000 3.936620 0.000000 
#    z 0.000000 0.000000 3.567830 
# 
# 
# High freq. dielectric constant tensor:
#      x y z
#    x 1.783300 0.000000 0.000000 
#    y 0.000000 1.803420 0.000000 
#    z 0.000000 0.000000 1.777050 
# 
# From -- ./inp_files/72613.got.cif
#   From: 2010.03.12/outbox.cif.g09.slc.cpg/sg65_37_cif.got.tgz:72613.got - 2010.04.10 20:52:16.
