data_PCOD8273903
_publ_section_title
;
Structure prediction by ZEFSAII (Michael W. Deem and Ramdas Pophale) SiO2 
 PCOD8273903
Probable space group: C M M M
;
_chemical_formula_sum "Si O2"
_cell_formula_units_Z 88
_cell_length_a 10.088240
_cell_length_b 18.600122
_cell_length_c 25.542697
_cell_angle_alpha 90.000000
_cell_angle_beta 90.000000
_cell_angle_gamma 90.000000
_cell_volume 4792.895388
_symmetry_space_group_name_H-M "C M M M"
_symmetry_group_IT_number 65
_symmetry_cell_setting 'orthorhombic'
loop_
_space_group_symop_operation_xyz
x,y,z
-x,-y,z
x,-y,-z
-x,y,-z
-x,-y,-z
x,y,-z
-x,y,z
x,-y,z
1/2+x,1/2+y,z
1/2-x,1/2-y,z
1/2+x,1/2-y,-z
1/2-x,1/2+y,-z
1/2-x,1/2-y,-z
1/2+x,1/2+y,-z
1/2-x,1/2+y,z
1/2+x,1/2-y,z
loop_
_atom_site_type_symbol
_atom_site_label
_atom_site_fract_x
_atom_site_fract_y
_atom_site_fract_z
Si Si1 0.347640 0.583256 0.258582
Si Si2 0.000000 0.419716 0.061018
Si Si3 0.150870 0.687364 0.440555
Si Si4 0.849340 0.583193 0.652175
Si Si5 0.262062 0.334977 0.057614
Si Si6 0.853654 0.814429 0.164595
O O1 0.500000 0.595633 0.275670
O O2 0.318365 0.500000 0.247467
O O3 0.251791 0.613140 0.304161
O O4 0.311564 0.624826 0.205637
O O5 0.126490 0.372315 0.076649
O O6 0.000000 0.500000 0.087530
O O7 0.000000 0.431950 0.000000
O O8 0.178567 0.662137 0.500000
O O9 0.250000 0.750000 0.423657
O O10 0.179262 0.620537 0.403037
O O11 0.000000 0.715306 0.434407
O O12 0.822249 0.500000 0.642078
O O13 0.000000 0.597437 0.671298
O O14 0.250000 0.250000 0.051403
O O15 0.360403 0.349842 0.106142
O O16 0.308753 0.365053 0.000000
O O17 0.750000 0.750000 0.167240
O O18 0.000000 0.784887 0.178080
#
# Coordination Sequence:
#
# PCOD8273903 Si02
#       6
#    16   8  16  16  16  16
#     4   9  19  37  56  73  99 137 175 213 264 319
#     4   9  18  34  54  80 111 141 177 221 265 319
#     4   9  18  32  50  74 106 141 172 207 253 304
#     4   9  18  33  53  77 102 130 172 220 259 304
#     4   9  19  33  54  79 108 141 178 218 268 326
#     4  10  22  36  54  78 107 138 175 221 266 318
#
# _framework density 18.360509
#
# number of rings (size 3 to 8) (size 9 to 14) (size 15 to 20)
#    0.000    2.818    0.000    0.000    5.091    3.636 
#    0.000    5.455    0.000    0.000    0.000   10.182 
#    0.000    0.000    0.000    0.000    0.000    0.000 
#
# Total GULP energy -545256.030186 kJ/mol
# GULP energy per Si atom -12392.182504 kJ/mol
# Density = 1.831872 g / cm^3
# Si number density = 18.360509 Si / 1000 Ang^3
#
#
#
# Elastic Constant Matrix: (Units=GPa)
#
#
# Indices 1 2 3 4 5 6 
#
# 1 92.4669 50.4192 59.6869 0.0000 0.0000 0.0000
# 2 50.4192 73.7148 48.1129 0.0000 0.0000 0.0000
# 3 59.6869 48.1129 133.5677 0.0000 0.0000 0.0000
# 4 0.0000 0.0000 0.0000 35.6416 0.0000 0.0000
# 5 0.0000 0.0000 0.0000 0.0000 28.7927 0.0000
# 6 0.0000 0.0000 0.0000 0.0000 0.0000 27.9593
#
#
#
# Elastic Compliance Matrix: (Units=1/GPa)
#
#
# Indices 1 2 3 4 5 6 
#
# 1 0.019622 -0.010064 -0.005143 0.000000 0.000000 0.000000
# 2 -0.010064 0.022898 -0.003751 0.000000 0.000000 0.000000
# 3 -0.005143 -0.003751 0.011136 0.000000 0.000000 0.000000
# 4 0.000000 0.000000 0.000000 0.028057 0.000000 0.000000
# 5 0.000000 0.000000 0.000000 0.000000 0.034731 0.000000
# 6 0.000000 0.000000 0.000000 0.000000 0.000000 0.035766
#
#
# Mechanical properties :
#
#
# Convention : Reuss Voigt Hill
#
# Bulk Modulus (GPa) = 63.53335 68.46527 65.99931
# Shear Modulus (GPa) = 25.59202 27.91408 26.75305
#
# Velocity S-wave (km/s) = 3.73750 3.90337 3.82134
# Velocity P-wave (km/s) = 7.30093 7.59510 7.44946
#
# Compressibility (1/GPa) = 0.01573977
#
# Stress axis : x y z
#
# Youngs Moduli (GPa) = 50.96224 43.67287 89.79700
#
# Poissons Ratio (x) = 0.43954 0.46185
# Poissons Ratio (y) = 0.51290 0.33679
# Poissons Ratio (z) = 0.26211 0.16380
#
# Static dielectric constant tensor:
#      x y z
#    x 3.542590 0.000000 0.000000 
#    y 0.000000 3.271400 0.000000 
#    z 0.000000 0.000000 3.618840 
# 
# 
# High freq. dielectric constant tensor:
#      x y z
#    x 1.711980 0.000000 0.000000 
#    y 0.000000 1.694300 0.000000 
#    z 0.000000 0.000000 1.713920 
# 
# From -- ./inp_files/67484.got.cif
#   From: 2010.03.12/outbox.cif.g09.slc.cpg/sg65_34_cif.got.tgz:67484.got - 2010.04.10 20:52:16.
