data_PCOD8273300
_publ_section_title
;
Structure prediction by ZEFSAII (Michael W. Deem and Ramdas Pophale) SiO2 
 PCOD8273300
Probable space group: C M M M
;
_chemical_formula_sum "Si O2"
_cell_formula_units_Z 80
_cell_length_a 18.589469
_cell_length_b 8.816243
_cell_length_c 26.017901
_cell_angle_alpha 90.000000
_cell_angle_beta 90.000000
_cell_angle_gamma 90.000000
_cell_volume 4264.054956
_symmetry_space_group_name_H-M "C M M M"
_symmetry_group_IT_number 65
_symmetry_cell_setting 'orthorhombic'
loop_
_space_group_symop_operation_xyz
x,y,z
-x,-y,z
x,-y,-z
-x,y,-z
-x,-y,-z
x,y,-z
-x,y,z
x,-y,z
1/2+x,1/2+y,z
1/2-x,1/2-y,z
1/2+x,1/2-y,-z
1/2-x,1/2+y,-z
1/2-x,1/2-y,-z
1/2+x,1/2+y,-z
1/2-x,1/2+y,z
1/2+x,1/2-y,z
loop_
_atom_site_type_symbol
_atom_site_label
_atom_site_fract_x
_atom_site_fract_y
_atom_site_fract_z
Si Si1 0.172023 0.679272 0.889514
Si Si2 0.418854 0.180170 0.500000
Si Si3 0.583255 0.677219 0.687487
Si Si4 0.083420 0.325857 0.206754
Si Si5 0.173027 0.677348 0.000000
Si Si6 0.828431 0.320379 0.402615
O O1 0.179285 0.500000 0.884966
O O2 0.250000 0.750000 0.883442
O O3 0.122797 0.740883 0.843469
O O4 0.135759 0.723839 0.945442
O O5 0.500000 0.247258 0.500000
O O6 0.376808 0.239374 0.550104
O O7 0.422265 0.000000 0.500000
O O8 0.500000 0.720243 0.677316
O O9 0.597169 0.500000 0.679845
O O10 0.606178 0.724241 0.744807
O O11 0.633326 0.770493 0.649451
O O12 0.104448 0.500000 0.218337
O O13 0.000000 0.310126 0.194854
O O14 0.250000 0.750000 0.000000
O O15 0.185091 0.500000 0.000000
O O16 0.820781 0.500000 0.403355
O O17 0.750000 0.250000 0.407383
#
# Coordination Sequence:
#
# PCOD8273300 Si02
#       6
#    16   8  16  16   8  16
#     4   9  17  29  47  70  95 125 162 204 249 300
#     4   9  19  36  59  85 110 141 180 215 252 304
#     4  10  21  37  56  78 104 136 176 218 260 310
#     4   9  18  33  51  71  98 133 170 207 252 306
#     4   8  14  26  43  65  93 123 157 198 246 298
#     4  11  22  37  58  83 113 144 175 215 260 305
#
# _framework density 18.761485
#
# number of rings (size 3 to 8) (size 9 to 14) (size 15 to 20)
#    0.000    2.500    0.000    2.100    0.000    3.600 
#    0.000    4.000    0.000    6.600    0.000    0.000 
#    0.000   11.200    0.000    0.000    0.000    0.000 
#
# Total GULP energy -495783.755422 kJ/mol
# GULP energy per Si atom -12394.593886 kJ/mol
# Density = 1.871878 g / cm^3
# Si number density = 18.761485 Si / 1000 Ang^3
#
#
#
# Elastic Constant Matrix: (Units=GPa)
#
#
# Indices 1 2 3 4 5 6 
#
# 1 104.0844 32.2378 84.1338 0.0000 0.0000 0.0000
# 2 32.2378 43.9081 35.0418 0.0000 0.0000 0.0000
# 3 84.1338 35.0418 167.7490 0.0000 0.0000 0.0000
# 4 0.0000 0.0000 0.0000 19.9561 0.0000 0.0000
# 5 0.0000 0.0000 0.0000 0.0000 -29.1057 0.0000
# 6 0.0000 0.0000 0.0000 0.0000 0.0000 24.2450
#
#
#
# Elastic Compliance Matrix: (Units=1/GPa)
#
#
# Indices 1 2 3 4 5 6 
#
# 1 0.017854 -0.007155 -0.007460 0.000000 0.000000 0.000000
# 2 -0.007155 0.030199 -0.002720 0.000000 0.000000 0.000000
# 3 -0.007460 -0.002720 0.010271 0.000000 0.000000 0.000000
# 4 0.000000 0.000000 0.000000 0.050110 0.000000 0.000000
# 5 0.000000 0.000000 0.000000 0.000000 -0.034358 0.000000
# 6 0.000000 0.000000 0.000000 0.000000 0.000000 0.041246
#
#
# Mechanical properties :
#
#
# Convention : Reuss Voigt Hill
#
# Bulk Modulus (GPa) = 42.27587 68.72981 55.50284
# Shear Modulus (GPa) = 31.67069 13.97429 22.82249
#
# Velocity S-wave (km/s) = 4.11307 2.73214 3.49155
# Velocity P-wave (km/s) = 6.71853 6.83123 6.77512
#
# Compressibility (1/GPa) = 0.02365415
#
# Stress axis : x y z
#
# Youngs Moduli (GPa) = 56.01137 33.11403 97.36300
#
# Poissons Ratio (x) = 0.23693 0.72630
# Poissons Ratio (y) = 0.40075 0.26481
# Poissons Ratio (z) = 0.41783 0.09006
#
# Static dielectric constant tensor:
#      x y z
#    x 3.369630 0.000000 0.000000 
#    y 0.000000 3.373550 0.000000 
#    z 0.000000 0.000000 3.975610 
# 
# 
# High freq. dielectric constant tensor:
#      x y z
#    x 1.710690 0.000000 0.000000 
#    y 0.000000 1.716900 0.000000 
#    z 0.000000 0.000000 1.753080 
# 
# From -- ./inp_files/72958.got.cif
#   From: 2010.03.12/outbox.cif.g09.slc.cpg/sg65_37_cif.got.tgz:72958.got - 2010.04.10 20:52:16.
