data_PCOD8273853
_publ_section_title
;
Structure prediction by ZEFSAII (Michael W. Deem and Ramdas Pophale) SiO2 
 PCOD8273853
Probable space group: C M M M
;
_chemical_formula_sum "Si O2"
_cell_formula_units_Z 64
_cell_length_a 10.591456
_cell_length_b 28.633950
_cell_length_c 10.057364
_cell_angle_alpha 90.000000
_cell_angle_beta 90.000000
_cell_angle_gamma 90.000000
_cell_volume 3050.149295
_symmetry_space_group_name_H-M "C M M M"
_symmetry_group_IT_number 65
_symmetry_cell_setting 'orthorhombic'
loop_
_space_group_symop_operation_xyz
x,y,z
-x,-y,z
x,-y,-z
-x,y,-z
-x,-y,-z
x,y,-z
-x,y,z
x,-y,z
1/2+x,1/2+y,z
1/2-x,1/2-y,z
1/2+x,1/2-y,-z
1/2-x,1/2+y,-z
1/2-x,1/2-y,-z
1/2+x,1/2+y,-z
1/2-x,1/2+y,z
1/2+x,1/2-y,z
loop_
_atom_site_type_symbol
_atom_site_label
_atom_site_fract_x
_atom_site_fract_y
_atom_site_fract_z
Si Si1 0.000000 0.120077 0.344898
Si Si2 0.359123 0.944457 0.000000
Si Si3 0.856263 0.419919 0.500000
Si Si4 0.281524 0.552277 0.741457
Si Si5 0.348472 0.815487 0.500000
Si Si6 0.250000 0.750000 0.275852
Si Si7 0.500000 0.290799 0.155499
O O1 0.116718 0.087467 0.312486
O O2 0.000000 0.164404 0.250336
O O3 0.000000 0.135152 0.500000
O O4 0.281788 0.926531 0.873253
O O5 0.500000 0.922624 0.000000
O O6 0.369466 0.000000 0.000000
O O7 0.824381 0.450613 0.628502
O O8 0.794839 0.368160 0.500000
O O9 0.000000 0.408142 0.500000
O O10 0.336032 0.500000 0.766976
O O11 0.500000 0.808951 0.500000
O O12 0.288445 0.793417 0.367918
O O13 0.371842 0.738072 0.185171
O O14 0.500000 0.305088 0.000000
#
# Coordination Sequence:
#
# PCOD8273853 Si02
#       7
#     8   8   8  16   8   8   8
#     4  12  27  44  67  99 138 176 226 282 335 399
#     4   9  20  39  63  91 127 178 234 280 332 397
#     4  11  22  36  60  97 135 171 227 285 333 385
#     4  11  23  40  64  93 134 185 231 278 333 394
#     4  10  21  39  68 102 135 176 227 276 333 412
#     4  11  23  44  74 102 132 180 218 276 340 424
#     4  12  28  47  75 105 139 173 226 283 347 410
#
# _framework density 20.982581
#
# number of rings (size 3 to 8) (size 9 to 14) (size 15 to 20)
#    0.000    1.125    2.500    3.375    5.250    2.500 
#    0.000    1.875    0.000    0.000    0.000    0.000 
#    0.000    0.000    0.000    0.000    0.000    0.000 
#
# Total GULP energy -396734.895361 kJ/mol
# GULP energy per Si atom -12397.965480 kJ/mol
# Density = 2.093482 g / cm^3
# Si number density = 20.982581 Si / 1000 Ang^3
#
#
#
# Elastic Constant Matrix: (Units=GPa)
#
#
# Indices 1 2 3 4 5 6 
#
# 1 113.3963 34.6752 59.5144 0.0000 0.0000 0.0000
# 2 34.6752 82.2630 34.7684 0.0000 0.0000 0.0000
# 3 59.5144 34.7684 191.0741 0.0000 0.0000 0.0000
# 4 0.0000 0.0000 0.0000 27.9909 0.0000 0.0000
# 5 0.0000 0.0000 0.0000 0.0000 34.7679 0.0000
# 6 0.0000 0.0000 0.0000 0.0000 0.0000 4.8344
#
#
#
# Elastic Compliance Matrix: (Units=1/GPa)
#
#
# Indices 1 2 3 4 5 6 
#
# 1 0.011445 -0.003594 -0.002911 0.000000 0.000000 0.000000
# 2 -0.003594 0.014298 -0.001482 0.000000 0.000000 0.000000
# 3 -0.002911 -0.001482 0.006410 0.000000 0.000000 0.000000
# 4 0.000000 0.000000 0.000000 0.035726 0.000000 0.000000
# 5 0.000000 0.000000 0.000000 0.000000 0.028762 0.000000
# 6 0.000000 0.000000 0.000000 0.000000 0.000000 0.206853
#
#
# Mechanical properties :
#
#
# Convention : Reuss Voigt Hill
#
# Bulk Modulus (GPa) = 61.81047 71.62769 66.71908
# Shear Modulus (GPa) = 15.39119 30.70367 23.04743
#
# Velocity S-wave (km/s) = 2.71130 3.82945 3.31782
# Velocity P-wave (km/s) = 6.27084 7.33238 6.82229
#
# Compressibility (1/GPa) = 0.01617849
#
# Stress axis : x y z
#
# Youngs Moduli (GPa) = 87.37106 69.94205 156.00758
#
# Poissons Ratio (x) = 0.25138 0.45413
# Poissons Ratio (y) = 0.31402 0.23123
# Poissons Ratio (z) = 0.25433 0.10366
#
# Static dielectric constant tensor:
#      x y z
#    x 3.944590 0.000000 0.000000 
#    y 0.000000 3.643600 0.000000 
#    z 0.000000 0.000000 3.841360 
# 
# 
# High freq. dielectric constant tensor:
#      x y z
#    x 1.838430 0.000000 0.000000 
#    y 0.000000 1.813150 0.000000 
#    z 0.000000 0.000000 1.827720 
# 
# From -- ./inp_files/5069.got.cif
#   From: 2010.03.12/outbox.cif.g09.slc.cpg/sg65_3_cif.got.tgz:5069.got - 2010.04.10 20:52:16.
