data_PCOD8273810
_publ_section_title
;
Structure prediction by ZEFSAII (Michael W. Deem and Ramdas Pophale) SiO2 
 PCOD8273810
Probable space group: C M M M
;
_chemical_formula_sum "Si O2"
_cell_formula_units_Z 104
_cell_length_a 25.698367
_cell_length_b 21.855141
_cell_length_c 9.350981
_cell_angle_alpha 90.000000
_cell_angle_beta 90.000000
_cell_angle_gamma 90.000000
_cell_volume 5251.898381
_symmetry_space_group_name_H-M "C M M M"
_symmetry_group_IT_number 65
_symmetry_cell_setting 'orthorhombic'
loop_
_space_group_symop_operation_xyz
x,y,z
-x,-y,z
x,-y,-z
-x,y,-z
-x,-y,-z
x,y,-z
-x,y,z
x,-y,z
1/2+x,1/2+y,z
1/2-x,1/2-y,z
1/2+x,1/2-y,-z
1/2-x,1/2+y,-z
1/2-x,1/2-y,-z
1/2+x,1/2+y,-z
1/2-x,1/2+y,z
1/2+x,1/2-y,z
loop_
_atom_site_type_symbol
_atom_site_label
_atom_site_fract_x
_atom_site_fract_y
_atom_site_fract_z
Si Si1 0.387905 0.224506 0.165204
Si Si2 0.000000 0.771409 0.831188
Si Si3 0.637023 0.103582 0.669917
Si Si4 0.096636 0.934072 0.340733
Si Si5 0.941635 0.500000 0.330707
Si Si6 0.000000 0.909276 0.169296
Si Si7 0.833986 0.149182 0.161025
Si Si8 0.235504 0.431468 0.839540
O O1 0.446217 0.240603 0.221855
O O2 0.368222 0.169961 0.262350
O O3 0.344902 0.278625 0.182098
O O4 0.390622 0.204192 0.000000
O O5 0.000000 0.840007 0.773587
O O6 0.000000 0.773218 0.000000
O O7 0.639648 0.109253 0.500000
O O8 0.588950 0.060780 0.719679
O O9 0.690133 0.073553 0.724136
O O10 0.077931 0.915687 0.500000
O O11 0.049426 0.942665 0.232830
O O12 0.134190 0.882481 0.284656
O O13 0.125436 0.000000 0.344327
O O14 0.945132 0.500000 0.500000
O O15 0.000000 0.500000 0.264156
O O16 0.000000 0.915458 0.000000
O O17 0.775269 0.125309 0.183509
O O18 0.852735 0.130981 0.000000
O O19 0.260816 0.500000 0.821984
O O20 0.212536 0.425314 0.000000
#
# Coordination Sequence:
#
# PCOD8273810 Si02
#       8
#    16   8  16  16   8   8  16  16
#     4  10  21  39  61  88 122 156 198 250 301 354
#     4   9  18  36  60  84 117 158 198 246 300 353
#     4  11  23  40  64  92 122 158 197 239 299 368
#     4  11  23  36  51  80 120 157 199 257 317 364
#     4   9  20  40  63  89 123 157 195 242 291 358
#     4  11  20  36  59  80 107 155 209 255 303 364
#     4  10  21  39  63  87 115 158 209 254 297 356
#     4  10  21  39  64  91 120 156 202 254 303 353
#
# _framework density 19.802361999999999
#
# number of rings (size 3 to 8) (size 9 to 14) (size 15 to 20)
#    0.000    1.769    2.308    1.846    1.077    4.615 
#    0.000    3.077    0.000    1.846    0.000    0.000 
#    0.000    0.000    0.000    0.000    0.000    0.000 
#
# Total GULP energy -644440.194134 kJ/mol
# GULP energy per Si atom -12393.080656 kJ/mol
# Density = 1.975729 g / cm^3
# Si number density = 19.802362 Si / 1000 Ang^3
#
#
#
# Elastic Constant Matrix: (Units=GPa)
#
#
# Indices 1 2 3 4 5 6 
#
# 1 109.4854 53.6505 42.9858 0.0000 0.0000 0.0000
# 2 53.6505 128.6728 50.1142 0.0000 0.0000 0.0000
# 3 42.9858 50.1142 103.7203 0.0000 0.0000 0.0000
# 4 0.0000 0.0000 0.0000 29.8057 0.0000 0.0000
# 5 0.0000 0.0000 0.0000 0.0000 42.2297 0.0000
# 6 0.0000 0.0000 0.0000 0.0000 0.0000 25.7289
#
#
#
# Elastic Compliance Matrix: (Units=1/GPa)
#
#
# Indices 1 2 3 4 5 6 
#
# 1 0.012297 -0.003871 -0.003226 0.000000 0.000000 0.000000
# 2 -0.003871 0.010792 -0.003610 0.000000 0.000000 0.000000
# 3 -0.003226 -0.003610 0.012723 0.000000 0.000000 0.000000
# 4 0.000000 0.000000 0.000000 0.033551 0.000000 0.000000
# 5 0.000000 0.000000 0.000000 0.000000 0.023680 0.000000
# 6 0.000000 0.000000 0.000000 0.000000 0.000000 0.038867
#
#
# Mechanical properties :
#
#
# Convention : Reuss Voigt Hill
#
# Bulk Modulus (GPa) = 69.45679 70.59773 70.02726
# Shear Modulus (GPa) = 31.62128 32.56141 32.09134
#
# Velocity S-wave (km/s) = 4.00039 4.05942 4.03001
# Velocity P-wave (km/s) = 7.51589 7.59608 7.55609
#
# Compressibility (1/GPa) = 0.01439744
#
# Stress axis : x y z
#
# Youngs Moduli (GPa) = 81.32020 92.66520 78.60069
#
# Poissons Ratio (x) = 0.35869 0.25358
# Poissons Ratio (y) = 0.31478 0.28374
# Poissons Ratio (z) = 0.26235 0.33451
#
# Static dielectric constant tensor:
#      x y z
#    x 3.835040 0.000000 0.000000 
#    y 0.000000 3.691750 0.000000 
#    z 0.000000 0.000000 3.498760 
# 
# 
# High freq. dielectric constant tensor:
#      x y z
#    x 1.763050 0.000000 0.000000 
#    y 0.000000 1.779760 0.000000 
#    z 0.000000 0.000000 1.761530 
# 
# From -- ./inp_files/16562.got.cif
#   From: 2010.03.12/outbox.cif.g09.slc.cpg/sg65_9_cif.got.tgz:16562.got - 2010.04.10 20:52:16.
