data_PCOD8273621
_publ_section_title
;
Structure prediction by ZEFSAII (Michael W. Deem and Ramdas Pophale) SiO2 
 PCOD8273621
Probable space group: C M M M
;
_chemical_formula_sum "Si O2"
_cell_formula_units_Z 56
_cell_length_a 14.435457
_cell_length_b 8.493843
_cell_length_c 23.457028
_cell_angle_alpha 90.000000
_cell_angle_beta 90.000000
_cell_angle_gamma 90.000000
_cell_volume 2876.124972
_symmetry_space_group_name_H-M "C M M M"
_symmetry_group_IT_number 65
_symmetry_cell_setting 'orthorhombic'
loop_
_space_group_symop_operation_xyz
x,y,z
-x,-y,z
x,-y,-z
-x,y,-z
-x,-y,-z
x,y,-z
-x,y,z
x,-y,z
1/2+x,1/2+y,z
1/2-x,1/2-y,z
1/2+x,1/2-y,-z
1/2-x,1/2+y,-z
1/2-x,1/2-y,-z
1/2+x,1/2+y,-z
1/2-x,1/2+y,z
1/2+x,1/2-y,z
loop_
_atom_site_type_symbol
_atom_site_label
_atom_site_fract_x
_atom_site_fract_y
_atom_site_fract_z
Si Si1 0.000000 0.319287 0.355241
Si Si2 0.000000 0.813786 0.065191
Si Si3 0.146415 0.686063 0.850161
Si Si4 0.851303 0.181527 0.435669
Si Si5 0.500000 0.683468 0.767111
O O1 0.910642 0.284423 0.392822
O O2 0.000000 0.500000 0.335898
O O3 0.000000 0.209705 0.300081
O O4 0.907275 0.747544 0.094214
O O5 0.000000 0.000000 0.071225
O O6 0.000000 0.758302 0.000000
O O7 0.149185 0.500000 0.851629
O O8 0.250000 0.750000 0.849468
O O9 0.092643 0.741064 0.793544
O O10 0.889963 0.198508 0.500000
O O11 0.750000 0.250000 0.432004
O O12 0.853354 0.000000 0.416573
O O13 0.500000 0.500000 0.781524
#
# Coordination Sequence:
#
# PCOD8273621 Si02
#       5
#     8   8  16  16   8
#     4  12  24  38  58  85 115 149 190 233 284 341
#     4  10  21  38  60  89 123 156 194 239 284 333
#     4  11  22  39  62  87 117 154 194 235 285 339
#     4  10  21  38  59  84 114 148 187 232 284 341
#     4  11  23  41  61  84 114 147 190 240 288 338
#
# _framework density 19.470642999999999
#
# number of rings (size 3 to 8) (size 9 to 14) (size 15 to 20)
#    0.000    1.286    0.000    8.571    0.000    6.286 
#    0.000    5.714    0.000    0.000    0.000    0.000 
#    0.000    0.000    0.000    0.000    0.000    0.000 
#
# Total GULP energy -347313.905829 kJ/mol
# GULP energy per Si atom -12404.068065 kJ/mol
# Density = 1.942633 g / cm^3
# Si number density = 19.470643 Si / 1000 Ang^3
#
#
#
# Elastic Constant Matrix: (Units=GPa)
#
#
# Indices 1 2 3 4 5 6 
#
# 1 148.3850 44.8487 59.2516 0.0000 0.0000 0.0000
# 2 44.8487 127.4264 32.5005 0.0000 0.0000 0.0000
# 3 59.2516 32.5005 124.7316 0.0000 0.0000 0.0000
# 4 0.0000 0.0000 0.0000 33.7807 0.0000 0.0000
# 5 0.0000 0.0000 0.0000 0.0000 24.4475 0.0000
# 6 0.0000 0.0000 0.0000 0.0000 0.0000 38.4953
#
#
#
# Elastic Compliance Matrix: (Units=1/GPa)
#
#
# Indices 1 2 3 4 5 6 
#
# 1 0.008852 -0.002188 -0.003635 0.000000 0.000000 0.000000
# 2 -0.002188 0.008947 -0.001292 0.000000 0.000000 0.000000
# 3 -0.003635 -0.001292 0.010080 0.000000 0.000000 0.000000
# 4 0.000000 0.000000 0.000000 0.029603 0.000000 0.000000
# 5 0.000000 0.000000 0.000000 0.000000 0.040904 0.000000
# 6 0.000000 0.000000 0.000000 0.000000 0.000000 0.025977
#
#
# Mechanical properties :
#
#
# Convention : Reuss Voigt Hill
#
# Bulk Modulus (GPa) = 73.26093 74.86050 74.06071
# Shear Modulus (GPa) = 34.92989 36.94085 35.93537
#
# Velocity S-wave (km/s) = 4.24013 4.36048 4.30073
# Velocity P-wave (km/s) = 7.85364 7.99269 7.92347
#
# Compressibility (1/GPa) = 0.01364984
#
# Stress axis : x y z
#
# Youngs Moduli (GPa) = 112.96760 111.76446 99.20202
#
# Poissons Ratio (x) = 0.24460 0.36058
# Poissons Ratio (y) = 0.24723 0.12814
# Poissons Ratio (z) = 0.41061 0.14437
#
# Static dielectric constant tensor:
#      x y z
#    x 3.544820 0.000000 0.000000 
#    y 0.000000 3.726600 0.000000 
#    z 0.000000 0.000000 3.624120 
# 
# 
# High freq. dielectric constant tensor:
#      x y z
#    x 1.766240 0.000000 0.000000 
#    y 0.000000 1.780570 0.000000 
#    z 0.000000 0.000000 1.759590 
# 
# From -- ./inp_files/69446.got.cif
#   From: 2010.03.12/outbox.cif.g09.slc.cpg/sg65_35_cif.got.tgz:69446.got - 2010.04.10 20:52:16.
