data_PCOD8273189
_publ_section_title
;
Structure prediction by ZEFSAII (Michael W. Deem and Ramdas Pophale) SiO2 
 PCOD8273189
Probable space group: C M M M
;
_chemical_formula_sum "Si O2"
_cell_formula_units_Z 88
_cell_length_a 21.897201
_cell_length_b 25.276147
_cell_length_c 7.851851
_cell_angle_alpha 90.000000
_cell_angle_beta 90.000000
_cell_angle_gamma 90.000000
_cell_volume 4345.817926
_symmetry_space_group_name_H-M "C M M M"
_symmetry_group_IT_number 65
_symmetry_cell_setting 'orthorhombic'
loop_
_space_group_symop_operation_xyz
x,y,z
-x,-y,z
x,-y,-z
-x,y,-z
-x,-y,-z
x,y,-z
-x,y,z
x,-y,z
1/2+x,1/2+y,z
1/2-x,1/2-y,z
1/2+x,1/2-y,-z
1/2-x,1/2+y,-z
1/2-x,1/2-y,-z
1/2+x,1/2+y,-z
1/2-x,1/2+y,z
1/2+x,1/2-y,z
loop_
_atom_site_type_symbol
_atom_site_label
_atom_site_fract_x
_atom_site_fract_y
_atom_site_fract_z
Si Si1 0.323968 0.061175 0.500000
Si Si2 0.771505 0.386855 0.184345
Si Si3 0.872030 0.697371 0.185670
Si Si4 0.678175 0.301802 0.309105
Si Si5 0.930705 0.126693 0.311407
Si Si6 0.927402 0.057971 0.000000
Si Si7 0.069919 0.649274 0.500000
O O1 0.279844 0.071128 0.663249
O O2 0.383955 0.098973 0.500000
O O3 0.345463 0.000000 0.500000
O O4 0.834655 0.356165 0.173171
O O5 0.717113 0.345272 0.211119
O O6 0.759890 0.414962 0.000000
O O7 0.822670 0.743813 0.225694
O O8 0.920743 0.687747 0.336230
O O9 0.903228 0.708268 0.000000
O O10 0.704287 0.297465 0.500000
O O11 0.607468 0.319538 0.305728
O O12 0.925620 0.100371 0.500000
O O13 0.904203 0.086411 0.171315
O O14 0.000000 0.142478 0.268004
O O15 0.000000 0.054547 0.000000
O O16 0.897895 0.000000 0.000000
O O17 0.000000 0.628470 0.500000
#
# Coordination Sequence:
#
# PCOD8273189 Si02
#       7
#     8  16  16  16  16   8   8
#     4  10  22  42  65  87 116 153 195 249 308 359
#     4  10  21  37  59  84 116 149 192 239 288 350
#     4  10  21  36  56  86 117 156 190 228 283 346
#     4  11  20  33  57  83 117 153 193 233 280 342
#     4   9  20  35  49  71 104 138 175 222 273 324
#     4   9  18  34  54  70  87 124 178 224 263 308
#     4  10  22  40  61  89 123 154 195 245 292 357
#
# _framework density 20.249352999999999
#
# number of rings (size 3 to 8) (size 9 to 14) (size 15 to 20)
#    0.000    2.091    1.818    1.091    2.545    4.182 
#    0.000    2.727    0.000    0.000    0.000    5.091 
#    0.000    0.000    0.000    0.000    0.000    0.000 
#
# Total GULP energy -545284.640850 kJ/mol
# GULP energy per Si atom -12392.832747 kJ/mol
# Density = 2.020326 g / cm^3
# Si number density = 20.249353 Si / 1000 Ang^3
#
#
#
# Elastic Constant Matrix: (Units=GPa)
#
#
# Indices 1 2 3 4 5 6 
#
# 1 54.6729 9.5748 25.9853 0.0000 0.0000 0.0000
# 2 9.5748 65.1863 33.6354 0.0000 0.0000 0.0000
# 3 25.9853 33.6354 180.4710 0.0000 0.0000 0.0000
# 4 0.0000 0.0000 0.0000 20.8050 0.0000 0.0000
# 5 0.0000 0.0000 0.0000 0.0000 17.7560 0.0000
# 6 0.0000 0.0000 0.0000 0.0000 0.0000 18.2649
#
#
#
# Elastic Compliance Matrix: (Units=1/GPa)
#
#
# Indices 1 2 3 4 5 6 
#
# 1 0.019782 -0.001589 -0.002552 0.000000 0.000000 0.000000
# 2 -0.001589 0.017100 -0.002958 0.000000 0.000000 0.000000
# 3 -0.002552 -0.002958 0.006460 0.000000 0.000000 0.000000
# 4 0.000000 0.000000 0.000000 0.048065 0.000000 0.000000
# 5 0.000000 0.000000 0.000000 0.000000 0.056319 0.000000
# 6 0.000000 0.000000 0.000000 0.000000 0.000000 0.054750
#
#
# Mechanical properties :
#
#
# Convention : Reuss Voigt Hill
#
# Bulk Modulus (GPa) = 34.31276 48.74679 41.52978
# Shear Modulus (GPa) = 22.08586 26.77419 24.43003
#
# Velocity S-wave (km/s) = 3.30615 3.64019 3.47718
# Velocity P-wave (km/s) = 5.61748 6.46479 6.05597
#
# Compressibility (1/GPa) = 0.02914367
#
# Stress axis : x y z
#
# Youngs Moduli (GPa) = 50.55141 58.47785 154.80107
#
# Poissons Ratio (x) = 0.09290 0.39509
# Poissons Ratio (y) = 0.08031 0.45796
# Poissons Ratio (z) = 0.12902 0.17300
#
# Static dielectric constant tensor:
#      x y z
#    x 3.409630 0.000000 0.000000 
#    y 0.000000 3.400280 0.000000 
#    z 0.000000 0.000000 4.396560 
# 
# 
# High freq. dielectric constant tensor:
#      x y z
#    x 1.768220 0.000000 0.000000 
#    y 0.000000 1.757680 0.000000 
#    z 0.000000 0.000000 1.816610 
# 
# From -- ./inp_files/11888.got.cif
#   From: 2010.03.12/outbox.cif.g09.slc.cpg/sg65_6_cif.got.tgz:11888.got - 2010.04.10 20:52:16.
