data_PCOD8273054
_publ_section_title
;
Structure prediction by ZEFSAII (Michael W. Deem and Ramdas Pophale) SiO2 
 PCOD8273054
Probable space group: C M M M
;
_chemical_formula_sum "Si O2"
_cell_formula_units_Z 72
_cell_length_a 9.674320
_cell_length_b 27.982647
_cell_length_c 14.378117
_cell_angle_alpha 90.000000
_cell_angle_beta 90.000000
_cell_angle_gamma 90.000000
_cell_volume 3892.344360
_symmetry_space_group_name_H-M "C M M M"
_symmetry_group_IT_number 65
_symmetry_cell_setting 'orthorhombic'
loop_
_space_group_symop_operation_xyz
x,y,z
-x,-y,z
x,-y,-z
-x,y,-z
-x,-y,-z
x,y,-z
-x,y,z
x,-y,z
1/2+x,1/2+y,z
1/2-x,1/2-y,z
1/2+x,1/2-y,-z
1/2-x,1/2+y,-z
1/2-x,1/2-y,-z
1/2+x,1/2+y,-z
1/2-x,1/2+y,z
1/2+x,1/2-y,z
loop_
_atom_site_type_symbol
_atom_site_label
_atom_site_fract_x
_atom_site_fract_y
_atom_site_fract_z
Si Si1 0.156434 0.446729 0.167477
Si Si2 0.000000 0.179148 0.888568
Si Si3 0.651695 0.444232 0.000000
Si Si4 0.000000 0.291943 0.109790
Si Si5 0.839913 0.297079 0.396936
Si Si6 0.769262 0.348576 0.782404
O O1 0.194558 0.500000 0.207176
O O2 0.259614 0.429363 0.087866
O O3 0.175998 0.402886 0.237987
O O4 0.000000 0.448295 0.129379
O O5 0.000000 0.235674 0.868222
O O6 0.126421 0.153477 0.837335
O O7 0.000000 0.169830 0.000000
O O8 0.628359 0.500000 0.000000
O O9 0.500000 0.418843 0.000000
O O10 0.867163 0.316089 0.154383
O O11 0.000000 0.301597 0.000000
O O12 0.835840 0.320700 0.500000
O O13 0.750000 0.250000 0.398651
O O14 0.763073 0.330216 0.322734
O O15 0.000000 0.287033 0.367850
#
# Coordination Sequence:
#
# PCOD8273054 Si02
#       6
#    16   8   8   8  16  16
#     4  10  21  36  54  77 108 147 193 239 282 336
#     4  11  26  40  54  82 120 155 196 236 280 344
#     4   9  19  33  51  75 106 141 186 242 288 326
#     4  11  22  38  56  78 114 153 192 230 274 344
#     4  10  21  38  61  88 116 146 187 241 294 342
#     4  12  23  37  59  84 111 156 193 235 287 341
#
# _framework density 18.49785
#
# number of rings (size 3 to 8) (size 9 to 14) (size 15 to 20)
#    0.000    1.444    2.222    3.000    6.222    3.111 
#    0.000    0.000    0.000    0.667    0.000    3.111 
#    0.000    1.778    0.000    0.000    0.000    0.000 
#
# Total GULP energy -446017.103295 kJ/mol
# GULP energy per Si atom -12389.363980 kJ/mol
# Density = 1.845575 g / cm^3
# Si number density = 18.497850 Si / 1000 Ang^3
#
#
#
# Elastic Constant Matrix: (Units=GPa)
#
#
# Indices 1 2 3 4 5 6 
#
# 1 122.1467 27.1793 38.0107 0.0000 0.0000 0.0000
# 2 27.1793 124.2648 42.0607 0.0000 0.0000 0.0000
# 3 38.0107 42.0607 108.0573 0.0000 0.0000 0.0000
# 4 0.0000 0.0000 0.0000 2.6842 0.0000 0.0000
# 5 0.0000 0.0000 0.0000 0.0000 21.2081 0.0000
# 6 0.0000 0.0000 0.0000 0.0000 0.0000 22.6392
#
#
#
# Elastic Compliance Matrix: (Units=1/GPa)
#
#
# Indices 1 2 3 4 5 6 
#
# 1 0.009315 -0.001069 -0.002860 0.000000 0.000000 0.000000
# 2 -0.001069 0.009391 -0.003279 0.000000 0.000000 0.000000
# 3 -0.002860 -0.003279 0.011537 0.000000 0.000000 0.000000
# 4 0.000000 0.000000 0.000000 0.372547 0.000000 0.000000
# 5 0.000000 0.000000 0.000000 0.000000 0.047152 0.000000
# 6 0.000000 0.000000 0.000000 0.000000 0.000000 0.044171
#
#
# Mechanical properties :
#
#
# Convention : Reuss Voigt Hill
#
# Bulk Modulus (GPa) = 63.19076 63.21892 63.20484
# Shear Modulus (GPa) = 9.73131 25.78752 17.75941
#
# Velocity S-wave (km/s) = 2.29613 3.73779 3.10188
# Velocity P-wave (km/s) = 6.42378 7.27177 6.86089
#
# Compressibility (1/GPa) = 0.01582510
#
# Stress axis : x y z
#
# Youngs Moduli (GPa) = 107.35446 106.48304 86.67731
#
# Poissons Ratio (x) = 0.11385 0.24794
# Poissons Ratio (y) = 0.11478 0.28425
# Poissons Ratio (z) = 0.30709 0.34920
#
# Static dielectric constant tensor:
#      x y z
#    x 3.784500 0.000000 0.000000 
#    y 0.000000 3.536580 0.000000 
#    z 0.000000 0.000000 4.076030 
# 
# 
# High freq. dielectric constant tensor:
#      x y z
#    x 1.735950 0.000000 0.000000 
#    y 0.000000 1.724120 0.000000 
#    z 0.000000 0.000000 1.688720 
# 
# From -- ./inp_files/36637.got.cif
#   From: 2010.03.12/outbox.cif.g09.slc.cpg/sg65_19_cif.got.tgz:36637.got - 2010.04.10 20:52:16.
