data_PCOD8273067
_publ_section_title
;
Structure prediction by ZEFSAII (Michael W. Deem and Ramdas Pophale) SiO2 
 PCOD8273067
Probable space group: C M M M
;
_chemical_formula_sum "Si O2"
_cell_formula_units_Z 120
_cell_length_a 27.074885
_cell_length_b 27.075299
_cell_length_c 8.882733
_cell_angle_alpha 90.000000
_cell_angle_beta 90.000000
_cell_angle_gamma 90.000000
_cell_volume 6511.581643
_symmetry_space_group_name_H-M "C M M M"
_symmetry_group_IT_number 65
_symmetry_cell_setting 'orthorhombic'
loop_
_space_group_symop_operation_xyz
x,y,z
-x,-y,z
x,-y,-z
-x,y,-z
-x,-y,-z
x,y,-z
-x,y,z
x,-y,z
1/2+x,1/2+y,z
1/2-x,1/2-y,z
1/2+x,1/2-y,-z
1/2-x,1/2+y,-z
1/2-x,1/2-y,-z
1/2+x,1/2+y,-z
1/2-x,1/2+y,z
1/2+x,1/2-y,z
loop_
_atom_site_type_symbol
_atom_site_label
_atom_site_fract_x
_atom_site_fract_y
_atom_site_fract_z
Si Si1 0.395552 0.787680 0.322649
Si Si2 0.305880 0.257760 0.175296
Si Si3 0.555188 0.685992 0.677523
Si Si4 0.909631 0.389322 0.821651
Si Si5 0.282690 0.443581 0.825512
Si Si6 0.000000 0.558371 0.670507
Si Si7 0.855882 0.139990 0.174357
Si Si8 0.319992 0.942869 0.675386
O O1 0.397587 0.796739 0.500000
O O2 0.339081 0.779908 0.271169
O O3 0.427473 0.740392 0.271267
O O4 0.418911 0.834304 0.238706
O O5 0.250000 0.250000 0.227991
O O6 0.320626 0.313886 0.211782
O O7 0.312794 0.244934 0.000000
O O8 0.556407 0.682171 0.500000
O O9 0.500000 0.676622 0.739794
O O10 0.591865 0.644367 0.741219
O O11 0.951446 0.424401 0.756124
O O12 0.856544 0.408780 0.769542
O O13 0.912546 0.389608 0.000000
O O14 0.299037 0.500000 0.799578
O O15 0.327906 0.409347 0.771262
O O16 0.235251 0.430072 0.726600
O O17 0.269715 0.433319 0.000000
O O18 0.000000 0.500000 0.669200
O O19 0.000000 0.579112 0.500000
O O20 0.868609 0.137219 0.000000
O O21 0.325887 0.930563 0.500000
O O22 0.332127 0.000000 0.709108
#
# Coordination Sequence:
#
# PCOD8273067 Si02
#       8
#    16  16  16  16  16   8  16  16
#     4  10  21  36  54  79 108 142 182 223 272 325
#     4   9  18  32  50  74 108 145 178 220 272 326
#     4   9  19  36  57  79 105 140 178 222 273 328
#     4  12  25  39  58  83 110 142 183 229 279 333
#     4   9  18  33  54  81 113 148 184 222 267 323
#     4  11  25  45  65  83 107 141 183 235 290 337
#     4   9  18  32  51  78 108 142 180 221 272 325
#     4  10  21  37  56  80 109 143 184 227 273 323
#
# _framework density 18.428702000000001
#
# number of rings (size 3 to 8) (size 9 to 14) (size 15 to 20)
#    0.000    2.200    0.000    2.600    2.800    4.533 
#    0.000    0.000    0.000    0.400    0.000    2.800 
#    0.000    0.000    0.000    0.000    0.000    0.000 
#
# Total GULP energy -744219.688266 kJ/mol
# GULP energy per Si atom -12403.661471 kJ/mol
# Density = 1.838676 g / cm^3
# Si number density = 18.428702 Si / 1000 Ang^3
#
#
#
# Elastic Constant Matrix: (Units=GPa)
#
#
# Indices 1 2 3 4 5 6 
#
# 1 132.8641 51.4871 41.4093 0.0000 0.0000 0.0000
# 2 51.4871 82.2210 36.4093 0.0000 0.0000 0.0000
# 3 41.4093 36.4093 82.9218 0.0000 0.0000 0.0000
# 4 0.0000 0.0000 0.0000 26.2231 0.0000 0.0000
# 5 0.0000 0.0000 0.0000 0.0000 28.3411 0.0000
# 6 0.0000 0.0000 0.0000 0.0000 0.0000 26.0132
#
#
#
# Elastic Compliance Matrix: (Units=1/GPa)
#
#
# Indices 1 2 3 4 5 6 
#
# 1 0.010478 -0.005269 -0.002919 0.000000 0.000000 0.000000
# 2 -0.005269 0.017747 -0.005161 0.000000 0.000000 0.000000
# 3 -0.002919 -0.005161 0.015784 0.000000 0.000000 0.000000
# 4 0.000000 0.000000 0.000000 0.038134 0.000000 0.000000
# 5 0.000000 0.000000 0.000000 0.000000 0.035284 0.000000
# 6 0.000000 0.000000 0.000000 0.000000 0.000000 0.038442
#
#
# Mechanical properties :
#
#
# Convention : Reuss Voigt Hill
#
# Bulk Modulus (GPa) = 57.76877 61.84648 59.80763
# Shear Modulus (GPa) = 26.54801 27.36222 26.95511
#
# Velocity S-wave (km/s) = 3.79961 3.85744 3.82864
# Velocity P-wave (km/s) = 7.11791 7.31249 7.21586
#
# Compressibility (1/GPa) = 0.01731039
#
# Stress axis : x y z
#
# Youngs Moduli (GPa) = 95.43825 56.34691 63.35712
#
# Poissons Ratio (x) = 0.29688 0.18494
# Poissons Ratio (y) = 0.50284 0.32701
# Poissons Ratio (z) = 0.27859 0.29083
#
# Static dielectric constant tensor:
#      x y z
#    x 3.494830 0.000000 0.000000 
#    y 0.000000 3.425200 0.000000 
#    z 0.000000 0.000000 3.408640 
# 
# 
# High freq. dielectric constant tensor:
#      x y z
#    x 1.714220 0.000000 0.000000 
#    y 0.000000 1.707900 0.000000 
#    z 0.000000 0.000000 1.715700 
# 
# From -- ./inp_files/17121.got.cif
#   From: 2010.03.12/outbox.cif.g09.slc.cpg/sg65_9_cif.got.tgz:17121.got - 2010.04.10 20:52:16.
