data_PCOD8273339
_publ_section_title
;
Structure prediction by ZEFSAII (Michael W. Deem and Ramdas Pophale) SiO2 
 PCOD8273339
Probable space group: C M M M
;
_chemical_formula_sum "Si O2"
_cell_formula_units_Z 96
_cell_length_a 29.109237
_cell_length_b 8.796256
_cell_length_c 20.469813
_cell_angle_alpha 90.000000
_cell_angle_beta 90.000000
_cell_angle_gamma 90.000000
_cell_volume 5241.342712
_symmetry_space_group_name_H-M "C M M M"
_symmetry_group_IT_number 65
_symmetry_cell_setting 'orthorhombic'
loop_
_space_group_symop_operation_xyz
x,y,z
-x,-y,z
x,-y,-z
-x,y,-z
-x,-y,-z
x,y,-z
-x,y,z
x,-y,z
1/2+x,1/2+y,z
1/2-x,1/2-y,z
1/2+x,1/2-y,-z
1/2-x,1/2+y,-z
1/2-x,1/2-y,-z
1/2+x,1/2+y,-z
1/2-x,1/2+y,z
1/2+x,1/2-y,z
loop_
_atom_site_type_symbol
_atom_site_label
_atom_site_fract_x
_atom_site_fract_y
_atom_site_fract_z
Si Si1 0.645844 0.319441 0.314008
Si Si2 0.948776 0.821742 0.881476
Si Si3 0.300228 0.818732 0.192987
Si Si4 0.549642 0.680056 0.265428
Si Si5 0.140133 0.677190 0.928047
Si Si6 0.298256 0.177078 0.424259
O O1 0.651641 0.500000 0.308142
O O2 0.674747 0.240315 0.257401
O O3 0.592450 0.267354 0.309564
O O4 0.662155 0.261169 0.384218
O O5 0.943040 0.758099 0.807855
O O6 0.910935 0.744716 0.926544
O O7 0.000000 0.783091 0.907561
O O8 0.939990 0.000000 0.883242
O O9 0.250000 0.750000 0.190134
O O10 0.327060 0.756955 0.128770
O O11 0.297292 0.000000 0.195235
O O12 0.500000 0.739663 0.292839
O O13 0.547923 0.500000 0.262010
O O14 0.135235 0.500000 0.916803
O O15 0.160988 0.714159 0.000000
O O16 0.309055 0.205290 0.500000
O O17 0.250000 0.250000 0.403897
O O18 0.296716 0.000000 0.406631
#
# Coordination Sequence:
#
# PCOD8273339 Si02
#       6
#    16  16  16  16  16  16
#     4  11  20  33  58  85 110 139 175 217 262 310
#     4   9  17  32  54  78 104 134 172 216 261 313
#     4  11  23  38  55  75 102 134 175 222 267 318
#     4   8  15  29  51  79 108 136 169 213 260 304
#     4  10  22  38  53  72 102 138 174 218 271 322
#     4  10  21  37  56  80 113 148 181 217 259 308
#
# _framework density 18.315918
#
# number of rings (size 3 to 8) (size 9 to 14) (size 15 to 20)
#    0.000    2.167    1.667    3.000    0.000    3.000 
#    0.000    1.667    0.000    2.500    0.000    3.500 
#    0.000    0.000    0.000    0.000    0.000    0.000 
#
# Total GULP energy -595053.940165 kJ/mol
# GULP energy per Si atom -12396.957087 kJ/mol
# Density = 1.827423 g / cm^3
# Si number density = 18.315918 Si / 1000 Ang^3
#
#
#
# Elastic Constant Matrix: (Units=GPa)
#
#
# Indices 1 2 3 4 5 6 
#
# 1 143.4698 36.3105 61.4476 0.0000 0.0000 0.0000
# 2 36.3105 50.0945 31.8092 0.0000 0.0000 0.0000
# 3 61.4476 31.8092 87.3811 0.0000 0.0000 0.0000
# 4 0.0000 0.0000 0.0000 23.4805 0.0000 0.0000
# 5 0.0000 0.0000 0.0000 0.0000 31.2133 0.0000
# 6 0.0000 0.0000 0.0000 0.0000 0.0000 22.1240
#
#
#
# Elastic Compliance Matrix: (Units=1/GPa)
#
#
# Indices 1 2 3 4 5 6 
#
# 1 0.010503 -0.003802 -0.006002 0.000000 0.000000 0.000000
# 2 -0.003802 0.027340 -0.007279 0.000000 0.000000 0.000000
# 3 -0.006002 -0.007279 0.018314 0.000000 0.000000 0.000000
# 4 0.000000 0.000000 0.000000 0.042589 0.000000 0.000000
# 5 0.000000 0.000000 0.000000 0.000000 0.032038 0.000000
# 6 0.000000 0.000000 0.000000 0.000000 0.000000 0.045200
#
#
# Mechanical properties :
#
#
# Convention : Reuss Voigt Hill
#
# Bulk Modulus (GPa) = 45.47104 60.00888 52.73996
# Shear Modulus (GPa) = 22.99069 25.45542 24.22305
#
# Velocity S-wave (km/s) = 3.54677 3.73204 3.64058
# Velocity P-wave (km/s) = 6.45388 7.16974 6.82121
#
# Compressibility (1/GPa) = 0.02199202
#
# Stress axis : x y z
#
# Youngs Moduli (GPa) = 95.21221 36.57639 54.60173
#
# Poissons Ratio (x) = 0.13906 0.32771
# Poissons Ratio (y) = 0.36198 0.39745
# Poissons Ratio (z) = 0.57144 0.26624
#
# Static dielectric constant tensor:
#      x y z
#    x 3.715380 0.000000 0.000000 
#    y 0.000000 3.251420 0.000000 
#    z 0.000000 0.000000 3.347780 
# 
# 
# High freq. dielectric constant tensor:
#      x y z
#    x 1.717550 0.000000 0.000000 
#    y 0.000000 1.699080 0.000000 
#    z 0.000000 0.000000 1.698020 
# 
# From -- ./inp_files/60303.got.cif
#   From: 2010.03.12/outbox.cif.g09.slc.cpg/sg65_31_cif.got.tgz:60303.got - 2010.04.10 20:52:16.
