data_PCOD8273739
_publ_section_title
;
Structure prediction by ZEFSAII (Michael W. Deem and Ramdas Pophale) SiO2 
 PCOD8273739
Probable space group: C M M M
;
_chemical_formula_sum "Si O2"
_cell_formula_units_Z 80
_cell_length_a 8.764116
_cell_length_b 18.101790
_cell_length_c 25.865937
_cell_angle_alpha 90.000000
_cell_angle_beta 90.000000
_cell_angle_gamma 90.000000
_cell_volume 4103.532288
_symmetry_space_group_name_H-M "C M M M"
_symmetry_group_IT_number 65
_symmetry_cell_setting 'orthorhombic'
loop_
_space_group_symop_operation_xyz
x,y,z
-x,-y,z
x,-y,-z
-x,y,-z
-x,-y,-z
x,y,-z
-x,y,z
x,-y,z
1/2+x,1/2+y,z
1/2-x,1/2-y,z
1/2+x,1/2-y,-z
1/2-x,1/2+y,-z
1/2-x,1/2-y,-z
1/2+x,1/2+y,-z
1/2-x,1/2+y,z
1/2+x,1/2-y,z
loop_
_atom_site_type_symbol
_atom_site_label
_atom_site_fract_x
_atom_site_fract_y
_atom_site_fract_z
Si Si1 0.178929 0.672554 0.059568
Si Si2 0.825881 0.088162 0.334003
Si Si3 0.678855 0.829267 0.242284
Si Si4 0.181005 0.082587 0.554670
Si Si5 0.679320 0.415179 0.852328
O O1 0.250000 0.750000 0.077823
O O2 0.252581 0.606562 0.092169
O O3 0.000000 0.675856 0.069699
O O4 0.218405 0.656625 0.000000
O O5 0.713215 0.119705 0.291357
O O6 0.768873 0.119337 0.390618
O O7 0.000000 0.113105 0.322089
O O8 0.816128 0.000000 0.333729
O O9 0.500000 0.821662 0.234482
O O10 0.750000 0.750000 0.252621
O O11 0.748111 0.864352 0.191113
O O12 0.232209 0.122666 0.500000
O O13 0.000000 0.078264 0.556652
O O14 0.248074 0.000000 0.552823
O O15 0.500000 0.402166 0.852869
O O16 0.720758 0.500000 0.840884
#
# Coordination Sequence:
#
# PCOD8273739 Si02
#       5
#    16  16  16  16  16
#     4  10  21  38  61  88 119 154 190 227 267 315
#     4   9  17  31  53  81 112 142 175 219 268 319
#     4  12  25  40  58  78 105 141 182 227 274 328
#     4   7  10  19  40  72 106 138 172 210 255 310
#     4  11  24  41  61  85 114 146 181 224 273 324
#
# _framework density 19.4954
#
# number of rings (size 3 to 8) (size 9 to 14) (size 15 to 20)
#    0.000    2.200    0.000    6.000    0.000    6.000 
#    0.000    2.000    0.000    1.200    0.000    2.800 
#    0.000    0.000    0.000    0.000    0.000    0.000 
#
# Total GULP energy -495727.399713 kJ/mol
# GULP energy per Si atom -12393.184993 kJ/mol
# Density = 1.945103 g / cm^3
# Si number density = 19.495400 Si / 1000 Ang^3
#
#
#
# Elastic Constant Matrix: (Units=GPa)
#
#
# Indices 1 2 3 4 5 6 
#
# 1 76.5091 27.2236 35.2083 0.0000 0.0000 0.0000
# 2 27.2236 47.3181 30.6872 0.0000 0.0000 0.0000
# 3 35.2083 30.6872 126.4077 0.0000 0.0000 0.0000
# 4 0.0000 0.0000 0.0000 1.0619 0.0000 0.0000
# 5 0.0000 0.0000 0.0000 0.0000 15.3539 0.0000
# 6 0.0000 0.0000 0.0000 0.0000 0.0000 27.6137
#
#
#
# Elastic Compliance Matrix: (Units=1/GPa)
#
#
# Indices 1 2 3 4 5 6 
#
# 1 0.017255 -0.008083 -0.002844 0.000000 0.000000 0.000000
# 2 -0.008083 0.028869 -0.004757 0.000000 0.000000 0.000000
# 3 -0.002844 -0.004757 0.009858 0.000000 0.000000 0.000000
# 4 0.000000 0.000000 0.000000 0.941681 0.000000 0.000000
# 5 0.000000 0.000000 0.000000 0.000000 0.065130 0.000000
# 6 0.000000 0.000000 0.000000 0.000000 0.000000 0.036214
#
#
# Mechanical properties :
#
#
# Convention : Reuss Voigt Hill
#
# Bulk Modulus (GPa) = 40.62686 48.49700 44.56193
# Shear Modulus (GPa) = 4.39143 19.28029 11.83586
#
# Velocity S-wave (km/s) = 1.50248 3.14820 2.46663
# Velocity P-wave (km/s) = 4.88819 6.17616 5.56953
#
# Compressibility (1/GPa) = 0.02461426
#
# Stress axis : x y z
#
# Youngs Moduli (GPa) = 57.95357 34.63905 101.44249
#
# Poissons Ratio (x) = 0.27999 0.28848
# Poissons Ratio (y) = 0.46845 0.48256
# Poissons Ratio (z) = 0.16481 0.16478
#
# Static dielectric constant tensor:
#      x y z
#    x 3.407200 0.000000 0.000000 
#    y 0.000000 3.317380 0.000000 
#    z 0.000000 0.000000 4.110790 
# 
# 
# High freq. dielectric constant tensor:
#      x y z
#    x 1.743060 0.000000 0.000000 
#    y 0.000000 1.727500 0.000000 
#    z 0.000000 0.000000 1.789260 
# 
# From -- ./inp_files/72842.got.cif
#   From: 2010.03.12/outbox.cif.g09.slc.cpg/sg65_37_cif.got.tgz:72842.got - 2010.04.10 20:52:16.
