data_PCOD8273812
_publ_section_title
;
Structure prediction by ZEFSAII (Michael W. Deem and Ramdas Pophale) SiO2 
 PCOD8273812
Probable space group: C M M M
;
_chemical_formula_sum "Si O2"
_cell_formula_units_Z 64
_cell_length_a 8.856075
_cell_length_b 16.062295
_cell_length_c 21.661592
_cell_angle_alpha 90.000000
_cell_angle_beta 90.000000
_cell_angle_gamma 90.000000
_cell_volume 3081.337400
_symmetry_space_group_name_H-M "C M M M"
_symmetry_group_IT_number 65
_symmetry_cell_setting 'orthorhombic'
loop_
_space_group_symop_operation_xyz
x,y,z
-x,-y,z
x,-y,-z
-x,y,-z
-x,-y,-z
x,y,-z
-x,y,z
x,-y,z
1/2+x,1/2+y,z
1/2-x,1/2-y,z
1/2+x,1/2-y,-z
1/2-x,1/2+y,-z
1/2-x,1/2-y,-z
1/2+x,1/2+y,-z
1/2-x,1/2+y,z
1/2+x,1/2-y,z
loop_
_atom_site_type_symbol
_atom_site_label
_atom_site_fract_x
_atom_site_fract_y
_atom_site_fract_z
Si Si1 0.330432 0.906487 0.760098
Si Si2 0.821415 0.662633 0.368853
Si Si3 0.172460 0.000000 0.426977
Si Si4 0.322787 0.335647 0.127969
Si Si5 0.819981 0.093054 0.000000
O O1 0.500000 0.885781 0.782621
O O2 0.283755 0.846413 0.703990
O O3 0.219503 0.900371 0.818581
O O4 0.320074 0.000000 0.734024
O O5 0.750000 0.750000 0.392002
O O6 0.752995 0.584290 0.404721
O O7 0.000000 0.664112 0.380859
O O8 0.178910 0.000000 0.500000
O O9 0.000000 0.000000 0.402777
O O10 0.500000 0.327188 0.123488
O O11 0.250000 0.250000 0.148869
O O12 0.256724 0.362235 0.061278
O O13 0.000000 0.092018 0.000000
O O14 0.755805 0.000000 0.000000
#
# Coordination Sequence:
#
# PCOD8273812 Si02
#       5
#    16  16   8  16   8
#     4  10  21  39  61  89 123 157 200 255 309 366
#     4  11  23  42  67  97 132 173 215 263 319 376
#     4  11  25  45  69  99 133 170 215 264 313 373
#     4  11  22  36  56  82 113 154 198 247 305 365
#     4   9  19  36  55  77 108 145 194 249 302 366
#
# _framework density 20.770204
#
# number of rings (size 3 to 8) (size 9 to 14) (size 15 to 20)
#    0.000    1.500    1.250    3.750    0.000    7.000 
#    0.000    1.875    0.000    4.500    0.000    0.000 
#    0.000    0.000    0.000    0.000    0.000    0.000 
#
# Total GULP energy -396842.309910 kJ/mol
# GULP energy per Si atom -12401.322185 kJ/mol
# Density = 2.072293 g / cm^3
# Si number density = 20.770204 Si / 1000 Ang^3
#
#
#
# Elastic Constant Matrix: (Units=GPa)
#
#
# Indices 1 2 3 4 5 6 
#
# 1 98.8298 49.8726 47.5759 0.0000 0.0000 0.0000
# 2 49.8726 138.8885 42.0593 0.0000 0.0000 0.0000
# 3 47.5759 42.0593 91.5461 0.0000 0.0000 0.0000
# 4 0.0000 0.0000 0.0000 24.1557 0.0000 0.0000
# 5 0.0000 0.0000 0.0000 0.0000 31.2074 0.0000
# 6 0.0000 0.0000 0.0000 0.0000 0.0000 33.0310
#
#
#
# Elastic Compliance Matrix: (Units=1/GPa)
#
#
# Indices 1 2 3 4 5 6 
#
# 1 0.014806 -0.003469 -0.006101 0.000000 0.000000 0.000000
# 2 -0.003469 0.009176 -0.002413 0.000000 0.000000 0.000000
# 3 -0.006101 -0.002413 0.015203 0.000000 0.000000 0.000000
# 4 0.000000 0.000000 0.000000 0.041398 0.000000 0.000000
# 5 0.000000 0.000000 0.000000 0.000000 0.032044 0.000000
# 6 0.000000 0.000000 0.000000 0.000000 0.000000 0.030275
#
#
# Mechanical properties :
#
#
# Convention : Reuss Voigt Hill
#
# Bulk Modulus (GPa) = 65.70667 67.58667 66.64667
# Shear Modulus (GPa) = 29.07991 30.32926 29.70459
#
# Velocity S-wave (km/s) = 3.74582 3.82544 3.78584
# Velocity P-wave (km/s) = 7.10014 7.21962 7.16013
#
# Compressibility (1/GPa) = 0.01521916
#
# Stress axis : x y z
#
# Youngs Moduli (GPa) = 67.54098 108.97440 65.77820
#
# Poissons Ratio (x) = 0.37804 0.40129
# Poissons Ratio (y) = 0.23430 0.15873
# Poissons Ratio (z) = 0.41205 0.26297
#
# Static dielectric constant tensor:
#      x y z
#    x 3.678080 0.000000 0.000000 
#    y 0.000000 3.843150 0.000000 
#    z 0.000000 0.000000 3.735380 
# 
# 
# High freq. dielectric constant tensor:
#      x y z
#    x 1.803350 0.000000 0.000000 
#    y 0.000000 1.824930 0.000000 
#    z 0.000000 0.000000 1.815720 
# 
# From -- ./inp_files/58777.got.cif
#   From: 2010.03.12/outbox.cif.g09.slc.cpg/sg65_30_cif.got.tgz:58777.got - 2010.04.10 20:52:16.
