data_PCOD8273560
_publ_section_title
;
Structure prediction by ZEFSAII (Michael W. Deem and Ramdas Pophale) SiO2 
 PCOD8273560
Probable space group: C M M M
;
_chemical_formula_sum "Si O2"
_cell_formula_units_Z 104
_cell_length_a 9.058327
_cell_length_b 25.348912
_cell_length_c 30.030671
_cell_angle_alpha 90.000000
_cell_angle_beta 90.000000
_cell_angle_gamma 90.000000
_cell_volume 6895.604656
_symmetry_space_group_name_H-M "C M M M"
_symmetry_group_IT_number 65
_symmetry_cell_setting 'orthorhombic'
loop_
_space_group_symop_operation_xyz
x,y,z
-x,-y,z
x,-y,-z
-x,y,-z
-x,-y,-z
x,y,-z
-x,y,z
x,-y,z
1/2+x,1/2+y,z
1/2-x,1/2-y,z
1/2+x,1/2-y,-z
1/2-x,1/2+y,-z
1/2-x,1/2-y,-z
1/2+x,1/2+y,-z
1/2-x,1/2+y,z
1/2+x,1/2-y,z
loop_
_atom_site_type_symbol
_atom_site_label
_atom_site_fract_x
_atom_site_fract_y
_atom_site_fract_z
Si Si1 0.827937 0.938262 0.182764
Si Si2 0.323803 0.098261 0.902045
Si Si3 0.663393 0.437380 0.718255
Si Si4 0.328626 0.694999 0.051701
Si Si5 0.835472 0.563039 0.366356
Si Si6 0.830374 0.000000 0.947272
Si Si7 0.665928 0.562688 0.451358
O O1 0.724587 0.905879 0.149387
O O2 0.776925 0.922035 0.232710
O O3 0.000000 0.924308 0.175634
O O4 0.801987 0.000000 0.174024
O O5 0.500000 0.096516 0.906321
O O6 0.261174 0.152633 0.920310
O O7 0.252560 0.051327 0.930094
O O8 0.500000 0.414077 0.711603
O O9 0.657041 0.500000 0.714973
O O10 0.762847 0.413992 0.678669
O O11 0.500000 0.697166 0.066514
O O12 0.250000 0.750000 0.061701
O O13 0.316603 0.679870 0.000000
O O14 0.828451 0.500000 0.366432
O O15 0.759495 0.586590 0.410704
O O16 0.000000 0.584535 0.366921
O O17 0.000000 0.000000 0.929917
O O18 0.826278 0.000000 0.000000
O O19 0.729479 0.580015 0.500000
O O20 0.500000 0.583843 0.446231
O O21 0.667284 0.500000 0.448303
#
# Coordination Sequence:
#
# PCOD8273560 Si02
#       7
#    16  16  16  16  16   8  16
#     4   9  17  30  46  61  82 112 142 171 206 250
#     4  12  23  33  49  73  97 120 145 177 216 258
#     4   8  14  24  37  50  64  90 124 155 188 232
#     4  10  21  38  58  76  94 118 147 179 213 250
#     4   9  15  20  27  41  59  79 104 141 187 232
#     4  11  23  37  51  67  91 123 153 179 210 251
#     4   8  13  20  28  36  48  70 101 138 180 228
#
# _framework density 15.082070999999999
#
# number of rings (size 3 to 8) (size 9 to 14) (size 15 to 20)
#    0.000    2.538    0.769    4.385    0.000    6.154 
#    0.000    3.077    0.000    0.000    0.000    0.000 
#    0.000    0.000    0.000    0.000    0.000    0.000 
#
# Total GULP energy -644527.081632 kJ/mol
# GULP energy per Si atom -12394.751570 kJ/mol
# Density = 1.504774 g / cm^3
# Si number density = 15.082071 Si / 1000 Ang^3
#
#
#
# Elastic Constant Matrix: (Units=GPa)
#
#
# Indices 1 2 3 4 5 6 
#
# 1 125.8471 34.6326 75.4718 0.0000 0.0000 0.0000
# 2 34.6326 40.9345 36.9888 0.0000 0.0000 0.0000
# 3 75.4718 36.9888 133.7802 0.0000 0.0000 0.0000
# 4 0.0000 0.0000 0.0000 5.1230 0.0000 0.0000
# 5 0.0000 0.0000 0.0000 0.0000 19.0156 0.0000
# 6 0.0000 0.0000 0.0000 0.0000 0.0000 15.3285
#
#
#
# Elastic Compliance Matrix: (Units=1/GPa)
#
#
# Indices 1 2 3 4 5 6 
#
# 1 0.012970 -0.005814 -0.005710 0.000000 0.000000 0.000000
# 2 -0.005814 0.035172 -0.006445 0.000000 0.000000 0.000000
# 3 -0.005710 -0.006445 0.012478 0.000000 0.000000 0.000000
# 4 0.000000 0.000000 0.000000 0.195198 0.000000 0.000000
# 5 0.000000 0.000000 0.000000 0.000000 0.052588 0.000000
# 6 0.000000 0.000000 0.000000 0.000000 0.000000 0.065238
#
#
# Mechanical properties :
#
#
# Convention : Reuss Voigt Hill
#
# Bulk Modulus (GPa) = 40.51342 66.08311 53.29826
# Shear Modulus (GPa) = 11.96719 18.12467 15.04593
#
# Velocity S-wave (km/s) = 2.81992 3.47037 3.16191
# Velocity P-wave (km/s) = 6.12559 7.74395 6.98182
#
# Compressibility (1/GPa) = 0.02468318
#
# Stress axis : x y z
#
# Youngs Moduli (GPa) = 77.09920 28.43189 80.14219
#
# Poissons Ratio (x) = 0.16531 0.45758
# Poissons Ratio (y) = 0.44828 0.51648
# Poissons Ratio (z) = 0.44020 0.18323
#
# Static dielectric constant tensor:
#      x y z
#    x 3.065830 0.000000 0.000000 
#    y 0.000000 3.194440 0.000000 
#    z 0.000000 0.000000 3.233390 
# 
# 
# High freq. dielectric constant tensor:
#      x y z
#    x 1.587080 0.000000 0.000000 
#    y 0.000000 1.498130 0.000000 
#    z 0.000000 0.000000 1.594180 
# 
# From -- ./inp_files/77108.got.cif
#   From: 2010.03.12/outbox.cif.g09.slc.cpg/sg65_39_cif.got.tgz:77108.got - 2010.04.10 20:52:16.
