data_PCOD8273321
_publ_section_title
;
Structure prediction by ZEFSAII (Michael W. Deem and Ramdas Pophale) SiO2 
 PCOD8273321
Probable space group: C M M M
;
_chemical_formula_sum "Si O2"
_cell_formula_units_Z 104
_cell_length_a 9.005177
_cell_length_b 20.574944
_cell_length_c 29.960514
_cell_angle_alpha 90.000000
_cell_angle_beta 90.000000
_cell_angle_gamma 90.000000
_cell_volume 5551.114368
_symmetry_space_group_name_H-M "C M M M"
_symmetry_group_IT_number 65
_symmetry_cell_setting 'orthorhombic'
loop_
_space_group_symop_operation_xyz
x,y,z
-x,-y,z
x,-y,-z
-x,y,-z
-x,-y,-z
x,y,-z
-x,y,z
x,-y,z
1/2+x,1/2+y,z
1/2-x,1/2-y,z
1/2+x,1/2-y,-z
1/2-x,1/2+y,-z
1/2-x,1/2-y,-z
1/2+x,1/2+y,-z
1/2-x,1/2+y,z
1/2+x,1/2-y,z
loop_
_atom_site_type_symbol
_atom_site_label
_atom_site_fract_x
_atom_site_fract_y
_atom_site_fract_z
Si Si1 0.836122 0.576906 0.205591
Si Si2 0.175035 0.869479 0.448410
Si Si3 0.676687 0.927505 0.303199
Si Si4 0.823273 0.313666 0.367716
Si Si5 0.165347 0.500000 0.552447
Si Si6 0.824589 0.926454 0.882122
Si Si7 0.825123 0.816207 0.948965
O O1 0.849154 0.500000 0.204556
O O2 0.767632 0.595906 0.254059
O O3 0.732243 0.600974 0.165365
O O4 0.000000 0.607798 0.199130
O O5 0.212447 0.854573 0.500000
O O6 0.256664 0.816623 0.417841
O O7 0.000000 0.869542 0.439980
O O8 0.242172 0.937917 0.432362
O O9 0.500000 0.929657 0.301471
O O10 0.732072 0.876117 0.339799
O O11 0.737230 0.000000 0.315248
O O12 0.750000 0.250000 0.345174
O O13 0.000000 0.307607 0.369387
O O14 0.145326 0.500000 0.500000
O O15 0.000000 0.500000 0.574932
O O16 0.766901 0.877821 0.920541
O O17 0.000000 0.926830 0.880323
O O18 0.765914 0.000000 0.891855
O O19 0.750000 0.750000 0.931416
O O20 0.000000 0.807497 0.943703
O O21 0.779054 0.829842 0.000000
#
# Coordination Sequence:
#
# PCOD8273321 Si02
#       7
#    16  16  16  16   8  16  16
#     4   8  14  28  51  76 101 129 164 205 251 305
#     4  10  21  37  56  79 109 141 174 216 262 306
#     4   8  16  33  57  81 101 129 172 214 252 302
#     4  11  23  38  57  79 108 140 174 216 262 314
#     4   9  17  31  53  81 109 137 171 209 251 299
#     4   9  17  29  47  73 102 128 160 206 256 303
#     4   9  18  32  48  66  93 132 173 211 252 298
#
# _framework density 18.734977000000001
#
# number of rings (size 3 to 8) (size 9 to 14) (size 15 to 20)
#    0.000    2.846    0.000    2.077    1.077    3.077 
#    0.000    3.846    0.000    5.538    0.000    4.308 
#    0.000    0.000    0.000    0.000    0.000    0.000 
#
# Total GULP energy -644540.501366 kJ/mol
# GULP energy per Si atom -12395.009642 kJ/mol
# Density = 1.869234 g / cm^3
# Si number density = 18.734977 Si / 1000 Ang^3
#
#
#
# Elastic Constant Matrix: (Units=GPa)
#
#
# Indices 1 2 3 4 5 6 
#
# 1 52.1830 35.0619 35.7347 0.0000 0.0000 0.0000
# 2 35.0619 115.5169 70.1502 0.0000 0.0000 0.0000
# 3 35.7347 70.1502 116.5647 0.0000 0.0000 0.0000
# 4 0.0000 0.0000 0.0000 16.5286 0.0000 0.0000
# 5 0.0000 0.0000 0.0000 0.0000 25.2120 0.0000
# 6 0.0000 0.0000 0.0000 0.0000 0.0000 27.7487
#
#
#
# Elastic Compliance Matrix: (Units=1/GPa)
#
#
# Indices 1 2 3 4 5 6 
#
# 1 0.025826 -0.004776 -0.005043 0.000000 0.000000 0.000000
# 2 -0.004776 0.014526 -0.007278 0.000000 0.000000 0.000000
# 3 -0.005043 -0.007278 0.014505 0.000000 0.000000 0.000000
# 4 0.000000 0.000000 0.000000 0.060501 0.000000 0.000000
# 5 0.000000 0.000000 0.000000 0.000000 0.039664 0.000000
# 6 0.000000 0.000000 0.000000 0.000000 0.000000 0.036038
#
#
# Mechanical properties :
#
#
# Convention : Reuss Voigt Hill
#
# Bulk Modulus (GPa) = 48.39603 62.90645 55.65124
# Shear Modulus (GPa) = 21.53868 23.45238 22.49553
#
# Velocity S-wave (km/s) = 3.39433 3.54191 3.46891
# Velocity P-wave (km/s) = 6.42261 7.09766 6.76856
#
# Compressibility (1/GPa) = 0.02066285
#
# Stress axis : x y z
#
# Youngs Moduli (GPa) = 38.72081 68.84208 68.94309
#
# Poissons Ratio (x) = 0.32881 0.34767
# Poissons Ratio (y) = 0.18494 0.50175
# Poissons Ratio (z) = 0.19526 0.50101
#
# Static dielectric constant tensor:
#      x y z
#    x 3.290130 0.000000 0.000000 
#    y 0.000000 3.564380 0.000000 
#    z 0.000000 0.000000 3.674680 
# 
# 
# High freq. dielectric constant tensor:
#      x y z
#    x 1.709030 0.000000 0.000000 
#    y 0.000000 1.713030 0.000000 
#    z 0.000000 0.000000 1.727030 
# 
# From -- ./inp_files/76897.got.cif
#   From: 2010.03.12/outbox.cif.g09.slc.cpg/sg65_39_cif.got.tgz:76897.got - 2010.04.10 20:52:16.
