data_PCOD8273199
_publ_section_title
;
Structure prediction by ZEFSAII (Michael W. Deem and Ramdas Pophale) SiO2 
 PCOD8273199
Probable space group: C M M M
;
_chemical_formula_sum "Si O2"
_cell_formula_units_Z 72
_cell_length_a 14.294411
_cell_length_b 13.738625
_cell_length_c 18.369519
_cell_angle_alpha 90.000000
_cell_angle_beta 90.000000
_cell_angle_gamma 90.000000
_cell_volume 3607.508135
_symmetry_space_group_name_H-M "C M M M"
_symmetry_group_IT_number 65
_symmetry_cell_setting 'orthorhombic'
loop_
_space_group_symop_operation_xyz
x,y,z
-x,-y,z
x,-y,-z
-x,y,-z
-x,-y,-z
x,y,-z
-x,y,z
x,-y,z
1/2+x,1/2+y,z
1/2-x,1/2-y,z
1/2+x,1/2-y,-z
1/2-x,1/2+y,-z
1/2-x,1/2-y,-z
1/2+x,1/2+y,-z
1/2-x,1/2+y,z
1/2+x,1/2-y,z
loop_
_atom_site_type_symbol
_atom_site_label
_atom_site_fract_x
_atom_site_fract_y
_atom_site_fract_z
Si Si1 0.607158 0.393732 0.284056
Si Si2 0.141674 0.232623 0.581768
Si Si3 0.500000 0.107479 0.414420
Si Si4 0.276185 0.110537 0.083719
Si Si5 0.388441 0.720368 0.855471
O O1 0.500000 0.410042 0.266249
O O2 0.657233 0.500000 0.276366
O O3 0.618680 0.356851 0.366222
O O4 0.642938 0.314578 0.225504
O O5 0.107020 0.206540 0.500000
O O6 0.250000 0.250000 0.582807
O O7 0.090991 0.331026 0.609967
O O8 0.500000 0.091987 0.500000
O O9 0.500000 0.000000 0.377027
O O10 0.350809 0.170035 0.132837
O O11 0.169729 0.150809 0.089891
O O12 0.278989 0.000000 0.111310
O O13 0.307180 0.118828 0.000000
O O14 0.500000 0.714273 0.870140
#
# Coordination Sequence:
#
# PCOD8273199 Si02
#       5
#    16  16   8  16  16
#     4  10  21  37  58  83 114 152 194 242 295 347
#     4  10  21  36  57  85 114 149 197 246 294 349
#     4   9  18  36  57  77 111 151 185 234 294 347
#     4  10  22  39  61  91 120 150 194 242 288 342
#     4  10  21  38  59  84 120 159 195 234 289 350
#
# _framework density 19.958375
#
# number of rings (size 3 to 8) (size 9 to 14) (size 15 to 20)
#    0.000    2.111    1.111    2.000    3.111    4.889 
#    0.000    6.667    0.000    0.000    0.000    0.000 
#    0.000    0.000    0.000    0.000    0.000    0.000 
#
# Total GULP energy -446149.397848 kJ/mol
# GULP energy per Si atom -12393.038829 kJ/mol
# Density = 1.991295 g / cm^3
# Si number density = 19.958375 Si / 1000 Ang^3
#
#
#
# Elastic Constant Matrix: (Units=GPa)
#
#
# Indices 1 2 3 4 5 6 
#
# 1 111.5255 55.5231 25.2132 0.0000 0.0000 0.0000
# 2 55.5231 180.1006 59.9468 0.0000 0.0000 0.0000
# 3 25.2132 59.9468 84.0927 0.0000 0.0000 0.0000
# 4 0.0000 0.0000 0.0000 18.9916 0.0000 0.0000
# 5 0.0000 0.0000 0.0000 0.0000 29.9305 0.0000
# 6 0.0000 0.0000 0.0000 0.0000 0.0000 18.8816
#
#
#
# Elastic Compliance Matrix: (Units=1/GPa)
#
#
# Indices 1 2 3 4 5 6 
#
# 1 0.010672 -0.002917 -0.001120 0.000000 0.000000 0.000000
# 2 -0.002917 0.008077 -0.004883 0.000000 0.000000 0.000000
# 3 -0.001120 -0.004883 0.015709 0.000000 0.000000 0.000000
# 4 0.000000 0.000000 0.000000 0.052655 0.000000 0.000000
# 5 0.000000 0.000000 0.000000 0.000000 0.033411 0.000000
# 6 0.000000 0.000000 0.000000 0.000000 0.000000 0.052962
#
#
# Mechanical properties :
#
#
# Convention : Reuss Voigt Hill
#
# Bulk Modulus (GPa) = 60.18104 73.00946 66.59525
# Shear Modulus (GPa) = 25.39802 29.22978 27.31390
#
# Velocity S-wave (km/s) = 3.57115 3.83108 3.70340
# Velocity P-wave (km/s) = 6.87189 7.49866 7.19210
#
# Compressibility (1/GPa) = 0.01661653
#
# Stress axis : x y z
#
# Youngs Moduli (GPa) = 93.70165 123.80482 63.65923
#
# Poissons Ratio (x) = 0.36117 0.07131
# Poissons Ratio (y) = 0.27335 0.31087
# Poissons Ratio (z) = 0.10496 0.60458
#
# Static dielectric constant tensor:
#      x y z
#    x 3.532260 0.000000 0.000000 
#    y 0.000000 3.847240 0.000000 
#    z 0.000000 0.000000 3.693800 
# 
# 
# High freq. dielectric constant tensor:
#      x y z
#    x 1.770170 0.000000 0.000000 
#    y 0.000000 1.782680 0.000000 
#    z 0.000000 0.000000 1.769270 
# 
# From -- ./inp_files/52733.got.cif
#   From: 2010.03.12/outbox.cif.g09.slc.cpg/sg65_27_cif.got.tgz:52733.got - 2010.04.10 20:52:16.
