data_PCOD8273239
_publ_section_title
;
Structure prediction by ZEFSAII (Michael W. Deem and Ramdas Pophale) SiO2 
 PCOD8273239
Probable space group: C M M M
;
_chemical_formula_sum "Si O2"
_cell_formula_units_Z 96
_cell_length_a 20.166846
_cell_length_b 30.490275
_cell_length_c 9.278703
_cell_angle_alpha 90.000000
_cell_angle_beta 90.000000
_cell_angle_gamma 90.000000
_cell_volume 5705.406559
_symmetry_space_group_name_H-M "C M M M"
_symmetry_group_IT_number 65
_symmetry_cell_setting 'orthorhombic'
loop_
_space_group_symop_operation_xyz
x,y,z
-x,-y,z
x,-y,-z
-x,y,-z
-x,-y,-z
x,y,-z
-x,y,z
x,-y,z
1/2+x,1/2+y,z
1/2-x,1/2-y,z
1/2+x,1/2-y,-z
1/2-x,1/2+y,-z
1/2-x,1/2-y,-z
1/2+x,1/2+y,-z
1/2-x,1/2+y,z
1/2+x,1/2-y,z
loop_
_atom_site_type_symbol
_atom_site_label
_atom_site_fract_x
_atom_site_fract_y
_atom_site_fract_z
Si Si1 0.924249 0.276242 0.166267
Si Si2 0.315125 0.276695 0.670344
Si Si3 0.722400 0.640384 0.837265
Si Si4 0.764917 0.046786 0.836307
Si Si5 0.868910 0.451965 0.332497
Si Si6 0.378784 0.869867 0.835292
O O1 0.880145 0.244750 0.263207
O O2 0.916183 0.326358 0.219262
O O3 0.000000 0.261472 0.185503
O O4 0.901192 0.272409 0.000000
O O5 0.322422 0.277311 0.500000
O O6 0.250000 0.250000 0.719923
O O7 0.310719 0.326395 0.726213
O O8 0.691970 0.591112 0.809285
O O9 0.800841 0.637562 0.810042
O O10 0.707305 0.656392 0.000000
O O11 0.705636 0.045775 0.724181
O O12 0.804678 0.000000 0.820780
O O13 0.736012 0.050677 0.000000
O O14 0.867344 0.440697 0.500000
O O15 0.902761 0.500000 0.305661
O O16 0.906387 0.411946 0.252945
O O17 0.396282 0.879190 0.000000
#
# Coordination Sequence:
#
# PCOD8273239 Si02
#       6
#    16  16  16  16  16  16
#     4  10  21  37  55  72  92 122 161 204 248 293
#     4  11  22  33  48  72 100 130 161 198 240 285
#     4   9  16  27  46  69  93 125 160 197 236 278
#     4   8  14  25  40  61  91 124 155 189 234 281
#     4   9  16  24  37  60  88 118 153 192 234 281
#     4   9  17  29  46  67  89 117 154 197 243 286
#
# _framework density 16.826145
#
# number of rings (size 3 to 8) (size 9 to 14) (size 15 to 20)
#    0.000    2.667    1.667    2.000    0.000    5.333 
#    0.000    0.000    0.000    0.500    0.000    3.500 
#    0.000    0.667    0.000    7.667    0.000    2.333 
#
# Total GULP energy -594729.845884 kJ/mol
# GULP energy per Si atom -12390.205123 kJ/mol
# Density = 1.678785 g / cm^3
# Si number density = 16.826145 Si / 1000 Ang^3
#
#
#
# Elastic Constant Matrix: (Units=GPa)
#
#
# Indices 1 2 3 4 5 6 
#
# 1 41.5983 36.4564 25.4134 0.0000 0.0000 0.0000
# 2 36.4564 148.8601 56.3006 0.0000 0.0000 0.0000
# 3 25.4134 56.3006 68.1597 0.0000 0.0000 0.0000
# 4 0.0000 0.0000 0.0000 24.4506 0.0000 0.0000
# 5 0.0000 0.0000 0.0000 0.0000 13.0269 0.0000
# 6 0.0000 0.0000 0.0000 0.0000 0.0000 9.8395
#
#
#
# Elastic Compliance Matrix: (Units=1/GPa)
#
#
# Indices 1 2 3 4 5 6 
#
# 1 0.033572 -0.005072 -0.008328 0.000000 0.000000 0.000000
# 2 -0.005072 0.010536 -0.006812 0.000000 0.000000 0.000000
# 3 -0.008328 -0.006812 0.023403 0.000000 0.000000 0.000000
# 4 0.000000 0.000000 0.000000 0.040899 0.000000 0.000000
# 5 0.000000 0.000000 0.000000 0.000000 0.076764 0.000000
# 6 0.000000 0.000000 0.000000 0.000000 0.000000 0.101631
#
#
# Mechanical properties :
#
#
# Convention : Reuss Voigt Hill
#
# Bulk Modulus (GPa) = 36.91678 54.99546 45.95612
# Shear Modulus (GPa) = 14.86950 18.82659 16.84805
#
# Velocity S-wave (km/s) = 2.97596 3.34861 3.16777
# Velocity P-wave (km/s) = 5.81345 6.90698 6.38367
#
# Compressibility (1/GPa) = 0.02708796
#
# Stress axis : x y z
#
# Youngs Moduli (GPa) = 29.78640 94.91020 42.72954
#
# Poissons Ratio (x) = 0.48142 0.35584
# Poissons Ratio (y) = 0.15109 0.29107
# Poissons Ratio (z) = 0.24805 0.64651
#
# Static dielectric constant tensor:
#      x y z
#    x 2.578130 0.000000 0.000000 
#    y 0.000000 3.754730 0.000000 
#    z 0.000000 0.000000 3.140430 
# 
# 
# High freq. dielectric constant tensor:
#      x y z
#    x 1.572870 0.000000 0.000000 
#    y 0.000000 1.673310 0.000000 
#    z 0.000000 0.000000 1.650030 
# 
# From -- ./inp_files/12230.got.cif
#   From: 2010.03.12/outbox.cif.g09.slc.cpg/sg65_7_cif.got.tgz:12230.got - 2010.04.10 20:52:16.
