data_PCOD8273861
_publ_section_title
;
Structure prediction by ZEFSAII (Michael W. Deem and Ramdas Pophale) SiO2 
 PCOD8273861
Probable space group: C M M M
;
_chemical_formula_sum "Si O2"
_cell_formula_units_Z 72
_cell_length_a 14.775873
_cell_length_b 27.010631
_cell_length_c 9.759087
_cell_angle_alpha 90.000000
_cell_angle_beta 90.000000
_cell_angle_gamma 90.000000
_cell_volume 3894.906793
_symmetry_space_group_name_H-M "C M M M"
_symmetry_group_IT_number 65
_symmetry_cell_setting 'orthorhombic'
loop_
_space_group_symop_operation_xyz
x,y,z
-x,-y,z
x,-y,-z
-x,y,-z
-x,-y,-z
x,y,-z
-x,y,z
x,-y,z
1/2+x,1/2+y,z
1/2-x,1/2-y,z
1/2+x,1/2-y,-z
1/2-x,1/2+y,-z
1/2-x,1/2-y,-z
1/2+x,1/2+y,-z
1/2-x,1/2+y,z
1/2+x,1/2-y,z
loop_
_atom_site_type_symbol
_atom_site_label
_atom_site_fract_x
_atom_site_fract_y
_atom_site_fract_z
Si Si1 0.607466 0.942279 0.500000
Si Si2 0.500000 0.182356 0.163487
Si Si3 0.000000 0.940825 0.664208
Si Si4 0.164763 0.614232 0.238544
Si Si5 0.134714 0.875940 0.835945
Si Si6 0.097913 0.556692 0.000000
Si Si7 0.500000 0.291959 0.841641
O O1 0.500000 0.935417 0.500000
O O2 0.654283 0.913943 0.621678
O O3 0.633444 0.000000 0.500000
O O4 0.590872 0.157030 0.220170
O O5 0.500000 0.237803 0.228276
O O6 0.500000 0.181661 0.000000
O O7 0.088138 0.919020 0.743898
O O8 0.000000 0.927136 0.500000
O O9 0.000000 0.000000 0.681111
O O10 0.264635 0.635173 0.216378
O O11 0.154417 0.570338 0.131129
O O12 0.087598 0.823831 0.801880
O O13 0.128321 0.888550 0.000000
O O14 0.077301 0.500000 0.000000
O O15 0.000000 0.584869 0.000000
O O16 0.500000 0.280251 0.000000
#
# Coordination Sequence:
#
# PCOD8273861 Si02
#       7
#     8   8   8  16  16   8   8
#     4  11  24  40  56  80 120 168 202 233 290 357
#     4  11  19  36  63  92 120 148 197 244 296 355
#     4  10  23  41  61  85 117 158 201 244 289 347
#     4  12  21  37  59  86 120 154 196 246 292 349
#     4  10  21  40  62  89 121 152 196 246 298 349
#     4  11  20  34  54  82 118 154 192 237 290 349
#     4   8  19  37  62  89 116 153 190 244 302 352
#
# _framework density 18.485679999999999
#
# number of rings (size 3 to 8) (size 9 to 14) (size 15 to 20)
#    0.000    1.444    4.444    1.667    1.556    5.333 
#    0.000    3.333    9.778    1.333    0.000    0.000 
#    0.000    0.000    0.000    0.000    0.000    0.000 
#
# Total GULP energy -446116.175650 kJ/mol
# GULP energy per Si atom -12392.115990 kJ/mol
# Density = 1.844361 g / cm^3
# Si number density = 18.485680 Si / 1000 Ang^3
#
#
#
# Elastic Constant Matrix: (Units=GPa)
#
#
# Indices 1 2 3 4 5 6 
#
# 1 170.4449 71.6295 50.2572 0.0000 0.0000 0.0000
# 2 71.6295 143.0443 58.9419 0.0000 0.0000 0.0000
# 3 50.2572 58.9419 134.1522 0.0000 0.0000 0.0000
# 4 0.0000 0.0000 0.0000 25.5130 0.0000 0.0000
# 5 0.0000 0.0000 0.0000 0.0000 30.2640 0.0000
# 6 0.0000 0.0000 0.0000 0.0000 0.0000 13.9775
#
#
#
# Elastic Compliance Matrix: (Units=1/GPa)
#
#
# Indices 1 2 3 4 5 6 
#
# 1 0.007653 -0.003237 -0.001445 0.000000 0.000000 0.000000
# 2 -0.003237 0.009905 -0.003139 0.000000 0.000000 0.000000
# 3 -0.001445 -0.003139 0.009375 0.000000 0.000000 0.000000
# 4 0.000000 0.000000 0.000000 0.039196 0.000000 0.000000
# 5 0.000000 0.000000 0.000000 0.000000 0.033043 0.000000
# 6 0.000000 0.000000 0.000000 0.000000 0.000000 0.071543
#
#
# Mechanical properties :
#
#
# Convention : Reuss Voigt Hill
#
# Bulk Modulus (GPa) = 88.56685 89.92209 89.24447
# Shear Modulus (GPa) = 26.29892 31.73841 29.01867
#
# Velocity S-wave (km/s) = 3.77591 4.14807 3.96636
# Velocity P-wave (km/s) = 8.18689 8.46710 8.32817
#
# Compressibility (1/GPa) = 0.01129091
#
# Stress axis : x y z
#
# Youngs Moduli (GPa) = 130.66042 100.95496 106.66802
#
# Poissons Ratio (x) = 0.32680 0.15413
# Poissons Ratio (y) = 0.42296 0.33487
# Poissons Ratio (z) = 0.18880 0.31694
#
# Static dielectric constant tensor:
#      x y z
#    x 3.589990 0.000000 0.000000 
#    y 0.000000 3.533870 0.000000 
#    z 0.000000 0.000000 3.500620 
# 
# 
# High freq. dielectric constant tensor:
#      x y z
#    x 1.724240 0.000000 0.000000 
#    y 0.000000 1.718120 0.000000 
#    z 0.000000 0.000000 1.713250 
# 
# From -- ./inp_files/7452.got.cif
#   From: 2010.03.12/outbox.cif.g09.slc.cpg/sg65_4_cif.got.tgz:7452.got - 2010.04.10 20:52:16.
