data_PCOD8273258
_publ_section_title
;
Structure prediction by ZEFSAII (Michael W. Deem and Ramdas Pophale) SiO2 
 PCOD8273258
Probable space group: C M M M
;
_chemical_formula_sum "Si O2"
_cell_formula_units_Z 112
_cell_length_a 26.936950
_cell_length_b 14.888070
_cell_length_c 15.425738
_cell_angle_alpha 90.000000
_cell_angle_beta 90.000000
_cell_angle_gamma 90.000000
_cell_volume 6186.325584
_symmetry_space_group_name_H-M "C M M M"
_symmetry_group_IT_number 65
_symmetry_cell_setting 'orthorhombic'
loop_
_space_group_symop_operation_xyz
x,y,z
-x,-y,z
x,-y,-z
-x,y,-z
-x,-y,-z
x,y,-z
-x,y,z
x,-y,z
1/2+x,1/2+y,z
1/2-x,1/2-y,z
1/2+x,1/2-y,-z
1/2-x,1/2+y,-z
1/2-x,1/2-y,-z
1/2+x,1/2+y,-z
1/2-x,1/2+y,z
1/2+x,1/2-y,z
loop_
_atom_site_type_symbol
_atom_site_label
_atom_site_fract_x
_atom_site_fract_y
_atom_site_fract_z
Si Si1 0.941281 0.000000 0.594262
Si Si2 0.196306 0.901246 0.738719
Si Si3 0.943737 0.606717 0.000000
Si Si4 0.142191 0.276603 0.306467
Si Si5 0.280676 0.101297 0.600028
Si Si6 0.243132 0.353852 0.096727
Si Si7 0.555415 0.307974 0.396740
Si Si8 0.632626 0.895780 0.142513
O O1 0.927160 0.093806 0.641427
O O2 0.915077 0.000000 0.500000
O O3 0.000000 0.000000 0.580653
O O4 0.158470 0.818353 0.735788
O O5 0.231639 0.887554 0.656600
O O6 0.226940 0.905508 0.828834
O O7 0.170120 0.000000 0.730758
O O8 0.912664 0.639997 0.916731
O O9 0.945886 0.500000 0.000000
O O10 0.000000 0.646637 0.000000
O O11 0.181942 0.321598 0.369706
O O12 0.092384 0.266467 0.361734
O O13 0.128860 0.344303 0.231480
O O14 0.266827 0.118583 0.500000
O O15 0.302572 0.000000 0.612359
O O16 0.250000 0.250000 0.117936
O O17 0.185401 0.379367 0.097296
O O18 0.263613 0.377279 0.000000
O O19 0.557090 0.311414 0.500000
O O20 0.500000 0.283929 0.364772
O O21 0.626065 0.000000 0.162403
#
# Coordination Sequence:
#
# PCOD8273258 Si02
#       8
#     8  16   8  16  16  16  16  16
#     4   7  12  28  52  74  96 125 167 221 273 318
#     4  11  23  37  52  79 116 148 184 228 270 324
#     4   9  20  38  59  84 111 137 176 229 278 326
#     4  12  22  34  54  81 112 142 183 229 269 326
#     4  10  21  37  55  75 108 154 192 223 270 327
#     4  11  20  35  59  83 110 145 184 226 272 326
#     4   9  19  35  55  78 104 137 181 231 278 321
#     4  11  21  35  57  82 108 146 184 220 272 330
#
# _framework density 18.104447
#
# number of rings (size 3 to 8) (size 9 to 14) (size 15 to 20)
#    0.000    1.714    3.571    2.571    1.000    3.143 
#    0.000    0.000    0.000    1.286    0.000    5.000 
#    0.000    0.571    0.000    0.000    0.000    0.000 
#
# Total GULP energy -694029.727140 kJ/mol
# GULP energy per Si atom -12393.387985 kJ/mol
# Density = 1.806324 g / cm^3
# Si number density = 18.104447 Si / 1000 Ang^3
#
#
#
# Elastic Constant Matrix: (Units=GPa)
#
#
# Indices 1 2 3 4 5 6 
#
# 1 64.1384 29.2010 22.2598 0.0000 0.0000 0.0000
# 2 29.2010 94.0532 31.1960 0.0000 0.0000 0.0000
# 3 22.2598 31.1960 98.0108 0.0000 0.0000 0.0000
# 4 0.0000 0.0000 0.0000 60.4721 0.0000 0.0000
# 5 0.0000 0.0000 0.0000 0.0000 29.7073 0.0000
# 6 0.0000 0.0000 0.0000 0.0000 0.0000 25.0196
#
#
#
# Elastic Compliance Matrix: (Units=1/GPa)
#
#
# Indices 1 2 3 4 5 6 
#
# 1 0.018773 -0.004935 -0.002693 0.000000 0.000000 0.000000
# 2 -0.004935 0.013185 -0.003076 0.000000 0.000000 0.000000
# 3 -0.002693 -0.003076 0.011793 0.000000 0.000000 0.000000
# 4 0.000000 0.000000 0.000000 0.016537 0.000000 0.000000
# 5 0.000000 0.000000 0.000000 0.000000 0.033662 0.000000
# 6 0.000000 0.000000 0.000000 0.000000 0.000000 0.039969
#
#
# Mechanical properties :
#
#
# Convention : Reuss Voigt Hill
#
# Bulk Modulus (GPa) = 44.75572 46.83512 45.79542
# Shear Modulus (GPa) = 30.71756 34.60950 32.66353
#
# Velocity S-wave (km/s) = 4.12355 4.37699 4.25216
# Velocity P-wave (km/s) = 6.88811 7.17424 7.03263
#
# Compressibility (1/GPa) = 0.02234351
#
# Stress axis : x y z
#
# Youngs Moduli (GPa) = 53.26860 75.84533 84.79256
#
# Poissons Ratio (x) = 0.37432 0.22832
# Poissons Ratio (y) = 0.26290 0.26080
# Poissons Ratio (z) = 0.14344 0.23328
#
# Static dielectric constant tensor:
#      x y z
#    x 3.328220 0.000000 0.000000 
#    y 0.000000 3.744120 0.000000 
#    z 0.000000 0.000000 3.332770 
# 
# 
# High freq. dielectric constant tensor:
#      x y z
#    x 1.678050 0.000000 0.000000 
#    y 0.000000 1.708480 0.000000 
#    z 0.000000 0.000000 1.699100 
# 
# From -- ./inp_files/47088.got.cif
#   From: 2010.03.12/outbox.cif.g09.slc.cpg/sg65_24_cif.got.tgz:47088.got - 2010.04.10 20:52:16.
