data_PCOD8273031
_publ_section_title
;
Structure prediction by ZEFSAII (Michael W. Deem and Ramdas Pophale) SiO2 
 PCOD8273031
Probable space group: C M M M
;
_chemical_formula_sum "Si O2"
_cell_formula_units_Z 96
_cell_length_a 9.080907
_cell_length_b 19.861433
_cell_length_c 29.437571
_cell_angle_alpha 90.000000
_cell_angle_beta 90.000000
_cell_angle_gamma 90.000000
_cell_volume 5309.355182
_symmetry_space_group_name_H-M "C M M M"
_symmetry_group_IT_number 65
_symmetry_cell_setting 'orthorhombic'
loop_
_space_group_symop_operation_xyz
x,y,z
-x,-y,z
x,-y,-z
-x,y,-z
-x,-y,-z
x,y,-z
-x,y,z
x,-y,z
1/2+x,1/2+y,z
1/2-x,1/2-y,z
1/2+x,1/2-y,-z
1/2-x,1/2+y,-z
1/2-x,1/2-y,-z
1/2+x,1/2+y,-z
1/2-x,1/2+y,z
1/2+x,1/2-y,z
loop_
_atom_site_type_symbol
_atom_site_label
_atom_site_fract_x
_atom_site_fract_y
_atom_site_fract_z
Si Si1 0.827318 0.681667 0.217923
Si Si2 0.171264 0.921379 0.718233
Si Si3 0.672656 0.817591 0.448651
Si Si4 0.329184 0.817183 0.887490
Si Si5 0.670632 0.922809 0.626324
Si Si6 0.668719 0.578042 0.051969
O O1 0.750000 0.750000 0.235153
O O2 0.759251 0.618242 0.243448
O O3 0.793586 0.669833 0.165100
O O4 0.000000 0.686988 0.228195
O O5 0.232416 0.900260 0.669102
O O6 0.000000 0.902694 0.720600
O O7 0.199102 0.000000 0.727197
O O8 0.722803 0.834986 0.500000
O O9 0.500000 0.805140 0.446131
O O10 0.750000 0.750000 0.431014
O O11 0.721253 0.879077 0.416733
O O12 0.500000 0.806916 0.896366
O O13 0.250000 0.750000 0.905209
O O14 0.274821 0.880961 0.915423
O O15 0.500000 0.910809 0.638618
O O16 0.700634 0.000000 0.613201
O O17 0.500000 0.593478 0.064707
O O18 0.704468 0.500000 0.059473
O O19 0.699561 0.598534 0.000000
#
# Coordination Sequence:
#
# PCOD8273031 Si02
#       6
#    16  16  16  16  16  16
#     4  10  21  37  56  78 105 136 172 214 259 308
#     4  10  21  36  54  77 105 137 173 212 255 306
#     4   9  18  32  50  73 100 130 165 205 250 301
#     4  10  21  36  55  79 106 137 173 214 259 307
#     4   9  18  33  52  73  99 132 169 210 254 298
#     4   9  19  36  56  78 106 140 176 214 257 305
#
# _framework density 18.081292999999999
#
# number of rings (size 3 to 8) (size 9 to 14) (size 15 to 20)
#    0.000    2.500    0.000    2.000    0.000    6.333 
#    0.000    7.500    0.000    0.000    0.000    4.667 
#    0.000    0.000    0.000    0.000    0.000    0.000 
#
# Total GULP energy -595364.492981 kJ/mol
# GULP energy per Si atom -12403.426937 kJ/mol
# Density = 1.804014 g / cm^3
# Si number density = 18.081293 Si / 1000 Ang^3
#
#
#
# Elastic Constant Matrix: (Units=GPa)
#
#
# Indices 1 2 3 4 5 6 
#
# 1 88.1561 56.3579 57.3396 0.0000 0.0000 0.0000
# 2 56.3579 98.4854 67.7549 0.0000 0.0000 0.0000
# 3 57.3396 67.7549 89.3701 0.0000 0.0000 0.0000
# 4 0.0000 0.0000 0.0000 31.3635 0.0000 0.0000
# 5 0.0000 0.0000 0.0000 0.0000 29.8203 0.0000
# 6 0.0000 0.0000 0.0000 0.0000 0.0000 36.5500
#
#
#
# Elastic Compliance Matrix: (Units=1/GPa)
#
#
# Indices 1 2 3 4 5 6 
#
# 1 0.020902 -0.005717 -0.009077 0.000000 0.000000 0.000000
# 2 -0.005717 0.022787 -0.013608 0.000000 0.000000 0.000000
# 3 -0.009077 -0.013608 0.027330 0.000000 0.000000 0.000000
# 4 0.000000 0.000000 0.000000 0.031884 0.000000 0.000000
# 5 0.000000 0.000000 0.000000 0.000000 0.033534 0.000000
# 6 0.000000 0.000000 0.000000 0.000000 0.000000 0.027360
#
#
# Mechanical properties :
#
#
# Convention : Reuss Voigt Hill
#
# Bulk Modulus (GPa) = 70.34222 70.99071 70.66647
# Shear Modulus (GPa) = 22.18898 25.85072 24.01985
#
# Velocity S-wave (km/s) = 3.50691 3.78523 3.64873
# Velocity P-wave (km/s) = 7.44216 7.64534 7.54443
#
# Compressibility (1/GPa) = 0.01421621
#
# Stress axis : x y z
#
# Youngs Moduli (GPa) = 47.84273 43.88497 36.59037
#
# Poissons Ratio (x) = 0.25087 0.33212
# Poissons Ratio (y) = 0.27350 0.49792
# Poissons Ratio (z) = 0.43425 0.59718
#
# Static dielectric constant tensor:
#      x y z
#    x 3.366360 0.000000 0.000000 
#    y 0.000000 3.347800 0.000000 
#    z 0.000000 0.000000 3.349550 
# 
# 
# High freq. dielectric constant tensor:
#      x y z
#    x 1.705200 0.000000 0.000000 
#    y 0.000000 1.702930 0.000000 
#    z 0.000000 0.000000 1.699250 
# 
# From -- ./inp_files/73068.got.cif
#   From: 2010.03.12/outbox.cif.g09.slc.cpg/sg65_37_cif.got.tgz:73068.got - 2010.04.10 20:52:16.
