data_PCOD8273315
_publ_section_title
;
Structure prediction by ZEFSAII (Michael W. Deem and Ramdas Pophale) SiO2 
 PCOD8273315
Probable space group: C M M M
;
_chemical_formula_sum "Si O2"
_cell_formula_units_Z 64
_cell_length_a 14.677038
_cell_length_b 9.524595
_cell_length_c 24.094580
_cell_angle_alpha 90.000000
_cell_angle_beta 90.000000
_cell_angle_gamma 90.000000
_cell_volume 3368.249833
_symmetry_space_group_name_H-M "C M M M"
_symmetry_group_IT_number 65
_symmetry_cell_setting 'orthorhombic'
loop_
_space_group_symop_operation_xyz
x,y,z
-x,-y,z
x,-y,-z
-x,y,-z
-x,-y,-z
x,y,-z
-x,y,z
x,-y,z
1/2+x,1/2+y,z
1/2-x,1/2-y,z
1/2+x,1/2-y,-z
1/2-x,1/2+y,-z
1/2-x,1/2-y,-z
1/2+x,1/2+y,-z
1/2-x,1/2+y,z
1/2+x,1/2-y,z
loop_
_atom_site_type_symbol
_atom_site_label
_atom_site_fract_x
_atom_site_fract_y
_atom_site_fract_z
Si Si1 0.500000 0.837416 0.802322
Si Si2 0.164636 0.335969 0.276996
Si Si3 0.608817 0.341530 0.500000
Si Si4 0.108054 0.657637 0.398609
Si Si5 0.500000 0.335989 0.086137
Si Si6 0.344867 0.664437 0.000000
O O1 0.414114 0.797116 0.765401
O O2 0.500000 0.748528 0.857563
O O3 0.500000 0.000000 0.818964
O O4 0.186232 0.500000 0.276615
O O5 0.250000 0.250000 0.254976
O O6 0.139821 0.285696 0.338993
O O7 0.646490 0.500000 0.500000
O O8 0.500000 0.340345 0.500000
O O9 0.646801 0.261749 0.445627
O O10 0.144381 0.500000 0.410007
O O11 0.000000 0.656137 0.399515
O O12 0.500000 0.500000 0.099380
O O13 0.592547 0.297013 0.053040
O O14 0.250000 0.750000 0.000000
O O15 0.320013 0.500000 0.000000
#
# Coordination Sequence:
#
# PCOD8273315 Si02
#       6
#     8  16   8  16   8   8
#     4  10  21  39  59  81 113 150 188 230 271 322
#     4  10  21  37  56  79 107 141 183 228 275 327
#     4   9  17  27  44  75 106 128 162 218 276 327
#     4   9  16  31  53  72  96 135 177 215 264 330
#     4   9  20  38  58  84 117 153 189 228 274 321
#     4   9  19  37  60  86 120 155 189 229 272 318
#
# _framework density 19.000965999999998
#
# number of rings (size 3 to 8) (size 9 to 14) (size 15 to 20)
#    0.000    2.625    1.250    1.125    0.000    5.500 
#    0.000    6.875    0.000    0.000    0.000    0.000 
#    0.000    0.000    0.000    0.000    0.000    0.000 
#
# Total GULP energy -396763.713736 kJ/mol
# GULP energy per Si atom -12398.866054 kJ/mol
# Density = 1.895772 g / cm^3
# Si number density = 19.000966 Si / 1000 Ang^3
#
#
#
# Elastic Constant Matrix: (Units=GPa)
#
#
# Indices 1 2 3 4 5 6 
#
# 1 108.3752 66.2661 72.6489 0.0000 0.0000 0.0000
# 2 66.2661 95.9359 89.5372 0.0000 0.0000 0.0000
# 3 72.6489 89.5372 175.6754 0.0000 0.0000 0.0000
# 4 0.0000 0.0000 0.0000 35.7942 0.0000 0.0000
# 5 0.0000 0.0000 0.0000 0.0000 -50.1515 0.0000
# 6 0.0000 0.0000 0.0000 0.0000 0.0000 30.9113
#
#
#
# Elastic Compliance Matrix: (Units=1/GPa)
#
#
# Indices 1 2 3 4 5 6 
#
# 1 0.016304 -0.009477 -0.001912 0.000000 0.000000 0.000000
# 2 -0.009477 0.025389 -0.009021 0.000000 0.000000 0.000000
# 3 -0.001912 -0.009021 0.011081 0.000000 0.000000 0.000000
# 4 0.000000 0.000000 0.000000 0.027937 0.000000 0.000000
# 5 0.000000 0.000000 0.000000 0.000000 -0.019940 0.000000
# 6 0.000000 0.000000 0.000000 0.000000 0.000000 0.032351
#
#
# Mechanical properties :
#
#
# Convention : Reuss Voigt Hill
#
# Bulk Modulus (GPa) = 83.65811 92.98787 88.32299
# Shear Modulus (GPa) = 36.25124 13.41310 24.83217
#
# Velocity S-wave (km/s) = 4.37265 2.65979 3.61902
# Velocity P-wave (km/s) = 8.34370 7.64705 8.00296
#
# Compressibility (1/GPa) = 0.01195341
#
# Stress axis : x y z
#
# Youngs Moduli (GPa) = 61.33606 39.38720 90.24606
#
# Poissons Ratio (x) = 0.37327 0.17256
# Poissons Ratio (y) = 0.58128 0.81411
# Poissons Ratio (z) = 0.11728 0.35531
#
# Static dielectric constant tensor:
#      x y z
#    x 3.367320 0.000000 0.000000 
#    y 0.000000 3.461080 0.000000 
#    z 0.000000 0.000000 3.495730 
# 
# 
# High freq. dielectric constant tensor:
#      x y z
#    x 1.735870 0.000000 0.000000 
#    y 0.000000 1.733230 0.000000 
#    z 0.000000 0.000000 1.739460 
# 
# From -- ./inp_files/69600.got.cif
#   From: 2010.03.12/outbox.cif.g09.slc.cpg/sg65_35_cif.got.tgz:69600.got - 2010.04.10 20:52:16.
