data_PCOD8273025
_publ_section_title
;
Structure prediction by ZEFSAII (Michael W. Deem and Ramdas Pophale) SiO2 
 PCOD8273025
Probable space group: C M M M
;
_chemical_formula_sum "Si O2"
_cell_formula_units_Z 96
_cell_length_a 9.291519
_cell_length_b 18.635187
_cell_length_c 30.293260
_cell_angle_alpha 90.000000
_cell_angle_beta 90.000000
_cell_angle_gamma 90.000000
_cell_volume 5245.253555
_symmetry_space_group_name_H-M "C M M M"
_symmetry_group_IT_number 65
_symmetry_cell_setting 'orthorhombic'
loop_
_space_group_symop_operation_xyz
x,y,z
-x,-y,z
x,-y,-z
-x,y,-z
-x,-y,-z
x,y,-z
-x,y,z
x,-y,z
1/2+x,1/2+y,z
1/2-x,1/2-y,z
1/2+x,1/2-y,-z
1/2-x,1/2+y,-z
1/2-x,1/2-y,-z
1/2+x,1/2+y,-z
1/2-x,1/2+y,z
1/2+x,1/2-y,z
loop_
_atom_site_type_symbol
_atom_site_label
_atom_site_fract_x
_atom_site_fract_y
_atom_site_fract_z
Si Si1 0.169147 0.582341 0.784447
Si Si2 0.832140 0.822067 0.950651
Si Si3 0.333397 0.678687 0.551729
Si Si4 0.668647 0.824736 0.298783
Si Si5 0.166725 0.917300 0.129905
Si Si6 0.166562 0.583192 0.615826
O O1 0.214974 0.500000 0.774855
O O2 0.220763 0.631457 0.744029
O O3 0.245606 0.612668 0.828288
O O4 0.000000 0.587961 0.791690
O O5 0.750000 0.750000 0.939319
O O6 0.781080 0.880321 0.915144
O O7 0.000000 0.805846 0.946423
O O8 0.794248 0.849950 0.000000
O O9 0.314038 0.665627 0.500000
O O10 0.500000 0.687341 0.564902
O O11 0.250000 0.750000 0.567316
O O12 0.264994 0.610182 0.575684
O O13 0.500000 0.808791 0.296666
O O14 0.750000 0.750000 0.301935
O O15 0.708690 0.873037 0.340666
O O16 0.000000 0.902673 0.139387
O O17 0.201584 0.000000 0.122913
O O18 0.200116 0.500000 0.624630
O O19 0.000000 0.594666 0.603174
#
# Coordination Sequence:
#
# PCOD8273025 Si02
#       6
#    16  16  16  16  16  16
#     4   9  18  34  54  73  97 131 167 202 245 298
#     4   9  18  32  49  69  95 128 163 200 244 292
#     4  10  21  37  57  81 110 143 178 217 261 309
#     4  10  21  36  54  77 104 134 170 211 254 302
#     4   9  18  32  50  73  99 126 160 203 247 292
#     4  10  21  37  57  80 107 140 177 217 261 309
#
# _framework density 18.30226
#
# number of rings (size 3 to 8) (size 9 to 14) (size 15 to 20)
#    0.000    2.500    0.000    1.500    0.000    8.000 
#    0.000    6.667    0.000    3.000    0.000    4.667 
#    0.000    0.000    0.000    0.000    0.000    0.000 
#
# Total GULP energy -595307.939251 kJ/mol
# GULP energy per Si atom -12402.248734 kJ/mol
# Density = 1.826060 g / cm^3
# Si number density = 18.302260 Si / 1000 Ang^3
#
#
#
# Elastic Constant Matrix: (Units=GPa)
#
#
# Indices 1 2 3 4 5 6 
#
# 1 62.5327 54.5385 57.9629 0.0000 0.0000 0.0000
# 2 54.5385 119.3510 77.1276 0.0000 0.0000 0.0000
# 3 57.9629 77.1276 121.4565 0.0000 0.0000 0.0000
# 4 0.0000 0.0000 0.0000 38.4673 0.0000 0.0000
# 5 0.0000 0.0000 0.0000 0.0000 32.2774 0.0000
# 6 0.0000 0.0000 0.0000 0.0000 0.0000 32.2200
#
#
#
# Elastic Compliance Matrix: (Units=1/GPa)
#
#
# Indices 1 2 3 4 5 6 
#
# 1 0.032891 -0.008287 -0.010434 0.000000 0.000000 0.000000
# 2 -0.008287 0.016298 -0.006395 0.000000 0.000000 0.000000
# 3 -0.010434 -0.006395 0.017274 0.000000 0.000000 0.000000
# 4 0.000000 0.000000 0.000000 0.025996 0.000000 0.000000
# 5 0.000000 0.000000 0.000000 0.000000 0.030981 0.000000
# 6 0.000000 0.000000 0.000000 0.000000 0.000000 0.031037
#
#
# Mechanical properties :
#
#
# Convention : Reuss Voigt Hill
#
# Bulk Modulus (GPa) = 61.61145 75.84427 68.72786
# Shear Modulus (GPa) = 23.79611 28.17369 25.98490
#
# Velocity S-wave (km/s) = 3.60970 3.92772 3.77206
# Velocity P-wave (km/s) = 7.14910 7.88030 7.52359
#
# Compressibility (1/GPa) = 0.01623075
#
# Stress axis : x y z
#
# Youngs Moduli (GPa) = 30.40366 61.35770 57.89149
#
# Poissons Ratio (x) = 0.50847 0.60405
# Poissons Ratio (y) = 0.25195 0.37020
# Poissons Ratio (z) = 0.31724 0.39237
#
# Static dielectric constant tensor:
#      x y z
#    x 3.336220 0.000000 0.000000 
#    y 0.000000 3.397750 0.000000 
#    z 0.000000 0.000000 3.585130 
# 
# 
# High freq. dielectric constant tensor:
#      x y z
#    x 1.703760 0.000000 0.000000 
#    y 0.000000 1.706280 0.000000 
#    z 0.000000 0.000000 1.720920 
# 
# From -- ./inp_files/73098.got.cif
#   From: 2010.03.12/outbox.cif.g09.slc.cpg/sg65_37_cif.got.tgz:73098.got - 2010.04.10 20:52:16.
