data_PCOD8273538
_publ_section_title
;
Structure prediction by ZEFSAII (Michael W. Deem and Ramdas Pophale) SiO2 
 PCOD8273538
Probable space group: C M M M
;
_chemical_formula_sum "Si O2"
_cell_formula_units_Z 104
_cell_length_a 17.299911
_cell_length_b 16.863049
_cell_length_c 18.117816
_cell_angle_alpha 90.000000
_cell_angle_beta 90.000000
_cell_angle_gamma 90.000000
_cell_volume 5285.496817
_symmetry_space_group_name_H-M "C M M M"
_symmetry_group_IT_number 65
_symmetry_cell_setting 'orthorhombic'
loop_
_space_group_symop_operation_xyz
x,y,z
-x,-y,z
x,-y,-z
-x,y,-z
-x,-y,-z
x,y,-z
-x,y,z
x,-y,z
1/2+x,1/2+y,z
1/2-x,1/2-y,z
1/2+x,1/2-y,-z
1/2-x,1/2+y,-z
1/2-x,1/2-y,-z
1/2+x,1/2+y,-z
1/2-x,1/2+y,z
1/2+x,1/2-y,z
loop_
_atom_site_type_symbol
_atom_site_label
_atom_site_fract_x
_atom_site_fract_y
_atom_site_fract_z
Si Si1 0.000000 0.906548 0.584866
Si Si2 0.132273 0.806405 0.354071
Si Si3 0.684335 0.911512 0.827398
Si Si4 0.270674 0.086717 0.336699
Si Si5 0.587516 0.147916 0.416285
Si Si6 0.303740 0.673883 0.917608
Si Si7 0.091638 0.255688 0.193355
O O1 0.073430 0.877478 0.631252
O O2 0.000000 0.875256 0.500000
O O3 0.000000 0.000000 0.585766
O O4 0.217469 0.842518 0.367529
O O5 0.115802 0.738703 0.413827
O O6 0.124941 0.767468 0.273264
O O7 0.729383 0.906504 0.750728
O O8 0.750874 0.898043 0.888423
O O9 0.617498 0.844785 0.829380
O O10 0.648651 0.000000 0.839423
O O11 0.357885 0.093616 0.366592
O O12 0.239016 0.000000 0.360592
O O13 0.591461 0.117889 0.500000
O O14 0.500000 0.141158 0.385353
O O15 0.250000 0.750000 0.917132
O O16 0.377356 0.691377 0.865564
O O17 0.333381 0.653763 0.000000
O O18 0.000000 0.252273 0.193882
#
# Coordination Sequence:
#
# PCOD8273538 Si02
#       7
#     8  16  16  16  16  16  16
#     4  11  24  40  60  86 120 160 204 261 320 370
#     4  12  21  39  62  87 119 158 206 256 308 368
#     4  10  21  37  59  90 124 158 200 248 301 361
#     4  11  24  39  60  88 118 156 203 254 305 362
#     4  11  24  41  62  88 119 160 205 249 305 372
#     4   9  19  37  62  89 119 159 203 245 294 358
#     4  11  21  36  62  93 122 161 203 248 304 366
#
# _framework density 19.676486000000001
#
# number of rings (size 3 to 8) (size 9 to 14) (size 15 to 20)
#    0.000    1.308    4.615    1.385    0.000    3.385 
#    0.000    2.308    0.000    0.000    0.000    5.385 
#    0.000    0.000    0.000    0.000    0.000    0.000 
#
# Total GULP energy -644745.114830 kJ/mol
# GULP energy per Si atom -12398.944516 kJ/mol
# Density = 1.963170 g / cm^3
# Si number density = 19.676486 Si / 1000 Ang^3
#
#
#
# Elastic Constant Matrix: (Units=GPa)
#
#
# Indices 1 2 3 4 5 6 
#
# 1 106.9650 35.1710 22.6119 0.0000 0.0000 0.0000
# 2 35.1710 78.4069 27.8130 0.0000 0.0000 0.0000
# 3 22.6119 27.8130 86.5413 0.0000 0.0000 0.0000
# 4 0.0000 0.0000 0.0000 8.6469 0.0000 0.0000
# 5 0.0000 0.0000 0.0000 0.0000 26.4835 0.0000
# 6 0.0000 0.0000 0.0000 0.0000 0.0000 30.4429
#
#
#
# Elastic Compliance Matrix: (Units=1/GPa)
#
#
# Indices 1 2 3 4 5 6 
#
# 1 0.011130 -0.004471 -0.001471 0.000000 0.000000 0.000000
# 2 -0.004471 0.016191 -0.004035 0.000000 0.000000 0.000000
# 3 -0.001471 -0.004035 0.013237 0.000000 0.000000 0.000000
# 4 0.000000 0.000000 0.000000 0.115649 0.000000 0.000000
# 5 0.000000 0.000000 0.000000 0.000000 0.037759 0.000000
# 6 0.000000 0.000000 0.000000 0.000000 0.000000 0.032848
#
#
# Mechanical properties :
#
#
# Convention : Reuss Voigt Hill
#
# Bulk Modulus (GPa) = 48.53743 49.23387 48.88565
# Shear Modulus (GPa) = 19.71329 25.53580 22.62455
#
# Velocity S-wave (km/s) = 3.16867 3.60638 3.39459
# Velocity P-wave (km/s) = 6.17321 6.51286 6.34531
#
# Compressibility (1/GPa) = 0.02060266
#
# Stress axis : x y z
#
# Youngs Moduli (GPa) = 89.84849 61.76337 75.54863
#
# Poissons Ratio (x) = 0.27612 0.11115
# Poissons Ratio (y) = 0.40168 0.30487
# Poissons Ratio (z) = 0.13219 0.24924
#
# Static dielectric constant tensor:
#      x y z
#    x 3.496340 0.000000 0.000000 
#    y 0.000000 3.686370 0.000000 
#    z 0.000000 0.000000 3.684990 
# 
# 
# High freq. dielectric constant tensor:
#      x y z
#    x 1.758510 0.000000 0.000000 
#    y 0.000000 1.767470 0.000000 
#    z 0.000000 0.000000 1.761150 
# 
# From -- ./inp_files/54593.got.cif
#   From: 2010.03.12/outbox.cif.g09.slc.cpg/sg65_28_cif.got.tgz:54593.got - 2010.04.10 20:52:16.
