data_PCOD8273128
_publ_section_title
;
Structure prediction by ZEFSAII (Michael W. Deem and Ramdas Pophale) SiO2 
 PCOD8273128
Probable space group: C M M M
;
_chemical_formula_sum "Si O2"
_cell_formula_units_Z 64
_cell_length_a 7.868467
_cell_length_b 15.023666
_cell_length_c 26.262238
_cell_angle_alpha 90.000000
_cell_angle_beta 90.000000
_cell_angle_gamma 90.000000
_cell_volume 3104.543722
_symmetry_space_group_name_H-M "C M M M"
_symmetry_group_IT_number 65
_symmetry_cell_setting 'orthorhombic'
loop_
_space_group_symop_operation_xyz
x,y,z
-x,-y,z
x,-y,-z
-x,y,-z
-x,-y,-z
x,y,-z
-x,y,z
x,-y,z
1/2+x,1/2+y,z
1/2-x,1/2-y,z
1/2+x,1/2-y,-z
1/2-x,1/2+y,-z
1/2-x,1/2-y,-z
1/2+x,1/2+y,-z
1/2-x,1/2+y,z
1/2+x,1/2-y,z
loop_
_atom_site_type_symbol
_atom_site_label
_atom_site_fract_x
_atom_site_fract_y
_atom_site_fract_z
Si Si1 0.000000 0.606219 0.057427
Si Si2 0.198208 0.500000 0.575701
Si Si3 0.699830 0.146621 0.500000
Si Si4 0.307876 0.605529 0.125978
Si Si5 0.699016 0.653542 0.237304
Si Si6 0.798497 0.000000 0.691900
O O1 0.172592 0.641612 0.084554
O O2 0.000000 0.500000 0.058539
O O3 0.000000 0.642888 0.000000
O O4 0.270008 0.590939 0.549241
O O5 0.236689 0.500000 0.634726
O O6 0.000000 0.500000 0.566086
O O7 0.500000 0.146157 0.500000
O O8 0.750000 0.250000 0.500000
O O9 0.500000 0.642259 0.114787
O O10 0.314606 0.500000 0.125951
O O11 0.232882 0.637414 0.180251
O O12 0.500000 0.639059 0.235099
O O13 0.750000 0.750000 0.257219
O O14 0.776732 0.585156 0.278181
O O15 0.000000 0.000000 0.692015
#
# Coordination Sequence:
#
# PCOD8273128 Si02
#       6
#     8   8   8  16  16   8
#     4   9  18  30  50  84 112 137 187 239 287 347
#     4   9  20  38  56  82 114 152 189 235 288 333
#     4   9  19  37  60  82 114 151 197 239 276 336
#     4   9  17  33  54  75 108 148 183 231 290 347
#     4  10  21  36  55  81 109 146 191 231 284 348
#     4  10  21  39  57  80 120 151 184 239 290 340
#
# _framework density 20.614946
#
# number of rings (size 3 to 8) (size 9 to 14) (size 15 to 20)
#    0.000    2.625    1.250    0.750    1.750    3.500 
#    0.000    8.750    0.000    0.750    0.000    0.000 
#    0.000    0.000    0.000    0.000    0.000    0.000 
#
# Total GULP energy -396568.455117 kJ/mol
# GULP energy per Si atom -12392.764222 kJ/mol
# Density = 2.056803 g / cm^3
# Si number density = 20.614946 Si / 1000 Ang^3
#
#
#
# Elastic Constant Matrix: (Units=GPa)
#
#
# Indices 1 2 3 4 5 6 
#
# 1 65.3532 28.6453 48.4126 0.0000 0.0000 0.0000
# 2 28.6453 125.5670 76.6587 0.0000 0.0000 0.0000
# 3 48.4126 76.6587 196.7789 0.0000 0.0000 0.0000
# 4 0.0000 0.0000 0.0000 7.0076 0.0000 0.0000
# 5 0.0000 0.0000 0.0000 0.0000 31.5443 0.0000
# 6 0.0000 0.0000 0.0000 0.0000 0.0000 23.1806
#
#
#
# Elastic Compliance Matrix: (Units=1/GPa)
#
#
# Indices 1 2 3 4 5 6 
#
# 1 0.019069 -0.001950 -0.003932 0.000000 0.000000 0.000000
# 2 -0.001950 0.010648 -0.003669 0.000000 0.000000 0.000000
# 3 -0.003932 -0.003669 0.007478 0.000000 0.000000 0.000000
# 4 0.000000 0.000000 0.000000 0.142703 0.000000 0.000000
# 5 0.000000 0.000000 0.000000 0.000000 0.031701 0.000000
# 6 0.000000 0.000000 0.000000 0.000000 0.000000 0.043140
#
#
# Mechanical properties :
#
#
# Convention : Reuss Voigt Hill
#
# Bulk Modulus (GPa) = 55.26351 77.23693 66.25022
# Shear Modulus (GPa) = 17.86535 27.94532 22.90534
#
# Velocity S-wave (km/s) = 2.94704 3.68582 3.33694
# Velocity P-wave (km/s) = 6.20046 7.46066 6.85956
#
# Compressibility (1/GPa) = 0.01809512
#
# Stress axis : x y z
#
# Youngs Moduli (GPa) = 52.44197 93.91158 133.71965
#
# Poissons Ratio (x) = 0.18310 0.52577
# Poissons Ratio (y) = 0.10225 0.49056
# Poissons Ratio (z) = 0.20619 0.34452
#
# Static dielectric constant tensor:
#      x y z
#    x 3.735340 0.000000 0.000000 
#    y 0.000000 3.895240 0.000000 
#    z 0.000000 0.000000 4.347140 
# 
# 
# High freq. dielectric constant tensor:
#      x y z
#    x 1.797280 0.000000 0.000000 
#    y 0.000000 1.799930 0.000000 
#    z 0.000000 0.000000 1.800830 
# 
# From -- ./inp_files/66878.got.cif
#   From: 2010.03.12/outbox.cif.g09.slc.cpg/sg65_34_cif.got.tgz:66878.got - 2010.04.10 20:52:16.
