data_PCOD8273142
_publ_section_title
;
Structure prediction by ZEFSAII (Michael W. Deem and Ramdas Pophale) SiO2 
 PCOD8273142
Probable space group: C M M M
;
_chemical_formula_sum "Si O2"
_cell_formula_units_Z 80
_cell_length_a 25.091840
_cell_length_b 18.216518
_cell_length_c 9.038709
_cell_angle_alpha 90.000000
_cell_angle_beta 90.000000
_cell_angle_gamma 90.000000
_cell_volume 4131.466935
_symmetry_space_group_name_H-M "C M M M"
_symmetry_group_IT_number 65
_symmetry_cell_setting 'orthorhombic'
loop_
_space_group_symop_operation_xyz
x,y,z
-x,-y,z
x,-y,-z
-x,y,-z
-x,-y,-z
x,y,-z
-x,y,z
x,-y,z
1/2+x,1/2+y,z
1/2-x,1/2-y,z
1/2+x,1/2-y,-z
1/2-x,1/2+y,-z
1/2-x,1/2-y,-z
1/2+x,1/2+y,-z
1/2-x,1/2+y,z
1/2+x,1/2-y,z
loop_
_atom_site_type_symbol
_atom_site_label
_atom_site_fract_x
_atom_site_fract_y
_atom_site_fract_z
Si Si1 0.439741 0.186142 0.669929
Si Si2 0.151415 0.915385 0.671931
Si Si3 0.252478 0.335841 0.172191
Si Si4 0.061629 0.165489 0.827707
Si Si5 0.656811 0.915367 0.328572
O O1 0.435390 0.211315 0.500000
O O2 0.500000 0.161639 0.709141
O O3 0.421471 0.254533 0.769201
O O4 0.401582 0.117585 0.703152
O O5 0.147732 0.896666 0.500000
O O6 0.196945 0.866429 0.742697
O O7 0.094890 0.897362 0.746153
O O8 0.165403 0.000000 0.699710
O O9 0.250000 0.250000 0.204800
O O10 0.199032 0.373436 0.229057
O O11 0.259181 0.353198 0.000000
O O12 0.000000 0.149654 0.793605
O O13 0.074759 0.162819 0.000000
O O14 0.672994 0.906347 0.500000
O O15 0.655293 0.000000 0.281667
#
# Coordination Sequence:
#
# PCOD8273142 Si02
#       5
#    16  16  16  16  16
#     4   9  18  34  57  83 112 149 190 230 273 322
#     4  11  24  40  59  84 113 145 183 228 277 329
#     4  11  24  40  59  83 110 143 185 230 276 330
#     4  10  21  37  58  84 114 148 186 228 273 324
#     4  10  21  36  55  82 115 148 184 228 277 329
#
# _framework density 19.363582999999998
#
# number of rings (size 3 to 8) (size 9 to 14) (size 15 to 20)
#    0.000    1.800    0.000    3.600    0.000   12.000 
#    0.000    4.000    0.000    0.000    0.000    4.200 
#    0.000    0.000    0.000    0.000    0.000    0.000 
#
# Total GULP energy -496221.202957 kJ/mol
# GULP energy per Si atom -12405.530074 kJ/mol
# Density = 1.931951 g / cm^3
# Si number density = 19.363583 Si / 1000 Ang^3
#
#
#
# Elastic Constant Matrix: (Units=GPa)
#
#
# Indices 1 2 3 4 5 6 
#
# 1 108.9242 59.5447 61.1837 0.0000 0.0000 0.0000
# 2 59.5447 104.0409 73.0395 0.0000 0.0000 0.0000
# 3 61.1837 73.0395 112.3311 0.0000 0.0000 0.0000
# 4 0.0000 0.0000 0.0000 18.8275 0.0000 0.0000
# 5 0.0000 0.0000 0.0000 0.0000 32.5967 0.0000
# 6 0.0000 0.0000 0.0000 0.0000 0.0000 26.2027
#
#
#
# Elastic Compliance Matrix: (Units=1/GPa)
#
#
# Indices 1 2 3 4 5 6 
#
# 1 0.014558 -0.005087 -0.004621 0.000000 0.000000 0.000000
# 2 -0.005087 0.019461 -0.009883 0.000000 0.000000 0.000000
# 3 -0.004621 -0.009883 0.017846 0.000000 0.000000 0.000000
# 4 0.000000 0.000000 0.000000 0.053114 0.000000 0.000000
# 5 0.000000 0.000000 0.000000 0.000000 0.030678 0.000000
# 6 0.000000 0.000000 0.000000 0.000000 0.000000 0.038164
#
#
# Mechanical properties :
#
#
# Convention : Reuss Voigt Hill
#
# Bulk Modulus (GPa) = 78.85834 79.20356 79.03095
# Shear Modulus (GPa) = 23.01699 24.29393 23.65546
#
# Velocity S-wave (km/s) = 3.45146 3.54590 3.49900
# Velocity P-wave (km/s) = 7.52973 7.59979 7.56484
#
# Compressibility (1/GPa) = 0.01268097
#
# Stress axis : x y z
#
# Youngs Moduli (GPa) = 68.69294 51.38356 56.03647
#
# Poissons Ratio (x) = 0.26141 0.25896
# Poissons Ratio (y) = 0.34947 0.55382
# Poissons Ratio (z) = 0.31744 0.50783
#
# Static dielectric constant tensor:
#      x y z
#    x 3.731470 0.000000 0.000000 
#    y 0.000000 3.537990 0.000000 
#    z 0.000000 0.000000 3.637440 
# 
# 
# High freq. dielectric constant tensor:
#      x y z
#    x 1.767410 0.000000 0.000000 
#    y 0.000000 1.754620 0.000000 
#    z 0.000000 0.000000 1.759620 
# 
# From -- ./inp_files/9643.got.cif
#   From: 2010.03.12/outbox.cif.g09.slc.cpg/sg65_5_cif.got.tgz:9643.got - 2010.04.10 20:52:16.
