data_PCOD8273598
_publ_section_title
;
Structure prediction by ZEFSAII (Michael W. Deem and Ramdas Pophale) SiO2 
 PCOD8273598
Probable space group: C M M M
;
_chemical_formula_sum "Si O2"
_cell_formula_units_Z 72
_cell_length_a 32.342898
_cell_length_b 13.978955
_cell_length_c 7.771430
_cell_angle_alpha 90.000000
_cell_angle_beta 90.000000
_cell_angle_gamma 90.000000
_cell_volume 3513.618277
_symmetry_space_group_name_H-M "C M M M"
_symmetry_group_IT_number 65
_symmetry_cell_setting 'orthorhombic'
loop_
_space_group_symop_operation_xyz
x,y,z
-x,-y,z
x,-y,-z
-x,y,-z
-x,-y,-z
x,y,-z
-x,y,z
x,-y,z
1/2+x,1/2+y,z
1/2-x,1/2-y,z
1/2+x,1/2-y,-z
1/2-x,1/2+y,-z
1/2-x,1/2-y,-z
1/2+x,1/2+y,-z
1/2-x,1/2+y,z
1/2+x,1/2-y,z
loop_
_atom_site_type_symbol
_atom_site_label
_atom_site_fract_x
_atom_site_fract_y
_atom_site_fract_z
Si Si1 0.165419 0.386914 0.303677
Si Si2 0.815939 0.887621 0.000000
Si Si3 0.875724 0.108404 0.696288
Si Si4 0.000000 0.396751 0.191663
Si Si5 0.224221 0.614162 0.000000
Si Si6 0.580827 0.205739 0.304138
O O1 0.175163 0.352350 0.500000
O O2 0.161420 0.500000 0.297485
O O3 0.122291 0.344288 0.233809
O O4 0.200822 0.350555 0.172772
O O5 0.839828 0.857404 0.826073
O O6 0.770386 0.839875 0.000000
O O7 0.810139 0.000000 0.000000
O O8 0.858791 0.116986 0.500000
O O9 0.914754 0.179249 0.721717
O O10 0.890303 0.000000 0.736789
O O11 0.959983 0.331475 0.215063
O O12 0.000000 0.500000 0.295496
O O13 0.000000 0.430590 0.000000
O O14 0.226559 0.500000 0.000000
O O15 0.575551 0.176600 0.500000
#
# Coordination Sequence:
#
# PCOD8273598 Si02
#       6
#    16   8  16   8   8  16
#     4   9  18  32  51  76 108 146 185 227 277 335
#     4   9  18  33  55  81 108 147 191 232 284 334
#     4   9  19  36  58  83 111 146 190 236 279 326
#     4  11  25  39  58  91 120 144 178 222 272 330
#     4   9  18  31  51  79 109 145 188 230 281 336
#     4  10  21  38  59  81 109 149 188 226 278 333
#
# _framework density 20.491698
#
# number of rings (size 3 to 8) (size 9 to 14) (size 15 to 20)
#    0.000    2.556    0.000    1.000    3.111    2.667 
#    0.000    7.222    0.000    7.333    0.000    0.000 
#    0.000    0.000    0.000    0.000    0.000    0.000 
#
# Total GULP energy -446136.163766 kJ/mol
# GULP energy per Si atom -12392.671216 kJ/mol
# Density = 2.044506 g / cm^3
# Si number density = 20.491698 Si / 1000 Ang^3
#
#
#
# Elastic Constant Matrix: (Units=GPa)
#
#
# Indices 1 2 3 4 5 6 
#
# 1 155.5155 63.5292 72.1401 0.0000 0.0000 0.0000
# 2 63.5292 81.7458 35.7090 0.0000 0.0000 0.0000
# 3 72.1401 35.7090 110.9040 0.0000 0.0000 0.0000
# 4 0.0000 0.0000 0.0000 13.7091 0.0000 0.0000
# 5 0.0000 0.0000 0.0000 0.0000 29.9223 0.0000
# 6 0.0000 0.0000 0.0000 0.0000 0.0000 35.5354
#
#
#
# Elastic Compliance Matrix: (Units=1/GPa)
#
#
# Indices 1 2 3 4 5 6 
#
# 1 0.011700 -0.006712 -0.005449 0.000000 0.000000 0.000000
# 2 -0.006712 0.018086 -0.001457 0.000000 0.000000 0.000000
# 3 -0.005449 -0.001457 0.013031 0.000000 0.000000 0.000000
# 4 0.000000 0.000000 0.000000 0.072944 0.000000 0.000000
# 5 0.000000 0.000000 0.000000 0.000000 0.033420 0.000000
# 6 0.000000 0.000000 0.000000 0.000000 0.000000 0.028141
#
#
# Mechanical properties :
#
#
# Convention : Reuss Voigt Hill
#
# Bulk Modulus (GPa) = 64.18857 76.76909 70.47883
# Shear Modulus (GPa) = 23.83756 27.61915 25.72835
#
# Velocity S-wave (km/s) = 3.41439 3.67525 3.54722
# Velocity P-wave (km/s) = 6.85100 7.45351 7.15860
#
# Compressibility (1/GPa) = 0.01557910
#
# Stress axis : x y z
#
# Youngs Moduli (GPa) = 85.46934 55.29095 76.74212
#
# Poissons Ratio (x) = 0.37113 0.41819
# Poissons Ratio (y) = 0.57370 0.11183
# Poissons Ratio (z) = 0.46575 0.08057
#
# Static dielectric constant tensor:
#      x y z
#    x 4.297530 0.000000 0.000000 
#    y 0.000000 3.755960 0.000000 
#    z 0.000000 0.000000 3.929840 
# 
# 
# High freq. dielectric constant tensor:
#      x y z
#    x 1.775050 0.000000 0.000000 
#    y 0.000000 1.813840 0.000000 
#    z 0.000000 0.000000 1.805740 
# 
# From -- ./inp_files/15809.got.cif
#   From: 2010.03.12/outbox.cif.g09.slc.cpg/sg65_8_cif.got.tgz:15809.got - 2010.04.10 20:52:16.
