data_PCOD8273904
_publ_section_title
;
Structure prediction by ZEFSAII (Michael W. Deem and Ramdas Pophale) SiO2 
 PCOD8273904
Probable space group: C M M M
;
_chemical_formula_sum "Si O2"
_cell_formula_units_Z 96
_cell_length_a 28.008213
_cell_length_b 10.855652
_cell_length_c 17.776080
_cell_angle_alpha 90.000000
_cell_angle_beta 90.000000
_cell_angle_gamma 90.000000
_cell_volume 5404.771146
_symmetry_space_group_name_H-M "C M M M"
_symmetry_group_IT_number 65
_symmetry_cell_setting 'orthorhombic'
loop_
_space_group_symop_operation_xyz
x,y,z
-x,-y,z
x,-y,-z
-x,y,-z
-x,-y,-z
x,y,-z
-x,y,z
x,-y,z
1/2+x,1/2+y,z
1/2-x,1/2-y,z
1/2+x,1/2-y,-z
1/2-x,1/2+y,-z
1/2-x,1/2-y,-z
1/2+x,1/2+y,-z
1/2-x,1/2+y,z
1/2+x,1/2-y,z
loop_
_atom_site_type_symbol
_atom_site_label
_atom_site_fract_x
_atom_site_fract_y
_atom_site_fract_z
Si Si1 0.946871 0.000000 0.825131
Si Si2 0.445686 0.299523 0.300901
Si Si3 0.785434 0.360625 0.413470
Si Si4 0.641378 0.139194 0.284339
Si Si5 0.788473 0.638957 0.000000
Si Si6 0.193943 0.247863 0.854253
Si Si7 0.056795 0.000000 0.583843
Si Si8 0.149150 0.000000 0.911108
O O1 0.941217 0.120808 0.774433
O O2 0.906674 0.000000 0.888984
O O3 0.000000 0.000000 0.862183
O O4 0.500000 0.256104 0.313642
O O5 0.413236 0.179518 0.294235
O O6 0.426355 0.378635 0.371775
O O7 0.800688 0.344794 0.500000
O O8 0.763666 0.500000 0.400561
O O9 0.750000 0.250000 0.389976
O O10 0.832471 0.344371 0.363820
O O11 0.666702 0.219139 0.221076
O O12 0.641788 0.000000 0.256322
O O13 0.750000 0.750000 0.000000
O O14 0.818715 0.658042 0.923264
O O15 0.766586 0.500000 0.000000
O O16 0.250000 0.250000 0.836057
O O17 0.177674 0.113632 0.877815
O O18 0.078848 0.000000 0.500000
O O19 0.000000 0.000000 0.582386
O O20 0.151799 0.000000 0.000000
#
# Coordination Sequence:
#
# PCOD8273904 Si02
#       8
#     8  16  16  16   8  16   8   8
#     4   9  18  38  60  80 111 143 181 238 291 330
#     4   9  18  34  55  79 109 143 178 229 287 336
#     4   9  19  38  58  78 110 148 186 231 280 331
#     4  11  22  36  54  80 108 148 193 229 276 337
#     4  10  22  36  56  78 110 149 187 229 289 340
#     4  11  24  36  56  80 117 147 188 233 282 338
#     4   8  15  30  54  81 108 137 171 220 286 346
#     4  12  23  38  61  92 111 152 193 233 291 355
#
# _framework density 17.762084000000002
#
# number of rings (size 3 to 8) (size 9 to 14) (size 15 to 20)
#    0.000    2.083    2.500    2.000    5.833    1.167 
#    4.500    0.000    0.000    0.000    0.000    4.667 
#    0.000    5.333    0.000    0.000    0.000    0.000 
#
# Total GULP energy -594983.677558 kJ/mol
# GULP energy per Si atom -12395.493282 kJ/mol
# Density = 1.772166 g / cm^3
# Si number density = 17.762084 Si / 1000 Ang^3
#
#
#
# Elastic Constant Matrix: (Units=GPa)
#
#
# Indices 1 2 3 4 5 6 
#
# 1 107.6430 56.7200 43.1286 0.0000 0.0000 0.0000
# 2 56.7200 123.5703 45.8061 0.0000 0.0000 0.0000
# 3 43.1286 45.8061 95.7203 0.0000 0.0000 0.0000
# 4 0.0000 0.0000 0.0000 21.8247 0.0000 0.0000
# 5 0.0000 0.0000 0.0000 0.0000 19.8349 0.0000
# 6 0.0000 0.0000 0.0000 0.0000 0.0000 40.4204
#
#
#
# Elastic Compliance Matrix: (Units=1/GPa)
#
#
# Indices 1 2 3 4 5 6 
#
# 1 0.013262 -0.004707 -0.003723 0.000000 0.000000 0.000000
# 2 -0.004707 0.011509 -0.003386 0.000000 0.000000 0.000000
# 3 -0.003723 -0.003386 0.013745 0.000000 0.000000 0.000000
# 4 0.000000 0.000000 0.000000 0.045820 0.000000 0.000000
# 5 0.000000 0.000000 0.000000 0.000000 0.050416 0.000000
# 6 0.000000 0.000000 0.000000 0.000000 0.000000 0.024740
#
#
# Mechanical properties :
#
#
# Convention : Reuss Voigt Hill
#
# Bulk Modulus (GPa) = 67.19268 68.69366 67.94317
# Shear Modulus (GPa) = 26.58368 28.50124 27.54246
#
# Velocity S-wave (km/s) = 3.87286 4.01011 3.94208
# Velocity P-wave (km/s) = 7.60987 7.75884 7.68471
#
# Compressibility (1/GPa) = 0.01488257
#
# Stress axis : x y z
#
# Youngs Moduli (GPa) = 75.40349 86.89170 72.75393
#
# Poissons Ratio (x) = 0.40903 0.27084
# Poissons Ratio (y) = 0.35495 0.24637
# Poissons Ratio (z) = 0.28071 0.29424
#
# Static dielectric constant tensor:
#      x y z
#    x 3.142080 0.000000 0.000000 
#    y 0.000000 4.241690 0.000000 
#    z 0.000000 0.000000 3.591270 
# 
# 
# High freq. dielectric constant tensor:
#      x y z
#    x 1.665430 0.000000 0.000000 
#    y 0.000000 1.689300 0.000000 
#    z 0.000000 0.000000 1.696660 
# 
# From -- ./inp_files/57526.got.cif
#   From: 2010.03.12/outbox.cif.g09.slc.cpg/sg65_29_cif.got.tgz:57526.got - 2010.04.10 20:52:16.
