data_PCOD8273698
_publ_section_title
;
Structure prediction by ZEFSAII (Michael W. Deem and Ramdas Pophale) SiO2 
 PCOD8273698
Probable space group: C M M M
;
_chemical_formula_sum "Si O2"
_cell_formula_units_Z 88
_cell_length_a 8.653980
_cell_length_b 23.182129
_cell_length_c 22.453386
_cell_angle_alpha 90.000000
_cell_angle_beta 90.000000
_cell_angle_gamma 90.000000
_cell_volume 4504.546224
_symmetry_space_group_name_H-M "C M M M"
_symmetry_group_IT_number 65
_symmetry_cell_setting 'orthorhombic'
loop_
_space_group_symop_operation_xyz
x,y,z
-x,-y,z
x,-y,-z
-x,y,-z
-x,-y,-z
x,y,-z
-x,y,z
x,-y,z
1/2+x,1/2+y,z
1/2-x,1/2-y,z
1/2+x,1/2-y,-z
1/2-x,1/2+y,-z
1/2-x,1/2-y,-z
1/2+x,1/2+y,-z
1/2-x,1/2+y,z
1/2+x,1/2-y,z
loop_
_atom_site_type_symbol
_atom_site_label
_atom_site_fract_x
_atom_site_fract_y
_atom_site_fract_z
Si Si1 0.318798 0.877910 0.828823
Si Si2 0.317935 0.687797 0.721903
Si Si3 0.319034 0.311356 0.068924
Si Si4 0.682278 0.500000 0.355397
Si Si5 0.180114 0.500000 0.225053
Si Si6 0.183186 0.617684 0.614948
Si Si7 0.817211 0.686817 0.500000
O O1 0.500000 0.867127 0.821322
O O2 0.227651 0.833334 0.787194
O O3 0.263978 0.863216 0.895548
O O4 0.275419 0.943959 0.813807
O O5 0.500000 0.690198 0.714846
O O6 0.250000 0.750000 0.708029
O O7 0.248060 0.643243 0.675564
O O8 0.500000 0.311182 0.082581
O O9 0.250000 0.250000 0.089192
O O10 0.282933 0.323003 0.000000
O O11 0.500000 0.500000 0.360778
O O12 0.725474 0.500000 0.285903
O O13 0.751876 0.553709 0.390904
O O14 0.000000 0.500000 0.242030
O O15 0.242988 0.653900 0.558496
O O16 0.000000 0.616274 0.618346
O O17 0.750000 0.750000 0.500000
O O18 0.000000 0.690529 0.500000
#
# Coordination Sequence:
#
# PCOD8273698 Si02
#       7
#    16  16  16   8   8  16   8
#     4  11  22  38  61  88 118 157 201 249 304 359
#     4  12  24  38  58  88 121 156 199 248 305 364
#     4  10  21  38  60  87 121 160 201 249 303 359
#     4  12  24  39  63  93 122 160 203 251 304 359
#     4  10  22  40  62  86 120 161 200 248 304 359
#     4  11  23  42  64  89 122 160 202 250 303 362
#     4  10  24  43  66  91 121 162 202 248 307 364
#
# _framework density 19.535820000000001
#
# number of rings (size 3 to 8) (size 9 to 14) (size 15 to 20)
#    0.000    1.091    1.818    5.182    0.000    5.091 
#    0.000    2.273    0.000    2.727    0.000    0.000 
#    0.000    0.000    0.000    0.000    0.000    0.000 
#
# Total GULP energy -545891.100238 kJ/mol
# GULP energy per Si atom -12406.615914 kJ/mol
# Density = 1.949136 g / cm^3
# Si number density = 19.535820 Si / 1000 Ang^3
#
#
#
# Elastic Constant Matrix: (Units=GPa)
#
#
# Indices 1 2 3 4 5 6 
#
# 1 102.5648 54.9441 33.6781 0.0000 0.0000 0.0000
# 2 54.9441 140.3953 53.7900 0.0000 0.0000 0.0000
# 3 33.6781 53.7900 98.5060 0.0000 0.0000 0.0000
# 4 0.0000 0.0000 0.0000 39.0131 0.0000 0.0000
# 5 0.0000 0.0000 0.0000 0.0000 23.3774 0.0000
# 6 0.0000 0.0000 0.0000 0.0000 0.0000 34.1826
#
#
#
# Elastic Compliance Matrix: (Units=1/GPa)
#
#
# Indices 1 2 3 4 5 6 
#
# 1 0.012656 -0.004167 -0.002052 0.000000 0.000000 0.000000
# 2 -0.004167 0.010379 -0.004243 0.000000 0.000000 0.000000
# 3 -0.002052 -0.004243 0.013170 0.000000 0.000000 0.000000
# 4 0.000000 0.000000 0.000000 0.025632 0.000000 0.000000
# 5 0.000000 0.000000 0.000000 0.000000 0.042776 0.000000
# 6 0.000000 0.000000 0.000000 0.000000 0.000000 0.029255
#
#
# Mechanical properties :
#
#
# Convention : Reuss Voigt Hill
#
# Bulk Modulus (GPa) = 65.43601 69.58783 67.51192
# Shear Modulus (GPa) = 31.27246 32.58486 31.92866
#
# Velocity S-wave (km/s) = 4.00531 4.08849 4.04711
# Velocity P-wave (km/s) = 7.41337 7.61483 7.51478
#
# Compressibility (1/GPa) = 0.01528210
#
# Stress axis : x y z
#
# Youngs Moduli (GPa) = 79.01541 96.34763 75.93027
#
# Poissons Ratio (x) = 0.40147 0.15577
# Poissons Ratio (y) = 0.32925 0.32217
# Poissons Ratio (z) = 0.16210 0.40880
#
# Static dielectric constant tensor:
#      x y z
#    x 3.620250 0.000000 0.000000 
#    y 0.000000 3.756250 0.000000 
#    z 0.000000 0.000000 3.620270 
# 
# 
# High freq. dielectric constant tensor:
#      x y z
#    x 1.772160 0.000000 0.000000 
#    y 0.000000 1.770540 0.000000 
#    z 0.000000 0.000000 1.762650 
# 
# From -- ./inp_files/59857.got.cif
#   From: 2010.03.12/outbox.cif.g09.slc.cpg/sg65_30_cif.got.tgz:59857.got - 2010.04.10 20:52:16.
