data_PCOD8273967
_publ_section_title
;
Structure prediction by ZEFSAII (Michael W. Deem and Ramdas Pophale) SiO2 
 PCOD8273967
Probable space group: C M M M
;
_chemical_formula_sum "Si O2"
_cell_formula_units_Z 56
_cell_length_a 18.760552
_cell_length_b 9.971726
_cell_length_c 14.075136
_cell_angle_alpha 90.000000
_cell_angle_beta 90.000000
_cell_angle_gamma 90.000000
_cell_volume 2633.107252
_symmetry_space_group_name_H-M "C M M M"
_symmetry_group_IT_number 65
_symmetry_cell_setting 'orthorhombic'
loop_
_space_group_symop_operation_xyz
x,y,z
-x,-y,z
x,-y,-z
-x,y,-z
-x,-y,-z
x,y,-z
-x,y,z
x,-y,z
1/2+x,1/2+y,z
1/2-x,1/2-y,z
1/2+x,1/2-y,-z
1/2-x,1/2+y,-z
1/2-x,1/2-y,-z
1/2+x,1/2+y,-z
1/2-x,1/2+y,z
1/2+x,1/2-y,z
loop_
_atom_site_type_symbol
_atom_site_label
_atom_site_fract_x
_atom_site_fract_y
_atom_site_fract_z
Si Si1 0.916264 0.000000 0.891550
Si Si2 0.083956 0.261083 0.228079
Si Si3 0.196217 0.644712 0.894308
Si Si4 0.181890 0.342720 0.390169
O O1 0.893477 0.125774 0.827119
O O2 0.000000 0.000000 0.904542
O O3 0.883052 0.000000 0.000000
O O4 0.123363 0.373011 0.164763
O O5 0.115660 0.275583 0.333982
O O6 0.000000 0.285323 0.232675
O O7 0.234483 0.500000 0.896530
O O8 0.250000 0.750000 0.844811
O O9 0.176888 0.694867 0.000000
O O10 0.160758 0.333664 0.500000
O O11 0.195641 0.500000 0.361827
O O12 0.250000 0.250000 0.367847
#
# Coordination Sequence:
#
# PCOD8273967 Si02
#       4
#     8  16  16  16
#     4   9  20  38  59  89 129 171 211 252 310 380
#     4  11  23  38  61  92 125 165 208 258 319 380
#     4  10  22  38  58  85 117 158 206 255 308 368
#     4  10  23  43  68  96 126 166 214 265 323 385
#
# _framework density 21.267648000000001
#
# number of rings (size 3 to 8) (size 9 to 14) (size 15 to 20)
#    0.000    1.857    0.000    2.571    4.000    4.571 
#    0.000    2.857    0.000    2.571    0.000    0.000 
#    0.000    0.000    0.000    0.000    0.000    0.000 
#
# Total GULP energy -346888.135311 kJ/mol
# GULP energy per Si atom -12388.861975 kJ/mol
# Density = 2.121924 g / cm^3
# Si number density = 21.267648 Si / 1000 Ang^3
#
#
#
# Elastic Constant Matrix: (Units=GPa)
#
#
# Indices 1 2 3 4 5 6 
#
# 1 139.4845 59.0019 65.2452 0.0000 0.0000 0.0000
# 2 59.0019 139.6512 56.4864 0.0000 0.0000 0.0000
# 3 65.2452 56.4864 137.8928 0.0000 0.0000 0.0000
# 4 0.0000 0.0000 0.0000 23.4341 0.0000 0.0000
# 5 0.0000 0.0000 0.0000 0.0000 38.2929 0.0000
# 6 0.0000 0.0000 0.0000 0.0000 0.0000 30.6919
#
#
#
# Elastic Compliance Matrix: (Units=1/GPa)
#
#
# Indices 1 2 3 4 5 6 
#
# 1 0.010033 -0.002779 -0.003609 0.000000 0.000000 0.000000
# 2 -0.002779 0.009353 -0.002516 0.000000 0.000000 0.000000
# 3 -0.003609 -0.002516 0.009990 0.000000 0.000000 0.000000
# 4 0.000000 0.000000 0.000000 0.042673 0.000000 0.000000
# 5 0.000000 0.000000 0.000000 0.000000 0.026114 0.000000
# 6 0.000000 0.000000 0.000000 0.000000 0.000000 0.032582
#
#
# Mechanical properties :
#
#
# Convention : Reuss Voigt Hill
#
# Bulk Modulus (GPa) = 86.44852 86.49951 86.47401
# Shear Modulus (GPa) = 32.80647 34.23678 33.52163
#
# Velocity S-wave (km/s) = 3.93180 4.01659 3.97442
# Velocity P-wave (km/s) = 7.83251 7.89119 7.86190
#
# Compressibility (1/GPa) = 0.01156758
#
# Stress axis : x y z
#
# Youngs Moduli (GPa) = 99.67276 106.92152 100.09781
#
# Poissons Ratio (x) = 0.29715 0.36122
# Poissons Ratio (y) = 0.27701 0.25187
# Poissons Ratio (z) = 0.35969 0.26904
#
# Static dielectric constant tensor:
#      x y z
#    x 3.590000 0.000000 0.000000 
#    y 0.000000 4.171920 0.000000 
#    z 0.000000 0.000000 3.980980 
# 
# 
# High freq. dielectric constant tensor:
#      x y z
#    x 1.821590 0.000000 0.000000 
#    y 0.000000 1.847600 0.000000 
#    z 0.000000 0.000000 1.842410 
# 
# From -- ./inp_files/43554.got.cif
#   From: 2010.03.12/outbox.cif.g09.slc.cpg/sg65_22_cif.got.tgz:43554.got - 2010.04.10 20:52:16.
