data_PCOD8273879
_publ_section_title
;
Structure prediction by ZEFSAII (Michael W. Deem and Ramdas Pophale) SiO2 
 PCOD8273879
Probable space group: C M M M
;
_chemical_formula_sum "Si O2"
_cell_formula_units_Z 56
_cell_length_a 22.708260
_cell_length_b 16.830105
_cell_length_c 7.455478
_cell_angle_alpha 90.000000
_cell_angle_beta 90.000000
_cell_angle_gamma 90.000000
_cell_volume 2849.352476
_symmetry_space_group_name_H-M "C M M M"
_symmetry_group_IT_number 65
_symmetry_cell_setting 'orthorhombic'
loop_
_space_group_symop_operation_xyz
x,y,z
-x,-y,z
x,-y,-z
-x,y,-z
-x,-y,-z
x,y,-z
-x,y,z
x,-y,z
1/2+x,1/2+y,z
1/2-x,1/2-y,z
1/2+x,1/2-y,-z
1/2-x,1/2+y,-z
1/2-x,1/2-y,-z
1/2+x,1/2+y,-z
1/2-x,1/2+y,z
1/2+x,1/2-y,z
loop_
_atom_site_type_symbol
_atom_site_label
_atom_site_fract_x
_atom_site_fract_y
_atom_site_fract_z
Si Si1 0.929829 0.772996 0.000000
Si Si2 0.164241 0.092526 0.000000
Si Si3 0.250213 0.157153 0.293549
Si Si4 0.432212 0.000000 0.195765
Si Si5 0.380921 0.841419 0.700055
O O1 0.896275 0.857243 0.000000
O O2 0.911144 0.723662 0.825337
O O3 0.000000 0.787703 0.000000
O O4 0.202167 0.111870 0.823838
O O5 0.146974 0.000000 0.000000
O O6 0.235869 0.137098 0.500000
O O7 0.250000 0.250000 0.253304
O O8 0.315907 0.131342 0.236927
O O9 0.417759 0.078252 0.307452
O O10 0.500000 0.000000 0.158929
O O11 0.400315 0.000000 0.000000
O O12 0.377783 0.803968 0.500000
#
# Coordination Sequence:
#
# PCOD8273879 Si02
#       5
#     8   8  16   8  16
#     4  12  25  43  64  86 118 164 221 267 303 363
#     4  12  26  41  64  94 126 166 205 259 325 367
#     4  10  21  40  66  94 122 153 200 255 307 372
#     4  11  23  37  55  88 133 171 200 240 293 365
#     4  11  23  39  63  93 124 163 205 250 308 370
#
# _framework density 19.653590000000001
#
# number of rings (size 3 to 8) (size 9 to 14) (size 15 to 20)
#    0.000    1.000    4.286    2.571    2.000    3.714 
#    0.000    0.000    0.000    0.000    0.000    4.000 
#    0.000    0.000    0.000    0.000    0.000    0.000 
#
# Total GULP energy -347186.083953 kJ/mol
# GULP energy per Si atom -12399.502998 kJ/mol
# Density = 1.960886 g / cm^3
# Si number density = 19.653590 Si / 1000 Ang^3
#
#
#
# Elastic Constant Matrix: (Units=GPa)
#
#
# Indices 1 2 3 4 5 6 
#
# 1 138.6742 64.4908 60.9921 0.0000 0.0000 0.0000
# 2 64.4908 139.0016 43.6476 0.0000 0.0000 0.0000
# 3 60.9921 43.6476 111.3965 0.0000 0.0000 0.0000
# 4 0.0000 0.0000 0.0000 20.1381 0.0000 0.0000
# 5 0.0000 0.0000 0.0000 0.0000 23.7343 0.0000
# 6 0.0000 0.0000 0.0000 0.0000 0.0000 32.1196
#
#
#
# Elastic Compliance Matrix: (Units=1/GPa)
#
#
# Indices 1 2 3 4 5 6 
#
# 1 0.010898 -0.003629 -0.004545 0.000000 0.000000 0.000000
# 2 -0.003629 0.009412 -0.001701 0.000000 0.000000 0.000000
# 3 -0.004545 -0.001701 0.012132 0.000000 0.000000 0.000000
# 4 0.000000 0.000000 0.000000 0.049657 0.000000 0.000000
# 5 0.000000 0.000000 0.000000 0.000000 0.042133 0.000000
# 6 0.000000 0.000000 0.000000 0.000000 0.000000 0.031134
#
#
# Mechanical properties :
#
#
# Convention : Reuss Voigt Hill
#
# Bulk Modulus (GPa) = 78.78915 80.81480 79.80198
# Shear Modulus (GPa) = 27.87920 29.86121 28.87020
#
# Velocity S-wave (km/s) = 3.77042 3.90215 3.83685
# Velocity P-wave (km/s) = 7.68965 7.84291 7.76666
#
# Compressibility (1/GPa) = 0.01269210
#
# Stress axis : x y z
#
# Youngs Moduli (GPa) = 91.76222 106.24818 82.42814
#
# Poissons Ratio (x) = 0.38557 0.37462
# Poissons Ratio (y) = 0.33300 0.14020
# Poissons Ratio (z) = 0.41704 0.18071
#
# Static dielectric constant tensor:
#      x y z
#    x 3.981280 0.000000 0.000000 
#    y 0.000000 3.450180 0.000000 
#    z 0.000000 0.000000 3.807400 
# 
# 
# High freq. dielectric constant tensor:
#      x y z
#    x 1.766500 0.000000 0.000000 
#    y 0.000000 1.749330 0.000000 
#    z 0.000000 0.000000 1.782190 
# 
# From -- ./inp_files/10695.got.cif
#   From: 2010.03.12/outbox.cif.g09.slc.cpg/sg65_6_cif.got.tgz:10695.got - 2010.04.10 20:52:16.
