data_PCOD8273716
_publ_section_title
;
Structure prediction by ZEFSAII (Michael W. Deem and Ramdas Pophale) SiO2 
 PCOD8273716
Probable space group: C M M M
;
_chemical_formula_sum "Si O2"
_cell_formula_units_Z 64
_cell_length_a 18.586063
_cell_length_b 8.676217
_cell_length_c 20.245744
_cell_angle_alpha 90.000000
_cell_angle_beta 90.000000
_cell_angle_gamma 90.000000
_cell_volume 3264.762186
_symmetry_space_group_name_H-M "C M M M"
_symmetry_group_IT_number 65
_symmetry_cell_setting 'orthorhombic'
loop_
_space_group_symop_operation_xyz
x,y,z
-x,-y,z
x,-y,-z
-x,y,-z
-x,-y,-z
x,y,-z
-x,y,z
x,-y,z
1/2+x,1/2+y,z
1/2-x,1/2-y,z
1/2+x,1/2-y,-z
1/2-x,1/2+y,-z
1/2-x,1/2-y,-z
1/2+x,1/2+y,-z
1/2-x,1/2+y,z
1/2+x,1/2-y,z
loop_
_atom_site_type_symbol
_atom_site_label
_atom_site_fract_x
_atom_site_fract_y
_atom_site_fract_z
Si Si1 0.080602 0.683231 0.426829
Si Si2 0.326001 0.819819 0.923346
Si Si3 0.171704 0.681697 0.694521
Si Si4 0.583983 0.320834 0.187382
O O1 0.105567 0.737736 0.500000
O O2 0.079596 0.500000 0.423533
O O3 0.134969 0.750238 0.372011
O O4 0.000000 0.745330 0.412373
O O5 0.250000 0.750000 0.900522
O O6 0.389229 0.735672 0.883921
O O7 0.325735 0.000000 0.907198
O O8 0.340343 0.786194 0.000000
O O9 0.178342 0.500000 0.690051
O O10 0.250000 0.750000 0.703255
O O11 0.123444 0.724206 0.756645
O O12 0.500000 0.286018 0.192326
O O13 0.601528 0.500000 0.196543
#
# Coordination Sequence:
#
# PCOD8273716 Si02
#       4
#    16  16  16  16
#     4   8  15  30  53  80 108 140 181 227 274 325
#     4  10  21  38  61  87 115 147 183 224 270 323
#     4  11  22  36  56  81 111 147 186 229 276 327
#     4  11  24  40  58  81 111 146 184 229 278 328
#
# _framework density 19.603263999999999
#
# number of rings (size 3 to 8) (size 9 to 14) (size 15 to 20)
#    0.000    2.000    0.000    4.500    0.000    5.500 
#    0.000    2.500    0.000    2.250    0.000    8.750 
#    0.000    0.000    0.000    0.000    0.000    0.000 
#
# Total GULP energy -396872.843317 kJ/mol
# GULP energy per Si atom -12402.276354 kJ/mol
# Density = 1.955865 g / cm^3
# Si number density = 19.603264 Si / 1000 Ang^3
#
#
#
# Elastic Constant Matrix: (Units=GPa)
#
#
# Indices 1 2 3 4 5 6 
#
# 1 120.6371 40.5522 66.9339 0.0000 0.0000 0.0000
# 2 40.5522 55.2831 27.1166 0.0000 0.0000 0.0000
# 3 66.9339 27.1166 114.4779 0.0000 0.0000 0.0000
# 4 0.0000 0.0000 0.0000 11.6939 0.0000 0.0000
# 5 0.0000 0.0000 0.0000 0.0000 44.6611 0.0000
# 6 0.0000 0.0000 0.0000 0.0000 0.0000 18.8936
#
#
#
# Elastic Compliance Matrix: (Units=1/GPa)
#
#
# Indices 1 2 3 4 5 6 
#
# 1 0.014489 -0.007324 -0.006737 0.000000 0.000000 0.000000
# 2 -0.007324 0.024169 -0.001443 0.000000 0.000000 0.000000
# 3 -0.006737 -0.001443 0.013016 0.000000 0.000000 0.000000
# 4 0.000000 0.000000 0.000000 0.085514 0.000000 0.000000
# 5 0.000000 0.000000 0.000000 0.000000 0.022391 0.000000
# 6 0.000000 0.000000 0.000000 0.000000 0.000000 0.052928
#
#
# Mechanical properties :
#
#
# Convention : Reuss Voigt Hill
#
# Bulk Modulus (GPa) = 48.38624 62.17817 55.28220
# Shear Modulus (GPa) = 19.96786 25.43609 22.70197
#
# Velocity S-wave (km/s) = 3.19501 3.60605 3.40674
# Velocity P-wave (km/s) = 6.19251 7.00894 6.61333
#
# Compressibility (1/GPa) = 0.02066703
#
# Stress axis : x y z
#
# Youngs Moduli (GPa) = 69.01774 41.37593 76.82870
#
# Poissons Ratio (x) = 0.30303 0.51758
# Poissons Ratio (y) = 0.50547 0.11084
# Poissons Ratio (z) = 0.46496 0.05969
#
# Static dielectric constant tensor:
#      x y z
#    x 3.514440 0.000000 0.000000 
#    y 0.000000 3.428690 0.000000 
#    z 0.000000 0.000000 3.841540 
# 
# 
# High freq. dielectric constant tensor:
#      x y z
#    x 1.766690 0.000000 0.000000 
#    y 0.000000 1.749700 0.000000 
#    z 0.000000 0.000000 1.779640 
# 
# From -- ./inp_files/49034.got.cif
#   From: 2010.03.12/outbox.cif.g09.slc.cpg/sg65_25_cif.got.tgz:49034.got - 2010.04.10 20:52:16.
