data_PCOD8273653
_publ_section_title
;
Structure prediction by ZEFSAII (Michael W. Deem and Ramdas Pophale) SiO2 
 PCOD8273653
Probable space group: C M M M
;
_chemical_formula_sum "Si O2"
_cell_formula_units_Z 72
_cell_length_a 8.652550
_cell_length_b 18.675807
_cell_length_c 23.121087
_cell_angle_alpha 90.000000
_cell_angle_beta 90.000000
_cell_angle_gamma 90.000000
_cell_volume 3736.213993
_symmetry_space_group_name_H-M "C M M M"
_symmetry_group_IT_number 65
_symmetry_cell_setting 'orthorhombic'
loop_
_space_group_symop_operation_xyz
x,y,z
-x,-y,z
x,-y,-z
-x,y,-z
-x,-y,-z
x,y,-z
-x,y,z
x,-y,z
1/2+x,1/2+y,z
1/2-x,1/2-y,z
1/2+x,1/2-y,-z
1/2-x,1/2+y,-z
1/2-x,1/2-y,-z
1/2+x,1/2+y,-z
1/2-x,1/2+y,z
1/2+x,1/2-y,z
loop_
_atom_site_type_symbol
_atom_site_label
_atom_site_fract_x
_atom_site_fract_y
_atom_site_fract_z
Si Si1 0.819183 0.083068 0.604757
Si Si2 0.182819 0.328943 0.500000
Si Si3 0.816267 0.080207 0.064051
Si Si4 0.179020 0.583494 0.727432
Si Si5 0.682192 0.328131 0.169764
O O1 0.739288 0.129889 0.556281
O O2 0.744107 0.105675 0.665241
O O3 0.000000 0.100023 0.606605
O O4 0.787598 0.000000 0.590982
O O5 0.250000 0.250000 0.500000
O O6 0.000000 0.325176 0.500000
O O7 0.748416 0.133796 0.112278
O O8 0.000000 0.079262 0.067100
O O9 0.753833 0.000000 0.076373
O O10 0.762077 0.105391 0.000000
O O11 0.206083 0.500000 0.739063
O O12 0.274166 0.626328 0.774616
O O13 0.000000 0.604586 0.730773
O O14 0.500000 0.322576 0.165602
O O15 0.750000 0.250000 0.175243
#
# Coordination Sequence:
#
# PCOD8273653 Si02
#       5
#    16   8  16  16  16
#     4  10  21  39  63  89 116 147 186 230 276 329
#     4  12  25  40  59  85 119 155 191 230 277 330
#     4   8  15  30  53  79 105 137 181 230 277 328
#     4  10  21  38  60  85 112 143 183 231 280 330
#     4  11  22  35  53  79 112 149 187 227 276 332
#
# _framework density 19.270845000000001
#
# number of rings (size 3 to 8) (size 9 to 14) (size 15 to 20)
#    0.000    2.000    0.000    4.667    0.000    6.222 
#    0.000    4.444    0.000    2.000    0.000    7.778 
#    0.000    0.000    0.000    0.000    0.000    0.000 
#
# Total GULP energy -446464.008055 kJ/mol
# GULP energy per Si atom -12401.778002 kJ/mol
# Density = 1.922698 g / cm^3
# Si number density = 19.270845 Si / 1000 Ang^3
#
#
#
# Elastic Constant Matrix: (Units=GPa)
#
#
# Indices 1 2 3 4 5 6 
#
# 1 62.1532 34.7140 29.5933 0.0000 0.0000 0.0000
# 2 34.7140 82.5886 74.5276 0.0000 0.0000 0.0000
# 3 29.5933 74.5276 148.2628 0.0000 0.0000 0.0000
# 4 0.0000 0.0000 0.0000 -37.2240 0.0000 0.0000
# 5 0.0000 0.0000 0.0000 0.0000 19.4432 0.0000
# 6 0.0000 0.0000 0.0000 0.0000 0.0000 19.1157
#
#
#
# Elastic Compliance Matrix: (Units=1/GPa)
#
#
# Indices 1 2 3 4 5 6 
#
# 1 0.021042 -0.009250 0.000450 0.000000 0.000000 0.000000
# 2 -0.009250 0.026227 -0.011337 0.000000 0.000000 0.000000
# 3 0.000450 -0.011337 0.012354 0.000000 0.000000 0.000000
# 4 0.000000 0.000000 0.000000 -0.026864 0.000000 0.000000
# 5 0.000000 0.000000 0.000000 0.000000 0.051432 0.000000
# 6 0.000000 0.000000 0.000000 0.000000 0.000000 0.052313
#
#
# Mechanical properties :
#
#
# Convention : Reuss Voigt Hill
#
# Bulk Modulus (GPa) = 51.68683 63.40826 57.54754
# Shear Modulus (GPa) = 27.28849 10.54494 18.91671
#
# Velocity S-wave (km/s) = 3.76713 2.34176 3.13649
# Velocity P-wave (km/s) = 6.76765 6.34720 6.56080
#
# Compressibility (1/GPa) = 0.01934729
#
# Stress axis : x y z
#
# Youngs Moduli (GPa) = 47.52497 38.12860 80.94631
#
# Poissons Ratio (x) = 0.35270 -0.03643
# Poissons Ratio (y) = 0.43962 0.91771
# Poissons Ratio (z) = -0.02139 0.43227
#
# Static dielectric constant tensor:
#      x y z
#    x 3.446800 0.000000 0.000000 
#    y 0.000000 3.589880 0.000000 
#    z 0.000000 0.000000 3.868160 
# 
# 
# High freq. dielectric constant tensor:
#      x y z
#    x 1.742230 0.000000 0.000000 
#    y 0.000000 1.748530 0.000000 
#    z 0.000000 0.000000 1.768910 
# 
# From -- ./inp_files/66998.got.cif
#   From: 2010.03.12/outbox.cif.g09.slc.cpg/sg65_34_cif.got.tgz:66998.got - 2010.04.10 20:52:16.
