data_PCOD8273274
_publ_section_title
;
Structure prediction by ZEFSAII (Michael W. Deem and Ramdas Pophale) SiO2 
 PCOD8273274
Probable space group: C M M M
;
_chemical_formula_sum "Si O2"
_cell_formula_units_Z 72
_cell_length_a 8.028078
_cell_length_b 31.426473
_cell_length_c 14.558066
_cell_angle_alpha 90.000000
_cell_angle_beta 90.000000
_cell_angle_gamma 90.000000
_cell_volume 3672.915273
_symmetry_space_group_name_H-M "C M M M"
_symmetry_group_IT_number 65
_symmetry_cell_setting 'orthorhombic'
loop_
_space_group_symop_operation_xyz
x,y,z
-x,-y,z
x,-y,-z
-x,y,-z
-x,-y,-z
x,y,-z
-x,y,z
x,-y,z
1/2+x,1/2+y,z
1/2-x,1/2-y,z
1/2+x,1/2-y,-z
1/2-x,1/2+y,-z
1/2-x,1/2-y,-z
1/2+x,1/2+y,-z
1/2-x,1/2+y,z
1/2+x,1/2-y,z
loop_
_atom_site_type_symbol
_atom_site_label
_atom_site_fract_x
_atom_site_fract_y
_atom_site_fract_z
Si Si1 0.308245 0.126773 0.220520
Si Si2 0.186815 0.101109 0.396852
Si Si3 0.805866 0.795803 0.893829
Si Si4 0.500000 0.045718 0.392362
Si Si5 0.301988 0.952547 0.896314
O O1 0.500000 0.118687 0.245671
O O2 0.205843 0.136085 0.315929
O O3 0.295909 0.168109 0.158054
O O4 0.231423 0.085044 0.169010
O O5 0.225859 0.118940 0.500000
O O6 0.326277 0.067422 0.364122
O O7 0.000000 0.081650 0.396308
O O8 0.750000 0.750000 0.855041
O O9 0.000000 0.802784 0.877474
O O10 0.755804 0.799188 0.000000
O O11 0.500000 0.040118 0.500000
O O12 0.500000 0.000000 0.342435
O O13 0.500000 0.950062 0.895638
O O14 0.243881 0.000000 0.863965
O O15 0.236858 0.944328 0.000000
#
# Coordination Sequence:
#
# PCOD8273274 Si02
#       5
#    16  16  16   8  16
#     4  11  20  32  55  85 111 148 192 234 286 349
#     4  10  21  37  55  78 110 148 193 243 295 347
#     4  10  21  37  57  83 116 149 186 235 288 344
#     4   9  18  34  54  76 105 143 191 243 294 346
#     4   8  15  28  46  72 107 145 185 226 268 323
#
# _framework density 19.602955999999999
#
# number of rings (size 3 to 8) (size 9 to 14) (size 15 to 20)
#    0.000    2.333    1.111    2.667    0.000    3.556 
#    0.000    2.222    0.000    2.667    0.000    7.778 
#    0.000    0.000    0.000    0.000    0.000    0.000 
#
# Total GULP energy -446065.761021 kJ/mol
# GULP energy per Si atom -12390.715584 kJ/mol
# Density = 1.955834 g / cm^3
# Si number density = 19.602956 Si / 1000 Ang^3
#
#
#
# Elastic Constant Matrix: (Units=GPa)
#
#
# Indices 1 2 3 4 5 6 
#
# 1 84.1123 21.4616 30.5819 0.0000 0.0000 0.0000
# 2 21.4616 114.7563 60.1745 0.0000 0.0000 0.0000
# 3 30.5819 60.1745 113.4618 0.0000 0.0000 0.0000
# 4 0.0000 0.0000 0.0000 10.5205 0.0000 0.0000
# 5 0.0000 0.0000 0.0000 0.0000 23.7755 0.0000
# 6 0.0000 0.0000 0.0000 0.0000 0.0000 14.1091
#
#
#
# Elastic Compliance Matrix: (Units=1/GPa)
#
#
# Indices 1 2 3 4 5 6 
#
# 1 0.013238 -0.000838 -0.003124 0.000000 0.000000 0.000000
# 2 -0.000838 0.012124 -0.006204 0.000000 0.000000 0.000000
# 3 -0.003124 -0.006204 0.012946 0.000000 0.000000 0.000000
# 4 0.000000 0.000000 0.000000 0.095052 0.000000 0.000000
# 5 0.000000 0.000000 0.000000 0.000000 0.042060 0.000000
# 6 0.000000 0.000000 0.000000 0.000000 0.000000 0.070876
#
#
# Mechanical properties :
#
#
# Convention : Reuss Voigt Hill
#
# Bulk Modulus (GPa) = 55.62756 59.64072 57.63414
# Shear Modulus (GPa) = 18.34047 23.02184 20.68115
#
# Velocity S-wave (km/s) = 3.06207 3.43068 3.25160
# Velocity P-wave (km/s) = 6.39847 6.79582 6.60014
#
# Compressibility (1/GPa) = 0.01797670
#
# Stress axis : x y z
#
# Youngs Moduli (GPa) = 75.53763 82.48042 77.24420
#
# Poissons Ratio (x) = 0.06910 0.24130
# Poissons Ratio (y) = 0.06328 0.47924
# Poissons Ratio (z) = 0.23597 0.51173
#
# Static dielectric constant tensor:
#      x y z
#    x 3.419530 0.000000 0.000000 
#    y 0.000000 3.540170 0.000000 
#    z 0.000000 0.000000 3.793810 
# 
# 
# High freq. dielectric constant tensor:
#      x y z
#    x 1.756630 0.000000 0.000000 
#    y 0.000000 1.731100 0.000000 
#    z 0.000000 0.000000 1.772860 
# 
# From -- ./inp_files/36569.got.cif
#   From: 2010.03.12/outbox.cif.g09.slc.cpg/sg65_19_cif.got.tgz:36569.got - 2010.04.10 20:52:16.
