data_PCOD8273124
_publ_section_title
;
Structure prediction by ZEFSAII (Michael W. Deem and Ramdas Pophale) SiO2 
 PCOD8273124
Probable space group: C M M M
;
_chemical_formula_sum "Si O2"
_cell_formula_units_Z 104
_cell_length_a 28.204147
_cell_length_b 8.638747
_cell_length_c 22.879366
_cell_angle_alpha 90.000000
_cell_angle_beta 90.000000
_cell_angle_gamma 90.000000
_cell_volume 5574.522985
_symmetry_space_group_name_H-M "C M M M"
_symmetry_group_IT_number 65
_symmetry_cell_setting 'orthorhombic'
loop_
_space_group_symop_operation_xyz
x,y,z
-x,-y,z
x,-y,-z
-x,y,-z
-x,-y,-z
x,y,-z
-x,y,z
x,-y,z
1/2+x,1/2+y,z
1/2-x,1/2-y,z
1/2+x,1/2-y,-z
1/2-x,1/2+y,-z
1/2-x,1/2-y,-z
1/2+x,1/2+y,-z
1/2-x,1/2+y,z
1/2+x,1/2-y,z
loop_
_atom_site_type_symbol
_atom_site_label
_atom_site_fract_x
_atom_site_fract_y
_atom_site_fract_z
Si Si1 0.392028 0.317501 0.389783
Si Si2 0.610831 0.179005 0.831693
Si Si3 0.444474 0.819253 0.500000
Si Si4 0.055159 0.178946 0.727937
Si Si5 0.799376 0.817938 0.780520
Si Si6 0.554306 0.678430 0.932767
Si Si7 0.799958 0.683104 0.346210
O O1 0.385583 0.500000 0.394521
O O2 0.422487 0.258013 0.443285
O O3 0.418855 0.268097 0.330847
O O4 0.340470 0.237626 0.390962
O O5 0.573269 0.219850 0.781608
O O6 0.659079 0.276783 0.825506
O O7 0.588393 0.215328 0.894424
O O8 0.623995 0.000000 0.827972
O O9 0.500000 0.784410 0.500000
O O10 0.433122 0.000000 0.500000
O O11 0.000000 0.210564 0.719036
O O12 0.065807 0.000000 0.742068
O O13 0.750000 0.750000 0.804516
O O14 0.812568 0.746621 0.717886
O O15 0.794382 0.000000 0.773109
O O16 0.500000 0.728132 0.922067
O O17 0.561004 0.500000 0.914673
O O18 0.568310 0.703981 0.000000
O O19 0.796891 0.500000 0.343875
O O20 0.750000 0.750000 0.368550
#
# Coordination Sequence:
#
# PCOD8273124 Si02
#       7
#    16  16   8  16  16  16  16
#     4  11  22  39  62  86 113 152 196 239 286 342
#     4  12  23  34  53  84 118 152 189 234 288 343
#     4  11  25  43  62  85 116 155 197 241 287 343
#     4  10  21  36  55  80 112 149 189 236 287 338
#     4  11  21  36  57  83 115 151 190 234 284 342
#     4   9  19  37  59  81 110 153 200 241 284 338
#     4  11  21  36  59  88 119 151 187 232 287 345
#
# _framework density 18.656303999999999
#
# number of rings (size 3 to 8) (size 9 to 14) (size 15 to 20)
#    0.000    1.308    1.538    7.154    0.000    4.615 
#    0.000    1.154    0.000    0.462    0.000    0.000 
#    0.000    0.000    0.000    0.000    0.000    0.000 
#
# Total GULP energy -645100.801322 kJ/mol
# GULP energy per Si atom -12405.784641 kJ/mol
# Density = 1.861384 g / cm^3
# Si number density = 18.656304 Si / 1000 Ang^3
#
#
#
# Elastic Constant Matrix: (Units=GPa)
#
#
# Indices 1 2 3 4 5 6 
#
# 1 115.9342 49.8260 44.2714 0.0000 0.0000 0.0000
# 2 49.8260 126.5804 38.6270 0.0000 0.0000 0.0000
# 3 44.2714 38.6270 84.5325 0.0000 0.0000 0.0000
# 4 0.0000 0.0000 0.0000 23.1692 0.0000 0.0000
# 5 0.0000 0.0000 0.0000 0.0000 30.6554 0.0000
# 6 0.0000 0.0000 0.0000 0.0000 0.0000 30.6513
#
#
#
# Elastic Compliance Matrix: (Units=1/GPa)
#
#
# Indices 1 2 3 4 5 6 
#
# 1 0.011805 -0.003208 -0.004717 0.000000 0.000000 0.000000
# 2 -0.003208 0.010052 -0.002913 0.000000 0.000000 0.000000
# 3 -0.004717 -0.002913 0.015631 0.000000 0.000000 0.000000
# 4 0.000000 0.000000 0.000000 0.043161 0.000000 0.000000
# 5 0.000000 0.000000 0.000000 0.000000 0.032621 0.000000
# 6 0.000000 0.000000 0.000000 0.000000 0.000000 0.032625
#
#
# Mechanical properties :
#
#
# Convention : Reuss Voigt Hill
#
# Bulk Modulus (GPa) = 63.23985 65.83287 64.53636
# Shear Modulus (GPa) = 28.92824 29.85004 29.38914
#
# Velocity S-wave (km/s) = 3.94202 4.00434 3.97330
# Velocity P-wave (km/s) = 7.39529 7.53282 7.46437
#
# Compressibility (1/GPa) = 0.01581281
#
# Stress axis : x y z
#
# Youngs Moduli (GPa) = 84.70712 99.48563 63.97390
#
# Poissons Ratio (x) = 0.31910 0.30177
# Poissons Ratio (y) = 0.27170 0.18637
# Poissons Ratio (z) = 0.39957 0.28983
#
# Static dielectric constant tensor:
#      x y z
#    x 3.591250 0.000000 0.000000 
#    y 0.000000 3.499130 0.000000 
#    z 0.000000 0.000000 3.303610 
# 
# 
# High freq. dielectric constant tensor:
#      x y z
#    x 1.736860 0.000000 0.000000 
#    y 0.000000 1.734140 0.000000 
#    z 0.000000 0.000000 1.704840 
# 
# From -- ./inp_files/66321.got.cif
#   From: 2010.03.12/outbox.cif.g09.slc.cpg/sg65_34_cif.got.tgz:66321.got - 2010.04.10 20:52:16.
