data_PCOD8273063
_publ_section_title
;
Structure prediction by ZEFSAII (Michael W. Deem and Ramdas Pophale) SiO2 
 PCOD8273063
Probable space group: C M M M
;
_chemical_formula_sum "Si O2"
_cell_formula_units_Z 88
_cell_length_a 18.066373
_cell_length_b 7.782030
_cell_length_c 29.772083
_cell_angle_alpha 90.000000
_cell_angle_beta 90.000000
_cell_angle_gamma 90.000000
_cell_volume 4185.748153
_symmetry_space_group_name_H-M "C M M M"
_symmetry_group_IT_number 65
_symmetry_cell_setting 'orthorhombic'
loop_
_space_group_symop_operation_xyz
x,y,z
-x,-y,z
x,-y,-z
-x,y,-z
-x,-y,-z
x,y,-z
-x,y,z
x,-y,z
1/2+x,1/2+y,z
1/2-x,1/2-y,z
1/2+x,1/2-y,-z
1/2-x,1/2+y,-z
1/2-x,1/2-y,-z
1/2+x,1/2+y,-z
1/2-x,1/2+y,z
1/2+x,1/2-y,z
loop_
_atom_site_type_symbol
_atom_site_label
_atom_site_fract_x
_atom_site_fract_y
_atom_site_fract_z
Si Si1 0.914985 0.500000 0.053077
Si Si2 0.167201 0.797145 0.549470
Si Si3 0.665307 0.695399 0.103097
Si Si4 0.414345 0.797637 0.809367
Si Si5 0.419229 0.301722 0.366924
Si Si6 0.834221 0.700383 0.280379
O O1 0.876839 0.673674 0.070404
O O2 0.000000 0.500000 0.069707
O O3 0.908981 0.500000 0.000000
O O4 0.147085 0.721199 0.500000
O O5 0.250000 0.750000 0.562984
O O6 0.114978 0.715274 0.588072
O O7 0.158714 0.000000 0.548346
O O8 0.659288 0.500000 0.084264
O O9 0.750000 0.750000 0.106940
O O10 0.629289 0.697898 0.152157
O O11 0.500000 0.746119 0.811086
O O12 0.381815 0.734887 0.761935
O O13 0.402560 0.000000 0.816843
O O14 0.500000 0.217812 0.356925
O O15 0.429663 0.500000 0.377348
O O16 0.364543 0.286427 0.325130
O O17 0.843578 0.500000 0.286490
O O18 0.750000 0.750000 0.272095
#
# Coordination Sequence:
#
# PCOD8273063 Si02
#       6
#     8  16  16  16  16  16
#     4  11  26  48  72 102 143 183 225 285 343 397
#     4   9  18  33  53  76 102 137 181 229 284 347
#     4  12  24  43  70 103 136 181 229 279 334 397
#     4  10  21  39  63  91 128 166 206 259 318 379
#     4  10  21  36  54  78 110 144 185 238 293 353
#     4  11  23  38  58  84 115 157 199 245 300 360
#
# _framework density 21.023721999999999
#
# number of rings (size 3 to 8) (size 9 to 14) (size 15 to 20)
#    0.000    1.545    1.818    2.727    0.000    8.727 
#    0.000    2.727    0.000    0.000    0.000    3.818 
#    0.000    0.000    0.000    0.000    0.000    0.000 
#
# Total GULP energy -545601.189444 kJ/mol
# GULP energy per Si atom -12400.027033 kJ/mol
# Density = 2.097587 g / cm^3
# Si number density = 21.023722 Si / 1000 Ang^3
#
#
#
# Elastic Constant Matrix: (Units=GPa)
#
#
# Indices 1 2 3 4 5 6 
#
# 1 168.6228 40.3391 69.2552 0.0000 0.0000 0.0000
# 2 40.3391 81.4291 35.1428 0.0000 0.0000 0.0000
# 3 69.2552 35.1428 121.7716 0.0000 0.0000 0.0000
# 4 0.0000 0.0000 0.0000 22.5505 0.0000 0.0000
# 5 0.0000 0.0000 0.0000 0.0000 47.2198 0.0000
# 6 0.0000 0.0000 0.0000 0.0000 0.0000 25.5503
#
#
#
# Elastic Compliance Matrix: (Units=1/GPa)
#
#
# Indices 1 2 3 4 5 6 
#
# 1 0.008102 -0.002313 -0.003940 0.000000 0.000000 0.000000
# 2 -0.002313 0.014688 -0.002923 0.000000 0.000000 0.000000
# 3 -0.003940 -0.002923 0.011297 0.000000 0.000000 0.000000
# 4 0.000000 0.000000 0.000000 0.044345 0.000000 0.000000
# 5 0.000000 0.000000 0.000000 0.000000 0.021178 0.000000
# 6 0.000000 0.000000 0.000000 0.000000 0.000000 0.039139
#
#
# Mechanical properties :
#
#
# Convention : Reuss Voigt Hill
#
# Bulk Modulus (GPa) = 63.55947 73.47752 68.51849
# Shear Modulus (GPa) = 30.79836 34.20321 32.50078
#
# Velocity S-wave (km/s) = 3.83160 4.03784 3.93607
# Velocity P-wave (km/s) = 7.06206 7.53423 7.30196
#
# Compressibility (1/GPa) = 0.01573330
#
# Stress axis : x y z
#
# Youngs Moduli (GPa) = 123.42469 68.08185 88.52078
#
# Poissons Ratio (x) = 0.15748 0.34880
# Poissons Ratio (y) = 0.28550 0.25878
# Poissons Ratio (z) = 0.48634 0.19903
#
# Static dielectric constant tensor:
#      x y z
#    x 4.073980 0.000000 0.000000 
#    y 0.000000 3.717230 0.000000 
#    z 0.000000 0.000000 3.964910 
# 
# 
# High freq. dielectric constant tensor:
#      x y z
#    x 1.835950 0.000000 0.000000 
#    y 0.000000 1.814370 0.000000 
#    z 0.000000 0.000000 1.831380 
# 
# From -- ./inp_files/77976.got.cif
#   From: 2010.03.12/outbox.cif.g09.slc.cpg/sg65_39_cif.got.tgz:77976.got - 2010.04.10 20:52:16.
