data_PCOD8273774
_publ_section_title
;
Structure prediction by ZEFSAII (Michael W. Deem and Ramdas Pophale) SiO2 
 PCOD8273774
Probable space group: C M M M
;
_chemical_formula_sum "Si O2"
_cell_formula_units_Z 64
_cell_length_a 15.144135
_cell_length_b 8.707109
_cell_length_c 24.100222
_cell_angle_alpha 90.000000
_cell_angle_beta 90.000000
_cell_angle_gamma 90.000000
_cell_volume 3177.894656
_symmetry_space_group_name_H-M "C M M M"
_symmetry_group_IT_number 65
_symmetry_cell_setting 'orthorhombic'
loop_
_space_group_symop_operation_xyz
x,y,z
-x,-y,z
x,-y,-z
-x,y,-z
-x,-y,-z
x,y,-z
-x,y,z
x,-y,z
1/2+x,1/2+y,z
1/2-x,1/2-y,z
1/2+x,1/2-y,-z
1/2-x,1/2+y,-z
1/2-x,1/2-y,-z
1/2+x,1/2+y,-z
1/2-x,1/2+y,z
1/2+x,1/2-y,z
loop_
_atom_site_type_symbol
_atom_site_label
_atom_site_fract_x
_atom_site_fract_y
_atom_site_fract_z
Si Si1 0.653887 0.179757 0.060017
Si Si2 0.848080 0.181840 0.829125
Si Si3 0.500000 0.176893 0.240473
Si Si4 0.157125 0.819184 0.562904
Si Si5 0.500000 0.824166 0.371391
O O1 0.750000 0.250000 0.055029
O O2 0.607820 0.264406 0.112008
O O3 0.659988 0.000000 0.073656
O O4 0.605423 0.205693 0.000000
O O5 0.750000 0.250000 0.821329
O O6 0.911462 0.241413 0.780890
O O7 0.842533 0.000000 0.826824
O O8 0.500000 0.194457 0.305956
O O9 0.500000 0.000000 0.221609
O O10 0.133034 0.769733 0.500000
O O11 0.250000 0.750000 0.581318
O O12 0.085797 0.756781 0.604995
O O13 0.162291 0.000000 0.568289
O O14 0.500000 0.000000 0.390181
#
# Coordination Sequence:
#
# PCOD8273774 Si02
#       5
#    16  16   8  16   8
#     4   9  16  28  50  80 112 146 184 229 284 345
#     4  11  22  38  61  86 114 151 192 238 293 348
#     4  11  25  44  61  82 114 152 199 247 290 341
#     4  10  21  38  62  92 125 159 194 235 284 339
#     4  11  24  40  61  87 117 156 197 242 292 341
#
# _framework density 20.139119999999998
#
# number of rings (size 3 to 8) (size 9 to 14) (size 15 to 20)
#    0.000    1.750    0.000    6.375    0.000    7.500 
#    0.000    0.625    0.000    3.750    0.000    0.000 
#    0.000    0.000    0.000    0.000    0.000    0.000 
#
# Total GULP energy -396706.056539 kJ/mol
# GULP energy per Si atom -12397.064267 kJ/mol
# Density = 2.009328 g / cm^3
# Si number density = 20.139120 Si / 1000 Ang^3
#
#
#
# Elastic Constant Matrix: (Units=GPa)
#
#
# Indices 1 2 3 4 5 6 
#
# 1 110.9524 59.3337 58.1178 0.0000 0.0000 0.0000
# 2 59.3337 152.7408 57.9261 0.0000 0.0000 0.0000
# 3 58.1178 57.9261 94.1817 0.0000 0.0000 0.0000
# 4 0.0000 0.0000 0.0000 34.6370 0.0000 0.0000
# 5 0.0000 0.0000 0.0000 0.0000 -242.7992 0.0000
# 6 0.0000 0.0000 0.0000 0.0000 0.0000 31.1694
#
#
#
# Elastic Compliance Matrix: (Units=1/GPa)
#
#
# Indices 1 2 3 4 5 6 
#
# 1 0.014217 -0.002864 -0.007012 0.000000 0.000000 0.000000
# 2 -0.002864 0.009115 -0.003839 0.000000 0.000000 0.000000
# 3 -0.007012 -0.003839 0.017306 0.000000 0.000000 0.000000
# 4 0.000000 0.000000 0.000000 0.028871 0.000000 0.000000
# 5 0.000000 0.000000 0.000000 0.000000 -0.004119 0.000000
# 6 0.000000 0.000000 0.000000 0.000000 0.000000 0.032083
#
#
# Mechanical properties :
#
#
# Convention : Reuss Voigt Hill
#
# Bulk Modulus (GPa) = 75.70603 78.73667 77.22135
# Shear Modulus (GPa) = 38.66784 -23.23209 7.71788
#
# Velocity S-wave (km/s) = 4.38658 -3.40012 1.95974
# Velocity P-wave (km/s) = 7.95796 4.87512 6.59909
#
# Compressibility (1/GPa) = 0.01320899
#
# Stress axis : x y z
#
# Youngs Moduli (GPa) = 70.33785 109.70336 57.78313
#
# Poissons Ratio (x) = 0.31414 0.40517
# Poissons Ratio (y) = 0.20142 0.22185
# Poissons Ratio (z) = 0.49320 0.42120
#
# Static dielectric constant tensor:
#      x y z
#    x 3.522030 0.000000 0.000000 
#    y 0.000000 3.856150 0.000000 
#    z 0.000000 0.000000 4.071760 
# 
# 
# High freq. dielectric constant tensor:
#      x y z
#    x 1.772730 0.000000 0.000000 
#    y 0.000000 1.805170 0.000000 
#    z 0.000000 0.000000 1.794160 
# 
# From -- ./inp_files/69522.got.cif
#   From: 2010.03.12/outbox.cif.g09.slc.cpg/sg65_35_cif.got.tgz:69522.got - 2010.04.10 20:52:16.
