data_PCOD8273908
_publ_section_title
;
Structure prediction by ZEFSAII (Michael W. Deem and Ramdas Pophale) SiO2 
 PCOD8273908
Probable space group: C M M M
;
_chemical_formula_sum "Si O2"
_cell_formula_units_Z 88
_cell_length_a 10.288962
_cell_length_b 32.502052
_cell_length_c 14.396868
_cell_angle_alpha 90.000000
_cell_angle_beta 90.000000
_cell_angle_gamma 90.000000
_cell_volume 4814.490863
_symmetry_space_group_name_H-M "C M M M"
_symmetry_group_IT_number 65
_symmetry_cell_setting 'orthorhombic'
loop_
_space_group_symop_operation_xyz
x,y,z
-x,-y,z
x,-y,-z
-x,y,-z
-x,-y,-z
x,y,-z
-x,y,z
x,-y,z
1/2+x,1/2+y,z
1/2-x,1/2-y,z
1/2+x,1/2-y,-z
1/2-x,1/2+y,-z
1/2-x,1/2-y,-z
1/2+x,1/2+y,-z
1/2-x,1/2+y,z
1/2+x,1/2-y,z
loop_
_atom_site_type_symbol
_atom_site_label
_atom_site_fract_x
_atom_site_fract_y
_atom_site_fract_z
Si Si1 0.644983 0.689137 0.393316
Si Si2 0.845992 0.545345 0.272625
Si Si3 0.845419 0.404381 0.102294
Si Si4 0.146759 0.621318 0.391150
Si Si5 0.250000 0.250000 0.746615
Si Si6 0.152211 0.312838 0.102361
O O1 0.672628 0.703151 0.500000
O O2 0.500000 0.669952 0.386845
O O3 0.753216 0.656542 0.359620
O O4 0.648934 0.727746 0.322937
O O5 0.785874 0.500000 0.292063
O O6 0.789312 0.562850 0.175569
O O7 0.805711 0.577403 0.352437
O O8 0.000000 0.541556 0.267668
O O9 0.793957 0.358462 0.126866
O O10 0.000000 0.404371 0.106881
O O11 0.797089 0.417468 0.000000
O O12 0.147201 0.616547 0.500000
O O13 0.000000 0.632310 0.355227
O O14 0.183433 0.282520 0.814125
O O15 0.000000 0.315366 0.091886
O O16 0.208416 0.299253 0.000000
#
# Coordination Sequence:
#
# PCOD8273908 Si02
#       6
#    16  16  16  16   8  16
#     4  10  22  37  51  71 100 133 169 208 250 297
#     4   9  16  25  41  69  99 122 151 195 242 286
#     4   8  14  25  39  56  85 124 156 183 226 284
#     4   9  18  33  52  71  93 126 164 199 240 292
#     4  12  20  30  50  72  94 126 166 210 250 290
#     4   9  18  31  46  67  96 128 162 200 242 290
#
# _framework density 18.278153
#
# number of rings (size 3 to 8) (size 9 to 14) (size 15 to 20)
#    0.000    2.727    0.000    3.273    0.000    3.636 
#    0.000    5.455    0.000    0.545    0.000    2.545 
#    0.000    0.000    0.000    6.545    0.000    3.455 
#
# Total GULP energy -545123.215937 kJ/mol
# GULP energy per Si atom -12389.163999 kJ/mol
# Density = 1.823655 g / cm^3
# Si number density = 18.278153 Si / 1000 Ang^3
#
#
#
# Elastic Constant Matrix: (Units=GPa)
#
#
# Indices 1 2 3 4 5 6 
#
# 1 51.2363 34.2837 25.2468 0.0000 0.0000 0.0000
# 2 34.2837 100.5323 46.8141 0.0000 0.0000 0.0000
# 3 25.2468 46.8141 74.1696 0.0000 0.0000 0.0000
# 4 0.0000 0.0000 0.0000 38.8451 0.0000 0.0000
# 5 0.0000 0.0000 0.0000 0.0000 11.7517 0.0000
# 6 0.0000 0.0000 0.0000 0.0000 0.0000 14.7839
#
#
#
# Elastic Compliance Matrix: (Units=1/GPa)
#
#
# Indices 1 2 3 4 5 6 
#
# 1 0.026386 -0.006820 -0.004677 0.000000 0.000000 0.000000
# 2 -0.006820 0.015851 -0.007683 0.000000 0.000000 0.000000
# 3 -0.004677 -0.007683 0.019924 0.000000 0.000000 0.000000
# 4 0.000000 0.000000 0.000000 0.025743 0.000000 0.000000
# 5 0.000000 0.000000 0.000000 0.000000 0.085094 0.000000
# 6 0.000000 0.000000 0.000000 0.000000 0.000000 0.067641
#
#
# Mechanical properties :
#
#
# Convention : Reuss Voigt Hill
#
# Bulk Modulus (GPa) = 42.01652 48.73638 45.37645
# Shear Modulus (GPa) = 17.42577 21.04905 19.23741
#
# Velocity S-wave (km/s) = 3.09101 3.39720 3.24772
# Velocity P-wave (km/s) = 5.98133 6.48919 6.24043
#
# Compressibility (1/GPa) = 0.02380016
#
# Stress axis : x y z
#
# Youngs Moduli (GPa) = 37.89957 63.08916 50.19123
#
# Poissons Ratio (x) = 0.43029 0.23473
# Poissons Ratio (y) = 0.25849 0.38562
# Poissons Ratio (z) = 0.17724 0.48471
#
# Static dielectric constant tensor:
#      x y z
#    x 2.896280 0.000000 0.000000 
#    y 0.000000 3.687350 0.000000 
#    z 0.000000 0.000000 3.775010 
# 
# 
# High freq. dielectric constant tensor:
#      x y z
#    x 1.642260 0.000000 0.000000 
#    y 0.000000 1.705690 0.000000 
#    z 0.000000 0.000000 1.731090 
# 
# From -- ./inp_files/38669.got.cif
#   From: 2010.03.12/outbox.cif.g09.slc.cpg/sg65_20_cif.got.tgz:38669.got - 2010.04.10 20:52:16.
