data_PCOD8273539
_publ_section_title
;
Structure prediction by ZEFSAII (Michael W. Deem and Ramdas Pophale) SiO2 
 PCOD8273539
Probable space group: C M M M
;
_chemical_formula_sum "Si O2"
_cell_formula_units_Z 64
_cell_length_a 9.141225
_cell_length_b 28.359167
_cell_length_c 12.601596
_cell_angle_alpha 90.000000
_cell_angle_beta 90.000000
_cell_angle_gamma 90.000000
_cell_volume 3266.806575
_symmetry_space_group_name_H-M "C M M M"
_symmetry_group_IT_number 65
_symmetry_cell_setting 'orthorhombic'
loop_
_space_group_symop_operation_xyz
x,y,z
-x,-y,z
x,-y,-z
-x,y,-z
-x,-y,-z
x,y,-z
-x,y,z
x,-y,z
1/2+x,1/2+y,z
1/2-x,1/2-y,z
1/2+x,1/2-y,-z
1/2-x,1/2+y,-z
1/2-x,1/2-y,-z
1/2+x,1/2+y,-z
1/2-x,1/2+y,z
1/2+x,1/2-y,z
loop_
_atom_site_type_symbol
_atom_site_label
_atom_site_fract_x
_atom_site_fract_y
_atom_site_fract_z
Si Si1 0.331863 0.703867 0.882228
Si Si2 0.325827 0.199007 0.500000
Si Si3 0.663164 0.055910 0.000000
Si Si4 0.330338 0.446874 0.791937
Si Si5 0.167443 0.144006 0.318562
O O1 0.500000 0.717847 0.886540
O O2 0.250000 0.750000 0.840310
O O3 0.303177 0.662246 0.800068
O O4 0.276224 0.688620 0.000000
O O5 0.500000 0.205841 0.500000
O O6 0.250000 0.250000 0.500000
O O7 0.278383 0.169005 0.397974
O O8 0.744688 0.072844 0.893998
O O9 0.500000 0.077157 0.000000
O O10 0.660620 0.000000 0.000000
O O11 0.500000 0.445561 0.823576
O O12 0.281755 0.500000 0.759727
O O13 0.301487 0.412272 0.691031
O O14 0.000000 0.153773 0.355412
#
# Coordination Sequence:
#
# PCOD8273539 Si02
#       5
#    16   8   8  16  16
#     4   9  18  32  51  77 109 142 176 221 279 339
#     4  12  26  44  65  86 113 145 190 241 291 348
#     4   9  17  29  47  75 114 157 196 237 283 333
#     4   9  18  33  55  83 115 153 196 240 286 339
#     4  10  21  37  60  85 113 148 193 240 288 342
#
# _framework density 19.590997000000002
#
# number of rings (size 3 to 8) (size 9 to 14) (size 15 to 20)
#    0.000    2.375    0.000    2.250    1.750    5.500 
#    0.000    0.625    0.000    3.750    0.000    0.000 
#    0.000    0.000    0.000    0.000    0.000    0.000 
#
# Total GULP energy -396690.612682 kJ/mol
# GULP energy per Si atom -12396.581646 kJ/mol
# Density = 1.954641 g / cm^3
# Si number density = 19.590997 Si / 1000 Ang^3
#
#
#
# Elastic Constant Matrix: (Units=GPa)
#
#
# Indices 1 2 3 4 5 6 
#
# 1 96.2716 50.0733 49.7222 0.0000 0.0000 0.0000
# 2 50.0733 110.3335 54.4798 0.0000 0.0000 0.0000
# 3 49.7222 54.4798 85.4065 0.0000 0.0000 0.0000
# 4 0.0000 0.0000 0.0000 26.2687 0.0000 0.0000
# 5 0.0000 0.0000 0.0000 0.0000 32.0837 0.0000
# 6 0.0000 0.0000 0.0000 0.0000 0.0000 23.2246
#
#
#
# Elastic Compliance Matrix: (Units=1/GPa)
#
#
# Indices 1 2 3 4 5 6 
#
# 1 0.015907 -0.003863 -0.006796 0.000000 0.000000 0.000000
# 2 -0.003863 0.014169 -0.006789 0.000000 0.000000 0.000000
# 3 -0.006796 -0.006789 0.019996 0.000000 0.000000 0.000000
# 4 0.000000 0.000000 0.000000 0.038068 0.000000 0.000000
# 5 0.000000 0.000000 0.000000 0.000000 0.031168 0.000000
# 6 0.000000 0.000000 0.000000 0.000000 0.000000 0.043058
#
#
# Mechanical properties :
#
#
# Convention : Reuss Voigt Hill
#
# Bulk Modulus (GPa) = 65.89997 66.72912 66.31454
# Shear Modulus (GPa) = 24.71309 25.49783 25.10546
#
# Velocity S-wave (km/s) = 3.55554 3.61155 3.58366
# Velocity P-wave (km/s) = 7.11103 7.17817 7.14468
#
# Compressibility (1/GPa) = 0.01517451
#
# Stress axis : x y z
#
# Youngs Moduli (GPa) = 62.86614 70.57670 50.00966
#
# Poissons Ratio (x) = 0.27265 0.33988
# Poissons Ratio (y) = 0.24286 0.33952
# Poissons Ratio (z) = 0.42726 0.47915
#
# Static dielectric constant tensor:
#      x y z
#    x 3.580830 0.000000 0.000000 
#    y 0.000000 3.763550 0.000000 
#    z 0.000000 0.000000 3.506770 
# 
# 
# High freq. dielectric constant tensor:
#      x y z
#    x 1.753040 0.000000 0.000000 
#    y 0.000000 1.767890 0.000000 
#    z 0.000000 0.000000 1.745670 
# 
# From -- ./inp_files/20935.got.cif
#   From: 2010.03.12/outbox.cif.g09.slc.cpg/sg65_11_cif.got.tgz:20935.got - 2010.04.10 20:52:16.
