data_PCOD8273558
_publ_section_title
;
Structure prediction by ZEFSAII (Michael W. Deem and Ramdas Pophale) SiO2 
 PCOD8273558
Probable space group: C M M M
;
_chemical_formula_sum "Si O2"
_cell_formula_units_Z 96
_cell_length_a 9.243301
_cell_length_b 28.570520
_cell_length_c 20.161069
_cell_angle_alpha 90.000000
_cell_angle_beta 90.000000
_cell_angle_gamma 90.000000
_cell_volume 5324.254376
_symmetry_space_group_name_H-M "C M M M"
_symmetry_group_IT_number 65
_symmetry_cell_setting 'orthorhombic'
loop_
_space_group_symop_operation_xyz
x,y,z
-x,-y,z
x,-y,-z
-x,y,-z
-x,-y,-z
x,y,-z
-x,y,z
x,-y,z
1/2+x,1/2+y,z
1/2-x,1/2-y,z
1/2+x,1/2-y,-z
1/2-x,1/2+y,-z
1/2-x,1/2-y,-z
1/2+x,1/2+y,-z
1/2-x,1/2+y,z
1/2+x,1/2-y,z
loop_
_atom_site_type_symbol
_atom_site_label
_atom_site_fract_x
_atom_site_fract_y
_atom_site_fract_z
Si Si1 0.168060 0.945005 0.809804
Si Si2 0.330168 0.103698 0.689170
Si Si3 0.166799 0.395946 0.924532
Si Si4 0.664939 0.445673 0.576423
Si Si5 0.831796 0.294921 0.880554
Si Si6 0.833495 0.294189 0.728315
O O1 0.247821 0.920399 0.749333
O O2 0.234489 0.928698 0.879400
O O3 0.000000 0.931279 0.807988
O O4 0.190935 0.000000 0.802452
O O5 0.500000 0.093958 0.698056
O O6 0.276052 0.084144 0.619355
O O7 0.296566 0.158963 0.687992
O O8 0.214755 0.341741 0.919136
O O9 0.000000 0.400819 0.901365
O O10 0.186973 0.412696 0.000000
O O11 0.693483 0.433371 0.500000
O O12 0.500000 0.433401 0.596065
O O13 0.694460 0.500000 0.590104
O O14 0.750000 0.250000 0.910932
O O15 0.786444 0.302552 0.804237
O O16 0.000000 0.284846 0.889069
O O17 0.750000 0.250000 0.696956
O O18 0.000000 0.281282 0.723650
#
# Coordination Sequence:
#
# PCOD8273558 Si02
#       6
#    16  16  16  16  16  16
#     4  11  24  39  55  77 105 138 179 225 270 319
#     4  11  21  35  57  85 113 141 178 224 268 313
#     4  10  21  38  57  76 103 139 177 220 272 327
#     4   9  19  36  56  81 116 153 185 218 261 315
#     4   9  17  32  51  75 105 135 170 214 265 320
#     4   9  18  32  51  77 108 138 172 217 266 315
#
# _framework density 18.030695000000001
#
# number of rings (size 3 to 8) (size 9 to 14) (size 15 to 20)
#    0.000    2.167    1.667    2.000    0.000    7.000 
#    0.000    2.500    0.000    0.500    0.000    0.000 
#    0.000    0.000    0.000    0.000    0.000    0.000 
#
# Total GULP energy -595296.468506 kJ/mol
# GULP energy per Si atom -12402.009761 kJ/mol
# Density = 1.798966 g / cm^3
# Si number density = 18.030695 Si / 1000 Ang^3
#
#
#
# Elastic Constant Matrix: (Units=GPa)
#
#
# Indices 1 2 3 4 5 6 
#
# 1 101.2834 71.8572 52.9607 0.0000 0.0000 0.0000
# 2 71.8572 101.7760 50.5487 0.0000 0.0000 0.0000
# 3 52.9607 50.5487 85.1435 0.0000 0.0000 0.0000
# 4 0.0000 0.0000 0.0000 27.1783 0.0000 0.0000
# 5 0.0000 0.0000 0.0000 0.0000 29.7314 0.0000
# 6 0.0000 0.0000 0.0000 0.0000 0.0000 36.7592
#
#
#
# Elastic Compliance Matrix: (Units=1/GPa)
#
#
# Indices 1 2 3 4 5 6 
#
# 1 0.021939 -0.012355 -0.006311 0.000000 0.000000 0.000000
# 2 -0.012355 0.020892 -0.004718 0.000000 0.000000 0.000000
# 3 -0.006311 -0.004718 0.018472 0.000000 0.000000 0.000000
# 4 0.000000 0.000000 0.000000 0.036794 0.000000 0.000000
# 5 0.000000 0.000000 0.000000 0.000000 0.033634 0.000000
# 6 0.000000 0.000000 0.000000 0.000000 0.000000 0.027204
#
#
# Mechanical properties :
#
#
# Convention : Reuss Voigt Hill
#
# Bulk Modulus (GPa) = 68.80689 70.99291 69.89990
# Shear Modulus (GPa) = 23.74744 26.25620 25.00182
#
# Velocity S-wave (km/s) = 3.63306 3.82015 3.72778
# Velocity P-wave (km/s) = 7.47280 7.67574 7.57495
#
# Compressibility (1/GPa) = 0.01453343
#
# Stress axis : x y z
#
# Youngs Moduli (GPa) = 45.58114 47.86547 54.13635
#
# Poissons Ratio (x) = 0.59137 0.34168
# Poissons Ratio (y) = 0.56315 0.25543
# Poissons Ratio (z) = 0.28768 0.22584
#
# Static dielectric constant tensor:
#      x y z
#    x 3.381120 0.000000 0.000000 
#    y 0.000000 3.435190 0.000000 
#    z 0.000000 0.000000 3.198900 
# 
# 
# High freq. dielectric constant tensor:
#      x y z
#    x 1.699840 0.000000 0.000000 
#    y 0.000000 1.701830 0.000000 
#    z 0.000000 0.000000 1.682550 
# 
# From -- ./inp_files/60249.got.cif
#   From: 2010.03.12/outbox.cif.g09.slc.cpg/sg65_31_cif.got.tgz:60249.got - 2010.04.10 20:52:16.
