data_PCOD8273241
_publ_section_title
;
Structure prediction by ZEFSAII (Michael W. Deem and Ramdas Pophale) SiO2 
 PCOD8273241
Probable space group: C M M M
;
_chemical_formula_sum "Si O2"
_cell_formula_units_Z 72
_cell_length_a 25.620481
_cell_length_b 8.801848
_cell_length_c 19.949105
_cell_angle_alpha 90.000000
_cell_angle_beta 90.000000
_cell_angle_gamma 90.000000
_cell_volume 4498.674381
_symmetry_space_group_name_H-M "C M M M"
_symmetry_group_IT_number 65
_symmetry_cell_setting 'orthorhombic'
loop_
_space_group_symop_operation_xyz
x,y,z
-x,-y,z
x,-y,-z
-x,y,-z
-x,-y,-z
x,y,-z
-x,y,z
x,-y,z
1/2+x,1/2+y,z
1/2-x,1/2-y,z
1/2+x,1/2-y,-z
1/2-x,1/2+y,-z
1/2-x,1/2-y,-z
1/2+x,1/2+y,-z
1/2-x,1/2+y,z
1/2+x,1/2-y,z
loop_
_atom_site_type_symbol
_atom_site_label
_atom_site_fract_x
_atom_site_fract_y
_atom_site_fract_z
Si Si1 0.000000 0.680677 0.924790
Si Si2 0.600871 0.179137 0.154084
Si Si3 0.438190 0.676934 0.284147
Si Si4 0.304768 0.678898 0.076359
Si Si5 0.441502 0.319804 0.429161
O O1 0.948823 0.741917 0.887162
O O2 0.000000 0.500000 0.924956
O O3 0.000000 0.746256 0.000000
O O4 0.593470 0.222380 0.231492
O O5 0.651946 0.258212 0.125975
O O6 0.606993 0.000000 0.146506
O O7 0.500000 0.708461 0.278691
O O8 0.426366 0.500000 0.271075
O O9 0.416517 0.731122 0.357971
O O10 0.300798 0.500000 0.084222
O O11 0.250000 0.750000 0.098373
O O12 0.318557 0.726073 0.000000
O O13 0.413297 0.267824 0.500000
O O14 0.500000 0.254831 0.431410
O O15 0.443966 0.500000 0.426941
#
# Coordination Sequence:
#
# PCOD8273241 Si02
#       5
#     8  16  16  16  16
#     4   9  18  30  43  61  86 119 156 188 221 265
#     4  11  20  31  47  67  94 126 157 190 228 276
#     4   9  16  26  41  62  91 123 155 193 232 271
#     4  10  21  37  55  73  91 114 148 192 239 282
#     4   7  10  18  34  56  81 113 153 191 225 263
#
# _framework density 16.004714
#
# number of rings (size 3 to 8) (size 9 to 14) (size 15 to 20)
#    0.000    2.778    1.111    4.000    0.000    2.222 
#    0.000    0.000    0.000    3.333    0.000    3.111 
#    0.000    0.889    0.000    2.444    0.000    3.556 
#
# Total GULP energy -446005.656797 kJ/mol
# GULP energy per Si atom -12389.046022 kJ/mol
# Density = 1.596829 g / cm^3
# Si number density = 16.004714 Si / 1000 Ang^3
#
#
#
# Elastic Constant Matrix: (Units=GPa)
#
#
# Indices 1 2 3 4 5 6 
#
# 1 79.0497 25.2784 54.5461 0.0000 0.0000 0.0000
# 2 25.2784 38.9687 25.1620 0.0000 0.0000 0.0000
# 3 54.5461 25.1620 149.9331 0.0000 0.0000 0.0000
# 4 0.0000 0.0000 0.0000 18.2100 0.0000 0.0000
# 5 0.0000 0.0000 0.0000 0.0000 5.2010 0.0000
# 6 0.0000 0.0000 0.0000 0.0000 0.0000 18.2941
#
#
#
# Elastic Compliance Matrix: (Units=1/GPa)
#
#
# Indices 1 2 3 4 5 6 
#
# 1 0.019334 -0.008972 -0.005528 0.000000 0.000000 0.000000
# 2 -0.008972 0.032944 -0.002265 0.000000 0.000000 0.000000
# 3 -0.005528 -0.002265 0.009061 0.000000 0.000000 0.000000
# 4 0.000000 0.000000 0.000000 0.054915 0.000000 0.000000
# 5 0.000000 0.000000 0.000000 0.000000 0.192269 0.000000
# 6 0.000000 0.000000 0.000000 0.000000 0.000000 0.054663
#
#
# Mechanical properties :
#
#
# Convention : Reuss Voigt Hill
#
# Bulk Modulus (GPa) = 35.95946 53.10271 44.53108
# Shear Modulus (GPa) = 12.31575 19.20536 15.76056
#
# Velocity S-wave (km/s) = 2.77701 3.46783 3.14147
# Velocity P-wave (km/s) = 5.72706 7.02039 6.40645
#
# Compressibility (1/GPa) = 0.02780909
#
# Stress axis : x y z
#
# Youngs Moduli (GPa) = 51.72294 30.35459 110.36574
#
# Poissons Ratio (x) = 0.27235 0.61010
# Poissons Ratio (y) = 0.46406 0.24994
# Poissons Ratio (z) = 0.28592 0.06874
#
# Static dielectric constant tensor:
#      x y z
#    x 2.712660 0.000000 0.000000 
#    y 0.000000 2.787040 0.000000 
#    z 0.000000 0.000000 3.556050 
# 
# 
# High freq. dielectric constant tensor:
#      x y z
#    x 1.564730 0.000000 0.000000 
#    y 0.000000 1.594930 0.000000 
#    z 0.000000 0.000000 1.634040 
# 
# From -- ./inp_files/59211.got.cif
#   From: 2010.03.12/outbox.cif.g09.slc.cpg/sg65_30_cif.got.tgz:59211.got - 2010.04.10 20:52:16.
