data_PCOD8273528
_publ_section_title
;
Structure prediction by ZEFSAII (Michael W. Deem and Ramdas Pophale) SiO2 
 PCOD8273528
Probable space group: C M M M
;
_chemical_formula_sum "Si O2"
_cell_formula_units_Z 88
_cell_length_a 7.912077
_cell_length_b 18.326019
_cell_length_c 29.663081
_cell_angle_alpha 90.000000
_cell_angle_beta 90.000000
_cell_angle_gamma 90.000000
_cell_volume 4301.054001
_symmetry_space_group_name_H-M "C M M M"
_symmetry_group_IT_number 65
_symmetry_cell_setting 'orthorhombic'
loop_
_space_group_symop_operation_xyz
x,y,z
-x,-y,z
x,-y,-z
-x,y,-z
-x,-y,-z
x,y,-z
-x,y,z
x,-y,z
1/2+x,1/2+y,z
1/2-x,1/2-y,z
1/2+x,1/2-y,-z
1/2-x,1/2+y,-z
1/2-x,1/2-y,-z
1/2+x,1/2+y,-z
1/2-x,1/2+y,z
1/2+x,1/2-y,z
loop_
_atom_site_type_symbol
_atom_site_label
_atom_site_fract_x
_atom_site_fract_y
_atom_site_fract_z
Si Si1 0.307958 0.919454 0.284399
Si Si2 0.311210 0.669427 0.633706
Si Si3 0.000000 0.584056 0.053247
Si Si4 0.195935 0.415566 0.449429
Si Si5 0.806353 0.919246 0.189784
Si Si6 0.202952 0.834353 0.896955
O O1 0.500000 0.926490 0.270291
O O2 0.298228 0.868326 0.327785
O O3 0.216837 0.886377 0.240178
O O4 0.233128 0.000000 0.296215
O O5 0.500000 0.669508 0.652161
O O6 0.250000 0.750000 0.624410
O O7 0.305831 0.628252 0.586174
O O8 0.824261 0.622056 0.068807
O O9 0.000000 0.500000 0.069793
O O10 0.000000 0.589164 0.000000
O O11 0.239454 0.388661 0.500000
O O12 0.241719 0.500000 0.444672
O O13 0.000000 0.402222 0.438665
O O14 0.738660 0.862945 0.152476
O O15 0.000000 0.930248 0.179298
O O16 0.718596 0.000000 0.186665
O O17 0.250000 0.750000 0.900207
O O18 0.000000 0.845983 0.906840
#
# Coordination Sequence:
#
# PCOD8273528 Si02
#       6
#    16  16   8  16  16  16
#     4  10  21  37  59  87 118 157 199 242 297 358
#     4  12  25  39  56  79 113 152 192 241 294 349
#     4  11  26  46  70 100 133 175 227 279 331 395
#     4   9  19  38  63  87 111 142 181 229 285 348
#     4   9  19  36  60  89 123 163 208 257 307 367
#     4  11  23  42  66  99 136 177 220 272 334 393
#
# _framework density 20.460100000000001
#
# number of rings (size 3 to 8) (size 9 to 14) (size 15 to 20)
#    0.000    1.727    0.909    3.818    1.273    6.909 
#    0.000    3.636    0.000    0.000    0.000    0.000 
#    0.000    0.000    0.000    0.000    0.000    0.000 
#
# Total GULP energy -545401.174686 kJ/mol
# GULP energy per Si atom -12395.481243 kJ/mol
# Density = 2.041353 g / cm^3
# Si number density = 20.460100 Si / 1000 Ang^3
#
#
#
# Elastic Constant Matrix: (Units=GPa)
#
#
# Indices 1 2 3 4 5 6 
#
# 1 85.3670 36.1367 29.4890 0.0000 0.0000 0.0000
# 2 36.1367 111.6434 61.0706 0.0000 0.0000 0.0000
# 3 29.4890 61.0706 123.1558 0.0000 0.0000 0.0000
# 4 0.0000 0.0000 0.0000 10.2599 0.0000 0.0000
# 5 0.0000 0.0000 0.0000 0.0000 34.2663 0.0000
# 6 0.0000 0.0000 0.0000 0.0000 0.0000 18.6731
#
#
#
# Elastic Compliance Matrix: (Units=1/GPa)
#
#
# Indices 1 2 3 4 5 6 
#
# 1 0.013771 -0.003641 -0.001492 0.000000 0.000000 0.000000
# 2 -0.003641 0.013254 -0.005700 0.000000 0.000000 0.000000
# 3 -0.001492 -0.005700 0.011304 0.000000 0.000000 0.000000
# 4 0.000000 0.000000 0.000000 0.097467 0.000000 0.000000
# 5 0.000000 0.000000 0.000000 0.000000 0.029183 0.000000
# 6 0.000000 0.000000 0.000000 0.000000 0.000000 0.053553
#
#
# Mechanical properties :
#
#
# Convention : Reuss Voigt Hill
#
# Bulk Modulus (GPa) = 60.01862 63.72874 61.87368
# Shear Modulus (GPa) = 20.34566 25.53785 22.94175
#
# Velocity S-wave (km/s) = 3.15684 3.53679 3.35220
# Velocity P-wave (km/s) = 6.53343 6.92054 6.72977
#
# Compressibility (1/GPa) = 0.01666150
#
# Stress axis : x y z
#
# Youngs Moduli (GPa) = 72.61722 75.44906 88.46636
#
# Poissons Ratio (x) = 0.27474 0.13196
# Poissons Ratio (y) = 0.26443 0.50430
# Poissons Ratio (z) = 0.10832 0.43010
#
# Static dielectric constant tensor:
#      x y z
#    x 3.770350 0.000000 0.000000 
#    y 0.000000 3.796610 0.000000 
#    z 0.000000 0.000000 3.659930 
# 
# 
# High freq. dielectric constant tensor:
#      x y z
#    x 1.801470 0.000000 0.000000 
#    y 0.000000 1.794090 0.000000 
#    z 0.000000 0.000000 1.803970 
# 
# From -- ./inp_files/76677.got.cif
#   From: 2010.03.12/outbox.cif.g09.slc.cpg/sg65_39_cif.got.tgz:76677.got - 2010.04.10 20:52:16.
