data_PCOD8273074
_publ_section_title
;
Structure prediction by ZEFSAII (Michael W. Deem and Ramdas Pophale) SiO2 
 PCOD8273074
Probable space group: C M M M
;
_chemical_formula_sum "Si O2"
_cell_formula_units_Z 104
_cell_length_a 29.765217
_cell_length_b 19.045916
_cell_length_c 9.230466
_cell_angle_alpha 90.000000
_cell_angle_beta 90.000000
_cell_angle_gamma 90.000000
_cell_volume 5232.804922
_symmetry_space_group_name_H-M "C M M M"
_symmetry_group_IT_number 65
_symmetry_cell_setting 'orthorhombic'
loop_
_space_group_symop_operation_xyz
x,y,z
-x,-y,z
x,-y,-z
-x,y,-z
-x,-y,-z
x,y,-z
-x,y,z
x,-y,z
1/2+x,1/2+y,z
1/2-x,1/2-y,z
1/2+x,1/2-y,-z
1/2-x,1/2+y,-z
1/2-x,1/2-y,-z
1/2+x,1/2+y,-z
1/2-x,1/2+y,z
1/2+x,1/2-y,z
loop_
_atom_site_type_symbol
_atom_site_label
_atom_site_fract_x
_atom_site_fract_y
_atom_site_fract_z
Si Si1 0.051664 0.581630 0.831994
Si Si2 0.874717 0.803872 0.664464
Si Si3 0.285962 0.917448 0.838783
Si Si4 0.632632 0.144958 0.666589
Si Si5 0.553166 0.500000 0.660701
Si Si6 0.551546 0.635707 0.831594
Si Si7 0.697890 0.419054 0.669110
O O1 0.061244 0.500000 0.799504
O O2 0.083642 0.629567 0.733449
O O3 0.000000 0.600113 0.794489
O O4 0.061428 0.598121 0.000000
O O5 0.890366 0.818506 0.500000
O O6 0.853634 0.726780 0.678260
O O7 0.918078 0.801917 0.769822
O O8 0.840817 0.864843 0.716249
O O9 0.330366 0.897505 0.753102
O O10 0.241738 0.892704 0.754047
O O11 0.285287 0.000000 0.851959
O O12 0.286396 0.883794 0.000000
O O13 0.632237 0.120420 0.500000
O O14 0.500000 0.500000 0.649370
O O15 0.575121 0.500000 0.500000
O O16 0.569471 0.567427 0.747611
O O17 0.500000 0.653229 0.797327
O O18 0.559331 0.623264 0.000000
O O19 0.708753 0.412001 0.500000
O O20 0.684386 0.500000 0.707363
#
# Coordination Sequence:
#
# PCOD8273074 Si02
#       7
#    16  16  16  16   8  16  16
#     4   9  19  37  60  85 114 149 190 236 284 335
#     4  10  23  39  55  81 114 151 192 233 284 341
#     4  10  21  38  61  87 113 143 182 228 280 340
#     4  11  23  37  55  83 119 153 188 232 279 334
#     4   9  17  31  53  77 101 135 179 227 279 331
#     4  10  21  36  54  79 110 144 187 237 284 331
#     4   9  19  38  62  84 107 140 185 234 282 335
#
# _framework density 19.874618000000002
#
# number of rings (size 3 to 8) (size 9 to 14) (size 15 to 20)
#    0.000    2.231    0.000    2.538    1.077    8.308 
#    0.000    6.923    0.000    0.000    0.000    0.000 
#    0.000    0.000    0.000    0.000    0.000    0.000 
#
# Total GULP energy -644814.274475 kJ/mol
# GULP energy per Si atom -12400.274509 kJ/mol
# Density = 1.982938 g / cm^3
# Si number density = 19.874618 Si / 1000 Ang^3
#
#
#
# Elastic Constant Matrix: (Units=GPa)
#
#
# Indices 1 2 3 4 5 6 
#
# 1 112.4370 32.7456 64.7438 0.0000 0.0000 0.0000
# 2 32.7456 41.7359 24.6629 0.0000 0.0000 0.0000
# 3 64.7438 24.6629 111.0174 0.0000 0.0000 0.0000
# 4 0.0000 0.0000 0.0000 22.1737 0.0000 0.0000
# 5 0.0000 0.0000 0.0000 0.0000 36.9949 0.0000
# 6 0.0000 0.0000 0.0000 0.0000 0.0000 18.6185
#
#
#
# Elastic Compliance Matrix: (Units=1/GPa)
#
#
# Indices 1 2 3 4 5 6 
#
# 1 0.015295 -0.007746 -0.007199 0.000000 0.000000 0.000000
# 2 -0.007746 0.031504 -0.002481 0.000000 0.000000 0.000000
# 3 -0.007199 -0.002481 0.013757 0.000000 0.000000 0.000000
# 4 0.000000 0.000000 0.000000 0.045099 0.000000 0.000000
# 5 0.000000 0.000000 0.000000 0.000000 0.027031 0.000000
# 6 0.000000 0.000000 0.000000 0.000000 0.000000 0.053710
#
#
# Mechanical properties :
#
#
# Convention : Reuss Voigt Hill
#
# Bulk Modulus (GPa) = 38.90549 56.61054 47.75802
# Shear Modulus (GPa) = 21.75643 25.09329 23.42486
#
# Velocity S-wave (km/s) = 3.31219 3.55713 3.43685
# Velocity P-wave (km/s) = 5.85196 6.73919 6.31118
#
# Compressibility (1/GPa) = 0.02570331
#
# Stress axis : x y z
#
# Youngs Moduli (GPa) = 65.37947 31.74184 72.68905
#
# Poissons Ratio (x) = 0.24589 0.52330
# Poissons Ratio (y) = 0.50646 0.18035
# Poissons Ratio (z) = 0.47068 0.07876
#
# Static dielectric constant tensor:
#      x y z
#    x 3.542290 0.000000 0.000000 
#    y 0.000000 3.524630 0.000000 
#    z 0.000000 0.000000 3.773020 
# 
# 
# High freq. dielectric constant tensor:
#      x y z
#    x 1.775120 0.000000 0.000000 
#    y 0.000000 1.764930 0.000000 
#    z 0.000000 0.000000 1.780610 
# 
# From -- ./inp_files/16500.got.cif
#   From: 2010.03.12/outbox.cif.g09.slc.cpg/sg65_9_cif.got.tgz:16500.got - 2010.04.10 20:52:16.
