data_PCOD8273722
_publ_section_title
;
Structure prediction by ZEFSAII (Michael W. Deem and Ramdas Pophale) SiO2 
 PCOD8273722
Probable space group: C M M M
;
_chemical_formula_sum "Si O2"
_cell_formula_units_Z 88
_cell_length_a 20.672656
_cell_length_b 24.622634
_cell_length_c 8.504453
_cell_angle_alpha 90.000000
_cell_angle_beta 90.000000
_cell_angle_gamma 90.000000
_cell_volume 4328.896206
_symmetry_space_group_name_H-M "C M M M"
_symmetry_group_IT_number 65
_symmetry_cell_setting 'orthorhombic'
loop_
_space_group_symop_operation_xyz
x,y,z
-x,-y,z
x,-y,-z
-x,y,-z
-x,-y,-z
x,y,-z
-x,y,z
x,-y,z
1/2+x,1/2+y,z
1/2-x,1/2-y,z
1/2+x,1/2-y,-z
1/2-x,1/2+y,-z
1/2-x,1/2-y,-z
1/2+x,1/2+y,-z
1/2-x,1/2+y,z
1/2+x,1/2-y,z
loop_
_atom_site_type_symbol
_atom_site_label
_atom_site_fract_x
_atom_site_fract_y
_atom_site_fract_z
Si Si1 0.312805 0.781422 0.182488
Si Si2 0.000000 0.563003 0.685930
Si Si3 0.292838 0.000000 0.813160
Si Si4 0.867476 0.605048 0.812580
Si Si5 0.850752 0.000000 0.812378
Si Si6 0.573647 0.397395 0.177712
Si Si7 0.573529 0.283730 0.319524
O O1 0.250000 0.750000 0.259084
O O2 0.328833 0.841577 0.251621
O O3 0.377730 0.747421 0.206924
O O4 0.297901 0.788070 0.000000
O O5 0.939207 0.598328 0.744180
O O6 0.000000 0.500000 0.751049
O O7 0.000000 0.561167 0.500000
O O8 0.328127 0.053365 0.749686
O O9 0.221113 0.000000 0.744409
O O10 0.291656 0.000000 0.000000
O O11 0.872679 0.607179 0.000000
O O12 0.885150 0.946149 0.748710
O O13 0.854208 0.000000 0.000000
O O14 0.500000 0.416811 0.175079
O O15 0.584295 0.347277 0.293139
O O16 0.596057 0.382004 0.000000
O O17 0.588302 0.269454 0.500000
O O18 0.500000 0.267429 0.274069
#
# Coordination Sequence:
#
# PCOD8273722 Si02
#       7
#    16   8   8  16   8  16  16
#     4  10  23  40  62  89 116 149 194 245 295 349
#     4  11  23  39  61  89 121 155 191 238 295 350
#     4   9  18  32  54  84 113 144 183 230 288 346
#     4  10  21  38  61  87 115 149 191 238 291 349
#     4   9  17  28  53  85 114 144 183 234 286 335
#     4   9  17  31  54  83 113 145 186 236 283 329
#     4  10  22  39  57  80 114 155 194 233 281 339
#
# _framework density 20.328509
#
# number of rings (size 3 to 8) (size 9 to 14) (size 15 to 20)
#    0.000    2.273    0.909    1.091    3.818    3.636 
#    0.000    0.455    0.000    3.273    0.000    0.000 
#    0.000    0.000    0.000    0.000    0.000    0.000 
#
# Total GULP energy -545452.359952 kJ/mol
# GULP energy per Si atom -12396.644544 kJ/mol
# Density = 2.028224 g / cm^3
# Si number density = 20.328509 Si / 1000 Ang^3
#
#
#
# Elastic Constant Matrix: (Units=GPa)
#
#
# Indices 1 2 3 4 5 6 
#
# 1 140.7911 94.0781 15.2101 0.0000 0.0000 0.0000
# 2 94.0781 144.9744 10.3522 0.0000 0.0000 0.0000
# 3 15.2101 10.3522 18.4964 0.0000 0.0000 0.0000
# 4 0.0000 0.0000 0.0000 13.2674 0.0000 0.0000
# 5 0.0000 0.0000 0.0000 0.0000 11.8562 0.0000
# 6 0.0000 0.0000 0.0000 0.0000 0.0000 45.3275
#
#
#
# Elastic Compliance Matrix: (Units=1/GPa)
#
#
# Indices 1 2 3 4 5 6 
#
# 1 0.013214 -0.008123 -0.006319 0.000000 0.000000 0.000000
# 2 -0.008123 0.012179 -0.000136 0.000000 0.000000 0.000000
# 3 -0.006319 -0.000136 0.059338 0.000000 0.000000 0.000000
# 4 0.000000 0.000000 0.000000 0.075373 0.000000 0.000000
# 5 0.000000 0.000000 0.000000 0.000000 0.084344 0.000000
# 6 0.000000 0.000000 0.000000 0.000000 0.000000 0.022062
#
#
# Mechanical properties :
#
#
# Convention : Reuss Voigt Hill
#
# Bulk Modulus (GPa) = 17.99468 60.39365 39.19416
# Shear Modulus (GPa) = 15.91391 26.39833 21.15612
#
# Velocity S-wave (km/s) = 2.80096 3.60750 3.22951
# Velocity P-wave (km/s) = 4.39678 6.86480 5.76442
#
# Compressibility (1/GPa) = 0.05557198
#
# Stress axis : x y z
#
# Youngs Moduli (GPa) = 75.67978 82.10836 16.85273
#
# Poissons Ratio (x) = 0.66700 0.10650
# Poissons Ratio (y) = 0.61478 0.00230
# Poissons Ratio (z) = 0.47824 0.01120
#
# Static dielectric constant tensor:
#      x y z
#    x 3.827450 0.000000 0.000000 
#    y 0.000000 3.915210 0.000000 
#    z 0.000000 0.000000 3.234700 
# 
# 
# High freq. dielectric constant tensor:
#      x y z
#    x 1.802940 0.000000 0.000000 
#    y 0.000000 1.804430 0.000000 
#    z 0.000000 0.000000 1.753410 
# 
# From -- ./inp_files/11909.got.cif
#   From: 2010.03.12/outbox.cif.g09.slc.cpg/sg65_6_cif.got.tgz:11909.got - 2010.04.10 20:52:16.
