data_PCOD8273789
_publ_section_title
;
Structure prediction by ZEFSAII (Michael W. Deem and Ramdas Pophale) SiO2 
 PCOD8273789
Probable space group: C M M M
;
_chemical_formula_sum "Si O2"
_cell_formula_units_Z 104
_cell_length_a 25.108232
_cell_length_b 16.251737
_cell_length_c 12.669530
_cell_angle_alpha 90.000000
_cell_angle_beta 90.000000
_cell_angle_gamma 90.000000
_cell_volume 5169.831908
_symmetry_space_group_name_H-M "C M M M"
_symmetry_group_IT_number 65
_symmetry_cell_setting 'orthorhombic'
loop_
_space_group_symop_operation_xyz
x,y,z
-x,-y,z
x,-y,-z
-x,y,-z
-x,-y,-z
x,y,-z
-x,y,z
x,-y,z
1/2+x,1/2+y,z
1/2-x,1/2-y,z
1/2+x,1/2-y,-z
1/2-x,1/2+y,-z
1/2-x,1/2-y,-z
1/2+x,1/2+y,-z
1/2-x,1/2+y,z
1/2+x,1/2-y,z
loop_
_atom_site_type_symbol
_atom_site_label
_atom_site_fract_x
_atom_site_fract_y
_atom_site_fract_z
Si Si1 0.874148 0.185804 0.311097
Si Si2 0.611121 0.901721 0.000000
Si Si3 0.062457 0.589584 0.614652
Si Si4 0.562300 0.801551 0.809572
Si Si5 0.228252 0.903412 0.223379
Si Si6 0.204229 0.683840 0.614739
Si Si7 0.563116 0.401908 0.500000
Si Si8 0.234790 0.596997 0.000000
O O1 0.909770 0.212357 0.208200
O O2 0.826902 0.128156 0.270665
O O3 0.850518 0.269275 0.361227
O O4 0.910113 0.137018 0.395745
O O5 0.584860 0.858582 0.900348
O O6 0.672899 0.880224 0.000000
O O7 0.599525 0.000000 0.000000
O O8 0.083397 0.619970 0.500000
O O9 0.087738 0.500000 0.641051
O O10 0.078281 0.654233 0.701550
O O11 0.000000 0.579408 0.610940
O O12 0.500000 0.788193 0.828647
O O13 0.279667 0.881723 0.295454
O O14 0.237857 0.865982 0.105699
O O15 0.224416 0.000000 0.216609
O O16 0.199930 0.639771 0.500000
O O17 0.250000 0.750000 0.611501
O O18 0.572628 0.500000 0.500000
O O19 0.500000 0.381100 0.500000
O O20 0.241734 0.500000 0.000000
#
# Coordination Sequence:
#
# PCOD8273789 Si02
#       8
#    16   8  16  16  16  16   8   8
#     4  11  22  39  60  90 124 165 210 255 318 384
#     4  11  23  41  65  91 126 167 214 268 323 383
#     4   8  15  29  49  73 102 142 196 250 299 354
#     4  11  23  36  55  84 121 167 214 261 309 361
#     4  10  21  38  64  91 121 163 207 260 320 387
#     4   9  18  34  55  85 120 153 193 250 316 383
#     4  11  24  42  65  94 131 173 218 267 314 370
#     4   9  20  40  60  86 116 145 194 252 309 366
#
# _framework density 20.116709
#
# number of rings (size 3 to 8) (size 9 to 14) (size 15 to 20)
#    0.000    2.077    0.769    3.000    2.154    2.154 
#    0.000    5.000    0.000    0.000    0.000    0.000 
#    0.000    8.615    0.000    0.000    0.000    0.000 
#
# Total GULP energy -644304.213352 kJ/mol
# GULP energy per Si atom -12390.465641 kJ/mol
# Density = 2.007092 g / cm^3
# Si number density = 20.116709 Si / 1000 Ang^3
#
#
#
# Elastic Constant Matrix: (Units=GPa)
#
#
# Indices 1 2 3 4 5 6 
#
# 1 129.1194 51.6739 61.0751 0.0000 0.0000 0.0000
# 2 51.6739 65.1051 38.1642 0.0000 0.0000 0.0000
# 3 61.0751 38.1642 127.3148 0.0000 0.0000 0.0000
# 4 0.0000 0.0000 0.0000 28.3065 0.0000 0.0000
# 5 0.0000 0.0000 0.0000 0.0000 32.6836 0.0000
# 6 0.0000 0.0000 0.0000 0.0000 0.0000 29.2883
#
#
#
# Elastic Compliance Matrix: (Units=1/GPa)
#
#
# Indices 1 2 3 4 5 6 
#
# 1 0.012646 -0.007863 -0.003710 0.000000 0.000000 0.000000
# 2 -0.007863 0.023523 -0.003279 0.000000 0.000000 0.000000
# 3 -0.003710 -0.003279 0.010617 0.000000 0.000000 0.000000
# 4 0.000000 0.000000 0.000000 0.035328 0.000000 0.000000
# 5 0.000000 0.000000 0.000000 0.000000 0.030596 0.000000
# 6 0.000000 0.000000 0.000000 0.000000 0.000000 0.034143
#
#
# Mechanical properties :
#
#
# Convention : Reuss Voigt Hill
#
# Bulk Modulus (GPa) = 58.53890 69.26286 63.90088
# Shear Modulus (GPa) = 27.43472 29.43077 28.43274
#
# Velocity S-wave (km/s) = 3.69694 3.82907 3.76359
# Velocity P-wave (km/s) = 6.88375 7.35216 7.12181
#
# Compressibility (1/GPa) = 0.01708266
#
# Stress axis : x y z
#
# Youngs Moduli (GPa) = 79.07557 42.51203 94.18717
#
# Poissons Ratio (x) = 0.33426 0.34940
# Poissons Ratio (y) = 0.62175 0.30888
# Poissons Ratio (z) = 0.29334 0.13941
#
# Static dielectric constant tensor:
#      x y z
#    x 3.861650 0.000000 0.000000 
#    y 0.000000 3.572330 0.000000 
#    z 0.000000 0.000000 4.025930 
# 
# 
# High freq. dielectric constant tensor:
#      x y z
#    x 1.797000 0.000000 0.000000 
#    y 0.000000 1.771800 0.000000 
#    z 0.000000 0.000000 1.791790 
# 
# From -- ./inp_files/32571.got.cif
#   From: 2010.03.12/outbox.cif.g09.slc.cpg/sg65_17_cif.got.tgz:32571.got - 2010.04.10 20:52:16.
