data_PCOD8273388
_publ_section_title
;
Structure prediction by ZEFSAII (Michael W. Deem and Ramdas Pophale) SiO2 
 PCOD8273388
Probable space group: C M M M
;
_chemical_formula_sum "Si O2"
_cell_formula_units_Z 96
_cell_length_a 19.708234
_cell_length_b 8.695865
_cell_length_c 29.719957
_cell_angle_alpha 90.000000
_cell_angle_beta 90.000000
_cell_angle_gamma 90.000000
_cell_volume 5093.410458
_symmetry_space_group_name_H-M "C M M M"
_symmetry_group_IT_number 65
_symmetry_cell_setting 'orthorhombic'
loop_
_space_group_symop_operation_xyz
x,y,z
-x,-y,z
x,-y,-z
-x,y,-z
-x,-y,-z
x,y,-z
-x,y,z
x,-y,z
1/2+x,1/2+y,z
1/2-x,1/2-y,z
1/2+x,1/2-y,-z
1/2-x,1/2+y,-z
1/2-x,1/2-y,-z
1/2+x,1/2+y,-z
1/2-x,1/2+y,z
1/2+x,1/2-y,z
loop_
_atom_site_type_symbol
_atom_site_label
_atom_site_fract_x
_atom_site_fract_y
_atom_site_fract_z
Si Si1 0.921575 0.676323 0.948214
Si Si2 0.320955 0.679890 0.119263
Si Si3 0.820927 0.179091 0.552456
Si Si4 0.678195 0.818968 0.214682
Si Si5 0.578456 0.178024 0.620961
Si Si6 0.920944 0.821592 0.285433
O O1 0.903465 0.500000 0.937001
O O2 0.877760 0.789362 0.917841
O O3 0.000000 0.708846 0.937854
O O4 0.905154 0.712558 0.000000
O O5 0.311786 0.500000 0.126497
O O6 0.250000 0.750000 0.102357
O O7 0.343657 0.753902 0.166309
O O8 0.832514 0.210837 0.500000
O O9 0.750000 0.250000 0.568786
O O10 0.881253 0.263423 0.577921
O O11 0.821246 0.000000 0.564049
O O12 0.750000 0.750000 0.230622
O O13 0.620150 0.777661 0.249813
O O14 0.685919 0.000000 0.211101
O O15 0.500000 0.207821 0.610279
O O16 0.601790 0.272633 0.664705
O O17 0.593743 0.000000 0.629977
O O18 0.000000 0.784924 0.278081
O O19 0.904406 0.000000 0.278488
#
# Coordination Sequence:
#
# PCOD8273388 Si02
#       6
#    16  16  16  16  16  16
#     4   9  19  37  59  82 110 144 182 225 273 324
#     4  11  22  37  57  81 111 145 183 226 272 323
#     4  10  21  37  57  81 110 144 183 227 274 324
#     4  11  22  38  59  82 111 144 182 226 272 324
#     4  10  21  37  57  82 112 145 182 224 271 323
#     4  10  21  38  59  83 112 144 181 225 271 321
#
# _framework density 18.847882999999999
#
# number of rings (size 3 to 8) (size 9 to 14) (size 15 to 20)
#    0.000    1.833    0.000    6.000    0.000    5.667 
#    0.000    5.833    0.000    0.000    0.000    0.000 
#    0.000    0.000    0.000    0.000    0.000    0.000 
#
# Total GULP energy -595459.533257 kJ/mol
# GULP energy per Si atom -12405.406943 kJ/mol
# Density = 1.880498 g / cm^3
# Si number density = 18.847883 Si / 1000 Ang^3
#
#
#
# Elastic Constant Matrix: (Units=GPa)
#
#
# Indices 1 2 3 4 5 6 
#
# 1 88.8273 52.2931 64.8553 0.0000 0.0000 0.0000
# 2 52.2931 129.1315 46.8873 0.0000 0.0000 0.0000
# 3 64.8553 46.8873 88.6811 0.0000 0.0000 0.0000
# 4 0.0000 0.0000 0.0000 35.3749 0.0000 0.0000
# 5 0.0000 0.0000 0.0000 0.0000 -3.5671 0.0000
# 6 0.0000 0.0000 0.0000 0.0000 0.0000 34.3779
#
#
#
# Elastic Compliance Matrix: (Units=1/GPa)
#
#
# Indices 1 2 3 4 5 6 
#
# 1 0.026116 -0.004506 -0.016717 0.000000 0.000000 0.000000
# 2 -0.004506 0.010361 -0.002183 0.000000 0.000000 0.000000
# 3 -0.016717 -0.002183 0.024656 0.000000 0.000000 0.000000
# 4 0.000000 0.000000 0.000000 0.028269 0.000000 0.000000
# 5 0.000000 0.000000 0.000000 0.000000 -0.280341 0.000000
# 6 0.000000 0.000000 0.000000 0.000000 0.000000 0.029088
#
#
# Mechanical properties :
#
#
# Convention : Reuss Voigt Hill
#
# Bulk Modulus (GPa) = 69.82395 70.52348 70.17371
# Shear Modulus (GPa) = -45.34591 22.74409 -11.30091
#
# Velocity S-wave (km/s) = -4.91031 3.47755 -2.45130
# Velocity P-wave (km/s) = 2.23121 7.32277 5.41300
#
# Compressibility (1/GPa) = 0.01432173
#
# Stress axis : x y z
#
# Youngs Moduli (GPa) = 38.29037 96.51206 40.55761
#
# Poissons Ratio (x) = 0.43489 0.67801
# Poissons Ratio (y) = 0.17254 0.08853
# Poissons Ratio (z) = 0.64011 0.21067
#
# Static dielectric constant tensor:
#      x y z
#    x 3.409560 0.000000 0.000000 
#    y 0.000000 3.550420 0.000000 
#    z 0.000000 0.000000 3.401500 
# 
# 
# High freq. dielectric constant tensor:
#      x y z
#    x 1.733220 0.000000 0.000000 
#    y 0.000000 1.747660 0.000000 
#    z 0.000000 0.000000 1.734110 
# 
# From -- ./inp_files/75334.got.cif
#   From: 2010.03.12/outbox.cif.g09.slc.cpg/sg65_38_cif.got.tgz:75334.got - 2010.04.10 20:52:16.
