data_PCOD8273750
_publ_section_title
;
Structure prediction by ZEFSAII (Michael W. Deem and Ramdas Pophale) SiO2 
 PCOD8273750
Probable space group: C M M M
;
_chemical_formula_sum "Si O2"
_cell_formula_units_Z 64
_cell_length_a 17.723376
_cell_length_b 20.503778
_cell_length_c 8.442813
_cell_angle_alpha 90.000000
_cell_angle_beta 90.000000
_cell_angle_gamma 90.000000
_cell_volume 3068.085882
_symmetry_space_group_name_H-M "C M M M"
_symmetry_group_IT_number 65
_symmetry_cell_setting 'orthorhombic'
loop_
_space_group_symop_operation_xyz
x,y,z
-x,-y,z
x,-y,-z
-x,y,-z
-x,-y,-z
x,y,-z
-x,y,z
x,-y,z
1/2+x,1/2+y,z
1/2-x,1/2-y,z
1/2+x,1/2-y,-z
1/2-x,1/2+y,-z
1/2-x,1/2-y,-z
1/2+x,1/2+y,-z
1/2-x,1/2+y,z
1/2+x,1/2-y,z
loop_
_atom_site_type_symbol
_atom_site_label
_atom_site_fract_x
_atom_site_fract_y
_atom_site_fract_z
Si Si1 0.086695 0.619109 0.317322
Si Si2 0.835301 0.000000 0.316190
Si Si3 0.826891 0.500000 0.180509
Si Si4 0.911350 0.130449 0.315819
Si Si5 0.336765 0.243334 0.183225
O O1 0.094481 0.598810 0.500000
O O2 0.123721 0.563724 0.210866
O O3 0.127245 0.687623 0.290905
O O4 0.000000 0.626315 0.266697
O O5 0.872849 0.934808 0.244714
O O6 0.854490 0.000000 0.500000
O O7 0.746161 0.000000 0.290654
O O8 0.799488 0.500000 0.000000
O O9 0.890788 0.141411 0.500000
O O10 0.879876 0.189684 0.213793
O O11 0.000000 0.124491 0.290412
O O12 0.250000 0.250000 0.233169
O O13 0.344886 0.223812 0.000000
#
# Coordination Sequence:
#
# PCOD8273750 Si02
#       5
#    16   8   8  16  16
#     4  11  24  42  64  89 117 153 199 246 292 348
#     4  10  21  39  63  88 119 159 199 242 292 346
#     4  12  25  40  61  90 123 156 193 240 294 352
#     4  10  21  38  61  89 119 154 199 247 294 347
#     4  11  24  40  59  87 122 158 197 242 294 352
#
# _framework density 20.859912000000001
#
# number of rings (size 3 to 8) (size 9 to 14) (size 15 to 20)
#    0.000    1.250    0.000    5.625    0.000   15.500 
#    0.000    0.000    0.000    2.250    0.000    0.000 
#    0.000    0.000    0.000    0.000    0.000    0.000 
#
# Total GULP energy -397047.265552 kJ/mol
# GULP energy per Si atom -12407.727048 kJ/mol
# Density = 2.081243 g / cm^3
# Si number density = 20.859912 Si / 1000 Ang^3
#
#
#
# Elastic Constant Matrix: (Units=GPa)
#
#
# Indices 1 2 3 4 5 6 
#
# 1 134.2810 49.0680 17.8752 0.0000 0.0000 0.0000
# 2 49.0680 148.3919 11.9889 0.0000 0.0000 0.0000
# 3 17.8752 11.9889 36.2987 0.0000 0.0000 0.0000
# 4 0.0000 0.0000 0.0000 32.2216 0.0000 0.0000
# 5 0.0000 0.0000 0.0000 0.0000 19.1064 0.0000
# 6 0.0000 0.0000 0.0000 0.0000 0.0000 45.5774
#
#
#
# Elastic Compliance Matrix: (Units=1/GPa)
#
#
# Indices 1 2 3 4 5 6 
#
# 1 0.008883 -0.002655 -0.003497 0.000000 0.000000 0.000000
# 2 -0.002655 0.007717 -0.001242 0.000000 0.000000 0.000000
# 3 -0.003497 -0.001242 0.029682 0.000000 0.000000 0.000000
# 4 0.000000 0.000000 0.000000 0.031035 0.000000 0.000000
# 5 0.000000 0.000000 0.000000 0.000000 0.052339 0.000000
# 6 0.000000 0.000000 0.000000 0.000000 0.000000 0.021941
#
#
# Mechanical properties :
#
#
# Convention : Reuss Voigt Hill
#
# Bulk Modulus (GPa) = 31.75207 52.98175 42.36691
# Shear Modulus (GPa) = 28.26761 35.38371 31.82566
#
# Velocity S-wave (km/s) = 3.68518 4.12303 3.91024
# Velocity P-wave (km/s) = 5.77599 6.93684 6.38286
#
# Compressibility (1/GPa) = 0.03149401
#
# Stress axis : x y z
#
# Youngs Moduli (GPa) = 112.57868 129.58392 33.69089
#
# Poissons Ratio (x) = 0.34400 0.11783
# Poissons Ratio (y) = 0.29885 0.04183
# Poissons Ratio (z) = 0.39374 0.16088
#
# Static dielectric constant tensor:
#      x y z
#    x 3.861050 0.000000 0.000000 
#    y 0.000000 3.876160 0.000000 
#    z 0.000000 0.000000 3.600090 
# 
# 
# High freq. dielectric constant tensor:
#      x y z
#    x 1.832670 0.000000 0.000000 
#    y 0.000000 1.834300 0.000000 
#    z 0.000000 0.000000 1.807680 
# 
# From -- ./inp_files/8853.got.cif
#   From: 2010.03.12/outbox.cif.g09.slc.cpg/sg65_5_cif.got.tgz:8853.got - 2010.04.10 20:52:16.
