data_PCOD8273829
_publ_section_title
;
Structure prediction by ZEFSAII (Michael W. Deem and Ramdas Pophale) SiO2 
 PCOD8273829
Probable space group: C M M M
;
_chemical_formula_sum "Si O2"
_cell_formula_units_Z 80
_cell_length_a 19.791871
_cell_length_b 27.195611
_cell_length_c 7.524504
_cell_angle_alpha 90.000000
_cell_angle_beta 90.000000
_cell_angle_gamma 90.000000
_cell_volume 4050.079513
_symmetry_space_group_name_H-M "C M M M"
_symmetry_group_IT_number 65
_symmetry_cell_setting 'orthorhombic'
loop_
_space_group_symop_operation_xyz
x,y,z
-x,-y,z
x,-y,-z
-x,y,-z
-x,-y,-z
x,y,-z
-x,y,z
x,-y,z
1/2+x,1/2+y,z
1/2-x,1/2-y,z
1/2+x,1/2-y,-z
1/2-x,1/2+y,-z
1/2-x,1/2-y,-z
1/2+x,1/2+y,-z
1/2-x,1/2+y,z
1/2+x,1/2-y,z
loop_
_atom_site_type_symbol
_atom_site_label
_atom_site_fract_x
_atom_site_fract_y
_atom_site_fract_z
Si Si1 0.425575 0.557039 0.795721
Si Si2 0.325143 0.054923 0.709084
Si Si3 0.578882 0.858302 0.707589
Si Si4 0.803211 0.114151 0.696250
Si Si5 0.306517 0.688209 0.000000
Si Si6 0.648200 0.793702 0.000000
O O1 0.500000 0.578858 0.753881
O O2 0.426171 0.500000 0.752588
O O3 0.369789 0.581416 0.671835
O O4 0.406200 0.567011 0.000000
O O5 0.318656 0.049100 0.500000
O O6 0.389491 0.088658 0.759825
O O7 0.257682 0.081848 0.781459
O O8 0.332682 0.000000 0.793559
O O9 0.591630 0.846352 0.500000
O O10 0.500000 0.860726 0.753230
O O11 0.613864 0.815719 0.823134
O O12 0.782056 0.133508 0.500000
O O13 0.822943 0.159223 0.820637
O O14 0.357464 0.734636 0.000000
O O15 0.227407 0.697864 0.000000
#
# Coordination Sequence:
#
# PCOD8273829 Si02
#       6
#    16  16  16  16   8   8
#     4   9  18  33  54  81 116 158 199 238 286 349
#     4   9  18  33  56  89 125 159 196 236 283 344
#     4  10  21  39  63  90 123 160 198 243 294 351
#     4  11  21  37  59  87 120 154 193 245 298 349
#     4  11  24  40  62  88 112 144 195 254 304 346
#     4  11  23  42  64  86 112 150 199 246 298 355
#
# _framework density 19.752700000000001
#
# number of rings (size 3 to 8) (size 9 to 14) (size 15 to 20)
#    0.000    2.000    3.000    1.500    0.000    2.800 
#    0.000    8.500    0.000    1.200    0.000    0.000 
#    0.000    0.000    0.000    0.000    0.000    0.000 
#
# Total GULP energy -495867.747224 kJ/mol
# GULP energy per Si atom -12396.693681 kJ/mol
# Density = 1.970774 g / cm^3
# Si number density = 19.752700 Si / 1000 Ang^3
#
#
#
# Elastic Constant Matrix: (Units=GPa)
#
#
# Indices 1 2 3 4 5 6 
#
# 1 124.2624 62.5760 27.5230 0.0000 0.0000 0.0000
# 2 62.5760 143.4966 54.3178 0.0000 0.0000 0.0000
# 3 27.5230 54.3178 85.9368 0.0000 0.0000 0.0000
# 4 0.0000 0.0000 0.0000 29.7471 0.0000 0.0000
# 5 0.0000 0.0000 0.0000 0.0000 52.3444 0.0000
# 6 0.0000 0.0000 0.0000 0.0000 0.0000 29.7008
#
#
#
# Elastic Compliance Matrix: (Units=1/GPa)
#
#
# Indices 1 2 3 4 5 6 
#
# 1 0.010336 -0.004278 -0.000606 0.000000 0.000000 0.000000
# 2 -0.004278 0.010931 -0.005539 0.000000 0.000000 0.000000
# 3 -0.000606 -0.005539 0.015332 0.000000 0.000000 0.000000
# 4 0.000000 0.000000 0.000000 0.033617 0.000000 0.000000
# 5 0.000000 0.000000 0.000000 0.000000 0.019104 0.000000
# 6 0.000000 0.000000 0.000000 0.000000 0.000000 0.033669
#
#
# Mechanical properties :
#
#
# Convention : Reuss Voigt Hill
#
# Bulk Modulus (GPa) = 63.48353 71.39215 67.43784
# Shear Modulus (GPa) = 33.53769 36.31041 34.92405
#
# Velocity S-wave (km/s) = 4.12500 4.29213 4.20940
# Velocity P-wave (km/s) = 7.40922 7.79645 7.60530
#
# Compressibility (1/GPa) = 0.01575212
#
# Stress axis : x y z
#
# Youngs Moduli (GPa) = 96.74918 91.48343 65.22418
#
# Poissons Ratio (x) = 0.39134 0.03956
# Poissons Ratio (y) = 0.41387 0.36128
# Poissons Ratio (z) = 0.05868 0.50673
#
# Static dielectric constant tensor:
#      x y z
#    x 3.698830 0.000000 0.000000 
#    y 0.000000 3.699690 0.000000 
#    z 0.000000 0.000000 3.571580 
# 
# 
# High freq. dielectric constant tensor:
#      x y z
#    x 1.775500 0.000000 0.000000 
#    y 0.000000 1.750320 0.000000 
#    z 0.000000 0.000000 1.768110 
# 
# From -- ./inp_files/9736.got.cif
#   From: 2010.03.12/outbox.cif.g09.slc.cpg/sg65_5_cif.got.tgz:9736.got - 2010.04.10 20:52:16.
