data_PCOD8273615
_publ_section_title
;
Structure prediction by ZEFSAII (Michael W. Deem and Ramdas Pophale) SiO2 
 PCOD8273615
Probable space group: C M M M
;
_chemical_formula_sum "Si O2"
_cell_formula_units_Z 72
_cell_length_a 24.518388
_cell_length_b 16.664431
_cell_length_c 9.110465
_cell_angle_alpha 90.000000
_cell_angle_beta 90.000000
_cell_angle_gamma 90.000000
_cell_volume 3722.399206
_symmetry_space_group_name_H-M "C M M M"
_symmetry_group_IT_number 65
_symmetry_cell_setting 'orthorhombic'
loop_
_space_group_symop_operation_xyz
x,y,z
-x,-y,z
x,-y,-z
-x,y,-z
-x,-y,-z
x,y,-z
-x,y,z
x,-y,z
1/2+x,1/2+y,z
1/2-x,1/2-y,z
1/2+x,1/2-y,-z
1/2-x,1/2+y,-z
1/2-x,1/2-y,-z
1/2+x,1/2+y,-z
1/2-x,1/2+y,z
1/2+x,1/2-y,z
loop_
_atom_site_type_symbol
_atom_site_label
_atom_site_fract_x
_atom_site_fract_y
_atom_site_fract_z
Si Si1 0.757756 0.909938 0.669038
Si Si2 0.851591 0.627220 0.171989
Si Si3 0.150966 0.812224 0.171223
Si Si4 0.939181 0.500000 0.826915
Si Si5 0.437823 0.593042 0.665583
O O1 0.752475 0.885284 0.500000
O O2 0.698664 0.909634 0.741054
O O3 0.796352 0.845638 0.746384
O O4 0.782278 0.000000 0.685022
O O5 0.858398 0.720006 0.212842
O O6 0.906080 0.579754 0.221833
O O7 0.840352 0.614652 0.000000
O O8 0.096777 0.858219 0.217689
O O9 0.161238 0.824401 0.000000
O O10 0.000000 0.500000 0.755012
O O11 0.945787 0.500000 0.000000
O O12 0.416380 0.608888 0.500000
O O13 0.500000 0.621553 0.679769
O O14 0.432624 0.500000 0.704230
#
# Coordination Sequence:
#
# PCOD8273615 Si02
#       5
#    16  16  16   8  16
#     4  11  23  38  58  83 113 151 192 233 285 347
#     4  10  21  38  59  83 113 148 188 236 286 341
#     4  11  23  35  54  87 118 147 188 237 288 343
#     4   9  18  36  63  87 109 147 192 233 284 341
#     4   9  19  37  58  79 109 151 194 232 276 336
#
# _framework density 19.342364
#
# number of rings (size 3 to 8) (size 9 to 14) (size 15 to 20)
#    0.000    1.889    1.111    3.333    0.000   10.222 
#    0.000    3.333    0.000    1.333    0.000    0.000 
#    0.000    0.000    0.000    0.000    0.000    0.000 
#
# Total GULP energy -446482.452527 kJ/mol
# GULP energy per Si atom -12402.290348 kJ/mol
# Density = 1.929834 g / cm^3
# Si number density = 19.342364 Si / 1000 Ang^3
#
#
#
# Elastic Constant Matrix: (Units=GPa)
#
#
# Indices 1 2 3 4 5 6 
#
# 1 137.5756 71.6803 45.8263 0.0000 0.0000 0.0000
# 2 71.6803 121.5155 51.9058 0.0000 0.0000 0.0000
# 3 45.8263 51.9058 71.6032 0.0000 0.0000 0.0000
# 4 0.0000 0.0000 0.0000 19.8238 0.0000 0.0000
# 5 0.0000 0.0000 0.0000 0.0000 29.7163 0.0000
# 6 0.0000 0.0000 0.0000 0.0000 0.0000 9.9743
#
#
#
# Elastic Compliance Matrix: (Units=1/GPa)
#
#
# Indices 1 2 3 4 5 6 
#
# 1 0.011036 -0.005060 -0.003395 0.000000 0.000000 0.000000
# 2 -0.005060 0.014240 -0.007085 0.000000 0.000000 0.000000
# 3 -0.003395 -0.007085 0.021275 0.000000 0.000000 0.000000
# 4 0.000000 0.000000 0.000000 0.050444 0.000000 0.000000
# 5 0.000000 0.000000 0.000000 0.000000 0.033652 0.000000
# 6 0.000000 0.000000 0.000000 0.000000 0.000000 0.100258
#
#
# Mechanical properties :
#
#
# Convention : Reuss Voigt Hill
#
# Bulk Modulus (GPa) = 64.63462 74.39101 69.51281
# Shear Modulus (GPa) = 18.71673 22.65499 20.68586
#
# Velocity S-wave (km/s) = 3.11409 3.42608 3.27381
# Velocity P-wave (km/s) = 6.81313 7.36168 7.09271
#
# Compressibility (1/GPa) = 0.01547159
#
# Stress axis : x y z
#
# Youngs Moduli (GPa) = 90.61357 70.22331 47.00438
#
# Poissons Ratio (x) = 0.35530 0.15959
# Poissons Ratio (y) = 0.45847 0.33301
# Poissons Ratio (z) = 0.30765 0.49751
#
# Static dielectric constant tensor:
#      x y z
#    x 3.707610 0.000000 0.000000 
#    y 0.000000 3.668140 0.000000 
#    z 0.000000 0.000000 3.428990 
# 
# 
# High freq. dielectric constant tensor:
#      x y z
#    x 1.758460 0.000000 0.000000 
#    y 0.000000 1.761310 0.000000 
#    z 0.000000 0.000000 1.742180 
# 
# From -- ./inp_files/7206.got.cif
#   From: 2010.03.12/outbox.cif.g09.slc.cpg/sg65_4_cif.got.tgz:7206.got - 2010.04.10 20:52:16.
