data_PCOD8273363
_publ_section_title
;
Structure prediction by ZEFSAII (Michael W. Deem and Ramdas Pophale) SiO2 
 PCOD8273363
Probable space group: C M M M
;
_chemical_formula_sum "Si O2"
_cell_formula_units_Z 88
_cell_length_a 8.138850
_cell_length_b 31.688390
_cell_length_c 17.167383
_cell_angle_alpha 90.000000
_cell_angle_beta 90.000000
_cell_angle_gamma 90.000000
_cell_volume 4427.589156
_symmetry_space_group_name_H-M "C M M M"
_symmetry_group_IT_number 65
_symmetry_cell_setting 'orthorhombic'
loop_
_space_group_symop_operation_xyz
x,y,z
-x,-y,z
x,-y,-z
-x,y,-z
-x,-y,-z
x,y,-z
-x,y,z
x,-y,z
1/2+x,1/2+y,z
1/2-x,1/2-y,z
1/2+x,1/2-y,-z
1/2-x,1/2+y,-z
1/2-x,1/2-y,-z
1/2+x,1/2+y,-z
1/2-x,1/2+y,z
1/2+x,1/2-y,z
loop_
_atom_site_type_symbol
_atom_site_label
_atom_site_fract_x
_atom_site_fract_y
_atom_site_fract_z
Si Si1 0.196379 0.627321 0.261974
Si Si2 0.500000 0.954855 0.591101
Si Si3 0.694021 0.580067 0.000000
Si Si4 0.306108 0.952946 0.836129
Si Si5 0.686077 0.401084 0.588300
Si Si6 0.807991 0.174465 0.000000
Si Si7 0.192358 0.294745 0.161172
O O1 0.260862 0.583891 0.221244
O O2 0.287888 0.634431 0.345753
O O3 0.262080 0.666541 0.211715
O O4 0.000000 0.627322 0.273034
O O5 0.500000 0.960632 0.500000
O O6 0.328510 0.933562 0.615503
O O7 0.500000 0.000000 0.633889
O O8 0.753530 0.555427 0.075656
O O9 0.770931 0.627481 0.000000
O O10 0.500000 0.581964 0.000000
O O11 0.500000 0.951503 0.831700
O O12 0.242067 0.000000 0.811969
O O13 0.719947 0.384460 0.500000
O O14 0.500000 0.419919 0.592089
O O15 0.753947 0.201375 0.926331
O O16 0.000000 0.169425 0.000000
O O17 0.250000 0.250000 0.196370
O O18 0.000000 0.297221 0.162779
#
# Coordination Sequence:
#
# PCOD8273363 Si02
#       7
#    16   8   8  16  16   8  16
#     4  10  21  38  59  86 116 154 194 242 298 356
#     4   9  18  34  56  82 118 157 197 249 295 346
#     4  11  22  35  54  79 112 152 194 242 289 335
#     4  10  21  37  57  80 110 151 197 239 283 341
#     4  10  21  37  60  88 117 156 202 246 301 362
#     4  11  22  37  58  82 113 154 196 238 293 349
#     4  11  23  39  61  87 117 151 191 239 295 356
#
# _framework density 19.875375999999999
#
# number of rings (size 3 to 8) (size 9 to 14) (size 15 to 20)
#    0.000    1.727    2.727    1.636    0.000    5.455 
#    0.000    1.818    0.000    0.545    0.000    0.000 
#    0.000    0.000    0.000    0.000    0.000    0.000 
#
# Total GULP energy -545272.344170 kJ/mol
# GULP energy per Si atom -12392.553277 kJ/mol
# Density = 1.983014 g / cm^3
# Si number density = 19.875376 Si / 1000 Ang^3
#
#
#
# Elastic Constant Matrix: (Units=GPa)
#
#
# Indices 1 2 3 4 5 6 
#
# 1 60.7305 32.8859 25.0509 0.0000 0.0000 0.0000
# 2 32.8859 147.7877 61.4695 0.0000 0.0000 0.0000
# 3 25.0509 61.4695 135.1940 0.0000 0.0000 0.0000
# 4 0.0000 0.0000 0.0000 11.2155 0.0000 0.0000
# 5 0.0000 0.0000 0.0000 0.0000 23.1831 0.0000
# 6 0.0000 0.0000 0.0000 0.0000 0.0000 22.3457
#
#
#
# Elastic Compliance Matrix: (Units=1/GPa)
#
#
# Indices 1 2 3 4 5 6 
#
# 1 0.019145 -0.003434 -0.001986 0.000000 0.000000 0.000000
# 2 -0.003434 0.008961 -0.003438 0.000000 0.000000 0.000000
# 3 -0.001986 -0.003438 0.009328 0.000000 0.000000 0.000000
# 4 0.000000 0.000000 0.000000 0.089163 0.000000 0.000000
# 5 0.000000 0.000000 0.000000 0.000000 0.043135 0.000000
# 6 0.000000 0.000000 0.000000 0.000000 0.000000 0.044751
#
#
# Mechanical properties :
#
#
# Convention : Reuss Voigt Hill
#
# Bulk Modulus (GPa) = 50.71656 64.72497 57.72077
# Shear Modulus (GPa) = 20.94060 26.30259 23.62160
#
# Velocity S-wave (km/s) = 3.24943 3.64177 3.45118
# Velocity P-wave (km/s) = 6.29691 7.09362 6.70711
#
# Compressibility (1/GPa) = 0.01971742
#
# Stress axis : x y z
#
# Youngs Moduli (GPa) = 52.23290 111.60088 107.20549
#
# Poissons Ratio (x) = 0.38325 0.21292
# Poissons Ratio (y) = 0.17937 0.36855
# Poissons Ratio (z) = 0.10374 0.38366
#
# Static dielectric constant tensor:
#      x y z
#    x 3.577430 0.000000 0.000000 
#    y 0.000000 3.729240 0.000000 
#    z 0.000000 0.000000 3.736660 
# 
# 
# High freq. dielectric constant tensor:
#      x y z
#    x 1.774350 0.000000 0.000000 
#    y 0.000000 1.756950 0.000000 
#    z 0.000000 0.000000 1.780890 
# 
# From -- ./inp_files/50535.got.cif
#   From: 2010.03.12/outbox.cif.g09.slc.cpg/sg65_26_cif.got.tgz:50535.got - 2010.04.10 20:52:16.
