data_PCOD8273870
_publ_section_title
;
Structure prediction by ZEFSAII (Michael W. Deem and Ramdas Pophale) SiO2 
 PCOD8273870
Probable space group: C M M M
;
_chemical_formula_sum "Si O2"
_cell_formula_units_Z 64
_cell_length_a 16.021548
_cell_length_b 8.771713
_cell_length_c 21.624180
_cell_angle_alpha 90.000000
_cell_angle_beta 90.000000
_cell_angle_gamma 90.000000
_cell_volume 3038.984861
_symmetry_space_group_name_H-M "C M M M"
_symmetry_group_IT_number 65
_symmetry_cell_setting 'orthorhombic'
loop_
_space_group_symop_operation_xyz
x,y,z
-x,-y,z
x,-y,-z
-x,y,-z
-x,-y,-z
x,y,-z
-x,y,z
x,-y,z
1/2+x,1/2+y,z
1/2-x,1/2-y,z
1/2+x,1/2-y,-z
1/2-x,1/2+y,-z
1/2-x,1/2-y,-z
1/2+x,1/2+y,-z
1/2-x,1/2+y,z
1/2+x,1/2-y,z
loop_
_atom_site_type_symbol
_atom_site_label
_atom_site_fract_x
_atom_site_fract_y
_atom_site_fract_z
Si Si1 0.906092 0.328464 0.262630
Si Si2 0.000000 0.174039 0.926887
Si Si3 0.662365 0.820190 0.133229
Si Si4 0.163882 0.178360 0.376022
Si Si5 0.904588 0.679937 0.500000
O O1 0.885082 0.500000 0.285355
O O2 0.846783 0.280395 0.206049
O O3 0.899912 0.215044 0.320840
O O4 0.000000 0.319701 0.236885
O O5 0.084410 0.253186 0.903710
O O6 0.000000 0.000000 0.903496
O O7 0.000000 0.184673 0.000000
O O8 0.750000 0.750000 0.109649
O O9 0.663711 0.000000 0.122038
O O10 0.250000 0.250000 0.353159
O O11 0.138682 0.254547 0.439875
O O12 0.170703 0.000000 0.386911
O O13 0.894373 0.500000 0.500000
O O14 0.000000 0.732182 0.500000
#
# Coordination Sequence:
#
# PCOD8273870 Si02
#       5
#    16   8  16  16   8
#     4  10  21  40  64  93 128 165 209 261 319 381
#     4  11  25  45  69  99 135 176 223 274 327 389
#     4  11  23  42  68 100 135 177 222 273 330 391
#     4  12  25  40  60  88 121 160 206 258 314 377
#     4  11  24  43  64  85 115 157 200 253 318 381
#
# _framework density 21.059664999999999
#
# number of rings (size 3 to 8) (size 9 to 14) (size 15 to 20)
#    0.000    1.000    1.250    5.625    0.000   10.000 
#    0.000    0.000    0.000    0.000    0.000    0.000 
#    0.000    0.000    0.000    0.000    0.000    0.000 
#
# Total GULP energy -396927.719862 kJ/mol
# GULP energy per Si atom -12403.991246 kJ/mol
# Density = 2.101173 g / cm^3
# Si number density = 21.059665 Si / 1000 Ang^3
#
#
#
# Elastic Constant Matrix: (Units=GPa)
#
#
# Indices 1 2 3 4 5 6 
#
# 1 135.3296 47.2142 40.2155 0.0000 0.0000 0.0000
# 2 47.2142 90.5638 39.6680 0.0000 0.0000 0.0000
# 3 40.2155 39.6680 87.2916 0.0000 0.0000 0.0000
# 4 0.0000 0.0000 0.0000 32.9799 0.0000 0.0000
# 5 0.0000 0.0000 0.0000 0.0000 23.7765 0.0000
# 6 0.0000 0.0000 0.0000 0.0000 0.0000 38.0224
#
#
#
# Elastic Compliance Matrix: (Units=1/GPa)
#
#
# Indices 1 2 3 4 5 6 
#
# 1 0.009501 -0.003790 -0.002655 0.000000 0.000000 0.000000
# 2 -0.003790 0.015298 -0.005206 0.000000 0.000000 0.000000
# 3 -0.002655 -0.005206 0.015044 0.000000 0.000000 0.000000
# 4 0.000000 0.000000 0.000000 0.030322 0.000000 0.000000
# 5 0.000000 0.000000 0.000000 0.000000 0.042058 0.000000
# 6 0.000000 0.000000 0.000000 0.000000 0.000000 0.026300
#
#
# Mechanical properties :
#
#
# Convention : Reuss Voigt Hill
#
# Bulk Modulus (GPa) = 60.45201 63.04228 61.74714
# Shear Modulus (GPa) = 29.87958 31.36158 30.62058
#
# Velocity S-wave (km/s) = 3.77079 3.86317 3.81726
# Velocity P-wave (km/s) = 6.90839 7.06391 6.98659
#
# Compressibility (1/GPa) = 0.01654205
#
# Stress axis : x y z
#
# Youngs Moduli (GPa) = 105.25691 65.36751 66.46964
#
# Poissons Ratio (x) = 0.24776 0.17645
# Poissons Ratio (y) = 0.39895 0.34602
# Poissons Ratio (z) = 0.27941 0.34029
#
# Static dielectric constant tensor:
#      x y z
#    x 3.988180 0.000000 0.000000 
#    y 0.000000 3.890200 0.000000 
#    z 0.000000 0.000000 3.680470 
# 
# 
# High freq. dielectric constant tensor:
#      x y z
#    x 1.839910 0.000000 0.000000 
#    y 0.000000 1.832230 0.000000 
#    z 0.000000 0.000000 1.827460 
# 
# From -- ./inp_files/69540.got.cif
#   From: 2010.03.12/outbox.cif.g09.slc.cpg/sg65_35_cif.got.tgz:69540.got - 2010.04.10 20:52:16.
