data_PCOD8273594
_publ_section_title
;
Structure prediction by ZEFSAII (Michael W. Deem and Ramdas Pophale) SiO2 
 PCOD8273594
Probable space group: C M M M
;
_chemical_formula_sum "Si O2"
_cell_formula_units_Z 64
_cell_length_a 19.001146
_cell_length_b 8.794934
_cell_length_c 20.772535
_cell_angle_alpha 90.000000
_cell_angle_beta 90.000000
_cell_angle_gamma 90.000000
_cell_volume 3471.377779
_symmetry_space_group_name_H-M "C M M M"
_symmetry_group_IT_number 65
_symmetry_cell_setting 'orthorhombic'
loop_
_space_group_symop_operation_xyz
x,y,z
-x,-y,z
x,-y,-z
-x,y,-z
-x,-y,-z
x,y,-z
-x,y,z
x,-y,z
1/2+x,1/2+y,z
1/2-x,1/2-y,z
1/2+x,1/2-y,-z
1/2-x,1/2+y,-z
1/2-x,1/2-y,-z
1/2+x,1/2+y,-z
1/2-x,1/2+y,z
1/2+x,1/2-y,z
loop_
_atom_site_type_symbol
_atom_site_label
_atom_site_fract_x
_atom_site_fract_y
_atom_site_fract_z
Si Si1 0.172893 0.320574 0.500000
Si Si2 0.918816 0.324405 0.743852
Si Si3 0.174664 0.322180 0.000000
Si Si4 0.826478 0.679724 0.861393
Si Si5 0.418583 0.677748 0.610431
O O1 0.180671 0.500000 0.500000
O O2 0.250000 0.250000 0.500000
O O3 0.130549 0.270158 0.437263
O O4 0.900984 0.500000 0.729056
O O5 0.876535 0.259138 0.804977
O O6 0.897269 0.224472 0.682476
O O7 0.000000 0.303405 0.761047
O O8 0.250000 0.250000 0.000000
O O9 0.138722 0.274837 0.068390
O O10 0.185760 0.500000 0.000000
O O11 0.819164 0.500000 0.855945
O O12 0.750000 0.750000 0.852298
O O13 0.500000 0.719736 0.596731
O O14 0.405112 0.500000 0.600471
#
# Coordination Sequence:
#
# PCOD8273594 Si02
#       5
#     8  16   8  16  16
#     4  12  25  40  59  83 111 139 169 210 257 302
#     4   9  18  33  51  72 100 134 171 209 251 301
#     4   8  14  26  43  65  93 125 163 204 250 302
#     4   9  17  29  47  70  96 128 166 209 254 302
#     4  10  21  38  59  81 106 138 175 212 252 304
#
# _framework density 18.436482999999999
#
# number of rings (size 3 to 8) (size 9 to 14) (size 15 to 20)
#    0.000    2.500    0.000    2.250    0.000    5.000 
#    0.000    3.125    0.000    3.750    0.000    0.000 
#    0.000   14.000    0.000    0.000    0.000    0.000 
#
# Total GULP energy -396580.373025 kJ/mol
# GULP energy per Si atom -12393.136657 kJ/mol
# Density = 1.839452 g / cm^3
# Si number density = 18.436483 Si / 1000 Ang^3
#
#
#
# Elastic Constant Matrix: (Units=GPa)
#
#
# Indices 1 2 3 4 5 6 
#
# 1 87.1470 41.3983 85.7786 0.0000 0.0000 0.0000
# 2 41.3983 66.9570 53.3564 0.0000 0.0000 0.0000
# 3 85.7786 53.3564 174.7729 0.0000 0.0000 0.0000
# 4 0.0000 0.0000 0.0000 23.6257 0.0000 0.0000
# 5 0.0000 0.0000 0.0000 0.0000 30.5553 0.0000
# 6 0.0000 0.0000 0.0000 0.0000 0.0000 25.8608
#
#
#
# Elastic Compliance Matrix: (Units=1/GPa)
#
#
# Indices 1 2 3 4 5 6 
#
# 1 0.024703 -0.007416 -0.009860 0.000000 0.000000 0.000000
# 2 -0.007416 0.021963 -0.003065 0.000000 0.000000 0.000000
# 3 -0.009860 -0.003065 0.011497 0.000000 0.000000 0.000000
# 4 0.000000 0.000000 0.000000 0.042327 0.000000 0.000000
# 5 0.000000 0.000000 0.000000 0.000000 0.032728 0.000000
# 6 0.000000 0.000000 0.000000 0.000000 0.000000 0.038668
#
#
# Mechanical properties :
#
#
# Convention : Reuss Voigt Hill
#
# Bulk Modulus (GPa) = 57.20906 76.66037 66.93472
# Shear Modulus (GPa) = 22.89422 25.89795 24.39608
#
# Velocity S-wave (km/s) = 3.52773 3.75201 3.64160
# Velocity P-wave (km/s) = 6.90586 7.77440 7.35296
#
# Compressibility (1/GPa) = 0.01747975
#
# Stress axis : x y z
#
# Youngs Moduli (GPa) = 40.48036 45.53153 86.97982
#
# Poissons Ratio (x) = 0.33767 0.85765
# Poissons Ratio (y) = 0.30021 0.26661
# Poissons Ratio (z) = 0.39915 0.13956
#
# Static dielectric constant tensor:
#      x y z
#    x 3.273210 0.000000 0.000000 
#    y 0.000000 3.425830 0.000000 
#    z 0.000000 0.000000 4.009470 
# 
# 
# High freq. dielectric constant tensor:
#      x y z
#    x 1.690060 0.000000 0.000000 
#    y 0.000000 1.712260 0.000000 
#    z 0.000000 0.000000 1.740130 
# 
# From -- ./inp_files/58861.got.cif
#   From: 2010.03.12/outbox.cif.g09.slc.cpg/sg65_30_cif.got.tgz:58861.got - 2010.04.10 20:52:16.
