data_PCOD8273076
_publ_section_title
;
Structure prediction by ZEFSAII (Michael W. Deem and Ramdas Pophale) SiO2 
 PCOD8273076
Probable space group: C M M M
;
_chemical_formula_sum "Si O2"
_cell_formula_units_Z 96
_cell_length_a 23.657733
_cell_length_b 23.374286
_cell_length_c 8.959916
_cell_angle_alpha 90.000000
_cell_angle_beta 90.000000
_cell_angle_gamma 90.000000
_cell_volume 4954.677800
_symmetry_space_group_name_H-M "C M M M"
_symmetry_group_IT_number 65
_symmetry_cell_setting 'orthorhombic'
loop_
_space_group_symop_operation_xyz
x,y,z
-x,-y,z
x,-y,-z
-x,y,-z
-x,-y,-z
x,y,-z
-x,y,z
x,-y,z
1/2+x,1/2+y,z
1/2-x,1/2-y,z
1/2+x,1/2-y,-z
1/2-x,1/2+y,-z
1/2-x,1/2-y,-z
1/2+x,1/2+y,-z
1/2-x,1/2+y,z
1/2+x,1/2-y,z
loop_
_atom_site_type_symbol
_atom_site_label
_atom_site_fract_x
_atom_site_fract_y
_atom_site_fract_z
Si Si1 0.843946 0.237463 0.326407
Si Si2 0.728889 0.370836 0.328689
Si Si3 0.564836 0.665762 0.169118
Si Si4 0.384095 0.434438 0.326684
Si Si5 0.159542 0.358817 0.824215
Si Si6 0.435111 0.065464 0.325372
O O1 0.847663 0.253346 0.500000
O O2 0.792073 0.194001 0.295920
O O3 0.902123 0.207977 0.278148
O O4 0.836583 0.294272 0.232400
O O5 0.747687 0.376208 0.500000
O O6 0.679663 0.415394 0.289569
O O7 0.782282 0.388581 0.228000
O O8 0.500000 0.683682 0.176273
O O9 0.572082 0.600855 0.226433
O O10 0.587884 0.670697 0.000000
O O11 0.397286 0.422600 0.500000
O O12 0.391735 0.500000 0.283567
O O13 0.105157 0.391693 0.762707
O O14 0.155138 0.359367 0.000000
O O15 0.425004 0.074486 0.500000
O O16 0.500000 0.079810 0.283819
O O17 0.421293 0.000000 0.280561
#
# Coordination Sequence:
#
# PCOD8273076 Si02
#       6
#    16  16  16  16  16  16
#     4  10  21  38  59  80 106 144 187 229 271 316
#     4   9  19  36  56  79 109 145 185 228 271 315
#     4  10  21  36  54  79 112 146 180 225 281 331
#     4   9  19  36  57  80 107 144 189 232 272 316
#     4  12  24  35  55  87 117 145 176 214 268 331
#     4   9  20  41  65  84 105 139 183 227 268 312
#
# _framework density 19.375629
#
# number of rings (size 3 to 8) (size 9 to 14) (size 15 to 20)
#    0.000    2.167    0.000    4.500    0.000    9.333 
#    0.000    4.167    0.000    0.000    0.000    0.000 
#    0.000    0.000    0.000    0.000    0.000    0.000 
#
# Total GULP energy -595279.331408 kJ/mol
# GULP energy per Si atom -12401.652738 kJ/mol
# Density = 1.933153 g / cm^3
# Si number density = 19.375629 Si / 1000 Ang^3
#
#
#
# Elastic Constant Matrix: (Units=GPa)
#
#
# Indices 1 2 3 4 5 6 
#
# 1 85.5092 8.5270 43.0688 0.0000 0.0000 0.0000
# 2 8.5270 26.8751 12.9671 0.0000 0.0000 0.0000
# 3 43.0688 12.9671 82.2408 0.0000 0.0000 0.0000
# 4 0.0000 0.0000 0.0000 16.5253 0.0000 0.0000
# 5 0.0000 0.0000 0.0000 0.0000 25.4889 0.0000
# 6 0.0000 0.0000 0.0000 0.0000 0.0000 17.7046
#
#
#
# Elastic Compliance Matrix: (Units=1/GPa)
#
#
# Indices 1 2 3 4 5 6 
#
# 1 0.015915 -0.001113 -0.008159 0.000000 0.000000 0.000000
# 2 -0.001113 0.040351 -0.005779 0.000000 0.000000 0.000000
# 3 -0.008159 -0.005779 0.017344 0.000000 0.000000 0.000000
# 4 0.000000 0.000000 0.000000 0.060513 0.000000 0.000000
# 5 0.000000 0.000000 0.000000 0.000000 0.039233 0.000000
# 6 0.000000 0.000000 0.000000 0.000000 0.000000 0.056482
#
#
# Mechanical properties :
#
#
# Convention : Reuss Voigt Hill
#
# Bulk Modulus (GPa) = 22.98499 35.97232 29.47865
# Shear Modulus (GPa) = 18.21872 20.61459 19.41665
#
# Velocity S-wave (km/s) = 3.06974 3.26535 3.16906
# Velocity P-wave (km/s) = 4.94500 5.72912 5.35144
#
# Compressibility (1/GPa) = 0.04350666
#
# Stress axis : x y z
#
# Youngs Moduli (GPa) = 62.83303 24.78265 57.65826
#
# Poissons Ratio (x) = 0.02758 0.47044
# Poissons Ratio (y) = 0.06992 0.33323
# Poissons Ratio (z) = 0.51267 0.14323
#
# Static dielectric constant tensor:
#      x y z
#    x 3.533170 0.000000 0.000000 
#    y 0.000000 3.546750 0.000000 
#    z 0.000000 0.000000 3.532030 
# 
# 
# High freq. dielectric constant tensor:
#      x y z
#    x 1.758510 0.000000 0.000000 
#    y 0.000000 1.750530 0.000000 
#    z 0.000000 0.000000 1.752000 
# 
# From -- ./inp_files/14278.got.cif
#   From: 2010.03.12/outbox.cif.g09.slc.cpg/sg65_8_cif.got.tgz:14278.got - 2010.04.10 20:52:16.
