data_PCOD8273649
_publ_section_title
;
Structure prediction by ZEFSAII (Michael W. Deem and Ramdas Pophale) SiO2 
 PCOD8273649
Probable space group: C M M M
;
_chemical_formula_sum "Si O2"
_cell_formula_units_Z 72
_cell_length_a 15.611527
_cell_length_b 8.681084
_cell_length_c 26.597616
_cell_angle_alpha 90.000000
_cell_angle_beta 90.000000
_cell_angle_gamma 90.000000
_cell_volume 3604.641303
_symmetry_space_group_name_H-M "C M M M"
_symmetry_group_IT_number 65
_symmetry_cell_setting 'orthorhombic'
loop_
_space_group_symop_operation_xyz
x,y,z
-x,-y,z
x,-y,-z
-x,y,-z
-x,-y,-z
x,y,-z
-x,y,z
x,-y,z
1/2+x,1/2+y,z
1/2-x,1/2-y,z
1/2+x,1/2-y,-z
1/2-x,1/2+y,-z
1/2-x,1/2-y,-z
1/2+x,1/2+y,-z
1/2-x,1/2+y,z
1/2+x,1/2-y,z
loop_
_atom_site_type_symbol
_atom_site_label
_atom_site_fract_x
_atom_site_fract_y
_atom_site_fract_z
Si Si1 0.338578 0.317380 0.212161
Si Si2 0.595833 0.316312 0.892968
Si Si3 0.500000 0.682769 0.621995
Si Si4 0.102324 0.829821 0.000000
Si Si5 0.161732 0.818290 0.556797
Si Si6 0.000000 0.318557 0.268912
O O1 0.339478 0.500000 0.217265
O O2 0.250000 0.250000 0.233589
O O3 0.346431 0.263157 0.153842
O O4 0.415789 0.251920 0.244306
O O5 0.500000 0.254713 0.882460
O O6 0.593575 0.500000 0.897251
O O7 0.630483 0.248118 0.947046
O O8 0.500000 0.500000 0.632314
O O9 0.416770 0.736100 0.591050
O O10 0.500000 0.776989 0.672946
O O11 0.000000 0.840159 0.000000
O O12 0.142652 0.000000 0.000000
O O13 0.146258 0.757609 0.500000
O O14 0.250000 0.750000 0.578864
O O15 0.168928 0.000000 0.557225
O O16 0.000000 0.500000 0.261124
#
# Coordination Sequence:
#
# PCOD8273649 Si02
#       6
#    16  16   8   8  16   8
#     4  11  22  39  61  85 113 148 192 239 292 349
#     4   8  13  25  48  77 108 142 179 224 276 337
#     4  10  21  38  60  84 115 155 194 235 285 339
#     4   7  10  18  39  74 108 137 174 216 268 333
#     4   9  18  34  58  88 121 156 192 229 274 330
#     4  12  26  43  61  84 113 150 197 249 300 347
#
# _framework density 19.974247999999999
#
# number of rings (size 3 to 8) (size 9 to 14) (size 15 to 20)
#    0.000    2.556    1.111    3.333    0.000    3.111 
#    0.000    2.778    0.000    3.333    0.000    3.111 
#    0.000    0.000    0.000    0.000    0.000    0.000 
#
# Total GULP energy -446120.444902 kJ/mol
# GULP energy per Si atom -12392.234581 kJ/mol
# Density = 1.992879 g / cm^3
# Si number density = 19.974248 Si / 1000 Ang^3
#
#
#
# Elastic Constant Matrix: (Units=GPa)
#
#
# Indices 1 2 3 4 5 6 
#
# 1 159.0144 41.8501 79.1800 0.0000 0.0000 0.0000
# 2 41.8501 56.2834 39.6100 0.0000 0.0000 0.0000
# 3 79.1800 39.6100 134.9377 0.0000 0.0000 0.0000
# 4 0.0000 0.0000 0.0000 15.9523 0.0000 0.0000
# 5 0.0000 0.0000 0.0000 0.0000 33.4406 0.0000
# 6 0.0000 0.0000 0.0000 0.0000 0.0000 26.5066
#
#
#
# Elastic Compliance Matrix: (Units=1/GPa)
#
#
# Indices 1 2 3 4 5 6 
#
# 1 0.009542 -0.003976 -0.004432 0.000000 0.000000 0.000000
# 2 -0.003976 0.024050 -0.004727 0.000000 0.000000 0.000000
# 3 -0.004432 -0.004727 0.011399 0.000000 0.000000 0.000000
# 4 0.000000 0.000000 0.000000 0.062687 0.000000 0.000000
# 5 0.000000 0.000000 0.000000 0.000000 0.029904 0.000000
# 6 0.000000 0.000000 0.000000 0.000000 0.000000 0.037726
#
#
# Mechanical properties :
#
#
# Convention : Reuss Voigt Hill
#
# Bulk Modulus (GPa) = 53.41396 74.61286 64.01341
# Shear Modulus (GPa) = 24.05948 27.81959 25.93953
#
# Velocity S-wave (km/s) = 3.47439 3.73604 3.60759
# Velocity P-wave (km/s) = 6.54940 7.48640 7.03352
#
# Compressibility (1/GPa) = 0.01872170
#
# Stress axis : x y z
#
# Youngs Moduli (GPa) = 104.79904 41.57995 87.72710
#
# Poissons Ratio (x) = 0.16532 0.38881
# Poissons Ratio (y) = 0.41668 0.41466
# Poissons Ratio (z) = 0.46448 0.19653
#
# Static dielectric constant tensor:
#      x y z
#    x 3.631870 0.000000 0.000000 
#    y 0.000000 3.209580 0.000000 
#    z 0.000000 0.000000 4.022800 
# 
# 
# High freq. dielectric constant tensor:
#      x y z
#    x 1.774360 0.000000 0.000000 
#    y 0.000000 1.739160 0.000000 
#    z 0.000000 0.000000 1.791100 
# 
# From -- ./inp_files/74665.got.cif
#   From: 2010.03.12/outbox.cif.g09.slc.cpg/sg65_38_cif.got.tgz:74665.got - 2010.04.10 20:52:16.
