data_PCOD8273473
_publ_section_title
;
Structure prediction by ZEFSAII (Michael W. Deem and Ramdas Pophale) SiO2 
 PCOD8273473
Probable space group: C M M M
;
_chemical_formula_sum "Si O2"
_cell_formula_units_Z 72
_cell_length_a 22.459524
_cell_length_b 17.580584
_cell_length_c 8.976751
_cell_angle_alpha 90.000000
_cell_angle_beta 90.000000
_cell_angle_gamma 90.000000
_cell_volume 3544.484031
_symmetry_space_group_name_H-M "C M M M"
_symmetry_group_IT_number 65
_symmetry_cell_setting 'orthorhombic'
loop_
_space_group_symop_operation_xyz
x,y,z
-x,-y,z
x,-y,-z
-x,y,-z
-x,-y,-z
x,y,-z
-x,y,z
x,-y,z
1/2+x,1/2+y,z
1/2-x,1/2-y,z
1/2+x,1/2-y,-z
1/2-x,1/2+y,-z
1/2-x,1/2-y,-z
1/2+x,1/2+y,-z
1/2-x,1/2+y,z
1/2+x,1/2-y,z
loop_
_atom_site_type_symbol
_atom_site_label
_atom_site_fract_x
_atom_site_fract_y
_atom_site_fract_z
Si Si1 0.000000 0.086385 0.677400
Si Si2 0.065024 0.415898 0.176882
Si Si3 0.257236 0.415144 0.670064
Si Si4 0.666953 0.808995 0.176926
Si Si5 0.376805 0.340774 0.669813
O O1 0.059432 0.130486 0.734201
O O2 0.000000 0.082942 0.500000
O O3 0.000000 0.000000 0.740634
O O4 0.076514 0.500000 0.241241
O O5 0.113987 0.360402 0.242946
O O6 0.000000 0.386528 0.227344
O O7 0.068935 0.417999 0.000000
O O8 0.236071 0.405522 0.500000
O O9 0.240035 0.500000 0.729308
O O10 0.227816 0.346853 0.764716
O O11 0.328971 0.408934 0.679344
O O12 0.652903 0.725535 0.234054
O O13 0.670588 0.806750 0.000000
O O14 0.385001 0.312888 0.500000
#
# Coordination Sequence:
#
# PCOD8273473 Si02
#       5
#     8  16  16  16  16
#     4   9  18  36  63  89 110 141 192 243 281 326
#     4   8  15  29  48  70  99 138 182 223 263 313
#     4  10  21  38  59  81 109 147 189 233 282 334
#     4  11  22  34  54  83 115 149 186 227 276 334
#     4  10  21  37  58  84 113 146 185 233 285 335
#
# _framework density 20.313253
#
# number of rings (size 3 to 8) (size 9 to 14) (size 15 to 20)
#    0.000    2.333    0.000    3.333    1.556    7.556 
#    0.000    0.000    0.000    2.667    0.000    4.667 
#    0.000    0.000    0.000    0.000    0.000    0.000 
#
# Total GULP energy -446198.284573 kJ/mol
# GULP energy per Si atom -12394.396794 kJ/mol
# Density = 2.026702 g / cm^3
# Si number density = 20.313253 Si / 1000 Ang^3
#
#
#
# Elastic Constant Matrix: (Units=GPa)
#
#
# Indices 1 2 3 4 5 6 
#
# 1 135.2445 55.2025 29.9852 0.0000 0.0000 0.0000
# 2 55.2025 114.8226 35.6798 0.0000 0.0000 0.0000
# 3 29.9852 35.6798 56.6700 0.0000 0.0000 0.0000
# 4 0.0000 0.0000 0.0000 17.3136 0.0000 0.0000
# 5 0.0000 0.0000 0.0000 0.0000 20.1708 0.0000
# 6 0.0000 0.0000 0.0000 0.0000 0.0000 66.4363
#
#
#
# Elastic Compliance Matrix: (Units=1/GPa)
#
#
# Indices 1 2 3 4 5 6 
#
# 1 0.009515 -0.003742 -0.002679 0.000000 0.000000 0.000000
# 2 -0.003742 0.012299 -0.005764 0.000000 0.000000 0.000000
# 3 -0.002679 -0.005764 0.022692 0.000000 0.000000 0.000000
# 4 0.000000 0.000000 0.000000 0.057758 0.000000 0.000000
# 5 0.000000 0.000000 0.000000 0.000000 0.049577 0.000000
# 6 0.000000 0.000000 0.000000 0.000000 0.000000 0.015052
#
#
# Mechanical properties :
#
#
# Convention : Reuss Voigt Hill
#
# Bulk Modulus (GPa) = 49.65786 60.94136 55.29961
# Shear Modulus (GPa) = 25.25574 33.17545 29.21560
#
# Velocity S-wave (km/s) = 3.52989 4.04566 3.79654
# Velocity P-wave (km/s) = 6.41191 7.20341 6.81915
#
# Compressibility (1/GPa) = 0.02013780
#
# Stress axis : x y z
#
# Youngs Moduli (GPa) = 105.09303 81.30604 44.06821
#
# Poissons Ratio (x) = 0.30427 0.11804
# Poissons Ratio (y) = 0.39329 0.25399
# Poissons Ratio (z) = 0.28150 0.46861
#
# Static dielectric constant tensor:
#      x y z
#    x 4.019830 0.000000 0.000000 
#    y 0.000000 3.755880 0.000000 
#    z 0.000000 0.000000 3.194140 
# 
# 
# High freq. dielectric constant tensor:
#      x y z
#    x 1.811310 0.000000 0.000000 
#    y 0.000000 1.798340 0.000000 
#    z 0.000000 0.000000 1.748020 
# 
# From -- ./inp_files/13610.got.cif
#   From: 2010.03.12/outbox.cif.g09.slc.cpg/sg65_7_cif.got.tgz:13610.got - 2010.04.10 20:52:16.
