data_PCOD8273749
_publ_section_title
;
Structure prediction by ZEFSAII (Michael W. Deem and Ramdas Pophale) SiO2 
 PCOD8273749
Probable space group: C M M M
;
_chemical_formula_sum "Si O2"
_cell_formula_units_Z 88
_cell_length_a 8.715703
_cell_length_b 25.375993
_cell_length_c 20.648606
_cell_angle_alpha 90.000000
_cell_angle_beta 90.000000
_cell_angle_gamma 90.000000
_cell_volume 4566.844308
_symmetry_space_group_name_H-M "C M M M"
_symmetry_group_IT_number 65
_symmetry_cell_setting 'orthorhombic'
loop_
_space_group_symop_operation_xyz
x,y,z
-x,-y,z
x,-y,-z
-x,y,-z
-x,-y,-z
x,y,-z
-x,y,z
x,-y,z
1/2+x,1/2+y,z
1/2-x,1/2-y,z
1/2+x,1/2-y,-z
1/2-x,1/2+y,-z
1/2-x,1/2-y,-z
1/2+x,1/2+y,-z
1/2-x,1/2+y,z
1/2+x,1/2-y,z
loop_
_atom_site_type_symbol
_atom_site_label
_atom_site_fract_x
_atom_site_fract_y
_atom_site_fract_z
Si Si1 0.681193 0.939793 0.000000
Si Si2 0.178895 0.905649 0.131486
Si Si3 0.179599 0.194872 0.785516
Si Si4 0.675404 0.000000 0.359917
Si Si5 0.177768 0.899767 0.575208
Si Si6 0.818656 0.694000 0.648608
Si Si7 0.174595 0.500000 0.793265
O O1 0.740944 0.909145 0.937630
O O2 0.500000 0.938874 0.000000
O O3 0.742347 0.000000 0.000000
O O4 0.213969 0.847950 0.159565
O O5 0.243137 0.948233 0.181033
O O6 0.000000 0.915853 0.122532
O O7 0.250000 0.250000 0.809630
O O8 0.256492 0.176195 0.718615
O O9 0.000000 0.202088 0.772679
O O10 0.761321 0.948905 0.384964
O O11 0.500000 0.000000 0.384345
O O12 0.683578 0.000000 0.283217
O O13 0.204887 0.911149 0.500000
O O14 0.270554 0.847912 0.594764
O O15 0.000000 0.891121 0.591575
O O16 0.750000 0.750000 0.627775
O O17 0.000000 0.698238 0.651908
O O18 0.000000 0.500000 0.818640
#
# Coordination Sequence:
#
# PCOD8273749 Si02
#       7
#     8  16  16   8  16  16   8
#     4  11  23  39  60  87 119 156 195 237 286 340
#     4  11  23  38  60  88 118 154 194 237 285 340
#     4  10  21  38  61  89 119 154 195 239 290 344
#     4  11  24  40  60  87 118 153 194 242 293 350
#     4  11  24  41  60  83 115 155 197 242 293 352
#     4  11  22  38  62  89 118 153 193 243 297 349
#     4  11  23  37  57  87 118 149 189 236 289 343
#
# _framework density 19.269323
#
# number of rings (size 3 to 8) (size 9 to 14) (size 15 to 20)
#    0.000    1.182    0.909    6.545    0.000   10.545 
#    0.000    0.455    0.000    0.000    0.000    0.000 
#    0.000    0.000    0.000    0.000    0.000    0.000 
#
# Total GULP energy -545881.401167 kJ/mol
# GULP energy per Si atom -12406.395481 kJ/mol
# Density = 1.922547 g / cm^3
# Si number density = 19.269323 Si / 1000 Ang^3
#
#
#
# Elastic Constant Matrix: (Units=GPa)
#
#
# Indices 1 2 3 4 5 6 
#
# 1 124.9136 54.8847 43.6214 0.0000 0.0000 0.0000
# 2 54.8847 109.7417 45.2658 0.0000 0.0000 0.0000
# 3 43.6214 45.2658 82.4204 0.0000 0.0000 0.0000
# 4 0.0000 0.0000 0.0000 39.3975 0.0000 0.0000
# 5 0.0000 0.0000 0.0000 0.0000 34.7032 0.0000
# 6 0.0000 0.0000 0.0000 0.0000 0.0000 36.0032
#
#
#
# Elastic Compliance Matrix: (Units=1/GPa)
#
#
# Indices 1 2 3 4 5 6 
#
# 1 0.011043 -0.004024 -0.003635 0.000000 0.000000 0.000000
# 2 -0.004024 0.013247 -0.005146 0.000000 0.000000 0.000000
# 3 -0.003635 -0.005146 0.016883 0.000000 0.000000 0.000000
# 4 0.000000 0.000000 0.000000 0.025382 0.000000 0.000000
# 5 0.000000 0.000000 0.000000 0.000000 0.028816 0.000000
# 6 0.000000 0.000000 0.000000 0.000000 0.000000 0.027775
#
#
# Mechanical properties :
#
#
# Convention : Reuss Voigt Hill
#
# Bulk Modulus (GPa) = 64.24941 67.17996 65.71469
# Shear Modulus (GPa) = 32.47969 33.57436 33.02702
#
# Velocity S-wave (km/s) = 4.11002 4.17870 4.14450
# Velocity P-wave (km/s) = 7.47919 7.63030 7.55512
#
# Compressibility (1/GPa) = 0.01556434
#
# Stress axis : x y z
#
# Youngs Moduli (GPa) = 90.55792 75.48785 59.23197
#
# Poissons Ratio (x) = 0.30373 0.21529
# Poissons Ratio (y) = 0.36436 0.30481
# Poissons Ratio (z) = 0.32915 0.38846
#
# Static dielectric constant tensor:
#      x y z
#    x 3.786110 0.000000 0.000000 
#    y 0.000000 3.078970 0.000000 
#    z 0.000000 0.000000 3.495610 
# 
# 
# High freq. dielectric constant tensor:
#      x y z
#    x 1.771900 0.000000 0.000000 
#    y 0.000000 1.758670 0.000000 
#    z 0.000000 0.000000 1.751040 
# 
# From -- ./inp_files/59884.got.cif
#   From: 2010.03.12/outbox.cif.g09.slc.cpg/sg65_30_cif.got.tgz:59884.got - 2010.04.10 20:52:16.
