data_PCOD8273180
_publ_section_title
;
Structure prediction by ZEFSAII (Michael W. Deem and Ramdas Pophale) SiO2 
 PCOD8273180
Probable space group: C M M M
;
_chemical_formula_sum "Si O2"
_cell_formula_units_Z 80
_cell_length_a 9.097708
_cell_length_b 31.259006
_cell_length_c 14.391362
_cell_angle_alpha 90.000000
_cell_angle_beta 90.000000
_cell_angle_gamma 90.000000
_cell_volume 4092.691929
_symmetry_space_group_name_H-M "C M M M"
_symmetry_group_IT_number 65
_symmetry_cell_setting 'orthorhombic'
loop_
_space_group_symop_operation_xyz
x,y,z
-x,-y,z
x,-y,-z
-x,y,-z
-x,-y,-z
x,y,-z
-x,y,z
x,-y,z
1/2+x,1/2+y,z
1/2-x,1/2-y,z
1/2+x,1/2-y,-z
1/2-x,1/2+y,-z
1/2-x,1/2-y,-z
1/2+x,1/2+y,-z
1/2-x,1/2+y,z
1/2+x,1/2-y,z
loop_
_atom_site_type_symbol
_atom_site_label
_atom_site_fract_x
_atom_site_fract_y
_atom_site_fract_z
Si Si1 0.670847 0.128655 0.891387
Si Si2 0.671238 0.422437 0.604211
Si Si3 0.174933 0.207084 0.205052
Si Si4 0.329565 0.047032 0.777270
Si Si5 0.325743 0.673896 0.600610
O O1 0.500000 0.137752 0.868926
O O2 0.769372 0.167223 0.854178
O O3 0.727569 0.084412 0.845349
O O4 0.697968 0.123874 0.000000
O O5 0.701588 0.439439 0.500000
O O6 0.500000 0.423770 0.627316
O O7 0.752414 0.452191 0.677396
O O8 0.733164 0.374198 0.614727
O O9 0.250000 0.250000 0.165646
O O10 0.227255 0.202359 0.312727
O O11 0.000000 0.210334 0.195204
O O12 0.500000 0.053876 0.759151
O O13 0.298833 0.000000 0.821640
O O14 0.268462 0.691799 0.500000
O O15 0.500000 0.671999 0.598387
#
# Coordination Sequence:
#
# PCOD8273180 Si02
#       5
#    16  16  16  16  16
#     4  10  22  41  62  82 108 143 186 235 284 336
#     4   9  17  32  55  81 111 150 192 228 267 322
#     4  11  22  37  60  87 116 148 184 228 277 331
#     4  10  21  36  56  84 116 147 182 229 284 336
#     4   8  15  30  53  80 111 147 184 222 266 317
#
# _framework density 19.547038000000001
#
# number of rings (size 3 to 8) (size 9 to 14) (size 15 to 20)
#    0.000    2.400    2.000    1.800    0.000    2.800 
#    0.000    4.000    0.000    1.800    0.000    2.800 
#    0.000    0.000    0.000    0.000    0.000    0.000 
#
# Total GULP energy -495830.687319 kJ/mol
# GULP energy per Si atom -12395.767183 kJ/mol
# Density = 1.950255 g / cm^3
# Si number density = 19.547038 Si / 1000 Ang^3
#
#
#
# Elastic Constant Matrix: (Units=GPa)
#
#
# Indices 1 2 3 4 5 6 
#
# 1 52.4485 50.8459 40.8363 0.0000 0.0000 0.0000
# 2 50.8459 142.4950 63.0943 0.0000 0.0000 0.0000
# 3 40.8363 63.0943 107.6293 0.0000 0.0000 0.0000
# 4 0.0000 0.0000 0.0000 9.8784 0.0000 0.0000
# 5 0.0000 0.0000 0.0000 0.0000 27.4168 0.0000
# 6 0.0000 0.0000 0.0000 0.0000 0.0000 24.8744
#
#
#
# Elastic Compliance Matrix: (Units=1/GPa)
#
#
# Indices 1 2 3 4 5 6 
#
# 1 0.033231 -0.008475 -0.007640 0.000000 0.000000 0.000000
# 2 -0.008475 0.011639 -0.003608 0.000000 0.000000 0.000000
# 3 -0.007640 -0.003608 0.014305 0.000000 0.000000 0.000000
# 4 0.000000 0.000000 0.000000 0.101231 0.000000 0.000000
# 5 0.000000 0.000000 0.000000 0.000000 0.036474 0.000000
# 6 0.000000 0.000000 0.000000 0.000000 0.000000 0.040202
#
#
# Mechanical properties :
#
#
# Convention : Reuss Voigt Hill
#
# Bulk Modulus (GPa) = 50.68529 68.01399 59.34964
# Shear Modulus (GPa) = 17.66135 22.28699 19.97417
#
# Velocity S-wave (km/s) = 3.00914 3.38031 3.20011
# Velocity P-wave (km/s) = 6.16923 7.07855 6.63948
#
# Compressibility (1/GPa) = 0.01972959
#
# Stress axis : x y z
#
# Youngs Moduli (GPa) = 30.09262 85.91682 69.90606
#
# Poissons Ratio (x) = 0.72811 0.53411
# Poissons Ratio (y) = 0.25502 0.25220
# Poissons Ratio (z) = 0.22992 0.30996
#
# Static dielectric constant tensor:
#      x y z
#    x 3.266000 0.000000 0.000000 
#    y 0.000000 3.607750 0.000000 
#    z 0.000000 0.000000 3.753270 
# 
# 
# High freq. dielectric constant tensor:
#      x y z
#    x 1.734890 0.000000 0.000000 
#    y 0.000000 1.762980 0.000000 
#    z 0.000000 0.000000 1.761680 
# 
# From -- ./inp_files/50148.got.cif
#   From: 2010.03.12/outbox.cif.g09.slc.cpg/sg65_26_cif.got.tgz:50148.got - 2010.04.10 20:52:16.
