data_PCOD8273764
_publ_section_title
;
Structure prediction by ZEFSAII (Michael W. Deem and Ramdas Pophale) SiO2 
 PCOD8273764
Probable space group: C M M M
;
_chemical_formula_sum "Si O2"
_cell_formula_units_Z 88
_cell_length_a 8.635631
_cell_length_b 25.558407
_cell_length_c 20.696198
_cell_angle_alpha 90.000000
_cell_angle_beta 90.000000
_cell_angle_gamma 90.000000
_cell_volume 4567.919366
_symmetry_space_group_name_H-M "C M M M"
_symmetry_group_IT_number 65
_symmetry_cell_setting 'orthorhombic'
loop_
_space_group_symop_operation_xyz
x,y,z
-x,-y,z
x,-y,-z
-x,y,-z
-x,-y,-z
x,y,-z
-x,y,z
x,-y,z
1/2+x,1/2+y,z
1/2-x,1/2-y,z
1/2+x,1/2-y,-z
1/2-x,1/2+y,-z
1/2-x,1/2-y,-z
1/2+x,1/2+y,-z
1/2-x,1/2+y,z
1/2+x,1/2-y,z
loop_
_atom_site_type_symbol
_atom_site_label
_atom_site_fract_x
_atom_site_fract_y
_atom_site_fract_z
Si Si1 0.816939 0.939337 0.000000
Si Si2 0.317711 0.905745 0.133539
Si Si3 0.820260 0.194212 0.802730
Si Si4 0.818208 0.000000 0.360002
Si Si5 0.319340 0.899508 0.574122
Si Si6 0.320757 0.694471 0.651878
Si Si7 0.316166 0.500000 0.785354
O O1 0.745826 0.911266 0.061703
O O2 0.000000 0.932281 0.000000
O O3 0.769310 0.000000 0.000000
O O4 0.500000 0.914027 0.134061
O O5 0.275116 0.848359 0.157873
O O6 0.241279 0.948200 0.179805
O O7 0.750000 0.250000 0.821733
O O8 0.797768 0.182760 0.727203
O O9 0.000000 0.192352 0.822192
O O10 0.768211 0.050874 0.398260
O O11 0.749405 0.000000 0.287463
O O12 0.000000 0.000000 0.354243
O O13 0.271195 0.891724 0.500000
O O14 0.500000 0.909830 0.581899
O O15 0.272977 0.848248 0.612704
O O16 0.500000 0.693069 0.632161
O O17 0.250000 0.750000 0.632588
O O18 0.500000 0.500000 0.787471
#
# Coordination Sequence:
#
# PCOD8273764 Si02
#       7
#     8  16  16   8  16  16   8
#     4  11  23  41  64  87 121 164 200 241 293 343
#     4  12  24  38  61  92 123 157 198 242 291 347
#     4  10  21  39  62  89 121 156 197 242 293 348
#     4  11  24  40  60  85 114 151 196 244 293 350
#     4  11  24  40  58  82 115 154 195 241 295 356
#     4  10  21  38  62  89 117 152 194 244 295 348
#     4  11  23  39  59  87 120 153 193 242 295 349
#
# _framework density 19.264787999999999
#
# number of rings (size 3 to 8) (size 9 to 14) (size 15 to 20)
#    0.000    1.182    0.909    5.455    0.000   11.273 
#    0.000    0.455    0.000    0.000    0.000    0.000 
#    0.000    0.000    0.000    0.000    0.000    0.000 
#
# Total GULP energy -545886.287303 kJ/mol
# GULP energy per Si atom -12406.506530 kJ/mol
# Density = 1.922094 g / cm^3
# Si number density = 19.264788 Si / 1000 Ang^3
#
#
#
# Elastic Constant Matrix: (Units=GPa)
#
#
# Indices 1 2 3 4 5 6 
#
# 1 77.5223 27.3572 33.8409 0.0000 0.0000 0.0000
# 2 27.3572 126.0631 56.6902 0.0000 0.0000 0.0000
# 3 33.8409 56.6902 71.5786 0.0000 0.0000 0.0000
# 4 0.0000 0.0000 0.0000 74.5033 0.0000 0.0000
# 5 0.0000 0.0000 0.0000 0.0000 30.8828 0.0000
# 6 0.0000 0.0000 0.0000 0.0000 0.0000 39.9848
#
#
#
# Elastic Compliance Matrix: (Units=1/GPa)
#
#
# Indices 1 2 3 4 5 6 
#
# 1 0.016255 -0.000111 -0.007597 0.000000 0.000000 0.000000
# 2 -0.000111 0.012321 -0.009706 0.000000 0.000000 0.000000
# 3 -0.007597 -0.009706 0.025249 0.000000 0.000000 0.000000
# 4 0.000000 0.000000 0.000000 0.013422 0.000000 0.000000
# 5 0.000000 0.000000 0.000000 0.000000 0.032381 0.000000
# 6 0.000000 0.000000 0.000000 0.000000 0.000000 0.025010
#
#
# Mechanical properties :
#
#
# Convention : Reuss Voigt Hill
#
# Bulk Modulus (GPa) = 52.63816 56.77120 54.70468
# Shear Modulus (GPa) = 30.15697 39.55922 34.85810
#
# Velocity S-wave (km/s) = 3.96080 4.53641 4.25834
# Velocity P-wave (km/s) = 6.94982 7.54795 7.25506
#
# Compressibility (1/GPa) = 0.01899762
#
# Stress axis : x y z
#
# Youngs Moduli (GPa) = 61.51921 81.15949 39.60477
#
# Poissons Ratio (x) = 0.00903 0.30088
# Poissons Ratio (y) = 0.00684 0.38440
# Poissons Ratio (z) = 0.46736 0.78773
#
# Static dielectric constant tensor:
#      x y z
#    x 3.696410 0.000000 0.000000 
#    y 0.000000 3.566030 0.000000 
#    z 0.000000 0.000000 3.687400 
# 
# 
# High freq. dielectric constant tensor:
#      x y z
#    x 1.767700 0.000000 0.000000 
#    y 0.000000 1.762600 0.000000 
#    z 0.000000 0.000000 1.754560 
# 
# From -- ./inp_files/59883.got.cif
#   From: 2010.03.12/outbox.cif.g09.slc.cpg/sg65_30_cif.got.tgz:59883.got - 2010.04.10 20:52:16.
