data_PCOD8273380
_publ_section_title
;
Structure prediction by ZEFSAII (Michael W. Deem and Ramdas Pophale) SiO2 
 PCOD8273380
Probable space group: C M M M
;
_chemical_formula_sum "Si O2"
_cell_formula_units_Z 112
_cell_length_a 14.444492
_cell_length_b 28.111352
_cell_length_c 13.891679
_cell_angle_alpha 90.000000
_cell_angle_beta 90.000000
_cell_angle_gamma 90.000000
_cell_volume 5640.774590
_symmetry_space_group_name_H-M "C M M M"
_symmetry_group_IT_number 65
_symmetry_cell_setting 'orthorhombic'
loop_
_space_group_symop_operation_xyz
x,y,z
-x,-y,z
x,-y,-z
-x,y,-z
-x,-y,-z
x,y,-z
-x,y,z
x,-y,z
1/2+x,1/2+y,z
1/2-x,1/2-y,z
1/2+x,1/2-y,-z
1/2-x,1/2+y,-z
1/2-x,1/2-y,-z
1/2+x,1/2+y,-z
1/2-x,1/2+y,z
1/2+x,1/2-y,z
loop_
_atom_site_type_symbol
_atom_site_label
_atom_site_fract_x
_atom_site_fract_y
_atom_site_fract_z
Si Si1 0.897952 0.675910 0.604120
Si Si2 0.103294 0.083693 0.112047
Si Si3 0.732615 0.947410 0.778545
Si Si4 0.390205 0.870891 0.888491
Si Si5 0.393788 0.225291 0.204980
Si Si6 0.107792 0.172644 0.757555
Si Si7 0.222923 0.115921 0.610012
O O1 0.890097 0.701280 0.500000
O O2 0.878540 0.715694 0.682502
O O3 0.828549 0.632342 0.610285
O O4 0.000000 0.653613 0.620420
O O5 0.179230 0.047065 0.150623
O O6 0.123517 0.134488 0.159592
O O7 0.000000 0.065161 0.137364
O O8 0.115810 0.090996 0.000000
O O9 0.658434 0.910581 0.822544
O O10 0.774165 0.931640 0.674796
O O11 0.687703 0.000000 0.769187
O O12 0.500000 0.874269 0.869667
O O13 0.351217 0.818434 0.857446
O O14 0.365828 0.879745 0.000000
O O15 0.500000 0.228585 0.172971
O O16 0.349528 0.278230 0.196542
O O17 0.158587 0.156176 0.659492
O O18 0.000000 0.179923 0.731293
O O19 0.188695 0.105845 0.500000
#
# Coordination Sequence:
#
# PCOD8273380 Si02
#       7
#    16  16  16  16  16  16  16
#     4   9  17  31  52  75 102 140 184 225 262 306
#     4   9  19  37  58  80 108 141 181 228 275 327
#     4  11  23  39  59  81 108 141 183 236 289 336
#     4  10  21  37  57  83 115 149 185 225 274 333
#     4   9  17  32  53  78 112 150 183 217 260 317
#     4   9  19  34  54  82 115 148 182 221 268 325
#     4  10  21  37  57  81 109 144 184 228 277 330
#
# _framework density 19.855429999999998
#
# number of rings (size 3 to 8) (size 9 to 14) (size 15 to 20)
#    0.000    2.429    1.429    0.429    0.000    4.000 
#    0.000    7.143    0.000    2.571    0.000    7.000 
#    0.000    0.000    0.000    0.000    0.000    0.000 
#
# Total GULP energy -693877.313484 kJ/mol
# GULP energy per Si atom -12390.666312 kJ/mol
# Density = 1.981024 g / cm^3
# Si number density = 19.855430 Si / 1000 Ang^3
#
#
#
# Elastic Constant Matrix: (Units=GPa)
#
#
# Indices 1 2 3 4 5 6 
#
# 1 52.4407 23.7770 23.3435 0.0000 0.0000 0.0000
# 2 23.7770 127.8625 45.4282 0.0000 0.0000 0.0000
# 3 23.3435 45.4282 97.9641 0.0000 0.0000 0.0000
# 4 0.0000 0.0000 0.0000 11.4413 0.0000 0.0000
# 5 0.0000 0.0000 0.0000 0.0000 27.8282 0.0000
# 6 0.0000 0.0000 0.0000 0.0000 0.0000 22.5848
#
#
#
# Elastic Compliance Matrix: (Units=1/GPa)
#
#
# Indices 1 2 3 4 5 6 
#
# 1 0.022071 -0.002677 -0.004018 0.000000 0.000000 0.000000
# 2 -0.002677 0.009688 -0.003855 0.000000 0.000000 0.000000
# 3 -0.004018 -0.003855 0.012953 0.000000 0.000000 0.000000
# 4 0.000000 0.000000 0.000000 0.087403 0.000000 0.000000
# 5 0.000000 0.000000 0.000000 0.000000 0.035935 0.000000
# 6 0.000000 0.000000 0.000000 0.000000 0.000000 0.044278
#
#
# Mechanical properties :
#
#
# Convention : Reuss Voigt Hill
#
# Bulk Modulus (GPa) = 42.34915 51.48496 46.91705
# Shear Modulus (GPa) = 20.72127 24.75211 22.73669
#
# Velocity S-wave (km/s) = 3.23400 3.53458 3.38762
# Velocity P-wave (km/s) = 5.94307 6.53023 6.24355
#
# Compressibility (1/GPa) = 0.02361323
#
# Stress axis : x y z
#
# Youngs Moduli (GPa) = 45.30752 103.21784 77.20319
#
# Poissons Ratio (x) = 0.27629 0.31020
# Poissons Ratio (y) = 0.12128 0.29760
# Poissons Ratio (z) = 0.18205 0.39789
#
# Static dielectric constant tensor:
#      x y z
#    x 3.727180 0.000000 0.000000 
#    y 0.000000 3.437440 0.000000 
#    z 0.000000 0.000000 3.804660 
# 
# 
# High freq. dielectric constant tensor:
#      x y z
#    x 1.774390 0.000000 0.000000 
#    y 0.000000 1.753480 0.000000 
#    z 0.000000 0.000000 1.777320 
# 
# From -- ./inp_files/41056.got.cif
#   From: 2010.03.12/outbox.cif.g09.slc.cpg/sg65_21_cif.got.tgz:41056.got - 2010.04.10 20:52:16.
