data_PCOD8273309
_publ_section_title
;
Structure prediction by ZEFSAII (Michael W. Deem and Ramdas Pophale) SiO2 
 PCOD8273309
Probable space group: C M M M
;
_chemical_formula_sum "Si O2"
_cell_formula_units_Z 96
_cell_length_a 23.389696
_cell_length_b 24.015905
_cell_length_c 8.881886
_cell_angle_alpha 90.000000
_cell_angle_beta 90.000000
_cell_angle_gamma 90.000000
_cell_volume 4989.174901
_symmetry_space_group_name_H-M "C M M M"
_symmetry_group_IT_number 65
_symmetry_cell_setting 'orthorhombic'
loop_
_space_group_symop_operation_xyz
x,y,z
-x,-y,z
x,-y,-z
-x,y,-z
-x,-y,-z
x,y,-z
-x,y,z
x,-y,z
1/2+x,1/2+y,z
1/2-x,1/2-y,z
1/2+x,1/2-y,-z
1/2-x,1/2+y,-z
1/2-x,1/2-y,-z
1/2+x,1/2+y,-z
1/2-x,1/2+y,z
1/2+x,1/2-y,z
loop_
_atom_site_type_symbol
_atom_site_label
_atom_site_fract_x
_atom_site_fract_y
_atom_site_fract_z
Si Si1 0.065289 0.563830 0.176920
Si Si2 0.641516 0.841777 0.677367
Si Si3 0.064054 0.135032 0.329286
Si Si4 0.236546 0.156858 0.824742
Si Si5 0.330662 0.436568 0.327481
Si Si6 0.628882 0.729521 0.824836
O O1 0.079561 0.500000 0.221586
O O2 0.109366 0.604191 0.259727
O O3 0.000000 0.577921 0.224261
O O4 0.072936 0.572211 0.000000
O O5 0.638333 0.845138 0.500000
O O6 0.706737 0.837527 0.728709
O O7 0.612291 0.785094 0.734555
O O8 0.069650 0.157596 0.500000
O O9 0.103495 0.081064 0.306322
O O10 0.081885 0.183886 0.216714
O O11 0.000000 0.116138 0.291083
O O12 0.208838 0.097805 0.785153
O O13 0.192360 0.206555 0.783444
O O14 0.252449 0.158533 0.000000
O O15 0.310948 0.426775 0.500000
O O16 0.324530 0.500000 0.279045
O O17 0.625036 0.743178 0.000000
#
# Coordination Sequence:
#
# PCOD8273309 Si02
#       6
#    16  16  16  16  16  16
#     4   9  20  41  65  85 108 140 177 218 263 310
#     4  12  24  36  57  86 112 141 176 215 264 323
#     4   9  18  33  53  78 109 144 182 225 272 320
#     4  10  21  37  56  78 107 143 182 225 271 317
#     4   9  18  33  53  78 109 144 182 225 272 320
#     4  10  21  37  56  78 107 143 182 225 271 317
#
# _framework density 19.241658999999999
#
# number of rings (size 3 to 8) (size 9 to 14) (size 15 to 20)
#    0.000    2.167    0.000    3.500    0.000    7.000 
#    0.000    2.500    0.000    0.000    0.000    4.667 
#    0.000    0.000    0.000    0.000    0.000    0.000 
#
# Total GULP energy -595234.509372 kJ/mol
# GULP energy per Si atom -12400.718945 kJ/mol
# Density = 1.919786 g / cm^3
# Si number density = 19.241659 Si / 1000 Ang^3
#
#
#
# Elastic Constant Matrix: (Units=GPa)
#
#
# Indices 1 2 3 4 5 6 
#
# 1 34.1465 5.4710 16.9477 0.0000 0.0000 0.0000
# 2 5.4710 100.9199 40.3931 0.0000 0.0000 0.0000
# 3 16.9477 40.3931 75.9781 0.0000 0.0000 0.0000
# 4 0.0000 0.0000 0.0000 29.4344 0.0000 0.0000
# 5 0.0000 0.0000 0.0000 0.0000 26.0785 0.0000
# 6 0.0000 0.0000 0.0000 0.0000 0.0000 17.7138
#
#
#
# Elastic Compliance Matrix: (Units=1/GPa)
#
#
# Indices 1 2 3 4 5 6 
#
# 1 0.033103 0.001475 -0.008168 0.000000 0.000000 0.000000
# 2 0.001475 0.012653 -0.007056 0.000000 0.000000 0.000000
# 3 -0.008168 -0.007056 0.018735 0.000000 0.000000 0.000000
# 4 0.000000 0.000000 0.000000 0.033974 0.000000 0.000000
# 5 0.000000 0.000000 0.000000 0.000000 0.038346 0.000000
# 6 0.000000 0.000000 0.000000 0.000000 0.000000 0.056453
#
#
# Mechanical properties :
#
#
# Convention : Reuss Voigt Hill
#
# Bulk Modulus (GPa) = 27.03230 37.40757 32.21994
# Shear Modulus (GPa) = 21.45068 24.52754 22.98911
#
# Velocity S-wave (km/s) = 3.34249 3.57418 3.46028
# Velocity P-wave (km/s) = 5.38291 6.04286 5.72240
#
# Compressibility (1/GPa) = 0.03699278
#
# Stress axis : x y z
#
# Youngs Moduli (GPa) = 30.20848 79.03285 53.37665
#
# Poissons Ratio (x) = -0.11655 0.43598
# Poissons Ratio (y) = -0.04455 0.37661
# Poissons Ratio (z) = 0.24674 0.55764
#
# Static dielectric constant tensor:
#      x y z
#    x 3.503940 0.000000 0.000000 
#    y 0.000000 3.571760 0.000000 
#    z 0.000000 0.000000 3.478130 
# 
# 
# High freq. dielectric constant tensor:
#      x y z
#    x 1.745800 0.000000 0.000000 
#    y 0.000000 1.752230 0.000000 
#    z 0.000000 0.000000 1.746980 
# 
# From -- ./inp_files/14303.got.cif
#   From: 2010.03.12/outbox.cif.g09.slc.cpg/sg65_8_cif.got.tgz:14303.got - 2010.04.10 20:52:16.
