data_PCOD8273799
_publ_section_title
;
Structure prediction by ZEFSAII (Michael W. Deem and Ramdas Pophale) SiO2 
 PCOD8273799
Probable space group: C M M M
;
_chemical_formula_sum "Si O2"
_cell_formula_units_Z 104
_cell_length_a 18.440690
_cell_length_b 22.229334
_cell_length_c 14.388353
_cell_angle_alpha 90.000000
_cell_angle_beta 90.000000
_cell_angle_gamma 90.000000
_cell_volume 5898.134916
_symmetry_space_group_name_H-M "C M M M"
_symmetry_group_IT_number 65
_symmetry_cell_setting 'orthorhombic'
loop_
_space_group_symop_operation_xyz
x,y,z
-x,-y,z
x,-y,-z
-x,y,-z
-x,-y,-z
x,y,-z
-x,y,z
x,-y,z
1/2+x,1/2+y,z
1/2-x,1/2-y,z
1/2+x,1/2-y,-z
1/2-x,1/2+y,-z
1/2-x,1/2-y,-z
1/2+x,1/2+y,-z
1/2-x,1/2+y,z
1/2+x,1/2-y,z
loop_
_atom_site_type_symbol
_atom_site_label
_atom_site_fract_x
_atom_site_fract_y
_atom_site_fract_z
Si Si1 0.330219 0.726004 0.392444
Si Si2 0.918932 0.571390 0.897704
Si Si3 0.416024 0.429790 0.894944
Si Si4 0.085738 0.000000 0.392756
Si Si5 0.338030 0.395360 0.717435
Si Si6 0.418704 0.158735 0.390428
Si Si7 0.828405 0.429690 0.725761
O O1 0.341355 0.707639 0.500000
O O2 0.250000 0.750000 0.375318
O O3 0.345546 0.669578 0.327682
O O4 0.386116 0.777214 0.360104
O O5 0.917543 0.500000 0.900077
O O6 0.860845 0.595211 0.823100
O O7 0.000000 0.593448 0.870779
O O8 0.897757 0.596364 0.000000
O O9 0.500000 0.413824 0.881191
O O10 0.402538 0.500000 0.875263
O O11 0.368732 0.391788 0.822274
O O12 0.391576 0.413634 0.000000
O O13 0.115791 0.940724 0.344350
O O14 0.109987 0.000000 0.500000
O O15 0.000000 0.000000 0.381573
O O16 0.256010 0.417089 0.721514
O O17 0.418746 0.153879 0.500000
O O18 0.500000 0.153233 0.350029
O O19 0.369073 0.104206 0.356585
O O20 0.844013 0.500000 0.712938
#
# Coordination Sequence:
#
# PCOD8273799 Si02
#       7
#    16  16  16   8  16  16  16
#     4  10  21  39  60  79 107 150 195 238 281 333
#     4   8  15  29  49  73 105 143 178 216 265 321
#     4   9  18  34  56  82 116 154 188 227 279 342
#     4  11  24  38  53  83 122 149 179 231 287 344
#     4  12  21  35  58  86 114 149 190 230 287 338
#     4  10  22  39  57  79 107 143 191 237 275 328
#     4  11  21  33  52  84 115 145 180 225 282 339
#
# _framework density 17.632691999999999
#
# number of rings (size 3 to 8) (size 9 to 14) (size 15 to 20)
#    0.000    1.923    3.077    2.308    0.000    3.692 
#    0.000    3.846    0.000    1.385    0.000    2.154 
#    0.000    0.000    0.000    0.000    0.000    0.000 
#
# Total GULP energy -644813.650329 kJ/mol
# GULP energy per Si atom -12400.262506 kJ/mol
# Density = 1.759256 g / cm^3
# Si number density = 17.632692 Si / 1000 Ang^3
#
#
#
# Elastic Constant Matrix: (Units=GPa)
#
#
# Indices 1 2 3 4 5 6 
#
# 1 95.6088 38.5640 52.8994 0.0000 0.0000 0.0000
# 2 38.5640 96.7575 57.4492 0.0000 0.0000 0.0000
# 3 52.8994 57.4492 94.3324 0.0000 0.0000 0.0000
# 4 0.0000 0.0000 0.0000 11.7229 0.0000 0.0000
# 5 0.0000 0.0000 0.0000 0.0000 32.0093 0.0000
# 6 0.0000 0.0000 0.0000 0.0000 0.0000 16.7692
#
#
#
# Elastic Compliance Matrix: (Units=1/GPa)
#
#
# Indices 1 2 3 4 5 6 
#
# 1 0.015316 -0.001574 -0.007630 0.000000 0.000000 0.000000
# 2 -0.001574 0.016351 -0.009075 0.000000 0.000000 0.000000
# 3 -0.007630 -0.009075 0.020406 0.000000 0.000000 0.000000
# 4 0.000000 0.000000 0.000000 0.085303 0.000000 0.000000
# 5 0.000000 0.000000 0.000000 0.000000 0.031241 0.000000
# 6 0.000000 0.000000 0.000000 0.000000 0.000000 0.059633
#
#
# Mechanical properties :
#
#
# Convention : Reuss Voigt Hill
#
# Bulk Modulus (GPa) = 64.45573 64.94710 64.70142
# Shear Modulus (GPa) = 18.51987 21.28602 19.90295
#
# Velocity S-wave (km/s) = 3.24437 3.47823 3.36334
# Velocity P-wave (km/s) = 7.11819 7.28314 7.20114
#
# Compressibility (1/GPa) = 0.01551452
#
# Stress axis : x y z
#
# Youngs Moduli (GPa) = 65.29170 61.15947 49.00404
#
# Poissons Ratio (x) = 0.09626 0.37391
# Poissons Ratio (y) = 0.10276 0.44472
# Poissons Ratio (z) = 0.49819 0.55503
#
# Static dielectric constant tensor:
#      x y z
#    x 3.451070 0.000000 0.000000 
#    y 0.000000 3.092340 0.000000 
#    z 0.000000 0.000000 3.509550 
# 
# 
# High freq. dielectric constant tensor:
#      x y z
#    x 1.693720 0.000000 0.000000 
#    y 0.000000 1.653960 0.000000 
#    z 0.000000 0.000000 1.688170 
# 
# From -- ./inp_files/42889.got.cif
#   From: 2010.03.12/outbox.cif.g09.slc.cpg/sg65_22_cif.got.tgz:42889.got - 2010.04.10 20:52:16.
