data_PCOD8273642
_publ_section_title
;
Structure prediction by ZEFSAII (Michael W. Deem and Ramdas Pophale) SiO2 
 PCOD8273642
Probable space group: C M M M
;
_chemical_formula_sum "Si O2"
_cell_formula_units_Z 72
_cell_length_a 30.495417
_cell_length_b 14.782411
_cell_length_c 7.983089
_cell_angle_alpha 90.000000
_cell_angle_beta 90.000000
_cell_angle_gamma 90.000000
_cell_volume 3598.742894
_symmetry_space_group_name_H-M "C M M M"
_symmetry_group_IT_number 65
_symmetry_cell_setting 'orthorhombic'
loop_
_space_group_symop_operation_xyz
x,y,z
-x,-y,z
x,-y,-z
-x,y,-z
-x,-y,-z
x,y,-z
-x,y,z
x,-y,z
1/2+x,1/2+y,z
1/2-x,1/2-y,z
1/2+x,1/2-y,-z
1/2-x,1/2+y,-z
1/2-x,1/2-y,-z
1/2+x,1/2+y,-z
1/2-x,1/2+y,z
1/2+x,1/2-y,z
loop_
_atom_site_type_symbol
_atom_site_label
_atom_site_fract_x
_atom_site_fract_y
_atom_site_fract_z
Si Si1 0.950048 0.217423 0.187945
Si Si2 0.708263 0.303851 0.303303
Si Si3 0.831601 0.500000 0.801186
Si Si4 0.628327 0.185702 0.305295
Si Si5 0.051762 0.098894 0.500000
Si Si6 0.768138 0.000000 0.803091
O O1 0.917285 0.302371 0.204127
O O2 0.933147 0.146708 0.328032
O O3 0.000000 0.248759 0.225050
O O4 0.947089 0.175820 0.000000
O O5 0.709446 0.289867 0.500000
O O6 0.750000 0.250000 0.223987
O O7 0.664125 0.257117 0.233342
O O8 0.707674 0.410015 0.261027
O O9 0.855333 0.585391 0.723578
O O10 0.781603 0.500000 0.736614
O O11 0.834553 0.500000 0.000000
O O12 0.619147 0.202431 0.500000
O O13 0.000000 0.090803 0.500000
O O14 0.073717 0.000000 0.500000
O O15 0.769345 0.000000 0.000000
#
# Coordination Sequence:
#
# PCOD8273642 Si02
#       6
#    16  16   8  16   8   8
#     4  10  21  39  63  89 123 165 204 253 315 368
#     4  10  21  38  60  83 114 154 198 244 293 356
#     4  11  23  37  58  88 121 156 202 253 305 371
#     4  11  22  39  63  89 117 158 205 255 308 362
#     4   9  18  36  62  89 118 153 203 257 301 363
#     4  11  23  37  57  86 121 160 199 249 305 358
#
# _framework density 20.006986000000001
#
# number of rings (size 3 to 8) (size 9 to 14) (size 15 to 20)
#    0.000    1.667    3.333    1.333    0.000    3.556 
#    2.000    2.778    0.000    3.333    0.000    0.000 
#    0.000    0.000    0.000    0.000    0.000    0.000 
#
# Total GULP energy -446353.778200 kJ/mol
# GULP energy per Si atom -12398.716061 kJ/mol
# Density = 1.996145 g / cm^3
# Si number density = 20.006986 Si / 1000 Ang^3
#
#
#
# Elastic Constant Matrix: (Units=GPa)
#
#
# Indices 1 2 3 4 5 6 
#
# 1 119.4419 64.2725 37.5339 0.0000 0.0000 0.0000
# 2 64.2725 145.7216 22.0412 0.0000 0.0000 0.0000
# 3 37.5339 22.0412 86.9205 0.0000 0.0000 0.0000
# 4 0.0000 0.0000 0.0000 13.4322 0.0000 0.0000
# 5 0.0000 0.0000 0.0000 0.0000 23.4586 0.0000
# 6 0.0000 0.0000 0.0000 0.0000 0.0000 183.8390
#
#
#
# Elastic Compliance Matrix: (Units=1/GPa)
#
#
# Indices 1 2 3 4 5 6 
#
# 1 0.012219 -0.004774 -0.004066 0.000000 0.000000 0.000000
# 2 -0.004774 0.009002 -0.000221 0.000000 0.000000 0.000000
# 3 -0.004066 -0.000221 0.013316 0.000000 0.000000 0.000000
# 4 0.000000 0.000000 0.000000 0.074448 0.000000 0.000000
# 5 0.000000 0.000000 0.000000 0.000000 0.042628 0.000000
# 6 0.000000 0.000000 0.000000 0.000000 0.000000 0.005440
#
#
# Mechanical properties :
#
#
# Convention : Reuss Voigt Hill
#
# Bulk Modulus (GPa) = 60.91998 66.64212 63.78105
# Shear Modulus (GPa) = 27.67834 59.36172 43.52003
#
# Velocity S-wave (km/s) = 3.72349 5.45297 4.66901
# Velocity P-wave (km/s) = 7.00009 8.54566 7.81120
#
# Compressibility (1/GPa) = 0.01641498
#
# Stress axis : x y z
#
# Youngs Moduli (GPa) = 81.83954 111.09098 75.09512
#
# Poissons Ratio (x) = 0.53039 0.30532
# Poissons Ratio (y) = 0.39074 0.01659
# Poissons Ratio (z) = 0.33274 0.02454
#
# Static dielectric constant tensor:
#      x y z
#    x 3.756110 0.000000 0.000000 
#    y 0.000000 2.073000 0.000000 
#    z 0.000000 0.000000 3.655160 
# 
# 
# High freq. dielectric constant tensor:
#      x y z
#    x 1.779280 0.000000 0.000000 
#    y 0.000000 1.769460 0.000000 
#    z 0.000000 0.000000 1.785770 
# 
# From -- ./inp_files/15792.got.cif
#   From: 2010.03.12/outbox.cif.g09.slc.cpg/sg65_8_cif.got.tgz:15792.got - 2010.04.10 20:52:16.
