data_PCOD8273746
_publ_section_title
;
Structure prediction by ZEFSAII (Michael W. Deem and Ramdas Pophale) SiO2 
 PCOD8273746
Probable space group: C M M M
;
_chemical_formula_sum "Si O2"
_cell_formula_units_Z 64
_cell_length_a 7.418437
_cell_length_b 30.762802
_cell_length_c 13.877852
_cell_angle_alpha 90.000000
_cell_angle_beta 90.000000
_cell_angle_gamma 90.000000
_cell_volume 3167.091092
_symmetry_space_group_name_H-M "C M M M"
_symmetry_group_IT_number 65
_symmetry_cell_setting 'orthorhombic'
loop_
_space_group_symop_operation_xyz
x,y,z
-x,-y,z
x,-y,-z
-x,y,-z
-x,-y,-z
x,y,-z
-x,y,z
x,-y,z
1/2+x,1/2+y,z
1/2-x,1/2-y,z
1/2+x,1/2-y,-z
1/2-x,1/2+y,-z
1/2-x,1/2-y,-z
1/2+x,1/2+y,-z
1/2-x,1/2+y,z
1/2+x,1/2-y,z
loop_
_atom_site_type_symbol
_atom_site_label
_atom_site_fract_x
_atom_site_fract_y
_atom_site_fract_z
Si Si1 0.293286 0.049074 0.744828
Si Si2 0.786788 0.375190 0.606981
Si Si3 0.000000 0.176886 0.110046
Si Si4 0.709826 0.797819 0.742777
Si Si5 0.500000 0.425918 0.890123
O O1 0.500000 0.059850 0.771297
O O2 0.220091 0.081663 0.662604
O O3 0.178776 0.054870 0.841403
O O4 0.273020 0.000000 0.705370
O O5 0.700998 0.374914 0.500000
O O6 0.721193 0.332401 0.663733
O O7 0.000000 0.375381 0.598930
O O8 0.179386 0.195950 0.159047
O O9 0.000000 0.125481 0.118963
O O10 0.000000 0.192508 0.000000
O O11 0.500000 0.804511 0.766897
O O12 0.750000 0.750000 0.700343
O O13 0.500000 0.441584 0.000000
#
# Coordination Sequence:
#
# PCOD8273746 Si02
#       5
#    16  16   8  16   8
#     4  10  21  38  61  88 122 160 198 245 299 351
#     4   9  19  37  61  88 120 157 198 243 295 354
#     4  11  24  41  62  90 119 157 202 245 302 356
#     4  11  22  40  63  88 122 156 194 246 296 353
#     4  11  23  40  63  88 120 158 202 249 299 355
#
# _framework density 20.207820000000002
#
# number of rings (size 3 to 8) (size 9 to 14) (size 15 to 20)
#    0.000    1.750    3.750    0.375    0.000    3.500 
#    0.000    8.750    0.000    1.500    0.000    0.000 
#    0.000    0.000    0.000    0.000    0.000    0.000 
#
# Total GULP energy -396861.050965 kJ/mol
# GULP energy per Si atom -12401.907843 kJ/mol
# Density = 2.016183 g / cm^3
# Si number density = 20.207820 Si / 1000 Ang^3
#
#
#
# Elastic Constant Matrix: (Units=GPa)
#
#
# Indices 1 2 3 4 5 6 
#
# 1 100.3854 31.2532 56.2155 0.0000 0.0000 0.0000
# 2 31.2532 165.5290 82.2905 0.0000 0.0000 0.0000
# 3 56.2155 82.2905 175.0356 0.0000 0.0000 0.0000
# 4 0.0000 0.0000 0.0000 14.6395 0.0000 0.0000
# 5 0.0000 0.0000 0.0000 0.0000 -0.7812 0.0000
# 6 0.0000 0.0000 0.0000 0.0000 0.0000 9.7330
#
#
#
# Elastic Compliance Matrix: (Units=1/GPa)
#
#
# Indices 1 2 3 4 5 6 
#
# 1 0.012173 -0.000463 -0.003692 0.000000 0.000000 0.000000
# 2 -0.000463 0.007901 -0.003566 0.000000 0.000000 0.000000
# 3 -0.003692 -0.003566 0.008575 0.000000 0.000000 0.000000
# 4 0.000000 0.000000 0.000000 0.068308 0.000000 0.000000
# 5 0.000000 0.000000 0.000000 0.000000 -1.280037 0.000000
# 6 0.000000 0.000000 0.000000 0.000000 0.000000 0.102743
#
#
# Mechanical properties :
#
#
# Convention : Reuss Voigt Hill
#
# Bulk Modulus (GPa) = 75.71133 86.71869 81.21501
# Shear Modulus (GPa) = -4.71480 22.79765 9.04142
#
# Velocity S-wave (km/s) = -1.52912 3.36245 2.11753
# Velocity P-wave (km/s) = 5.86771 7.62111 6.80116
#
# Compressibility (1/GPa) = 0.01320806
#
# Stress axis : x y z
#
# Youngs Moduli (GPa) = 82.14737 126.55863 116.61277
#
# Poissons Ratio (x) = 0.05860 0.43053
# Poissons Ratio (y) = 0.03803 0.41585
# Poissons Ratio (z) = 0.30328 0.45132
#
# Static dielectric constant tensor:
#      x y z
#    x 3.793600 0.000000 0.000000 
#    y 0.000000 3.926520 0.000000 
#    z 0.000000 0.000000 3.751540 
# 
# 
# High freq. dielectric constant tensor:
#      x y z
#    x 1.791350 0.000000 0.000000 
#    y 0.000000 1.805460 0.000000 
#    z 0.000000 0.000000 1.773660 
# 
# From -- ./inp_files/20983.got.cif
#   From: 2010.03.12/outbox.cif.g09.slc.cpg/sg65_11_cif.got.tgz:20983.got - 2010.04.10 20:52:16.
