data_PCOD8273671
_publ_section_title
;
Structure prediction by ZEFSAII (Michael W. Deem and Ramdas Pophale) SiO2 
 PCOD8273671
Probable space group: C M M M
;
_chemical_formula_sum "Si O2"
_cell_formula_units_Z 104
_cell_length_a 17.684616
_cell_length_b 15.322043
_cell_length_c 19.247403
_cell_angle_alpha 90.000000
_cell_angle_beta 90.000000
_cell_angle_gamma 90.000000
_cell_volume 5215.361906
_symmetry_space_group_name_H-M "C M M M"
_symmetry_group_IT_number 65
_symmetry_cell_setting 'orthorhombic'
loop_
_space_group_symop_operation_xyz
x,y,z
-x,-y,z
x,-y,-z
-x,y,-z
-x,-y,-z
x,y,-z
-x,y,z
x,-y,z
1/2+x,1/2+y,z
1/2-x,1/2-y,z
1/2+x,1/2-y,-z
1/2-x,1/2+y,-z
1/2-x,1/2-y,-z
1/2+x,1/2+y,-z
1/2-x,1/2+y,z
1/2+x,1/2-y,z
loop_
_atom_site_type_symbol
_atom_site_label
_atom_site_fract_x
_atom_site_fract_y
_atom_site_fract_z
Si Si1 0.338544 0.270862 0.317288
Si Si2 0.910898 0.000000 0.080953
Si Si3 0.351213 0.336188 0.166934
Si Si4 0.194087 0.594889 0.151581
Si Si5 0.584469 0.186989 0.924121
Si Si6 0.911759 0.402233 0.283727
Si Si7 0.913451 0.099465 0.418502
O O1 0.250000 0.250000 0.314121
O O2 0.366288 0.325877 0.249321
O O3 0.382956 0.178893 0.330488
O O4 0.356631 0.334054 0.381280
O O5 0.886628 0.081898 0.127401
O O6 0.000000 0.000000 0.074440
O O7 0.878567 0.000000 0.000000
O O8 0.260763 0.334915 0.156206
O O9 0.390195 0.253078 0.134354
O O10 0.232641 0.500000 0.150580
O O11 0.143714 0.607102 0.081959
O O12 0.135850 0.606127 0.213957
O O13 0.500000 0.153286 0.910045
O O14 0.590476 0.230581 0.000000
O O15 0.898063 0.500000 0.316757
O O16 0.000000 0.390132 0.267087
O O17 0.902584 0.112925 0.500000
O O18 0.000000 0.119485 0.396989
O O19 0.892769 0.000000 0.397773
#
# Coordination Sequence:
#
# PCOD8273671 Si02
#       7
#    16   8  16  16  16  16  16
#     4  12  23  37  65  98 129 165 209 264 315 379
#     4  11  26  44  62  86 122 168 214 267 328 390
#     4  12  23  41  60  87 120 155 203 255 313 379
#     4  11  22  39  58  81 113 151 194 246 310 368
#     4  11  24  40  58  80 111 151 198 254 309 365
#     4  10  21  38  60  85 120 162 203 254 311 369
#     4   9  21  42  66  96 135 175 214 257 312 377
#
# _framework density 19.941088000000001
#
# number of rings (size 3 to 8) (size 9 to 14) (size 15 to 20)
#    0.000    1.154    3.846    2.769    1.077    7.077 
#    0.000    0.769    0.000    0.462    0.000    2.154 
#    0.000    0.000    0.000    0.000    0.000    0.000 
#
# Total GULP energy -644303.349431 kJ/mol
# GULP energy per Si atom -12390.449028 kJ/mol
# Density = 1.989570 g / cm^3
# Si number density = 19.941088 Si / 1000 Ang^3
#
#
#
# Elastic Constant Matrix: (Units=GPa)
#
#
# Indices 1 2 3 4 5 6 
#
# 1 81.5881 31.9648 27.0302 0.0000 0.0000 0.0000
# 2 31.9648 116.3414 45.6551 0.0000 0.0000 0.0000
# 3 27.0302 45.6551 78.5641 0.0000 0.0000 0.0000
# 4 0.0000 0.0000 0.0000 27.9430 0.0000 0.0000
# 5 0.0000 0.0000 0.0000 0.0000 21.3555 0.0000
# 6 0.0000 0.0000 0.0000 0.0000 0.0000 25.7995
#
#
#
# Elastic Compliance Matrix: (Units=1/GPa)
#
#
# Indices 1 2 3 4 5 6 
#
# 1 0.014421 -0.002610 -0.003445 0.000000 0.000000 0.000000
# 2 -0.002610 0.011607 -0.005847 0.000000 0.000000 0.000000
# 3 -0.003445 -0.005847 0.017311 0.000000 0.000000 0.000000
# 4 0.000000 0.000000 0.000000 0.035787 0.000000 0.000000
# 5 0.000000 0.000000 0.000000 0.000000 0.046826 0.000000
# 6 0.000000 0.000000 0.000000 0.000000 0.000000 0.038760
#
#
# Mechanical properties :
#
#
# Convention : Reuss Voigt Hill
#
# Bulk Modulus (GPa) = 51.18942 53.97707 52.58324
# Shear Modulus (GPa) = 25.63729 26.47584 26.05656
#
# Velocity S-wave (km/s) = 3.58949 3.64772 3.61872
# Velocity P-wave (km/s) = 6.55021 6.69837 6.62471
#
# Compressibility (1/GPa) = 0.01953529
#
# Stress axis : x y z
#
# Youngs Moduli (GPa) = 69.34556 86.15431 57.76553
#
# Poissons Ratio (x) = 0.22489 0.19897
# Poissons Ratio (y) = 0.18102 0.33776
# Poissons Ratio (z) = 0.23886 0.50374
#
# Static dielectric constant tensor:
#      x y z
#    x 3.856280 0.000000 0.000000 
#    y 0.000000 -15.890970 0.000000 
#    z 0.000000 0.000000 3.417410 
# 
# 
# High freq. dielectric constant tensor:
#      x y z
#    x 1.790440 0.000000 0.000000 
#    y 0.000000 1.793090 0.000000 
#    z 0.000000 0.000000 1.747510 
# 
# From -- ./inp_files/54562.got.cif
#   From: 2010.03.12/outbox.cif.g09.slc.cpg/sg65_28_cif.got.tgz:54562.got - 2010.04.10 20:52:16.
