data_PCOD8273683
_publ_section_title
;
Structure prediction by ZEFSAII (Michael W. Deem and Ramdas Pophale) SiO2 
 PCOD8273683
Probable space group: C M M M
;
_chemical_formula_sum "Si O2"
_cell_formula_units_Z 72
_cell_length_a 16.110550
_cell_length_b 9.145680
_cell_length_c 24.200638
_cell_angle_alpha 90.000000
_cell_angle_beta 90.000000
_cell_angle_gamma 90.000000
_cell_volume 3565.768829
_symmetry_space_group_name_H-M "C M M M"
_symmetry_group_IT_number 65
_symmetry_cell_setting 'orthorhombic'
loop_
_space_group_symop_operation_xyz
x,y,z
-x,-y,z
x,-y,-z
-x,y,-z
-x,-y,-z
x,y,-z
-x,y,z
x,-y,z
1/2+x,1/2+y,z
1/2-x,1/2-y,z
1/2+x,1/2-y,-z
1/2-x,1/2+y,-z
1/2-x,1/2-y,-z
1/2+x,1/2+y,-z
1/2-x,1/2+y,z
1/2+x,1/2-y,z
loop_
_atom_site_type_symbol
_atom_site_label
_atom_site_fract_x
_atom_site_fract_y
_atom_site_fract_z
Si Si1 0.594104 0.167283 0.777104
Si Si2 0.166186 0.826228 0.125148
Si Si3 0.168768 0.331747 0.336683
Si Si4 0.500000 0.326565 0.062402
Si Si5 0.902403 0.834396 0.438072
O O1 0.500000 0.200995 0.794087
O O2 0.653521 0.274918 0.811551
O O3 0.601621 0.195481 0.711479
O O4 0.618621 0.000000 0.791063
O O5 0.250000 0.750000 0.101392
O O6 0.085032 0.771006 0.091272
O O7 0.177097 0.000000 0.122267
O O8 0.189700 0.500000 0.344739
O O9 0.250000 0.250000 0.316151
O O10 0.139528 0.274503 0.395647
O O11 0.500000 0.500000 0.063938
O O12 0.500000 0.266422 0.000000
O O13 0.872023 0.795528 0.500000
O O14 0.000000 0.814571 0.434209
O O15 0.877077 0.000000 0.423160
#
# Coordination Sequence:
#
# PCOD8273683 Si02
#       5
#    16  16  16   8  16
#     4  10  21  38  60  86 118 152 191 244 299 352
#     4  11  22  38  62  92 123 162 206 249 301 358
#     4  11  23  37  54  80 112 148 188 233 287 346
#     4   9  20  40  63  89 125 165 206 251 298 353
#     4   9  19  37  59  81 106 139 181 231 287 346
#
# _framework density 20.191998000000002
#
# number of rings (size 3 to 8) (size 9 to 14) (size 15 to 20)
#    0.000    1.889    1.111    3.333    0.000    6.222 
#    0.000    1.111    0.000    4.667    0.000    0.000 
#    0.000    0.000    0.000    0.000    0.000    0.000 
#
# Total GULP energy -446396.552849 kJ/mol
# GULP energy per Si atom -12399.904246 kJ/mol
# Density = 2.014604 g / cm^3
# Si number density = 20.191998 Si / 1000 Ang^3
#
#
#
# Elastic Constant Matrix: (Units=GPa)
#
#
# Indices 1 2 3 4 5 6 
#
# 1 119.5272 52.6344 51.6446 0.0000 0.0000 0.0000
# 2 52.6344 97.6838 45.4113 0.0000 0.0000 0.0000
# 3 51.6446 45.4113 102.7646 0.0000 0.0000 0.0000
# 4 0.0000 0.0000 0.0000 23.0326 0.0000 0.0000
# 5 0.0000 0.0000 0.0000 0.0000 25.3763 0.0000
# 6 0.0000 0.0000 0.0000 0.0000 0.0000 31.1884
#
#
#
# Elastic Compliance Matrix: (Units=1/GPa)
#
#
# Indices 1 2 3 4 5 6 
#
# 1 0.012177 -0.004677 -0.004053 0.000000 0.000000 0.000000
# 2 -0.004677 0.014680 -0.004137 0.000000 0.000000 0.000000
# 3 -0.004053 -0.004137 0.013596 0.000000 0.000000 0.000000
# 4 0.000000 0.000000 0.000000 0.043417 0.000000 0.000000
# 5 0.000000 0.000000 0.000000 0.000000 0.039407 0.000000
# 6 0.000000 0.000000 0.000000 0.000000 0.000000 0.032063
#
#
# Mechanical properties :
#
#
# Convention : Reuss Voigt Hill
#
# Bulk Modulus (GPa) = 67.93566 68.81736 68.37651
# Shear Modulus (GPa) = 26.88468 27.27183 27.07825
#
# Velocity S-wave (km/s) = 3.65287 3.67907 3.66599
# Velocity P-wave (km/s) = 7.17699 7.22516 7.20111
#
# Compressibility (1/GPa) = 0.01471981
#
# Stress axis : x y z
#
# Youngs Moduli (GPa) = 82.12188 68.11825 73.55295
#
# Poissons Ratio (x) = 0.31860 0.29809
# Poissons Ratio (y) = 0.38410 0.30426
# Poissons Ratio (z) = 0.33282 0.28178
#
# Static dielectric constant tensor:
#      x y z
#    x 3.839400 0.000000 0.000000 
#    y 0.000000 3.523230 0.000000 
#    z 0.000000 0.000000 7.012970 
# 
# 
# High freq. dielectric constant tensor:
#      x y z
#    x 1.795540 0.000000 0.000000 
#    y 0.000000 1.777870 0.000000 
#    z 0.000000 0.000000 1.788020 
# 
# From -- ./inp_files/67130.got.cif
#   From: 2010.03.12/outbox.cif.g09.slc.cpg/sg65_34_cif.got.tgz:67130.got - 2010.04.10 20:52:16.
