data_PCOD8273901
_publ_section_title
;
Structure prediction by ZEFSAII (Michael W. Deem and Ramdas Pophale) SiO2 
 PCOD8273901
Probable space group: C M M M
;
_chemical_formula_sum "Si O2"
_cell_formula_units_Z 80
_cell_length_a 26.392696
_cell_length_b 8.853344
_cell_length_c 17.593147
_cell_angle_alpha 90.000000
_cell_angle_beta 90.000000
_cell_angle_gamma 90.000000
_cell_volume 4110.878358
_symmetry_space_group_name_H-M "C M M M"
_symmetry_group_IT_number 65
_symmetry_cell_setting 'orthorhombic'
loop_
_space_group_symop_operation_xyz
x,y,z
-x,-y,z
x,-y,-z
-x,y,-z
-x,-y,-z
x,y,-z
-x,y,z
x,-y,z
1/2+x,1/2+y,z
1/2-x,1/2-y,z
1/2+x,1/2-y,-z
1/2-x,1/2+y,-z
1/2-x,1/2-y,-z
1/2+x,1/2+y,-z
1/2-x,1/2+y,z
1/2+x,1/2-y,z
loop_
_atom_site_type_symbol
_atom_site_label
_atom_site_fract_x
_atom_site_fract_y
_atom_site_fract_z
Si Si1 0.304049 0.679540 0.699763
Si Si2 0.196582 0.676351 0.000000
Si Si3 0.853420 0.677143 0.844094
Si Si4 0.390626 0.680474 0.414609
Si Si5 0.000000 0.834412 0.590268
Si Si6 0.058206 0.174012 0.913628
O O1 0.299111 0.500000 0.698554
O O2 0.250000 0.750000 0.677646
O O3 0.321224 0.733279 0.782307
O O4 0.346026 0.739264 0.639927
O O5 0.250000 0.750000 0.000000
O O6 0.167618 0.729463 0.074739
O O7 0.203936 0.500000 0.000000
O O8 0.849071 0.500000 0.827307
O O9 0.911810 0.729351 0.849852
O O10 0.378307 0.736892 0.500000
O O11 0.393746 0.500000 0.413021
O O12 0.446218 0.745820 0.387119
O O13 0.000000 0.851399 0.500000
O O14 0.000000 0.000000 0.628364
O O15 0.000000 0.194057 0.891680
O O16 0.074640 0.000000 0.907665
O O17 0.067523 0.232908 0.000000
#
# Coordination Sequence:
#
# PCOD8273901 Si02
#       6
#    16   8  16  16   8  16
#     4  11  23  38  55  80 113 149 187 233 285 334
#     4  10  22  36  53  76  97 131 180 229 273 326
#     4  11  22  38  56  78 109 146 189 230 279 333
#     4   8  15  30  54  82 111 143 181 225 275 333
#     4   7  10  22  48  80 109 136 169 216 270 320
#     4   9  18  34  57  84 112 143 182 228 276 327
#
# _framework density 19.460563
#
# number of rings (size 3 to 8) (size 9 to 14) (size 15 to 20)
#    0.000    2.500    1.000    3.600    0.000    4.000 
#    1.800    1.000    0.000    1.800    0.000    0.000 
#    0.000    9.600    0.000    0.000    0.000    0.000 
#
# Total GULP energy -495717.271149 kJ/mol
# GULP energy per Si atom -12392.931779 kJ/mol
# Density = 1.941627 g / cm^3
# Si number density = 19.460563 Si / 1000 Ang^3
#
#
#
# Elastic Constant Matrix: (Units=GPa)
#
#
# Indices 1 2 3 4 5 6 
#
# 1 169.9291 39.6770 68.3490 0.0000 0.0000 0.0000
# 2 39.6770 40.3564 27.5469 0.0000 0.0000 0.0000
# 3 68.3490 27.5469 94.1820 0.0000 0.0000 0.0000
# 4 0.0000 0.0000 0.0000 9.0608 0.0000 0.0000
# 5 0.0000 0.0000 0.0000 0.0000 35.6371 0.0000
# 6 0.0000 0.0000 0.0000 0.0000 0.0000 32.9414
#
#
#
# Elastic Compliance Matrix: (Units=1/GPa)
#
#
# Indices 1 2 3 4 5 6 
#
# 1 0.009231 -0.005626 -0.005054 0.000000 0.000000 0.000000
# 2 -0.005626 0.034390 -0.005975 0.000000 0.000000 0.000000
# 3 -0.005054 -0.005975 0.016033 0.000000 0.000000 0.000000
# 4 0.000000 0.000000 0.000000 0.110366 0.000000 0.000000
# 5 0.000000 0.000000 0.000000 0.000000 0.028061 0.000000
# 6 0.000000 0.000000 0.000000 0.000000 0.000000 0.030357
#
#
# Mechanical properties :
#
#
# Convention : Reuss Voigt Hill
#
# Bulk Modulus (GPa) = 37.96054 63.95702 50.95878
# Shear Modulus (GPa) = 18.48234 26.78751 22.63492
#
# Velocity S-wave (km/s) = 3.08512 3.71415 3.41415
# Velocity P-wave (km/s) = 5.67797 7.16446 6.46409
#
# Compressibility (1/GPa) = 0.02634314
#
# Stress axis : x y z
#
# Youngs Moduli (GPa) = 108.32929 29.07863 62.37186
#
# Poissons Ratio (x) = 0.16360 0.31520
# Poissons Ratio (y) = 0.60948 0.37270
# Poissons Ratio (z) = 0.54745 0.17376
#
# Static dielectric constant tensor:
#      x y z
#    x 3.936710 0.000000 0.000000 
#    y 0.000000 4.841720 0.000000 
#    z 0.000000 0.000000 3.483760 
# 
# 
# High freq. dielectric constant tensor:
#      x y z
#    x 1.780260 0.000000 0.000000 
#    y 0.000000 1.721080 0.000000 
#    z 0.000000 0.000000 1.740660 
# 
# From -- ./inp_files/57292.got.cif
#   From: 2010.03.12/outbox.cif.g09.slc.cpg/sg65_29_cif.got.tgz:57292.got - 2010.04.10 20:52:16.
