data_PCOD8273498
_publ_section_title
;
Structure prediction by ZEFSAII (Michael W. Deem and Ramdas Pophale) SiO2 
 PCOD8273498
Probable space group: C M M M
;
_chemical_formula_sum "Si O2"
_cell_formula_units_Z 88
_cell_length_a 20.254509
_cell_length_b 8.992951
_cell_length_c 24.115740
_cell_angle_alpha 90.000000
_cell_angle_beta 90.000000
_cell_angle_gamma 90.000000
_cell_volume 4392.629154
_symmetry_space_group_name_H-M "C M M M"
_symmetry_group_IT_number 65
_symmetry_cell_setting 'orthorhombic'
loop_
_space_group_symop_operation_xyz
x,y,z
-x,-y,z
x,-y,-z
-x,y,-z
-x,-y,-z
x,y,-z
-x,y,z
x,-y,z
1/2+x,1/2+y,z
1/2-x,1/2-y,z
1/2+x,1/2-y,-z
1/2-x,1/2+y,-z
1/2-x,1/2-y,-z
1/2+x,1/2+y,-z
1/2-x,1/2+y,z
1/2+x,1/2-y,z
loop_
_atom_site_type_symbol
_atom_site_label
_atom_site_fract_x
_atom_site_fract_y
_atom_site_fract_z
Si Si1 0.923712 0.673903 0.638502
Si Si2 0.000000 0.836929 0.065663
Si Si3 0.371380 0.169791 0.061370
Si Si4 0.315512 0.828130 0.825208
Si Si5 0.423750 0.326157 0.245819
Si Si6 0.183089 0.171438 0.434488
O O1 0.907909 0.500000 0.643336
O O2 0.905310 0.751172 0.696121
O O3 0.880022 0.746497 0.590687
O O4 0.000000 0.702273 0.623069
O O5 0.934483 0.755189 0.085434
O O6 0.000000 0.000000 0.093093
O O7 0.000000 0.845768 0.000000
O O8 0.314858 0.189615 0.107599
O O9 0.393113 0.000000 0.056082
O O10 0.348310 0.228028 0.000000
O O11 0.250000 0.750000 0.801624
O O12 0.379881 0.748797 0.801337
O O13 0.315333 0.000000 0.807391
O O14 0.500000 0.297234 0.230245
O O15 0.407779 0.500000 0.249936
O O16 0.176546 0.186896 0.500000
O O17 0.250000 0.250000 0.413206
O O18 0.184602 0.000000 0.415658
#
# Coordination Sequence:
#
# PCOD8273498 Si02
#       6
#    16   8  16  16  16  16
#     4  10  21  38  61  89 120 154 195 243 293 347
#     4   9  17  29  49  79 109 137 175 223 268 317
#     4   9  19  36  56  79 110 148 186 226 279 342
#     4  11  24  40  59  84 115 150 190 236 286 345
#     4  10  22  41  64  88 115 149 190 240 293 347
#     4  10  21  37  58  86 122 163 205 247 291 342
#
# _framework density 20.033560999999999
#
# number of rings (size 3 to 8) (size 9 to 14) (size 15 to 20)
#    0.000    2.091    0.000    2.455    1.273    7.273 
#    0.000    5.455    0.000    0.000    0.000    0.000 
#    0.000    0.000    0.000    0.000    0.000    0.000 
#
# Total GULP energy -545612.394795 kJ/mol
# GULP energy per Si atom -12400.281700 kJ/mol
# Density = 1.998796 g / cm^3
# Si number density = 20.033561 Si / 1000 Ang^3
#
#
#
# Elastic Constant Matrix: (Units=GPa)
#
#
# Indices 1 2 3 4 5 6 
#
# 1 97.8201 63.9382 44.4437 0.0000 0.0000 0.0000
# 2 63.9382 144.0966 48.5820 0.0000 0.0000 0.0000
# 3 44.4437 48.5820 63.0750 0.0000 0.0000 0.0000
# 4 0.0000 0.0000 0.0000 30.7526 0.0000 0.0000
# 5 0.0000 0.0000 0.0000 0.0000 25.3810 0.0000
# 6 0.0000 0.0000 0.0000 0.0000 0.0000 33.6757
#
#
#
# Elastic Compliance Matrix: (Units=1/GPa)
#
#
# Indices 1 2 3 4 5 6 
#
# 1 0.017173 -0.004782 -0.008417 0.000000 0.000000 0.000000
# 2 -0.004782 0.010706 -0.004876 0.000000 0.000000 0.000000
# 3 -0.008417 -0.004876 0.025541 0.000000 0.000000 0.000000
# 4 0.000000 0.000000 0.000000 0.032518 0.000000 0.000000
# 5 0.000000 0.000000 0.000000 0.000000 0.039400 0.000000
# 6 0.000000 0.000000 0.000000 0.000000 0.000000 0.029695
#
#
# Mechanical properties :
#
#
# Convention : Reuss Voigt Hill
#
# Bulk Modulus (GPa) = 57.90866 68.76881 63.33874
# Shear Modulus (GPa) = 25.38870 27.83037 26.60954
#
# Velocity S-wave (km/s) = 3.56379 3.73122 3.64847
# Velocity P-wave (km/s) = 6.77515 7.27764 7.03089
#
# Compressibility (1/GPa) = 0.01726858
#
# Stress axis : x y z
#
# Youngs Moduli (GPa) = 58.23189 93.40799 39.15324
#
# Poissons Ratio (x) = 0.44669 0.32955
# Poissons Ratio (y) = 0.27847 0.19092
# Poissons Ratio (z) = 0.49013 0.45548
#
# Static dielectric constant tensor:
#      x y z
#    x 3.516670 0.000000 0.000000 
#    y 0.000000 3.839490 0.000000 
#    z 0.000000 0.000000 3.544800 
# 
# 
# High freq. dielectric constant tensor:
#      x y z
#    x 1.776430 0.000000 0.000000 
#    y 0.000000 1.795710 0.000000 
#    z 0.000000 0.000000 1.776470 
# 
# From -- ./inp_files/70943.got.cif
#   From: 2010.03.12/outbox.cif.g09.slc.cpg/sg65_36_cif.got.tgz:70943.got - 2010.04.10 20:52:16.
