data_PCOD8273795
_publ_section_title
;
Structure prediction by ZEFSAII (Michael W. Deem and Ramdas Pophale) SiO2 
 PCOD8273795
Probable space group: C M M M
;
_chemical_formula_sum "Si O2"
_cell_formula_units_Z 88
_cell_length_a 26.951033
_cell_length_b 19.035189
_cell_length_c 8.821130
_cell_angle_alpha 90.000000
_cell_angle_beta 90.000000
_cell_angle_gamma 90.000000
_cell_volume 4525.398531
_symmetry_space_group_name_H-M "C M M M"
_symmetry_group_IT_number 65
_symmetry_cell_setting 'orthorhombic'
loop_
_space_group_symop_operation_xyz
x,y,z
-x,-y,z
x,-y,-z
-x,y,-z
-x,-y,-z
x,y,-z
-x,y,z
x,-y,z
1/2+x,1/2+y,z
1/2-x,1/2-y,z
1/2+x,1/2-y,-z
1/2-x,1/2+y,-z
1/2-x,1/2-y,-z
1/2+x,1/2+y,-z
1/2-x,1/2+y,z
1/2+x,1/2-y,z
loop_
_atom_site_type_symbol
_atom_site_label
_atom_site_fract_x
_atom_site_fract_y
_atom_site_fract_z
Si Si1 0.193615 0.420422 0.820777
Si Si2 0.500000 0.081533 0.321023
Si Si3 0.441565 0.420935 0.170699
Si Si4 0.405585 0.156914 0.179420
Si Si5 0.615788 0.302511 0.323937
Si Si6 0.772017 0.176857 0.678145
O O1 0.189823 0.500000 0.761367
O O2 0.145248 0.378785 0.762069
O O3 0.243809 0.387144 0.756628
O O4 0.196337 0.417608 0.000000
O O5 0.500000 0.091571 0.500000
O O6 0.451365 0.117612 0.254649
O O7 0.500000 0.000000 0.273918
O O8 0.500000 0.415581 0.186642
O O9 0.423749 0.500000 0.206657
O O10 0.418025 0.369721 0.293723
O O11 0.425301 0.399908 0.000000
O O12 0.405128 0.237940 0.227318
O O13 0.411380 0.151039 0.000000
O O14 0.614164 0.281668 0.500000
O O15 0.670853 0.324107 0.272749
O O16 0.764644 0.168653 0.500000
O O17 0.750000 0.250000 0.737751
#
# Coordination Sequence:
#
# PCOD8273795 Si02
#       6
#    16   8  16  16  16  16
#     4  10  22  39  61  90 120 153 198 247 295 351
#     4  11  25  43  63  89 122 159 200 247 299 355
#     4   9  20  40  63  86 116 155 197 241 296 360
#     4  11  23  40  63  89 121 160 201 246 298 354
#     4  11  23  38  60  89 122 157 200 249 297 355
#     4  10  21  39  59  82 117 158 198 239 291 350
#
# _framework density 19.445800999999999
#
# number of rings (size 3 to 8) (size 9 to 14) (size 15 to 20)
#    0.000    1.727    1.818    2.455    1.273    5.818 
#    0.000    4.545    0.000    0.000    0.000    0.000 
#    0.000    0.000    0.000    0.000    0.000    0.000 
#
# Total GULP energy -545798.468135 kJ/mol
# GULP energy per Si atom -12404.510639 kJ/mol
# Density = 1.940154 g / cm^3
# Si number density = 19.445801 Si / 1000 Ang^3
#
#
#
# Elastic Constant Matrix: (Units=GPa)
#
#
# Indices 1 2 3 4 5 6 
#
# 1 104.7413 64.5040 39.9312 0.0000 0.0000 0.0000
# 2 64.5040 138.5769 38.2179 0.0000 0.0000 0.0000
# 3 39.9312 38.2179 52.0649 0.0000 0.0000 0.0000
# 4 0.0000 0.0000 0.0000 33.3225 0.0000 0.0000
# 5 0.0000 0.0000 0.0000 0.0000 35.2365 0.0000
# 6 0.0000 0.0000 0.0000 0.0000 0.0000 35.8661
#
#
#
# Elastic Compliance Matrix: (Units=1/GPa)
#
#
# Indices 1 2 3 4 5 6 
#
# 1 0.015896 -0.005062 -0.008476 0.000000 0.000000 0.000000
# 2 -0.005062 0.010660 -0.003943 0.000000 0.000000 0.000000
# 3 -0.008476 -0.003943 0.028601 0.000000 0.000000 0.000000
# 4 0.000000 0.000000 0.000000 0.030010 0.000000 0.000000
# 5 0.000000 0.000000 0.000000 0.000000 0.028380 0.000000
# 6 0.000000 0.000000 0.000000 0.000000 0.000000 0.027881
#
#
# Mechanical properties :
#
#
# Convention : Reuss Voigt Hill
#
# Bulk Modulus (GPa) = 49.51309 64.52104 57.01707
# Shear Modulus (GPa) = 27.30450 31.06701 29.18576
#
# Velocity S-wave (km/s) = 3.75124 4.00136 3.87832
# Velocity P-wave (km/s) = 6.65431 7.38917 7.03134
#
# Compressibility (1/GPa) = 0.02019668
#
# Stress axis : x y z
#
# Youngs Moduli (GPa) = 62.90995 93.81259 34.96324
#
# Poissons Ratio (x) = 0.47483 0.29634
# Poissons Ratio (y) = 0.31842 0.13785
# Poissons Ratio (z) = 0.53322 0.36987
#
# Static dielectric constant tensor:
#      x y z
#    x 3.703240 0.000000 0.000000 
#    y 0.000000 3.675640 0.000000 
#    z 0.000000 0.000000 3.455650 
# 
# 
# High freq. dielectric constant tensor:
#      x y z
#    x 1.765690 0.000000 0.000000 
#    y 0.000000 1.768070 0.000000 
#    z 0.000000 0.000000 1.753610 
# 
# From -- ./inp_files/13947.got.cif
#   From: 2010.03.12/outbox.cif.g09.slc.cpg/sg65_7_cif.got.tgz:13947.got - 2010.04.10 20:52:16.
