data_PCOD8273657
_publ_section_title
;
Structure prediction by ZEFSAII (Michael W. Deem and Ramdas Pophale) SiO2 
 PCOD8273657
Probable space group: C M M M
;
_chemical_formula_sum "Si O2"
_cell_formula_units_Z 104
_cell_length_a 9.108778
_cell_length_b 24.500523
_cell_length_c 23.430656
_cell_angle_alpha 90.000000
_cell_angle_beta 90.000000
_cell_angle_gamma 90.000000
_cell_volume 5229.015397
_symmetry_space_group_name_H-M "C M M M"
_symmetry_group_IT_number 65
_symmetry_cell_setting 'orthorhombic'
loop_
_space_group_symop_operation_xyz
x,y,z
-x,-y,z
x,-y,-z
-x,y,-z
-x,-y,-z
x,y,-z
-x,y,z
x,-y,z
1/2+x,1/2+y,z
1/2-x,1/2-y,z
1/2+x,1/2-y,-z
1/2-x,1/2+y,-z
1/2-x,1/2-y,-z
1/2+x,1/2+y,-z
1/2-x,1/2+y,z
1/2+x,1/2-y,z
loop_
_atom_site_type_symbol
_atom_site_label
_atom_site_fract_x
_atom_site_fract_y
_atom_site_fract_z
Si Si1 0.168069 0.890119 0.435985
Si Si2 0.831115 0.103931 0.110769
Si Si3 0.825552 0.500000 0.933754
Si Si4 0.326784 0.691446 0.337446
Si Si5 0.668777 0.000000 0.274163
Si Si6 0.661268 0.799103 0.065656
Si Si7 0.667487 0.391861 0.759103
Si Si8 0.169487 0.500000 0.407817
O O1 0.182750 0.866234 0.500000
O O2 0.225948 0.843974 0.392211
O O3 0.258903 0.945751 0.433092
O O4 0.000000 0.904529 0.420908
O O5 0.738971 0.049945 0.101162
O O6 0.759589 0.147513 0.069092
O O7 0.816722 0.125983 0.175301
O O8 0.000000 0.093893 0.093914
O O9 0.000000 0.500000 0.929464
O O10 0.775345 0.500000 0.000000
O O11 0.500000 0.701747 0.338842
O O12 0.250000 0.750000 0.337865
O O13 0.278019 0.657846 0.280921
O O14 0.739253 0.053980 0.248698
O O15 0.693719 0.000000 0.340964
O O16 0.500000 0.000000 0.256497
O O17 0.500000 0.806379 0.094583
O O18 0.750000 0.750000 0.096162
O O19 0.636578 0.784716 0.000000
O O20 0.500000 0.406284 0.743319
O O21 0.000000 0.500000 0.425426
#
# Coordination Sequence:
#
# PCOD8273657 Si02
#       8
#    16  16   8  16   8  16  16   8
#     4  10  21  38  61  87 115 154 199 237 285 352
#     4  11  23  38  59  88 118 150 195 242 290 349
#     4  11  24  41  60  85 121 162 199 236 289 354
#     4  10  22  40  60  82 113 152 195 241 288 343
#     4  11  22  35  58  88 113 143 187 233 281 336
#     4  10  21  38  60  85 114 150 191 236 288 342
#     4  10  22  40  60  83 114 154 192 233 289 347
#     4  11  22  35  56  89 122 148 183 234 290 339
#
# _framework density 19.889021
#
# number of rings (size 3 to 8) (size 9 to 14) (size 15 to 20)
#    0.000    1.615    1.538    2.769    0.000   10.462 
#    0.000    1.538    0.000    0.000    0.000    0.000 
#    0.000    0.000    0.000    0.000    0.000    0.000 
#
# Total GULP energy -644840.184753 kJ/mol
# GULP energy per Si atom -12400.772784 kJ/mol
# Density = 1.984375 g / cm^3
# Si number density = 19.889021 Si / 1000 Ang^3
#
#
#
# Elastic Constant Matrix: (Units=GPa)
#
#
# Indices 1 2 3 4 5 6 
#
# 1 92.8256 44.4086 37.7289 0.0000 0.0000 0.0000
# 2 44.4086 134.7360 33.4585 0.0000 0.0000 0.0000
# 3 37.7289 33.4585 80.1330 0.0000 0.0000 0.0000
# 4 0.0000 0.0000 0.0000 17.3250 0.0000 0.0000
# 5 0.0000 0.0000 0.0000 0.0000 25.0095 0.0000
# 6 0.0000 0.0000 0.0000 0.0000 0.0000 39.4201
#
#
#
# Elastic Compliance Matrix: (Units=1/GPa)
#
#
# Indices 1 2 3 4 5 6 
#
# 1 0.014649 -0.003476 -0.005446 0.000000 0.000000 0.000000
# 2 -0.003476 0.009105 -0.002165 0.000000 0.000000 0.000000
# 3 -0.005446 -0.002165 0.015947 0.000000 0.000000 0.000000
# 4 0.000000 0.000000 0.000000 0.057720 0.000000 0.000000
# 5 0.000000 0.000000 0.000000 0.000000 0.039985 0.000000
# 6 0.000000 0.000000 0.000000 0.000000 0.000000 0.025368
#
#
# Mechanical properties :
#
#
# Convention : Reuss Voigt Hill
#
# Bulk Modulus (GPa) = 57.05249 59.87629 58.46439
# Shear Modulus (GPa) = 26.20661 29.15750 27.68206
#
# Velocity S-wave (km/s) = 3.63387 3.83300 3.73477
# Velocity P-wave (km/s) = 6.80841 7.05406 6.93232
#
# Compressibility (1/GPa) = 0.01752772
#
# Stress axis : x y z
#
# Youngs Moduli (GPa) = 68.26235 109.82640 62.70610
#
# Poissons Ratio (x) = 0.38176 0.34150
# Poissons Ratio (y) = 0.23728 0.13577
# Poissons Ratio (z) = 0.37175 0.23779
#
# Static dielectric constant tensor:
#      x y z
#    x 3.781470 0.000000 0.000000 
#    y 0.000000 3.357670 0.000000 
#    z 0.000000 0.000000 3.748820 
# 
# 
# High freq. dielectric constant tensor:
#      x y z
#    x 1.781180 0.000000 0.000000 
#    y 0.000000 1.775490 0.000000 
#    z 0.000000 0.000000 1.778810 
# 
# From -- ./inp_files/60490.got.cif
#   From: 2010.03.12/outbox.cif.g09.slc.cpg/sg65_31_cif.got.tgz:60490.got - 2010.04.10 20:52:16.
