data_PCOD8273979
_publ_section_title
;
Structure prediction by ZEFSAII (Michael W. Deem and Ramdas Pophale) SiO2 
 PCOD8273979
Probable space group: C M M M
;
_chemical_formula_sum "Si O2"
_cell_formula_units_Z 72
_cell_length_a 23.467544
_cell_length_b 17.636551
_cell_length_c 9.189987
_cell_angle_alpha 90.000000
_cell_angle_beta 90.000000
_cell_angle_gamma 90.000000
_cell_volume 3803.611891
_symmetry_space_group_name_H-M "C M M M"
_symmetry_group_IT_number 65
_symmetry_cell_setting 'orthorhombic'
loop_
_space_group_symop_operation_xyz
x,y,z
-x,-y,z
x,-y,-z
-x,y,-z
-x,-y,-z
x,y,-z
-x,y,z
x,-y,z
1/2+x,1/2+y,z
1/2-x,1/2-y,z
1/2+x,1/2-y,-z
1/2-x,1/2+y,-z
1/2-x,1/2-y,-z
1/2+x,1/2+y,-z
1/2-x,1/2+y,z
1/2+x,1/2-y,z
loop_
_atom_site_type_symbol
_atom_site_label
_atom_site_fract_x
_atom_site_fract_y
_atom_site_fract_z
Si Si1 0.352622 0.085162 0.668987
Si Si2 0.758246 0.913227 0.167872
Si Si3 0.119455 0.858963 0.828561
Si Si4 0.432683 0.500000 0.664547
Si Si5 0.433869 0.219317 0.668731
O O1 0.338864 0.084394 0.500000
O O2 0.296068 0.118103 0.745200
O O3 0.406614 0.137683 0.704275
O O4 0.366471 0.000000 0.725389
O O5 0.813271 0.862932 0.206184
O O6 0.772240 0.000000 0.211330
O O7 0.742378 0.906741 0.000000
O O8 0.096411 0.779741 0.771028
O O9 0.086982 0.925780 0.748190
O O10 0.107924 0.866751 0.000000
O O11 0.500000 0.500000 0.659869
O O12 0.408098 0.500000 0.500000
O O13 0.425004 0.241857 0.500000
O O14 0.500000 0.214274 0.708790
#
# Coordination Sequence:
#
# PCOD8273979 Si02
#       5
#    16  16  16   8  16
#     4   9  19  36  59  85 109 141 187 233 282 338
#     4   9  18  35  56  80 112 145 181 226 278 330
#     4  11  22  37  57  82 113 150 191 230 273 330
#     4  11  23  37  55  81 113 151 192 231 276 325
#     4  10  22  39  56  79 114 149 185 234 286 334
#
# _framework density 18.929376000000001
#
# number of rings (size 3 to 8) (size 9 to 14) (size 15 to 20)
#    0.000    2.111    1.111    1.667    0.000    8.000 
#    0.000    6.667    0.000    0.000    0.000    4.667 
#    0.000    0.000    0.000    0.000    0.000    0.000 
#
# Total GULP energy -446478.939979 kJ/mol
# GULP energy per Si atom -12402.192777 kJ/mol
# Density = 1.888629 g / cm^3
# Si number density = 18.929376 Si / 1000 Ang^3
#
#
#
# Elastic Constant Matrix: (Units=GPa)
#
#
# Indices 1 2 3 4 5 6 
#
# 1 128.6094 63.9936 53.9332 0.0000 0.0000 0.0000
# 2 63.9936 101.6592 50.2324 0.0000 0.0000 0.0000
# 3 53.9332 50.2324 77.0722 0.0000 0.0000 0.0000
# 4 0.0000 0.0000 0.0000 31.3238 0.0000 0.0000
# 5 0.0000 0.0000 0.0000 0.0000 -9.5725 0.0000
# 6 0.0000 0.0000 0.0000 0.0000 0.0000 39.1442
#
#
#
# Elastic Compliance Matrix: (Units=1/GPa)
#
#
# Indices 1 2 3 4 5 6 
#
# 1 0.012691 -0.005311 -0.005419 0.000000 0.000000 0.000000
# 2 -0.005311 0.016732 -0.007189 0.000000 0.000000 0.000000
# 3 -0.005419 -0.007189 0.021452 0.000000 0.000000 0.000000
# 4 0.000000 0.000000 0.000000 0.031925 0.000000 0.000000
# 5 0.000000 0.000000 0.000000 0.000000 -0.104465 0.000000
# 6 0.000000 0.000000 0.000000 0.000000 0.000000 0.025547
#
#
# Mechanical properties :
#
#
# Convention : Reuss Voigt Hill
#
# Bulk Modulus (GPa) = 66.50105 71.51766 69.00936
# Shear Modulus (GPa) = 111.77861 21.45787 66.61824
#
# Velocity S-wave (km/s) = 7.69276 3.37051 5.93881
# Velocity P-wave (km/s) = 10.68233 7.28083 9.14119
#
# Compressibility (1/GPa) = 0.01503736
#
# Stress axis : x y z
#
# Youngs Moduli (GPa) = 78.79821 59.76517 46.61475
#
# Poissons Ratio (x) = 0.31741 0.25261
# Poissons Ratio (y) = 0.41849 0.33511
# Poissons Ratio (z) = 0.42702 0.42964
#
# Static dielectric constant tensor:
#      x y z
#    x 3.567690 0.000000 0.000000 
#    y 0.000000 3.509740 0.000000 
#    z 0.000000 0.000000 3.547700 
# 
# 
# High freq. dielectric constant tensor:
#      x y z
#    x 1.742130 0.000000 0.000000 
#    y 0.000000 1.731250 0.000000 
#    z 0.000000 0.000000 1.736360 
# 
# From -- ./inp_files/7233.got.cif
#   From: 2010.03.12/outbox.cif.g09.slc.cpg/sg65_4_cif.got.tgz:7233.got - 2010.04.10 20:52:16.
