data_PCOD8273029
_publ_section_title
;
Structure prediction by ZEFSAII (Michael W. Deem and Ramdas Pophale) SiO2 
 PCOD8273029
Probable space group: C M M M
;
_chemical_formula_sum "Si O2"
_cell_formula_units_Z 88
_cell_length_a 19.526276
_cell_length_b 9.083124
_cell_length_c 27.426941
_cell_angle_alpha 90.000000
_cell_angle_beta 90.000000
_cell_angle_gamma 90.000000
_cell_volume 4864.430906
_symmetry_space_group_name_H-M "C M M M"
_symmetry_group_IT_number 65
_symmetry_cell_setting 'orthorhombic'
loop_
_space_group_symop_operation_xyz
x,y,z
-x,-y,z
x,-y,-z
-x,y,-z
-x,-y,-z
x,y,-z
-x,y,z
x,-y,z
1/2+x,1/2+y,z
1/2-x,1/2-y,z
1/2+x,1/2-y,-z
1/2-x,1/2+y,-z
1/2-x,1/2-y,-z
1/2+x,1/2+y,-z
1/2-x,1/2+y,z
1/2+x,1/2-y,z
loop_
_atom_site_type_symbol
_atom_site_label
_atom_site_fract_x
_atom_site_fract_y
_atom_site_fract_z
Si Si1 0.423242 0.174659 0.000000
Si Si2 0.180817 0.670961 0.442972
Si Si3 0.818840 0.327837 0.192214
Si Si4 0.419635 0.670504 0.627082
Si Si5 0.078695 0.329070 0.275266
Si Si6 0.680027 0.826586 0.081806
O O1 0.382392 0.228485 0.952011
O O2 0.500000 0.242909 0.000000
O O3 0.428641 0.000000 0.000000
O O4 0.168836 0.696061 0.500000
O O5 0.186267 0.500000 0.429480
O O6 0.250000 0.750000 0.425239
O O7 0.116648 0.742808 0.416229
O O8 0.805500 0.500000 0.195277
O O9 0.750000 0.250000 0.210059
O O10 0.879869 0.278418 0.227649
O O11 0.838367 0.280897 0.137178
O O12 0.500000 0.695855 0.619981
O O13 0.399399 0.500000 0.624809
O O14 0.395269 0.734966 0.678862
O O15 0.090607 0.500000 0.287601
O O16 0.000000 0.295336 0.263478
O O17 0.750000 0.750000 0.064577
O O18 0.691157 0.000000 0.076310
#
# Coordination Sequence:
#
# PCOD8273029 Si02
#       6
#     8  16  16  16  16  16
#     4   9  17  28  45  71  98 123 156 200 244 285
#     4  10  21  37  57  80 106 136 170 209 253 300
#     4   9  18  31  48  71  96 124 160 201 244 291
#     4  10  21  36  54  77 105 137 172 209 250 298
#     4   9  18  33  51  70  95 128 165 205 248 293
#     4   9  17  30  48  69  94 125 160 197 240 291
#
# _framework density 18.090502999999998
#
# number of rings (size 3 to 8) (size 9 to 14) (size 15 to 20)
#    0.000    2.636    0.000    1.364    0.000    4.727 
#    0.000    7.273    0.000    1.091    0.000    5.091 
#    0.000    0.000    0.000    0.000    0.000    0.000 
#
# Total GULP energy -545681.388877 kJ/mol
# GULP energy per Si atom -12401.849747 kJ/mol
# Density = 1.804933 g / cm^3
# Si number density = 18.090503 Si / 1000 Ang^3
#
#
#
# Elastic Constant Matrix: (Units=GPa)
#
#
# Indices 1 2 3 4 5 6 
#
# 1 112.2008 47.9539 73.8978 0.0000 0.0000 0.0000
# 2 47.9539 69.9863 50.9940 0.0000 0.0000 0.0000
# 3 73.8978 50.9940 104.0311 0.0000 0.0000 0.0000
# 4 0.0000 0.0000 0.0000 22.4691 0.0000 0.0000
# 5 0.0000 0.0000 0.0000 0.0000 38.7192 0.0000
# 6 0.0000 0.0000 0.0000 0.0000 0.0000 30.6830
#
#
#
# Elastic Compliance Matrix: (Units=1/GPa)
#
#
# Indices 1 2 3 4 5 6 
#
# 1 0.017652 -0.004603 -0.010283 0.000000 0.000000 0.000000
# 2 -0.004603 0.023427 -0.008214 0.000000 0.000000 0.000000
# 3 -0.010283 -0.008214 0.020943 0.000000 0.000000 0.000000
# 4 0.000000 0.000000 0.000000 0.044505 0.000000 0.000000
# 5 0.000000 0.000000 0.000000 0.000000 0.025827 0.000000
# 6 0.000000 0.000000 0.000000 0.000000 0.000000 0.032591
#
#
# Mechanical properties :
#
#
# Convention : Reuss Voigt Hill
#
# Bulk Modulus (GPa) = 63.19794 70.21218 66.70506
# Shear Modulus (GPa) = 23.10310 25.93243 24.51776
#
# Velocity S-wave (km/s) = 3.57751 3.79024 3.68541
# Velocity P-wave (km/s) = 7.21629 7.61909 7.42042
#
# Compressibility (1/GPa) = 0.01582330
#
# Stress axis : x y z
#
# Youngs Moduli (GPa) = 56.64941 42.68536 47.74762
#
# Poissons Ratio (x) = 0.19647 0.49100
# Poissons Ratio (y) = 0.26074 0.39220
# Poissons Ratio (z) = 0.58253 0.35062
#
# Static dielectric constant tensor:
#      x y z
#    x 3.425420 0.000000 0.000000 
#    y 0.000000 3.285600 0.000000 
#    z 0.000000 0.000000 3.471640 
# 
# 
# High freq. dielectric constant tensor:
#      x y z
#    x 1.698650 0.000000 0.000000 
#    y 0.000000 1.691800 0.000000 
#    z 0.000000 0.000000 1.706870 
# 
# From -- ./inp_files/67486.got.cif
#   From: 2010.03.12/outbox.cif.g09.slc.cpg/sg65_34_cif.got.tgz:67486.got - 2010.04.10 20:52:16.
