data_PCOD8273518
_publ_section_title
;
Structure prediction by ZEFSAII (Michael W. Deem and Ramdas Pophale) SiO2 
 PCOD8273518
Probable space group: C M M M
;
_chemical_formula_sum "Si O2"
_cell_formula_units_Z 96
_cell_length_a 19.967196
_cell_length_b 17.301131
_cell_length_c 13.726448
_cell_angle_alpha 90.000000
_cell_angle_beta 90.000000
_cell_angle_gamma 90.000000
_cell_volume 4741.871105
_symmetry_space_group_name_H-M "C M M M"
_symmetry_group_IT_number 65
_symmetry_cell_setting 'orthorhombic'
loop_
_space_group_symop_operation_xyz
x,y,z
-x,-y,z
x,-y,-z
-x,y,-z
-x,-y,-z
x,y,-z
-x,y,z
x,-y,z
1/2+x,1/2+y,z
1/2-x,1/2-y,z
1/2+x,1/2-y,-z
1/2-x,1/2+y,-z
1/2-x,1/2-y,-z
1/2+x,1/2+y,-z
1/2-x,1/2+y,z
1/2+x,1/2-y,z
loop_
_atom_site_type_symbol
_atom_site_label
_atom_site_fract_x
_atom_site_fract_y
_atom_site_fract_z
Si Si1 0.181720 0.295832 0.612085
Si Si2 0.000000 0.907744 0.891657
Si Si3 0.628119 0.587770 0.215643
Si Si4 0.137243 0.591654 0.783145
Si Si5 0.423798 0.336683 0.391098
Si Si6 0.500000 0.908651 0.112880
Si Si7 0.245128 0.159030 0.891978
O O1 0.189089 0.325918 0.500000
O O2 0.250000 0.250000 0.642218
O O3 0.164074 0.366399 0.684627
O O4 0.117528 0.241359 0.621359
O O5 0.933715 0.874293 0.842223
O O6 0.000000 0.000000 0.882620
O O7 0.000000 0.876687 0.000000
O O8 0.640951 0.500000 0.186136
O O9 0.610767 0.595348 0.329155
O O10 0.693227 0.635507 0.190591
O O11 0.139975 0.500000 0.763067
O O12 0.185488 0.615976 0.871370
O O13 0.064157 0.617925 0.822501
O O14 0.421238 0.368387 0.500000
O O15 0.500000 0.320551 0.357994
O O16 0.500000 0.000000 0.103236
O O17 0.500000 0.875387 0.000000
O O18 0.250000 0.250000 0.885042
O O19 0.221335 0.133720 0.000000
#
# Coordination Sequence:
#
# PCOD8273518 Si02
#       7
#    16   8  16  16  16   8  16
#     4  10  22  41  63  88 122 162 203 251 307 366
#     4   9  18  32  50  77 114 150 185 231 292 353
#     4  11  21  36  59  87 117 153 196 249 302 350
#     4  11  22  38  63  92 121 159 203 253 309 360
#     4  10  21  37  59  86 119 163 204 241 296 364
#     4   9  20  38  58  85 122 158 197 247 304 363
#     4  11  24  41  60  86 121 159 202 248 297 361
#
# _framework density 20.245172
#
# number of rings (size 3 to 8) (size 9 to 14) (size 15 to 20)
#    0.000    1.667    0.833    4.000    1.167    3.333 
#    0.000    0.833    0.000   10.500    0.000    0.000 
#    0.000    0.000    0.000    0.000    0.000    0.000 
#
# Total GULP energy -594993.277774 kJ/mol
# GULP energy per Si atom -12395.693287 kJ/mol
# Density = 2.019909 g / cm^3
# Si number density = 20.245172 Si / 1000 Ang^3
#
#
#
# Elastic Constant Matrix: (Units=GPa)
#
#
# Indices 1 2 3 4 5 6 
#
# 1 157.3669 45.2207 61.5557 0.0000 0.0000 0.0000
# 2 45.2207 64.5597 48.8329 0.0000 0.0000 0.0000
# 3 61.5557 48.8329 133.2488 0.0000 0.0000 0.0000
# 4 0.0000 0.0000 0.0000 -1.0053 0.0000 0.0000
# 5 0.0000 0.0000 0.0000 0.0000 37.3033 0.0000
# 6 0.0000 0.0000 0.0000 0.0000 0.0000 25.2002
#
#
#
# Elastic Compliance Matrix: (Units=1/GPa)
#
#
# Indices 1 2 3 4 5 6 
#
# 1 0.008480 -0.004118 -0.002408 0.000000 0.000000 0.000000
# 2 -0.004118 0.023430 -0.006684 0.000000 0.000000 0.000000
# 3 -0.002408 -0.006684 0.011067 0.000000 0.000000 0.000000
# 4 0.000000 0.000000 0.000000 -0.994761 0.000000 0.000000
# 5 0.000000 0.000000 0.000000 0.000000 0.026807 0.000000
# 6 0.000000 0.000000 0.000000 0.000000 0.000000 0.039682
#
#
# Mechanical properties :
#
#
# Convention : Reuss Voigt Hill
#
# Bulk Modulus (GPa) = 60.40206 74.04377 67.22291
# Shear Modulus (GPa) = -5.85923 25.60406 9.87241
#
# Velocity S-wave (km/s) = -1.70306 3.56012 2.21066
# Velocity P-wave (km/s) = 5.10224 7.31794 6.30813
#
# Compressibility (1/GPa) = 0.01655573
#
# Stress axis : x y z
#
# Youngs Moduli (GPa) = 117.92499 42.68025 90.36008
#
# Poissons Ratio (x) = 0.17577 0.21760
# Poissons Ratio (y) = 0.48564 0.60398
# Poissons Ratio (z) = 0.28398 0.28528
#
# Static dielectric constant tensor:
#      x y z
#    x 3.865960 0.000000 0.000000 
#    y 0.000000 3.330540 0.000000 
#    z 0.000000 0.000000 3.945280 
# 
# 
# High freq. dielectric constant tensor:
#      x y z
#    x 1.809520 0.000000 0.000000 
#    y 0.000000 1.763630 0.000000 
#    z 0.000000 0.000000 1.805150 
# 
# From -- ./inp_files/44195.got.cif
#   From: 2010.03.12/outbox.cif.g09.slc.cpg/sg65_23_cif.got.tgz:44195.got - 2010.04.10 20:52:16.
