data_PCOD8273577
_publ_section_title
;
Structure prediction by ZEFSAII (Michael W. Deem and Ramdas Pophale) SiO2 
 PCOD8273577
Probable space group: C M M M
;
_chemical_formula_sum "Si O2"
_cell_formula_units_Z 64
_cell_length_a 8.619681
_cell_length_b 15.201726
_cell_length_c 24.283904
_cell_angle_alpha 90.000000
_cell_angle_beta 90.000000
_cell_angle_gamma 90.000000
_cell_volume 3182.017775
_symmetry_space_group_name_H-M "C M M M"
_symmetry_group_IT_number 65
_symmetry_cell_setting 'orthorhombic'
loop_
_space_group_symop_operation_xyz
x,y,z
-x,-y,z
x,-y,-z
-x,y,-z
-x,-y,-z
x,y,-z
-x,y,z
x,-y,z
1/2+x,1/2+y,z
1/2-x,1/2-y,z
1/2+x,1/2-y,-z
1/2-x,1/2+y,-z
1/2-x,1/2-y,-z
1/2+x,1/2+y,-z
1/2-x,1/2+y,z
1/2+x,1/2-y,z
loop_
_atom_site_type_symbol
_atom_site_label
_atom_site_fract_x
_atom_site_fract_y
_atom_site_fract_z
Si Si1 0.316937 0.158776 0.561764
Si Si2 0.816059 0.500000 0.638126
Si Si3 0.316878 0.848219 0.170339
Si Si4 0.681574 0.653720 0.940484
Si Si5 0.182085 0.000000 0.242426
O O1 0.253868 0.139198 0.500000
O O2 0.500000 0.164150 0.560470
O O3 0.250000 0.250000 0.584472
O O4 0.261781 0.083843 0.603183
O O5 0.718662 0.500000 0.693471
O O6 0.000000 0.500000 0.650220
O O7 0.500000 0.843422 0.174107
O O8 0.250000 0.750000 0.177708
O O9 0.266109 0.891693 0.111428
O O10 0.254751 0.911394 0.217714
O O11 0.500000 0.658502 0.927230
O O12 0.750000 0.750000 0.945448
O O13 0.709761 0.605569 0.000000
O O14 0.000000 0.000000 0.231488
#
# Coordination Sequence:
#
# PCOD8273577 Si02
#       5
#    16   8  16  16   8
#     4   9  18  34  58  87 118 151 186 227 277 333
#     4  10  21  38  58  81 113 152 193 234 281 337
#     4  11  22  39  62  86 114 150 192 239 293 348
#     4   9  16  28  50  81 114 147 184 228 282 344
#     4  12  26  43  60  82 114 152 199 247 291 342
#
# _framework density 20.113023999999999
#
# number of rings (size 3 to 8) (size 9 to 14) (size 15 to 20)
#    0.000    2.000    0.000    6.000    0.000    5.000 
#    0.000    3.125    0.000    7.500    0.000    0.000 
#    0.000    0.000    0.000    0.000    0.000    0.000 
#
# Total GULP energy -396649.613373 kJ/mol
# GULP energy per Si atom -12395.300418 kJ/mol
# Density = 2.006725 g / cm^3
# Si number density = 20.113024 Si / 1000 Ang^3
#
#
#
# Elastic Constant Matrix: (Units=GPa)
#
#
# Indices 1 2 3 4 5 6 
#
# 1 125.7685 47.1335 54.0905 0.0000 0.0000 0.0000
# 2 47.1335 120.8405 78.3196 0.0000 0.0000 0.0000
# 3 54.0905 78.3196 149.9504 0.0000 0.0000 0.0000
# 4 0.0000 0.0000 0.0000 -33.6844 0.0000 0.0000
# 5 0.0000 0.0000 0.0000 0.0000 35.1379 0.0000
# 6 0.0000 0.0000 0.0000 0.0000 0.0000 28.5280
#
#
#
# Elastic Compliance Matrix: (Units=1/GPa)
#
#
# Indices 1 2 3 4 5 6 
#
# 1 0.009824 -0.002320 -0.002332 0.000000 0.000000 0.000000
# 2 -0.002320 0.013058 -0.005983 0.000000 0.000000 0.000000
# 3 -0.002332 -0.005983 0.010635 0.000000 0.000000 0.000000
# 4 0.000000 0.000000 0.000000 -0.029687 0.000000 0.000000
# 5 0.000000 0.000000 0.000000 0.000000 0.028459 0.000000
# 6 0.000000 0.000000 0.000000 0.000000 0.000000 0.035053
#
#
# Mechanical properties :
#
#
# Convention : Reuss Voigt Hill
#
# Bulk Modulus (GPa) = 81.65865 83.96074 82.80969
# Shear Modulus (GPa) = 53.94013 20.46402 37.20207
#
# Velocity S-wave (km/s) = 5.18428 3.19321 4.30542
# Velocity P-wave (km/s) = 8.74778 7.44517 8.12263
#
# Compressibility (1/GPa) = 0.01224610
#
# Stress axis : x y z
#
# Youngs Moduli (GPa) = 101.79665 76.57857 94.02830
#
# Poissons Ratio (x) = 0.17770 0.21923
# Poissons Ratio (y) = 0.23622 0.56261
# Poissons Ratio (z) = 0.23735 0.45820
#
# Static dielectric constant tensor:
#      x y z
#    x 3.644250 0.000000 0.000000 
#    y 0.000000 3.430130 0.000000 
#    z 0.000000 0.000000 4.151120 
# 
# 
# High freq. dielectric constant tensor:
#      x y z
#    x 1.788130 0.000000 0.000000 
#    y 0.000000 1.771200 0.000000 
#    z 0.000000 0.000000 1.795270 
# 
# From -- ./inp_files/58784.got.cif
#   From: 2010.03.12/outbox.cif.g09.slc.cpg/sg65_30_cif.got.tgz:58784.got - 2010.04.10 20:52:16.
