data_PCOD8273715
_publ_section_title
;
Structure prediction by ZEFSAII (Michael W. Deem and Ramdas Pophale) SiO2 
 PCOD8273715
Probable space group: C M M M
;
_chemical_formula_sum "Si O2"
_cell_formula_units_Z 80
_cell_length_a 18.527642
_cell_length_b 8.680182
_cell_length_c 25.956055
_cell_angle_alpha 90.000000
_cell_angle_beta 90.000000
_cell_angle_gamma 90.000000
_cell_volume 4174.338539
_symmetry_space_group_name_H-M "C M M M"
_symmetry_group_IT_number 65
_symmetry_cell_setting 'orthorhombic'
loop_
_space_group_symop_operation_xyz
x,y,z
-x,-y,z
x,-y,-z
-x,y,-z
-x,-y,-z
x,y,-z
-x,y,z
x,-y,z
1/2+x,1/2+y,z
1/2-x,1/2-y,z
1/2+x,1/2-y,-z
1/2-x,1/2+y,-z
1/2-x,1/2-y,-z
1/2+x,1/2+y,-z
1/2-x,1/2+y,z
1/2+x,1/2-y,z
loop_
_atom_site_type_symbol
_atom_site_label
_atom_site_fract_x
_atom_site_fract_y
_atom_site_fract_z
Si Si1 0.673774 0.819821 0.940257
Si Si2 0.828661 0.318369 0.761027
Si Si3 0.918625 0.684537 0.664884
Si Si4 0.915792 0.179033 0.146414
Si Si5 0.414244 0.172660 0.445482
O O1 0.750000 0.750000 0.922459
O O2 0.610377 0.736391 0.909275
O O3 0.674214 0.000000 0.927906
O O4 0.659210 0.785545 0.000000
O O5 0.822579 0.500000 0.757822
O O6 0.750000 0.250000 0.766681
O O7 0.866647 0.251505 0.709525
O O8 0.875749 0.274950 0.810021
O O9 0.918620 0.500000 0.663213
O O10 0.889479 0.749411 0.608976
O O11 0.000000 0.743664 0.676082
O O12 0.000000 0.213435 0.150852
O O13 0.897899 0.000000 0.153146
O O14 0.390360 0.256213 0.500000
O O15 0.500000 0.166502 0.442931
O O16 0.383247 0.000000 0.447748
#
# Coordination Sequence:
#
# PCOD8273715 Si02
#       5
#    16  16  16  16  16
#     4  10  21  38  61  87 115 147 181 215 252 299
#     4  11  22  36  54  74 101 137 176 218 262 312
#     4   8  14  25  43  68  95 125 164 209 257 307
#     4  11  24  40  58  81 109 139 173 216 264 312
#     4   7   9  15  31  58  91 122 153 196 250 303
#
# _framework density 19.164714
#
# number of rings (size 3 to 8) (size 9 to 14) (size 15 to 20)
#    0.000    2.600    0.000    4.800    0.000    4.000 
#    0.000    2.000    0.000    0.600    0.000    0.000 
#    0.000    2.400    0.000   22.600    0.000   18.600 
#
# Total GULP energy -495645.317172 kJ/mol
# GULP energy per Si atom -12391.132929 kJ/mol
# Density = 1.912109 g / cm^3
# Si number density = 19.164714 Si / 1000 Ang^3
#
#
#
# Elastic Constant Matrix: (Units=GPa)
#
#
# Indices 1 2 3 4 5 6 
#
# 1 89.0021 30.2184 59.4652 0.0000 0.0000 0.0000
# 2 30.2184 41.7640 24.0896 0.0000 0.0000 0.0000
# 3 59.4652 24.0896 137.3719 0.0000 0.0000 0.0000
# 4 0.0000 0.0000 0.0000 4.2831 0.0000 0.0000
# 5 0.0000 0.0000 0.0000 0.0000 15.4171 0.0000
# 6 0.0000 0.0000 0.0000 0.0000 0.0000 13.4236
#
#
#
# Elastic Compliance Matrix: (Units=1/GPa)
#
#
# Indices 1 2 3 4 5 6 
#
# 1 0.018930 -0.009979 -0.006444 0.000000 0.000000 0.000000
# 2 -0.009979 0.031900 -0.001274 0.000000 0.000000 0.000000
# 3 -0.006444 -0.001274 0.010292 0.000000 0.000000 0.000000
# 4 0.000000 0.000000 0.000000 0.233477 0.000000 0.000000
# 5 0.000000 0.000000 0.000000 0.000000 0.064863 0.000000
# 6 0.000000 0.000000 0.000000 0.000000 0.000000 0.074496
#
#
# Mechanical properties :
#
#
# Convention : Reuss Voigt Hill
#
# Bulk Modulus (GPa) = 38.87083 55.07605 46.97344
# Shear Modulus (GPa) = 10.46183 16.91576 13.68880
#
# Velocity S-wave (km/s) = 2.33896 2.97417 2.67548
# Velocity P-wave (km/s) = 5.25556 6.37141 5.84019
#
# Compressibility (1/GPa) = 0.02572623
#
# Stress axis : x y z
#
# Youngs Moduli (GPa) = 52.82757 31.34833 97.15863
#
# Poissons Ratio (x) = 0.31284 0.62610
# Poissons Ratio (y) = 0.52719 0.12378
# Poissons Ratio (z) = 0.34043 0.03994
#
# Static dielectric constant tensor:
#      x y z
#    x 3.317400 0.000000 0.000000 
#    y 0.000000 3.179740 0.000000 
#    z 0.000000 0.000000 4.127490 
# 
# 
# High freq. dielectric constant tensor:
#      x y z
#    x 1.718800 0.000000 0.000000 
#    y 0.000000 1.708220 0.000000 
#    z 0.000000 0.000000 1.776460 
# 
# From -- ./inp_files/72775.got.cif
#   From: 2010.03.12/outbox.cif.g09.slc.cpg/sg65_37_cif.got.tgz:72775.got - 2010.04.10 20:52:16.
