data_PCOD8273542
_publ_section_title
;
Structure prediction by ZEFSAII (Michael W. Deem and Ramdas Pophale) SiO2 
 PCOD8273542
Probable space group: C M M M
;
_chemical_formula_sum "Si O2"
_cell_formula_units_Z 88
_cell_length_a 16.341967
_cell_length_b 7.775378
_cell_length_c 33.150101
_cell_angle_alpha 90.000000
_cell_angle_beta 90.000000
_cell_angle_gamma 90.000000
_cell_volume 4212.216612
_symmetry_space_group_name_H-M "C M M M"
_symmetry_group_IT_number 65
_symmetry_cell_setting 'orthorhombic'
loop_
_space_group_symop_operation_xyz
x,y,z
-x,-y,z
x,-y,-z
-x,y,-z
-x,-y,-z
x,y,-z
-x,y,z
x,-y,z
1/2+x,1/2+y,z
1/2-x,1/2-y,z
1/2+x,1/2-y,-z
1/2-x,1/2+y,-z
1/2-x,1/2-y,-z
1/2+x,1/2+y,-z
1/2-x,1/2+y,z
1/2+x,1/2-y,z
loop_
_atom_site_type_symbol
_atom_site_label
_atom_site_fract_x
_atom_site_fract_y
_atom_site_fract_z
Si Si1 0.596352 0.000000 0.689883
Si Si2 0.160336 0.692576 0.911644
Si Si3 0.000000 0.705313 0.046142
Si Si4 0.097318 0.190798 0.545225
Si Si5 0.408180 0.701157 0.168153
Si Si6 0.902172 0.500000 0.401048
Si Si7 0.657663 0.702451 0.745725
O O1 0.626039 0.177180 0.709933
O O2 0.500000 0.000000 0.690181
O O3 0.631313 0.000000 0.644484
O O4 0.154108 0.500000 0.926022
O O5 0.250000 0.750000 0.926272
O O6 0.082330 0.786298 0.932962
O O7 0.153209 0.708563 0.863110
O O8 0.000000 0.500000 0.050763
O O9 0.000000 0.764666 0.000000
O O10 0.128520 0.233277 0.500000
O O11 0.132848 0.331208 0.576254
O O12 0.000000 0.197361 0.545567
O O13 0.127141 0.000000 0.558327
O O14 0.500000 0.760431 0.157726
O O15 0.395596 0.500000 0.162949
O O16 0.390828 0.754371 0.214018
O O17 0.000000 0.500000 0.401624
O O18 0.646361 0.500000 0.734536
O O19 0.750000 0.750000 0.754822
#
# Coordination Sequence:
#
# PCOD8273542 Si02
#       7
#     8  16   8  16  16   8  16
#     4  11  24  39  58  87 119 161 203 257 300 370
#     4  11  22  37  60  90 119 158 200 244 300 357
#     4   9  20  40  61  85 121 161 203 247 299 363
#     4   8  13  22  39  65 100 143 187 234 293 361
#     4  10  21  37  60  90 121 149 186 245 304 357
#     4   9  17  28  43  68 106 147 191 233 298 352
#     4  11  23  41  62  86 116 158 202 250 308 366
#
# _framework density 20.891614000000001
#
# number of rings (size 3 to 8) (size 9 to 14) (size 15 to 20)
#    0.000    2.091    1.818    2.455    1.273    4.727 
#    0.000    1.818    0.000    3.818    0.000    0.000 
#    0.000    2.909    0.000    0.000    0.000    0.000 
#
# Total GULP energy -545392.665096 kJ/mol
# GULP energy per Si atom -12395.287843 kJ/mol
# Density = 2.084406 g / cm^3
# Si number density = 20.891614 Si / 1000 Ang^3
#
#
#
# Elastic Constant Matrix: (Units=GPa)
#
#
# Indices 1 2 3 4 5 6 
#
# 1 109.3160 27.2934 41.6934 0.0000 0.0000 0.0000
# 2 27.2934 104.6052 61.1913 0.0000 0.0000 0.0000
# 3 41.6934 61.1913 137.6149 0.0000 0.0000 0.0000
# 4 0.0000 0.0000 0.0000 20.1117 0.0000 0.0000
# 5 0.0000 0.0000 0.0000 0.0000 8.1477 0.0000
# 6 0.0000 0.0000 0.0000 0.0000 0.0000 15.4586
#
#
#
# Elastic Compliance Matrix: (Units=1/GPa)
#
#
# Indices 1 2 3 4 5 6 
#
# 1 0.010450 -0.001182 -0.002640 0.000000 0.000000 0.000000
# 2 -0.001182 0.013054 -0.005447 0.000000 0.000000 0.000000
# 3 -0.002640 -0.005447 0.010488 0.000000 0.000000 0.000000
# 4 0.000000 0.000000 0.000000 0.049722 0.000000 0.000000
# 5 0.000000 0.000000 0.000000 0.000000 0.122735 0.000000
# 6 0.000000 0.000000 0.000000 0.000000 0.000000 0.064689
#
#
# Mechanical properties :
#
#
# Convention : Reuss Voigt Hill
#
# Bulk Modulus (GPa) = 64.70519 67.98803 66.34661
# Shear Modulus (GPa) = 16.95904 23.50080 20.22992
#
# Velocity S-wave (km/s) = 2.85224 3.35758 3.11517
# Velocity P-wave (km/s) = 6.47195 6.90253 6.69070
#
# Compressibility (1/GPa) = 0.01545471
#
# Stress axis : x y z
#
# Youngs Moduli (GPa) = 95.69396 76.60349 95.34281
#
# Poissons Ratio (x) = 0.09054 0.25175
# Poissons Ratio (y) = 0.11311 0.51929
# Poissons Ratio (z) = 0.25268 0.41722
#
# Static dielectric constant tensor:
#      x y z
#    x 3.861590 0.000000 0.000000 
#    y 0.000000 3.807530 0.000000 
#    z 0.000000 0.000000 3.839610 
# 
# 
# High freq. dielectric constant tensor:
#      x y z
#    x 1.802440 0.000000 0.000000 
#    y 0.000000 1.816160 0.000000 
#    z 0.000000 0.000000 1.810710 
# 
# From -- ./inp_files/78014.got.cif
#   From: 2010.03.12/outbox.cif.g09.slc.cpg/sg65_40_cif.got.tgz:78014.got - 2010.04.10 20:52:16.
