data_PCOD8273282
_publ_section_title
;
Structure prediction by ZEFSAII (Michael W. Deem and Ramdas Pophale) SiO2 
 PCOD8273282
Probable space group: C M M M
;
_chemical_formula_sum "Si O2"
_cell_formula_units_Z 64
_cell_length_a 10.648972
_cell_length_b 18.024095
_cell_length_c 18.033832
_cell_angle_alpha 90.000000
_cell_angle_beta 90.000000
_cell_angle_gamma 90.000000
_cell_volume 3461.379143
_symmetry_space_group_name_H-M "C M M M"
_symmetry_group_IT_number 65
_symmetry_cell_setting 'orthorhombic'
loop_
_space_group_symop_operation_xyz
x,y,z
-x,-y,z
x,-y,-z
-x,y,-z
-x,-y,-z
x,y,-z
-x,y,z
x,-y,z
1/2+x,1/2+y,z
1/2-x,1/2-y,z
1/2+x,1/2-y,-z
1/2-x,1/2+y,-z
1/2-x,1/2-y,-z
1/2+x,1/2+y,-z
1/2-x,1/2+y,z
1/2+x,1/2-y,z
loop_
_atom_site_type_symbol
_atom_site_label
_atom_site_fract_x
_atom_site_fract_y
_atom_site_fract_z
Si Si1 0.500000 0.086781 0.587923
Si Si2 0.854871 0.082556 0.785095
Si Si3 0.748934 0.161985 0.356137
Si Si4 0.360306 0.688997 0.500000
Si Si5 0.642824 0.691159 0.084928
O O1 0.500000 0.095796 0.500000
O O2 0.384720 0.129657 0.623257
O O3 0.500000 0.000000 0.610301
O O4 0.787923 0.126974 0.720669
O O5 0.831717 0.119948 0.864548
O O6 0.000000 0.080294 0.764902
O O7 0.798283 0.000000 0.789685
O O8 0.750000 0.250000 0.344407
O O9 0.842687 0.140969 0.424749
O O10 0.500000 0.724620 0.500000
O O11 0.250000 0.750000 0.500000
O O12 0.500000 0.722332 0.098451
O O13 0.750000 0.750000 0.106129
O O14 0.658143 0.665748 0.000000
#
# Coordination Sequence:
#
# PCOD8273282 Si02
#       5
#     8  16  16   8  16
#     4  11  24  42  60  86 120 162 202 251 310 374
#     4  10  21  37  55  81 117 152 189 239 295 350
#     4  11  23  36  62  82 117 150 206 247 300 347
#     4  10  22  34  56  85 117 147 195 249 305 353
#     4   9  18  35  60  88 115 147 188 234 284 341
#
# _framework density 18.489739
#
# number of rings (size 3 to 8) (size 9 to 14) (size 15 to 20)
#    0.000    1.875    1.250    2.250    8.750    0.500 
#    2.250    2.500    0.000    3.000    0.000    3.500 
#    0.000    0.000    0.000    0.000    0.000    0.000 
#
# Total GULP energy -396616.474590 kJ/mol
# GULP energy per Si atom -12394.264831 kJ/mol
# Density = 1.844766 g / cm^3
# Si number density = 18.489739 Si / 1000 Ang^3
#
#
#
# Elastic Constant Matrix: (Units=GPa)
#
#
# Indices 1 2 3 4 5 6 
#
# 1 113.0754 65.7058 56.9415 0.0000 0.0000 0.0000
# 2 65.7058 147.6365 71.0713 0.0000 0.0000 0.0000
# 3 56.9415 71.0713 121.3874 0.0000 0.0000 0.0000
# 4 0.0000 0.0000 0.0000 63.8719 0.0000 0.0000
# 5 0.0000 0.0000 0.0000 0.0000 15.7348 0.0000
# 6 0.0000 0.0000 0.0000 0.0000 0.0000 20.8571
#
#
#
# Elastic Compliance Matrix: (Units=1/GPa)
#
#
# Indices 1 2 3 4 5 6 
#
# 1 0.013075 -0.003991 -0.003796 0.000000 0.000000 0.000000
# 2 -0.003991 0.010650 -0.004363 0.000000 0.000000 0.000000
# 3 -0.003796 -0.004363 0.012574 0.000000 0.000000 0.000000
# 4 0.000000 0.000000 0.000000 0.015656 0.000000 0.000000
# 5 0.000000 0.000000 0.000000 0.000000 0.063553 0.000000
# 6 0.000000 0.000000 0.000000 0.000000 0.000000 0.047945
#
#
# Mechanical properties :
#
#
# Convention : Reuss Voigt Hill
#
# Bulk Modulus (GPa) = 83.35739 85.50406 84.43073
# Shear Modulus (GPa) = 26.07504 32.65146 29.36325
#
# Velocity S-wave (km/s) = 3.75940 4.20685 3.98940
# Velocity P-wave (km/s) = 8.00156 8.36309 8.18432
#
# Compressibility (1/GPa) = 0.01199654
#
# Stress axis : x y z
#
# Youngs Moduli (GPa) = 76.48386 93.89458 79.53205
#
# Poissons Ratio (x) = 0.37477 0.30192
# Poissons Ratio (y) = 0.30528 0.34702
# Poissons Ratio (z) = 0.29035 0.40969
#
# Static dielectric constant tensor:
#      x y z
#    x 3.455110 0.000000 0.000000 
#    y 0.000000 3.383660 0.000000 
#    z 0.000000 0.000000 3.707850 
# 
# 
# High freq. dielectric constant tensor:
#      x y z
#    x 1.719620 0.000000 0.000000 
#    y 0.000000 1.701790 0.000000 
#    z 0.000000 0.000000 1.734340 
# 
# From -- ./inp_files/50944.got.cif
#   From: 2010.03.12/outbox.cif.g09.slc.cpg/sg65_26_cif.got.tgz:50944.got - 2010.04.10 20:52:16.
