data_PCOD8273322
_publ_section_title
;
Structure prediction by ZEFSAII (Michael W. Deem and Ramdas Pophale) SiO2 
 PCOD8273322
Probable space group: C M M M
;
_chemical_formula_sum "Si O2"
_cell_formula_units_Z 104
_cell_length_a 23.617798
_cell_length_b 8.839861
_cell_length_c 27.917376
_cell_angle_alpha 90.000000
_cell_angle_beta 90.000000
_cell_angle_gamma 90.000000
_cell_volume 5828.535363
_symmetry_space_group_name_H-M "C M M M"
_symmetry_group_IT_number 65
_symmetry_cell_setting 'orthorhombic'
loop_
_space_group_symop_operation_xyz
x,y,z
-x,-y,z
x,-y,-z
-x,y,-z
-x,-y,-z
x,y,-z
-x,y,z
x,-y,z
1/2+x,1/2+y,z
1/2-x,1/2-y,z
1/2+x,1/2-y,-z
1/2-x,1/2+y,-z
1/2-x,1/2-y,-z
1/2+x,1/2+y,-z
1/2-x,1/2+y,z
1/2+x,1/2-y,z
loop_
_atom_site_type_symbol
_atom_site_label
_atom_site_fract_x
_atom_site_fract_y
_atom_site_fract_z
Si Si1 0.308429 0.822929 0.946507
Si Si2 0.189397 0.321891 0.229783
Si Si3 0.500000 0.676940 0.836896
Si Si4 0.500000 0.177461 0.262398
Si Si5 0.067242 0.329853 0.500000
Si Si6 0.111548 0.322404 0.138842
Si Si7 0.564233 0.323612 0.595597
Si Si8 0.111285 0.822243 0.304356
O O1 0.250000 0.750000 0.930294
O O2 0.354968 0.773021 0.908431
O O3 0.298922 0.000000 0.944902
O O4 0.326448 0.769565 0.000000
O O5 0.196828 0.500000 0.235234
O O6 0.250000 0.250000 0.218491
O O7 0.146908 0.280809 0.186579
O O8 0.165337 0.256606 0.279938
O O9 0.500000 0.500000 0.822230
O O10 0.500000 0.795212 0.793651
O O11 0.443739 0.718066 0.866133
O O12 0.554798 0.256511 0.282491
O O13 0.500000 0.000000 0.274054
O O14 0.089223 0.500000 0.500000
O O15 0.090462 0.252236 0.451816
O O16 0.000000 0.316455 0.500000
O O17 0.096263 0.500000 0.138771
O O18 0.500000 0.264180 0.607073
O O19 0.561038 0.500000 0.585796
O O20 0.607490 0.286657 0.638898
O O21 0.114262 0.000000 0.294208
#
# Coordination Sequence:
#
# PCOD8273322 Si02
#       8
#    16  16   8   8   8  16  16  16
#     4   9  18  34  57  83 109 140 179 222 268 317
#     4  11  23  37  54  77 106 141 177 220 268 315
#     4  12  24  36  55  79 105 142 182 218 261 316
#     4  12  22  34  52  76 108 142 176 217 264 316
#     4   9  17  27  41  67 100 135 174 215 259 308
#     4  10  21  37  56  79 109 142 177 218 267 318
#     4   9  17  30  47  69 100 138 175 213 259 309
#     4  11  21  35  54  78 106 140 182 221 261 316
#
# _framework density 17.843247999999999
#
# number of rings (size 3 to 8) (size 9 to 14) (size 15 to 20)
#    0.000    1.769    2.308    3.000    0.000    3.385 
#    0.000    0.385    0.000    2.308    0.000    0.538 
#    0.000    0.000    0.000    0.000    0.000    0.000 
#
# Total GULP energy -644743.399045 kJ/mol
# GULP energy per Si atom -12398.911520 kJ/mol
# Density = 1.780264 g / cm^3
# Si number density = 17.843248 Si / 1000 Ang^3
#
#
#
# Elastic Constant Matrix: (Units=GPa)
#
#
# Indices 1 2 3 4 5 6 
#
# 1 102.2669 46.6369 52.8137 0.0000 0.0000 0.0000
# 2 46.6369 65.6480 48.9288 0.0000 0.0000 0.0000
# 3 52.8137 48.9288 120.6979 0.0000 0.0000 0.0000
# 4 0.0000 0.0000 0.0000 25.2791 0.0000 0.0000
# 5 0.0000 0.0000 0.0000 0.0000 -51.8794 0.0000
# 6 0.0000 0.0000 0.0000 0.0000 0.0000 29.7034
#
#
#
# Elastic Compliance Matrix: (Units=1/GPa)
#
#
# Indices 1 2 3 4 5 6 
#
# 1 0.015322 -0.008437 -0.003284 0.000000 0.000000 0.000000
# 2 -0.008437 0.026474 -0.007040 0.000000 0.000000 0.000000
# 3 -0.003284 -0.007040 0.012576 0.000000 0.000000 0.000000
# 4 0.000000 0.000000 0.000000 0.039558 0.000000 0.000000
# 5 0.000000 0.000000 0.000000 0.000000 -0.019275 0.000000
# 6 0.000000 0.000000 0.000000 0.000000 0.000000 0.033666
#
#
# Mechanical properties :
#
#
# Convention : Reuss Voigt Hill
#
# Bulk Modulus (GPa) = 59.35079 65.04130 62.19605
# Shear Modulus (GPa) = 33.01201 9.96952 21.49077
#
# Velocity S-wave (km/s) = 4.30596 2.36631 3.47424
# Velocity P-wave (km/s) = 7.61947 6.63299 7.14327
#
# Compressibility (1/GPa) = 0.01684898
#
# Stress axis : x y z
#
# Youngs Moduli (GPa) = 65.26582 37.77329 79.51557
#
# Poissons Ratio (x) = 0.31870 0.26114
# Poissons Ratio (y) = 0.55065 0.55980
# Poissons Ratio (z) = 0.21434 0.26593
#
# Static dielectric constant tensor:
#      x y z
#    x 3.154470 0.000000 0.000000 
#    y 0.000000 3.304800 0.000000 
#    z 0.000000 0.000000 3.605320 
# 
# 
# High freq. dielectric constant tensor:
#      x y z
#    x 1.662930 0.000000 0.000000 
#    y 0.000000 1.696180 0.000000 
#    z 0.000000 0.000000 1.695390 
# 
# From -- ./inp_files/75826.got.cif
#   From: 2010.03.12/outbox.cif.g09.slc.cpg/sg65_38_cif.got.tgz:75826.got - 2010.04.10 20:52:16.
