data_PCOD8273307
_publ_section_title
;
Structure prediction by ZEFSAII (Michael W. Deem and Ramdas Pophale) SiO2 
 PCOD8273307
Probable space group: C M M M
;
_chemical_formula_sum "Si O2"
_cell_formula_units_Z 64
_cell_length_a 20.953140
_cell_length_b 8.807984
_cell_length_c 17.487459
_cell_angle_alpha 90.000000
_cell_angle_beta 90.000000
_cell_angle_gamma 90.000000
_cell_volume 3227.396629
_symmetry_space_group_name_H-M "C M M M"
_symmetry_group_IT_number 65
_symmetry_cell_setting 'orthorhombic'
loop_
_space_group_symop_operation_xyz
x,y,z
-x,-y,z
x,-y,-z
-x,y,-z
-x,-y,-z
x,y,-z
-x,y,z
x,-y,z
1/2+x,1/2+y,z
1/2-x,1/2-y,z
1/2+x,1/2-y,-z
1/2-x,1/2+y,-z
1/2-x,1/2-y,-z
1/2+x,1/2+y,-z
1/2-x,1/2+y,z
1/2+x,1/2-y,z
loop_
_atom_site_type_symbol
_atom_site_label
_atom_site_fract_x
_atom_site_fract_y
_atom_site_fract_z
Si Si1 0.500000 0.668823 0.409876
Si Si2 0.814248 0.179888 0.728243
Si Si3 0.928249 0.818475 0.835387
Si Si4 0.870058 0.679094 0.587735
Si Si5 0.925004 0.835499 0.000000
O O1 0.500000 0.500000 0.371931
O O2 0.500000 0.652157 0.500000
O O3 0.438377 0.760757 0.383204
O O4 0.750000 0.250000 0.765088
O O5 0.875867 0.239846 0.775051
O O6 0.817986 0.241051 0.641232
O O7 0.809767 0.000000 0.728378
O O8 0.000000 0.763814 0.811604
O O9 0.927695 0.000000 0.840544
O O10 0.908207 0.751101 0.919664
O O11 0.856618 0.726230 0.500000
O O12 0.867695 0.500000 0.598045
O O13 0.000000 0.862074 0.000000
O O14 0.890444 0.000000 0.000000
#
# Coordination Sequence:
#
# PCOD8273307 Si02
#       5
#     8  16  16  16   8
#     4   9  17  31  53  81 109 136 171 218 271 325
#     4  11  23  37  54  77 111 147 184 230 278 334
#     4   8  15  29  52  81 108 138 178 224 271 321
#     4  10  21  37  56  78 106 141 184 232 280 328
#     4   7  10  22  47  78 109 135 168 219 271 317
#
# _framework density 19.830226
#
# number of rings (size 3 to 8) (size 9 to 14) (size 15 to 20)
#    0.000    2.750    0.000    3.375    1.750    3.500 
#    0.000    0.625    0.000    0.000    0.000    2.625 
#    0.000   12.000    0.000    0.000    0.000    0.000 
#
# Total GULP energy -396519.360006 kJ/mol
# GULP energy per Si atom -12391.230000 kJ/mol
# Density = 1.978509 g / cm^3
# Si number density = 19.830226 Si / 1000 Ang^3
#
#
#
# Elastic Constant Matrix: (Units=GPa)
#
#
# Indices 1 2 3 4 5 6 
#
# 1 126.2671 30.4012 65.7490 0.0000 0.0000 0.0000
# 2 30.4012 58.9681 31.6375 0.0000 0.0000 0.0000
# 3 65.7490 31.6375 113.5209 0.0000 0.0000 0.0000
# 4 0.0000 0.0000 0.0000 7.2315 0.0000 0.0000
# 5 0.0000 0.0000 0.0000 0.0000 17.6594 0.0000
# 6 0.0000 0.0000 0.0000 0.0000 0.0000 30.1281
#
#
#
# Elastic Compliance Matrix: (Units=1/GPa)
#
#
# Indices 1 2 3 4 5 6 
#
# 1 0.011726 -0.002824 -0.006005 0.000000 0.000000 0.000000
# 2 -0.002824 0.020620 -0.004111 0.000000 0.000000 0.000000
# 3 -0.006005 -0.004111 0.013432 0.000000 0.000000 0.000000
# 4 0.000000 0.000000 0.000000 0.138285 0.000000 0.000000
# 5 0.000000 0.000000 0.000000 0.000000 0.056627 0.000000
# 6 0.000000 0.000000 0.000000 0.000000 0.000000 0.033192
#
#
# Mechanical properties :
#
#
# Convention : Reuss Voigt Hill
#
# Bulk Modulus (GPa) = 50.25282 61.59239 55.92260
# Shear Modulus (GPa) = 16.31883 22.40168 19.36026
#
# Velocity S-wave (km/s) = 2.87178 3.36471 3.12797
# Velocity P-wave (km/s) = 6.03264 6.79870 6.42709
#
# Compressibility (1/GPa) = 0.01989938
#
# Stress axis : x y z
#
# Youngs Moduli (GPa) = 85.27808 48.49691 74.44671
#
# Poissons Ratio (x) = 0.13695 0.44703
# Poissons Ratio (y) = 0.24082 0.30605
# Poissons Ratio (z) = 0.51206 0.19937
#
# Static dielectric constant tensor:
#      x y z
#    x 3.686200 0.000000 0.000000 
#    y 0.000000 3.205190 0.000000 
#    z 0.000000 0.000000 3.985440 
# 
# 
# High freq. dielectric constant tensor:
#      x y z
#    x 1.759240 0.000000 0.000000 
#    y 0.000000 1.733250 0.000000 
#    z 0.000000 0.000000 1.777740 
# 
# From -- ./inp_files/55306.got.cif
#   From: 2010.03.12/outbox.cif.g09.slc.cpg/sg65_28_cif.got.tgz:55306.got - 2010.04.10 20:52:16.
