data_PCOD8273257
_publ_section_title
;
Structure prediction by ZEFSAII (Michael W. Deem and Ramdas Pophale) SiO2 
 PCOD8273257
Probable space group: C M M M
;
_chemical_formula_sum "Si O2"
_cell_formula_units_Z 72
_cell_length_a 8.729932
_cell_length_b 29.256917
_cell_length_c 15.037761
_cell_angle_alpha 90.000000
_cell_angle_beta 90.000000
_cell_angle_gamma 90.000000
_cell_volume 3840.808010
_symmetry_space_group_name_H-M "C M M M"
_symmetry_group_IT_number 65
_symmetry_cell_setting 'orthorhombic'
loop_
_space_group_symop_operation_xyz
x,y,z
-x,-y,z
x,-y,-z
-x,y,-z
-x,-y,-z
x,y,-z
-x,y,z
x,-y,z
1/2+x,1/2+y,z
1/2-x,1/2-y,z
1/2+x,1/2-y,-z
1/2-x,1/2+y,-z
1/2-x,1/2-y,-z
1/2+x,1/2+y,-z
1/2-x,1/2+y,z
1/2+x,1/2-y,z
loop_
_atom_site_type_symbol
_atom_site_label
_atom_site_fract_x
_atom_site_fract_y
_atom_site_fract_z
Si Si1 0.664895 0.553437 0.500000
Si Si2 0.316817 0.551751 0.307917
Si Si3 0.820179 0.201352 0.398052
Si Si4 0.321711 0.701926 0.103190
Si Si5 0.319335 0.860276 0.752181
O O1 0.631128 0.500000 0.500000
O O2 0.500000 0.579188 0.500000
O O3 0.749450 0.564805 0.592935
O O4 0.500000 0.557089 0.306186
O O5 0.270532 0.500000 0.281173
O O6 0.236180 0.587056 0.241420
O O7 0.779758 0.188704 0.500000
O O8 0.750000 0.250000 0.371370
O O9 0.751161 0.162736 0.335293
O O10 0.000000 0.204328 0.382249
O O11 0.500000 0.702991 0.126974
O O12 0.250000 0.750000 0.131842
O O13 0.238920 0.662582 0.157763
O O14 0.292054 0.691707 0.000000
O O15 0.500000 0.857251 0.747419
#
# Coordination Sequence:
#
# PCOD8273257 Si02
#       5
#     8  16  16  16  16
#     4   7  12  26  49  73  96 129 176 227 273 313
#     4   9  18  34  55  78 106 143 189 236 279 324
#     4  10  21  37  55  75 105 145 187 229 271 320
#     4  10  21  39  63  88 113 141 178 225 276 330
#     4  12  24  35  53  81 115 149 182 223 272 332
#
# _framework density 18.746054999999998
#
# number of rings (size 3 to 8) (size 9 to 14) (size 15 to 20)
#    0.000    2.111    0.000    5.333    1.556    3.111 
#    0.000    0.000    0.000    2.667    0.000    4.667 
#    0.000    0.000    0.000    0.000    0.000    0.000 
#
# Total GULP energy -446290.266013 kJ/mol
# GULP energy per Si atom -12396.951834 kJ/mol
# Density = 1.870339 g / cm^3
# Si number density = 18.746055 Si / 1000 Ang^3
#
#
#
# Elastic Constant Matrix: (Units=GPa)
#
#
# Indices 1 2 3 4 5 6 
#
# 1 104.4705 55.7640 38.3824 0.0000 0.0000 0.0000
# 2 55.7640 130.0454 58.5667 0.0000 0.0000 0.0000
# 3 38.3824 58.5667 74.1849 0.0000 0.0000 0.0000
# 4 0.0000 0.0000 0.0000 28.9484 0.0000 0.0000
# 5 0.0000 0.0000 0.0000 0.0000 21.9104 0.0000
# 6 0.0000 0.0000 0.0000 0.0000 0.0000 31.7407
#
#
#
# Elastic Compliance Matrix: (Units=1/GPa)
#
#
# Indices 1 2 3 4 5 6 
#
# 1 0.013008 -0.003952 -0.003610 0.000000 0.000000 0.000000
# 2 -0.003952 0.013133 -0.008323 0.000000 0.000000 0.000000
# 3 -0.003610 -0.008323 0.021918 0.000000 0.000000 0.000000
# 4 0.000000 0.000000 0.000000 0.034544 0.000000 0.000000
# 5 0.000000 0.000000 0.000000 0.000000 0.045640 0.000000
# 6 0.000000 0.000000 0.000000 0.000000 0.000000 0.031505
#
#
# Mechanical properties :
#
#
# Convention : Reuss Voigt Hill
#
# Bulk Modulus (GPa) = 61.39276 68.23633 64.81455
# Shear Modulus (GPa) = 25.38730 26.91909 26.15319
#
# Velocity S-wave (km/s) = 3.68404 3.79355 3.73920
# Velocity P-wave (km/s) = 7.13561 7.46106 7.30015
#
# Compressibility (1/GPa) = 0.01628856
#
# Stress axis : x y z
#
# Youngs Moduli (GPa) = 76.87611 76.14643 45.62360
#
# Poissons Ratio (x) = 0.30093 0.16471
# Poissons Ratio (y) = 0.30381 0.37973
# Poissons Ratio (z) = 0.27754 0.63377
#
# Static dielectric constant tensor:
#      x y z
#    x 3.356060 0.000000 0.000000 
#    y 0.000000 3.489900 0.000000 
#    z 0.000000 0.000000 3.452250 
# 
# 
# High freq. dielectric constant tensor:
#      x y z
#    x 1.720710 0.000000 0.000000 
#    y 0.000000 1.729290 0.000000 
#    z 0.000000 0.000000 1.713170 
# 
# From -- ./inp_files/36579.got.cif
#   From: 2010.03.12/outbox.cif.g09.slc.cpg/sg65_19_cif.got.tgz:36579.got - 2010.04.10 20:52:16.
