data_PCOD8273756
_publ_section_title
;
Structure prediction by ZEFSAII (Michael W. Deem and Ramdas Pophale) SiO2 
 PCOD8273756
Probable space group: C M M M
;
_chemical_formula_sum "Si O2"
_cell_formula_units_Z 104
_cell_length_a 21.478307
_cell_length_b 27.474346
_cell_length_c 8.808146
_cell_angle_alpha 90.000000
_cell_angle_beta 90.000000
_cell_angle_gamma 90.000000
_cell_volume 5197.708429
_symmetry_space_group_name_H-M "C M M M"
_symmetry_group_IT_number 65
_symmetry_cell_setting 'orthorhombic'
loop_
_space_group_symop_operation_xyz
x,y,z
-x,-y,z
x,-y,-z
-x,y,-z
-x,-y,-z
x,y,-z
-x,y,z
x,-y,z
1/2+x,1/2+y,z
1/2-x,1/2-y,z
1/2+x,1/2-y,-z
1/2-x,1/2+y,-z
1/2-x,1/2-y,-z
1/2+x,1/2+y,-z
1/2-x,1/2+y,z
1/2+x,1/2-y,z
loop_
_atom_site_type_symbol
_atom_site_label
_atom_site_fract_x
_atom_site_fract_y
_atom_site_fract_z
Si Si1 0.169074 0.165776 0.323736
Si Si2 0.500000 0.097767 0.676844
Si Si3 0.573221 0.598637 0.824210
Si Si4 0.926032 0.000000 0.671107
Si Si5 0.874477 0.271809 0.675935
Si Si6 0.381906 0.055032 0.826430
Si Si7 0.796129 0.356346 0.823921
Si Si8 0.000000 0.703210 0.821081
O O1 0.179859 0.154605 0.500000
O O2 0.105066 0.141878 0.268534
O O3 0.165347 0.223389 0.293455
O O4 0.225018 0.142860 0.228132
O O5 0.500000 0.109829 0.500000
O O6 0.439381 0.066768 0.717611
O O7 0.500000 0.147902 0.767096
O O8 0.500000 0.604342 0.798516
O O9 0.598185 0.547349 0.759850
O O10 0.591353 0.601847 0.000000
O O11 0.899309 0.000000 0.500000
O O12 0.000000 0.000000 0.668851
O O13 0.890231 0.278261 0.500000
O O14 0.834446 0.317379 0.728651
O O15 0.939340 0.268360 0.764401
O O16 0.324026 0.090331 0.791523
O O17 0.359348 0.000000 0.795150
O O18 0.404401 0.061616 0.000000
O O19 0.800610 0.342194 0.000000
O O20 0.000000 0.703512 0.000000
#
# Coordination Sequence:
#
# PCOD8273756 Si02
#       8
#    16   8  16   8  16  16  16   8
#     4  11  25  42  62  89 125 165 204 250 311 374
#     4  12  23  37  62  95 130 166 209 261 315 372
#     4  10  21  38  61  90 121 155 200 254 305 359
#     4   9  17  33  59  87 117 155 193 236 297 364
#     4  11  24  42  64  91 124 163 204 254 312 371
#     4  10  22  41  64  91 126 168 212 260 314 370
#     4  11  23  41  65  90 121 165 211 255 305 369
#     4  12  24  39  63  94 126 164 207 258 317 374
#
# _framework density 20.008817000000001
#
# number of rings (size 3 to 8) (size 9 to 14) (size 15 to 20)
#    0.000    1.308    1.538    4.154    1.077    8.000 
#    1.385    0.000    0.000    0.000    0.000    0.000 
#    0.000    0.000    0.000    0.000    0.000    0.000 
#
# Total GULP energy -645129.176438 kJ/mol
# GULP energy per Si atom -12406.330316 kJ/mol
# Density = 1.996328 g / cm^3
# Si number density = 20.008817 Si / 1000 Ang^3
#
#
#
# Elastic Constant Matrix: (Units=GPa)
#
#
# Indices 1 2 3 4 5 6 
#
# 1 93.8335 47.4888 43.1177 0.0000 0.0000 0.0000
# 2 47.4888 115.6700 60.9110 0.0000 0.0000 0.0000
# 3 43.1177 60.9110 112.2684 0.0000 0.0000 0.0000
# 4 0.0000 0.0000 0.0000 33.5536 0.0000 0.0000
# 5 0.0000 0.0000 0.0000 0.0000 33.7848 0.0000
# 6 0.0000 0.0000 0.0000 0.0000 0.0000 12.1719
#
#
#
# Elastic Compliance Matrix: (Units=1/GPa)
#
#
# Indices 1 2 3 4 5 6 
#
# 1 0.014236 -0.004152 -0.003215 0.000000 0.000000 0.000000
# 2 -0.004152 0.013314 -0.005629 0.000000 0.000000 0.000000
# 3 -0.003215 -0.005629 0.013196 0.000000 0.000000 0.000000
# 4 0.000000 0.000000 0.000000 0.029803 0.000000 0.000000
# 5 0.000000 0.000000 0.000000 0.000000 0.029599 0.000000
# 6 0.000000 0.000000 0.000000 0.000000 0.000000 0.082157
#
#
# Mechanical properties :
#
#
# Convention : Reuss Voigt Hill
#
# Bulk Modulus (GPa) = 67.77572 69.42300 68.59936
# Shear Modulus (GPa) = 23.45072 27.25236 25.35154
#
# Velocity S-wave (km/s) = 3.42719 3.69456 3.56338
# Velocity P-wave (km/s) = 7.04325 7.27813 7.16165
#
# Compressibility (1/GPa) = 0.01475455
#
# Stress axis : x y z
#
# Youngs Moduli (GPa) = 70.24679 75.10953 75.78096
#
# Poissons Ratio (x) = 0.31182 0.24363
# Poissons Ratio (y) = 0.29163 0.42657
# Poissons Ratio (z) = 0.22584 0.42279
#
# Static dielectric constant tensor:
#      x y z
#    x 3.625580 0.000000 0.000000 
#    y 0.000000 3.739480 0.000000 
#    z 0.000000 0.000000 3.767800 
# 
# 
# High freq. dielectric constant tensor:
#      x y z
#    x 1.772800 0.000000 0.000000 
#    y 0.000000 1.788910 0.000000 
#    z 0.000000 0.000000 1.793730 
# 
# From -- ./inp_files/12474.got.cif
#   From: 2010.03.12/outbox.cif.g09.slc.cpg/sg65_7_cif.got.tgz:12474.got - 2010.04.10 20:52:16.
