data_PCOD8273365
_publ_section_title
;
Structure prediction by ZEFSAII (Michael W. Deem and Ramdas Pophale) SiO2 
 PCOD8273365
Probable space group: C M M M
;
_chemical_formula_sum "Si O2"
_cell_formula_units_Z 90
_cell_length_a 9.049626
_cell_length_b 22.679365
_cell_length_c 22.534823
_cell_angle_alpha 90.000000
_cell_angle_beta 90.000000
_cell_angle_gamma 90.000000
_cell_volume 4625.041916
_symmetry_space_group_name_H-M "C M M M"
_symmetry_group_IT_number 65
_symmetry_cell_setting 'orthorhombic'
loop_
_space_group_symop_operation_xyz
x,y,z
-x,-y,z
x,-y,-z
-x,y,-z
-x,-y,-z
x,y,-z
-x,y,z
x,-y,z
1/2+x,1/2+y,z
1/2-x,1/2-y,z
1/2+x,1/2-y,-z
1/2-x,1/2+y,-z
1/2-x,1/2-y,-z
1/2+x,1/2+y,-z
1/2-x,1/2+y,z
1/2+x,1/2-y,z
loop_
_atom_site_type_symbol
_atom_site_label
_atom_site_fract_x
_atom_site_fract_y
_atom_site_fract_z
Si Si1 0.170270 0.310492 0.172759
Si Si2 0.174854 0.000000 0.739149
Si Si3 0.825756 0.000000 0.874443
Si Si4 0.339202 0.619371 0.500000
Si Si5 0.826387 0.686994 0.399961
Si Si6 0.000000 0.000000 0.500000
Si Si7 0.830054 0.391707 0.067593
Si Si8 0.171114 0.615832 0.283439
O O1 0.250000 0.250000 0.183356
O O2 0.202551 0.333918 0.106654
O O3 0.226490 0.357967 0.220695
O O4 0.000000 0.298045 0.184131
O O5 0.234541 0.000000 0.807022
O O6 0.234529 0.942877 0.704507
O O7 0.000000 0.000000 0.735040
O O8 0.772328 0.056298 0.910229
O O9 0.000000 0.000000 0.873486
O O10 0.500000 0.652040 0.500000
O O11 0.246570 0.638620 0.557534
O O12 0.366365 0.548728 0.500000
O O13 0.750000 0.750000 0.408992
O O14 0.798277 0.664600 0.333288
O O15 0.000000 0.692722 0.414045
O O16 0.000000 0.411780 0.074576
O O17 0.791207 0.375651 0.000000
O O18 0.000000 0.597588 0.281267
#
# Coordination Sequence:
#
# PCOD8273365 Si02
#       8
#    16   8   8   8  16   2  16  16
#     4  10  21  37  57  80 112 152 193 245 298 359
#     4  11  23  37  59  89 119 157 201 250 306 372
#     4  11  22  36  56  85 115 144 188 243 303 357
#     4  10  22  44  68  94 131 176 216 257 310 363
#     4  11  23  40  66 100 132 169 216 264 313 372
#     4   8  24  44  70  92 128 180 218 258 310 372
#     4  10  21  37  58  81 108 149 195 239 295 365
#     4  10  22  40  61  88 122 162 205 247 308 365
#
# _framework density 19.459282999999999
#
# number of rings (size 3 to 8) (size 9 to 14) (size 15 to 20)
#    0.267    1.422    1.778    2.400    0.000    6.044 
#    1.600    1.778    0.000    0.000    0.000    0.000 
#    0.000    0.000    0.000    0.000    0.000    0.000 
#
# Total GULP energy -557588.353140 kJ/mol
# GULP energy per Si atom -12390.852292 kJ/mol
# Density = 1.941499 g / cm^3
# Si number density = 19.459283 Si / 1000 Ang^3
#
#
#
# Elastic Constant Matrix: (Units=GPa)
#
#
# Indices 1 2 3 4 5 6 
#
# 1 85.3661 57.8981 39.2261 0.0000 0.0000 0.0000
# 2 57.8981 140.0452 32.3556 0.0000 0.0000 0.0000
# 3 39.2261 32.3556 90.1162 0.0000 0.0000 0.0000
# 4 0.0000 0.0000 0.0000 23.3381 0.0000 0.0000
# 5 0.0000 0.0000 0.0000 0.0000 26.7553 0.0000
# 6 0.0000 0.0000 0.0000 0.0000 0.0000 36.3820
#
#
#
# Elastic Compliance Matrix: (Units=1/GPa)
#
#
# Indices 1 2 3 4 5 6 
#
# 1 0.018746 -0.006395 -0.005864 0.000000 0.000000 0.000000
# 2 -0.006395 0.009968 -0.000795 0.000000 0.000000 0.000000
# 3 -0.005864 -0.000795 0.013935 0.000000 0.000000 0.000000
# 4 0.000000 0.000000 0.000000 0.042848 0.000000 0.000000
# 5 0.000000 0.000000 0.000000 0.000000 0.037376 0.000000
# 6 0.000000 0.000000 0.000000 0.000000 0.000000 0.027486
#
#
# Mechanical properties :
#
#
# Convention : Reuss Voigt Hill
#
# Bulk Modulus (GPa) = 60.45758 63.83189 62.14474
# Shear Modulus (GPa) = 27.47528 29.69825 28.58676
#
# Velocity S-wave (km/s) = 3.76165 3.91087 3.83698
# Velocity P-wave (km/s) = 7.07127 7.29844 7.18575
#
# Compressibility (1/GPa) = 0.01654052
#
# Stress axis : x y z
#
# Youngs Moduli (GPa) = 53.34402 100.31802 71.76339
#
# Poissons Ratio (x) = 0.64158 0.42080
# Poissons Ratio (y) = 0.34116 0.05707
# Poissons Ratio (z) = 0.31279 0.07978
#
# Static dielectric constant tensor:
#      x y z
#    x 3.541820 0.000000 0.000000 
#    y 0.000000 3.382440 0.000000 
#    z 0.000000 0.000000 3.683510 
# 
# 
# High freq. dielectric constant tensor:
#      x y z
#    x 1.759660 0.000000 0.000000 
#    y 0.000000 1.760820 0.000000 
#    z 0.000000 0.000000 1.758820 
# 
# From -- ./inp_files/67727.got.cif
#   From: 2010.03.12/outbox.cif.g09.slc.cpg/sg65_34_cif.got.tgz:67727.got - 2010.04.10 20:52:16.
