data_PCOD8273691
_publ_section_title
;
Structure prediction by ZEFSAII (Michael W. Deem and Ramdas Pophale) SiO2 
 PCOD8273691
Probable space group: C M M M
;
_chemical_formula_sum "Si O2"
_cell_formula_units_Z 88
_cell_length_a 29.991449
_cell_length_b 19.133089
_cell_length_c 7.905179
_cell_angle_alpha 90.000000
_cell_angle_beta 90.000000
_cell_angle_gamma 90.000000
_cell_volume 4536.221458
_symmetry_space_group_name_H-M "C M M M"
_symmetry_group_IT_number 65
_symmetry_cell_setting 'orthorhombic'
loop_
_space_group_symop_operation_xyz
x,y,z
-x,-y,z
x,-y,-z
-x,y,-z
-x,-y,-z
x,y,-z
-x,y,z
x,-y,z
1/2+x,1/2+y,z
1/2-x,1/2-y,z
1/2+x,1/2-y,-z
1/2-x,1/2+y,-z
1/2-x,1/2-y,-z
1/2+x,1/2+y,-z
1/2-x,1/2+y,z
1/2+x,1/2-y,z
loop_
_atom_site_type_symbol
_atom_site_label
_atom_site_fract_x
_atom_site_fract_y
_atom_site_fract_z
Si Si1 0.448631 0.327329 0.189423
Si Si2 0.743048 0.421545 0.301900
Si Si3 0.795215 0.214724 0.192985
Si Si4 0.552870 0.578229 0.500000
Si Si5 0.343609 0.076524 0.298674
Si Si6 0.382865 0.217689 0.692496
O O1 0.500000 0.308691 0.225331
O O2 0.430707 0.381996 0.330175
O O3 0.420673 0.255775 0.198313
O O4 0.442890 0.359117 0.000000
O O5 0.741319 0.406054 0.500000
O O6 0.726849 0.500000 0.261679
O O7 0.709724 0.368931 0.207546
O O8 0.793388 0.410781 0.232085
O O9 0.750000 0.250000 0.263297
O O10 0.836478 0.240332 0.303900
O O11 0.804283 0.236263 0.000000
O O12 0.573350 0.500000 0.500000
O O13 0.500000 0.573383 0.500000
O O14 0.342037 0.077717 0.500000
O O15 0.375492 0.139057 0.233283
O O16 0.360865 0.000000 0.236077
O O17 0.399625 0.214562 0.500000
#
# Coordination Sequence:
#
# PCOD8273691 Si02
#       6
#    16  16  16   8  16  16
#     4  10  21  38  60  87 119 150 184 231 283 334
#     4   9  17  32  52  71  96 133 177 223 270 321
#     4  11  22  33  47  73 109 143 180 226 272 331
#     4   9  18  36  62  90 116 143 185 231 277 341
#     4   8  15  28  49  78 106 136 180 230 278 327
#     4  11  20  33  58  82 107 144 187 234 278 334
#
# _framework density 19.399407
#
# number of rings (size 3 to 8) (size 9 to 14) (size 15 to 20)
#    0.000    2.273    2.727    2.182    0.000    1.455 
#    0.000    2.727    0.000    4.909    0.000    3.818 
#    0.000    0.000    0.000    0.000    0.000    0.000 
#
# Total GULP energy -545472.165874 kJ/mol
# GULP energy per Si atom -12397.094679 kJ/mol
# Density = 1.935525 g / cm^3
# Si number density = 19.399407 Si / 1000 Ang^3
#
#
#
# Elastic Constant Matrix: (Units=GPa)
#
#
# Indices 1 2 3 4 5 6 
#
# 1 58.7449 43.2102 18.1434 0.0000 0.0000 0.0000
# 2 43.2102 155.7562 33.6418 0.0000 0.0000 0.0000
# 3 18.1434 33.6418 71.8419 0.0000 0.0000 0.0000
# 4 0.0000 0.0000 0.0000 16.1796 0.0000 0.0000
# 5 0.0000 0.0000 0.0000 0.0000 18.5408 0.0000
# 6 0.0000 0.0000 0.0000 0.0000 0.0000 26.6799
#
#
#
# Elastic Compliance Matrix: (Units=1/GPa)
#
#
# Indices 1 2 3 4 5 6 
#
# 1 0.021951 -0.005443 -0.002995 0.000000 0.000000 0.000000
# 2 -0.005443 0.008492 -0.002602 0.000000 0.000000 0.000000
# 3 -0.002995 -0.002602 0.015894 0.000000 0.000000 0.000000
# 4 0.000000 0.000000 0.000000 0.061806 0.000000 0.000000
# 5 0.000000 0.000000 0.000000 0.000000 0.053935 0.000000
# 6 0.000000 0.000000 0.000000 0.000000 0.000000 0.037481
#
#
# Mechanical properties :
#
#
# Convention : Reuss Voigt Hill
#
# Bulk Modulus (GPa) = 41.22355 52.92597 47.07476
# Shear Modulus (GPa) = 21.76500 25.03657 23.40079
#
# Velocity S-wave (km/s) = 3.35317 3.59637 3.47690
# Velocity P-wave (km/s) = 6.02393 6.67732 6.35902
#
# Compressibility (1/GPa) = 0.02425798
#
# Stress axis : x y z
#
# Youngs Moduli (GPa) = 45.55534 117.75350 62.91543
#
# Poissons Ratio (x) = 0.64092 0.18843
# Poissons Ratio (y) = 0.24795 0.16372
# Poissons Ratio (z) = 0.13644 0.30641
#
# Static dielectric constant tensor:
#      x y z
#    x 3.214440 0.000000 0.000000 
#    y 0.000000 3.898760 0.000000 
#    z 0.000000 0.000000 3.370980 
# 
# 
# High freq. dielectric constant tensor:
#      x y z
#    x 1.711520 0.000000 0.000000 
#    y 0.000000 1.761750 0.000000 
#    z 0.000000 0.000000 1.746980 
# 
# From -- ./inp_files/18314.got.cif
#   From: 2010.03.12/outbox.cif.g09.slc.cpg/sg65_10_cif.got.tgz:18314.got - 2010.04.10 20:52:16.
