data_PCOD8273253
_publ_section_title
;
Structure prediction by ZEFSAII (Michael W. Deem and Ramdas Pophale) SiO2 
 PCOD8273253
Probable space group: C M M M
;
_chemical_formula_sum "Si O2"
_cell_formula_units_Z 56
_cell_length_a 18.047067
_cell_length_b 10.365156
_cell_length_c 16.736324
_cell_angle_alpha 90.000000
_cell_angle_beta 90.000000
_cell_angle_gamma 90.000000
_cell_volume 3130.707894
_symmetry_space_group_name_H-M "C M M M"
_symmetry_group_IT_number 65
_symmetry_cell_setting 'orthorhombic'
loop_
_space_group_symop_operation_xyz
x,y,z
-x,-y,z
x,-y,-z
-x,y,-z
-x,-y,-z
x,y,-z
-x,y,z
x,-y,z
1/2+x,1/2+y,z
1/2-x,1/2-y,z
1/2+x,1/2-y,-z
1/2-x,1/2+y,-z
1/2-x,1/2-y,-z
1/2+x,1/2+y,-z
1/2-x,1/2+y,z
1/2+x,1/2-y,z
loop_
_atom_site_type_symbol
_atom_site_label
_atom_site_fract_x
_atom_site_fract_y
_atom_site_fract_z
Si Si1 0.415440 0.148841 0.152437
Si Si2 0.316395 0.850162 0.000000
Si Si3 0.411498 0.000000 0.410211
Si Si4 0.911974 0.747835 0.319683
Si Si5 0.411517 0.500000 0.408643
O O1 0.500000 0.180387 0.128665
O O2 0.364974 0.180744 0.077298
O O3 0.388787 0.237781 0.226537
O O4 0.408765 0.000000 0.179132
O O5 0.250000 0.750000 0.000000
O O6 0.289703 0.000000 0.000000
O O7 0.378993 0.873763 0.367173
O O8 0.500000 0.000000 0.407481
O O9 0.381676 0.000000 0.500000
O O10 0.880123 0.876547 0.360810
O O11 0.000000 0.745873 0.325952
O O12 0.500000 0.500000 0.408877
O O13 0.382274 0.500000 0.500000
#
# Coordination Sequence:
#
# PCOD8273253 Si02
#       5
#    16   8   8  16   8
#     4   9  16  30  53  76  97 127 168 206 242 286
#     4  10  21  37  55  75 101 128 160 202 248 300
#     4   9  14  20  34  57  87 122 154 191 237 279
#     4   9  15  24  38  60  91 124 160 197 233 282
#     4   9  16  24  34  55  93 136 164 185 231 291
#
# _framework density 17.887328
#
# number of rings (size 3 to 8) (size 9 to 14) (size 15 to 20)
#    0.000    2.857    1.429    1.286    0.000    5.143 
#    2.571    0.000    0.000    0.857    0.000    0.000 
#    0.000    6.857    0.000    0.000    0.000    0.000 
#
# Total GULP energy -347089.186483 kJ/mol
# GULP energy per Si atom -12396.042374 kJ/mol
# Density = 1.784662 g / cm^3
# Si number density = 17.887328 Si / 1000 Ang^3
#
#
#
# Elastic Constant Matrix: (Units=GPa)
#
#
# Indices 1 2 3 4 5 6 
#
# 1 40.6982 33.6800 44.4039 0.0000 0.0000 0.0000
# 2 33.6800 147.0184 97.1795 0.0000 0.0000 0.0000
# 3 44.4039 97.1795 176.7351 0.0000 0.0000 0.0000
# 4 0.0000 0.0000 0.0000 35.1674 0.0000 0.0000
# 5 0.0000 0.0000 0.0000 0.0000 -2.3286 0.0000
# 6 0.0000 0.0000 0.0000 0.0000 0.0000 15.5625
#
#
#
# Elastic Compliance Matrix: (Units=1/GPa)
#
#
# Indices 1 2 3 4 5 6 
#
# 1 0.034935 -0.003458 -0.006876 0.000000 0.000000 0.000000
# 2 -0.003458 0.011028 -0.005195 0.000000 0.000000 0.000000
# 3 -0.006876 -0.005195 0.010242 0.000000 0.000000 0.000000
# 4 0.000000 0.000000 0.000000 0.028435 0.000000 0.000000
# 5 0.000000 0.000000 0.000000 0.000000 -0.429442 0.000000
# 6 0.000000 0.000000 0.000000 0.000000 0.000000 0.064257
#
#
# Mechanical properties :
#
#
# Convention : Reuss Voigt Hill
#
# Bulk Modulus (GPa) = 39.76597 79.44205 59.60401
# Shear Modulus (GPa) = -20.73789 22.29282 0.77746
#
# Velocity S-wave (km/s) = -3.40863 3.53411 0.65999
# Velocity P-wave (km/s) = 2.60536 7.82063 5.82881
#
# Compressibility (1/GPa) = 0.02514713
#
# Stress axis : x y z
#
# Youngs Moduli (GPa) = 28.62481 90.67809 97.63563
#
# Poissons Ratio (x) = 0.31359 0.67130
# Poissons Ratio (y) = 0.09899 0.50722
# Poissons Ratio (z) = 0.19681 0.47107
#
# Static dielectric constant tensor:
#      x y z
#    x 2.662210 0.000000 0.000000 
#    y 0.000000 3.455310 0.000000 
#    z 0.000000 0.000000 3.495280 
# 
# 
# High freq. dielectric constant tensor:
#      x y z
#    x 1.619360 0.000000 0.000000 
#    y 0.000000 1.689430 0.000000 
#    z 0.000000 0.000000 1.712520 
# 
# From -- ./inp_files/37667.got.cif
#   From: 2010.03.12/outbox.cif.g09.slc.cpg/sg65_19_cif.got.tgz:37667.got - 2010.04.10 20:52:16.
