data_PCOD8273068
_publ_section_title
;
Structure prediction by ZEFSAII (Michael W. Deem and Ramdas Pophale) SiO2 
 PCOD8273068
Probable space group: C M M M
;
_chemical_formula_sum "Si O2"
_cell_formula_units_Z 88
_cell_length_a 9.114110
_cell_length_b 28.086525
_cell_length_c 18.991919
_cell_angle_alpha 90.000000
_cell_angle_beta 90.000000
_cell_angle_gamma 90.000000
_cell_volume 4861.621285
_symmetry_space_group_name_H-M "C M M M"
_symmetry_group_IT_number 65
_symmetry_cell_setting 'orthorhombic'
loop_
_space_group_symop_operation_xyz
x,y,z
-x,-y,z
x,-y,-z
-x,y,-z
-x,-y,-z
x,y,-z
-x,y,z
x,-y,z
1/2+x,1/2+y,z
1/2-x,1/2-y,z
1/2+x,1/2-y,-z
1/2-x,1/2+y,-z
1/2-x,1/2-y,-z
1/2+x,1/2+y,-z
1/2-x,1/2+y,z
1/2+x,1/2-y,z
loop_
_atom_site_type_symbol
_atom_site_label
_atom_site_fract_x
_atom_site_fract_y
_atom_site_fract_z
Si Si1 0.326785 0.500000 0.079175
Si Si2 0.326278 0.603018 0.919550
Si Si3 0.330534 0.381544 0.417426
Si Si4 0.668290 0.135161 0.207662
Si Si5 0.670980 0.054514 0.685283
Si Si6 0.827545 0.699913 0.664110
O O1 0.500000 0.500000 0.082177
O O2 0.271648 0.449297 0.109856
O O3 0.271314 0.500000 0.000000
O O4 0.500000 0.607190 0.917260
O O5 0.258518 0.640856 0.865053
O O6 0.272635 0.612279 0.000000
O O7 0.311665 0.387998 0.500000
O O8 0.500000 0.375066 0.395783
O O9 0.265956 0.429123 0.381669
O O10 0.239795 0.335538 0.393234
O O11 0.500000 0.133368 0.185889
O O12 0.714781 0.086998 0.248326
O O13 0.702251 0.180223 0.257313
O O14 0.500000 0.061683 0.666672
O O15 0.708406 0.000000 0.703784
O O16 0.750000 0.750000 0.655563
O O17 0.000000 0.704812 0.649252
#
# Coordination Sequence:
#
# PCOD8273068 Si02
#       6
#     8  16  16  16  16  16
#     4   7  12  24  39  59  91 127 162 199 238 281
#     4   9  17  29  46  69  99 135 173 212 253 299
#     4  10  21  36  54  79 109 137 170 212 254 302
#     4   9  19  33  50  74 102 132 167 211 259 306
#     4   9  19  35  52  72 103 143 182 217 256 303
#     4  10  21  38  59  80 103 132 167 209 259 313
#
# _framework density 18.100957999999999
#
# number of rings (size 3 to 8) (size 9 to 14) (size 15 to 20)
#    0.000    2.818    0.000    3.273    1.273    6.545 
#    0.000    1.818    0.000    2.182    0.000    0.000 
#    0.000    0.000    0.000    0.000    0.000    0.000 
#
# Total GULP energy -545293.678120 kJ/mol
# GULP energy per Si atom -12393.038139 kJ/mol
# Density = 1.805976 g / cm^3
# Si number density = 18.100958 Si / 1000 Ang^3
#
#
#
# Elastic Constant Matrix: (Units=GPa)
#
#
# Indices 1 2 3 4 5 6 
#
# 1 70.5670 20.7457 38.4388 0.0000 0.0000 0.0000
# 2 20.7457 62.6821 8.4477 0.0000 0.0000 0.0000
# 3 38.4388 8.4477 82.3439 0.0000 0.0000 0.0000
# 4 0.0000 0.0000 0.0000 16.6390 0.0000 0.0000
# 5 0.0000 0.0000 0.0000 0.0000 33.7213 0.0000
# 6 0.0000 0.0000 0.0000 0.0000 0.0000 28.8244
#
#
#
# Elastic Compliance Matrix: (Units=1/GPa)
#
#
# Indices 1 2 3 4 5 6 
#
# 1 0.020809 -0.005656 -0.009133 0.000000 0.000000 0.000000
# 2 -0.005656 0.017715 0.000823 0.000000 0.000000 0.000000
# 3 -0.009133 0.000823 0.016323 0.000000 0.000000 0.000000
# 4 0.000000 0.000000 0.000000 0.060100 0.000000 0.000000
# 5 0.000000 0.000000 0.000000 0.000000 0.029655 0.000000
# 6 0.000000 0.000000 0.000000 0.000000 0.000000 0.034693
#
#
# Mechanical properties :
#
#
# Convention : Reuss Voigt Hill
#
# Bulk Modulus (GPa) = 37.15601 38.98415 38.07008
# Shear Modulus (GPa) = 23.12687 25.70100 24.41393
#
# Velocity S-wave (km/s) = 3.57831 3.77220 3.67654
# Velocity P-wave (km/s) = 6.13548 6.36840 6.25302
#
# Compressibility (1/GPa) = 0.02691355
#
# Stress axis : x y z
#
# Youngs Moduli (GPa) = 48.05642 56.45062 61.26198
#
# Poissons Ratio (x) = 0.31929 0.55953
# Poissons Ratio (y) = 0.27181 -0.05042
# Poissons Ratio (z) = 0.43892 -0.04646
#
# Static dielectric constant tensor:
#      x y z
#    x 3.270530 0.000000 0.000000 
#    y 0.000000 3.345250 0.000000 
#    z 0.000000 0.000000 3.246460 
# 
# 
# High freq. dielectric constant tensor:
#      x y z
#    x 1.696340 0.000000 0.000000 
#    y 0.000000 1.685510 0.000000 
#    z 0.000000 0.000000 1.696420 
# 
# From -- ./inp_files/50436.got.cif
#   From: 2010.03.12/outbox.cif.g09.slc.cpg/sg65_26_cif.got.tgz:50436.got - 2010.04.10 20:52:16.
