data_PCOD8273786
_publ_section_title
;
Structure prediction by ZEFSAII (Michael W. Deem and Ramdas Pophale) SiO2 
 PCOD8273786
Probable space group: C M M M
;
_chemical_formula_sum "Si O2"
_cell_formula_units_Z 64
_cell_length_a 34.862347
_cell_length_b 11.907178
_cell_length_c 7.566054
_cell_angle_alpha 90.000000
_cell_angle_beta 90.000000
_cell_angle_gamma 90.000000
_cell_volume 3140.761104
_symmetry_space_group_name_H-M "C M M M"
_symmetry_group_IT_number 65
_symmetry_cell_setting 'orthorhombic'
loop_
_space_group_symop_operation_xyz
x,y,z
-x,-y,z
x,-y,-z
-x,y,-z
-x,-y,-z
x,y,-z
-x,y,z
x,-y,z
1/2+x,1/2+y,z
1/2-x,1/2-y,z
1/2+x,1/2-y,-z
1/2-x,1/2+y,-z
1/2-x,1/2-y,-z
1/2+x,1/2+y,-z
1/2-x,1/2+y,z
1/2+x,1/2-y,z
loop_
_atom_site_type_symbol
_atom_site_label
_atom_site_fract_x
_atom_site_fract_y
_atom_site_fract_z
Si Si1 0.678380 0.500000 0.699347
Si Si2 0.293546 0.738176 0.199826
Si Si3 0.955647 0.784550 0.797777
Si Si4 0.926536 0.370563 0.500000
Si Si5 0.336329 0.869671 0.500000
Si Si6 0.592391 0.500000 0.207530
O O1 0.694090 0.500000 0.500000
O O2 0.694143 0.608699 0.798710
O O3 0.632495 0.500000 0.692227
O O4 0.250000 0.750000 0.266249
O O5 0.320277 0.812326 0.324211
O O6 0.297871 0.783889 0.000000
O O7 0.944987 0.679905 0.676414
O O8 0.931334 0.891210 0.733822
O O9 0.000000 0.816497 0.776317
O O10 0.946048 0.752282 0.000000
O O11 0.937412 0.500000 0.500000
O O12 0.881388 0.350298 0.500000
O O13 0.324851 0.000000 0.500000
O O14 0.600203 0.500000 0.000000
#
# Coordination Sequence:
#
# PCOD8273786 Si02
#       6
#     8  16  16   8   8   8
#     4  12  24  39  65  96 130 169 207 258 319 373
#     4  11  25  43  66  94 126 164 210 261 317 379
#     4  10  22  40  64  93 126 164 205 256 315 370
#     4  11  25  42  60  89 123 166 215 259 299 365
#     4  11  25  43  66  92 125 166 214 260 318 374
#     4  10  21  38  63  95 130 160 204 256 312 382
#
# _framework density 20.377227999999999
#
# number of rings (size 3 to 8) (size 9 to 14) (size 15 to 20)
#    0.000    1.250    1.250    3.750    3.500    6.500 
#    0.000    5.000    0.000    0.000    0.000    0.000 
#    0.000    0.000    0.000    0.000    0.000    0.000 
#
# Total GULP energy -397011.500455 kJ/mol
# GULP energy per Si atom -12406.609389 kJ/mol
# Density = 2.033085 g / cm^3
# Si number density = 20.377228 Si / 1000 Ang^3
#
#
#
# Elastic Constant Matrix: (Units=GPa)
#
#
# Indices 1 2 3 4 5 6 
#
# 1 115.8277 60.7447 29.2227 0.0000 0.0000 0.0000
# 2 60.7447 139.8020 46.0267 0.0000 0.0000 0.0000
# 3 29.2227 46.0267 101.0787 0.0000 0.0000 0.0000
# 4 0.0000 0.0000 0.0000 22.4887 0.0000 0.0000
# 5 0.0000 0.0000 0.0000 0.0000 35.3662 0.0000
# 6 0.0000 0.0000 0.0000 0.0000 0.0000 148.3244
#
#
#
# Elastic Compliance Matrix: (Units=1/GPa)
#
#
# Indices 1 2 3 4 5 6 
#
# 1 0.011307 -0.004513 -0.001214 0.000000 0.000000 0.000000
# 2 -0.004513 0.010216 -0.003347 0.000000 0.000000 0.000000
# 3 -0.001214 -0.003347 0.011768 0.000000 0.000000 0.000000
# 4 0.000000 0.000000 0.000000 0.044467 0.000000 0.000000
# 5 0.000000 0.000000 0.000000 0.000000 0.028276 0.000000
# 6 0.000000 0.000000 0.000000 0.000000 0.000000 0.006742
#
#
# Mechanical properties :
#
#
# Convention : Reuss Voigt Hill
#
# Bulk Modulus (GPa) = 66.03777 69.85517 67.94647
# Shear Modulus (GPa) = 36.77262 55.95016 46.36139
#
# Velocity S-wave (km/s) = 4.25266 5.24565 4.77504
# Velocity P-wave (km/s) = 7.52273 8.42879 7.98862
#
# Compressibility (1/GPa) = 0.01514285
#
# Stress axis : x y z
#
# Youngs Moduli (GPa) = 88.44362 97.88633 84.97407
#
# Poissons Ratio (x) = 0.44178 0.10314
# Poissons Ratio (y) = 0.39916 0.28441
# Poissons Ratio (z) = 0.10735 0.32763
#
# Static dielectric constant tensor:
#      x y z
#    x 3.816700 0.000000 0.000000 
#    y 0.000000 3.723940 0.000000 
#    z 0.000000 0.000000 3.704570 
# 
# 
# High freq. dielectric constant tensor:
#      x y z
#    x 1.810590 0.000000 0.000000 
#    y 0.000000 1.795560 0.000000 
#    z 0.000000 0.000000 1.809780 
# 
# From -- ./inp_files/17851.got.cif
#   From: 2010.03.12/outbox.cif.g09.slc.cpg/sg65_9_cif.got.tgz:17851.got - 2010.04.10 20:52:16.
