data_PCOD8273828
_publ_section_title
;
Structure prediction by ZEFSAII (Michael W. Deem and Ramdas Pophale) SiO2 
 PCOD8273828
Probable space group: C M M M
;
_chemical_formula_sum "Si O2"
_cell_formula_units_Z 72
_cell_length_a 14.740679
_cell_length_b 28.482660
_cell_length_c 8.520001
_cell_angle_alpha 90.000000
_cell_angle_beta 90.000000
_cell_angle_gamma 90.000000
_cell_volume 3577.154354
_symmetry_space_group_name_H-M "C M M M"
_symmetry_group_IT_number 65
_symmetry_cell_setting 'orthorhombic'
loop_
_space_group_symop_operation_xyz
x,y,z
-x,-y,z
x,-y,-z
-x,y,-z
-x,-y,-z
x,y,-z
-x,y,z
x,-y,z
1/2+x,1/2+y,z
1/2-x,1/2-y,z
1/2+x,1/2-y,-z
1/2-x,1/2+y,-z
1/2-x,1/2-y,-z
1/2+x,1/2+y,-z
1/2-x,1/2+y,z
1/2+x,1/2-y,z
loop_
_atom_site_type_symbol
_atom_site_label
_atom_site_fract_x
_atom_site_fract_y
_atom_site_fract_z
Si Si1 0.500000 0.945802 0.186168
Si Si2 0.838754 0.859916 0.321817
Si Si3 0.000000 0.700325 0.316038
Si Si4 0.000000 0.198699 0.181950
Si Si5 0.641498 0.132293 0.184795
Si Si6 0.606549 0.448934 0.172514
O O1 0.410690 0.915796 0.241006
O O2 0.500000 0.000000 0.253325
O O3 0.500000 0.948310 0.000000
O O4 0.847592 0.842506 0.500000
O O5 0.908644 0.830521 0.216198
O O6 0.736154 0.857555 0.266643
O O7 0.864166 0.914513 0.310112
O O8 0.086655 0.678315 0.232167
O O9 0.000000 0.688826 0.500000
O O10 0.000000 0.755805 0.290505
O O11 0.000000 0.212704 0.000000
O O12 0.655099 0.130247 0.000000
O O13 0.500000 0.452988 0.166908
O O14 0.649002 0.500000 0.209083
O O15 0.641624 0.431686 0.000000
#
# Coordination Sequence:
#
# PCOD8273828 Si02
#       6
#     8  16   8   8  16  16
#     4   8  16  34  62  93 121 154 201 250 288 333
#     4  12  24  38  58  90 125 158 199 252 309 356
#     4  11  23  43  66  91 120 150 192 252 314 361
#     4  12  25  43  65  87 116 156 202 247 298 371
#     4  10  21  39  63  90 122 163 205 244 295 362
#     4   9  18  34  56  80 111 156 203 241 285 348
#
# _framework density 20.12773
#
# number of rings (size 3 to 8) (size 9 to 14) (size 15 to 20)
#    0.000    1.667    1.111    6.000    0.000    2.222 
#    0.000    7.778    0.000   11.333    0.000    0.000 
#    0.000    0.000    0.000    0.000    0.000    0.000 
#
# Total GULP energy -446164.566808 kJ/mol
# GULP energy per Si atom -12393.460189 kJ/mol
# Density = 2.008192 g / cm^3
# Si number density = 20.127730 Si / 1000 Ang^3
#
#
#
# Elastic Constant Matrix: (Units=GPa)
#
#
# Indices 1 2 3 4 5 6 
#
# 1 116.2147 42.3744 13.2138 0.0000 0.0000 0.0000
# 2 42.3744 106.2689 2.9848 0.0000 0.0000 0.0000
# 3 13.2138 2.9848 69.3199 0.0000 0.0000 0.0000
# 4 0.0000 0.0000 0.0000 29.1507 0.0000 0.0000
# 5 0.0000 0.0000 0.0000 0.0000 31.4836 0.0000
# 6 0.0000 0.0000 0.0000 0.0000 0.0000 -30.7119
#
#
#
# Elastic Compliance Matrix: (Units=1/GPa)
#
#
# Indices 1 2 3 4 5 6 
#
# 1 0.010285 -0.004051 -0.001786 0.000000 0.000000 0.000000
# 2 -0.004051 0.011017 0.000298 0.000000 0.000000 0.000000
# 3 -0.001786 0.000298 0.014754 0.000000 0.000000 0.000000
# 4 0.000000 0.000000 0.000000 0.034305 0.000000 0.000000
# 5 0.000000 0.000000 0.000000 0.000000 0.031763 0.000000
# 6 0.000000 0.000000 0.000000 0.000000 0.000000 -0.032561
#
#
# Mechanical properties :
#
#
# Convention : Reuss Voigt Hill
#
# Bulk Modulus (GPa) = 40.03676 45.43885 42.73780
# Shear Modulus (GPa) = 56.20125 21.53315 38.86720
#
# Velocity S-wave (km/s) = 5.28989 3.27437 4.39911
# Velocity P-wave (km/s) = 7.56605 6.07615 6.86166
#
# Compressibility (1/GPa) = 0.02497705
#
# Stress axis : x y z
#
# Youngs Moduli (GPa) = 97.22993 90.76868 67.78049
#
# Poissons Ratio (x) = 0.36770 0.12106
# Poissons Ratio (y) = 0.39387 -0.02019
# Poissons Ratio (z) = 0.17366 -0.02703
#
# Static dielectric constant tensor:
#      x y z
#    x 3.311090 0.000000 0.000000 
#    y 0.000000 4.190760 0.000000 
#    z 0.000000 0.000000 3.588690 
# 
# 
# High freq. dielectric constant tensor:
#      x y z
#    x 1.786060 0.000000 0.000000 
#    y 0.000000 1.790130 0.000000 
#    z 0.000000 0.000000 1.776050 
# 
# From -- ./inp_files/7351.got.cif
#   From: 2010.03.12/outbox.cif.g09.slc.cpg/sg65_4_cif.got.tgz:7351.got - 2010.04.10 20:52:16.
