data_PCOD8273181
_publ_section_title
;
Structure prediction by ZEFSAII (Michael W. Deem and Ramdas Pophale) SiO2 
 PCOD8273181
Probable space group: C M M M
;
_chemical_formula_sum "Si O2"
_cell_formula_units_Z 72
_cell_length_a 20.202986
_cell_length_b 9.197341
_cell_length_c 19.829916
_cell_angle_alpha 90.000000
_cell_angle_beta 90.000000
_cell_angle_gamma 90.000000
_cell_volume 3684.671083
_symmetry_space_group_name_H-M "C M M M"
_symmetry_group_IT_number 65
_symmetry_cell_setting 'orthorhombic'
loop_
_space_group_symop_operation_xyz
x,y,z
-x,-y,z
x,-y,-z
-x,y,-z
-x,-y,-z
x,y,-z
-x,y,z
x,-y,z
1/2+x,1/2+y,z
1/2-x,1/2-y,z
1/2+x,1/2-y,-z
1/2-x,1/2+y,-z
1/2-x,1/2-y,-z
1/2+x,1/2+y,-z
1/2-x,1/2+y,z
1/2+x,1/2-y,z
loop_
_atom_site_type_symbol
_atom_site_label
_atom_site_fract_x
_atom_site_fract_y
_atom_site_fract_z
Si Si1 0.922197 0.169717 0.704392
Si Si2 0.921590 0.662520 0.574182
Si Si3 0.000000 0.159889 0.920268
Si Si4 0.873760 0.665172 0.075118
Si Si5 0.185069 0.332104 0.211975
O O1 0.897971 0.223583 0.630620
O O2 0.881024 0.258524 0.759406
O O3 0.000000 0.201474 0.716399
O O4 0.906189 0.000000 0.710367
O O5 0.894708 0.709841 0.500000
O O6 0.895691 0.500000 0.591890
O O7 0.000000 0.660494 0.571983
O O8 0.934550 0.241367 0.896479
O O9 0.000000 0.000000 0.886743
O O10 0.000000 0.149698 0.000000
O O11 0.898789 0.500000 0.071260
O O12 0.815768 0.681488 0.130163
O O13 0.849887 0.715955 0.000000
O O14 0.187955 0.500000 0.234576
O O15 0.250000 0.250000 0.239220
#
# Coordination Sequence:
#
# PCOD8273181 Si02
#       5
#    16  16   8  16  16
#     4  10  21  36  56  84 116 150 188 231 274 324
#     4   8  14  27  50  81 115 148 183 225 271 320
#     4   9  17  29  49  79 109 135 166 213 270 321
#     4   9  19  36  56  78 105 139 180 225 277 337
#     4  11  24  40  58  79 108 147 187 231 284 338
#
# _framework density 19.540414999999999
#
# number of rings (size 3 to 8) (size 9 to 14) (size 15 to 20)
#    0.000    2.556    0.000    2.333    1.556    5.333 
#    0.000    2.222    0.000    0.667    0.000    0.000 
#    0.000    0.000    0.000    0.000    0.000    0.000 
#
# Total GULP energy -446200.578701 kJ/mol
# GULP energy per Si atom -12394.460519 kJ/mol
# Density = 1.949594 g / cm^3
# Si number density = 19.540415 Si / 1000 Ang^3
#
#
#
# Elastic Constant Matrix: (Units=GPa)
#
#
# Indices 1 2 3 4 5 6 
#
# 1 64.5175 49.8260 31.5529 0.0000 0.0000 0.0000
# 2 49.8260 130.9322 50.0260 0.0000 0.0000 0.0000
# 3 31.5529 50.0260 99.5047 0.0000 0.0000 0.0000
# 4 0.0000 0.0000 0.0000 26.0013 0.0000 0.0000
# 5 0.0000 0.0000 0.0000 0.0000 10.7717 0.0000
# 6 0.0000 0.0000 0.0000 0.0000 0.0000 25.1116
#
#
#
# Elastic Compliance Matrix: (Units=1/GPa)
#
#
# Indices 1 2 3 4 5 6 
#
# 1 0.022932 -0.007363 -0.003570 0.000000 0.000000 0.000000
# 2 -0.007363 0.011817 -0.003606 0.000000 0.000000 0.000000
# 3 -0.003570 -0.003606 0.012995 0.000000 0.000000 0.000000
# 4 0.000000 0.000000 0.000000 0.038460 0.000000 0.000000
# 5 0.000000 0.000000 0.000000 0.000000 0.092835 0.000000
# 6 0.000000 0.000000 0.000000 0.000000 0.000000 0.039822
#
#
# Mechanical properties :
#
#
# Convention : Reuss Voigt Hill
#
# Bulk Modulus (GPa) = 53.57422 61.97381 57.77401
# Shear Modulus (GPa) = 19.67253 23.28022 21.47638
#
# Velocity S-wave (km/s) = 3.17639 3.45539 3.31883
# Velocity P-wave (km/s) = 6.39760 6.90682 6.65708
#
# Compressibility (1/GPa) = 0.01866570
#
# Stress axis : x y z
#
# Youngs Moduli (GPa) = 43.60782 84.62167 76.95259
#
# Poissons Ratio (x) = 0.62303 0.27473
# Poissons Ratio (y) = 0.32107 0.27753
# Poissons Ratio (z) = 0.15568 0.30519
#
# Static dielectric constant tensor:
#      x y z
#    x 3.085860 0.000000 0.000000 
#    y 0.000000 3.724590 0.000000 
#    z 0.000000 0.000000 3.838250 
# 
# 
# High freq. dielectric constant tensor:
#      x y z
#    x 1.715320 0.000000 0.000000 
#    y 0.000000 1.766560 0.000000 
#    z 0.000000 0.000000 1.765630 
# 
# From -- ./inp_files/64330.got.cif
#   From: 2010.03.12/outbox.cif.g09.slc.cpg/sg65_33_cif.got.tgz:64330.got - 2010.04.10 20:52:16.
