data_PCOD8273476
_publ_section_title
;
Structure prediction by ZEFSAII (Michael W. Deem and Ramdas Pophale) SiO2 
 PCOD8273476
Probable space group: C M M M
;
_chemical_formula_sum "Si O2"
_cell_formula_units_Z 56
_cell_length_a 18.052807
_cell_length_b 8.905643
_cell_length_c 17.636095
_cell_angle_alpha 90.000000
_cell_angle_beta 90.000000
_cell_angle_gamma 90.000000
_cell_volume 2835.387696
_symmetry_space_group_name_H-M "C M M M"
_symmetry_group_IT_number 65
_symmetry_cell_setting 'orthorhombic'
loop_
_space_group_symop_operation_xyz
x,y,z
-x,-y,z
x,-y,-z
-x,y,-z
-x,-y,-z
x,y,-z
-x,y,z
x,-y,z
1/2+x,1/2+y,z
1/2-x,1/2-y,z
1/2+x,1/2-y,-z
1/2-x,1/2+y,-z
1/2-x,1/2-y,-z
1/2+x,1/2+y,-z
1/2-x,1/2+y,z
1/2+x,1/2-y,z
loop_
_atom_site_type_symbol
_atom_site_label
_atom_site_fract_x
_atom_site_fract_y
_atom_site_fract_z
Si Si1 0.330028 0.822106 0.637359
Si Si2 0.912384 0.827415 0.500000
Si Si3 0.415380 0.826027 0.211860
Si Si4 0.673897 0.675972 0.913533
O O1 0.250000 0.750000 0.629536
O O2 0.382922 0.755844 0.573778
O O3 0.364404 0.776990 0.718071
O O4 0.324500 0.000000 0.627065
O O5 0.000000 0.815245 0.500000
O O6 0.885660 0.000000 0.500000
O O7 0.500000 0.788882 0.232613
O O8 0.393368 0.732249 0.137850
O O9 0.404630 0.000000 0.192656
O O10 0.683022 0.500000 0.904523
O O11 0.750000 0.750000 0.885086
O O12 0.656468 0.722581 0.000000
#
# Coordination Sequence:
#
# PCOD8273476 Si02
#       4
#    16   8  16  16
#     4  11  23  40  62  87 117 152 192 236 283 337
#     4  11  24  41  62  89 119 151 190 235 284 337
#     4  10  22  39  59  85 116 151 191 235 286 341
#     4  10  21  37  58  84 114 150 192 237 286 340
#
# _framework density 19.750384
#
# number of rings (size 3 to 8) (size 9 to 14) (size 15 to 20)
#    0.000    1.571    0.000    4.286    0.000    9.714 
#    0.000    2.857    0.000    0.000    0.000    0.000 
#    0.000    0.000    0.000    0.000    0.000    0.000 
#
# Total GULP energy -347380.638313 kJ/mol
# GULP energy per Si atom -12406.451368 kJ/mol
# Density = 1.970543 g / cm^3
# Si number density = 19.750384 Si / 1000 Ang^3
#
#
#
# Elastic Constant Matrix: (Units=GPa)
#
#
# Indices 1 2 3 4 5 6 
#
# 1 93.2166 41.8773 45.2591 0.0000 0.0000 0.0000
# 2 41.8773 88.6414 54.5885 0.0000 0.0000 0.0000
# 3 45.2591 54.5885 114.6332 0.0000 0.0000 0.0000
# 4 0.0000 0.0000 0.0000 40.8197 0.0000 0.0000
# 5 0.0000 0.0000 0.0000 0.0000 36.5323 0.0000
# 6 0.0000 0.0000 0.0000 0.0000 0.0000 32.7410
#
#
#
# Elastic Compliance Matrix: (Units=1/GPa)
#
#
# Indices 1 2 3 4 5 6 
#
# 1 0.014545 -0.004719 -0.003495 0.000000 0.000000 0.000000
# 2 -0.004719 0.017494 -0.006467 0.000000 0.000000 0.000000
# 3 -0.003495 -0.006467 0.013183 0.000000 0.000000 0.000000
# 4 0.000000 0.000000 0.000000 0.024498 0.000000 0.000000
# 5 0.000000 0.000000 0.000000 0.000000 0.027373 0.000000
# 6 0.000000 0.000000 0.000000 0.000000 0.000000 0.030543
#
#
# Mechanical properties :
#
#
# Convention : Reuss Voigt Hill
#
# Bulk Modulus (GPa) = 63.05819 64.43789 63.74804
# Shear Modulus (GPa) = 30.81005 32.33637 31.57321
#
# Velocity S-wave (km/s) = 3.95393 4.05069 4.00260
# Velocity P-wave (km/s) = 7.26923 7.38745 7.32858
#
# Compressibility (1/GPa) = 0.01585837
#
# Stress axis : x y z
#
# Youngs Moduli (GPa) = 68.75342 57.16375 75.85360
#
# Poissons Ratio (x) = 0.26975 0.26514
# Poissons Ratio (y) = 0.32444 0.49058
# Poissons Ratio (z) = 0.24032 0.36970
#
# Static dielectric constant tensor:
#      x y z
#    x 3.605390 0.000000 0.000000 
#    y 0.000000 3.697680 0.000000 
#    z 0.000000 0.000000 3.744490 
# 
# 
# High freq. dielectric constant tensor:
#      x y z
#    x 1.777720 0.000000 0.000000 
#    y 0.000000 1.778560 0.000000 
#    z 0.000000 0.000000 1.782090 
# 
# From -- ./inp_files/35437.got.cif
#   From: 2010.03.12/outbox.cif.g09.slc.cpg/sg65_18_cif.got.tgz:35437.got - 2010.04.10 20:52:16.
