data_PCOD8273236
_publ_section_title
;
Structure prediction by ZEFSAII (Michael W. Deem and Ramdas Pophale) SiO2 
 PCOD8273236
Probable space group: C M M M
;
_chemical_formula_sum "Si O2"
_cell_formula_units_Z 104
_cell_length_a 9.065143
_cell_length_b 27.644873
_cell_length_c 27.286701
_cell_angle_alpha 90.000000
_cell_angle_beta 90.000000
_cell_angle_gamma 90.000000
_cell_volume 6838.176254
_symmetry_space_group_name_H-M "C M M M"
_symmetry_group_IT_number 65
_symmetry_cell_setting 'orthorhombic'
loop_
_space_group_symop_operation_xyz
x,y,z
-x,-y,z
x,-y,-z
-x,y,-z
-x,-y,-z
x,y,-z
-x,y,z
x,-y,z
1/2+x,1/2+y,z
1/2-x,1/2-y,z
1/2+x,1/2-y,-z
1/2-x,1/2+y,-z
1/2-x,1/2-y,-z
1/2+x,1/2+y,-z
1/2-x,1/2+y,z
1/2+x,1/2-y,z
loop_
_atom_site_type_symbol
_atom_site_label
_atom_site_fract_x
_atom_site_fract_y
_atom_site_fract_z
Si Si1 0.833451 0.942357 0.500000
Si Si2 0.833489 0.442279 0.595958
Si Si3 0.673739 0.699506 0.056089
Si Si4 0.673536 0.944638 0.789635
Si Si5 0.165177 0.942727 0.309183
Si Si6 0.339670 0.443605 0.946240
Si Si7 0.830093 0.619214 0.881199
O O1 0.750559 0.922554 0.451939
O O2 0.000000 0.922396 0.500000
O O3 0.833353 0.000000 0.500000
O O4 0.833254 0.500000 0.596387
O O5 0.752334 0.421469 0.644117
O O6 0.000000 0.422392 0.595229
O O7 0.500000 0.705532 0.062420
O O8 0.750000 0.750000 0.067942
O O9 0.730231 0.662604 0.097945
O O10 0.712799 0.683259 0.000000
O O11 0.500000 0.944672 0.780441
O O12 0.752730 0.927475 0.740298
O O13 0.717314 0.902881 0.828602
O O14 0.722351 0.000000 0.804810
O O15 0.000000 0.921207 0.308726
O O16 0.159758 0.000000 0.313646
O O17 0.500000 0.429154 0.922634
O O18 0.325951 0.500000 0.950411
O O19 0.198188 0.425716 0.916919
O O20 0.334326 0.419994 0.000000
O O21 0.000000 0.635144 0.881939
#
# Coordination Sequence:
#
# PCOD8273236 Si02
#       7
#     8  16  16  16  16  16  16
#     4   9  15  21  29  43  63  85 115 159 204 243
#     4   9  15  22  32  45  63  89 120 156 202 250
#     4  10  21  37  55  72  89 108 131 161 199 244
#     4   9  18  31  43  57  81 111 140 169 201 238
#     4   9  16  25  37  52  69  93 128 167 204 240
#     4   9  18  31  44  59  82 111 139 165 195 233
#     4  11  21  31  46  67  88 109 134 165 201 241
#
# _framework density 15.208733000000001
#
# number of rings (size 3 to 8) (size 9 to 14) (size 15 to 20)
#    0.000    2.538    0.000    3.462    0.000    9.846 
#    0.000    2.308    0.000    0.000    0.000    0.000 
#    0.000    0.000    0.000    0.000    0.000    0.000 
#
# Total GULP energy -644317.308520 kJ/mol
# GULP energy per Si atom -12390.717472 kJ/mol
# Density = 1.517412 g / cm^3
# Si number density = 15.208733 Si / 1000 Ang^3
#
#
#
# Elastic Constant Matrix: (Units=GPa)
#
#
# Indices 1 2 3 4 5 6 
#
# 1 91.7793 31.9429 66.8321 0.0000 0.0000 0.0000
# 2 31.9429 39.0225 41.1946 0.0000 0.0000 0.0000
# 3 66.8321 41.1946 127.3032 0.0000 0.0000 0.0000
# 4 0.0000 0.0000 0.0000 9.8328 0.0000 0.0000
# 5 0.0000 0.0000 0.0000 0.0000 30.1645 0.0000
# 6 0.0000 0.0000 0.0000 0.0000 0.0000 18.0745
#
#
#
# Elastic Compliance Matrix: (Units=1/GPa)
#
#
# Indices 1 2 3 4 5 6 
#
# 1 0.019029 -0.007641 -0.007517 0.000000 0.000000 0.000000
# 2 -0.007641 0.041990 -0.009577 0.000000 0.000000 0.000000
# 3 -0.007517 -0.009577 0.014901 0.000000 0.000000 0.000000
# 4 0.000000 0.000000 0.000000 0.101700 0.000000 0.000000
# 5 0.000000 0.000000 0.000000 0.000000 0.033152 0.000000
# 6 0.000000 0.000000 0.000000 0.000000 0.000000 0.055327
#
#
# Mechanical properties :
#
#
# Convention : Reuss Voigt Hill
#
# Bulk Modulus (GPa) = 37.80640 59.78268 48.79454
# Shear Modulus (GPa) = 15.41378 19.49006 17.45192
#
# Velocity S-wave (km/s) = 3.18698 3.58369 3.39114
# Velocity P-wave (km/s) = 6.20119 7.51780 6.89101
#
# Compressibility (1/GPa) = 0.02645055
#
# Stress axis : x y z
#
# Youngs Moduli (GPa) = 52.55111 23.81494 67.11099
#
# Poissons Ratio (x) = 0.18197 0.50450
# Poissons Ratio (y) = 0.40154 0.64269
# Poissons Ratio (z) = 0.39505 0.22806
#
# Static dielectric constant tensor:
#      x y z
#    x 3.146360 0.000000 0.000000 
#    y 0.000000 2.495860 0.000000 
#    z 0.000000 0.000000 3.039070 
# 
# 
# High freq. dielectric constant tensor:
#      x y z
#    x 1.599150 0.000000 0.000000 
#    y 0.000000 1.515040 0.000000 
#    z 0.000000 0.000000 1.582020 
# 
# From -- ./inp_files/74040.got.cif
#   From: 2010.03.12/outbox.cif.g09.slc.cpg/sg65_38_cif.got.tgz:74040.got - 2010.04.10 20:52:16.
