data_PCOD8273553
_publ_section_title
;
Structure prediction by ZEFSAII (Michael W. Deem and Ramdas Pophale) SiO2 
 PCOD8273553
Probable space group: C M M M
;
_chemical_formula_sum "Si O2"
_cell_formula_units_Z 60
_cell_length_a 21.644089
_cell_length_b 14.258241
_cell_length_c 9.850180
_cell_angle_alpha 90.000000
_cell_angle_beta 90.000000
_cell_angle_gamma 90.000000
_cell_volume 3039.830925
_symmetry_space_group_name_H-M "C M M M"
_symmetry_group_IT_number 65
_symmetry_cell_setting 'orthorhombic'
loop_
_space_group_symop_operation_xyz
x,y,z
-x,-y,z
x,-y,-z
-x,y,-z
-x,-y,-z
x,y,-z
-x,y,z
x,-y,z
1/2+x,1/2+y,z
1/2-x,1/2-y,z
1/2+x,1/2-y,-z
1/2-x,1/2+y,-z
1/2-x,1/2-y,-z
1/2+x,1/2+y,-z
1/2-x,1/2+y,z
1/2+x,1/2-y,z
loop_
_atom_site_type_symbol
_atom_site_label
_atom_site_fract_x
_atom_site_fract_y
_atom_site_fract_z
Si Si1 0.570299 0.675177 0.500000
Si Si2 0.157871 0.000000 0.500000
Si Si3 0.298751 0.339563 0.000000
Si Si4 0.070090 0.744893 0.000000
Si Si5 0.845385 0.500000 0.352799
Si Si6 0.224818 0.000000 0.788280
Si Si7 0.068963 0.668694 0.290195
O O1 0.500000 0.638563 0.500000
O O2 0.615624 0.589757 0.500000
O O3 0.584302 0.733653 0.636198
O O4 0.196380 0.000000 0.361423
O O5 0.250000 0.250000 0.000000
O O6 0.371593 0.314582 0.000000
O O7 0.290498 0.404064 0.867282
O O8 0.076542 0.678519 0.129532
O O9 0.000000 0.792585 0.000000
O O10 0.811938 0.500000 0.500000
O O11 0.798224 0.500000 0.229062
O O12 0.885974 0.408141 0.346282
O O13 0.000000 0.637021 0.328627
#
# Coordination Sequence:
#
# PCOD8273553 Si02
#       7
#     8   4   8   8   8   8  16
#     4  10  21  38  60  86 116 159 204 249 308 371
#     4  12  23  40  58  86 123 154 202 268 304 342
#     4  11  23  46  69  88 127 172 207 257 324 372
#     4  10  21  39  63  94 124 159 211 262 305 370
#     4  12  22  39  60  88 128 166 199 255 310 364
#     4  11  26  41  61  94 120 161 220 254 300 390
#     4  10  21  37  62  93 123 158 202 247 310 384
#
# _framework density 19.737940999999999
#
# number of rings (size 3 to 8) (size 9 to 14) (size 15 to 20)
#    0.000    1.333    2.000    3.800    0.000    2.133 
#    0.000    6.667    0.000    0.000    0.000    0.000 
#    0.000    0.000    0.000    0.000    0.000    0.000 
#
# Total GULP energy -371836.439390 kJ/mol
# GULP energy per Si atom -12394.547980 kJ/mol
# Density = 1.969302 g / cm^3
# Si number density = 19.737941 Si / 1000 Ang^3
#
#
#
# Elastic Constant Matrix: (Units=GPa)
#
#
# Indices 1 2 3 4 5 6 
#
# 1 129.7009 65.3976 40.2698 0.0000 0.0000 0.0000
# 2 65.3976 98.9693 42.8729 0.0000 0.0000 0.0000
# 3 40.2698 42.8729 145.3154 0.0000 0.0000 0.0000
# 4 0.0000 0.0000 0.0000 20.8089 0.0000 0.0000
# 5 0.0000 0.0000 0.0000 0.0000 30.7810 0.0000
# 6 0.0000 0.0000 0.0000 0.0000 0.0000 36.2662
#
#
#
# Elastic Compliance Matrix: (Units=1/GPa)
#
#
# Indices 1 2 3 4 5 6 
#
# 1 0.011715 -0.007263 -0.001104 0.000000 0.000000 0.000000
# 2 -0.007263 0.016088 -0.002734 0.000000 0.000000 0.000000
# 3 -0.001104 -0.002734 0.007994 0.000000 0.000000 0.000000
# 4 0.000000 0.000000 0.000000 0.048056 0.000000 0.000000
# 5 0.000000 0.000000 0.000000 0.000000 0.032488 0.000000
# 6 0.000000 0.000000 0.000000 0.000000 0.000000 0.027574
#
#
# Mechanical properties :
#
#
# Convention : Reuss Voigt Hill
#
# Bulk Modulus (GPa) = 73.55137 74.56293 74.05715
# Shear Modulus (GPa) = 29.30032 32.60090 30.95061
#
# Velocity S-wave (km/s) = 3.85706 4.06850 3.96419
# Velocity P-wave (km/s) = 7.56179 7.74137 7.65211
#
# Compressibility (1/GPa) = 0.01359594
#
# Stress axis : x y z
#
# Youngs Moduli (GPa) = 85.36222 62.15972 125.09479
#
# Poissons Ratio (x) = 0.45146 0.13805
# Poissons Ratio (y) = 0.61998 0.34197
# Poissons Ratio (z) = 0.09421 0.16993
#
# Static dielectric constant tensor:
#      x y z
#    x 3.807110 0.000000 0.000000 
#    y 0.000000 3.432770 0.000000 
#    z 0.000000 0.000000 3.962760 
# 
# 
# High freq. dielectric constant tensor:
#      x y z
#    x 1.781480 0.000000 0.000000 
#    y 0.000000 1.757490 0.000000 
#    z 0.000000 0.000000 1.794390 
# 
# From -- ./inp_files/28149.got.cif
#   From: 2010.03.12/outbox.cif.g09.slc.cpg/sg65_15_cif.got.tgz:28149.got - 2010.04.10 20:52:16.
