data_PCOD8273993
_publ_section_title
;
Structure prediction by ZEFSAII (Michael W. Deem and Ramdas Pophale) SiO2 
 PCOD8273993
Probable space group: C M M M
;
_chemical_formula_sum "Si O2"
_cell_formula_units_Z 72
_cell_length_a 9.630525
_cell_length_b 18.561098
_cell_length_c 19.999545
_cell_angle_alpha 90.000000
_cell_angle_beta 90.000000
_cell_angle_gamma 90.000000
_cell_volume 3574.981034
_symmetry_space_group_name_H-M "C M M M"
_symmetry_group_IT_number 65
_symmetry_cell_setting 'orthorhombic'
loop_
_space_group_symop_operation_xyz
x,y,z
-x,-y,z
x,-y,-z
-x,y,-z
-x,-y,-z
x,y,-z
-x,y,z
x,-y,z
1/2+x,1/2+y,z
1/2-x,1/2-y,z
1/2+x,1/2-y,-z
1/2-x,1/2+y,-z
1/2-x,1/2-y,-z
1/2+x,1/2+y,-z
1/2-x,1/2+y,z
1/2+x,1/2-y,z
loop_
_atom_site_type_symbol
_atom_site_label
_atom_site_fract_x
_atom_site_fract_y
_atom_site_fract_z
Si Si1 0.341332 0.683794 0.075454
Si Si2 0.654323 0.820519 0.286219
Si Si3 0.271330 0.833862 0.573117
Si Si4 0.158417 0.916225 0.803571
Si Si5 0.000000 0.920162 0.421997
O O1 0.500000 0.709497 0.077811
O O2 0.250000 0.750000 0.102527
O O3 0.315538 0.615837 0.122825
O O4 0.297454 0.662108 0.000000
O O5 0.500000 0.806601 0.255846
O O6 0.750000 0.750000 0.280461
O O7 0.627468 0.844121 0.363828
O O8 0.731504 0.884388 0.248149
O O9 0.323530 0.864606 0.500000
O O10 0.250000 0.750000 0.561780
O O11 0.132512 0.873553 0.598397
O O12 0.000000 0.900677 0.779570
O O13 0.188233 0.000000 0.809265
O O14 0.000000 0.932570 0.500000
O O15 0.000000 0.000000 0.387136
#
# Coordination Sequence:
#
# PCOD8273993 Si02
#       5
#    16  16  16  16   8
#     4   9  18  34  58  88 119 151 190 234 282 339
#     4  11  24  39  59  84 114 153 196 244 298 354
#     4   9  20  35  57  86 115 147 192 247 300 358
#     4  10  22  39  59  84 116 156 198 241 290 344
#     4   9  18  34  56  84 115 149 188 234 295 360
#
# _framework density 20.139966999999999
#
# number of rings (size 3 to 8) (size 9 to 14) (size 15 to 20)
#    0.000    2.333    0.000    1.333    7.778    4.889 
#    0.000    2.222    0.000    0.000    0.000    9.333 
#    0.000    0.000    0.000    0.000    0.000    0.000 
#
# Total GULP energy -446076.375392 kJ/mol
# GULP energy per Si atom -12391.010428 kJ/mol
# Density = 2.009413 g / cm^3
# Si number density = 20.139967 Si / 1000 Ang^3
#
#
#
# Elastic Constant Matrix: (Units=GPa)
#
#
# Indices 1 2 3 4 5 6 
#
# 1 119.7672 69.2527 45.1725 0.0000 0.0000 0.0000
# 2 69.2527 130.3413 47.5706 0.0000 0.0000 0.0000
# 3 45.1725 47.5706 101.8810 0.0000 0.0000 0.0000
# 4 0.0000 0.0000 0.0000 26.8884 0.0000 0.0000
# 5 0.0000 0.0000 0.0000 0.0000 19.5699 0.0000
# 6 0.0000 0.0000 0.0000 0.0000 0.0000 32.8438
#
#
#
# Elastic Compliance Matrix: (Units=1/GPa)
#
#
# Indices 1 2 3 4 5 6 
#
# 1 0.012773 -0.005689 -0.003007 0.000000 0.000000 0.000000
# 2 -0.005689 0.011782 -0.002979 0.000000 0.000000 0.000000
# 3 -0.003007 -0.002979 0.012540 0.000000 0.000000 0.000000
# 4 0.000000 0.000000 0.000000 0.037191 0.000000 0.000000
# 5 0.000000 0.000000 0.000000 0.000000 0.051099 0.000000
# 6 0.000000 0.000000 0.000000 0.000000 0.000000 0.030447
#
#
# Mechanical properties :
#
#
# Convention : Reuss Voigt Hill
#
# Bulk Modulus (GPa) = 72.75497 75.10900 73.93198
# Shear Modulus (GPa) = 27.20885 28.52667 27.86776
#
# Velocity S-wave (km/s) = 3.67957 3.76762 3.72385
# Velocity P-wave (km/s) = 7.36582 7.50340 7.43493
#
# Compressibility (1/GPa) = 0.01374477
#
# Stress axis : x y z
#
# Youngs Moduli (GPa) = 78.28778 84.87418 79.74766
#
# Poissons Ratio (x) = 0.48287 0.23981
# Poissons Ratio (y) = 0.44540 0.23756
# Poissons Ratio (z) = 0.23542 0.25283
#
# Static dielectric constant tensor:
#      x y z
#    x 3.639850 0.000000 0.000000 
#    y 0.000000 3.613050 0.000000 
#    z 0.000000 0.000000 3.986440 
# 
# 
# High freq. dielectric constant tensor:
#      x y z
#    x 1.776460 0.000000 0.000000 
#    y 0.000000 1.769610 0.000000 
#    z 0.000000 0.000000 1.797230 
# 
# From -- ./inp_files/59307.got.cif
#   From: 2010.03.12/outbox.cif.g09.slc.cpg/sg65_30_cif.got.tgz:59307.got - 2010.04.10 20:52:16.
