data_PCOD8273319
_publ_section_title
;
Structure prediction by ZEFSAII (Michael W. Deem and Ramdas Pophale) SiO2 
 PCOD8273319
Probable space group: C M M M
;
_chemical_formula_sum "Si O2"
_cell_formula_units_Z 72
_cell_length_a 18.700223
_cell_length_b 8.806329
_cell_length_c 23.065221
_cell_angle_alpha 90.000000
_cell_angle_beta 90.000000
_cell_angle_gamma 90.000000
_cell_volume 3798.387885
_symmetry_space_group_name_H-M "C M M M"
_symmetry_group_IT_number 65
_symmetry_cell_setting 'orthorhombic'
loop_
_space_group_symop_operation_xyz
x,y,z
-x,-y,z
x,-y,-z
-x,y,-z
-x,-y,-z
x,y,-z
-x,y,z
x,-y,z
1/2+x,1/2+y,z
1/2-x,1/2-y,z
1/2+x,1/2-y,-z
1/2-x,1/2+y,-z
1/2-x,1/2-y,-z
1/2+x,1/2+y,-z
1/2-x,1/2+y,z
1/2+x,1/2-y,z
loop_
_atom_site_type_symbol
_atom_site_label
_atom_site_fract_x
_atom_site_fract_y
_atom_site_fract_z
Si Si1 0.080861 0.819650 0.500000
Si Si2 0.583018 0.326913 0.170836
Si Si3 0.417307 0.177425 0.710289
Si Si4 0.171819 0.179794 0.390612
Si Si5 0.325151 0.320651 0.935663
O O1 0.123128 0.760516 0.556347
O O2 0.000000 0.752710 0.500000
O O3 0.077259 0.000000 0.500000
O O4 0.500000 0.315612 0.158292
O O5 0.606000 0.500000 0.184623
O O6 0.605380 0.222001 0.224716
O O7 0.619508 0.263277 0.112646
O O8 0.500000 0.222423 0.698772
O O9 0.366441 0.270671 0.668114
O O10 0.404456 0.000000 0.700909
O O11 0.250000 0.250000 0.395984
O O12 0.179630 0.000000 0.391637
O O13 0.317992 0.500000 0.934267
O O14 0.250000 0.250000 0.918854
O O15 0.349902 0.266753 0.000000
#
# Coordination Sequence:
#
# PCOD8273319 Si02
#       5
#     8  16  16  16  16
#     4   9  19  36  59  85 110 141 180 219 262 314
#     4   9  18  33  53  76 102 135 175 217 262 312
#     4  10  21  37  56  79 108 141 179 222 267 317
#     4  11  22  37  58  83 113 145 179 220 265 314
#     4   9  18  32  50  73 101 133 169 211 260 314
#
# _framework density 18.955411000000002
#
# number of rings (size 3 to 8) (size 9 to 14) (size 15 to 20)
#    0.000    2.333    0.000    2.333    0.000    4.444 
#    0.000    6.111    0.000    4.000    0.000    6.222 
#    0.000    0.000    0.000    0.000    0.000    0.000 
#
# Total GULP energy -446424.741117 kJ/mol
# GULP energy per Si atom -12400.687253 kJ/mol
# Density = 1.891227 g / cm^3
# Si number density = 18.955411 Si / 1000 Ang^3
#
#
#
# Elastic Constant Matrix: (Units=GPa)
#
#
# Indices 1 2 3 4 5 6 
#
# 1 121.4732 37.6537 87.4742 0.0000 0.0000 0.0000
# 2 37.6537 48.5610 34.0583 0.0000 0.0000 0.0000
# 3 87.4742 34.0583 143.6610 0.0000 0.0000 0.0000
# 4 0.0000 0.0000 0.0000 21.2493 0.0000 0.0000
# 5 0.0000 0.0000 0.0000 0.0000 22.9027 0.0000
# 6 0.0000 0.0000 0.0000 0.0000 0.0000 28.2045
#
#
#
# Elastic Compliance Matrix: (Units=1/GPa)
#
#
# Indices 1 2 3 4 5 6 
#
# 1 0.016355 -0.006833 -0.008338 0.000000 0.000000 0.000000
# 2 -0.006833 0.027555 -0.002372 0.000000 0.000000 0.000000
# 3 -0.008338 -0.002372 0.012600 0.000000 0.000000 0.000000
# 4 0.000000 0.000000 0.000000 0.047060 0.000000 0.000000
# 5 0.000000 0.000000 0.000000 0.000000 0.043663 0.000000
# 6 0.000000 0.000000 0.000000 0.000000 0.000000 0.035455
#
#
# Mechanical properties :
#
#
# Convention : Reuss Voigt Hill
#
# Bulk Modulus (GPa) = 46.67898 70.22974 58.45436
# Shear Modulus (GPa) = 22.23046 24.77191 23.50118
#
# Velocity S-wave (km/s) = 3.42830 3.61896 3.52492
# Velocity P-wave (km/s) = 6.35217 7.38870 6.88996
#
# Compressibility (1/GPa) = 0.02142292
#
# Stress axis : x y z
#
# Youngs Moduli (GPa) = 61.14312 36.29165 79.36297
#
# Poissons Ratio (x) = 0.24799 0.66177
# Poissons Ratio (y) = 0.41781 0.18822
# Poissons Ratio (z) = 0.50984 0.08607
#
# Static dielectric constant tensor:
#      x y z
#    x 3.505630 0.000000 0.000000 
#    y 0.000000 3.342200 0.000000 
#    z 0.000000 0.000000 3.745840 
# 
# 
# High freq. dielectric constant tensor:
#      x y z
#    x 1.735950 0.000000 0.000000 
#    y 0.000000 1.724280 0.000000 
#    z 0.000000 0.000000 1.751430 
# 
# From -- ./inp_files/64294.got.cif
#   From: 2010.03.12/outbox.cif.g09.slc.cpg/sg65_33_cif.got.tgz:64294.got - 2010.04.10 20:52:16.
