data_PCOD8273745
_publ_section_title
;
Structure prediction by ZEFSAII (Michael W. Deem and Ramdas Pophale) SiO2 
 PCOD8273745
Probable space group: C M M M
;
_chemical_formula_sum "Si O2"
_cell_formula_units_Z 96
_cell_length_a 14.950520
_cell_length_b 21.747785
_cell_length_c 14.038691
_cell_angle_alpha 90.000000
_cell_angle_beta 90.000000
_cell_angle_gamma 90.000000
_cell_volume 4564.549743
_symmetry_space_group_name_H-M "C M M M"
_symmetry_group_IT_number 65
_symmetry_cell_setting 'orthorhombic'
loop_
_space_group_symop_operation_xyz
x,y,z
-x,-y,z
x,-y,-z
-x,y,-z
-x,-y,-z
x,y,-z
-x,y,z
x,-y,z
1/2+x,1/2+y,z
1/2-x,1/2-y,z
1/2+x,1/2-y,-z
1/2-x,1/2+y,-z
1/2-x,1/2-y,-z
1/2+x,1/2+y,-z
1/2-x,1/2+y,z
1/2+x,1/2-y,z
loop_
_atom_site_type_symbol
_atom_site_label
_atom_site_fract_x
_atom_site_fract_y
_atom_site_fract_z
Si Si1 0.823781 0.569998 0.894214
Si Si2 0.696526 0.687057 0.893185
Si Si3 0.724443 0.432342 0.605684
Si Si4 0.600801 0.902337 0.700876
Si Si5 0.605185 0.779097 0.605048
Si Si6 0.603731 0.660588 0.709284
O O1 0.784115 0.500000 0.881658
O O2 0.751500 0.623744 0.881925
O O3 0.897968 0.582125 0.813259
O O4 0.867196 0.575462 0.000000
O O5 0.750000 0.750000 0.870482
O O6 0.615174 0.680471 0.819276
O O7 0.657296 0.691559 0.000000
O O8 0.722623 0.401956 0.500000
O O9 0.683016 0.500000 0.599266
O O10 0.826353 0.440907 0.642732
O O11 0.664013 0.397268 0.682126
O O12 0.500000 0.916117 0.663531
O O13 0.629430 0.831829 0.680844
O O14 0.645204 0.793532 0.500000
O O15 0.500000 0.772111 0.597981
O O16 0.643310 0.715057 0.643616
O O17 0.500000 0.645893 0.690120
#
# Coordination Sequence:
#
# PCOD8273745 Si02
#       6
#    16  16  16  16  16  16
#     4  10  21  38  61  88 121 163 209 255 306 374
#     4  10  21  39  64  93 128 167 207 256 318 381
#     4  11  25  42  60  87 124 167 214 261 315 379
#     4  11  22  38  62  91 125 162 202 258 322 380
#     4   9  19  36  58  87 120 155 201 251 301 365
#     4  11  23  39  64  94 123 163 212 262 315 369
#
# _framework density 21.031647
#
# number of rings (size 3 to 8) (size 9 to 14) (size 15 to 20)
#    0.000    1.667    1.667    2.500    0.000    4.333 
#    0.000    4.167    0.000    6.000    0.000    3.500 
#    0.000    0.000    0.000    0.000    0.000    0.000 
#
# Total GULP energy -594800.503617 kJ/mol
# GULP energy per Si atom -12391.677159 kJ/mol
# Density = 2.098378 g / cm^3
# Si number density = 21.031647 Si / 1000 Ang^3
#
#
#
# Elastic Constant Matrix: (Units=GPa)
#
#
# Indices 1 2 3 4 5 6 
#
# 1 68.0907 34.6777 37.7452 0.0000 0.0000 0.0000
# 2 34.6777 137.4061 42.8553 0.0000 0.0000 0.0000
# 3 37.7452 42.8553 152.4557 0.0000 0.0000 0.0000
# 4 0.0000 0.0000 0.0000 23.7926 0.0000 0.0000
# 5 0.0000 0.0000 0.0000 0.0000 20.9472 0.0000
# 6 0.0000 0.0000 0.0000 0.0000 0.0000 17.9120
#
#
#
# Elastic Compliance Matrix: (Units=1/GPa)
#
#
# Indices 1 2 3 4 5 6 
#
# 1 0.018476 -0.003547 -0.003577 0.000000 0.000000 0.000000
# 2 -0.003547 0.008658 -0.001556 0.000000 0.000000 0.000000
# 3 -0.003577 -0.001556 0.007882 0.000000 0.000000 0.000000
# 4 0.000000 0.000000 0.000000 0.042030 0.000000 0.000000
# 5 0.000000 0.000000 0.000000 0.000000 0.047739 0.000000
# 6 0.000000 0.000000 0.000000 0.000000 0.000000 0.055829
#
#
# Mechanical properties :
#
#
# Convention : Reuss Voigt Hill
#
# Bulk Modulus (GPa) = 56.63706 65.38988 61.01347
# Shear Modulus (GPa) = 24.52678 28.70862 26.61770
#
# Velocity S-wave (km/s) = 3.41865 3.69863 3.56139
# Velocity P-wave (km/s) = 6.52463 7.02840 6.78120
#
# Compressibility (1/GPa) = 0.01765628
#
# Stress axis : x y z
#
# Youngs Moduli (GPa) = 54.12504 115.49925 126.86818
#
# Poissons Ratio (x) = 0.40969 0.45383
# Poissons Ratio (y) = 0.19199 0.19735
# Poissons Ratio (z) = 0.19361 0.17967
#
# Static dielectric constant tensor:
#      x y z
#    x 3.362560 0.000000 0.000000 
#    y 0.000000 3.998300 0.000000 
#    z 0.000000 0.000000 4.177350 
# 
# 
# High freq. dielectric constant tensor:
#      x y z
#    x 1.784300 0.000000 0.000000 
#    y 0.000000 1.839060 0.000000 
#    z 0.000000 0.000000 1.841750 
# 
# From -- ./inp_files/40319.got.cif
#   From: 2010.03.12/outbox.cif.g09.slc.cpg/sg65_21_cif.got.tgz:40319.got - 2010.04.10 20:52:16.
