data_PCOD8273484
_publ_section_title
;
Structure prediction by ZEFSAII (Michael W. Deem and Ramdas Pophale) SiO2 
 PCOD8273484
Probable space group: C M M M
;
_chemical_formula_sum "Si O2"
_cell_formula_units_Z 104
_cell_length_a 18.758751
_cell_length_b 9.373173
_cell_length_c 29.259878
_cell_angle_alpha 90.000000
_cell_angle_beta 90.000000
_cell_angle_gamma 90.000000
_cell_volume 5144.735627
_symmetry_space_group_name_H-M "C M M M"
_symmetry_group_IT_number 65
_symmetry_cell_setting 'orthorhombic'
loop_
_space_group_symop_operation_xyz
x,y,z
-x,-y,z
x,-y,-z
-x,y,-z
-x,-y,-z
x,y,-z
-x,y,z
x,-y,z
1/2+x,1/2+y,z
1/2-x,1/2-y,z
1/2+x,1/2-y,-z
1/2-x,1/2+y,-z
1/2-x,1/2-y,-z
1/2+x,1/2+y,-z
1/2-x,1/2+y,z
1/2+x,1/2-y,z
loop_
_atom_site_type_symbol
_atom_site_label
_atom_site_fract_x
_atom_site_fract_y
_atom_site_fract_z
Si Si1 0.418083 0.334340 0.220907
Si Si2 0.582418 0.163817 0.617012
Si Si3 0.820233 0.835367 0.553790
Si Si4 0.867708 0.837876 0.949096
Si Si5 0.675227 0.168046 0.706660
Si Si6 0.500000 0.844407 0.053825
Si Si7 0.312147 0.341868 0.145749
O O1 0.500000 0.284105 0.221673
O O2 0.411461 0.500000 0.235919
O O3 0.371260 0.234284 0.252924
O O4 0.388476 0.311148 0.169248
O O5 0.500000 0.201663 0.627512
O O6 0.610376 0.266290 0.576904
O O7 0.629591 0.193555 0.661321
O O8 0.589658 0.000000 0.601003
O O9 0.831474 0.821919 0.500000
O O10 0.750000 0.750000 0.569888
O O11 0.811799 0.000000 0.568922
O O12 0.930778 0.739789 0.931058
O O13 0.810021 0.818789 0.909264
O O14 0.895592 0.000000 0.950837
O O15 0.838951 0.793859 0.000000
O O16 0.750000 0.250000 0.702118
O O17 0.688695 0.000000 0.715600
O O18 0.500000 0.000000 0.077254
O O19 0.500000 0.859495 0.000000
O O20 0.288363 0.500000 0.157567
O O21 0.250000 0.250000 0.168637
#
# Coordination Sequence:
#
# PCOD8273484 Si02
#       7
#    16  16  16  16  16   8  16
#     4  10  22  40  62  87 115 148 186 232 286 341
#     4  10  22  39  59  86 120 157 197 243 295 349
#     4  10  21  37  58  85 118 158 205 254 301 351
#     4   9  18  33  54  78 106 145 187 224 271 331
#     4  11  23  40  63  90 120 152 191 238 288 345
#     4   9  17  29  47  75 107 135 169 219 271 315
#     4  10  22  38  57  81 113 148 186 230 276 332
#
# _framework density 20.214836999999999
#
# number of rings (size 3 to 8) (size 9 to 14) (size 15 to 20)
#    0.000    2.077    0.000    2.538    1.077    8.615 
#    0.000    1.538    0.000    0.000    0.000    0.000 
#    0.000    0.000    0.000    0.000    0.000    0.000 
#
# Total GULP energy -644567.091030 kJ/mol
# GULP energy per Si atom -12395.520981 kJ/mol
# Density = 2.016883 g / cm^3
# Si number density = 20.214837 Si / 1000 Ang^3
#
#
#
# Elastic Constant Matrix: (Units=GPa)
#
#
# Indices 1 2 3 4 5 6 
#
# 1 157.1950 79.6538 52.4917 0.0000 0.0000 0.0000
# 2 79.6538 119.2399 52.3753 0.0000 0.0000 0.0000
# 3 52.4917 52.3753 81.9805 0.0000 0.0000 0.0000
# 4 0.0000 0.0000 0.0000 25.7137 0.0000 0.0000
# 5 0.0000 0.0000 0.0000 0.0000 16.8035 0.0000
# 6 0.0000 0.0000 0.0000 0.0000 0.0000 35.9775
#
#
#
# Elastic Compliance Matrix: (Units=1/GPa)
#
#
# Indices 1 2 3 4 5 6 
#
# 1 0.010123 -0.005442 -0.003004 0.000000 0.000000 0.000000
# 2 -0.005442 0.014584 -0.005833 0.000000 0.000000 0.000000
# 3 -0.003004 -0.005833 0.017848 0.000000 0.000000 0.000000
# 4 0.000000 0.000000 0.000000 0.038890 0.000000 0.000000
# 5 0.000000 0.000000 0.000000 0.000000 0.059511 0.000000
# 6 0.000000 0.000000 0.000000 0.000000 0.000000 0.027795
#
#
# Mechanical properties :
#
#
# Convention : Reuss Voigt Hill
#
# Bulk Modulus (GPa) = 71.45018 80.82856 76.13937
# Shear Modulus (GPa) = 24.75556 27.29191 26.02374
#
# Velocity S-wave (km/s) = 3.50326 3.67835 3.59187
# Velocity P-wave (km/s) = 7.19624 7.62312 7.41275
#
# Compressibility (1/GPa) = 0.01399577
#
# Stress axis : x y z
#
# Youngs Moduli (GPa) = 98.78974 68.56870 56.02849
#
# Poissons Ratio (x) = 0.37317 0.16833
# Poissons Ratio (y) = 0.53764 0.32679
# Poissons Ratio (z) = 0.29681 0.39994
#
# Static dielectric constant tensor:
#      x y z
#    x 3.595450 0.000000 0.000000 
#    y 0.000000 3.905390 0.000000 
#    z 0.000000 0.000000 3.641930 
# 
# 
# High freq. dielectric constant tensor:
#      x y z
#    x 1.786930 0.000000 0.000000 
#    y 0.000000 1.794300 0.000000 
#    z 0.000000 0.000000 1.788400 
# 
# From -- ./inp_files/75470.got.cif
#   From: 2010.03.12/outbox.cif.g09.slc.cpg/sg65_38_cif.got.tgz:75470.got - 2010.04.10 20:52:16.
