data_PCOD8273205
_publ_section_title
;
Structure prediction by ZEFSAII (Michael W. Deem and Ramdas Pophale) SiO2 
 PCOD8273205
Probable space group: C M M M
;
_chemical_formula_sum "Si O2"
_cell_formula_units_Z 96
_cell_length_a 14.572565
_cell_length_b 22.079978
_cell_length_c 14.734804
_cell_angle_alpha 90.000000
_cell_angle_beta 90.000000
_cell_angle_gamma 90.000000
_cell_volume 4741.098746
_symmetry_space_group_name_H-M "C M M M"
_symmetry_group_IT_number 65
_symmetry_cell_setting 'orthorhombic'
loop_
_space_group_symop_operation_xyz
x,y,z
-x,-y,z
x,-y,-z
-x,y,-z
-x,-y,-z
x,y,-z
-x,y,z
x,-y,z
1/2+x,1/2+y,z
1/2-x,1/2-y,z
1/2+x,1/2-y,-z
1/2-x,1/2+y,-z
1/2-x,1/2-y,-z
1/2+x,1/2+y,-z
1/2-x,1/2+y,z
1/2+x,1/2-y,z
loop_
_atom_site_type_symbol
_atom_site_label
_atom_site_fract_x
_atom_site_fract_y
_atom_site_fract_z
Si Si1 0.247926 0.931761 0.147129
Si Si2 0.899403 0.227784 0.239992
Si Si3 0.608189 0.568235 0.500000
Si Si4 0.794812 0.119128 0.325628
Si Si5 0.893357 0.670025 0.104717
Si Si6 0.837038 0.294216 0.401119
Si Si7 0.397078 0.428690 0.000000
O O1 0.221943 0.934763 0.254274
O O2 0.335081 0.888946 0.131158
O O3 0.274003 0.000000 0.116594
O O4 0.160264 0.908186 0.088957
O O5 0.833105 0.172122 0.260038
O O6 0.859286 0.270937 0.160666
O O7 0.910492 0.268521 0.330822
O O8 0.000000 0.203336 0.213421
O O9 0.647949 0.500000 0.500000
O O10 0.500000 0.568102 0.500000
O O11 0.638328 0.601807 0.591945
O O12 0.698587 0.139844 0.369311
O O13 0.000000 0.656168 0.127164
O O14 0.879053 0.685984 0.000000
O O15 0.883568 0.299611 0.500000
O O16 0.750000 0.250000 0.405312
O O17 0.409970 0.500000 0.000000
O O18 0.500000 0.398954 0.000000
#
# Coordination Sequence:
#
# PCOD8273205 Si02
#       7
#    16  16   8  16  16  16   8
#     4  11  22  38  62  88 117 159 204 248 306 362
#     4  10  21  36  57  87 120 152 194 245 301 362
#     4  11  24  40  59  88 123 159 205 256 299 349
#     4  11  21  38  58  84 116 158 198 243 296 359
#     4  10  21  39  62  90 123 155 196 253 309 367
#     4   9  17  31  53  80 109 144 187 236 287 346
#     4   9  20  38  57  80 111 147 198 252 292 347
#
# _framework density 20.248470999999999
#
# number of rings (size 3 to 8) (size 9 to 14) (size 15 to 20)
#    0.000    1.833    3.333    1.000    1.167    2.000 
#    1.500    3.333    0.000    0.000    0.000    0.000 
#    0.000    5.333    0.000    0.000    0.000    0.000 
#
# Total GULP energy -594959.826029 kJ/mol
# GULP energy per Si atom -12394.996376 kJ/mol
# Density = 2.020238 g / cm^3
# Si number density = 20.248471 Si / 1000 Ang^3
#
#
#
# Elastic Constant Matrix: (Units=GPa)
#
#
# Indices 1 2 3 4 5 6 
#
# 1 64.7305 28.6430 23.1742 0.0000 0.0000 0.0000
# 2 28.6430 83.6369 36.5317 0.0000 0.0000 0.0000
# 3 23.1742 36.5317 144.6251 0.0000 0.0000 0.0000
# 4 0.0000 0.0000 0.0000 27.7008 0.0000 0.0000
# 5 0.0000 0.0000 0.0000 0.0000 23.6467 0.0000
# 6 0.0000 0.0000 0.0000 0.0000 0.0000 21.7217
#
#
#
# Elastic Compliance Matrix: (Units=1/GPa)
#
#
# Indices 1 2 3 4 5 6 
#
# 1 0.018506 -0.005668 -0.001534 0.000000 0.000000 0.000000
# 2 -0.005668 0.015175 -0.002925 0.000000 0.000000 0.000000
# 3 -0.001534 -0.002925 0.007899 0.000000 0.000000 0.000000
# 4 0.000000 0.000000 0.000000 0.036100 0.000000 0.000000
# 5 0.000000 0.000000 0.000000 0.000000 0.042289 0.000000
# 6 0.000000 0.000000 0.000000 0.000000 0.000000 0.046037
#
#
# Mechanical properties :
#
#
# Convention : Reuss Voigt Hill
#
# Bulk Modulus (GPa) = 46.88881 52.18780 49.53830
# Shear Modulus (GPa) = 25.85748 28.25674 27.05711
#
# Velocity S-wave (km/s) = 3.57740 3.73969 3.65945
# Velocity P-wave (km/s) = 6.34592 6.66909 6.50951
#
# Compressibility (1/GPa) = 0.02132705
#
# Stress axis : x y z
#
# Youngs Moduli (GPa) = 54.03752 65.89756 126.59813
#
# Poissons Ratio (x) = 0.37349 0.19415
# Poissons Ratio (y) = 0.30627 0.37030
# Poissons Ratio (z) = 0.08287 0.19275
#
# Static dielectric constant tensor:
#      x y z
#    x 3.497250 0.000000 0.000000 
#    y 0.000000 3.554460 0.000000 
#    z 0.000000 0.000000 4.055200 
# 
# 
# High freq. dielectric constant tensor:
#      x y z
#    x 1.773170 0.000000 0.000000 
#    y 0.000000 1.771630 0.000000 
#    z 0.000000 0.000000 1.811760 
# 
# From -- ./inp_files/40420.got.cif
#   From: 2010.03.12/outbox.cif.g09.slc.cpg/sg65_21_cif.got.tgz:40420.got - 2010.04.10 20:52:16.
