data_PCOD8273356
_publ_section_title
;
Structure prediction by ZEFSAII (Michael W. Deem and Ramdas Pophale) SiO2 
 PCOD8273356
Probable space group: C M M M
;
_chemical_formula_sum "Si O2"
_cell_formula_units_Z 96
_cell_length_a 8.794103
_cell_length_b 25.659094
_cell_length_c 23.168659
_cell_angle_alpha 90.000000
_cell_angle_beta 90.000000
_cell_angle_gamma 90.000000
_cell_volume 5227.978144
_symmetry_space_group_name_H-M "C M M M"
_symmetry_group_IT_number 65
_symmetry_cell_setting 'orthorhombic'
loop_
_space_group_symop_operation_xyz
x,y,z
-x,-y,z
x,-y,-z
-x,y,-z
-x,-y,-z
x,y,-z
-x,y,z
x,-y,z
1/2+x,1/2+y,z
1/2-x,1/2-y,z
1/2+x,1/2-y,-z
1/2-x,1/2+y,-z
1/2-x,1/2-y,-z
1/2+x,1/2+y,-z
1/2-x,1/2+y,z
1/2+x,1/2-y,z
loop_
_atom_site_type_symbol
_atom_site_label
_atom_site_fract_x
_atom_site_fract_y
_atom_site_fract_z
Si Si1 0.322736 0.500000 0.137498
Si Si2 0.675358 0.939132 0.565329
Si Si3 0.679432 0.000000 0.260498
Si Si4 0.178887 0.098022 0.324216
Si Si5 0.824330 0.897747 0.933435
Si Si6 0.677547 0.196310 0.130760
Si Si7 0.819800 0.304703 0.262492
O O1 0.500000 0.500000 0.155035
O O2 0.218219 0.500000 0.193402
O O3 0.279289 0.550278 0.100363
O O4 0.717443 0.923275 0.500000
O O5 0.500000 0.926044 0.578368
O O6 0.782571 0.906693 0.608027
O O7 0.705588 0.000000 0.575243
O O8 0.746395 0.051179 0.289368
O O9 0.500000 0.000000 0.269501
O O10 0.246041 0.151921 0.302359
O O11 0.000000 0.096759 0.314304
O O12 0.726467 0.850068 0.910545
O O13 0.000000 0.883878 0.924145
O O14 0.785646 0.907428 0.000000
O O15 0.500000 0.203883 0.126556
O O16 0.750000 0.250000 0.108676
O O17 0.727407 0.183739 0.196338
O O18 0.750000 0.250000 0.282657
O O19 0.000000 0.304069 0.270837
#
# Coordination Sequence:
#
# PCOD8273356 Si02
#       7
#     8  16   8  16  16  16  16
#     4  10  21  38  58  79 107 142 181 222 269 329
#     4   9  18  34  56  81 113 153 191 229 277 327
#     4  12  24  37  54  80 114 148 183 227 281 332
#     4  12  23  35  55  85 117 149 188 231 276 329
#     4  10  21  37  57  80 107 141 179 220 268 325
#     4  10  21  37  58  82 107 138 177 224 277 327
#     4  10  21  38  59  83 112 147 186 229 278 332
#
# _framework density 18.362738
#
# number of rings (size 3 to 8) (size 9 to 14) (size 15 to 20)
#    0.000    1.667    0.833    5.000    0.000    7.333 
#    0.000    0.833    0.000    2.000    0.000    0.000 
#    0.000    0.000    0.000    0.000    0.000    0.000 
#
# Total GULP energy -595426.013610 kJ/mol
# GULP energy per Si atom -12404.708617 kJ/mol
# Density = 1.832094 g / cm^3
# Si number density = 18.362738 Si / 1000 Ang^3
#
#
#
# Elastic Constant Matrix: (Units=GPa)
#
#
# Indices 1 2 3 4 5 6 
#
# 1 96.4175 52.1051 45.3028 0.0000 0.0000 0.0000
# 2 52.1051 125.5141 59.5217 0.0000 0.0000 0.0000
# 3 45.3028 59.5217 108.1969 0.0000 0.0000 0.0000
# 4 0.0000 0.0000 0.0000 1231.5176 0.0000 0.0000
# 5 0.0000 0.0000 0.0000 0.0000 32.0402 0.0000
# 6 0.0000 0.0000 0.0000 0.0000 0.0000 31.6380
#
#
#
# Elastic Compliance Matrix: (Units=1/GPa)
#
#
# Indices 1 2 3 4 5 6 
#
# 1 0.014392 -0.004217 -0.003706 0.000000 0.000000 0.000000
# 2 -0.004217 0.012015 -0.004844 0.000000 0.000000 0.000000
# 3 -0.003706 -0.004844 0.013459 0.000000 0.000000 0.000000
# 4 0.000000 0.000000 0.000000 0.000812 0.000000 0.000000
# 5 0.000000 0.000000 0.000000 0.000000 0.031211 0.000000
# 6 0.000000 0.000000 0.000000 0.000000 0.000000 0.031608
#
#
# Mechanical properties :
#
#
# Convention : Reuss Voigt Hill
#
# Bulk Modulus (GPa) = 69.77614 71.55419 70.66517
# Shear Modulus (GPa) = 37.36706 270.58574 153.97640
#
# Velocity S-wave (km/s) = 4.51592 12.15219 9.16704
# Velocity P-wave (km/s) = 8.07915 15.36075 12.27244
#
# Compressibility (1/GPa) = 0.01433155
#
# Stress axis : x y z
#
# Youngs Moduli (GPa) = 69.48384 83.22907 74.29976
#
# Poissons Ratio (x) = 0.35098 0.27536
# Poissons Ratio (y) = 0.29302 0.35991
# Poissons Ratio (z) = 0.25751 0.40317
#
# Static dielectric constant tensor:
#      x y z
#    x 3.407800 0.000000 0.000000 
#    y 0.000000 3.480920 0.000000 
#    z 0.000000 0.000000 3.498470 
# 
# 
# High freq. dielectric constant tensor:
#      x y z
#    x 1.717500 0.000000 0.000000 
#    y 0.000000 1.710660 0.000000 
#    z 0.000000 0.000000 1.714780 
# 
# From -- ./inp_files/67874.got.cif
#   From: 2010.03.12/outbox.cif.g09.slc.cpg/sg65_34_cif.got.tgz:67874.got - 2010.04.10 20:52:16.
