data_PCOD8273550
_publ_section_title
;
Structure prediction by ZEFSAII (Michael W. Deem and Ramdas Pophale) SiO2 
 PCOD8273550
Probable space group: C M M M
;
_chemical_formula_sum "Si O2"
_cell_formula_units_Z 72
_cell_length_a 7.949967
_cell_length_b 19.039770
_cell_length_c 23.829890
_cell_angle_alpha 90.000000
_cell_angle_beta 90.000000
_cell_angle_gamma 90.000000
_cell_volume 3607.024244
_symmetry_space_group_name_H-M "C M M M"
_symmetry_group_IT_number 65
_symmetry_cell_setting 'orthorhombic'
loop_
_space_group_symop_operation_xyz
x,y,z
-x,-y,z
x,-y,-z
-x,y,-z
-x,-y,-z
x,y,-z
-x,y,z
x,-y,z
1/2+x,1/2+y,z
1/2-x,1/2-y,z
1/2+x,1/2-y,-z
1/2-x,1/2+y,-z
1/2-x,1/2-y,-z
1/2+x,1/2+y,-z
1/2-x,1/2+y,z
1/2+x,1/2-y,z
loop_
_atom_site_type_symbol
_atom_site_label
_atom_site_fract_x
_atom_site_fract_y
_atom_site_fract_z
Si Si1 0.301565 0.671080 0.383328
Si Si2 0.500000 0.918804 0.433709
Si Si3 0.808064 0.577361 0.842723
Si Si4 0.692675 0.324298 0.938827
Si Si5 0.306953 0.673020 0.747571
O O1 0.500000 0.657570 0.398869
O O2 0.250000 0.750000 0.401070
O O3 0.270738 0.659902 0.317583
O O4 0.173588 0.617585 0.413255
O O5 0.500000 0.913917 0.500000
O O6 0.500000 0.000000 0.413487
O O7 0.727921 0.500000 0.835929
O O8 0.719574 0.615022 0.894201
O O9 0.794159 0.616668 0.783434
O O10 0.000000 0.571761 0.859523
O O11 0.500000 0.318790 0.951096
O O12 0.750000 0.250000 0.912766
O O13 0.781303 0.338563 0.000000
O O14 0.500000 0.663735 0.762851
O O15 0.250000 0.750000 0.765715
#
# Coordination Sequence:
#
# PCOD8273550 Si02
#       5
#    16   8  16  16  16
#     4  10  21  41  68  98 128 167 220 270 320 378
#     4  11  26  44  64  96 137 177 214 264 327 382
#     4  11  24  38  54  81 116 154 193 235 291 355
#     4  10  21  38  60  82 107 143 188 240 294 349
#     4  10  21  37  62  89 118 153 194 247 298 352
#
# _framework density 19.961053
#
# number of rings (size 3 to 8) (size 9 to 14) (size 15 to 20)
#    0.000    1.667    1.111    2.667    3.111    5.778 
#    0.000    5.556    0.000    0.000    0.000    0.000 
#    0.000    0.000    0.000    0.000    0.000    0.000 
#
# Total GULP energy -446272.274139 kJ/mol
# GULP energy per Si atom -12396.452059 kJ/mol
# Density = 1.991562 g / cm^3
# Si number density = 19.961053 Si / 1000 Ang^3
#
#
#
# Elastic Constant Matrix: (Units=GPa)
#
#
# Indices 1 2 3 4 5 6 
#
# 1 103.8594 54.1032 36.1875 0.0000 0.0000 0.0000
# 2 54.1032 167.5925 68.7351 0.0000 0.0000 0.0000
# 3 36.1875 68.7351 85.6043 0.0000 0.0000 0.0000
# 4 0.0000 0.0000 0.0000 14.1387 0.0000 0.0000
# 5 0.0000 0.0000 0.0000 0.0000 13.1003 0.0000
# 6 0.0000 0.0000 0.0000 0.0000 0.0000 29.7501
#
#
#
# Elastic Compliance Matrix: (Units=1/GPa)
#
#
# Indices 1 2 3 4 5 6 
#
# 1 0.012051 -0.002685 -0.002938 0.000000 0.000000 0.000000
# 2 -0.002685 0.009495 -0.006489 0.000000 0.000000 0.000000
# 3 -0.002938 -0.006489 0.018134 0.000000 0.000000 0.000000
# 4 0.000000 0.000000 0.000000 0.070728 0.000000 0.000000
# 5 0.000000 0.000000 0.000000 0.000000 0.076334 0.000000
# 6 0.000000 0.000000 0.000000 0.000000 0.000000 0.033613
#
#
# Mechanical properties :
#
#
# Convention : Reuss Voigt Hill
#
# Bulk Modulus (GPa) = 64.70269 75.01197 69.85733
# Shear Modulus (GPa) = 20.02152 24.59985 22.31069
#
# Velocity S-wave (km/s) = 3.17050 3.51435 3.34685
# Velocity P-wave (km/s) = 6.77404 7.35720 7.07163
#
# Compressibility (1/GPa) = 0.01545531
#
# Stress axis : x y z
#
# Youngs Moduli (GPa) = 82.98058 105.31876 55.14583
#
# Poissons Ratio (x) = 0.28282 0.16203
# Poissons Ratio (y) = 0.22283 0.35783
# Poissons Ratio (z) = 0.24381 0.68338
#
# Static dielectric constant tensor:
#      x y z
#    x 3.745020 0.000000 0.000000 
#    y 0.000000 3.613210 0.000000 
#    z 0.000000 0.000000 3.558690 
# 
# 
# High freq. dielectric constant tensor:
#      x y z
#    x 1.790940 0.000000 0.000000 
#    y 0.000000 1.775860 0.000000 
#    z 0.000000 0.000000 1.781870 
# 
# From -- ./inp_files/67059.got.cif
#   From: 2010.03.12/outbox.cif.g09.slc.cpg/sg65_34_cif.got.tgz:67059.got - 2010.04.10 20:52:16.
