data_PCOD8273517
_publ_section_title
;
Structure prediction by ZEFSAII (Michael W. Deem and Ramdas Pophale) SiO2 
 PCOD8273517
Probable space group: C M M M
;
_chemical_formula_sum "Si O2"
_cell_formula_units_Z 88
_cell_length_a 22.671637
_cell_length_b 24.767491
_cell_length_c 7.843542
_cell_angle_alpha 90.000000
_cell_angle_beta 90.000000
_cell_angle_gamma 90.000000
_cell_volume 4404.302295
_symmetry_space_group_name_H-M "C M M M"
_symmetry_group_IT_number 65
_symmetry_cell_setting 'orthorhombic'
loop_
_space_group_symop_operation_xyz
x,y,z
-x,-y,z
x,-y,-z
-x,y,-z
-x,-y,-z
x,y,-z
-x,y,z
x,-y,z
1/2+x,1/2+y,z
1/2-x,1/2-y,z
1/2+x,1/2-y,-z
1/2-x,1/2+y,-z
1/2-x,1/2-y,-z
1/2+x,1/2+y,-z
1/2-x,1/2+y,z
1/2+x,1/2-y,z
loop_
_atom_site_type_symbol
_atom_site_label
_atom_site_fract_x
_atom_site_fract_y
_atom_site_fract_z
Si Si1 0.329112 0.062288 0.500000
Si Si2 0.777329 0.383730 0.186251
Si Si3 0.877063 0.701956 0.187948
Si Si4 0.668143 0.313649 0.297865
Si Si5 0.935285 0.113736 0.303656
Si Si6 0.930060 0.000000 0.190936
Si Si7 0.067094 0.650577 0.500000
O O1 0.287117 0.072422 0.664616
O O2 0.387433 0.100187 0.500000
O O3 0.349774 0.000000 0.500000
O O4 0.836453 0.349797 0.178613
O O5 0.724073 0.343045 0.220060
O O6 0.767700 0.411664 0.000000
O O7 0.835418 0.752136 0.238255
O O8 0.925158 0.689411 0.334368
O O9 0.906269 0.711217 0.000000
O O10 0.672926 0.317276 0.500000
O O11 0.609355 0.342916 0.225023
O O12 0.943323 0.126357 0.500000
O O13 0.906942 0.054067 0.282037
O O14 0.000000 0.118218 0.213721
O O15 0.000000 0.000000 0.201538
O O16 0.905913 0.000000 0.000000
O O17 0.000000 0.628314 0.500000
#
# Coordination Sequence:
#
# PCOD8273517 Si02
#       7
#     8  16  16  16  16   8   8
#     4  10  22  42  65  89 120 155 196 249 305 361
#     4  10  21  38  60  86 117 153 194 239 293 355
#     4  10  21  37  59  86 119 157 191 233 290 351
#     4  11  20  33  55  86 115 151 196 240 286 347
#     4   9  19  34  50  69  98 138 181 226 275 326
#     4   9  17  31  49  65  87 127 177 223 265 310
#     4  10  22  40  63  91 123 157 196 243 297 363
#
# _framework density 19.980464000000001
#
# number of rings (size 3 to 8) (size 9 to 14) (size 15 to 20)
#    0.000    2.091    1.818    1.364    0.000    6.364 
#    1.636    0.000    0.000    0.000    0.000    5.091 
#    0.000    0.000    0.000    0.000    0.000    0.000 
#
# Total GULP energy -545292.034747 kJ/mol
# GULP energy per Si atom -12393.000790 kJ/mol
# Density = 1.993499 g / cm^3
# Si number density = 19.980464 Si / 1000 Ang^3
#
#
#
# Elastic Constant Matrix: (Units=GPa)
#
#
# Indices 1 2 3 4 5 6 
#
# 1 53.2023 17.0931 38.9420 0.0000 0.0000 0.0000
# 2 17.0931 64.4657 34.1926 0.0000 0.0000 0.0000
# 3 38.9420 34.1926 138.0717 0.0000 0.0000 0.0000
# 4 0.0000 0.0000 0.0000 7.9249 0.0000 0.0000
# 5 0.0000 0.0000 0.0000 0.0000 13.6674 0.0000
# 6 0.0000 0.0000 0.0000 0.0000 0.0000 16.2496
#
#
#
# Elastic Compliance Matrix: (Units=1/GPa)
#
#
# Indices 1 2 3 4 5 6 
#
# 1 0.024255 -0.003227 -0.006042 0.000000 0.000000 0.000000
# 2 -0.003227 0.018287 -0.003619 0.000000 0.000000 0.000000
# 3 -0.006042 -0.003619 0.009843 0.000000 0.000000 0.000000
# 4 0.000000 0.000000 0.000000 0.126185 0.000000 0.000000
# 5 0.000000 0.000000 0.000000 0.000000 0.073167 0.000000
# 6 0.000000 0.000000 0.000000 0.000000 0.000000 0.061540
#
#
# Mechanical properties :
#
#
# Convention : Reuss Voigt Hill
#
# Bulk Modulus (GPa) = 37.57890 48.46614 43.02252
# Shear Modulus (GPa) = 14.37108 18.60253 16.48680
#
# Velocity S-wave (km/s) = 2.68481 3.05460 2.87565
# Velocity P-wave (km/s) = 5.33475 6.06219 5.71007
#
# Compressibility (1/GPa) = 0.02661068
#
# Stress axis : x y z
#
# Youngs Moduli (GPa) = 41.22810 54.68368 101.59690
#
# Poissons Ratio (x) = 0.17645 0.61384
# Poissons Ratio (y) = 0.13303 0.36764
# Poissons Ratio (z) = 0.24910 0.19788
#
# Static dielectric constant tensor:
#      x y z
#    x 3.577920 0.000000 0.000000 
#    y 0.000000 3.558470 0.000000 
#    z 0.000000 0.000000 4.183660 
# 
# 
# High freq. dielectric constant tensor:
#      x y z
#    x 1.756740 0.000000 0.000000 
#    y 0.000000 1.764230 0.000000 
#    z 0.000000 0.000000 1.792540 
# 
# From -- ./inp_files/11887.got.cif
#   From: 2010.03.12/outbox.cif.g09.slc.cpg/sg65_6_cif.got.tgz:11887.got - 2010.04.10 20:52:16.
