data_PCOD8273354
_publ_section_title
;
Structure prediction by ZEFSAII (Michael W. Deem and Ramdas Pophale) SiO2 
 PCOD8273354
Probable space group: C M M M
;
_chemical_formula_sum "Si O2"
_cell_formula_units_Z 88
_cell_length_a 18.878680
_cell_length_b 8.969698
_cell_length_c 28.162715
_cell_angle_alpha 90.000000
_cell_angle_beta 90.000000
_cell_angle_gamma 90.000000
_cell_volume 4768.963147
_symmetry_space_group_name_H-M "C M M M"
_symmetry_group_IT_number 65
_symmetry_cell_setting 'orthorhombic'
loop_
_space_group_symop_operation_xyz
x,y,z
-x,-y,z
x,-y,-z
-x,y,-z
-x,-y,-z
x,y,-z
-x,y,z
x,-y,z
1/2+x,1/2+y,z
1/2-x,1/2-y,z
1/2+x,1/2-y,-z
1/2-x,1/2+y,-z
1/2-x,1/2-y,-z
1/2+x,1/2+y,-z
1/2-x,1/2+y,z
1/2+x,1/2-y,z
loop_
_atom_site_type_symbol
_atom_site_label
_atom_site_fract_x
_atom_site_fract_y
_atom_site_fract_z
Si Si1 0.177014 0.324593 0.947058
Si Si2 0.419103 0.175045 0.405569
Si Si3 0.584175 0.667724 0.500000
Si Si4 0.417929 0.170176 0.861163
Si Si5 0.826645 0.323236 0.684214
Si Si6 0.582316 0.674297 0.764917
O O1 0.187664 0.500000 0.945426
O O2 0.250000 0.250000 0.932251
O O3 0.119598 0.271543 0.908790
O O4 0.153092 0.273809 0.000000
O O5 0.500000 0.226173 0.395246
O O6 0.387609 0.251507 0.452763
O O7 0.370423 0.226491 0.362100
O O8 0.415889 0.000000 0.413840
O O9 0.613164 0.500000 0.500000
O O10 0.500000 0.674644 0.500000
O O11 0.500000 0.183722 0.872193
O O12 0.395703 0.275534 0.817649
O O13 0.396779 0.000000 0.848705
O O14 0.818520 0.500000 0.687438
O O15 0.750000 0.250000 0.682130
O O16 0.869466 0.266813 0.729404
O O17 0.500000 0.712384 0.755112
O O18 0.597738 0.500000 0.758982
#
# Coordination Sequence:
#
# PCOD8273354 Si02
#       6
#    16  16   8  16  16  16
#     4   9  18  32  50  73 101 134 171 210 254 305
#     4   9  18  34  56  79 104 137 175 214 258 310
#     4   9  17  29  50  81 110 135 169 215 260 303
#     4   9  18  33  53  76 102 133 170 213 259 307
#     4  11  23  38  56  79 108 141 178 219 265 316
#     4  10  21  37  57  80 106 137 174 217 264 315
#
# _framework density 18.452648
#
# number of rings (size 3 to 8) (size 9 to 14) (size 15 to 20)
#    0.000    2.455    0.000    1.909    0.000    6.182 
#    0.000    5.909    0.000    0.000    0.000    5.091 
#    0.000    0.000    0.000    0.000    0.000    0.000 
#
# Total GULP energy -545643.163934 kJ/mol
# GULP energy per Si atom -12400.980999 kJ/mol
# Density = 1.841065 g / cm^3
# Si number density = 18.452648 Si / 1000 Ang^3
#
#
#
# Elastic Constant Matrix: (Units=GPa)
#
#
# Indices 1 2 3 4 5 6 
#
# 1 91.1760 42.3908 82.3186 0.0000 0.0000 0.0000
# 2 42.3908 56.9017 51.3260 0.0000 0.0000 0.0000
# 3 82.3186 51.3260 154.9854 0.0000 0.0000 0.0000
# 4 0.0000 0.0000 0.0000 25.4152 0.0000 0.0000
# 5 0.0000 0.0000 0.0000 0.0000 1.4231 0.0000
# 6 0.0000 0.0000 0.0000 0.0000 0.0000 26.2932
#
#
#
# Elastic Compliance Matrix: (Units=1/GPa)
#
#
# Indices 1 2 3 4 5 6 
#
# 1 0.023971 -0.009089 -0.009722 0.000000 0.000000 0.000000
# 2 -0.009089 0.028506 -0.004613 0.000000 0.000000 0.000000
# 3 -0.009722 -0.004613 0.013144 0.000000 0.000000 0.000000
# 4 0.000000 0.000000 0.000000 0.039347 0.000000 0.000000
# 5 0.000000 0.000000 0.000000 0.000000 0.702702 0.000000
# 6 0.000000 0.000000 0.000000 0.000000 0.000000 0.038033
#
#
# Mechanical properties :
#
#
# Convention : Reuss Voigt Hill
#
# Bulk Modulus (GPa) = 53.26685 72.79266 63.02976
# Shear Modulus (GPa) = 5.56293 19.09480 12.32887
#
# Velocity S-wave (km/s) = 1.73817 3.22032 2.58764
# Velocity P-wave (km/s) = 5.74089 7.30488 6.56959
#
# Compressibility (1/GPa) = 0.01877340
#
# Stress axis : x y z
#
# Youngs Moduli (GPa) = 41.71713 35.08041 76.08258
#
# Poissons Ratio (x) = 0.31883 0.73968
# Poissons Ratio (y) = 0.37915 0.35096
# Poissons Ratio (z) = 0.40558 0.16182
#
# Static dielectric constant tensor:
#      x y z
#    x 3.260760 0.000000 0.000000 
#    y 0.000000 3.393770 0.000000 
#    z 0.000000 0.000000 3.630480 
# 
# 
# High freq. dielectric constant tensor:
#      x y z
#    x 1.699750 0.000000 0.000000 
#    y 0.000000 1.715870 0.000000 
#    z 0.000000 0.000000 1.729770 
# 
# From -- ./inp_files/67533.got.cif
#   From: 2010.03.12/outbox.cif.g09.slc.cpg/sg65_34_cif.got.tgz:67533.got - 2010.04.10 20:52:16.
