data_PCOD8273599
_publ_section_title
;
Structure prediction by ZEFSAII (Michael W. Deem and Ramdas Pophale) SiO2 
 PCOD8273599
Probable space group: C M M M
;
_chemical_formula_sum "Si O2"
_cell_formula_units_Z 88
_cell_length_a 8.700992
_cell_length_b 18.514192
_cell_length_c 29.124908
_cell_angle_alpha 90.000000
_cell_angle_beta 90.000000
_cell_angle_gamma 90.000000
_cell_volume 4691.784917
_symmetry_space_group_name_H-M "C M M M"
_symmetry_group_IT_number 65
_symmetry_cell_setting 'orthorhombic'
loop_
_space_group_symop_operation_xyz
x,y,z
-x,-y,z
x,-y,-z
-x,y,-z
-x,-y,-z
x,y,-z
-x,y,z
x,-y,z
1/2+x,1/2+y,z
1/2-x,1/2-y,z
1/2+x,1/2-y,-z
1/2-x,1/2+y,-z
1/2-x,1/2-y,-z
1/2+x,1/2+y,-z
1/2-x,1/2+y,z
1/2+x,1/2-y,z
loop_
_atom_site_type_symbol
_atom_site_label
_atom_site_fract_x
_atom_site_fract_y
_atom_site_fract_z
Si Si1 0.676028 0.585048 0.820311
Si Si2 0.679468 0.084286 0.916480
Si Si3 0.180871 0.670639 0.738062
Si Si4 0.681815 0.670267 0.646623
Si Si5 0.319413 0.671231 0.451428
Si Si6 0.181547 0.170747 0.000000
O O1 0.500000 0.611146 0.818982
O O2 0.689534 0.500000 0.813721
O O3 0.750555 0.609297 0.868168
O O4 0.771570 0.621385 0.780178
O O5 0.500000 0.102502 0.917177
O O6 0.764232 0.128703 0.955303
O O7 0.710076 0.000000 0.925391
O O8 0.250000 0.750000 0.744352
O O9 0.242114 0.632090 0.690953
O O10 0.000000 0.677109 0.735715
O O11 0.500000 0.672436 0.654159
O O12 0.750000 0.750000 0.645113
O O13 0.725858 0.632039 0.597143
O O14 0.271009 0.631224 0.500000
O O15 0.500000 0.681529 0.450692
O O16 0.250000 0.750000 0.451984
O O17 0.250000 0.250000 0.000000
O O18 0.000000 0.175895 0.000000
#
# Coordination Sequence:
#
# PCOD8273599 Si02
#       6
#    16  16  16  16  16   8
#     4  10  21  38  59  82 107 135 171 214 258 305
#     4  10  21  39  62  86 112 142 176 213 256 306
#     4  11  21  33  50  72 101 135 172 211 255 307
#     4   9  15  24  38  57  85 120 159 201 247 299
#     4   8  13  20  31  49  75 110 151 194 240 291
#     4  12  25  40  59  85 117 149 183 220 259 300
#
# _framework density 18.756188999999999
#
# number of rings (size 3 to 8) (size 9 to 14) (size 15 to 20)
#    0.000    2.182    0.000    5.455    0.000    4.727 
#    0.000    3.636    0.000    0.000    0.000    0.000 
#    0.000    0.727    0.000    8.364    0.000    5.455 
#
# Total GULP energy -545089.178278 kJ/mol
# GULP energy per Si atom -12388.390415 kJ/mol
# Density = 1.871350 g / cm^3
# Si number density = 18.756189 Si / 1000 Ang^3
#
#
#
# Elastic Constant Matrix: (Units=GPa)
#
#
# Indices 1 2 3 4 5 6 
#
# 1 130.0130 29.9738 75.1785 0.0000 0.0000 0.0000
# 2 29.9738 28.5419 47.5175 0.0000 0.0000 0.0000
# 3 75.1785 47.5175 216.9499 0.0000 0.0000 0.0000
# 4 0.0000 0.0000 0.0000 208.6982 0.0000 0.0000
# 5 0.0000 0.0000 0.0000 0.0000 29.0688 0.0000
# 6 0.0000 0.0000 0.0000 0.0000 0.0000 21.3529
#
#
#
# Elastic Compliance Matrix: (Units=1/GPa)
#
#
# Indices 1 2 3 4 5 6 
#
# 1 0.010650 -0.007933 -0.001953 0.000000 0.000000 0.000000
# 2 -0.007933 0.061053 -0.010623 0.000000 0.000000 0.000000
# 3 -0.001953 -0.010623 0.007613 0.000000 0.000000 0.000000
# 4 0.000000 0.000000 0.000000 0.004792 0.000000 0.000000
# 5 0.000000 0.000000 0.000000 0.000000 0.034401 0.000000
# 6 0.000000 0.000000 0.000000 0.000000 0.000000 0.046832
#
#
# Mechanical properties :
#
#
# Convention : Reuss Voigt Hill
#
# Bulk Modulus (GPa) = 26.11128 75.64938 50.88033
# Shear Modulus (GPa) = 22.81821 66.67966 44.74893
#
# Velocity S-wave (km/s) = 3.49172 5.96891 4.88979
# Velocity P-wave (km/s) = 5.49616 9.37681 7.68545
#
# Compressibility (1/GPa) = 0.03829762
#
# Stress axis : x y z
#
# Youngs Moduli (GPa) = 93.90019 16.37931 131.35700
#
# Poissons Ratio (x) = 0.12993 0.25653
# Poissons Ratio (y) = 0.74487 1.39543
# Poissons Ratio (z) = 0.18338 0.17400
#
# Static dielectric constant tensor:
#      x y z
#    x 3.511740 0.000000 0.000000 
#    y 0.000000 2.931770 0.000000 
#    z 0.000000 0.000000 4.802120 
# 
# 
# High freq. dielectric constant tensor:
#      x y z
#    x 1.744570 0.000000 0.000000 
#    y 0.000000 1.663340 0.000000 
#    z 0.000000 0.000000 1.768670 
# 
# From -- ./inp_files/76503.got.cif
#   From: 2010.03.12/outbox.cif.g09.slc.cpg/sg65_39_cif.got.tgz:76503.got - 2010.04.10 20:52:16.
