data_PCOD8273260
_publ_section_title
;
Structure prediction by ZEFSAII (Michael W. Deem and Ramdas Pophale) SiO2 
 PCOD8273260
Probable space group: C M M M
;
_chemical_formula_sum "Si O2"
_cell_formula_units_Z 104
_cell_length_a 8.796187
_cell_length_b 23.518164
_cell_length_c 28.805091
_cell_angle_alpha 90.000000
_cell_angle_beta 90.000000
_cell_angle_gamma 90.000000
_cell_volume 5958.914027
_symmetry_space_group_name_H-M "C M M M"
_symmetry_group_IT_number 65
_symmetry_cell_setting 'orthorhombic'
loop_
_space_group_symop_operation_xyz
x,y,z
-x,-y,z
x,-y,-z
-x,y,-z
-x,-y,-z
x,y,-z
-x,y,z
x,-y,z
1/2+x,1/2+y,z
1/2-x,1/2-y,z
1/2+x,1/2-y,-z
1/2-x,1/2+y,-z
1/2-x,1/2-y,-z
1/2+x,1/2+y,-z
1/2-x,1/2+y,z
1/2+x,1/2-y,z
loop_
_atom_site_type_symbol
_atom_site_label
_atom_site_fract_x
_atom_site_fract_y
_atom_site_fract_z
Si Si1 0.820697 0.811755 0.698435
Si Si2 0.178501 0.188690 0.598106
Si Si3 0.679436 0.687975 0.500000
Si Si4 0.674110 0.885640 0.053318
Si Si5 0.678067 0.000000 0.813157
Si Si6 0.322189 0.388091 0.217283
Si Si7 0.822390 0.810238 0.870963
Si Si8 0.680056 0.500000 0.086240
O O1 0.750000 0.750000 0.705797
O O2 0.774527 0.839251 0.647709
O O3 0.761081 0.853753 0.738131
O O4 0.000000 0.804236 0.703334
O O5 0.250000 0.250000 0.597091
O O6 0.227471 0.156744 0.549211
O O7 0.000000 0.196753 0.598310
O O8 0.500000 0.695281 0.500000
O O9 0.750000 0.750000 0.500000
O O10 0.500000 0.893838 0.068879
O O11 0.748788 0.835367 0.082692
O O12 0.760144 0.944753 0.060106
O O13 0.686416 0.867019 0.000000
O O14 0.724210 0.054828 0.783505
O O15 0.500000 0.000000 0.823735
O O16 0.770229 0.000000 0.860721
O O17 0.500000 0.402984 0.221432
O O18 0.288185 0.352400 0.171222
O O19 0.750000 0.750000 0.858577
O O20 0.000000 0.802188 0.879475
O O21 0.500000 0.500000 0.084487
#
# Coordination Sequence:
#
# PCOD8273260 Si02
#       8
#    16  16   8  16   8  16  16   8
#     4   9  17  29  46  69  99 134 169 204 245 292
#     4   8  13  21  34  55  85 123 164 202 240 283
#     4   8  12  18  30  50  80 119 162 203 239 278
#     4  11  24  41  61  85 111 138 171 210 249 293
#     4  12  24  37  59  82 102 130 163 204 250 296
#     4  10  21  37  55  76 102 132 165 205 251 300
#     4  11  23  38  58  80 106 139 173 208 248 297
#     4  12  23  39  62  87 112 136 165 203 251 302
#
# _framework density 17.452845
#
# number of rings (size 3 to 8) (size 9 to 14) (size 15 to 20)
#    0.000    2.000    1.538    3.000    0.000    3.692 
#    0.000    0.000    0.000    0.000    0.000    0.000 
#    0.000    0.615    0.000    7.846    0.000    1.231 
#
# Total GULP energy -644322.005613 kJ/mol
# GULP energy per Si atom -12390.807800 kJ/mol
# Density = 1.741312 g / cm^3
# Si number density = 17.452845 Si / 1000 Ang^3
#
#
#
# Elastic Constant Matrix: (Units=GPa)
#
#
# Indices 1 2 3 4 5 6 
#
# 1 77.1211 39.2235 40.1302 0.0000 0.0000 0.0000
# 2 39.2235 82.8653 39.6623 0.0000 0.0000 0.0000
# 3 40.1302 39.6623 142.5490 0.0000 0.0000 0.0000
# 4 0.0000 0.0000 0.0000 -12.6236 0.0000 0.0000
# 5 0.0000 0.0000 0.0000 0.0000 16.3438 0.0000
# 6 0.0000 0.0000 0.0000 0.0000 0.0000 26.3569
#
#
#
# Elastic Compliance Matrix: (Units=1/GPa)
#
#
# Indices 1 2 3 4 5 6 
#
# 1 0.018227 -0.007120 -0.003150 0.000000 0.000000 0.000000
# 2 -0.007120 0.016703 -0.002643 0.000000 0.000000 0.000000
# 3 -0.003150 -0.002643 0.008637 0.000000 0.000000 0.000000
# 4 0.000000 0.000000 0.000000 -0.079217 0.000000 0.000000
# 5 0.000000 0.000000 0.000000 0.000000 0.061185 0.000000
# 6 0.000000 0.000000 0.000000 0.000000 0.000000 0.037941
#
#
# Mechanical properties :
#
#
# Convention : Reuss Voigt Hill
#
# Bulk Modulus (GPa) = 56.36596 60.06302 58.21449
# Shear Modulus (GPa) = 52.51232 18.25007 35.38120
#
# Velocity S-wave (km/s) = 5.49121 3.23720 4.50738
# Velocity P-wave (km/s) = 8.51885 6.96145 7.77922
#
# Compressibility (1/GPa) = 0.01774120
#
# Stress axis : x y z
#
# Youngs Moduli (GPa) = 54.86394 59.86997 115.77606
#
# Poissons Ratio (x) = 0.42626 0.36472
# Poissons Ratio (y) = 0.39062 0.30600
# Poissons Ratio (z) = 0.17284 0.15824
#
# Static dielectric constant tensor:
#      x y z
#    x 3.171930 0.000000 0.000000 
#    y 0.000000 2.988450 0.000000 
#    z 0.000000 0.000000 4.052430 
# 
# 
# High freq. dielectric constant tensor:
#      x y z
#    x 1.679900 0.000000 0.000000 
#    y 0.000000 1.631310 0.000000 
#    z 0.000000 0.000000 1.697680 
# 
# From -- ./inp_files/76966.got.cif
#   From: 2010.03.12/outbox.cif.g09.slc.cpg/sg65_39_cif.got.tgz:76966.got - 2010.04.10 20:52:16.
