data_PCOD8273219
_publ_section_title
;
Structure prediction by ZEFSAII (Michael W. Deem and Ramdas Pophale) SiO2 
 PCOD8273219
Probable space group: C M M M
;
_chemical_formula_sum "Si O2"
_cell_formula_units_Z 88
_cell_length_a 24.375754
_cell_length_b 20.201223
_cell_length_c 9.286385
_cell_angle_alpha 90.000000
_cell_angle_beta 90.000000
_cell_angle_gamma 90.000000
_cell_volume 4572.802095
_symmetry_space_group_name_H-M "C M M M"
_symmetry_group_IT_number 65
_symmetry_cell_setting 'orthorhombic'
loop_
_space_group_symop_operation_xyz
x,y,z
-x,-y,z
x,-y,-z
-x,y,-z
-x,-y,-z
x,y,-z
-x,y,z
x,-y,z
1/2+x,1/2+y,z
1/2-x,1/2-y,z
1/2+x,1/2-y,-z
1/2-x,1/2+y,-z
1/2-x,1/2-y,-z
1/2+x,1/2+y,-z
1/2-x,1/2+y,z
1/2+x,1/2-y,z
loop_
_atom_site_type_symbol
_atom_site_label
_atom_site_fract_x
_atom_site_fract_y
_atom_site_fract_z
Si Si1 0.062042 0.500000 0.668426
Si Si2 0.212003 0.076449 0.168710
Si Si3 0.500000 0.790805 0.829720
Si Si4 0.098035 0.357462 0.333378
Si Si5 0.500000 0.659832 0.335505
Si Si6 0.279067 0.818558 0.333570
Si Si7 0.393490 0.575728 0.662668
O O1 0.053410 0.500000 0.500000
O O2 0.097603 0.564794 0.712677
O O3 0.000000 0.500000 0.737884
O O4 0.258607 0.120452 0.239645
O O5 0.153707 0.100116 0.230278
O O6 0.223203 0.000000 0.208976
O O7 0.212121 0.088461 0.000000
O O8 0.445626 0.823120 0.767541
O O9 0.500000 0.715288 0.783971
O O10 0.500000 0.797956 0.000000
O O11 0.080329 0.350239 0.500000
O O12 0.155534 0.319527 0.308661
O O13 0.500000 0.687288 0.500000
O O14 0.552822 0.616539 0.304570
O O15 0.264731 0.831570 0.500000
O O16 0.250000 0.750000 0.283109
O O17 0.372403 0.586994 0.500000
O O18 0.408858 0.500000 0.690695
#
# Coordination Sequence:
#
# PCOD8273219 Si02
#       7
#     8  16   8  16   8  16  16
#     4   9  16  32  62  92 114 144 190 241 300 359
#     4  10  22  39  58  84 122 163 197 235 292 358
#     4  12  26  40  56  85 123 159 194 229 284 359
#     4  10  21  40  64  87 117 153 194 245 298 352
#     4  10  21  36  59  85 114 151 193 245 298 344
#     4  10  23  40  62  91 119 153 205 257 298 349
#     4   9  18  35  60  87 113 145 193 248 296 343
#
# _framework density 19.244218
#
# number of rings (size 3 to 8) (size 9 to 14) (size 15 to 20)
#    0.000    2.091    0.909    1.636    3.818    4.000 
#    0.000    0.909    0.000    2.727    0.000    0.000 
#    0.000    0.000    0.000    0.000    0.000    0.000 
#
# Total GULP energy -545554.235883 kJ/mol
# GULP energy per Si atom -12398.959906 kJ/mol
# Density = 1.920042 g / cm^3
# Si number density = 19.244218 Si / 1000 Ang^3
#
#
#
# Elastic Constant Matrix: (Units=GPa)
#
#
# Indices 1 2 3 4 5 6 
#
# 1 120.5746 64.1093 63.4095 0.0000 0.0000 0.0000
# 2 64.1093 98.3350 53.3077 0.0000 0.0000 0.0000
# 3 63.4095 53.3077 99.8809 0.0000 0.0000 0.0000
# 4 0.0000 0.0000 0.0000 26.3063 0.0000 0.0000
# 5 0.0000 0.0000 0.0000 0.0000 51.7017 0.0000
# 6 0.0000 0.0000 0.0000 0.0000 0.0000 36.8014
#
#
#
# Elastic Compliance Matrix: (Units=1/GPa)
#
#
# Indices 1 2 3 4 5 6 
#
# 1 0.014879 -0.006444 -0.006006 0.000000 0.000000 0.000000
# 2 -0.006444 0.017100 -0.005036 0.000000 0.000000 0.000000
# 3 -0.006006 -0.005036 0.016513 0.000000 0.000000 0.000000
# 4 0.000000 0.000000 0.000000 0.038014 0.000000 0.000000
# 5 0.000000 0.000000 0.000000 0.000000 0.019342 0.000000
# 6 0.000000 0.000000 0.000000 0.000000 0.000000 0.027173
#
#
# Mechanical properties :
#
#
# Convention : Reuss Voigt Hill
#
# Bulk Modulus (GPa) = 73.96773 75.60485 74.78629
# Shear Modulus (GPa) = 28.98571 32.15949 30.57260
#
# Velocity S-wave (km/s) = 3.88519 4.09237 3.99013
# Velocity P-wave (km/s) = 7.65807 7.85509 7.75721
#
# Compressibility (1/GPa) = 0.01351941
#
# Stress axis : x y z
#
# Youngs Moduli (GPa) = 67.21047 58.47842 60.55920
#
# Poissons Ratio (x) = 0.37683 0.36375
# Poissons Ratio (y) = 0.43310 0.30496
# Poissons Ratio (z) = 0.40370 0.29448
#
# Static dielectric constant tensor:
#      x y z
#    x 3.609070 0.000000 0.000000 
#    y 0.000000 3.718330 0.000000 
#    z 0.000000 0.000000 3.371430 
# 
# 
# High freq. dielectric constant tensor:
#      x y z
#    x 1.755100 0.000000 0.000000 
#    y 0.000000 1.756630 0.000000 
#    z 0.000000 0.000000 1.728470 
# 
# From -- ./inp_files/14039.got.cif
#   From: 2010.03.12/outbox.cif.g09.slc.cpg/sg65_8_cif.got.tgz:14039.got - 2010.04.10 20:52:16.
