data_PCOD8273046
_publ_section_title
;
Structure prediction by ZEFSAII (Michael W. Deem and Ramdas Pophale) SiO2 
 PCOD8273046
Probable space group: C M M M
;
_chemical_formula_sum "Si O2"
_cell_formula_units_Z 88
_cell_length_a 8.686122
_cell_length_b 19.461034
_cell_length_c 27.374805
_cell_angle_alpha 90.000000
_cell_angle_beta 90.000000
_cell_angle_gamma 90.000000
_cell_volume 4627.462101
_symmetry_space_group_name_H-M "C M M M"
_symmetry_group_IT_number 65
_symmetry_cell_setting 'orthorhombic'
loop_
_space_group_symop_operation_xyz
x,y,z
-x,-y,z
x,-y,-z
-x,y,-z
-x,-y,-z
x,y,-z
-x,y,z
x,-y,z
1/2+x,1/2+y,z
1/2-x,1/2-y,z
1/2+x,1/2-y,-z
1/2-x,1/2+y,-z
1/2-x,1/2-y,-z
1/2+x,1/2+y,-z
1/2-x,1/2+y,z
1/2+x,1/2-y,z
loop_
_atom_site_type_symbol
_atom_site_label
_atom_site_fract_x
_atom_site_fract_y
_atom_site_fract_z
Si Si1 0.323280 0.080204 0.260578
Si Si2 0.320571 0.320170 0.445484
Si Si3 0.819452 0.821028 0.185559
Si Si4 0.181923 0.080371 0.000000
Si Si5 0.175456 0.580010 0.628494
Si Si6 0.817025 0.676405 0.919155
O O1 0.500000 0.100227 0.249584
O O2 0.208724 0.120391 0.225287
O O3 0.280338 0.099692 0.316114
O O4 0.297505 0.000000 0.251457
O O5 0.255079 0.335890 0.500000
O O6 0.500000 0.309897 0.447925
O O7 0.250000 0.250000 0.424461
O O8 0.284095 0.381830 0.409264
O O9 0.750000 0.750000 0.206093
O O10 0.734155 0.841055 0.135663
O O11 0.000000 0.812802 0.175304
O O12 0.253312 0.115372 0.952311
O O13 0.000000 0.091102 0.000000
O O14 0.226030 0.000000 0.000000
O O15 0.200874 0.500000 0.619944
O O16 0.000000 0.600906 0.618055
O O17 0.750000 0.750000 0.936254
O O18 0.000000 0.679349 0.923014
#
# Coordination Sequence:
#
# PCOD8273046 Si02
#       6
#    16  16  16   8  16  16
#     4   9  19  37  58  80 109 144 181 222 270 323
#     4  10  21  36  54  77 106 140 178 222 271 322
#     4  11  22  37  58  84 113 145 185 228 272 322
#     4  11  24  41  60  85 117 149 186 231 274 321
#     4   9  19  36  57  80 107 141 180 221 267 322
#     4  11  22  39  62  85 113 148 187 228 274 327
#
# _framework density 19.016904
#
# number of rings (size 3 to 8) (size 9 to 14) (size 15 to 20)
#    0.000    1.909    0.000    6.545    0.000    5.091 
#    0.000    3.636    0.000    0.000    0.000    0.000 
#    0.000    0.000    0.000    0.000    0.000    0.000 
#
# Total GULP energy -545726.194416 kJ/mol
# GULP energy per Si atom -12402.868055 kJ/mol
# Density = 1.897362 g / cm^3
# Si number density = 19.016904 Si / 1000 Ang^3
#
#
#
# Elastic Constant Matrix: (Units=GPa)
#
#
# Indices 1 2 3 4 5 6 
#
# 1 114.4683 52.6022 44.0753 0.0000 0.0000 0.0000
# 2 52.6022 100.2331 69.1837 0.0000 0.0000 0.0000
# 3 44.0753 69.1837 100.6546 0.0000 0.0000 0.0000
# 4 0.0000 0.0000 0.0000 48.7218 0.0000 0.0000
# 5 0.0000 0.0000 0.0000 0.0000 34.3181 0.0000
# 6 0.0000 0.0000 0.0000 0.0000 0.0000 34.2944
#
#
#
# Elastic Compliance Matrix: (Units=1/GPa)
#
#
# Indices 1 2 3 4 5 6 
#
# 1 0.011666 -0.004940 -0.001713 0.000000 0.000000 0.000000
# 2 -0.004940 0.021074 -0.012322 0.000000 0.000000 0.000000
# 3 -0.001713 -0.012322 0.019154 0.000000 0.000000 0.000000
# 4 0.000000 0.000000 0.000000 0.020525 0.000000 0.000000
# 5 0.000000 0.000000 0.000000 0.000000 0.029139 0.000000
# 6 0.000000 0.000000 0.000000 0.000000 0.000000 0.029159
#
#
# Mechanical properties :
#
#
# Convention : Reuss Voigt Hill
#
# Bulk Modulus (GPa) = 71.71152 71.89760 71.80456
# Shear Modulus (GPa) = 28.84923 33.43317 31.14120
#
# Velocity S-wave (km/s) = 3.89913 4.19749 4.05106
# Velocity P-wave (km/s) = 7.61986 7.83461 7.72798
#
# Compressibility (1/GPa) = 0.01394476
#
# Stress axis : x y z
#
# Youngs Moduli (GPa) = 85.72219 47.45155 52.20735
#
# Poissons Ratio (x) = 0.23440 0.08943
# Poissons Ratio (y) = 0.42345 0.64330
# Poissons Ratio (z) = 0.14683 0.58470
#
# Static dielectric constant tensor:
#      x y z
#    x 3.490240 0.000000 0.000000 
#    y 0.000000 3.420060 0.000000 
#    z 0.000000 0.000000 3.511820 
# 
# 
# High freq. dielectric constant tensor:
#      x y z
#    x 1.746170 0.000000 0.000000 
#    y 0.000000 1.737630 0.000000 
#    z 0.000000 0.000000 1.745060 
# 
# From -- ./inp_files/70936.got.cif
#   From: 2010.03.12/outbox.cif.g09.slc.cpg/sg65_36_cif.got.tgz:70936.got - 2010.04.10 20:52:16.
