data_PCOD8273660
_publ_section_title
;
Structure prediction by ZEFSAII (Michael W. Deem and Ramdas Pophale) SiO2 
 PCOD8273660
Probable space group: C M M M
;
_chemical_formula_sum "Si O2"
_cell_formula_units_Z 104
_cell_length_a 8.836803
_cell_length_b 20.245542
_cell_length_c 29.852197
_cell_angle_alpha 90.000000
_cell_angle_beta 90.000000
_cell_angle_gamma 90.000000
_cell_volume 5340.733165
_symmetry_space_group_name_H-M "C M M M"
_symmetry_group_IT_number 65
_symmetry_cell_setting 'orthorhombic'
loop_
_space_group_symop_operation_xyz
x,y,z
-x,-y,z
x,-y,-z
-x,y,-z
-x,-y,-z
x,y,-z
-x,y,z
x,-y,z
1/2+x,1/2+y,z
1/2-x,1/2-y,z
1/2+x,1/2-y,-z
1/2-x,1/2+y,-z
1/2-x,1/2-y,-z
1/2+x,1/2+y,-z
1/2-x,1/2+y,z
1/2+x,1/2-y,z
loop_
_atom_site_type_symbol
_atom_site_label
_atom_site_fract_x
_atom_site_fract_y
_atom_site_fract_z
Si Si1 0.821688 0.634571 0.551554
Si Si2 0.677438 0.923122 0.303417
Si Si3 0.321607 0.924594 0.877980
Si Si4 0.678459 0.817945 0.050714
Si Si5 0.168515 0.000000 0.552583
Si Si6 0.321217 0.684455 0.635237
Si Si7 0.169715 0.921685 0.787435
O O1 0.778922 0.649793 0.500000
O O2 0.765350 0.562800 0.567325
O O3 0.734227 0.685451 0.583458
O O4 0.000000 0.639210 0.559490
O O5 0.500000 0.910644 0.307189
O O6 0.762672 0.881425 0.340945
O O7 0.732777 0.897736 0.254909
O O8 0.718721 0.000000 0.310817
O O9 0.500000 0.920648 0.870824
O O10 0.266444 0.879220 0.919084
O O11 0.244812 0.895815 0.833157
O O12 0.271456 0.000000 0.888148
O O13 0.500000 0.810129 0.053173
O O14 0.750000 0.750000 0.068819
O O15 0.732989 0.832204 0.000000
O O16 0.147423 0.000000 0.500000
O O17 0.000000 0.000000 0.574833
O O18 0.500000 0.687822 0.637938
O O19 0.250000 0.750000 0.658174
O O20 0.000000 0.893179 0.783262
O O21 0.168448 0.000000 0.788781
#
# Coordination Sequence:
#
# PCOD8273660 Si02
#       7
#    16  16  16  16   8  16  16
#     4  10  21  38  60  85 115 151 190 232 279 331
#     4  10  21  39  64  90 116 148 187 229 277 335
#     4   9  17  30  50  76 105 137 176 224 276 327
#     4   9  18  32  49  70 100 140 183 226 272 324
#     4   9  17  31  53  83 115 145 181 227 275 319
#     4  12  26  43  62  85 118 153 190 233 282 337
#     4   9  17  31  53  82 113 142 177 223 275 329
#
# _framework density 19.472981000000001
#
# number of rings (size 3 to 8) (size 9 to 14) (size 15 to 20)
#    0.000    2.231    0.000    3.000    1.077    5.846 
#    0.000    2.308    0.000    1.846    0.000    4.308 
#    0.000    0.000    0.000    0.000    0.000    0.000 
#
# Total GULP energy -644808.006724 kJ/mol
# GULP energy per Si atom -12400.153975 kJ/mol
# Density = 1.942866 g / cm^3
# Si number density = 19.472981 Si / 1000 Ang^3
#
#
#
# Elastic Constant Matrix: (Units=GPa)
#
#
# Indices 1 2 3 4 5 6 
#
# 1 112.7678 47.3772 52.8723 0.0000 0.0000 0.0000
# 2 47.3772 91.5288 57.6795 0.0000 0.0000 0.0000
# 3 52.8723 57.6795 116.8202 0.0000 0.0000 0.0000
# 4 0.0000 0.0000 0.0000 14.2173 0.0000 0.0000
# 5 0.0000 0.0000 0.0000 0.0000 30.2141 0.0000
# 6 0.0000 0.0000 0.0000 0.0000 0.0000 29.7343
#
#
#
# Elastic Compliance Matrix: (Units=1/GPa)
#
#
# Indices 1 2 3 4 5 6 
#
# 1 0.012246 -0.004131 -0.003502 0.000000 0.000000 0.000000
# 2 -0.004131 0.017254 -0.006649 0.000000 0.000000 0.000000
# 3 -0.003502 -0.006649 0.013428 0.000000 0.000000 0.000000
# 4 0.000000 0.000000 0.000000 0.070337 0.000000 0.000000
# 5 0.000000 0.000000 0.000000 0.000000 0.033097 0.000000
# 6 0.000000 0.000000 0.000000 0.000000 0.000000 0.033631
#
#
# Mechanical properties :
#
#
# Convention : Reuss Voigt Hill
#
# Bulk Modulus (GPa) = 69.62858 70.77498 70.20178
# Shear Modulus (GPa) = 23.43594 25.71234 24.57414
#
# Velocity S-wave (km/s) = 3.47293 3.63769 3.55626
# Velocity P-wave (km/s) = 7.20526 7.35308 7.27955
#
# Compressibility (1/GPa) = 0.01436192
#
# Stress axis : x y z
#
# Youngs Moduli (GPa) = 81.66140 57.95637 74.46862
#
# Poissons Ratio (x) = 0.23944 0.26082
# Poissons Ratio (y) = 0.33738 0.49517
# Poissons Ratio (z) = 0.28602 0.38537
#
# Static dielectric constant tensor:
#      x y z
#    x 3.590930 0.000000 0.000000 
#    y 0.000000 3.524290 0.000000 
#    z 0.000000 0.000000 3.678000 
# 
# 
# High freq. dielectric constant tensor:
#      x y z
#    x 1.763820 0.000000 0.000000 
#    y 0.000000 1.740630 0.000000 
#    z 0.000000 0.000000 1.756270 
# 
# From -- ./inp_files/73301.got.cif
#   From: 2010.03.12/outbox.cif.g09.slc.cpg/sg65_37_cif.got.tgz:73301.got - 2010.04.10 20:52:16.
