data_PCOD8273478
_publ_section_title
;
Structure prediction by ZEFSAII (Michael W. Deem and Ramdas Pophale) SiO2 
 PCOD8273478
Probable space group: C M M M
;
_chemical_formula_sum "Si O2"
_cell_formula_units_Z 88
_cell_length_a 24.521100
_cell_length_b 19.536294
_cell_length_c 8.973485
_cell_angle_alpha 90.000000
_cell_angle_beta 90.000000
_cell_angle_gamma 90.000000
_cell_volume 4298.760721
_symmetry_space_group_name_H-M "C M M M"
_symmetry_group_IT_number 65
_symmetry_cell_setting 'orthorhombic'
loop_
_space_group_symop_operation_xyz
x,y,z
-x,-y,z
x,-y,-z
-x,y,-z
-x,-y,-z
x,y,-z
-x,y,z
x,-y,z
1/2+x,1/2+y,z
1/2-x,1/2-y,z
1/2+x,1/2-y,-z
1/2-x,1/2+y,-z
1/2-x,1/2-y,-z
1/2+x,1/2+y,-z
1/2-x,1/2+y,z
1/2+x,1/2-y,z
loop_
_atom_site_type_symbol
_atom_site_label
_atom_site_fract_x
_atom_site_fract_y
_atom_site_fract_z
Si Si1 0.500000 0.918869 0.177082
Si Si2 0.798726 0.077266 0.831926
Si Si3 0.409097 0.422609 0.673148
Si Si4 0.060064 0.795854 0.162702
Si Si5 0.595655 0.168688 0.328281
Si Si6 0.276188 0.824211 0.329875
O O1 0.444095 0.883670 0.239148
O O2 0.500000 0.000000 0.219595
O O3 0.500000 0.909276 0.000000
O O4 0.846779 0.091660 0.715761
O O5 0.749047 0.124624 0.788428
O O6 0.777837 0.000000 0.818585
O O7 0.818527 0.093306 0.000000
O O8 0.417678 0.407512 0.500000
O O9 0.426360 0.500000 0.713232
O O10 0.445463 0.371787 0.769911
O O11 0.090002 0.746979 0.277602
O O12 0.000000 0.765958 0.141292
O O13 0.089238 0.797059 0.000000
O O14 0.578992 0.161297 0.500000
O O15 0.659994 0.160341 0.303425
O O16 0.261327 0.842584 0.500000
O O17 0.250000 0.750000 0.293301
#
# Coordination Sequence:
#
# PCOD8273478 Si02
#       6
#     8  16  16  16  16  16
#     4  11  25  45  67  91 124 167 214 267 327 387
#     4  10  21  37  58  85 117 154 196 241 295 359
#     4  10  21  37  58  84 117 159 203 247 295 348
#     4  11  23  38  59  86 118 155 196 245 301 360
#     4  11  23  40  65  93 123 160 206 260 313 375
#     4  10  22  39  60  90 124 159 202 251 307 372
#
# _framework density 20.471015000000001
#
# number of rings (size 3 to 8) (size 9 to 14) (size 15 to 20)
#    0.000    1.545    0.909    3.545    0.000    8.364 
#    0.000    5.455    0.000    0.000    0.000    0.000 
#    0.000    0.000    0.000    0.000    0.000    0.000 
#
# Total GULP energy -545299.437200 kJ/mol
# GULP energy per Si atom -12393.169027 kJ/mol
# Density = 2.042442 g / cm^3
# Si number density = 20.471015 Si / 1000 Ang^3
#
#
#
# Elastic Constant Matrix: (Units=GPa)
#
#
# Indices 1 2 3 4 5 6 
#
# 1 73.8381 35.6110 36.1368 0.0000 0.0000 0.0000
# 2 35.6110 101.0477 49.1344 0.0000 0.0000 0.0000
# 3 36.1368 49.1344 92.0842 0.0000 0.0000 0.0000
# 4 0.0000 0.0000 0.0000 37.2950 0.0000 0.0000
# 5 0.0000 0.0000 0.0000 0.0000 -448.2331 0.0000
# 6 0.0000 0.0000 0.0000 0.0000 0.0000 33.7989
#
#
#
# Elastic Compliance Matrix: (Units=1/GPa)
#
#
# Indices 1 2 3 4 5 6 
#
# 1 0.017827 -0.003890 -0.004920 0.000000 0.000000 0.000000
# 2 -0.003890 0.014212 -0.006057 0.000000 0.000000 0.000000
# 3 -0.004920 -0.006057 0.016022 0.000000 0.000000 0.000000
# 4 0.000000 0.000000 0.000000 0.026813 0.000000 0.000000
# 5 0.000000 0.000000 0.000000 0.000000 -0.002231 0.000000
# 6 0.000000 0.000000 0.000000 0.000000 0.000000 0.029587
#
#
# Mechanical properties :
#
#
# Convention : Reuss Voigt Hill
#
# Bulk Modulus (GPa) = 54.56301 56.52608 55.54454
# Shear Modulus (GPa) = 36.21222 -65.68864 -14.73821
#
# Velocity S-wave (km/s) = 4.21045 -5.67083 -2.68611
# Velocity P-wave (km/s) = 7.09569 3.89936 4.19189
#
# Compressibility (1/GPa) = 0.01832744
#
# Stress axis : x y z
#
# Youngs Moduli (GPa) = 56.09359 70.36096 62.41290
#
# Poissons Ratio (x) = 0.27372 0.30709
# Poissons Ratio (y) = 0.21821 0.37803
# Poissons Ratio (z) = 0.27600 0.42617
#
# Static dielectric constant tensor:
#      x y z
#    x 3.627500 0.000000 0.000000 
#    y 0.000000 3.767700 0.000000 
#    z 0.000000 0.000000 3.867500 
# 
# 
# High freq. dielectric constant tensor:
#      x y z
#    x 1.798980 0.000000 0.000000 
#    y 0.000000 1.803190 0.000000 
#    z 0.000000 0.000000 1.812890 
# 
# From -- ./inp_files/13993.got.cif
#   From: 2010.03.12/outbox.cif.g09.slc.cpg/sg65_7_cif.got.tgz:13993.got - 2010.04.10 20:52:16.
