data_PCOD8273157
_publ_section_title
;
Structure prediction by ZEFSAII (Michael W. Deem and Ramdas Pophale) SiO2 
 PCOD8273157
Probable space group: C M M M
;
_chemical_formula_sum "Si O2"
_cell_formula_units_Z 112
_cell_length_a 21.867111
_cell_length_b 18.592450
_cell_length_c 14.231666
_cell_angle_alpha 90.000000
_cell_angle_beta 90.000000
_cell_angle_gamma 90.000000
_cell_volume 5786.071214
_symmetry_space_group_name_H-M "C M M M"
_symmetry_group_IT_number 65
_symmetry_cell_setting 'orthorhombic'
loop_
_space_group_symop_operation_xyz
x,y,z
-x,-y,z
x,-y,-z
-x,y,-z
-x,-y,-z
x,y,-z
-x,y,z
x,-y,z
1/2+x,1/2+y,z
1/2-x,1/2-y,z
1/2+x,1/2-y,-z
1/2-x,1/2+y,-z
1/2-x,1/2-y,-z
1/2+x,1/2+y,-z
1/2-x,1/2+y,z
1/2+x,1/2-y,z
loop_
_atom_site_type_symbol
_atom_site_label
_atom_site_fract_x
_atom_site_fract_y
_atom_site_fract_z
Si Si1 0.878402 0.160981 0.609495
Si Si2 0.642347 0.085040 0.256971
Si Si3 0.569259 0.579652 0.228620
Si Si4 0.929394 0.333478 0.109017
Si Si5 0.734112 0.672780 0.730735
Si Si6 0.641999 0.312183 0.889969
Si Si7 0.569390 0.182836 0.391968
O O1 0.880540 0.139428 0.500000
O O2 0.927977 0.116216 0.668298
O O3 0.813575 0.139346 0.656149
O O4 0.892261 0.244877 0.625499
O O5 0.606999 0.102943 0.160622
O O6 0.709709 0.118935 0.258029
O O7 0.601981 0.117023 0.340794
O O8 0.648272 0.000000 0.269010
O O9 0.500000 0.577032 0.195719
O O10 0.597368 0.500000 0.236304
O O11 0.604445 0.619659 0.145454
O O12 0.897397 0.258329 0.135062
O O13 0.000000 0.329928 0.141803
O O14 0.924756 0.350794 0.000000
O O15 0.750000 0.750000 0.686635
O O16 0.705605 0.688207 0.833751
O O17 0.656218 0.318516 0.000000
O O18 0.568691 0.161857 0.500000
O O19 0.500000 0.193253 0.354844
#
# Coordination Sequence:
#
# PCOD8273157 Si02
#       7
#    16  16  16  16  16  16  16
#     4  10  21  38  64  89 115 153 200 248 298 355
#     4  12  25  40  58  84 120 160 198 240 296 349
#     4  10  21  36  55  85 125 159 192 241 299 356
#     4  10  21  38  62  91 118 149 194 243 293 356
#     4  11  21  39  60  87 114 154 196 245 290 346
#     4  10  21  38  64  89 115 153 200 248 298 355
#     4  10  21  38  62  91 118 149 194 243 293 356
#
# _framework density 19.356829999999999
#
# number of rings (size 3 to 8) (size 9 to 14) (size 15 to 20)
#    0.000    1.571    2.857    2.143    0.000    8.000 
#    0.000    2.857    0.000    0.000    0.000    0.000 
#    0.000    0.000    0.000    0.000    0.000    0.000 
#
# Total GULP energy -694383.428660 kJ/mol
# GULP energy per Si atom -12399.704083 kJ/mol
# Density = 1.931277 g / cm^3
# Si number density = 19.356830 Si / 1000 Ang^3
#
#
#
# Elastic Constant Matrix: (Units=GPa)
#
#
# Indices 1 2 3 4 5 6 
#
# 1 126.3564 37.5827 28.4913 0.0000 0.0000 0.0000
# 2 37.5827 110.9312 16.0502 0.0000 0.0000 0.0000
# 3 28.4913 16.0502 71.6632 0.0000 0.0000 0.0000
# 4 0.0000 0.0000 0.0000 17.3058 0.0000 0.0000
# 5 0.0000 0.0000 0.0000 0.0000 26.0180 0.0000
# 6 0.0000 0.0000 0.0000 0.0000 0.0000 27.9768
#
#
#
# Elastic Compliance Matrix: (Units=1/GPa)
#
#
# Indices 1 2 3 4 5 6 
#
# 1 0.009438 -0.002743 -0.003138 0.000000 0.000000 0.000000
# 2 -0.002743 0.010114 -0.001174 0.000000 0.000000 0.000000
# 3 -0.003138 -0.001174 0.015465 0.000000 0.000000 0.000000
# 4 0.000000 0.000000 0.000000 0.057784 0.000000 0.000000
# 5 0.000000 0.000000 0.000000 0.000000 0.038435 0.000000
# 6 0.000000 0.000000 0.000000 0.000000 0.000000 0.035744
#
#
# Mechanical properties :
#
#
# Convention : Reuss Voigt Hill
#
# Bulk Modulus (GPa) = 47.83533 52.57769 50.20651
# Shear Modulus (GPa) = 26.58743 29.38189 27.98466
#
# Velocity S-wave (km/s) = 3.71015 3.90026 3.80639
# Velocity P-wave (km/s) = 6.56656 6.89232 6.73141
#
# Compressibility (1/GPa) = 0.02090505
#
# Stress axis : x y z
#
# Youngs Moduli (GPa) = 105.95907 98.87311 64.66352
#
# Poissons Ratio (x) = 0.27125 0.20289
# Poissons Ratio (y) = 0.29069 0.07595
# Poissons Ratio (z) = 0.33247 0.11613
#
# Static dielectric constant tensor:
#      x y z
#    x 3.671060 0.000000 0.000000 
#    y 0.000000 3.444010 0.000000 
#    z 0.000000 0.000000 3.536000 
# 
# 
# High freq. dielectric constant tensor:
#      x y z
#    x 1.765530 0.000000 0.000000 
#    y 0.000000 1.741000 0.000000 
#    z 0.000000 0.000000 1.759040 
# 
# From -- ./inp_files/45775.got.cif
#   From: 2010.03.12/outbox.cif.g09.slc.cpg/sg65_23_cif.got.tgz:45775.got - 2010.04.10 20:52:16.
