data_PCOD8273522
_publ_section_title
;
Structure prediction by ZEFSAII (Michael W. Deem and Ramdas Pophale) SiO2 
 PCOD8273522
Probable space group: C M M M
;
_chemical_formula_sum "Si O2"
_cell_formula_units_Z 72
_cell_length_a 17.941602
_cell_length_b 8.773887
_cell_length_c 23.597238
_cell_angle_alpha 90.000000
_cell_angle_beta 90.000000
_cell_angle_gamma 90.000000
_cell_volume 3714.620302
_symmetry_space_group_name_H-M "C M M M"
_symmetry_group_IT_number 65
_symmetry_cell_setting 'orthorhombic'
loop_
_space_group_symop_operation_xyz
x,y,z
-x,-y,z
x,-y,-z
-x,y,-z
-x,-y,-z
x,y,-z
-x,y,z
x,-y,z
1/2+x,1/2+y,z
1/2-x,1/2-y,z
1/2+x,1/2-y,-z
1/2-x,1/2+y,-z
1/2-x,1/2-y,-z
1/2+x,1/2+y,-z
1/2-x,1/2+y,z
1/2+x,1/2-y,z
loop_
_atom_site_type_symbol
_atom_site_label
_atom_site_fract_x
_atom_site_fract_y
_atom_site_fract_z
Si Si1 0.329674 0.679371 0.785871
Si Si2 0.585540 0.817927 0.682386
Si Si3 0.330769 0.180107 0.000000
Si Si4 0.412855 0.824207 0.112622
Si Si5 0.588378 0.829706 0.440110
O O1 0.321498 0.500000 0.781913
O O2 0.250000 0.750000 0.800471
O O3 0.359546 0.741651 0.726591
O O4 0.386935 0.722575 0.835090
O O5 0.500000 0.769962 0.695083
O O6 0.612472 0.755060 0.619991
O O7 0.592742 0.000000 0.685205
O O8 0.250000 0.250000 0.000000
O O9 0.373918 0.236636 0.944306
O O10 0.325185 0.000000 0.000000
O O11 0.500000 0.802714 0.104042
O O12 0.392468 0.000000 0.125079
O O13 0.613332 0.746643 0.500000
O O14 0.500000 0.838599 0.438193
O O15 0.621118 0.000000 0.442085
#
# Coordination Sequence:
#
# PCOD8273522 Si02
#       5
#    16  16   8  16  16
#     4  12  25  39  55  76 105 141 182 226 271 320
#     4   9  17  31  53  80 109 140 174 215 265 319
#     4  10  21  37  59  87 117 150 183 216 258 308
#     4  10  21  39  62  86 113 144 179 219 264 315
#     4   7  10  19  40  72 105 134 167 208 254 308
#
# _framework density 19.382868999999999
#
# number of rings (size 3 to 8) (size 9 to 14) (size 15 to 20)
#    0.000    2.444    0.000    5.667    0.000    7.556 
#    0.000    0.000    0.000    3.333    0.000    3.111 
#    0.000    0.000    0.000    0.000    0.000    0.000 
#
# Total GULP energy -446071.927838 kJ/mol
# GULP energy per Si atom -12390.886884 kJ/mol
# Density = 1.933875 g / cm^3
# Si number density = 19.382869 Si / 1000 Ang^3
#
#
#
# Elastic Constant Matrix: (Units=GPa)
#
#
# Indices 1 2 3 4 5 6 
#
# 1 74.2406 21.3610 42.2146 0.0000 0.0000 0.0000
# 2 21.3610 51.7807 34.2478 0.0000 0.0000 0.0000
# 3 42.2146 34.2478 171.3929 0.0000 0.0000 0.0000
# 4 0.0000 0.0000 0.0000 -6.4192 0.0000 0.0000
# 5 0.0000 0.0000 0.0000 0.0000 8.9402 0.0000
# 6 0.0000 0.0000 0.0000 0.0000 0.0000 26.1158
#
#
#
# Elastic Compliance Matrix: (Units=1/GPa)
#
#
# Indices 1 2 3 4 5 6 
#
# 1 0.016632 -0.004784 -0.003141 0.000000 0.000000 0.000000
# 2 -0.004784 0.023629 -0.003543 0.000000 0.000000 0.000000
# 3 -0.003141 -0.003543 0.007316 0.000000 0.000000 0.000000
# 4 0.000000 0.000000 0.000000 -0.155783 0.000000 0.000000
# 5 0.000000 0.000000 0.000000 0.000000 0.111854 0.000000
# 6 0.000000 0.000000 0.000000 0.000000 0.000000 0.038291
#
#
# Mechanical properties :
#
#
# Convention : Reuss Voigt Hill
#
# Bulk Modulus (GPa) = 40.58167 54.78455 47.68311
# Shear Modulus (GPa) = 68.41050 19.03344 43.72197
#
# Velocity S-wave (km/s) = 5.94735 3.13704 4.75458
# Velocity P-wave (km/s) = 8.25491 6.43795 7.40239
#
# Compressibility (1/GPa) = 0.02464167
#
# Stress axis : x y z
#
# Youngs Moduli (GPa) = 60.12516 42.32036 136.68476
#
# Poissons Ratio (x) = 0.20246 0.42927
# Poissons Ratio (y) = 0.28764 0.48432
# Poissons Ratio (z) = 0.18883 0.14995
#
# Static dielectric constant tensor:
#      x y z
#    x 3.317570 0.000000 0.000000 
#    y 0.000000 3.218330 0.000000 
#    z 0.000000 0.000000 4.221600 
# 
# 
# High freq. dielectric constant tensor:
#      x y z
#    x 1.731760 0.000000 0.000000 
#    y 0.000000 1.715130 0.000000 
#    z 0.000000 0.000000 1.788240 
# 
# From -- ./inp_files/70329.got.cif
#   From: 2010.03.12/outbox.cif.g09.slc.cpg/sg65_36_cif.got.tgz:70329.got - 2010.04.10 20:52:16.
