data_PCOD8273060
_publ_section_title
;
Structure prediction by ZEFSAII (Michael W. Deem and Ramdas Pophale) SiO2 
 PCOD8273060
Probable space group: C M M M
;
_chemical_formula_sum "Si O2"
_cell_formula_units_Z 80
_cell_length_a 17.046943
_cell_length_b 24.374716
_cell_length_c 9.645830
_cell_angle_alpha 90.000000
_cell_angle_beta 90.000000
_cell_angle_gamma 90.000000
_cell_volume 4007.981210
_symmetry_space_group_name_H-M "C M M M"
_symmetry_group_IT_number 65
_symmetry_cell_setting 'orthorhombic'
loop_
_space_group_symop_operation_xyz
x,y,z
-x,-y,z
x,-y,-z
-x,y,-z
-x,-y,-z
x,y,-z
-x,y,z
x,-y,z
1/2+x,1/2+y,z
1/2-x,1/2-y,z
1/2+x,1/2-y,-z
1/2-x,1/2+y,-z
1/2-x,1/2-y,-z
1/2+x,1/2+y,-z
1/2-x,1/2+y,z
1/2+x,1/2-y,z
loop_
_atom_site_type_symbol
_atom_site_label
_atom_site_fract_x
_atom_site_fract_y
_atom_site_fract_z
Si Si1 0.413227 0.060818 0.249090
Si Si2 0.412155 0.268792 0.842410
Si Si3 0.123106 0.675080 0.350166
Si Si4 0.254577 0.562012 0.151274
Si Si5 0.801359 0.843917 0.658681
O O1 0.500000 0.065126 0.177689
O O2 0.403419 0.111325 0.355265
O O3 0.340520 0.067275 0.143802
O O4 0.406667 0.000000 0.321381
O O5 0.500000 0.292730 0.845260
O O6 0.415901 0.207801 0.776295
O O7 0.359963 0.306712 0.745556
O O8 0.378928 0.265540 0.000000
O O9 0.097786 0.699657 0.500000
O O10 0.216142 0.683150 0.335045
O O11 0.280106 0.500000 0.180537
O O12 0.296668 0.596470 0.270824
O O13 0.284681 0.581484 0.000000
O O14 0.830686 0.850094 0.500000
#
# Coordination Sequence:
#
# PCOD8273060 Si02
#       5
#    16  16  16  16  16
#     4   9  18  31  48  75 111 148 186 227 267 308
#     4  11  24  39  56  80 108 138 175 221 273 326
#     4  10  21  36  54  78 108 143 184 225 265 314
#     4   9  18  33  54  80 110 145 182 220 265 315
#     4  10  21  37  58  82 108 141 180 221 265 315
#
# _framework density 19.960173000000001
#
# number of rings (size 3 to 8) (size 9 to 14) (size 15 to 20)
#    0.000    2.200    0.000    2.400    0.000   10.400 
#    0.000    7.000    0.000    0.600    0.000    4.200 
#    0.000    0.000    0.000    0.000    0.000    0.000 
#
# Total GULP energy -495538.529747 kJ/mol
# GULP energy per Si atom -12388.463244 kJ/mol
# Density = 1.991474 g / cm^3
# Si number density = 19.960173 Si / 1000 Ang^3
#
#
#
# Elastic Constant Matrix: (Units=GPa)
#
#
# Indices 1 2 3 4 5 6 
#
# 1 69.0801 46.2935 42.1156 0.0000 0.0000 0.0000
# 2 46.2935 111.2779 73.9829 0.0000 0.0000 0.0000
# 3 42.1156 73.9829 171.9956 0.0000 0.0000 0.0000
# 4 0.0000 0.0000 0.0000 29.1461 0.0000 0.0000
# 5 0.0000 0.0000 0.0000 0.0000 12.0725 0.0000
# 6 0.0000 0.0000 0.0000 0.0000 0.0000 17.7322
#
#
#
# Elastic Compliance Matrix: (Units=1/GPa)
#
#
# Indices 1 2 3 4 5 6 
#
# 1 0.020502 -0.007271 -0.001893 0.000000 0.000000 0.000000
# 2 -0.007271 0.015164 -0.004742 0.000000 0.000000 0.000000
# 3 -0.001893 -0.004742 0.008318 0.000000 0.000000 0.000000
# 4 0.000000 0.000000 0.000000 0.034310 0.000000 0.000000
# 5 0.000000 0.000000 0.000000 0.000000 0.082833 0.000000
# 6 0.000000 0.000000 0.000000 0.000000 0.000000 0.056395
#
#
# Mechanical properties :
#
#
# Convention : Reuss Voigt Hill
#
# Bulk Modulus (GPa) = 61.83541 75.23752 68.53646
# Shear Modulus (GPa) = 19.94219 24.45427 22.19823
#
# Velocity S-wave (km/s) = 3.16428 3.50402 3.33847
# Velocity P-wave (km/s) = 6.66310 7.35843 7.01938
#
# Compressibility (1/GPa) = 0.01617196
#
# Stress axis : x y z
#
# Youngs Moduli (GPa) = 48.77459 65.94403 120.22823
#
# Poissons Ratio (x) = 0.47948 0.22756
# Poissons Ratio (y) = 0.35464 0.57018
# Poissons Ratio (z) = 0.09232 0.31274
#
# Static dielectric constant tensor:
#      x y z
#    x 3.472290 0.000000 0.000000 
#    y 0.000000 3.706320 0.000000 
#    z 0.000000 0.000000 3.608590 
# 
# 
# High freq. dielectric constant tensor:
#      x y z
#    x 1.758030 0.000000 0.000000 
#    y 0.000000 1.778780 0.000000 
#    z 0.000000 0.000000 1.773160 
# 
# From -- ./inp_files/9605.got.cif
#   From: 2010.03.12/outbox.cif.g09.slc.cpg/sg65_5_cif.got.tgz:9605.got - 2010.04.10 20:52:16.
