data_PCOD8273952
_publ_section_title
;
Structure prediction by ZEFSAII (Michael W. Deem and Ramdas Pophale) SiO2 
 PCOD8273952
Probable space group: C M M M
;
_chemical_formula_sum "Si O2"
_cell_formula_units_Z 72
_cell_length_a 26.005069
_cell_length_b 9.652820
_cell_length_c 13.356154
_cell_angle_alpha 90.000000
_cell_angle_beta 90.000000
_cell_angle_gamma 90.000000
_cell_volume 3352.691830
_symmetry_space_group_name_H-M "C M M M"
_symmetry_group_IT_number 65
_symmetry_cell_setting 'orthorhombic'
loop_
_space_group_symop_operation_xyz
x,y,z
-x,-y,z
x,-y,-z
-x,y,-z
-x,-y,-z
x,y,-z
-x,y,z
x,-y,z
1/2+x,1/2+y,z
1/2-x,1/2-y,z
1/2+x,1/2-y,-z
1/2-x,1/2+y,-z
1/2-x,1/2-y,-z
1/2+x,1/2+y,-z
1/2-x,1/2+y,z
1/2+x,1/2-y,z
loop_
_atom_site_type_symbol
_atom_site_label
_atom_site_fract_x
_atom_site_fract_y
_atom_site_fract_z
Si Si1 0.797184 0.158291 0.194668
Si Si2 0.407102 0.344198 0.117737
Si Si3 0.000000 0.342308 0.880269
Si Si4 0.056732 0.655964 0.618639
Si Si5 0.351712 0.341560 0.388761
O O1 0.750000 0.250000 0.155581
O O2 0.849632 0.208343 0.141983
O O3 0.803328 0.176870 0.314962
O O4 0.784996 0.000000 0.166141
O O5 0.415047 0.500000 0.162526
O O6 0.449158 0.236514 0.161875
O O7 0.414816 0.350486 0.000000
O O8 0.000000 0.500000 0.839373
O O9 0.000000 0.342667 0.000000
O O10 0.052971 0.675394 0.500000
O O11 0.073713 0.500000 0.645245
O O12 0.099957 0.760304 0.659940
O O13 0.000000 0.687371 0.665565
O O14 0.336829 0.286620 0.500000
O O15 0.369129 0.500000 0.393707
#
# Coordination Sequence:
#
# PCOD8273952 Si02
#       5
#    16  16   8  16  16
#     4  10  22  38  54  76 105 137 178 224 264 311
#     4   9  18  35  58  81 108 143 176 208 257 317
#     4   9  17  31  55  87 116 139 170 214 259 307
#     4   8  14  26  45  69  97 128 163 205 253 306
#     4   9  18  33  51  71  98 133 173 216 261 308
#
# _framework density 21.475280000000001
#
# number of rings (size 3 to 8) (size 9 to 14) (size 15 to 20)
#    0.000    3.000    0.000    1.000    0.000    4.444 
#    2.000    2.222    0.000    0.000    0.000    0.000 
#    0.000    0.000    0.000    0.000    0.000    0.000 
#
# Total GULP energy -446298.884054 kJ/mol
# GULP energy per Si atom -12397.191224 kJ/mol
# Density = 2.142640 g / cm^3
# Si number density = 21.475280 Si / 1000 Ang^3
#
#
#
# Elastic Constant Matrix: (Units=GPa)
#
#
# Indices 1 2 3 4 5 6 
#
# 1 153.4961 90.4144 8.1784 0.0000 0.0000 0.0000
# 2 90.4144 113.5833 4.3421 0.0000 0.0000 0.0000
# 3 8.1784 4.3421 9.7876 0.0000 0.0000 0.0000
# 4 0.0000 0.0000 0.0000 14.7300 0.0000 0.0000
# 5 0.0000 0.0000 0.0000 0.0000 25.2647 0.0000
# 6 0.0000 0.0000 0.0000 0.0000 0.0000 44.8125
#
#
#
# Elastic Compliance Matrix: (Units=1/GPa)
#
#
# Indices 1 2 3 4 5 6 
#
# 1 0.012625 -0.009813 -0.006196 0.000000 0.000000 0.000000
# 2 -0.009813 0.016583 0.000843 0.000000 0.000000 0.000000
# 3 -0.006196 0.000843 0.106974 0.000000 0.000000 0.000000
# 4 0.000000 0.000000 0.000000 0.067889 0.000000 0.000000
# 5 0.000000 0.000000 0.000000 0.000000 0.039581 0.000000
# 6 0.000000 0.000000 0.000000 0.000000 0.000000 0.022315
#
#
# Mechanical properties :
#
#
# Convention : Reuss Voigt Hill
#
# Bulk Modulus (GPa) = 9.44739 53.63742 31.54240
# Shear Modulus (GPa) = 15.07921 28.55691 21.81806
#
# Velocity S-wave (km/s) = 2.65272 3.65054 3.19087
# Velocity P-wave (km/s) = 3.71366 6.54211 5.31933
#
# Compressibility (1/GPa) = 0.10584932
#
# Stress axis : x y z
#
# Youngs Moduli (GPa) = 79.20715 60.30203 9.34811
#
# Poissons Ratio (x) = 0.59174 0.05792
# Poissons Ratio (y) = 0.77726 -0.00788
# Poissons Ratio (z) = 0.49077 -0.05082
#
# Static dielectric constant tensor:
#      x y z
#    x 3.820090 0.000000 0.000000 
#    y 0.000000 3.902040 0.000000 
#    z 0.000000 0.000000 3.888300 
# 
# 
# High freq. dielectric constant tensor:
#      x y z
#    x 1.825770 0.000000 0.000000 
#    y 0.000000 1.831910 0.000000 
#    z 0.000000 0.000000 1.853770 
# 
# From -- ./inp_files/46504.got.cif
#   From: 2010.03.12/outbox.cif.g09.slc.cpg/sg65_24_cif.got.tgz:46504.got - 2010.04.10 20:52:16.
