data_PCOD8273733
_publ_section_title
;
Structure prediction by ZEFSAII (Michael W. Deem and Ramdas Pophale) SiO2 
 PCOD8273733
Probable space group: C M M M
;
_chemical_formula_sum "Si O2"
_cell_formula_units_Z 72
_cell_length_a 18.662910
_cell_length_b 8.875784
_cell_length_c 22.747134
_cell_angle_alpha 90.000000
_cell_angle_beta 90.000000
_cell_angle_gamma 90.000000
_cell_volume 3768.016297
_symmetry_space_group_name_H-M "C M M M"
_symmetry_group_IT_number 65
_symmetry_cell_setting 'orthorhombic'
loop_
_space_group_symop_operation_xyz
x,y,z
-x,-y,z
x,-y,-z
-x,y,-z
-x,-y,-z
x,y,-z
-x,y,z
x,-y,z
1/2+x,1/2+y,z
1/2-x,1/2-y,z
1/2+x,1/2-y,-z
1/2-x,1/2+y,-z
1/2-x,1/2-y,-z
1/2+x,1/2+y,-z
1/2-x,1/2+y,z
1/2+x,1/2-y,z
loop_
_atom_site_type_symbol
_atom_site_label
_atom_site_fract_x
_atom_site_fract_y
_atom_site_fract_z
Si Si1 0.916609 0.175234 0.897834
Si Si2 0.672185 0.821900 0.000000
Si Si3 0.917976 0.826378 0.432316
Si Si4 0.417436 0.174073 0.223033
Si Si5 0.673081 0.822958 0.665440
O O1 0.870358 0.271603 0.942537
O O2 0.895027 0.224996 0.832399
O O3 0.000000 0.208913 0.909867
O O4 0.898880 0.000000 0.906194
O O5 0.750000 0.750000 0.000000
O O6 0.680015 0.000000 0.000000
O O7 0.897777 0.798796 0.500000
O O8 0.866769 0.723271 0.393872
O O9 0.000000 0.779649 0.420752
O O10 0.905987 0.000000 0.415335
O O11 0.500000 0.199282 0.239635
O O12 0.371800 0.231715 0.278176
O O13 0.402081 0.000000 0.207843
O O14 0.750000 0.750000 0.668552
O O15 0.682151 0.000000 0.665333
#
# Coordination Sequence:
#
# PCOD8273733 Si02
#       5
#    16   8  16  16  16
#     4  10  21  38  61  88 116 147 186 230 275 328
#     4  12  25  40  59  83 115 153 189 230 281 332
#     4   9  19  37  60  84 110 142 182 229 280 334
#     4   9  19  37  59  82 109 144 188 234 279 328
#     4  11  23  37  55  81 114 151 188 229 277 330
#
# _framework density 19.108196
#
# number of rings (size 3 to 8) (size 9 to 14) (size 15 to 20)
#    0.000    2.000    0.000    4.000    0.000    7.556 
#    0.000    5.556    0.000    0.000    0.000    0.000 
#    0.000    0.000    0.000    0.000    0.000    0.000 
#
# Total GULP energy -446563.950439 kJ/mol
# GULP energy per Si atom -12404.554179 kJ/mol
# Density = 1.906471 g / cm^3
# Si number density = 19.108196 Si / 1000 Ang^3
#
#
#
# Elastic Constant Matrix: (Units=GPa)
#
#
# Indices 1 2 3 4 5 6 
#
# 1 115.9630 60.6586 83.0523 0.0000 0.0000 0.0000
# 2 60.6586 101.3300 64.2817 0.0000 0.0000 0.0000
# 3 83.0523 64.2817 130.8355 0.0000 0.0000 0.0000
# 4 0.0000 0.0000 0.0000 33.9835 0.0000 0.0000
# 5 0.0000 0.0000 0.0000 0.0000 -3.0943 0.0000
# 6 0.0000 0.0000 0.0000 0.0000 0.0000 -9.8040
#
#
#
# Elastic Compliance Matrix: (Units=1/GPa)
#
#
# Indices 1 2 3 4 5 6 
#
# 1 0.017364 -0.004943 -0.008594 0.000000 0.000000 0.000000
# 2 -0.004943 0.015744 -0.004598 0.000000 0.000000 0.000000
# 3 -0.008594 -0.004598 0.015357 0.000000 0.000000 0.000000
# 4 0.000000 0.000000 0.000000 0.029426 0.000000 0.000000
# 5 0.000000 0.000000 0.000000 0.000000 -0.323174 0.000000
# 6 0.000000 0.000000 0.000000 0.000000 0.000000 -0.101999
#
#
# Mechanical properties :
#
#
# Convention : Reuss Voigt Hill
#
# Bulk Modulus (GPa) = 81.98915 84.90151 83.44533
# Shear Modulus (GPa) = -16.28946 13.55943 -1.36501
#
# Velocity S-wave (km/s) = -2.92290 2.66675 -0.84612
# Velocity P-wave (km/s) = 5.62226 7.34918 6.54295
#
# Compressibility (1/GPa) = 0.01219674
#
# Stress axis : x y z
#
# Youngs Moduli (GPa) = 57.59138 63.51466 65.11483
#
# Poissons Ratio (x) = 0.31393 0.55959
# Poissons Ratio (y) = 0.28465 0.29940
# Poissons Ratio (z) = 0.49493 0.29204
#
# Static dielectric constant tensor:
#      x y z
#    x 3.527700 0.000000 0.000000 
#    y 0.000000 3.499220 0.000000 
#    z 0.000000 0.000000 3.591070 
# 
# 
# High freq. dielectric constant tensor:
#      x y z
#    x 1.743010 0.000000 0.000000 
#    y 0.000000 1.747100 0.000000 
#    z 0.000000 0.000000 1.754930 
# 
# From -- ./inp_files/70366.got.cif
#   From: 2010.03.12/outbox.cif.g09.slc.cpg/sg65_36_cif.got.tgz:70366.got - 2010.04.10 20:52:16.
