data_PCOD8273512
_publ_section_title
;
Structure prediction by ZEFSAII (Michael W. Deem and Ramdas Pophale) SiO2 
 PCOD8273512
Probable space group: C M M M
;
_chemical_formula_sum "Si O2"
_cell_formula_units_Z 104
_cell_length_a 14.043497
_cell_length_b 29.636217
_cell_length_c 12.835915
_cell_angle_alpha 90.000000
_cell_angle_beta 90.000000
_cell_angle_gamma 90.000000
_cell_volume 5342.258078
_symmetry_space_group_name_H-M "C M M M"
_symmetry_group_IT_number 65
_symmetry_cell_setting 'orthorhombic'
loop_
_space_group_symop_operation_xyz
x,y,z
-x,-y,z
x,-y,-z
-x,y,-z
-x,-y,-z
x,y,-z
-x,y,z
x,-y,z
1/2+x,1/2+y,z
1/2-x,1/2-y,z
1/2+x,1/2-y,-z
1/2-x,1/2+y,-z
1/2-x,1/2-y,-z
1/2+x,1/2+y,-z
1/2-x,1/2+y,z
1/2+x,1/2-y,z
loop_
_atom_site_type_symbol
_atom_site_label
_atom_site_fract_x
_atom_site_fract_y
_atom_site_fract_z
Si Si1 0.102339 0.051976 0.500000
Si Si2 0.893757 0.450359 0.208763
Si Si3 0.891279 0.644969 0.118146
Si Si4 0.389424 0.447521 0.881143
Si Si5 0.723356 0.583789 0.310693
Si Si6 0.609959 0.740964 0.380065
Si Si7 0.773422 0.317688 0.699717
O O1 0.156342 0.063146 0.395730
O O2 0.000000 0.077434 0.500000
O O3 0.082042 0.000000 0.500000
O O4 0.879437 0.500000 0.155221
O O5 0.874081 0.409131 0.129231
O O6 0.820381 0.445280 0.304542
O O7 0.000000 0.446797 0.254877
O O8 0.817080 0.674569 0.185088
O O9 0.000000 0.656496 0.151027
O O10 0.872365 0.658725 0.000000
O O11 0.500000 0.437416 0.861883
O O12 0.367237 0.500000 0.859177
O O13 0.328364 0.416929 0.802375
O O14 0.361688 0.435083 0.000000
O O15 0.749614 0.633882 0.348307
O O16 0.623212 0.725478 0.500000
O O17 0.500000 0.737111 0.345984
O O18 0.674482 0.710685 0.302122
O O19 0.646661 0.792473 0.369578
#
# Coordination Sequence:
#
# PCOD8273512 Si02
#       7
#     8  16  16  16  16  16  16
#     4  11  24  38  53  78 117 161 196 226 271 339
#     4   9  18  33  52  76 110 153 203 251 282 311
#     4   9  18  33  55  84 118 157 195 231 278 335
#     4   9  18  34  56  81 111 151 200 247 284 321
#     4  11  22  34  56  82 116 152 188 233 284 342
#     4  10  22  41  66  87 108 137 176 232 295 354
#     4  10  21  37  59  85 115 140 179 232 285 338
#
# _framework density 19.467423
#
# number of rings (size 3 to 8) (size 9 to 14) (size 15 to 20)
#    0.000    2.231    0.000    3.692    2.154    5.846 
#    0.000    3.462    0.000    2.769    0.000    2.154 
#    0.000    0.000    0.000    0.000    0.000    0.000 
#
# Total GULP energy -644422.218384 kJ/mol
# GULP energy per Si atom -12392.734969 kJ/mol
# Density = 1.942311 g / cm^3
# Si number density = 19.467423 Si / 1000 Ang^3
#
#
#
# Elastic Constant Matrix: (Units=GPa)
#
#
# Indices 1 2 3 4 5 6 
#
# 1 155.5566 48.6757 65.9876 0.0000 0.0000 0.0000
# 2 48.6757 92.9013 35.5389 0.0000 0.0000 0.0000
# 3 65.9876 35.5389 97.4847 0.0000 0.0000 0.0000
# 4 0.0000 0.0000 0.0000 12.4953 0.0000 0.0000
# 5 0.0000 0.0000 0.0000 0.0000 57.7334 0.0000
# 6 0.0000 0.0000 0.0000 0.0000 0.0000 26.7519
#
#
#
# Elastic Compliance Matrix: (Units=1/GPa)
#
#
# Indices 1 2 3 4 5 6 
#
# 1 0.009680 -0.002981 -0.005466 0.000000 0.000000 0.000000
# 2 -0.002981 0.013427 -0.002877 0.000000 0.000000 0.000000
# 3 -0.005466 -0.002877 0.015006 0.000000 0.000000 0.000000
# 4 0.000000 0.000000 0.000000 0.080030 0.000000 0.000000
# 5 0.000000 0.000000 0.000000 0.000000 0.017321 0.000000
# 6 0.000000 0.000000 0.000000 0.000000 0.000000 0.037381
#
#
# Mechanical properties :
#
#
# Convention : Reuss Voigt Hill
#
# Bulk Modulus (GPa) = 64.65822 71.81632 68.23727
# Shear Modulus (GPa) = 24.91944 32.44549 28.68246
#
# Velocity S-wave (km/s) = 3.58167 4.08690 3.84260
# Velocity P-wave (km/s) = 7.09860 7.69681 7.40375
#
# Compressibility (1/GPa) = 0.01546594
#
# Stress axis : x y z
#
# Youngs Moduli (GPa) = 103.30789 74.47936 66.63782
#
# Poissons Ratio (x) = 0.22202 0.36421
# Poissons Ratio (y) = 0.30795 0.19172
# Poissons Ratio (z) = 0.56464 0.21428
#
# Static dielectric constant tensor:
#      x y z
#    x 3.869800 0.000000 0.000000 
#    y 0.000000 3.546060 0.000000 
#    z 0.000000 0.000000 3.326820 
# 
# 
# High freq. dielectric constant tensor:
#      x y z
#    x 1.781640 0.000000 0.000000 
#    y 0.000000 1.745640 0.000000 
#    z 0.000000 0.000000 1.730300 
# 
# From -- ./inp_files/25583.got.cif
#   From: 2010.03.12/outbox.cif.g09.slc.cpg/sg65_13_cif.got.tgz:25583.got - 2010.04.10 20:52:16.
