data_PCOD8273728
_publ_section_title
;
Structure prediction by ZEFSAII (Michael W. Deem and Ramdas Pophale) SiO2 
 PCOD8273728
Probable space group: C M M M
;
_chemical_formula_sum "Si O2"
_cell_formula_units_Z 88
_cell_length_a 8.837350
_cell_length_b 18.013950
_cell_length_c 27.806335
_cell_angle_alpha 90.000000
_cell_angle_beta 90.000000
_cell_angle_gamma 90.000000
_cell_volume 4426.645657
_symmetry_space_group_name_H-M "C M M M"
_symmetry_group_IT_number 65
_symmetry_cell_setting 'orthorhombic'
loop_
_space_group_symop_operation_xyz
x,y,z
-x,-y,z
x,-y,-z
-x,y,-z
-x,-y,-z
x,y,-z
-x,y,z
x,-y,z
1/2+x,1/2+y,z
1/2-x,1/2-y,z
1/2+x,1/2-y,-z
1/2-x,1/2+y,-z
1/2-x,1/2-y,-z
1/2+x,1/2+y,-z
1/2-x,1/2+y,z
1/2+x,1/2-y,z
loop_
_atom_site_type_symbol
_atom_site_label
_atom_site_fract_x
_atom_site_fract_y
_atom_site_fract_z
Si Si1 0.321868 0.830213 0.906672
Si Si2 0.180105 0.416595 0.000000
Si Si3 0.677073 0.327551 0.444434
Si Si4 0.322160 0.085173 0.636942
Si Si5 0.822998 0.171401 0.724099
Si Si6 0.673993 0.586290 0.820750
O O1 0.500000 0.820903 0.909707
O O2 0.250000 0.750000 0.905410
O O3 0.258731 0.874489 0.952877
O O4 0.281286 0.874451 0.858862
O O5 0.246305 0.500000 0.000000
O O6 0.000000 0.419094 0.000000
O O7 0.712039 0.344105 0.500000
O O8 0.500000 0.323570 0.433780
O O9 0.750000 0.250000 0.428057
O O10 0.751842 0.393926 0.414511
O O11 0.500000 0.098683 0.635433
O O12 0.250362 0.137424 0.676895
O O13 0.281768 0.000000 0.648207
O O14 0.750000 0.250000 0.736489
O O15 0.788635 0.117027 0.768212
O O16 0.000000 0.181781 0.714979
O O17 0.500000 0.601594 0.834620
O O18 0.713079 0.500000 0.820560
#
# Coordination Sequence:
#
# PCOD8273728 Si02
#       6
#    16   8  16  16  16  16
#     4  11  22  37  59  85 116 154 194 237 285 339
#     4   9  19  36  57  83 114 149 192 239 288 342
#     4  10  21  38  61  87 116 152 193 236 283 338
#     4  11  24  40  59  85 117 152 191 237 287 339
#     4  11  23  40  62  86 115 151 190 234 284 339
#     4  10  22  40  61  87 118 150 188 236 288 341
#
# _framework density 19.879612000000002
#
# number of rings (size 3 to 8) (size 9 to 14) (size 15 to 20)
#    0.000    1.545    0.000    4.636    0.000    7.636 
#    0.000    3.182    0.000    3.273    0.000    0.000 
#    0.000    0.000    0.000    0.000    0.000    0.000 
#
# Total GULP energy -545888.415096 kJ/mol
# GULP energy per Si atom -12406.554889 kJ/mol
# Density = 1.983437 g / cm^3
# Si number density = 19.879612 Si / 1000 Ang^3
#
#
#
# Elastic Constant Matrix: (Units=GPa)
#
#
# Indices 1 2 3 4 5 6 
#
# 1 89.7067 51.2414 44.7593 0.0000 0.0000 0.0000
# 2 51.2414 139.7644 54.6286 0.0000 0.0000 0.0000
# 3 44.7593 54.6286 107.2996 0.0000 0.0000 0.0000
# 4 0.0000 0.0000 0.0000 42.8911 0.0000 0.0000
# 5 0.0000 0.0000 0.0000 0.0000 96.1833 0.0000
# 6 0.0000 0.0000 0.0000 0.0000 0.0000 12.2088
#
#
#
# Elastic Compliance Matrix: (Units=1/GPa)
#
#
# Indices 1 2 3 4 5 6 
#
# 1 0.015673 -0.003983 -0.004510 0.000000 0.000000 0.000000
# 2 -0.003983 0.009945 -0.003401 0.000000 0.000000 0.000000
# 3 -0.004510 -0.003401 0.012933 0.000000 0.000000 0.000000
# 4 0.000000 0.000000 0.000000 0.023315 0.000000 0.000000
# 5 0.000000 0.000000 0.000000 0.000000 0.010397 0.000000
# 6 0.000000 0.000000 0.000000 0.000000 0.000000 0.081908
#
#
# Mechanical properties :
#
#
# Convention : Reuss Voigt Hill
#
# Bulk Modulus (GPa) = 67.74576 70.89217 69.31896
# Shear Modulus (GPa) = 27.34026 42.66605 35.00315
#
# Velocity S-wave (km/s) = 3.71252 4.63776 4.20069
# Velocity P-wave (km/s) = 7.24769 8.02599 7.64675
#
# Compressibility (1/GPa) = 0.01476107
#
# Stress axis : x y z
#
# Youngs Moduli (GPa) = 63.80394 100.55463 77.32324
#
# Poissons Ratio (x) = 0.40055 0.34872
# Poissons Ratio (y) = 0.25416 0.26301
# Poissons Ratio (z) = 0.28775 0.34203
#
# Static dielectric constant tensor:
#      x y z
#    x 3.615220 0.000000 0.000000 
#    y 0.000000 3.781910 0.000000 
#    z 0.000000 0.000000 3.739360 
# 
# 
# High freq. dielectric constant tensor:
#      x y z
#    x 1.776640 0.000000 0.000000 
#    y 0.000000 1.788290 0.000000 
#    z 0.000000 0.000000 1.789620 
# 
# From -- ./inp_files/67571.got.cif
#   From: 2010.03.12/outbox.cif.g09.slc.cpg/sg65_34_cif.got.tgz:67571.got - 2010.04.10 20:52:16.
