data_PCOD8273996
_publ_section_title
;
Structure prediction by ZEFSAII (Michael W. Deem and Ramdas Pophale) SiO2 
 PCOD8273996
Probable space group: C M M M
;
_chemical_formula_sum "Si O2"
_cell_formula_units_Z 64
_cell_length_a 14.131449
_cell_length_b 9.697342
_cell_length_c 20.713985
_cell_angle_alpha 90.000000
_cell_angle_beta 90.000000
_cell_angle_gamma 90.000000
_cell_volume 2838.592593
_symmetry_space_group_name_H-M "C M M M"
_symmetry_group_IT_number 65
_symmetry_cell_setting 'orthorhombic'
loop_
_space_group_symop_operation_xyz
x,y,z
-x,-y,z
x,-y,-z
-x,y,-z
-x,-y,-z
x,y,-z
-x,y,z
x,-y,z
1/2+x,1/2+y,z
1/2-x,1/2-y,z
1/2+x,1/2-y,-z
1/2-x,1/2+y,-z
1/2-x,1/2-y,-z
1/2+x,1/2+y,-z
1/2-x,1/2+y,z
1/2+x,1/2-y,z
loop_
_atom_site_type_symbol
_atom_site_label
_atom_site_fract_x
_atom_site_fract_y
_atom_site_fract_z
Si Si1 0.107624 0.845270 0.815510
Si Si2 0.897011 0.349216 0.385672
Si Si3 0.112394 0.654354 0.928934
Si Si4 0.846561 0.832604 0.500000
Si Si5 0.750000 0.250000 0.288034
O O1 0.151605 0.753343 0.873093
O O2 0.176966 0.838445 0.754325
O O3 0.000000 0.799230 0.796812
O O4 0.105963 0.000000 0.841666
O O5 0.885993 0.500000 0.420213
O O6 0.897703 0.221099 0.435572
O O7 0.813797 0.346469 0.333220
O O8 0.000000 0.341614 0.351257
O O9 0.147857 0.500000 0.913501
O O10 0.000000 0.659713 0.928900
O O11 0.149100 0.700803 0.000000
O O12 0.750000 0.750000 0.500000
O O13 0.839372 0.000000 0.500000
#
# Coordination Sequence:
#
# PCOD8273996 Si02
#       5
#    16  16  16   8   8
#     4  10  22  39  60  90 126 164 211 265 319 375
#     4  11  25  45  70  99 132 171 217 266 317 377
#     4   8  15  31  57  87 118 156 204 258 320 387
#     4  12  25  44  73 104 136 170 209 261 320 379
#     4  12  24  41  65  90 128 176 216 260 308 380
#
# _framework density 22.546384
#
# number of rings (size 3 to 8) (size 9 to 14) (size 15 to 20)
#    0.000    1.750    1.250    3.750    0.000    5.500 
#    0.000    5.625    0.000    0.000    0.000    0.000 
#    0.000    0.000    0.000    0.000    0.000    0.000 
#
# Total GULP energy -396499.412386 kJ/mol
# GULP energy per Si atom -12390.606637 kJ/mol
# Density = 2.249507 g / cm^3
# Si number density = 22.546384 Si / 1000 Ang^3
#
#
#
# Elastic Constant Matrix: (Units=GPa)
#
#
# Indices 1 2 3 4 5 6 
#
# 1 122.3959 46.7844 54.0140 0.0000 0.0000 0.0000
# 2 46.7844 158.2952 70.6185 0.0000 0.0000 0.0000
# 3 54.0140 70.6185 140.2319 0.0000 0.0000 0.0000
# 4 0.0000 0.0000 0.0000 14.5205 0.0000 0.0000
# 5 0.0000 0.0000 0.0000 0.0000 19.6612 0.0000
# 6 0.0000 0.0000 0.0000 0.0000 0.0000 18.5617
#
#
#
# Elastic Compliance Matrix: (Units=1/GPa)
#
#
# Indices 1 2 3 4 5 6 
#
# 1 0.010156 -0.001621 -0.003096 0.000000 0.000000 0.000000
# 2 -0.001621 0.008406 -0.003609 0.000000 0.000000 0.000000
# 3 -0.003096 -0.003609 0.010141 0.000000 0.000000 0.000000
# 4 0.000000 0.000000 0.000000 0.068868 0.000000 0.000000
# 5 0.000000 0.000000 0.000000 0.000000 0.050862 0.000000
# 6 0.000000 0.000000 0.000000 0.000000 0.000000 0.053874
#
#
# Mechanical properties :
#
#
# Convention : Reuss Voigt Hill
#
# Bulk Modulus (GPa) = 82.97102 84.86186 83.91644
# Shear Modulus (GPa) = 22.42400 27.18242 24.80321
#
# Velocity S-wave (km/s) = 3.15710 3.47597 3.32037
# Velocity P-wave (km/s) = 7.08306 7.33692 7.21111
#
# Compressibility (1/GPa) = 0.01205240
#
# Stress axis : x y z
#
# Youngs Moduli (GPa) = 98.46616 118.95771 98.61030
#
# Poissons Ratio (x) = 0.19277 0.30527
# Poissons Ratio (y) = 0.15956 0.35590
# Poissons Ratio (z) = 0.30482 0.42933
#
# Static dielectric constant tensor:
#      x y z
#    x 4.131730 0.000000 0.000000 
#    y 0.000000 4.063880 0.000000 
#    z 0.000000 0.000000 4.319360 
# 
# 
# High freq. dielectric constant tensor:
#      x y z
#    x 1.899420 0.000000 0.000000 
#    y 0.000000 1.882380 0.000000 
#    z 0.000000 0.000000 1.876000 
# 
# From -- ./inp_files/69543.got.cif
#   From: 2010.03.12/outbox.cif.g09.slc.cpg/sg65_35_cif.got.tgz:69543.got - 2010.04.10 20:52:16.
