data_PCOD8273497
_publ_section_title
;
Structure prediction by ZEFSAII (Michael W. Deem and Ramdas Pophale) SiO2 
 PCOD8273497
Probable space group: C M M M
;
_chemical_formula_sum "Si O2"
_cell_formula_units_Z 88
_cell_length_a 20.467704
_cell_length_b 8.818460
_cell_length_c 24.396637
_cell_angle_alpha 90.000000
_cell_angle_beta 90.000000
_cell_angle_gamma 90.000000
_cell_volume 4403.437548
_symmetry_space_group_name_H-M "C M M M"
_symmetry_group_IT_number 65
_symmetry_cell_setting 'orthorhombic'
loop_
_space_group_symop_operation_xyz
x,y,z
-x,-y,z
x,-y,-z
-x,y,-z
-x,-y,-z
x,y,-z
-x,y,z
x,-y,z
1/2+x,1/2+y,z
1/2-x,1/2-y,z
1/2+x,1/2-y,-z
1/2-x,1/2+y,-z
1/2-x,1/2-y,-z
1/2+x,1/2+y,-z
1/2-x,1/2+y,z
1/2+x,1/2-y,z
loop_
_atom_site_type_symbol
_atom_site_label
_atom_site_fract_x
_atom_site_fract_y
_atom_site_fract_z
Si Si1 0.075027 0.177762 0.137834
Si Si2 0.817224 0.324906 0.064606
Si Si3 0.424929 0.177992 0.253341
Si Si4 0.684797 0.321834 0.674708
Si Si5 0.500000 0.662863 0.436108
Si Si6 0.860971 0.180193 0.560158
O O1 0.120651 0.242034 0.090326
O O2 0.094669 0.256788 0.194437
O O3 0.000000 0.214503 0.122226
O O4 0.086696 0.000000 0.144346
O O5 0.816880 0.500000 0.081992
O O6 0.750000 0.250000 0.085969
O O7 0.823834 0.303599 0.000000
O O8 0.500000 0.217752 0.267633
O O9 0.379911 0.254002 0.298807
O O10 0.412482 0.000000 0.252576
O O11 0.685418 0.500000 0.684728
O O12 0.750000 0.250000 0.701228
O O13 0.687029 0.277697 0.609782
O O14 0.500000 0.500000 0.404601
O O15 0.500000 0.629954 0.500000
O O16 0.567712 0.751587 0.423218
O O17 0.836735 0.241429 0.500000
O O18 0.869893 0.000000 0.556255
#
# Coordination Sequence:
#
# PCOD8273497 Si02
#       6
#    16  16  16  16   8  16
#     4  10  21  38  61  89 119 151 192 240 289 342
#     4  10  21  37  58  86 122 163 204 243 285 336
#     4  10  22  41  63  85 112 146 186 236 292 346
#     4  11  23  37  56  82 114 148 188 233 280 339
#     4   7  10  20  40  68  99 127 163 211 258 309
#     4   8  15  28  48  76 108 141 178 223 275 332
#
# _framework density 19.984386000000001
#
# number of rings (size 3 to 8) (size 9 to 14) (size 15 to 20)
#    0.000    2.455    0.000    3.273    1.273    4.727 
#    0.000    5.455    0.000    1.636    0.000    1.273 
#    0.000    0.000    0.000    0.000    0.000    0.000 
#
# Total GULP energy -545303.660068 kJ/mol
# GULP energy per Si atom -12393.265002 kJ/mol
# Density = 1.993890 g / cm^3
# Si number density = 19.984386 Si / 1000 Ang^3
#
#
#
# Elastic Constant Matrix: (Units=GPa)
#
#
# Indices 1 2 3 4 5 6 
#
# 1 111.7771 53.3096 49.6908 0.0000 0.0000 0.0000
# 2 53.3096 97.5529 41.4742 0.0000 0.0000 0.0000
# 3 49.6908 41.4742 67.5423 0.0000 0.0000 0.0000
# 4 0.0000 0.0000 0.0000 22.7980 0.0000 0.0000
# 5 0.0000 0.0000 0.0000 0.0000 23.7453 0.0000
# 6 0.0000 0.0000 0.0000 0.0000 0.0000 27.1599
#
#
#
# Elastic Compliance Matrix: (Units=1/GPa)
#
#
# Indices 1 2 3 4 5 6 
#
# 1 0.014704 -0.004650 -0.007962 0.000000 0.000000 0.000000
# 2 -0.004650 0.015343 -0.006000 0.000000 0.000000 0.000000
# 3 -0.007962 -0.006000 0.024348 0.000000 0.000000 0.000000
# 4 0.000000 0.000000 0.000000 0.043863 0.000000 0.000000
# 5 0.000000 0.000000 0.000000 0.000000 0.042114 0.000000
# 6 0.000000 0.000000 0.000000 0.000000 0.000000 0.036819
#
#
# Mechanical properties :
#
#
# Convention : Reuss Voigt Hill
#
# Bulk Modulus (GPa) = 58.24297 62.86907 60.55602
# Shear Modulus (GPa) = 22.71297 23.56716 23.14006
#
# Velocity S-wave (km/s) = 3.37491 3.43779 3.40649
# Velocity P-wave (km/s) = 6.66290 6.87643 6.77050
#
# Compressibility (1/GPa) = 0.01716945
#
# Stress axis : x y z
#
# Youngs Moduli (GPa) = 68.01010 65.17652 41.07150
#
# Poissons Ratio (x) = 0.30307 0.32702
# Poissons Ratio (y) = 0.31625 0.24644
# Poissons Ratio (z) = 0.54151 0.39108
#
# Static dielectric constant tensor:
#      x y z
#    x 3.830940 0.000000 0.000000 
#    y 0.000000 3.429520 0.000000 
#    z 0.000000 0.000000 3.581790 
# 
# 
# High freq. dielectric constant tensor:
#      x y z
#    x 1.790240 0.000000 0.000000 
#    y 0.000000 1.761140 0.000000 
#    z 0.000000 0.000000 1.771610 
# 
# From -- ./inp_files/70994.got.cif
#   From: 2010.03.12/outbox.cif.g09.slc.cpg/sg65_36_cif.got.tgz:70994.got - 2010.04.10 20:52:16.
