data_PCOD8273667
_publ_section_title
;
Structure prediction by ZEFSAII (Michael W. Deem and Ramdas Pophale) SiO2 
 PCOD8273667
Probable space group: C M M M
;
_chemical_formula_sum "Si O2"
_cell_formula_units_Z 64
_cell_length_a 20.500057
_cell_length_b 8.733430
_cell_length_c 17.229173
_cell_angle_alpha 90.000000
_cell_angle_beta 90.000000
_cell_angle_gamma 90.000000
_cell_volume 3084.638992
_symmetry_space_group_name_H-M "C M M M"
_symmetry_group_IT_number 65
_symmetry_cell_setting 'orthorhombic'
loop_
_space_group_symop_operation_xyz
x,y,z
-x,-y,z
x,-y,-z
-x,y,-z
-x,-y,-z
x,y,-z
-x,y,z
x,-y,z
1/2+x,1/2+y,z
1/2-x,1/2-y,z
1/2+x,1/2-y,-z
1/2-x,1/2+y,-z
1/2-x,1/2-y,-z
1/2+x,1/2+y,-z
1/2-x,1/2+y,z
1/2+x,1/2-y,z
loop_
_atom_site_type_symbol
_atom_site_label
_atom_site_fract_x
_atom_site_fract_y
_atom_site_fract_z
Si Si1 0.000000 0.829533 0.908800
Si Si2 0.075322 0.680606 0.340725
Si Si3 0.077258 0.828398 0.500000
Si Si4 0.815801 0.180288 0.765181
Si Si5 0.366152 0.819803 0.089209
O O1 0.062335 0.732499 0.883050
O O2 0.000000 0.000000 0.870472
O O3 0.000000 0.849577 0.000000
O O4 0.083247 0.500000 0.338281
O O5 0.101428 0.739704 0.423735
O O6 0.119561 0.755031 0.274894
O O7 0.000000 0.729380 0.326423
O O8 0.000000 0.833105 0.500000
O O9 0.106452 0.000000 0.500000
O O10 0.750000 0.250000 0.727110
O O11 0.815840 0.230580 0.855747
O O12 0.814131 0.000000 0.756851
O O13 0.359592 0.000000 0.102032
O O14 0.352002 0.773975 0.000000
#
# Coordination Sequence:
#
# PCOD8273667 Si02
#       5
#     8  16   8  16  16
#     4   9  17  31  53  83 115 146 187 242 299 353
#     4  10  21  39  65  95 127 163 203 247 300 361
#     4   9  17  33  60  95 130 161 200 247 295 351
#     4  12  26  43  62  86 122 162 206 256 310 368
#     4  10  21  38  60  85 116 156 202 252 307 365
#
# _framework density 20.747969999999999
#
# number of rings (size 3 to 8) (size 9 to 14) (size 15 to 20)
#    0.000    1.750    0.000    4.500    1.750    6.500 
#    0.000    0.625    0.000    0.000    0.000    0.000 
#    0.000    0.000    0.000    0.000    0.000    0.000 
#
# Total GULP energy -396839.298475 kJ/mol
# GULP energy per Si atom -12401.228077 kJ/mol
# Density = 2.070075 g / cm^3
# Si number density = 20.747970 Si / 1000 Ang^3
#
#
#
# Elastic Constant Matrix: (Units=GPa)
#
#
# Indices 1 2 3 4 5 6 
#
# 1 93.8168 51.1778 46.8073 0.0000 0.0000 0.0000
# 2 51.1778 144.5163 50.5526 0.0000 0.0000 0.0000
# 3 46.8073 50.5526 105.7341 0.0000 0.0000 0.0000
# 4 0.0000 0.0000 0.0000 38.9073 0.0000 0.0000
# 5 0.0000 0.0000 0.0000 0.0000 22.4291 0.0000
# 6 0.0000 0.0000 0.0000 0.0000 0.0000 33.9195
#
#
#
# Elastic Compliance Matrix: (Units=1/GPa)
#
#
# Indices 1 2 3 4 5 6 
#
# 1 0.015105 -0.003615 -0.004959 0.000000 0.000000 0.000000
# 2 -0.003615 0.009174 -0.002786 0.000000 0.000000 0.000000
# 3 -0.004959 -0.002786 0.012985 0.000000 0.000000 0.000000
# 4 0.000000 0.000000 0.000000 0.025702 0.000000 0.000000
# 5 0.000000 0.000000 0.000000 0.000000 0.044585 0.000000
# 6 0.000000 0.000000 0.000000 0.000000 0.000000 0.029482
#
#
# Mechanical properties :
#
#
# Convention : Reuss Voigt Hill
#
# Bulk Modulus (GPa) = 68.75054 71.23805 69.99430
# Shear Modulus (GPa) = 30.37675 32.08648 31.23162
#
# Velocity S-wave (km/s) = 3.83048 3.93681 3.88401
# Velocity P-wave (km/s) = 7.26440 7.42119 7.34321
#
# Compressibility (1/GPa) = 0.01454534
#
# Stress axis : x y z
#
# Youngs Moduli (GPa) = 66.20429 109.00030 77.01261
#
# Poissons Ratio (x) = 0.39399 0.38187
# Poissons Ratio (y) = 0.23930 0.21457
# Poissons Ratio (z) = 0.32828 0.30370
#
# Static dielectric constant tensor:
#      x y z
#    x 3.757370 0.000000 0.000000 
#    y 0.000000 3.845220 0.000000 
#    z 0.000000 0.000000 3.816110 
# 
# 
# High freq. dielectric constant tensor:
#      x y z
#    x 1.796070 0.000000 0.000000 
#    y 0.000000 1.826060 0.000000 
#    z 0.000000 0.000000 1.807660 
# 
# From -- ./inp_files/55282.got.cif
#   From: 2010.03.12/outbox.cif.g09.slc.cpg/sg65_28_cif.got.tgz:55282.got - 2010.04.10 20:52:16.
