data_PCOD8273711
_publ_section_title
;
Structure prediction by ZEFSAII (Michael W. Deem and Ramdas Pophale) SiO2 
 PCOD8273711
Probable space group: C M M M
;
_chemical_formula_sum "Si O2"
_cell_formula_units_Z 64
_cell_length_a 8.718690
_cell_length_b 18.601856
_cell_length_c 20.523190
_cell_angle_alpha 90.000000
_cell_angle_beta 90.000000
_cell_angle_gamma 90.000000
_cell_volume 3328.529268
_symmetry_space_group_name_H-M "C M M M"
_symmetry_group_IT_number 65
_symmetry_cell_setting 'orthorhombic'
loop_
_space_group_symop_operation_xyz
x,y,z
-x,-y,z
x,-y,-z
-x,y,-z
-x,-y,-z
x,y,-z
-x,y,z
x,-y,z
1/2+x,1/2+y,z
1/2-x,1/2-y,z
1/2+x,1/2-y,-z
1/2-x,1/2+y,-z
1/2-x,1/2-y,-z
1/2+x,1/2+y,-z
1/2-x,1/2+y,z
1/2+x,1/2-y,z
loop_
_atom_site_type_symbol
_atom_site_label
_atom_site_fract_x
_atom_site_fract_y
_atom_site_fract_z
Si Si1 0.680404 0.329019 0.800438
Si Si2 0.679183 0.325698 0.424366
Si Si3 0.322409 0.915770 0.315690
Si Si4 0.179624 0.671485 0.070512
O O1 0.500000 0.321743 0.803702
O O2 0.750000 0.250000 0.791040
O O3 0.726054 0.378856 0.740893
O O4 0.741250 0.367098 0.867509
O O5 0.711653 0.340408 0.500000
O O6 0.500000 0.324694 0.408136
O O7 0.750000 0.250000 0.402081
O O8 0.762148 0.388906 0.385346
O O9 0.500000 0.895870 0.307570
O O10 0.293445 0.000000 0.311974
O O11 0.250000 0.750000 0.066758
O O12 0.000000 0.676987 0.084277
O O13 0.210237 0.632794 0.000000
#
# Coordination Sequence:
#
# PCOD8273711 Si02
#       4
#    16  16  16  16
#     4  11  21  34  55  80 109 143 181 225 270 321
#     4  10  21  38  61  87 114 143 177 219 265 316
#     4  11  24  40  57  78 108 145 183 224 270 321
#     4   9  16  27  46  74 107 139 174 219 269 319
#
# _framework density 19.227710999999999
#
# number of rings (size 3 to 8) (size 9 to 14) (size 15 to 20)
#    0.000    1.750    0.000    6.750    0.000    5.500 
#    0.000    2.500    0.000    0.750    0.000    5.250 
#    0.000    0.000    0.000    0.000    0.000    0.000 
#
# Total GULP energy -396730.584739 kJ/mol
# GULP energy per Si atom -12397.830773 kJ/mol
# Density = 1.918395 g / cm^3
# Si number density = 19.227711 Si / 1000 Ang^3
#
#
#
# Elastic Constant Matrix: (Units=GPa)
#
#
# Indices 1 2 3 4 5 6 
#
# 1 145.7074 47.7000 59.2398 0.0000 0.0000 0.0000
# 2 47.7000 61.6908 48.8560 0.0000 0.0000 0.0000
# 3 59.2398 48.8560 127.9496 0.0000 0.0000 0.0000
# 4 0.0000 0.0000 0.0000 10.3690 0.0000 0.0000
# 5 0.0000 0.0000 0.0000 0.0000 33.9296 0.0000
# 6 0.0000 0.0000 0.0000 0.0000 0.0000 25.1379
#
#
#
# Elastic Compliance Matrix: (Units=1/GPa)
#
#
# Indices 1 2 3 4 5 6 
#
# 1 0.009647 -0.005622 -0.002320 0.000000 0.000000 0.000000
# 2 -0.005622 0.026513 -0.007521 0.000000 0.000000 0.000000
# 3 -0.002320 -0.007521 0.011761 0.000000 0.000000 0.000000
# 4 0.000000 0.000000 0.000000 0.096441 0.000000 0.000000
# 5 0.000000 0.000000 0.000000 0.000000 0.029473 0.000000
# 6 0.000000 0.000000 0.000000 0.000000 0.000000 0.039781
#
#
# Mechanical properties :
#
#
# Convention : Reuss Voigt Hill
#
# Bulk Modulus (GPa) = 58.83666 71.88215 65.35940
# Shear Modulus (GPa) = 19.98361 25.85744 22.92053
#
# Velocity S-wave (km/s) = 3.22734 3.67113 3.45636
# Velocity P-wave (km/s) = 6.67487 7.44550 7.07069
#
# Compressibility (1/GPa) = 0.01699621
#
# Stress axis : x y z
#
# Youngs Moduli (GPa) = 103.66392 37.71782 85.02483
#
# Poissons Ratio (x) = 0.21204 0.19723
# Poissons Ratio (y) = 0.58277 0.63945
# Poissons Ratio (z) = 0.24047 0.28366
#
# Static dielectric constant tensor:
#      x y z
#    x 3.722650 0.000000 0.000000 
#    y 0.000000 3.187010 0.000000 
#    z 0.000000 0.000000 4.256510 
# 
# 
# High freq. dielectric constant tensor:
#      x y z
#    x 1.769580 0.000000 0.000000 
#    y 0.000000 1.700100 0.000000 
#    z 0.000000 0.000000 1.775940 
# 
# From -- ./inp_files/58753.got.cif
#   From: 2010.03.12/outbox.cif.g09.slc.cpg/sg65_30_cif.got.tgz:58753.got - 2010.04.10 20:52:16.
