data_PCOD8273708
_publ_section_title
;
Structure prediction by ZEFSAII (Michael W. Deem and Ramdas Pophale) SiO2 
 PCOD8273708
Probable space group: C M M M
;
_chemical_formula_sum "Si O2"
_cell_formula_units_Z 88
_cell_length_a 8.081093
_cell_length_b 18.683199
_cell_length_c 29.608676
_cell_angle_alpha 90.000000
_cell_angle_beta 90.000000
_cell_angle_gamma 90.000000
_cell_volume 4470.337701
_symmetry_space_group_name_H-M "C M M M"
_symmetry_group_IT_number 65
_symmetry_cell_setting 'orthorhombic'
loop_
_space_group_symop_operation_xyz
x,y,z
-x,-y,z
x,-y,-z
-x,y,-z
-x,-y,-z
x,y,-z
-x,y,z
x,-y,z
1/2+x,1/2+y,z
1/2-x,1/2-y,z
1/2+x,1/2-y,-z
1/2-x,1/2+y,-z
1/2-x,1/2-y,-z
1/2+x,1/2+y,-z
1/2-x,1/2+y,z
1/2+x,1/2-y,z
loop_
_atom_site_type_symbol
_atom_site_label
_atom_site_fract_x
_atom_site_fract_y
_atom_site_fract_z
Si Si1 0.196250 0.918048 0.703263
Si Si2 0.311042 0.670236 0.213270
Si Si3 0.190894 0.418965 0.131157
Si Si4 0.694638 0.672057 0.948468
Si Si5 0.500000 0.414625 0.551307
Si Si6 0.815279 0.414974 0.393414
O O1 0.271751 0.871127 0.744447
O O2 0.282671 0.889659 0.657771
O O3 0.000000 0.910976 0.697116
O O4 0.244823 0.000000 0.713408
O O5 0.500000 0.674172 0.225785
O O6 0.250000 0.750000 0.206728
O O7 0.290537 0.627562 0.166959
O O8 0.257898 0.500000 0.132077
O O9 0.216614 0.388054 0.081142
O O10 0.000000 0.415831 0.144379
O O11 0.500000 0.664126 0.943182
O O12 0.750000 0.750000 0.931163
O O13 0.752654 0.660631 0.000000
O O14 0.500000 0.500000 0.554136
O O15 0.500000 0.387360 0.500000
O O16 0.331780 0.384284 0.574728
O O17 0.808073 0.500000 0.395520
O O18 0.000000 0.388437 0.408518
#
# Coordination Sequence:
#
# PCOD8273708 Si02
#       6
#    16  16  16  16   8  16
#     4   9  17  32  53  74 100 138 181 223 270 327
#     4  11  23  38  57  80 110 146 180 225 274 328
#     4  11  24  40  58  81 111 145 183 227 274 328
#     4  10  21  38  61  86 112 144 182 225 273 328
#     4   9  16  26  40  62 100 142 178 222 270 324
#     4   9  16  26  43  67  96 135 179 222 270 324
#
# _framework density 19.685313000000001
#
# number of rings (size 3 to 8) (size 9 to 14) (size 15 to 20)
#    0.000    2.091    0.909    2.727    0.000    5.455 
#    0.000    5.455    0.000    0.000    0.000    0.000 
#    0.000    0.727    0.364    0.000    0.000    0.000 
#
# Total GULP energy -545559.040335 kJ/mol
# GULP energy per Si atom -12399.069099 kJ/mol
# Density = 1.964051 g / cm^3
# Si number density = 19.685313 Si / 1000 Ang^3
#
#
#
# Elastic Constant Matrix: (Units=GPa)
#
#
# Indices 1 2 3 4 5 6 
#
# 1 79.5980 24.6749 42.3320 0.0000 0.0000 0.0000
# 2 24.6749 103.3653 56.5103 0.0000 0.0000 0.0000
# 3 42.3320 56.5103 132.1435 0.0000 0.0000 0.0000
# 4 0.0000 0.0000 0.0000 11.7640 0.0000 0.0000
# 5 0.0000 0.0000 0.0000 0.0000 21.4500 0.0000
# 6 0.0000 0.0000 0.0000 0.0000 0.0000 14.1929
#
#
#
# Elastic Compliance Matrix: (Units=1/GPa)
#
#
# Indices 1 2 3 4 5 6 
#
# 1 0.015269 -0.001267 -0.004350 0.000000 0.000000 0.000000
# 2 -0.001267 0.012732 -0.005039 0.000000 0.000000 0.000000
# 3 -0.004350 -0.005039 0.011116 0.000000 0.000000 0.000000
# 4 0.000000 0.000000 0.000000 0.085005 0.000000 0.000000
# 5 0.000000 0.000000 0.000000 0.000000 0.046620 0.000000
# 6 0.000000 0.000000 0.000000 0.000000 0.000000 0.070458
#
#
# Mechanical properties :
#
#
# Convention : Reuss Voigt Hill
#
# Bulk Modulus (GPa) = 56.16171 62.46014 59.31092
# Shear Modulus (GPa) = 18.62579 22.25403 20.43991
#
# Velocity S-wave (km/s) = 3.07934 3.36592 3.22581
# Velocity P-wave (km/s) = 6.42143 6.84866 6.63848
#
# Compressibility (1/GPa) = 0.01780573
#
# Stress axis : x y z
#
# Youngs Moduli (GPa) = 65.49166 78.54507 89.96306
#
# Poissons Ratio (x) = 0.09952 0.39130
# Poissons Ratio (y) = 0.08298 0.45329
# Poissons Ratio (z) = 0.28486 0.39576
#
# Static dielectric constant tensor:
#      x y z
#    x 3.696420 0.000000 0.000000 
#    y 0.000000 3.152830 0.000000 
#    z 0.000000 0.000000 3.660240 
# 
# 
# High freq. dielectric constant tensor:
#      x y z
#    x 1.774040 0.000000 0.000000 
#    y 0.000000 1.728970 0.000000 
#    z 0.000000 0.000000 1.772200 
# 
# From -- ./inp_files/76651.got.cif
#   From: 2010.03.12/outbox.cif.g09.slc.cpg/sg65_39_cif.got.tgz:76651.got - 2010.04.10 20:52:16.
