data_PCOD8273687
_publ_section_title
;
Structure prediction by ZEFSAII (Michael W. Deem and Ramdas Pophale) SiO2 
 PCOD8273687
Probable space group: C M M M
;
_chemical_formula_sum "Si O2"
_cell_formula_units_Z 96
_cell_length_a 14.368067
_cell_length_b 21.189609
_cell_length_c 16.496317
_cell_angle_alpha 90.000000
_cell_angle_beta 90.000000
_cell_angle_gamma 90.000000
_cell_volume 5022.365107
_symmetry_space_group_name_H-M "C M M M"
_symmetry_group_IT_number 65
_symmetry_cell_setting 'orthorhombic'
loop_
_space_group_symop_operation_xyz
x,y,z
-x,-y,z
x,-y,-z
-x,y,-z
-x,-y,-z
x,y,-z
-x,y,z
x,-y,z
1/2+x,1/2+y,z
1/2-x,1/2-y,z
1/2+x,1/2-y,-z
1/2-x,1/2+y,-z
1/2-x,1/2-y,-z
1/2+x,1/2+y,-z
1/2-x,1/2+y,z
1/2+x,1/2-y,z
loop_
_atom_site_type_symbol
_atom_site_label
_atom_site_fract_x
_atom_site_fract_y
_atom_site_fract_z
Si Si1 0.106613 0.781171 0.665411
Si Si2 0.897916 0.572503 0.675414
Si Si3 0.717541 0.167494 0.593426
Si Si4 0.889218 0.617559 0.000000
Si Si5 0.105830 0.241942 0.000000
Si Si6 0.323655 0.694323 0.834963
Si Si7 0.203345 0.572009 0.160138
O O1 0.173804 0.831250 0.619514
O O2 0.153376 0.713467 0.647910
O O3 0.104290 0.796186 0.761274
O O4 0.000000 0.784561 0.633174
O O5 0.903583 0.500000 0.654259
O O6 0.823188 0.598892 0.611256
O O7 0.868198 0.584558 0.767517
O O8 0.000000 0.603702 0.663837
O O9 0.708115 0.186489 0.500000
O O10 0.853259 0.580721 0.922128
O O11 0.844201 0.688942 0.000000
O O12 0.000000 0.617052 0.000000
O O13 0.127383 0.200850 0.078649
O O14 0.000000 0.260622 0.000000
O O15 0.250000 0.750000 0.824744
O O16 0.284877 0.623209 0.831112
O O17 0.243291 0.500000 0.163622
#
# Coordination Sequence:
#
# PCOD8273687 Si02
#       7
#    16  16  16   8   8  16  16
#     4  11  22  38  62  88 117 156 196 241 299 354
#     4  10  21  38  60  86 120 160 195 235 295 365
#     4  11  23  39  59  89 123 150 191 251 302 360
#     4  11  22  34  54  88 123 160 197 239 293 353
#     4  11  24  36  55  89 123 157 201 246 290 344
#     4  12  20  39  61  84 118 158 200 246 289 350
#     4  11  22  37  58  85 119 158 199 246 296 351
#
# _framework density 19.114498999999999
#
# number of rings (size 3 to 8) (size 9 to 14) (size 15 to 20)
#    0.000    1.000    5.000    3.500    0.000    4.000 
#    0.000    0.833    0.000    4.000    0.000    1.167 
#    0.000    0.000    0.000    0.000    0.000    0.000 
#
# Total GULP energy -595056.628143 kJ/mol
# GULP energy per Si atom -12397.013086 kJ/mol
# Density = 1.907099 g / cm^3
# Si number density = 19.114499 Si / 1000 Ang^3
#
#
#
# Elastic Constant Matrix: (Units=GPa)
#
#
# Indices 1 2 3 4 5 6 
#
# 1 116.5412 39.5908 40.6063 0.0000 0.0000 0.0000
# 2 39.5908 92.2438 36.6217 0.0000 0.0000 0.0000
# 3 40.6063 36.6217 122.8165 0.0000 0.0000 0.0000
# 4 0.0000 0.0000 0.0000 5.1357 0.0000 0.0000
# 5 0.0000 0.0000 0.0000 0.0000 16.0254 0.0000
# 6 0.0000 0.0000 0.0000 0.0000 0.0000 26.4809
#
#
#
# Elastic Compliance Matrix: (Units=1/GPa)
#
#
# Indices 1 2 3 4 5 6 
#
# 1 0.010658 -0.003602 -0.002450 0.000000 0.000000 0.000000
# 2 -0.003602 0.013514 -0.002839 0.000000 0.000000 0.000000
# 3 -0.002450 -0.002839 0.009799 0.000000 0.000000 0.000000
# 4 0.000000 0.000000 0.000000 0.194717 0.000000 0.000000
# 5 0.000000 0.000000 0.000000 0.000000 0.062401 0.000000
# 6 0.000000 0.000000 0.000000 0.000000 0.000000 0.037763
#
#
# Mechanical properties :
#
#
# Convention : Reuss Voigt Hill
#
# Bulk Modulus (GPa) = 61.76767 62.80435 62.28601
# Shear Modulus (GPa) = 14.20341 23.84722 19.02532
#
# Velocity S-wave (km/s) = 2.72889 3.53597 3.15831
# Velocity P-wave (km/s) = 6.50491 7.04266 6.77912
#
# Compressibility (1/GPa) = 0.01618970
#
# Stress axis : x y z
#
# Youngs Moduli (GPa) = 93.82815 73.99907 102.05497
#
# Poissons Ratio (x) = 0.26652 0.25001
# Poissons Ratio (y) = 0.33794 0.28971
# Poissons Ratio (z) = 0.22986 0.21006
#
# Static dielectric constant tensor:
#      x y z
#    x 3.501120 0.000000 0.000000 
#    y 0.000000 3.557810 0.000000 
#    z 0.000000 0.000000 3.369570 
# 
# 
# High freq. dielectric constant tensor:
#      x y z
#    x 1.729230 0.000000 0.000000 
#    y 0.000000 1.734830 0.000000 
#    z 0.000000 0.000000 1.756150 
# 
# From -- ./inp_files/40432.got.cif
#   From: 2010.03.12/outbox.cif.g09.slc.cpg/sg65_21_cif.got.tgz:40432.got - 2010.04.10 20:52:16.
