data_PCOD8273782
_publ_section_title
;
Structure prediction by ZEFSAII (Michael W. Deem and Ramdas Pophale) SiO2 
 PCOD8273782
Probable space group: C M M M
;
_chemical_formula_sum "Si O2"
_cell_formula_units_Z 64
_cell_length_a 8.875884
_cell_length_b 33.029671
_cell_length_c 10.804835
_cell_angle_alpha 90.000000
_cell_angle_beta 90.000000
_cell_angle_gamma 90.000000
_cell_volume 3167.626771
_symmetry_space_group_name_H-M "C M M M"
_symmetry_group_IT_number 65
_symmetry_cell_setting 'orthorhombic'
loop_
_space_group_symop_operation_xyz
x,y,z
-x,-y,z
x,-y,-z
-x,y,-z
-x,-y,-z
x,y,-z
-x,y,z
x,-y,z
1/2+x,1/2+y,z
1/2-x,1/2-y,z
1/2+x,1/2-y,-z
1/2-x,1/2+y,-z
1/2-x,1/2-y,-z
1/2+x,1/2+y,-z
1/2-x,1/2+y,z
1/2+x,1/2-y,z
loop_
_atom_site_type_symbol
_atom_site_label
_atom_site_fract_x
_atom_site_fract_y
_atom_site_fract_z
Si Si1 0.822271 0.660268 0.253641
Si Si2 0.163872 0.500000 0.640669
Si Si3 0.821766 0.074606 0.245248
Si Si4 0.176365 0.292823 0.500000
Si Si5 0.821950 0.294378 0.000000
Si Si6 0.830200 0.452124 0.000000
O O1 0.737917 0.618561 0.279238
O O2 0.772175 0.685897 0.372974
O O3 0.770453 0.681461 0.124305
O O4 0.000000 0.652255 0.250135
O O5 0.121949 0.500000 0.500000
O O6 0.257568 0.459611 0.664995
O O7 0.000000 0.500000 0.713386
O O8 0.765114 0.064417 0.110930
O O9 0.000000 0.073891 0.253025
O O10 0.250000 0.250000 0.500000
O O11 0.000000 0.287640 0.500000
O O12 0.750000 0.250000 0.000000
O O13 0.000000 0.288532 0.000000
O O14 0.834323 0.500000 0.000000
O O15 0.000000 0.434188 0.000000
#
# Coordination Sequence:
#
# PCOD8273782 Si02
#       6
#    16   8  16   8   8   8
#     4  10  22  40  61  89 124 167 210 253 309 384
#     4  11  25  44  65  86 119 171 217 255 308 379
#     4  12  25  40  63  95 128 160 205 266 318 361
#     4  10  22  40  64  91 122 161 208 258 313 376
#     4  10  21  38  63  90 121 158 203 255 313 373
#     4  11  22  39  64  88 118 165 210 247 304 375
#
# _framework density 20.204401000000001
#
# number of rings (size 3 to 8) (size 9 to 14) (size 15 to 20)
#    0.000    1.250    1.250    4.500    1.750    4.500 
#    0.000    0.000    0.000    0.000    0.000    0.000 
#    0.000    0.000    0.000    0.000    0.000    0.000 
#
# Total GULP energy -396734.680969 kJ/mol
# GULP energy per Si atom -12397.958780 kJ/mol
# Density = 2.015841 g / cm^3
# Si number density = 20.204401 Si / 1000 Ang^3
#
#
#
# Elastic Constant Matrix: (Units=GPa)
#
#
# Indices 1 2 3 4 5 6 
#
# 1 102.8101 81.2324 44.1354 0.0000 0.0000 0.0000
# 2 81.2324 188.3190 75.4427 0.0000 0.0000 0.0000
# 3 44.1354 75.4427 153.7994 0.0000 0.0000 0.0000
# 4 0.0000 0.0000 0.0000 -92.1616 0.0000 0.0000
# 5 0.0000 0.0000 0.0000 0.0000 18.1048 0.0000
# 6 0.0000 0.0000 0.0000 0.0000 0.0000 28.9389
#
#
#
# Elastic Compliance Matrix: (Units=1/GPa)
#
#
# Indices 1 2 3 4 5 6 
#
# 1 0.014996 -0.005905 -0.001407 0.000000 0.000000 0.000000
# 2 -0.005905 0.008934 -0.002688 0.000000 0.000000 0.000000
# 3 -0.001407 -0.002688 0.008224 0.000000 0.000000 0.000000
# 4 0.000000 0.000000 0.000000 -0.010851 0.000000 0.000000
# 5 0.000000 0.000000 0.000000 0.000000 0.055234 0.000000
# 6 0.000000 0.000000 0.000000 0.000000 0.000000 0.034556
#
#
# Mechanical properties :
#
#
# Convention : Reuss Voigt Hill
#
# Bulk Modulus (GPa) = 82.27071 94.06108 88.16589
# Shear Modulus (GPa) = 36.99727 7.25095 22.12411
#
# Velocity S-wave (km/s) = 4.28384 1.89647 3.31269
# Velocity P-wave (km/s) = 8.07935 7.17295 7.63961
#
# Compressibility (1/GPa) = 0.01215499
#
# Stress axis : x y z
#
# Youngs Moduli (GPa) = 66.68251 111.92988 121.59314
#
# Poissons Ratio (x) = 0.66097 0.17106
# Poissons Ratio (y) = 0.39377 0.32682
# Poissons Ratio (z) = 0.09381 0.30085
#
# Static dielectric constant tensor:
#      x y z
#    x 3.686680 0.000000 0.000000 
#    y 0.000000 3.412850 0.000000 
#    z 0.000000 0.000000 4.048810 
# 
# 
# High freq. dielectric constant tensor:
#      x y z
#    x 1.788870 0.000000 0.000000 
#    y 0.000000 1.802430 0.000000 
#    z 0.000000 0.000000 1.806050 
# 
# From -- ./inp_files/21055.got.cif
#   From: 2010.03.12/outbox.cif.g09.slc.cpg/sg65_11_cif.got.tgz:21055.got - 2010.04.10 20:52:16.
