data_PCOD8273851
_publ_section_title
;
Structure prediction by ZEFSAII (Michael W. Deem and Ramdas Pophale) SiO2 
 PCOD8273851
Probable space group: C M M M
;
_chemical_formula_sum "Si O2"
_cell_formula_units_Z 72
_cell_length_a 19.425254
_cell_length_b 8.963743
_cell_length_c 19.647168
_cell_angle_alpha 90.000000
_cell_angle_beta 90.000000
_cell_angle_gamma 90.000000
_cell_volume 3421.023530
_symmetry_space_group_name_H-M "C M M M"
_symmetry_group_IT_number 65
_symmetry_cell_setting 'orthorhombic'
loop_
_space_group_symop_operation_xyz
x,y,z
-x,-y,z
x,-y,-z
-x,y,-z
-x,-y,-z
x,y,-z
-x,y,z
x,-y,z
1/2+x,1/2+y,z
1/2-x,1/2-y,z
1/2+x,1/2-y,-z
1/2-x,1/2+y,-z
1/2-x,1/2-y,-z
1/2+x,1/2+y,-z
1/2-x,1/2+y,z
1/2+x,1/2-y,z
loop_
_atom_site_type_symbol
_atom_site_label
_atom_site_fract_x
_atom_site_fract_y
_atom_site_fract_z
Si Si1 0.000000 0.337652 0.419648
Si Si2 0.866043 0.829758 0.425107
Si Si3 0.678157 0.674408 0.920989
Si Si4 0.317624 0.672816 0.282567
Si Si5 0.580740 0.823538 0.814624
O O1 0.932387 0.253418 0.396152
O O2 0.000000 0.500000 0.384664
O O3 0.000000 0.351414 0.500000
O O4 0.840503 0.769290 0.500000
O O5 0.811110 0.809232 0.364880
O O6 0.887450 0.000000 0.433841
O O7 0.682448 0.500000 0.902905
O O8 0.750000 0.750000 0.899595
O O9 0.615687 0.750118 0.880633
O O10 0.662577 0.701290 0.000000
O O11 0.319343 0.500000 0.261168
O O12 0.250000 0.750000 0.250850
O O13 0.384904 0.754015 0.253042
O O14 0.500000 0.783553 0.814251
O O15 0.592696 0.000000 0.815797
#
# Coordination Sequence:
#
# PCOD8273851 Si02
#       5
#     8  16  16  16  16
#     4   9  17  29  49  79 111 143 180 229 288 347
#     4   9  19  36  57  82 113 151 195 243 301 367
#     4  10  21  39  66  98 131 167 205 246 293 351
#     4  11  24  41  62  86 117 158 201 250 307 367
#     4  11  25  43  63  89 123 163 205 253 303 355
#
# _framework density 21.046333000000001
#
# number of rings (size 3 to 8) (size 9 to 14) (size 15 to 20)
#    0.000    1.889    0.000    3.000    1.556    7.111 
#    0.000    2.222    0.000    0.000    0.000    0.000 
#    0.000    0.000    0.000    0.000    0.000    0.000 
#
# Total GULP energy -446244.004210 kJ/mol
# GULP energy per Si atom -12395.666784 kJ/mol
# Density = 2.099843 g / cm^3
# Si number density = 21.046333 Si / 1000 Ang^3
#
#
#
# Elastic Constant Matrix: (Units=GPa)
#
#
# Indices 1 2 3 4 5 6 
#
# 1 141.4785 79.2900 49.2824 0.0000 0.0000 0.0000
# 2 79.2900 133.6718 48.4230 0.0000 0.0000 0.0000
# 3 49.2824 48.4230 123.2537 0.0000 0.0000 0.0000
# 4 0.0000 0.0000 0.0000 27.6042 0.0000 0.0000
# 5 0.0000 0.0000 0.0000 0.0000 27.1596 0.0000
# 6 0.0000 0.0000 0.0000 0.0000 0.0000 249.7127
#
#
#
# Elastic Compliance Matrix: (Units=1/GPa)
#
#
# Indices 1 2 3 4 5 6 
#
# 1 0.011056 -0.005779 -0.002150 0.000000 0.000000 0.000000
# 2 -0.005779 0.011743 -0.002303 0.000000 0.000000 0.000000
# 3 -0.002150 -0.002303 0.009878 0.000000 0.000000 0.000000
# 4 0.000000 0.000000 0.000000 0.036226 0.000000 0.000000
# 5 0.000000 0.000000 0.000000 0.000000 0.036819 0.000000
# 6 0.000000 0.000000 0.000000 0.000000 0.000000 0.004005
#
#
# Mechanical properties :
#
#
# Convention : Reuss Voigt Hill
#
# Bulk Modulus (GPa) = 81.88225 83.59944 82.74084
# Shear Modulus (GPa) = 37.24032 75.65586 56.44809
#
# Velocity S-wave (km/s) = 4.21104 6.00211 5.18451
# Velocity P-wave (km/s) = 7.91416 9.37239 8.67397
#
# Compressibility (1/GPa) = 0.01221266
#
# Stress axis : x y z
#
# Youngs Moduli (GPa) = 90.44758 85.15510 101.23692
#
# Poissons Ratio (x) = 0.49213 0.21768
# Poissons Ratio (y) = 0.52272 0.23313
# Poissons Ratio (z) = 0.19448 0.19610
#
# Static dielectric constant tensor:
#      x y z
#    x 3.640560 0.000000 0.000000 
#    y 0.000000 3.967730 0.000000 
#    z 0.000000 0.000000 3.875140 
# 
# 
# High freq. dielectric constant tensor:
#      x y z
#    x 1.813220 0.000000 0.000000 
#    y 0.000000 1.833910 0.000000 
#    z 0.000000 0.000000 1.835990 
# 
# From -- ./inp_files/64341.got.cif
#   From: 2010.03.12/outbox.cif.g09.slc.cpg/sg65_33_cif.got.tgz:64341.got - 2010.04.10 20:52:16.
