data_PCOD8273050
_publ_section_title
;
Structure prediction by ZEFSAII (Michael W. Deem and Ramdas Pophale) SiO2 
 PCOD8273050
Probable space group: C M M M
;
_chemical_formula_sum "Si O2"
_cell_formula_units_Z 96
_cell_length_a 9.120984
_cell_length_b 18.700765
_cell_length_c 29.776945
_cell_angle_alpha 90.000000
_cell_angle_beta 90.000000
_cell_angle_gamma 90.000000
_cell_volume 5079.034998
_symmetry_space_group_name_H-M "C M M M"
_symmetry_group_IT_number 65
_symmetry_cell_setting 'orthorhombic'
loop_
_space_group_symop_operation_xyz
x,y,z
-x,-y,z
x,-y,-z
-x,y,-z
-x,-y,-z
x,y,-z
-x,y,z
x,-y,z
1/2+x,1/2+y,z
1/2-x,1/2-y,z
1/2+x,1/2-y,-z
1/2-x,1/2+y,-z
1/2-x,1/2-y,-z
1/2+x,1/2+y,-z
1/2-x,1/2+y,z
1/2+x,1/2-y,z
loop_
_atom_site_type_symbol
_atom_site_label
_atom_site_fract_x
_atom_site_fract_y
_atom_site_fract_z
Si Si1 0.327410 0.674362 0.206772
Si Si2 0.669973 0.417548 0.119995
Si Si3 0.670665 0.917658 0.279839
Si Si4 0.329647 0.822091 0.947737
Si Si5 0.162873 0.416065 0.617763
Si Si6 0.171119 0.178213 0.550978
O O1 0.500000 0.686522 0.211582
O O2 0.250000 0.750000 0.200684
O O3 0.286761 0.625893 0.164250
O O4 0.270126 0.634454 0.250724
O O5 0.500000 0.407660 0.107846
O O6 0.709636 0.500000 0.128505
O O7 0.765101 0.389669 0.078395
O O8 0.500000 0.905877 0.268461
O O9 0.703872 0.896531 0.331205
O O10 0.714457 0.000000 0.270662
O O11 0.500000 0.813362 0.936671
O O12 0.250000 0.750000 0.931339
O O13 0.300628 0.836146 0.000000
O O14 0.165484 0.500000 0.611410
O O15 0.280893 0.384742 0.583746
O O16 0.000000 0.386726 0.606538
O O17 0.215621 0.158188 0.500000
O O18 0.250000 0.250000 0.566873
O O19 0.000000 0.190598 0.555558
#
# Coordination Sequence:
#
# PCOD8273050 Si02
#       6
#    16  16  16  16  16  16
#     4  11  23  38  57  82 111 143 182 225 269 320
#     4  10  22  39  58  82 112 145 182 225 273 324
#     4   9  19  37  59  82 109 141 178 220 267 320
#     4  10  21  37  58  84 113 146 185 227 271 321
#     4   9  19  36  57  81 109 141 177 218 266 321
#     4  10  21  36  54  77 106 141 181 224 269 318
#
# _framework density 18.901229000000001
#
# number of rings (size 3 to 8) (size 9 to 14) (size 15 to 20)
#    0.000    2.167    0.000    3.500    0.000    8.333 
#    0.000    5.000    0.000    0.000    0.000    0.000 
#    0.000    0.000    0.000    0.000    0.000    0.000 
#
# Total GULP energy -595391.638223 kJ/mol
# GULP energy per Si atom -12403.992463 kJ/mol
# Density = 1.885821 g / cm^3
# Si number density = 18.901229 Si / 1000 Ang^3
#
#
#
# Elastic Constant Matrix: (Units=GPa)
#
#
# Indices 1 2 3 4 5 6 
#
# 1 93.6067 63.0228 61.0501 0.0000 0.0000 0.0000
# 2 63.0228 117.7547 70.2304 0.0000 0.0000 0.0000
# 3 61.0501 70.2304 101.1174 0.0000 0.0000 0.0000
# 4 0.0000 0.0000 0.0000 38.1934 0.0000 0.0000
# 5 0.0000 0.0000 0.0000 0.0000 -13.0748 0.0000
# 6 0.0000 0.0000 0.0000 0.0000 0.0000 35.4696
#
#
#
# Elastic Compliance Matrix: (Units=1/GPa)
#
#
# Indices 1 2 3 4 5 6 
#
# 1 0.019770 -0.005910 -0.007831 0.000000 0.000000 0.000000
# 2 -0.005910 0.016265 -0.007728 0.000000 0.000000 0.000000
# 3 -0.007831 -0.007728 0.019985 0.000000 0.000000 0.000000
# 4 0.000000 0.000000 0.000000 0.026183 0.000000 0.000000
# 5 0.000000 0.000000 0.000000 0.000000 -0.076483 0.000000
# 6 0.000000 0.000000 0.000000 0.000000 0.000000 0.028193
#
#
# Mechanical properties :
#
#
# Convention : Reuss Voigt Hill
#
# Bulk Modulus (GPa) = 76.45040 77.89838 77.17439
# Shear Modulus (GPa) = 61.56799 19.99600 40.78200
#
# Velocity S-wave (km/s) = 5.71351 3.25610 4.65008
# Velocity P-wave (km/s) = 9.16847 7.44574 8.35164
#
# Compressibility (1/GPa) = 0.01308038
#
# Stress axis : x y z
#
# Youngs Moduli (GPa) = 50.58271 61.48342 50.03736
#
# Poissons Ratio (x) = 0.36338 0.39185
# Poissons Ratio (y) = 0.29895 0.38669
# Poissons Ratio (z) = 0.39612 0.47515
#
# Static dielectric constant tensor:
#      x y z
#    x 3.635410 0.000000 0.000000 
#    y 0.000000 3.420980 0.000000 
#    z 0.000000 0.000000 3.498620 
# 
# 
# High freq. dielectric constant tensor:
#      x y z
#    x 1.738610 0.000000 0.000000 
#    y 0.000000 1.735400 0.000000 
#    z 0.000000 0.000000 1.740540 
# 
# From -- ./inp_files/73096.got.cif
#   From: 2010.03.12/outbox.cif.g09.slc.cpg/sg65_37_cif.got.tgz:73096.got - 2010.04.10 20:52:16.
