data_PCOD8273489
_publ_section_title
;
Structure prediction by ZEFSAII (Michael W. Deem and Ramdas Pophale) SiO2 
 PCOD8273489
Probable space group: C M M M
;
_chemical_formula_sum "Si O2"
_cell_formula_units_Z 88
_cell_length_a 20.578135
_cell_length_b 9.018222
_cell_length_c 23.987171
_cell_angle_alpha 90.000000
_cell_angle_beta 90.000000
_cell_angle_gamma 90.000000
_cell_volume 4451.495772
_symmetry_space_group_name_H-M "C M M M"
_symmetry_group_IT_number 65
_symmetry_cell_setting 'orthorhombic'
loop_
_space_group_symop_operation_xyz
x,y,z
-x,-y,z
x,-y,-z
-x,y,-z
-x,-y,-z
x,y,-z
-x,y,z
x,-y,z
1/2+x,1/2+y,z
1/2-x,1/2-y,z
1/2+x,1/2-y,-z
1/2-x,1/2+y,-z
1/2-x,1/2-y,-z
1/2+x,1/2+y,-z
1/2-x,1/2+y,z
1/2+x,1/2-y,z
loop_
_atom_site_type_symbol
_atom_site_label
_atom_site_fract_x
_atom_site_fract_y
_atom_site_fract_z
Si Si1 0.925279 0.326186 0.635416
Si Si2 0.000000 0.325671 0.939614
Si Si3 0.359661 0.173472 0.934860
Si Si4 0.312278 0.673485 0.832062
Si Si5 0.426374 0.328105 0.249343
Si Si6 0.184356 0.171117 0.434264
O O1 0.911338 0.500000 0.632958
O O2 0.909418 0.269447 0.697127
O O3 0.879203 0.244817 0.591797
O O4 0.000000 0.289795 0.619701
O O5 0.068075 0.281787 0.911181
O O6 0.000000 0.500000 0.949007
O O7 0.000000 0.248386 0.000000
O O8 0.312903 0.269067 0.895989
O O9 0.345607 0.000000 0.926231
O O10 0.350713 0.216089 0.000000
O O11 0.301553 0.500000 0.832133
O O12 0.250000 0.750000 0.802659
O O13 0.377264 0.720128 0.799305
O O14 0.500000 0.297011 0.228599
O O15 0.417247 0.500000 0.265415
O O16 0.177792 0.190899 0.500000
O O17 0.250000 0.250000 0.412380
O O18 0.187858 0.000000 0.416467
#
# Coordination Sequence:
#
# PCOD8273489 Si02
#       6
#    16   8  16  16  16  16
#     4  10  21  37  59  88 119 152 193 239 287 340
#     4   7  12  26  49  77 105 133 167 207 254 311
#     4   9  18  34  56  81 110 143 179 220 270 331
#     4  11  24  39  57  81 111 145 183 228 279 335
#     4   9  20  40  62  82 108 145 188 235 287 339
#     4  10  21  37  58  85 119 160 202 242 287 339
#
# _framework density 19.768636999999998
#
# number of rings (size 3 to 8) (size 9 to 14) (size 15 to 20)
#    0.000    2.455    0.000    2.727    1.273    5.455 
#    0.000    3.636    0.000    1.636    0.000    0.000 
#    0.000    0.000    0.000    0.000    0.000    0.000 
#
# Total GULP energy -545374.828278 kJ/mol
# GULP energy per Si atom -12394.882461 kJ/mol
# Density = 1.972364 g / cm^3
# Si number density = 19.768637 Si / 1000 Ang^3
#
#
#
# Elastic Constant Matrix: (Units=GPa)
#
#
# Indices 1 2 3 4 5 6 
#
# 1 129.0205 66.1194 55.8131 0.0000 0.0000 0.0000
# 2 66.1194 103.7350 51.7978 0.0000 0.0000 0.0000
# 3 55.8131 51.7978 66.6085 0.0000 0.0000 0.0000
# 4 0.0000 0.0000 0.0000 29.2034 0.0000 0.0000
# 5 0.0000 0.0000 0.0000 0.0000 22.4039 0.0000
# 6 0.0000 0.0000 0.0000 0.0000 0.0000 33.3197
#
#
#
# Elastic Compliance Matrix: (Units=1/GPa)
#
#
# Indices 1 2 3 4 5 6 
#
# 1 0.013492 -0.004830 -0.007549 0.000000 0.000000 0.000000
# 2 -0.004830 0.017488 -0.009553 0.000000 0.000000 0.000000
# 3 -0.007549 -0.009553 0.028767 0.000000 0.000000 0.000000
# 4 0.000000 0.000000 0.000000 0.034243 0.000000 0.000000
# 5 0.000000 0.000000 0.000000 0.000000 0.044635 0.000000
# 6 0.000000 0.000000 0.000000 0.000000 0.000000 0.030012
#
#
# Mechanical properties :
#
#
# Convention : Reuss Voigt Hill
#
# Bulk Modulus (GPa) = 62.95634 71.86940 67.41287
# Shear Modulus (GPa) = 22.95741 25.36097 24.15919
#
# Velocity S-wave (km/s) = 3.41149 3.58563 3.49964
# Velocity P-wave (km/s) = 6.88719 7.31960 7.10668
#
# Compressibility (1/GPa) = 0.01588402
#
# Stress axis : x y z
#
# Youngs Moduli (GPa) = 74.12067 57.18086 34.76192
#
# Poissons Ratio (x) = 0.27618 0.26242
# Poissons Ratio (y) = 0.35800 0.33207
# Poissons Ratio (z) = 0.55953 0.54623
#
# Static dielectric constant tensor:
#      x y z
#    x 3.978620 0.000000 0.000000 
#    y 0.000000 3.491800 0.000000 
#    z 0.000000 0.000000 3.370100 
# 
# 
# High freq. dielectric constant tensor:
#      x y z
#    x 1.788000 0.000000 0.000000 
#    y 0.000000 1.764350 0.000000 
#    z 0.000000 0.000000 1.752740 
# 
# From -- ./inp_files/67522.got.cif
#   From: 2010.03.12/outbox.cif.g09.slc.cpg/sg65_34_cif.got.tgz:67522.got - 2010.04.10 20:52:16.
