data_PCOD8273576
_publ_section_title
;
Structure prediction by ZEFSAII (Michael W. Deem and Ramdas Pophale) SiO2 
 PCOD8273576
Probable space group: C M M M
;
_chemical_formula_sum "Si O2"
_cell_formula_units_Z 72
_cell_length_a 14.601021
_cell_length_b 8.901718
_cell_length_c 27.256455
_cell_angle_alpha 90.000000
_cell_angle_beta 90.000000
_cell_angle_gamma 90.000000
_cell_volume 3542.635155
_symmetry_space_group_name_H-M "C M M M"
_symmetry_group_IT_number 65
_symmetry_cell_setting 'orthorhombic'
loop_
_space_group_symop_operation_xyz
x,y,z
-x,-y,z
x,-y,-z
-x,y,-z
-x,-y,-z
x,y,-z
-x,y,z
x,-y,z
1/2+x,1/2+y,z
1/2-x,1/2-y,z
1/2+x,1/2-y,-z
1/2-x,1/2+y,-z
1/2-x,1/2-y,-z
1/2+x,1/2+y,-z
1/2-x,1/2+y,z
1/2+x,1/2-y,z
loop_
_atom_site_type_symbol
_atom_site_label
_atom_site_fract_x
_atom_site_fract_y
_atom_site_fract_z
Si Si1 0.151925 0.326213 0.354637
Si Si2 0.348533 0.824614 0.753385
Si Si3 0.500000 0.322593 0.182044
Si Si4 0.000000 0.676542 0.077973
Si Si5 0.150714 0.175621 0.446846
Si Si6 0.150998 0.325166 0.000000
O O1 0.162459 0.500000 0.367109
O O2 0.250000 0.250000 0.351520
O O3 0.106105 0.303460 0.301063
O O4 0.096404 0.248938 0.400257
O O5 0.250000 0.750000 0.756187
O O6 0.410339 0.745104 0.793306
O O7 0.339883 0.000000 0.766030
O O8 0.500000 0.500000 0.188335
O O9 0.500000 0.279488 0.125446
O O10 0.091491 0.719008 0.047707
O O11 0.000000 0.500000 0.091280
O O12 0.102120 0.204800 0.500000
O O13 0.250000 0.250000 0.448450
O O14 0.159953 0.000000 0.437198
O O15 0.250000 0.250000 0.000000
O O16 0.169808 0.500000 0.000000
#
# Coordination Sequence:
#
# PCOD8273576 Si02
#       6
#    16  16   8   8  16   8
#     4   9  16  26  43  65  91 127 170 218 274 332
#     4  10  21  38  58  81 111 148 191 241 293 347
#     4  12  25  39  59  88 119 157 200 241 290 342
#     4   9  20  40  60  84 122 161 195 237 286 335
#     4   9  15  21  32  54  86 123 162 208 264 325
#     4   9  19  37  64  92 120 159 199 235 283 334
#
# _framework density 20.323853
#
# number of rings (size 3 to 8) (size 9 to 14) (size 15 to 20)
#    0.000    2.444    0.000    5.000    0.000    5.778 
#    0.000    3.333    0.000    0.000    0.000    0.778 
#    0.000    6.222    0.000    0.000    0.000    0.444 
#
# Total GULP energy -445983.263781 kJ/mol
# GULP energy per Si atom -12388.423994 kJ/mol
# Density = 2.027760 g / cm^3
# Si number density = 20.323853 Si / 1000 Ang^3
#
#
#
# Elastic Constant Matrix: (Units=GPa)
#
#
# Indices 1 2 3 4 5 6 
#
# 1 94.6833 45.6340 55.0797 0.0000 0.0000 0.0000
# 2 45.6340 153.0679 86.4534 0.0000 0.0000 0.0000
# 3 55.0797 86.4534 174.4409 0.0000 0.0000 0.0000
# 4 0.0000 0.0000 0.0000 38.0928 0.0000 0.0000
# 5 0.0000 0.0000 0.0000 0.0000 48.8131 0.0000
# 6 0.0000 0.0000 0.0000 0.0000 0.0000 22.7016
#
#
#
# Elastic Compliance Matrix: (Units=1/GPa)
#
#
# Indices 1 2 3 4 5 6 
#
# 1 0.013470 -0.002241 -0.003142 0.000000 0.000000 0.000000
# 2 -0.002241 0.009445 -0.003974 0.000000 0.000000 0.000000
# 3 -0.003142 -0.003974 0.008694 0.000000 0.000000 0.000000
# 4 0.000000 0.000000 0.000000 0.026252 0.000000 0.000000
# 5 0.000000 0.000000 0.000000 0.000000 0.020486 0.000000
# 6 0.000000 0.000000 0.000000 0.000000 0.000000 0.044050
#
#
# Mechanical properties :
#
#
# Convention : Reuss Voigt Hill
#
# Bulk Modulus (GPa) = 77.54732 88.50293 83.02513
# Shear Modulus (GPa) = 34.38572 37.58983 35.98778
#
# Velocity S-wave (km/s) = 4.11772 4.30530 4.21255
# Velocity P-wave (km/s) = 7.80039 8.26771 8.03745
#
# Compressibility (1/GPa) = 0.01289535
#
# Stress axis : x y z
#
# Youngs Moduli (GPa) = 74.24145 105.87129 115.01933
#
# Poissons Ratio (x) = 0.23724 0.36145
# Poissons Ratio (y) = 0.16636 0.45705
# Poissons Ratio (z) = 0.23330 0.42070
#
# Static dielectric constant tensor:
#      x y z
#    x 3.367910 0.000000 0.000000 
#    y 0.000000 3.734390 0.000000 
#    z 0.000000 0.000000 4.541800 
# 
# 
# High freq. dielectric constant tensor:
#      x y z
#    x 1.759430 0.000000 0.000000 
#    y 0.000000 1.802560 0.000000 
#    z 0.000000 0.000000 1.813700 
# 
# From -- ./inp_files/74703.got.cif
#   From: 2010.03.12/outbox.cif.g09.slc.cpg/sg65_38_cif.got.tgz:74703.got - 2010.04.10 20:52:16.
