data_PCOD8273145
_publ_section_title
;
Structure prediction by ZEFSAII (Michael W. Deem and Ramdas Pophale) SiO2 
 PCOD8273145
Probable space group: C M M M
;
_chemical_formula_sum "Si O2"
_cell_formula_units_Z 96
_cell_length_a 9.311666
_cell_length_b 26.575681
_cell_length_c 18.337685
_cell_angle_alpha 90.000000
_cell_angle_beta 90.000000
_cell_angle_gamma 90.000000
_cell_volume 4537.914409
_symmetry_space_group_name_H-M "C M M M"
_symmetry_group_IT_number 65
_symmetry_cell_setting 'orthorhombic'
loop_
_space_group_symop_operation_xyz
x,y,z
-x,-y,z
x,-y,-z
-x,y,-z
-x,-y,-z
x,y,-z
-x,y,z
x,-y,z
1/2+x,1/2+y,z
1/2-x,1/2-y,z
1/2+x,1/2-y,-z
1/2-x,1/2+y,-z
1/2-x,1/2-y,-z
1/2+x,1/2+y,-z
1/2-x,1/2+y,z
1/2+x,1/2-y,z
loop_
_atom_site_type_symbol
_atom_site_label
_atom_site_fract_x
_atom_site_fract_y
_atom_site_fract_z
Si Si1 0.830169 0.905020 0.579955
Si Si2 0.836707 0.403691 0.715136
Si Si3 0.328849 0.800187 0.789067
Si Si4 0.835255 0.557092 0.128184
Si Si5 0.345664 0.292312 0.416577
Si Si6 0.834500 0.149761 0.917324
O O1 0.784660 0.927033 0.500000
O O2 0.753442 0.930011 0.649374
O O3 0.776524 0.847414 0.585202
O O4 0.000000 0.909933 0.587928
O O5 0.792655 0.345640 0.733039
O O6 0.808845 0.437814 0.785435
O O7 0.000000 0.405511 0.689696
O O8 0.500000 0.792601 0.797582
O O9 0.250000 0.750000 0.760232
O O10 0.262180 0.813862 0.867809
O O11 0.804467 0.500000 0.104153
O O12 0.727307 0.592974 0.084910
O O13 0.000000 0.572452 0.110422
O O14 0.368596 0.275897 0.500000
O O15 0.500000 0.292584 0.376442
O O16 0.250000 0.250000 0.376327
O O17 0.000000 0.149615 0.890223
O O18 0.825095 0.169538 0.000000
#
# Coordination Sequence:
#
# PCOD8273145 Si02
#       6
#    16  16  16  16  16  16
#     4   9  18  31  46  66  94 129 167 210 265 323
#     4   9  19  34  52  76 102 131 173 222 268 318
#     4  10  21  37  56  78 107 146 190 229 266 312
#     4   9  19  37  59  81 107 140 177 218 267 323
#     4   8  14  24  36  52  77 109 146 187 231 282
#     4  10  21  36  55  83 117 147 178 219 263 310
#
# _framework density 21.155092
#
# number of rings (size 3 to 8) (size 9 to 14) (size 15 to 20)
#    0.000    2.833    0.000    3.000    0.000    7.333 
#    0.000    6.667    0.000    0.500    0.000    3.500 
#    0.000    0.000    0.000    0.000    0.000    0.000 
#
# Total GULP energy -594851.650007 kJ/mol
# GULP energy per Si atom -12392.742708 kJ/mol
# Density = 2.110694 g / cm^3
# Si number density = 21.155092 Si / 1000 Ang^3
#
#
#
# Elastic Constant Matrix: (Units=GPa)
#
#
# Indices 1 2 3 4 5 6 
#
# 1 88.2580 10.1369 40.5100 0.0000 0.0000 0.0000
# 2 10.1369 37.4871 -7.7368 0.0000 0.0000 0.0000
# 3 40.5100 -7.7368 95.9497 0.0000 0.0000 0.0000
# 4 0.0000 0.0000 0.0000 6.5949 0.0000 0.0000
# 5 0.0000 0.0000 0.0000 0.0000 32.2434 0.0000
# 6 0.0000 0.0000 0.0000 0.0000 0.0000 24.9879
#
#
#
# Elastic Compliance Matrix: (Units=1/GPa)
#
#
# Indices 1 2 3 4 5 6 
#
# 1 0.015087 -0.005486 -0.006812 0.000000 0.000000 0.000000
# 2 -0.005486 0.029122 0.004664 0.000000 0.000000 0.000000
# 3 -0.006812 0.004664 0.013674 0.000000 0.000000 0.000000
# 4 0.000000 0.000000 0.000000 0.151633 0.000000 0.000000
# 5 0.000000 0.000000 0.000000 0.000000 0.031014 0.000000
# 6 0.000000 0.000000 0.000000 0.000000 0.000000 0.040019
#
#
# Mechanical properties :
#
#
# Convention : Reuss Voigt Hill
#
# Bulk Modulus (GPa) = 23.46522 34.16834 28.81678
# Shear Modulus (GPa) = 16.12785 24.68421 20.40603
#
# Velocity S-wave (km/s) = 2.76409 3.41958 3.10916
# Velocity P-wave (km/s) = 4.61551 5.63718 5.15174
#
# Compressibility (1/GPa) = 0.04261627
#
# Stress axis : x y z
#
# Youngs Moduli (GPa) = 66.28118 34.33841 73.12976
#
# Poissons Ratio (x) = 0.18837 0.49817
# Poissons Ratio (y) = 0.36360 -0.34110
# Poissons Ratio (z) = 0.45152 -0.16016
#
# Static dielectric constant tensor:
#      x y z
#    x 3.618570 0.000000 0.000000 
#    y 0.000000 3.569300 0.000000 
#    z 0.000000 0.000000 3.708150 
# 
# 
# High freq. dielectric constant tensor:
#      x y z
#    x 1.823970 0.000000 0.000000 
#    y 0.000000 1.801170 0.000000 
#    z 0.000000 0.000000 1.828580 
# 
# From -- ./inp_files/60300.got.cif
#   From: 2010.03.12/outbox.cif.g09.slc.cpg/sg65_31_cif.got.tgz:60300.got - 2010.04.10 20:52:16.
