data_PCOD8273227
_publ_section_title
;
Structure prediction by ZEFSAII (Michael W. Deem and Ramdas Pophale) SiO2 
 PCOD8273227
Probable space group: C M M M
;
_chemical_formula_sum "Si O2"
_cell_formula_units_Z 72
_cell_length_a 16.182985
_cell_length_b 17.949673
_cell_length_c 13.590385
_cell_angle_alpha 90.000000
_cell_angle_beta 90.000000
_cell_angle_gamma 90.000000
_cell_volume 3947.725371
_symmetry_space_group_name_H-M "C M M M"
_symmetry_group_IT_number 65
_symmetry_cell_setting 'orthorhombic'
loop_
_space_group_symop_operation_xyz
x,y,z
-x,-y,z
x,-y,-z
-x,y,-z
-x,-y,-z
x,y,-z
-x,y,z
x,-y,z
1/2+x,1/2+y,z
1/2-x,1/2-y,z
1/2+x,1/2-y,-z
1/2-x,1/2+y,-z
1/2-x,1/2-y,-z
1/2+x,1/2+y,-z
1/2-x,1/2+y,z
1/2+x,1/2-y,z
loop_
_atom_site_type_symbol
_atom_site_label
_atom_site_fract_x
_atom_site_fract_y
_atom_site_fract_z
Si Si1 0.500000 0.411194 0.111406
Si Si2 0.828776 0.587828 0.892923
Si Si3 0.906884 0.412261 0.695611
Si Si4 0.665353 0.588161 0.214441
Si Si5 0.249322 0.336082 0.387435
O O1 0.500000 0.500000 0.107934
O O2 0.420043 0.381287 0.169678
O O3 0.500000 0.379861 0.000000
O O4 0.829839 0.500000 0.904149
O O5 0.894705 0.612071 0.809920
O O6 0.737700 0.613671 0.859514
O O7 0.849709 0.623749 0.000000
O O8 0.889102 0.500000 0.683824
O O9 0.842830 0.368612 0.627319
O O10 0.000000 0.392130 0.663328
O O11 0.663319 0.500000 0.227460
O O12 0.682169 0.622733 0.321539
O O13 0.275709 0.347932 0.500000
O O14 0.250000 0.250000 0.357948
#
# Coordination Sequence:
#
# PCOD8273227 Si02
#       5
#     8  16  16  16  16
#     4   9  16  28  51  81 107 131 165 206 246 296
#     4   8  13  23  43  72 104 133 160 196 245 299
#     4   9  18  32  52  79 104 129 166 213 260 301
#     4   9  17  30  50  77 103 131 169 212 254 292
#     4  10  21  37  53  71  96 134 176 209 257 315
#
# _framework density 18.238351000000002
#
# number of rings (size 3 to 8) (size 9 to 14) (size 15 to 20)
#    0.000    3.000    0.000    2.667    0.000    5.333 
#    2.000    3.889    0.000   18.667    0.000    0.000 
#    0.000    0.000    0.000    0.000    0.000    0.000 
#
# Total GULP energy -446227.006950 kJ/mol
# GULP energy per Si atom -12395.194637 kJ/mol
# Density = 1.819684 g / cm^3
# Si number density = 18.238351 Si / 1000 Ang^3
#
#
#
# Elastic Constant Matrix: (Units=GPa)
#
#
# Indices 1 2 3 4 5 6 
#
# 1 117.5340 33.5823 35.1158 0.0000 0.0000 0.0000
# 2 33.5823 44.6165 29.0706 0.0000 0.0000 0.0000
# 3 35.1158 29.0706 101.0676 0.0000 0.0000 0.0000
# 4 0.0000 0.0000 0.0000 1.2595 0.0000 0.0000
# 5 0.0000 0.0000 0.0000 0.0000 22.0542 0.0000
# 6 0.0000 0.0000 0.0000 0.0000 0.0000 11.6877
#
#
#
# Elastic Compliance Matrix: (Units=1/GPa)
#
#
# Indices 1 2 3 4 5 6 
#
# 1 0.011096 -0.007187 -0.001788 0.000000 0.000000 0.000000
# 2 -0.007187 0.032237 -0.006776 0.000000 0.000000 0.000000
# 3 -0.001788 -0.006776 0.012465 0.000000 0.000000 0.000000
# 4 0.000000 0.000000 0.000000 0.793979 0.000000 0.000000
# 5 0.000000 0.000000 0.000000 0.000000 0.045343 0.000000
# 6 0.000000 0.000000 0.000000 0.000000 0.000000 0.085560
#
#
# Mechanical properties :
#
#
# Convention : Reuss Voigt Hill
#
# Bulk Modulus (GPa) = 41.15734 50.97282 46.06508
# Shear Modulus (GPa) = 4.90062 18.03025 11.46543
#
# Velocity S-wave (km/s) = 1.64098 3.14760 2.51000
# Velocity P-wave (km/s) = 5.11916 6.42017 5.80622
#
# Compressibility (1/GPa) = 0.02429700
#
# Stress axis : x y z
#
# Youngs Moduli (GPa) = 90.12427 31.02000 80.22761
#
# Poissons Ratio (x) = 0.22293 0.14345
# Poissons Ratio (y) = 0.64769 0.54359
# Poissons Ratio (z) = 0.16115 0.21018
#
# Static dielectric constant tensor:
#      x y z
#    x 3.424770 0.000000 0.000000 
#    y 0.000000 2.967470 0.000000 
#    z 0.000000 0.000000 3.542780 
# 
# 
# High freq. dielectric constant tensor:
#      x y z
#    x 1.702510 0.000000 0.000000 
#    y 0.000000 1.661950 0.000000 
#    z 0.000000 0.000000 1.713810 
# 
# From -- ./inp_files/39821.got.cif
#   From: 2010.03.12/outbox.cif.g09.slc.cpg/sg65_20_cif.got.tgz:39821.got - 2010.04.10 20:52:16.
