data_PCOD8273055
_publ_section_title
;
Structure prediction by ZEFSAII (Michael W. Deem and Ramdas Pophale) SiO2 
 PCOD8273055
Probable space group: C M M M
;
_chemical_formula_sum "Si O2"
_cell_formula_units_Z 104
_cell_length_a 21.777586
_cell_length_b 26.015365
_cell_length_c 9.175930
_cell_angle_alpha 90.000000
_cell_angle_beta 90.000000
_cell_angle_gamma 90.000000
_cell_volume 5198.640104
_symmetry_space_group_name_H-M "C M M M"
_symmetry_group_IT_number 65
_symmetry_cell_setting 'orthorhombic'
loop_
_space_group_symop_operation_xyz
x,y,z
-x,-y,z
x,-y,-z
-x,y,-z
-x,-y,-z
x,y,-z
-x,y,z
x,-y,z
1/2+x,1/2+y,z
1/2-x,1/2-y,z
1/2+x,1/2-y,-z
1/2-x,1/2+y,-z
1/2-x,1/2-y,-z
1/2+x,1/2+y,-z
1/2-x,1/2+y,z
1/2+x,1/2-y,z
loop_
_atom_site_type_symbol
_atom_site_label
_atom_site_fract_x
_atom_site_fract_y
_atom_site_fract_z
Si Si1 0.143292 0.709253 0.828239
Si Si2 0.627451 0.393091 0.666212
Si Si3 0.746975 0.360891 0.829040
Si Si4 0.321999 0.058469 0.335695
Si Si5 0.931447 0.789852 0.333454
Si Si6 0.431370 0.873550 0.664157
Si Si7 0.570043 0.500000 0.673809
O O1 0.212367 0.689788 0.784256
O O2 0.123843 0.763451 0.757475
O O3 0.093562 0.668191 0.776109
O O4 0.139329 0.715656 0.000000
O O5 0.648461 0.401482 0.500000
O O6 0.682131 0.364916 0.750931
O O7 0.572497 0.351855 0.678113
O O8 0.605414 0.448485 0.730368
O O9 0.784120 0.411159 0.784003
O O10 0.735437 0.360878 0.000000
O O11 0.297011 0.069005 0.500000
O O12 0.393198 0.073913 0.325794
O O13 0.315021 0.000000 0.292052
O O14 0.923051 0.772340 0.500000
O O15 0.000000 0.774064 0.278242
O O16 0.427767 0.850647 0.500000
O O17 0.500000 0.887815 0.709283
O O18 0.500000 0.500000 0.733871
O O19 0.568033 0.500000 0.500000
#
# Coordination Sequence:
#
# PCOD8273055 Si02
#       7
#    16  16  16  16  16  16   8
#     4  10  21  36  54  77 108 148 189 228 272 325
#     4  10  21  37  60  88 114 144 183 227 275 332
#     4  10  22  38  54  77 111 148 186 229 278 327
#     4   9  18  32  51  74 102 138 181 229 276 330
#     4  10  21  37  58  85 115 145 180 226 280 334
#     4   9  17  30  49  74 104 138 178 226 280 332
#     4   9  18  36  63  91 117 145 180 225 276 331
#
# _framework density 20.005231999999999
#
# number of rings (size 3 to 8) (size 9 to 14) (size 15 to 20)
#    0.000    2.385    0.000    1.846    1.077    8.000 
#    0.000    4.615    0.000    1.846    0.000    4.308 
#    0.000    0.000    0.000    0.000    0.000    0.000 
#
# Total GULP energy -644450.824038 kJ/mol
# GULP energy per Si atom -12393.285078 kJ/mol
# Density = 1.995970 g / cm^3
# Si number density = 20.005232 Si / 1000 Ang^3
#
#
#
# Elastic Constant Matrix: (Units=GPa)
#
#
# Indices 1 2 3 4 5 6 
#
# 1 116.2579 41.8141 39.3532 0.0000 0.0000 0.0000
# 2 41.8141 108.7994 34.7260 0.0000 0.0000 0.0000
# 3 39.3532 34.7260 60.8509 0.0000 0.0000 0.0000
# 4 0.0000 0.0000 0.0000 10.9864 0.0000 0.0000
# 5 0.0000 0.0000 0.0000 0.0000 17.3724 0.0000
# 6 0.0000 0.0000 0.0000 0.0000 0.0000 21.7522
#
#
#
# Elastic Compliance Matrix: (Units=1/GPa)
#
#
# Indices 1 2 3 4 5 6 
#
# 1 0.011548 -0.002512 -0.006035 0.000000 0.000000 0.000000
# 2 -0.002512 0.011785 -0.005101 0.000000 0.000000 0.000000
# 3 -0.006035 -0.005101 0.023247 0.000000 0.000000 0.000000
# 4 0.000000 0.000000 0.000000 0.091022 0.000000 0.000000
# 5 0.000000 0.000000 0.000000 0.000000 0.057563 0.000000
# 6 0.000000 0.000000 0.000000 0.000000 0.000000 0.045972
#
#
# Mechanical properties :
#
#
# Convention : Reuss Voigt Hill
#
# Bulk Modulus (GPa) = 51.85369 57.52165 54.68767
# Shear Modulus (GPa) = 18.19117 21.35654 19.77385
#
# Velocity S-wave (km/s) = 3.01877 3.27088 3.14735
# Velocity P-wave (km/s) = 6.17470 6.56358 6.37211
#
# Compressibility (1/GPa) = 0.01928503
#
# Stress axis : x y z
#
# Youngs Moduli (GPa) = 86.59701 84.85627 43.01618
#
# Poissons Ratio (x) = 0.21316 0.25958
# Poissons Ratio (y) = 0.21753 0.21941
# Poissons Ratio (z) = 0.52258 0.43282
#
# Static dielectric constant tensor:
#      x y z
#    x 3.721950 0.000000 0.000000 
#    y 0.000000 3.663150 0.000000 
#    z 0.000000 0.000000 3.447480 
# 
# 
# High freq. dielectric constant tensor:
#      x y z
#    x 1.785860 0.000000 0.000000 
#    y 0.000000 1.783260 0.000000 
#    z 0.000000 0.000000 1.755380 
# 
# From -- ./inp_files/12444.got.cif
#   From: 2010.03.12/outbox.cif.g09.slc.cpg/sg65_7_cif.got.tgz:12444.got - 2010.04.10 20:52:16.
