data_PCOD8273429
_publ_section_title
;
Structure prediction by ZEFSAII (Michael W. Deem and Ramdas Pophale) SiO2 
 PCOD8273429
Probable space group: C M M M
;
_chemical_formula_sum "Si O2"
_cell_formula_units_Z 88
_cell_length_a 9.899088
_cell_length_b 21.513782
_cell_length_c 22.753402
_cell_angle_alpha 90.000000
_cell_angle_beta 90.000000
_cell_angle_gamma 90.000000
_cell_volume 4845.719696
_symmetry_space_group_name_H-M "C M M M"
_symmetry_group_IT_number 65
_symmetry_cell_setting 'orthorhombic'
loop_
_space_group_symop_operation_xyz
x,y,z
-x,-y,z
x,-y,-z
-x,y,-z
-x,-y,-z
x,y,-z
-x,y,z
x,-y,z
1/2+x,1/2+y,z
1/2-x,1/2-y,z
1/2+x,1/2-y,-z
1/2-x,1/2+y,-z
1/2-x,1/2-y,-z
1/2+x,1/2+y,-z
1/2-x,1/2+y,z
1/2+x,1/2-y,z
loop_
_atom_site_type_symbol
_atom_site_label
_atom_site_fract_x
_atom_site_fract_y
_atom_site_fract_z
Si Si1 0.157845 0.808494 0.273232
Si Si2 0.000000 0.299323 0.570520
Si Si3 0.346139 0.000000 0.565463
Si Si4 0.841877 0.190103 0.137191
Si Si5 0.339866 0.430945 0.066654
Si Si6 0.760115 0.377222 0.620197
Si Si7 0.000000 0.836359 0.565993
O O1 0.250000 0.750000 0.289676
O O2 0.176461 0.826004 0.205422
O O3 0.215361 0.865398 0.312313
O O4 0.000000 0.795883 0.287507
O O5 0.134474 0.327394 0.597255
O O6 0.000000 0.230223 0.598032
O O7 0.000000 0.307571 0.500000
O O8 0.317924 0.055396 0.610027
O O9 0.500000 0.000000 0.548273
O O10 0.272795 0.000000 0.500000
O O11 0.750000 0.250000 0.119402
O O12 0.786724 0.128027 0.104302
O O13 0.000000 0.204474 0.122375
O O14 0.500000 0.430492 0.069464
O O15 0.289809 0.500000 0.088974
O O16 0.289482 0.421244 0.000000
O O17 0.629425 0.376487 0.579693
O O18 0.000000 0.815440 0.500000
#
# Coordination Sequence:
#
# PCOD8273429 Si02
#       7
#    16   8   8  16  16  16   8
#     4  10  21  37  57  83 112 143 179 221 273 325
#     4  11  22  37  59  83 107 134 168 215 270 328
#     4  11  24  43  61  75 101 141 178 211 260 336
#     4   9  18  33  53  81 113 148 183 225 273 318
#     4   8  14  27  50  80 111 148 191 232 271 314
#     4  12  23  38  58  80 104 139 176 213 263 324
#     4  11  22  35  55  85 109 126 164 221 274 312
#
# _framework density 18.160357999999999
#
# number of rings (size 3 to 8) (size 9 to 14) (size 15 to 20)
#    0.000    1.909    1.818    3.818    1.273    2.182 
#    1.636    0.909    0.000    0.545    0.000    1.273 
#    0.000    0.000    0.000    0.000    0.000    0.000 
#
# Total GULP energy -545152.733240 kJ/mol
# GULP energy per Si atom -12389.834846 kJ/mol
# Density = 1.811902 g / cm^3
# Si number density = 18.160358 Si / 1000 Ang^3
#
#
#
# Elastic Constant Matrix: (Units=GPa)
#
#
# Indices 1 2 3 4 5 6 
#
# 1 79.6832 28.4414 27.8051 0.0000 0.0000 0.0000
# 2 28.4414 131.2189 63.8239 0.0000 0.0000 0.0000
# 3 27.8051 63.8239 92.9700 0.0000 0.0000 0.0000
# 4 0.0000 0.0000 0.0000 33.1775 0.0000 0.0000
# 5 0.0000 0.0000 0.0000 0.0000 19.3793 0.0000
# 6 0.0000 0.0000 0.0000 0.0000 0.0000 27.0218
#
#
#
# Elastic Compliance Matrix: (Units=1/GPa)
#
#
# Indices 1 2 3 4 5 6 
#
# 1 0.014211 -0.001521 -0.003206 0.000000 0.000000 0.000000
# 2 -0.001521 0.011604 -0.007511 0.000000 0.000000 0.000000
# 3 -0.003206 -0.007511 0.016872 0.000000 0.000000 0.000000
# 4 0.000000 0.000000 0.000000 0.030141 0.000000 0.000000
# 5 0.000000 0.000000 0.000000 0.000000 0.051602 0.000000
# 6 0.000000 0.000000 0.000000 0.000000 0.000000 0.037007
#
#
# Mechanical properties :
#
#
# Convention : Reuss Voigt Hill
#
# Bulk Modulus (GPa) = 54.91425 60.44587 57.68006
# Shear Modulus (GPa) = 26.04398 28.16915 27.10657
#
# Velocity S-wave (km/s) = 3.79107 3.94272 3.86764
# Velocity P-wave (km/s) = 7.03329 7.35415 7.19551
#
# Compressibility (1/GPa) = 0.01821021
#
# Stress axis : x y z
#
# Youngs Moduli (GPa) = 70.36645 86.17799 59.27145
#
# Poissons Ratio (x) = 0.13106 0.19004
# Poissons Ratio (y) = 0.10701 0.44520
# Poissons Ratio (z) = 0.22561 0.64730
#
# Static dielectric constant tensor:
#      x y z
#    x 3.318880 0.000000 0.000000 
#    y 0.000000 3.438530 0.000000 
#    z 0.000000 0.000000 3.400920 
# 
# 
# High freq. dielectric constant tensor:
#      x y z
#    x 1.691460 0.000000 0.000000 
#    y 0.000000 1.701230 0.000000 
#    z 0.000000 0.000000 1.701480 
# 
# From -- ./inp_files/67681.got.cif
#   From: 2010.03.12/outbox.cif.g09.slc.cpg/sg65_34_cif.got.tgz:67681.got - 2010.04.10 20:52:16.
