data_PCOD8273284
_publ_section_title
;
Structure prediction by ZEFSAII (Michael W. Deem and Ramdas Pophale) SiO2 
 PCOD8273284
Probable space group: C M M M
;
_chemical_formula_sum "Si O2"
_cell_formula_units_Z 112
_cell_length_a 14.011805
_cell_length_b 17.443690
_cell_length_c 23.244021
_cell_angle_alpha 90.000000
_cell_angle_beta 90.000000
_cell_angle_gamma 90.000000
_cell_volume 5681.247426
_symmetry_space_group_name_H-M "C M M M"
_symmetry_group_IT_number 65
_symmetry_cell_setting 'orthorhombic'
loop_
_space_group_symop_operation_xyz
x,y,z
-x,-y,z
x,-y,-z
-x,y,-z
-x,-y,-z
x,y,-z
-x,y,z
x,-y,z
1/2+x,1/2+y,z
1/2-x,1/2-y,z
1/2+x,1/2-y,-z
1/2-x,1/2+y,-z
1/2-x,1/2-y,-z
1/2+x,1/2+y,-z
1/2-x,1/2+y,z
1/2+x,1/2-y,z
loop_
_atom_site_type_symbol
_atom_site_label
_atom_site_fract_x
_atom_site_fract_y
_atom_site_fract_z
Si Si1 0.257960 0.586345 0.336183
Si Si2 0.612530 0.361223 0.756303
Si Si3 0.107366 0.690425 0.724741
Si Si4 0.301414 0.414106 0.874392
Si Si5 0.607026 0.856384 0.855414
Si Si6 0.109123 0.215879 0.064219
Si Si7 0.606359 0.591082 0.564427
O O1 0.218427 0.500000 0.347352
O O2 0.335624 0.578571 0.285164
O O3 0.172256 0.643310 0.319789
O O4 0.312407 0.621281 0.392017
O O5 0.500000 0.374834 0.756849
O O6 0.641595 0.277908 0.731552
O O7 0.652617 0.371667 0.819878
O O8 0.110735 0.653219 0.787348
O O9 0.000000 0.687506 0.700173
O O10 0.341656 0.500000 0.881095
O O11 0.186102 0.419663 0.870739
O O12 0.330492 0.362015 0.928448
O O13 0.500000 0.882059 0.874513
O O14 0.637739 0.779000 0.888568
O O15 0.000000 0.192719 0.072862
O O16 0.128680 0.248136 0.000000
O O17 0.632036 0.619147 0.500000
O O18 0.500000 0.621515 0.581520
O O19 0.604750 0.500000 0.567128
#
# Coordination Sequence:
#
# PCOD8273284 Si02
#       7
#    16  16  16  16  16  16  16
#     4  11  21  32  54  88 115 142 184 237 286 327
#     4  11  22  36  53  77 111 149 185 224 276 342
#     4  10  21  37  56  75 106 154 195 229 276 334
#     4  12  24  36  56  86 116 146 180 230 293 343
#     4  10  21  39  60  80 107 149 197 235 270 327
#     4  10  22  41  64  86 109 145 190 232 278 340
#     4   8  15  30  52  80 118 159 192 225 273 334
#
# _framework density 19.713981
#
# number of rings (size 3 to 8) (size 9 to 14) (size 15 to 20)
#    0.000    1.714    2.857    2.571    0.000    4.571 
#    0.000    2.143    0.000    2.143    0.000    7.000 
#    0.000    0.000    0.000    0.000    0.000    0.000 
#
# Total GULP energy -694210.228986 kJ/mol
# GULP energy per Si atom -12396.611232 kJ/mol
# Density = 1.966911 g / cm^3
# Si number density = 19.713981 Si / 1000 Ang^3
#
#
#
# Elastic Constant Matrix: (Units=GPa)
#
#
# Indices 1 2 3 4 5 6 
#
# 1 92.9407 34.6265 29.1050 0.0000 0.0000 0.0000
# 2 34.6265 66.7529 15.2605 0.0000 0.0000 0.0000
# 3 29.1050 15.2605 81.7577 0.0000 0.0000 0.0000
# 4 0.0000 0.0000 0.0000 22.8372 0.0000 0.0000
# 5 0.0000 0.0000 0.0000 0.0000 29.2617 0.0000
# 6 0.0000 0.0000 0.0000 0.0000 0.0000 25.5628
#
#
#
# Elastic Compliance Matrix: (Units=1/GPa)
#
#
# Indices 1 2 3 4 5 6 
#
# 1 0.014442 -0.006598 -0.003910 0.000000 0.000000 0.000000
# 2 -0.006598 0.018662 -0.001135 0.000000 0.000000 0.000000
# 3 -0.003910 -0.001135 0.013835 0.000000 0.000000 0.000000
# 4 0.000000 0.000000 0.000000 0.043788 0.000000 0.000000
# 5 0.000000 0.000000 0.000000 0.000000 0.034174 0.000000
# 6 0.000000 0.000000 0.000000 0.000000 0.000000 0.039119
#
#
# Mechanical properties :
#
#
# Convention : Reuss Voigt Hill
#
# Bulk Modulus (GPa) = 42.27422 44.38170 43.32796
# Shear Modulus (GPa) = 25.61602 26.36296 25.98949
#
# Velocity S-wave (km/s) = 3.60861 3.66084 3.63482
# Velocity P-wave (km/s) = 6.23322 6.35851 6.29618
#
# Compressibility (1/GPa) = 0.02365508
#
# Stress axis : x y z
#
# Youngs Moduli (GPa) = 69.24269 53.58362 72.28104
#
# Poissons Ratio (x) = 0.35353 0.28260
# Poissons Ratio (y) = 0.45684 0.08202
# Poissons Ratio (z) = 0.27072 0.06080
#
# Static dielectric constant tensor:
#      x y z
#    x 3.843820 0.000000 0.000000 
#    y 0.000000 3.294580 0.000000 
#    z 0.000000 0.000000 3.599700 
# 
# 
# High freq. dielectric constant tensor:
#      x y z
#    x 1.778970 0.000000 0.000000 
#    y 0.000000 1.741150 0.000000 
#    z 0.000000 0.000000 1.752730 
# 
# From -- ./inp_files/70069.got.cif
#   From: 2010.03.12/outbox.cif.g09.slc.cpg/sg65_36_cif.got.tgz:70069.got - 2010.04.10 20:52:16.
