data_PCOD8273297
_publ_section_title
;
Structure prediction by ZEFSAII (Michael W. Deem and Ramdas Pophale) SiO2 
 PCOD8273297
Probable space group: C M M M
;
_chemical_formula_sum "Si O2"
_cell_formula_units_Z 88
_cell_length_a 25.757088
_cell_length_b 8.924806
_cell_length_c 20.665434
_cell_angle_alpha 90.000000
_cell_angle_beta 90.000000
_cell_angle_gamma 90.000000
_cell_volume 4750.508251
_symmetry_space_group_name_H-M "C M M M"
_symmetry_group_IT_number 65
_symmetry_cell_setting 'orthorhombic'
loop_
_space_group_symop_operation_xyz
x,y,z
-x,-y,z
x,-y,-z
-x,y,-z
-x,-y,-z
x,y,-z
-x,y,z
x,-y,z
1/2+x,1/2+y,z
1/2-x,1/2-y,z
1/2+x,1/2-y,-z
1/2-x,1/2+y,-z
1/2-x,1/2-y,-z
1/2+x,1/2+y,-z
1/2-x,1/2+y,z
1/2+x,1/2-y,z
loop_
_atom_site_type_symbol
_atom_site_label
_atom_site_fract_x
_atom_site_fract_y
_atom_site_fract_z
Si Si1 0.697521 0.323437 0.348045
Si Si2 0.500000 0.827084 0.639526
Si Si3 0.697685 0.324497 0.200901
Si Si4 0.902253 0.823081 0.425661
Si Si5 0.561110 0.824223 0.000000
Si Si6 0.407542 0.322009 0.131953
Si Si7 0.000000 0.674421 0.208168
O O1 0.703668 0.500000 0.352956
O O2 0.750000 0.250000 0.375200
O O3 0.687118 0.270897 0.274394
O O4 0.650369 0.265942 0.392085
O O5 0.449656 0.752734 0.609895
O O6 0.500000 0.801305 0.715757
O O7 0.500000 0.000000 0.620941
O O8 0.706298 0.500000 0.198497
O O9 0.750000 0.250000 0.173037
O O10 0.649207 0.275823 0.157250
O O11 0.901138 0.772979 0.500000
O O12 0.908638 0.000000 0.418368
O O13 0.586895 0.747347 0.938528
O O14 0.500000 0.792479 0.000000
O O15 0.573233 0.000000 0.000000
O O16 0.415343 0.500000 0.129557
O O17 0.449214 0.252519 0.180234
O O18 0.000000 0.500000 0.188032
#
# Coordination Sequence:
#
# PCOD8273297 Si02
#       7
#    16   8  16  16   8  16   8
#     4   9  18  34  55  80 110 141 179 226 277 328
#     4  11  24  38  54  79 110 143 182 230 279 330
#     4   9  19  35  56  82 110 143 182 227 275 325
#     4  10  21  37  56  77 106 146 187 227 276 335
#     4  11  23  39  58  83 119 154 185 223 274 326
#     4  11  22  37  60  87 113 146 189 229 269 321
#     4  11  23  37  55  83 114 143 179 226 283 335
#
# _framework density 18.524332999999999
#
# number of rings (size 3 to 8) (size 9 to 14) (size 15 to 20)
#    0.000    1.909    0.909    2.727    0.000    7.273 
#    0.000    4.091    0.000    0.000    0.000    0.000 
#    0.000    0.000    0.000    0.000    0.000    0.000 
#
# Total GULP energy -545761.150598 kJ/mol
# GULP energy per Si atom -12403.662514 kJ/mol
# Density = 1.848217 g / cm^3
# Si number density = 18.524333 Si / 1000 Ang^3
#
#
#
# Elastic Constant Matrix: (Units=GPa)
#
#
# Indices 1 2 3 4 5 6 
#
# 1 167.6195 56.7594 66.6028 0.0000 0.0000 0.0000
# 2 56.7594 58.7164 39.9434 0.0000 0.0000 0.0000
# 3 66.6028 39.9434 91.7800 0.0000 0.0000 0.0000
# 4 0.0000 0.0000 0.0000 28.8052 0.0000 0.0000
# 5 0.0000 0.0000 0.0000 0.0000 35.9450 0.0000
# 6 0.0000 0.0000 0.0000 0.0000 0.0000 35.0407
#
#
#
# Elastic Compliance Matrix: (Units=1/GPa)
#
#
# Indices 1 2 3 4 5 6 
#
# 1 0.009938 -0.006678 -0.004306 0.000000 0.000000 0.000000
# 2 -0.006678 0.028681 -0.007636 0.000000 0.000000 0.000000
# 3 -0.004306 -0.007636 0.017343 0.000000 0.000000 0.000000
# 4 0.000000 0.000000 0.000000 0.034716 0.000000 0.000000
# 5 0.000000 0.000000 0.000000 0.000000 0.027820 0.000000
# 6 0.000000 0.000000 0.000000 0.000000 0.000000 0.028538
#
#
# Mechanical properties :
#
#
# Convention : Reuss Voigt Hill
#
# Bulk Modulus (GPa) = 53.40967 71.63633 62.52300
# Shear Modulus (GPa) = 26.24439 30.27887 28.26163
#
# Velocity S-wave (km/s) = 3.76806 4.04734 3.91019
# Velocity P-wave (km/s) = 6.91562 7.78439 7.36283
#
# Compressibility (1/GPa) = 0.01872320
#
# Stress axis : x y z
#
# Youngs Moduli (GPa) = 100.62513 34.86632 57.65869
#
# Poissons Ratio (x) = 0.23283 0.24825
# Poissons Ratio (y) = 0.67194 0.44030
# Poissons Ratio (z) = 0.43324 0.26625
#
# Static dielectric constant tensor:
#      x y z
#    x 3.550000 0.000000 0.000000 
#    y 0.000000 3.437470 0.000000 
#    z 0.000000 0.000000 3.528640 
# 
# 
# High freq. dielectric constant tensor:
#      x y z
#    x 1.730280 0.000000 0.000000 
#    y 0.000000 1.720530 0.000000 
#    z 0.000000 0.000000 1.722320 
# 
# From -- ./inp_files/59886.got.cif
#   From: 2010.03.12/outbox.cif.g09.slc.cpg/sg65_30_cif.got.tgz:59886.got - 2010.04.10 20:52:16.
