data_PCOD8273888
_publ_section_title
;
Structure prediction by ZEFSAII (Michael W. Deem and Ramdas Pophale) SiO2 
 PCOD8273888
Probable space group: C M M M
;
_chemical_formula_sum "Si O2"
_cell_formula_units_Z 88
_cell_length_a 23.094814
_cell_length_b 16.976193
_cell_length_c 11.588523
_cell_angle_alpha 90.000000
_cell_angle_beta 90.000000
_cell_angle_gamma 90.000000
_cell_volume 4543.419733
_symmetry_space_group_name_H-M "C M M M"
_symmetry_group_IT_number 65
_symmetry_cell_setting 'orthorhombic'
loop_
_space_group_symop_operation_xyz
x,y,z
-x,-y,z
x,-y,-z
-x,y,-z
-x,-y,-z
x,y,-z
-x,y,z
x,-y,z
1/2+x,1/2+y,z
1/2-x,1/2-y,z
1/2+x,1/2-y,-z
1/2-x,1/2+y,-z
1/2-x,1/2-y,-z
1/2+x,1/2+y,-z
1/2-x,1/2+y,z
1/2+x,1/2-y,z
loop_
_atom_site_type_symbol
_atom_site_label
_atom_site_fract_x
_atom_site_fract_y
_atom_site_fract_z
Si Si1 0.658252 0.913407 0.136056
Si Si2 0.565739 0.592129 0.500000
Si Si3 0.933293 0.320417 0.269197
Si Si4 0.936272 0.000000 0.135985
Si Si5 0.725990 0.663877 0.129128
Si Si6 0.431652 0.909749 0.500000
Si Si7 0.888648 0.852042 0.736228
O O1 0.606971 0.855358 0.170463
O O2 0.722053 0.889356 0.180231
O O3 0.643976 0.000000 0.184744
O O4 0.660546 0.911626 0.000000
O O5 0.557244 0.500000 0.500000
O O6 0.500000 0.629855 0.500000
O O7 0.605132 0.616664 0.607258
O O8 0.911211 0.358822 0.389520
O O9 0.927430 0.226442 0.260790
O O10 0.000000 0.343018 0.246169
O O11 0.907440 0.919419 0.175611
O O12 0.000000 0.000000 0.190497
O O13 0.936845 0.000000 0.000000
O O14 0.750000 0.750000 0.113276
O O15 0.676945 0.665489 0.227090
O O16 0.705003 0.635272 0.000000
O O17 0.500000 0.915728 0.500000
O O18 0.406269 0.000000 0.500000
#
# Coordination Sequence:
#
# PCOD8273888 Si02
#       7
#    16   8  16   8  16   8  16
#     4  10  22  39  60  88 122 162 205 251 312 379
#     4  11  23  41  63  88 128 173 207 252 318 391
#     4  11  22  37  61  90 122 160 204 257 317 380
#     4  11  24  39  59  93 131 164 208 268 325 382
#     4  10  21  41  65  90 122 162 210 265 319 372
#     4   9  19  37  60  86 116 153 201 251 300 363
#     4  12  23  40  64  92 123 166 215 262 315 385
#
# _framework density 19.368670000000002
#
# number of rings (size 3 to 8) (size 9 to 14) (size 15 to 20)
#    0.000    1.364    2.727    3.273    1.273    2.909 
#    0.000    2.273    0.000    1.091    0.000    0.000 
#    0.000    0.000    0.000    0.000    0.000    0.000 
#
# Total GULP energy -545406.218495 kJ/mol
# GULP energy per Si atom -12395.595875 kJ/mol
# Density = 1.932459 g / cm^3
# Si number density = 19.368670 Si / 1000 Ang^3
#
#
#
# Elastic Constant Matrix: (Units=GPa)
#
#
# Indices 1 2 3 4 5 6 
#
# 1 109.3324 21.4175 51.5900 0.0000 0.0000 0.0000
# 2 21.4175 117.0642 24.6763 0.0000 0.0000 0.0000
# 3 51.5900 24.6763 72.9150 0.0000 0.0000 0.0000
# 4 0.0000 0.0000 0.0000 26.6890 0.0000 0.0000
# 5 0.0000 0.0000 0.0000 0.0000 35.6456 0.0000
# 6 0.0000 0.0000 0.0000 0.0000 0.0000 26.0777
#
#
#
# Elastic Compliance Matrix: (Units=1/GPa)
#
#
# Indices 1 2 3 4 5 6 
#
# 1 0.013758 -0.000501 -0.009565 0.000000 0.000000 0.000000
# 2 -0.000501 0.009217 -0.002765 0.000000 0.000000 0.000000
# 3 -0.009565 -0.002765 0.021418 0.000000 0.000000 0.000000
# 4 0.000000 0.000000 0.000000 0.037469 0.000000 0.000000
# 5 0.000000 0.000000 0.000000 0.000000 0.028054 0.000000
# 6 0.000000 0.000000 0.000000 0.000000 0.000000 0.038347
#
#
# Mechanical properties :
#
#
# Convention : Reuss Voigt Hill
#
# Bulk Modulus (GPa) = 53.38594 54.96437 54.17516
# Shear Modulus (GPa) = 27.75219 31.12432 29.43825
#
# Velocity S-wave (km/s) = 3.78939 4.01302 3.90281
# Velocity P-wave (km/s) = 6.83878 7.06484 6.95273
#
# Compressibility (1/GPa) = 0.01873152
#
# Stress axis : x y z
#
# Youngs Moduli (GPa) = 72.68646 108.49799 46.69061
#
# Poissons Ratio (x) = 0.05435 0.44658
# Poissons Ratio (y) = 0.03641 0.12909
# Poissons Ratio (z) = 0.69522 0.29997
#
# Static dielectric constant tensor:
#      x y z
#    x 2.747440 0.000000 0.000000 
#    y 0.000000 4.000980 0.000000 
#    z 0.000000 0.000000 3.490270 
# 
# 
# High freq. dielectric constant tensor:
#      x y z
#    x 1.745240 0.000000 0.000000 
#    y 0.000000 1.773520 0.000000 
#    z 0.000000 0.000000 1.747120 
# 
# From -- ./inp_files/28773.got.cif
#   From: 2010.03.12/outbox.cif.g09.slc.cpg/sg65_15_cif.got.tgz:28773.got - 2010.04.10 20:52:16.
