data_PCOD8273292
_publ_section_title
;
Structure prediction by ZEFSAII (Michael W. Deem and Ramdas Pophale) SiO2 
 PCOD8273292
Probable space group: C M M M
;
_chemical_formula_sum "Si O2"
_cell_formula_units_Z 104
_cell_length_a 8.819712
_cell_length_b 19.202831
_cell_length_c 33.070482
_cell_angle_alpha 90.000000
_cell_angle_beta 90.000000
_cell_angle_gamma 90.000000
_cell_volume 5600.930561
_symmetry_space_group_name_H-M "C M M M"
_symmetry_group_IT_number 65
_symmetry_cell_setting 'orthorhombic'
loop_
_space_group_symop_operation_xyz
x,y,z
-x,-y,z
x,-y,-z
-x,y,-z
-x,-y,-z
x,y,-z
-x,y,z
x,-y,z
1/2+x,1/2+y,z
1/2-x,1/2-y,z
1/2+x,1/2-y,-z
1/2-x,1/2+y,-z
1/2-x,1/2-y,-z
1/2+x,1/2+y,-z
1/2-x,1/2+y,z
1/2+x,1/2-y,z
loop_
_atom_site_type_symbol
_atom_site_label
_atom_site_fract_x
_atom_site_fract_y
_atom_site_fract_z
Si Si1 0.819870 0.922176 0.545036
Si Si2 0.676910 0.919373 0.684522
Si Si3 0.820235 0.826127 0.616747
Si Si4 0.673901 0.580277 0.767836
Si Si5 0.179319 0.822911 0.070241
Si Si6 0.321390 0.322126 0.160955
Si Si7 0.819587 0.922291 0.000000
O O1 0.763917 0.901158 0.500000
O O2 0.756659 0.866206 0.577022
O O3 0.000000 0.922941 0.546461
O O4 0.760021 0.000000 0.555849
O O5 0.500000 0.905073 0.678065
O O6 0.773152 0.870559 0.655422
O O7 0.721912 0.898917 0.730023
O O8 0.718574 0.000000 0.675888
O O9 0.750000 0.750000 0.618382
O O10 0.000000 0.819123 0.615815
O O11 0.500000 0.599335 0.757403
O O12 0.691161 0.500000 0.778650
O O13 0.734025 0.620147 0.807354
O O14 0.250000 0.750000 0.056453
O O15 0.232446 0.842726 0.115712
O O16 0.238712 0.882678 0.040091
O O17 0.000000 0.815176 0.067501
O O18 0.500000 0.313971 0.161866
O O19 0.250000 0.250000 0.175026
O O20 0.000000 0.925524 0.000000
O O21 0.750695 0.000000 0.000000
#
# Coordination Sequence:
#
# PCOD8273292 Si02
#       7
#    16  16  16  16  16  16   8
#     4   8  15  30  53  79 104 133 172 213 251 296
#     4  10  21  37  56  77 102 133 170 212 256 304
#     4  11  22  35  53  78 108 141 175 212 256 302
#     4   9  18  33  52  73  97 127 164 204 247 296
#     4   9  17  30  48  69  94 126 162 197 237 287
#     4   9  18  31  48  71  97 126 160 199 242 289
#     4   9  17  28  45  71  98 123 156 200 244 283
#
# _framework density 18.568344
#
# number of rings (size 3 to 8) (size 9 to 14) (size 15 to 20)
#    0.000    2.692    0.000    2.077    0.000    3.692 
#    0.000    4.615    0.000    2.308    0.000    9.692 
#    0.000    0.000    0.000    0.000    0.000    0.000 
#
# Total GULP energy -644736.051365 kJ/mol
# GULP energy per Si atom -12398.770219 kJ/mol
# Density = 1.852608 g / cm^3
# Si number density = 18.568344 Si / 1000 Ang^3
#
#
#
# Elastic Constant Matrix: (Units=GPa)
#
#
# Indices 1 2 3 4 5 6 
#
# 1 33.3114 31.3366 27.7601 0.0000 0.0000 0.0000
# 2 31.3366 135.5910 95.9875 0.0000 0.0000 0.0000
# 3 27.7601 95.9875 138.4480 0.0000 0.0000 0.0000
# 4 0.0000 0.0000 0.0000 40.9481 0.0000 0.0000
# 5 0.0000 0.0000 0.0000 0.0000 16.2887 0.0000
# 6 0.0000 0.0000 0.0000 0.0000 0.0000 22.8688
#
#
#
# Elastic Compliance Matrix: (Units=1/GPa)
#
#
# Indices 1 2 3 4 5 6 
#
# 1 0.039020 -0.006833 -0.003086 0.000000 0.000000 0.000000
# 2 -0.006833 0.015681 -0.009501 0.000000 0.000000 0.000000
# 3 -0.003086 -0.009501 0.014429 0.000000 0.000000 0.000000
# 4 0.000000 0.000000 0.000000 0.024421 0.000000 0.000000
# 5 0.000000 0.000000 0.000000 0.000000 0.061392 0.000000
# 6 0.000000 0.000000 0.000000 0.000000 0.000000 0.043728
#
#
# Mechanical properties :
#
#
# Convention : Reuss Voigt Hill
#
# Bulk Modulus (GPa) = 33.01657 68.61320 50.81489
# Shear Modulus (GPa) = 20.19320 26.17220 23.18270
#
# Velocity S-wave (km/s) = 3.30131 3.75841 3.53725
# Velocity P-wave (km/s) = 5.68782 7.47437 6.64144
#
# Compressibility (1/GPa) = 0.03028782
#
# Stress axis : x y z
#
# Youngs Moduli (GPa) = 25.62813 63.77343 69.30375
#
# Poissons Ratio (x) = 0.43576 0.21390
# Poissons Ratio (y) = 0.17511 0.65848
# Poissons Ratio (z) = 0.07910 0.60594
#
# Static dielectric constant tensor:
#      x y z
#    x 3.145560 0.000000 0.000000 
#    y 0.000000 3.429980 0.000000 
#    z 0.000000 0.000000 3.729250 
# 
# 
# High freq. dielectric constant tensor:
#      x y z
#    x 1.694100 0.000000 0.000000 
#    y 0.000000 1.718240 0.000000 
#    z 0.000000 0.000000 1.733510 
# 
# From -- ./inp_files/76933.got.cif
#   From: 2010.03.12/outbox.cif.g09.slc.cpg/sg65_39_cif.got.tgz:76933.got - 2010.04.10 20:52:16.
