data_PCOD8273874
_publ_section_title
;
Structure prediction by ZEFSAII (Michael W. Deem and Ramdas Pophale) SiO2 
 PCOD8273874
Probable space group: C M M M
;
_chemical_formula_sum "Si O2"
_cell_formula_units_Z 64
_cell_length_a 25.119741
_cell_length_b 8.186800
_cell_length_c 15.370757
_cell_angle_alpha 90.000000
_cell_angle_beta 90.000000
_cell_angle_gamma 90.000000
_cell_volume 3161.000721
_symmetry_space_group_name_H-M "C M M M"
_symmetry_group_IT_number 65
_symmetry_cell_setting 'orthorhombic'
loop_
_space_group_symop_operation_xyz
x,y,z
-x,-y,z
x,-y,-z
-x,y,-z
-x,-y,-z
x,y,-z
-x,y,z
x,-y,z
1/2+x,1/2+y,z
1/2-x,1/2-y,z
1/2+x,1/2-y,-z
1/2-x,1/2+y,-z
1/2-x,1/2-y,-z
1/2+x,1/2+y,-z
1/2-x,1/2+y,z
1/2+x,1/2-y,z
loop_
_atom_site_type_symbol
_atom_site_label
_atom_site_fract_x
_atom_site_fract_y
_atom_site_fract_z
Si Si1 0.938752 0.500000 0.404963
Si Si2 0.114652 0.814114 0.147582
Si Si3 0.690140 0.187537 0.000000
Si Si4 0.116549 0.188710 0.344538
Si Si5 0.691014 0.310428 0.500000
Si Si6 0.500000 0.687261 0.897575
O O1 0.909890 0.500000 0.500000
O O2 0.927422 0.669812 0.354179
O O3 0.000000 0.500000 0.421710
O O4 0.158006 0.732716 0.086405
O O5 0.136975 0.801637 0.245572
O O6 0.055057 0.733324 0.139692
O O7 0.109391 0.000000 0.115976
O O8 0.750000 0.250000 0.000000
O O9 0.697770 0.000000 0.000000
O O10 0.162456 0.245371 0.411079
O O11 0.096448 0.000000 0.363931
O O12 0.692436 0.500000 0.500000
O O13 0.750000 0.250000 0.500000
O O14 0.500000 0.500000 0.867590
O O15 0.500000 0.711355 0.000000
#
# Coordination Sequence:
#
# PCOD8273874 Si02
#       6
#     8  16   8  16   8   8
#     4  11  24  40  64  93 131 177 211 258 320 372
#     4  10  21  40  65  92 126 165 208 258 313 381
#     4  12  26  43  62  87 123 168 214 268 323 379
#     4  10  23  42  63  93 131 166 213 262 318 386
#     4  10  22  40  64  91 119 162 212 264 321 376
#     4   9  16  32  62  93 120 157 199 245 307 370
#
# _framework density 20.246752000000001
#
# number of rings (size 3 to 8) (size 9 to 14) (size 15 to 20)
#    0.000    1.750    2.500    1.125    5.250    1.500 
#    0.000    5.000    0.000    0.000    0.000    0.000 
#    0.000    0.000    0.000    0.000    0.000    0.000 
#
# Total GULP energy -396442.948525 kJ/mol
# GULP energy per Si atom -12388.842141 kJ/mol
# Density = 2.020067 g / cm^3
# Si number density = 20.246752 Si / 1000 Ang^3
#
#
#
# Elastic Constant Matrix: (Units=GPa)
#
#
# Indices 1 2 3 4 5 6 
#
# 1 154.2615 42.8857 72.5546 0.0000 0.0000 0.0000
# 2 42.8857 106.6282 41.5103 0.0000 0.0000 0.0000
# 3 72.5546 41.5103 142.2615 0.0000 0.0000 0.0000
# 4 0.0000 0.0000 0.0000 24.3077 0.0000 0.0000
# 5 0.0000 0.0000 0.0000 0.0000 60.9915 0.0000
# 6 0.0000 0.0000 0.0000 0.0000 0.0000 26.9178
#
#
#
# Elastic Compliance Matrix: (Units=1/GPa)
#
#
# Indices 1 2 3 4 5 6 
#
# 1 0.008907 -0.002046 -0.003946 0.000000 0.000000 0.000000
# 2 -0.002046 0.011050 -0.002181 0.000000 0.000000 0.000000
# 3 -0.003946 -0.002181 0.009678 0.000000 0.000000 0.000000
# 4 0.000000 0.000000 0.000000 0.041139 0.000000 0.000000
# 5 0.000000 0.000000 0.000000 0.000000 0.016396 0.000000
# 6 0.000000 0.000000 0.000000 0.000000 0.000000 0.037150
#
#
# Mechanical properties :
#
#
# Convention : Reuss Voigt Hill
#
# Bulk Modulus (GPa) = 75.24439 79.67247 77.45843
# Shear Modulus (GPa) = 34.45992 38.85677 36.65835
#
# Velocity S-wave (km/s) = 4.13000 4.38558 4.25971
# Velocity P-wave (km/s) = 7.74512 8.06725 7.90783
#
# Compressibility (1/GPa) = 0.01329003
#
# Stress axis : x y z
#
# Youngs Moduli (GPa) = 112.26900 90.49458 103.32815
#
# Poissons Ratio (x) = 0.18519 0.40769
# Poissons Ratio (y) = 0.22975 0.22533
# Poissons Ratio (z) = 0.44297 0.19734
#
# Static dielectric constant tensor:
#      x y z
#    x 3.514200 0.000000 0.000000 
#    y 0.000000 4.378760 0.000000 
#    z 0.000000 0.000000 3.771540 
# 
# 
# High freq. dielectric constant tensor:
#      x y z
#    x 1.777880 0.000000 0.000000 
#    y 0.000000 1.784100 0.000000 
#    z 0.000000 0.000000 1.804120 
# 
# From -- ./inp_files/45140.got.cif
#   From: 2010.03.12/outbox.cif.g09.slc.cpg/sg65_23_cif.got.tgz:45140.got - 2010.04.10 20:52:16.
