data_PCOD8273835
_publ_section_title
;
Structure prediction by ZEFSAII (Michael W. Deem and Ramdas Pophale) SiO2 
 PCOD8273835
Probable space group: C M M M
;
_chemical_formula_sum "Si O2"
_cell_formula_units_Z 96
_cell_length_a 22.335430
_cell_length_b 14.612979
_cell_length_c 14.704689
_cell_angle_alpha 90.000000
_cell_angle_beta 90.000000
_cell_angle_gamma 90.000000
_cell_volume 4799.421822
_symmetry_space_group_name_H-M "C M M M"
_symmetry_group_IT_number 65
_symmetry_cell_setting 'orthorhombic'
loop_
_space_group_symop_operation_xyz
x,y,z
-x,-y,z
x,-y,-z
-x,y,-z
-x,-y,-z
x,y,-z
-x,y,z
x,-y,z
1/2+x,1/2+y,z
1/2-x,1/2-y,z
1/2+x,1/2-y,-z
1/2-x,1/2+y,-z
1/2-x,1/2-y,-z
1/2+x,1/2+y,-z
1/2-x,1/2+y,z
1/2+x,1/2-y,z
loop_
_atom_site_type_symbol
_atom_site_label
_atom_site_fract_x
_atom_site_fract_y
_atom_site_fract_z
Si Si1 0.067801 0.899151 0.331851
Si Si2 0.635342 0.598448 0.850668
Si Si3 0.735607 0.855567 0.104606
Si Si4 0.930985 0.296373 0.602024
Si Si5 0.435000 0.766765 0.097550
Si Si6 0.877096 0.606438 0.232001
O O1 0.116073 0.884756 0.252739
O O2 0.078053 0.814152 0.399324
O O3 0.000000 0.894683 0.292411
O O4 0.077763 0.000000 0.378229
O O5 0.608955 0.500000 0.883777
O O6 0.706472 0.589971 0.861942
O O7 0.612399 0.684445 0.907403
O O8 0.750000 0.750000 0.109210
O O9 0.685039 0.878682 0.178886
O O10 0.717681 0.883269 0.000000
O O11 0.917359 0.330832 0.500000
O O12 0.883104 0.346460 0.668467
O O13 0.000000 0.320156 0.628845
O O14 0.500000 0.722065 0.113308
O O15 0.427305 0.843812 0.172751
O O16 0.430296 0.816554 0.000000
O O17 0.891399 0.500000 0.242637
#
# Coordination Sequence:
#
# PCOD8273835 Si02
#       6
#    16  16  16  16  16  16
#     4   9  17  32  58  91 126 162 198 241 302 370
#     4  11  21  35  59  89 123 159 199 245 294 354
#     4  11  22  39  63  88 119 161 206 252 299 350
#     4  10  21  39  64  92 121 154 197 252 312 369
#     4  11  23  38  57  84 120 161 203 245 297 357
#     4  12  25  41  61  85 119 159 203 252 302 353
#
# _framework density 20.002409
#
# number of rings (size 3 to 8) (size 9 to 14) (size 15 to 20)
#    0.000    1.333    3.333    2.500    0.000    6.333 
#    0.000    4.167    0.000    4.500    0.000    4.667 
#    0.000    0.000    0.000    0.000    0.000    0.000 
#
# Total GULP energy -594647.467769 kJ/mol
# GULP energy per Si atom -12388.488912 kJ/mol
# Density = 1.995688 g / cm^3
# Si number density = 20.002409 Si / 1000 Ang^3
#
#
#
# Elastic Constant Matrix: (Units=GPa)
#
#
# Indices 1 2 3 4 5 6 
#
# 1 100.3520 26.6728 53.0247 0.0000 0.0000 0.0000
# 2 26.6728 130.6565 49.7455 0.0000 0.0000 0.0000
# 3 53.0247 49.7455 127.4321 0.0000 0.0000 0.0000
# 4 0.0000 0.0000 0.0000 1.2731 0.0000 0.0000
# 5 0.0000 0.0000 0.0000 0.0000 13.0121 0.0000
# 6 0.0000 0.0000 0.0000 0.0000 0.0000 19.5072
#
#
#
# Elastic Compliance Matrix: (Units=1/GPa)
#
#
# Indices 1 2 3 4 5 6 
#
# 1 0.012826 -0.000689 -0.005068 0.000000 0.000000 0.000000
# 2 -0.000689 0.009027 -0.003237 0.000000 0.000000 0.000000
# 3 -0.005068 -0.003237 0.011220 0.000000 0.000000 0.000000
# 4 0.000000 0.000000 0.000000 0.785481 0.000000 0.000000
# 5 0.000000 0.000000 0.000000 0.000000 0.076852 0.000000
# 6 0.000000 0.000000 0.000000 0.000000 0.000000 0.051263
#
#
# Mechanical properties :
#
#
# Convention : Reuss Voigt Hill
#
# Bulk Modulus (GPa) = 66.29287 68.59184 67.44235
# Shear Modulus (GPa) = 5.15632 22.02500 13.59066
#
# Velocity S-wave (km/s) = 1.60731 3.32191 2.60946
# Velocity P-wave (km/s) = 6.05467 7.00569 6.54747
#
# Compressibility (1/GPa) = 0.01508458
#
# Stress axis : x y z
#
# Youngs Moduli (GPa) = 77.96757 110.78159 89.12813
#
# Poissons Ratio (x) = 0.07630 0.45170
# Poissons Ratio (y) = 0.05370 0.28852
# Poissons Ratio (z) = 0.39514 0.35862
#
# Static dielectric constant tensor:
#      x y z
#    x 3.848100 0.000000 0.000000 
#    y 0.000000 3.849160 0.000000 
#    z 0.000000 0.000000 3.521870 
# 
# 
# High freq. dielectric constant tensor:
#      x y z
#    x 1.767050 0.000000 0.000000 
#    y 0.000000 1.790040 0.000000 
#    z 0.000000 0.000000 1.765740 
# 
# From -- ./inp_files/40326.got.cif
#   From: 2010.03.12/outbox.cif.g09.slc.cpg/sg65_21_cif.got.tgz:40326.got - 2010.04.10 20:52:16.
