data_PCOD8273131
_publ_section_title
;
Structure prediction by ZEFSAII (Michael W. Deem and Ramdas Pophale) SiO2 
 PCOD8273131
Probable space group: C M M M
;
_chemical_formula_sum "Si O2"
_cell_formula_units_Z 72
_cell_length_a 25.754748
_cell_length_b 14.688292
_cell_length_c 9.961027
_cell_angle_alpha 90.000000
_cell_angle_beta 90.000000
_cell_angle_gamma 90.000000
_cell_volume 3768.189367
_symmetry_space_group_name_H-M "C M M M"
_symmetry_group_IT_number 65
_symmetry_cell_setting 'orthorhombic'
loop_
_space_group_symop_operation_xyz
x,y,z
-x,-y,z
x,-y,-z
-x,y,-z
-x,-y,-z
x,y,-z
-x,y,z
x,-y,z
1/2+x,1/2+y,z
1/2-x,1/2-y,z
1/2+x,1/2-y,-z
1/2-x,1/2+y,-z
1/2-x,1/2-y,-z
1/2+x,1/2+y,-z
1/2-x,1/2+y,z
1/2+x,1/2-y,z
loop_
_atom_site_type_symbol
_atom_site_label
_atom_site_fract_x
_atom_site_fract_y
_atom_site_fract_z
Si Si1 0.244307 0.109481 0.000000
Si Si2 0.407365 0.710567 0.500000
Si Si3 0.719290 0.102639 0.721112
Si Si4 0.441093 0.395809 0.246297
Si Si5 0.787240 0.836360 0.500000
Si Si6 0.373316 0.392065 0.000000
Si Si7 0.361898 0.891468 0.500000
O O1 0.273155 0.150205 0.132936
O O2 0.185218 0.145490 0.000000
O O3 0.243344 0.000000 0.000000
O O4 0.436230 0.670623 0.627772
O O5 0.347487 0.682115 0.500000
O O6 0.410965 0.822481 0.500000
O O7 0.772658 0.108434 0.635324
O O8 0.671153 0.138411 0.632116
O O9 0.706777 0.000000 0.754966
O O10 0.500000 0.391577 0.192787
O O11 0.426904 0.500000 0.287038
O O12 0.403156 0.356821 0.131868
O O13 0.750000 0.750000 0.500000
O O14 0.375656 0.500000 0.000000
O O15 0.376191 0.000000 0.500000
#
# Coordination Sequence:
#
# PCOD8273131 Si02
#       7
#     8   8  16  16   8   8   8
#     4   9  16  27  48  76  98 127 177 221 252 298
#     4  12  21  32  54  75 106 134 182 224 259 310
#     4   9  17  31  48  66  96 134 173 215 256 300
#     4  10  21  36  55  81 111 140 170 212 267 320
#     4  11  19  30  45  67 101 131 174 208 252 307
#     4   9  17  32  52  76 108 145 175 201 250 320
#     4   9  19  36  53  69  96 144 185 217 268 313
#
# _framework density 19.107320999999999
#
# number of rings (size 3 to 8) (size 9 to 14) (size 15 to 20)
#    0.000    2.222    2.222    3.333    0.000    5.778 
#    0.000    1.667    0.000    1.333    0.000    0.000 
#    0.000    1.778    0.000    0.000    0.000    0.000 
#
# Total GULP energy -446044.163170 kJ/mol
# GULP energy per Si atom -12390.115644 kJ/mol
# Density = 1.906383 g / cm^3
# Si number density = 19.107321 Si / 1000 Ang^3
#
#
#
# Elastic Constant Matrix: (Units=GPa)
#
#
# Indices 1 2 3 4 5 6 
#
# 1 47.9491 21.5959 26.5661 0.0000 0.0000 0.0000
# 2 21.5959 61.0166 25.8317 0.0000 0.0000 0.0000
# 3 26.5661 25.8317 164.1493 0.0000 0.0000 0.0000
# 4 0.0000 0.0000 0.0000 -1.8512 0.0000 0.0000
# 5 0.0000 0.0000 0.0000 0.0000 22.4859 0.0000
# 6 0.0000 0.0000 0.0000 0.0000 0.0000 23.1022
#
#
#
# Elastic Compliance Matrix: (Units=1/GPa)
#
#
# Indices 1 2 3 4 5 6 
#
# 1 0.026093 -0.007979 -0.002967 0.000000 0.000000 0.000000
# 2 -0.007979 0.019999 -0.001856 0.000000 0.000000 0.000000
# 3 -0.002967 -0.001856 0.006864 0.000000 0.000000 0.000000
# 4 0.000000 0.000000 0.000000 -0.540186 0.000000 0.000000
# 5 0.000000 0.000000 0.000000 0.000000 0.044472 0.000000
# 6 0.000000 0.000000 0.000000 0.000000 0.000000 0.043286
#
#
# Mechanical properties :
#
#
# Convention : Reuss Voigt Hill
#
# Bulk Modulus (GPa) = 36.56060 46.78915 41.67488
# Shear Modulus (GPa) = -13.70801 22.02212 4.15705
#
# Velocity S-wave (km/s) = -2.68138 3.39860 1.47660
# Velocity P-wave (km/s) = 3.09669 6.31992 4.97649
#
# Compressibility (1/GPa) = 0.02735185
#
# Stress axis : x y z
#
# Youngs Moduli (GPa) = 38.32418 50.00316 145.68159
#
# Poissons Ratio (x) = 0.39898 0.43228
# Poissons Ratio (y) = 0.30579 0.27036
# Poissons Ratio (z) = 0.11372 0.09280
#
# Static dielectric constant tensor:
#      x y z
#    x 3.324400 0.000000 0.000000 
#    y 0.000000 3.369020 0.000000 
#    z 0.000000 0.000000 3.852770 
# 
# 
# High freq. dielectric constant tensor:
#      x y z
#    x 1.709850 0.000000 0.000000 
#    y 0.000000 1.719540 0.000000 
#    z 0.000000 0.000000 1.756330 
# 
# From -- ./inp_files/13676.got.cif
#   From: 2010.03.12/outbox.cif.g09.slc.cpg/sg65_7_cif.got.tgz:13676.got - 2010.04.10 20:52:16.
