data_PCOD8273164
_publ_section_title
;
Structure prediction by ZEFSAII (Michael W. Deem and Ramdas Pophale) SiO2 
 PCOD8273164
Probable space group: C M M M
;
_chemical_formula_sum "Si O2"
_cell_formula_units_Z 112
_cell_length_a 27.657797
_cell_length_b 15.492042
_cell_length_c 13.727335
_cell_angle_alpha 90.000000
_cell_angle_beta 90.000000
_cell_angle_gamma 90.000000
_cell_volume 5881.830197
_symmetry_space_group_name_H-M "C M M M"
_symmetry_group_IT_number 65
_symmetry_cell_setting 'orthorhombic'
loop_
_space_group_symop_operation_xyz
x,y,z
-x,-y,z
x,-y,-z
-x,y,-z
-x,-y,-z
x,y,-z
-x,y,z
x,-y,z
1/2+x,1/2+y,z
1/2-x,1/2-y,z
1/2+x,1/2-y,-z
1/2-x,1/2+y,-z
1/2-x,1/2-y,-z
1/2+x,1/2+y,-z
1/2-x,1/2+y,z
1/2+x,1/2-y,z
loop_
_atom_site_type_symbol
_atom_site_label
_atom_site_fract_x
_atom_site_fract_y
_atom_site_fract_z
Si Si1 0.864112 0.899932 0.390486
Si Si2 0.766898 0.842864 0.699156
Si Si3 0.175127 0.597272 0.394312
Si Si4 0.273219 0.899483 0.891702
Si Si5 0.055791 0.097890 0.761692
Si Si6 0.056727 0.260488 0.888529
Si Si7 0.125340 0.398414 0.202996
O O1 0.868326 0.863063 0.500000
O O2 0.822003 0.852751 0.331539
O O3 0.914507 0.882820 0.336279
O O4 0.850943 0.000000 0.392700
O O5 0.750000 0.750000 0.664397
O O6 0.730644 0.907119 0.643148
O O7 0.762573 0.852458 0.816110
O O8 0.170243 0.645026 0.500000
O O9 0.158389 0.500000 0.408699
O O10 0.140196 0.636659 0.311021
O O11 0.329216 0.882579 0.867324
O O12 0.261493 0.000000 0.885244
O O13 0.262682 0.863677 0.000000
O O14 0.070789 0.167176 0.843858
O O15 0.000000 0.108388 0.732798
O O16 0.066192 0.000000 0.800304
O O17 0.081224 0.340261 0.832725
O O18 0.000000 0.276962 0.879834
O O19 0.073981 0.259386 0.000000
O O20 0.110736 0.500000 0.202882
#
# Coordination Sequence:
#
# PCOD8273164 Si02
#       7
#    16  16  16  16  16  16  16
#     4  10  21  37  57  79 107 143 181 227 280 328
#     4  11  22  32  47  79 115 143 176 220 269 323
#     4   9  18  34  55  75 101 143 187 220 256 313
#     4   9  18  34  54  72  98 144 191 223 258 313
#     4   9  20  39  60  82 108 140 183 232 281 334
#     4  10  21  36  56  82 110 141 178 224 279 333
#     4   9  18  33  54  82 112 143 181 223 267 319
#
# _framework density 19.041692000000001
#
# number of rings (size 3 to 8) (size 9 to 14) (size 15 to 20)
#    0.000    2.429    0.000    3.000    4.000    4.286 
#    0.000    4.286    0.000    2.143    0.000    2.000 
#    0.000    0.000    0.000    0.000    0.000    0.000 
#
# Total GULP energy -694181.749214 kJ/mol
# GULP energy per Si atom -12396.102665 kJ/mol
# Density = 1.899835 g / cm^3
# Si number density = 19.041692 Si / 1000 Ang^3
#
#
#
# Elastic Constant Matrix: (Units=GPa)
#
#
# Indices 1 2 3 4 5 6 
#
# 1 78.7735 42.1636 58.4753 0.0000 0.0000 0.0000
# 2 42.1636 70.7444 46.0340 0.0000 0.0000 0.0000
# 3 58.4753 46.0340 169.1536 0.0000 0.0000 0.0000
# 4 0.0000 0.0000 0.0000 18.0087 0.0000 0.0000
# 5 0.0000 0.0000 0.0000 0.0000 24.5004 0.0000
# 6 0.0000 0.0000 0.0000 0.0000 0.0000 22.1246
#
#
#
# Elastic Compliance Matrix: (Units=1/GPa)
#
#
# Indices 1 2 3 4 5 6 
#
# 1 0.021403 -0.009651 -0.004772 0.000000 0.000000 0.000000
# 2 -0.009651 0.021529 -0.002523 0.000000 0.000000 0.000000
# 3 -0.004772 -0.002523 0.008248 0.000000 0.000000 0.000000
# 4 0.000000 0.000000 0.000000 0.055529 0.000000 0.000000
# 5 0.000000 0.000000 0.000000 0.000000 0.040816 0.000000
# 6 0.000000 0.000000 0.000000 0.000000 0.000000 0.045199
#
#
# Mechanical properties :
#
#
# Convention : Reuss Voigt Hill
#
# Bulk Modulus (GPa) = 57.84334 68.00194 62.92264
# Shear Modulus (GPa) = 21.51675 24.39329 22.95502
#
# Velocity S-wave (km/s) = 3.36517 3.58305 3.47582
# Velocity P-wave (km/s) = 6.74850 7.27374 7.01604
#
# Compressibility (1/GPa) = 0.01728807
#
# Stress axis : x y z
#
# Youngs Moduli (GPa) = 46.72283 46.44959 121.23921
#
# Poissons Ratio (x) = 0.44826 0.57861
# Poissons Ratio (y) = 0.45090 0.30586
# Poissons Ratio (z) = 0.22298 0.11718
#
# Static dielectric constant tensor:
#      x y z
#    x 3.261540 0.000000 0.000000 
#    y 0.000000 3.427000 0.000000 
#    z 0.000000 0.000000 3.881190 
# 
# 
# High freq. dielectric constant tensor:
#      x y z
#    x 1.718100 0.000000 0.000000 
#    y 0.000000 1.737660 0.000000 
#    z 0.000000 0.000000 1.748830 
# 
# From -- ./inp_files/40843.got.cif
#   From: 2010.03.12/outbox.cif.g09.slc.cpg/sg65_21_cif.got.tgz:40843.got - 2010.04.10 20:52:16.
