data_PCOD8273972
_publ_section_title
;
Structure prediction by ZEFSAII (Michael W. Deem and Ramdas Pophale) SiO2 
 PCOD8273972
Probable space group: C M M M
;
_chemical_formula_sum "Si O2"
_cell_formula_units_Z 56
_cell_length_a 25.874197
_cell_length_b 9.883929
_cell_length_c 10.586536
_cell_angle_alpha 90.000000
_cell_angle_beta 90.000000
_cell_angle_gamma 90.000000
_cell_volume 2707.387230
_symmetry_space_group_name_H-M "C M M M"
_symmetry_group_IT_number 65
_symmetry_cell_setting 'orthorhombic'
loop_
_space_group_symop_operation_xyz
x,y,z
-x,-y,z
x,-y,-z
-x,y,-z
-x,-y,-z
x,y,-z
-x,y,z
x,-y,z
1/2+x,1/2+y,z
1/2-x,1/2-y,z
1/2+x,1/2-y,-z
1/2-x,1/2+y,-z
1/2-x,1/2-y,-z
1/2+x,1/2+y,-z
1/2-x,1/2+y,z
1/2+x,1/2-y,z
loop_
_atom_site_type_symbol
_atom_site_label
_atom_site_fract_x
_atom_site_fract_y
_atom_site_fract_z
Si Si1 0.556132 0.500000 0.854292
Si Si2 0.302796 0.159178 0.000000
Si Si3 0.289589 0.353181 0.354745
Si Si4 0.938614 0.500000 0.352833
Si Si5 0.620281 0.241903 0.224618
O O1 0.500000 0.500000 0.784478
O O2 0.586380 0.635615 0.823947
O O3 0.545441 0.500000 0.000000
O O4 0.250000 0.250000 0.000000
O O5 0.338982 0.190959 0.879627
O O6 0.287614 0.000000 0.000000
O O7 0.274789 0.368764 0.500000
O O8 0.283916 0.500000 0.287830
O O9 0.250000 0.250000 0.286909
O O10 0.347272 0.297461 0.343196
O O11 0.921063 0.500000 0.500000
O O12 0.917265 0.372177 0.277230
O O13 0.000000 0.500000 0.342918
#
# Coordination Sequence:
#
# PCOD8273972 Si02
#       5
#     8   8  16   8  16
#     4  11  24  42  67  99 133 174 222 273 333 402
#     4  12  28  44  67 102 138 182 225 272 339 412
#     4  10  22  38  60  91 126 167 214 263 322 392
#     4  11  26  47  71  99 133 179 235 293 347 400
#     4  12  23  44  68  96 136 177 220 277 338 407
#
# _framework density 20.684149999999999
#
# number of rings (size 3 to 8) (size 9 to 14) (size 15 to 20)
#    0.000    0.857    4.286    2.571    4.000    2.286 
#    0.000    0.714    0.000    3.429    0.000    0.000 
#    0.000    0.000    0.000    0.000    0.000    0.000 
#
# Total GULP energy -347024.499995 kJ/mol
# GULP energy per Si atom -12393.732143 kJ/mol
# Density = 2.063707 g / cm^3
# Si number density = 20.684150 Si / 1000 Ang^3
#
#
#
# Elastic Constant Matrix: (Units=GPa)
#
#
# Indices 1 2 3 4 5 6 
#
# 1 151.7238 89.2294 45.8342 0.0000 0.0000 0.0000
# 2 89.2294 204.9866 44.0888 0.0000 0.0000 0.0000
# 3 45.8342 44.0888 74.6476 0.0000 0.0000 0.0000
# 4 0.0000 0.0000 0.0000 -31.5335 0.0000 0.0000
# 5 0.0000 0.0000 0.0000 0.0000 29.5660 0.0000
# 6 0.0000 0.0000 0.0000 0.0000 0.0000 65.2411
#
#
#
# Elastic Compliance Matrix: (Units=1/GPa)
#
#
# Indices 1 2 3 4 5 6 
#
# 1 0.009805 -0.003406 -0.004009 0.000000 0.000000 0.000000
# 2 -0.003406 0.006771 -0.001908 0.000000 0.000000 0.000000
# 3 -0.004009 -0.001908 0.016985 0.000000 0.000000 0.000000
# 4 0.000000 0.000000 0.000000 -0.031712 0.000000 0.000000
# 5 0.000000 0.000000 0.000000 0.000000 0.033823 0.000000
# 6 0.000000 0.000000 0.000000 0.000000 0.000000 0.015328
#
#
# Mechanical properties :
#
#
# Convention : Reuss Voigt Hill
#
# Bulk Modulus (GPa) = 67.04412 87.74032 77.39222
# Shear Modulus (GPa) = 67.00974 29.46843 48.23909
#
# Velocity S-wave (km/s) = 5.69798 3.77860 4.83450
# Velocity P-wave (km/s) = 8.70477 7.84527 8.28617
#
# Compressibility (1/GPa) = 0.01491555
#
# Stress axis : x y z
#
# Youngs Moduli (GPa) = 101.98999 147.68233 58.87670
#
# Poissons Ratio (x) = 0.50298 0.23602
# Poissons Ratio (y) = 0.34736 0.11234
# Poissons Ratio (z) = 0.40885 0.28179
#
# Static dielectric constant tensor:
#      x y z
#    x 3.946850 0.000000 0.000000 
#    y 0.000000 4.544220 0.000000 
#    z 0.000000 0.000000 3.695460 
# 
# 
# High freq. dielectric constant tensor:
#      x y z
#    x 1.822140 0.000000 0.000000 
#    y 0.000000 1.832980 0.000000 
#    z 0.000000 0.000000 1.804880 
# 
# From -- ./inp_files/31798.got.cif
#   From: 2010.03.12/outbox.cif.g09.slc.cpg/sg65_16_cif.got.tgz:31798.got - 2010.04.10 20:52:16.
