data_PCOD8273453
_publ_section_title
;
Structure prediction by ZEFSAII (Michael W. Deem and Ramdas Pophale) SiO2 
 PCOD8273453
Probable space group: C M M M
;
_chemical_formula_sum "Si O2"
_cell_formula_units_Z 104
_cell_length_a 8.801917
_cell_length_b 27.689445
_cell_length_c 21.393657
_cell_angle_alpha 90.000000
_cell_angle_beta 90.000000
_cell_angle_gamma 90.000000
_cell_volume 5214.066291
_symmetry_space_group_name_H-M "C M M M"
_symmetry_group_IT_number 65
_symmetry_cell_setting 'orthorhombic'
loop_
_space_group_symop_operation_xyz
x,y,z
-x,-y,z
x,-y,-z
-x,y,-z
-x,-y,-z
x,y,-z
-x,y,z
x,-y,z
1/2+x,1/2+y,z
1/2-x,1/2-y,z
1/2+x,1/2-y,-z
1/2-x,1/2+y,-z
1/2-x,1/2-y,-z
1/2+x,1/2+y,-z
1/2-x,1/2+y,z
1/2+x,1/2-y,z
loop_
_atom_site_type_symbol
_atom_site_label
_atom_site_fract_x
_atom_site_fract_y
_atom_site_fract_z
Si Si1 0.679588 0.802234 0.000000
Si Si2 0.822289 0.055546 0.686252
Si Si3 0.676168 0.800542 0.367309
Si Si4 0.178716 0.642963 0.244965
Si Si5 0.178128 0.397577 0.428770
Si Si6 0.826583 0.554507 0.072993
Si Si7 0.177005 0.855401 0.116514
O O1 0.750000 0.750000 0.000000
O O2 0.731544 0.829409 0.938034
O O3 0.500000 0.798713 0.000000
O O4 0.733910 0.089663 0.734898
O O5 0.769609 0.065947 0.615319
O O6 0.000000 0.066511 0.691968
O O7 0.785087 0.000000 0.702520
O O8 0.500000 0.791466 0.372730
O O9 0.750000 0.750000 0.385142
O O10 0.720764 0.818106 0.297889
O O11 0.728174 0.842194 0.415665
O O12 0.264694 0.662357 0.183666
O O13 0.000000 0.640193 0.232181
O O14 0.215847 0.410962 0.500000
O O15 0.000000 0.403229 0.413366
O O16 0.796462 0.500000 0.094527
O O17 0.710928 0.587474 0.111798
O O18 0.000000 0.569613 0.087505
O O19 0.793172 0.560602 0.000000
O O20 0.000000 0.844310 0.109251
#
# Coordination Sequence:
#
# PCOD8273453 Si02
#       7
#     8  16  16  16  16  16  16
#     4  12  26  46  67  88 117 152 194 241 291 349
#     4  10  21  37  57  84 118 152 191 242 293 339
#     4   9  19  35  56  81 109 143 185 233 284 335
#     4  10  22  40  60  82 111 151 195 237 282 341
#     4   9  19  36  56  81 115 154 196 235 275 337
#     4   9  18  34  57  83 112 149 188 224 270 333
#     4  12  24  39  61  90 120 151 189 237 295 350
#
# _framework density 19.946044000000001
#
# number of rings (size 3 to 8) (size 9 to 14) (size 15 to 20)
#    0.000    2.000    0.769    4.385    0.000    6.769 
#    0.000    3.846    0.000    0.000    0.000    0.000 
#    0.000    0.000    0.000    0.000    0.000    0.000 
#
# Total GULP energy -644882.818914 kJ/mol
# GULP energy per Si atom -12401.592671 kJ/mol
# Density = 1.990065 g / cm^3
# Si number density = 19.946044 Si / 1000 Ang^3
#
#
#
# Elastic Constant Matrix: (Units=GPa)
#
#
# Indices 1 2 3 4 5 6 
#
# 1 92.4531 23.4833 26.9211 0.0000 0.0000 0.0000
# 2 23.4833 68.7403 4.6985 0.0000 0.0000 0.0000
# 3 26.9211 4.6985 80.8006 0.0000 0.0000 0.0000
# 4 0.0000 0.0000 0.0000 12.9251 0.0000 0.0000
# 5 0.0000 0.0000 0.0000 0.0000 28.9154 0.0000
# 6 0.0000 0.0000 0.0000 0.0000 0.0000 37.0338
#
#
#
# Elastic Compliance Matrix: (Units=1/GPa)
#
#
# Indices 1 2 3 4 5 6 
#
# 1 0.013078 -0.004186 -0.004114 0.000000 0.000000 0.000000
# 2 -0.004186 0.015946 0.000468 0.000000 0.000000 0.000000
# 3 -0.004114 0.000468 0.013720 0.000000 0.000000 0.000000
# 4 0.000000 0.000000 0.000000 0.077369 0.000000 0.000000
# 5 0.000000 0.000000 0.000000 0.000000 0.034584 0.000000
# 6 0.000000 0.000000 0.000000 0.000000 0.000000 0.027002
#
#
# Mechanical properties :
#
#
# Convention : Reuss Voigt Hill
#
# Bulk Modulus (GPa) = 36.93073 39.13331 38.03202
# Shear Modulus (GPa) = 24.22615 28.23428 26.23021
#
# Velocity S-wave (km/s) = 3.48887 3.76644 3.63031
# Velocity P-wave (km/s) = 5.89789 6.21103 6.05649
#
# Compressibility (1/GPa) = 0.02707772
#
# Stress axis : x y z
#
# Youngs Moduli (GPa) = 76.46711 62.71279 72.88863
#
# Poissons Ratio (x) = 0.26254 0.29984
# Poissons Ratio (y) = 0.32012 -0.03408
# Poissons Ratio (z) = 0.31456 -0.02932
#
# Static dielectric constant tensor:
#      x y z
#    x 3.583620 0.000000 0.000000 
#    y 0.000000 3.601050 0.000000 
#    z 0.000000 0.000000 3.637920 
# 
# 
# High freq. dielectric constant tensor:
#      x y z
#    x 1.776530 0.000000 0.000000 
#    y 0.000000 1.776970 0.000000 
#    z 0.000000 0.000000 1.778630 
# 
# From -- ./inp_files/60425.got.cif
#   From: 2010.03.12/outbox.cif.g09.slc.cpg/sg65_31_cif.got.tgz:60425.got - 2010.04.10 20:52:16.
