data_PCOD8273748
_publ_section_title
;
Structure prediction by ZEFSAII (Michael W. Deem and Ramdas Pophale) SiO2 
 PCOD8273748
Probable space group: C M M M
;
_chemical_formula_sum "Si O2"
_cell_formula_units_Z 64
_cell_length_a 16.538826
_cell_length_b 15.357357
_cell_length_c 12.467295
_cell_angle_alpha 90.000000
_cell_angle_beta 90.000000
_cell_angle_gamma 90.000000
_cell_volume 3166.601361
_symmetry_space_group_name_H-M "C M M M"
_symmetry_group_IT_number 65
_symmetry_cell_setting 'orthorhombic'
loop_
_space_group_symop_operation_xyz
x,y,z
-x,-y,z
x,-y,-z
-x,y,-z
-x,-y,-z
x,y,-z
-x,y,z
x,-y,z
1/2+x,1/2+y,z
1/2-x,1/2-y,z
1/2+x,1/2-y,-z
1/2-x,1/2+y,-z
1/2-x,1/2-y,-z
1/2+x,1/2+y,-z
1/2-x,1/2+y,z
1/2+x,1/2-y,z
loop_
_atom_site_type_symbol
_atom_site_label
_atom_site_fract_x
_atom_site_fract_y
_atom_site_fract_z
Si Si1 0.195843 0.169152 0.377943
Si Si2 0.697092 0.000000 0.381503
Si Si3 0.904826 0.500000 0.824619
Si Si4 0.834327 0.803272 0.000000
Si Si5 0.093695 0.897407 0.803460
Si Si6 0.908265 0.373375 0.000000
O O1 0.166051 0.184191 0.500000
O O2 0.250000 0.250000 0.338277
O O3 0.248545 0.083764 0.365833
O O4 0.116834 0.156194 0.303796
O O5 0.657320 0.000000 0.500000
O O6 0.627168 0.000000 0.295099
O O7 0.871528 0.584253 0.891152
O O8 0.000000 0.500000 0.809936
O O9 0.750000 0.750000 0.000000
O O10 0.846580 0.864397 0.897056
O O11 0.902946 0.729902 0.000000
O O12 0.000000 0.878440 0.831424
O O13 0.108022 0.000000 0.786927
O O14 0.000000 0.403859 0.000000
#
# Coordination Sequence:
#
# PCOD8273748 Si02
#       6
#    16   8   8   8  16   8
#     4  10  22  41  63  90 123 161 207 257 310 370
#     4  10  21  38  61  88 125 159 195 259 315 363
#     4   9  20  37  59  84 117 157 199 240 295 364
#     4  12  26  39  60  92 119 157 202 245 306 371
#     4  11  24  42  64  91 126 163 203 258 318 373
#     4   9  20  39  58  82 116 155 191 242 293 347
#
# _framework density 20.210943
#
# number of rings (size 3 to 8) (size 9 to 14) (size 15 to 20)
#    0.000    1.750    1.250    3.000    7.000    1.750 
#    2.250    1.250    0.000    4.500    0.000    0.000 
#    0.000    0.000    0.000    0.000    0.000    0.000 
#
# Total GULP energy -396695.798149 kJ/mol
# GULP energy per Si atom -12396.743692 kJ/mol
# Density = 2.016494 g / cm^3
# Si number density = 20.210943 Si / 1000 Ang^3
#
#
#
# Elastic Constant Matrix: (Units=GPa)
#
#
# Indices 1 2 3 4 5 6 
#
# 1 82.8290 27.5141 51.5574 0.0000 0.0000 0.0000
# 2 27.5141 113.5701 26.0809 0.0000 0.0000 0.0000
# 3 51.5574 26.0809 131.1847 0.0000 0.0000 0.0000
# 4 0.0000 0.0000 0.0000 33.4185 0.0000 0.0000
# 5 0.0000 0.0000 0.0000 0.0000 35.9214 0.0000
# 6 0.0000 0.0000 0.0000 0.0000 0.0000 30.8275
#
#
#
# Elastic Compliance Matrix: (Units=1/GPa)
#
#
# Indices 1 2 3 4 5 6 
#
# 1 0.016718 -0.002663 -0.006041 0.000000 0.000000 0.000000
# 2 -0.002663 0.009651 -0.000872 0.000000 0.000000 0.000000
# 3 -0.006041 -0.000872 0.010170 0.000000 0.000000 0.000000
# 4 0.000000 0.000000 0.000000 0.029924 0.000000 0.000000
# 5 0.000000 0.000000 0.000000 0.000000 0.027839 0.000000
# 6 0.000000 0.000000 0.000000 0.000000 0.000000 0.032439
#
#
# Mechanical properties :
#
#
# Convention : Reuss Voigt Hill
#
# Bulk Modulus (GPa) = 57.51434 59.76540 58.63987
# Shear Modulus (GPa) = 32.96265 34.86224 33.91245
#
# Velocity S-wave (km/s) = 4.04286 4.15772 4.10069
# Velocity P-wave (km/s) = 7.09308 7.25836 7.17620
#
# Compressibility (1/GPa) = 0.01738697
#
# Stress axis : x y z
#
# Youngs Moduli (GPa) = 59.81642 103.62127 98.32472
#
# Poissons Ratio (x) = 0.27593 0.59397
# Poissons Ratio (y) = 0.15928 0.08575
# Poissons Ratio (z) = 0.36135 0.09037
#
# Static dielectric constant tensor:
#      x y z
#    x 3.388960 0.000000 0.000000 
#    y 0.000000 3.883010 0.000000 
#    z 0.000000 0.000000 3.906710 
# 
# 
# High freq. dielectric constant tensor:
#      x y z
#    x 1.769070 0.000000 0.000000 
#    y 0.000000 1.804320 0.000000 
#    z 0.000000 0.000000 1.799360 
# 
# From -- ./inp_files/24007.got.cif
#   From: 2010.03.12/outbox.cif.g09.slc.cpg/sg65_13_cif.got.tgz:24007.got - 2010.04.10 20:52:16.
