data_PCOD8273840
_publ_section_title
;
Structure prediction by ZEFSAII (Michael W. Deem and Ramdas Pophale) SiO2 
 PCOD8273840
Probable space group: C M M M
;
_chemical_formula_sum "Si O2"
_cell_formula_units_Z 72
_cell_length_a 26.441048
_cell_length_b 9.050127
_cell_length_c 13.117641
_cell_angle_alpha 90.000000
_cell_angle_beta 90.000000
_cell_angle_gamma 90.000000
_cell_volume 3138.983836
_symmetry_space_group_name_H-M "C M M M"
_symmetry_group_IT_number 65
_symmetry_cell_setting 'orthorhombic'
loop_
_space_group_symop_operation_xyz
x,y,z
-x,-y,z
x,-y,-z
-x,y,-z
-x,-y,-z
x,y,-z
-x,y,z
x,-y,z
1/2+x,1/2+y,z
1/2-x,1/2-y,z
1/2+x,1/2-y,-z
1/2-x,1/2+y,-z
1/2-x,1/2-y,-z
1/2+x,1/2+y,-z
1/2-x,1/2+y,z
1/2+x,1/2-y,z
loop_
_atom_site_type_symbol
_atom_site_label
_atom_site_fract_x
_atom_site_fract_y
_atom_site_fract_z
Si Si1 0.651091 0.831265 0.113046
Si Si2 0.400188 0.334364 0.381326
Si Si3 0.554188 0.669776 0.879483
Si Si4 0.800476 0.670648 0.315123
Si Si5 0.500000 0.170047 0.622460
O O1 0.603356 0.749539 0.166923
O O2 0.697253 0.811814 0.191574
O O3 0.634764 0.000000 0.102860
O O4 0.665660 0.768863 0.000000
O O5 0.410461 0.346826 0.500000
O O6 0.395244 0.500000 0.334521
O O7 0.349090 0.242660 0.366260
O O8 0.449683 0.252963 0.333083
O O9 0.500000 0.736962 0.842099
O O10 0.556736 0.500000 0.848850
O O11 0.557904 0.691333 0.000000
O O12 0.798269 0.500000 0.347772
O O13 0.750000 0.750000 0.355082
O O14 0.500000 0.173973 0.500000
O O15 0.500000 0.000000 0.660001
#
# Coordination Sequence:
#
# PCOD8273840 Si02
#       5
#    16  16  16  16   8
#     4   9  19  36  56  79 109 147 192 241 294 349
#     4  10  21  39  64  93 124 158 196 239 290 350
#     4   8  14  26  46  73 104 138 178 225 277 334
#     4  11  24  41  60  84 116 155 200 251 301 355
#     4   9  17  33  61  95 128 159 192 235 287 346
#
# _framework density 22.937358
#
# number of rings (size 3 to 8) (size 9 to 14) (size 15 to 20)
#    0.000    2.556    0.000    2.333    0.000    5.778 
#    2.000    2.222    0.000    0.000    0.000    0.000 
#    0.000    0.000    0.000    0.000    0.000    0.000 
#
# Total GULP energy -446256.095585 kJ/mol
# GULP energy per Si atom -12396.002655 kJ/mol
# Density = 2.288515 g / cm^3
# Si number density = 22.937358 Si / 1000 Ang^3
#
#
#
# Elastic Constant Matrix: (Units=GPa)
#
#
# Indices 1 2 3 4 5 6 
#
# 1 166.5457 83.5249 13.0432 0.0000 0.0000 0.0000
# 2 83.5249 151.9088 -1.9906 0.0000 0.0000 0.0000
# 3 13.0432 -1.9906 15.6352 0.0000 0.0000 0.0000
# 4 0.0000 0.0000 0.0000 14.7158 0.0000 0.0000
# 5 0.0000 0.0000 0.0000 0.0000 25.9489 0.0000
# 6 0.0000 0.0000 0.0000 0.0000 0.0000 46.1703
#
#
#
# Elastic Compliance Matrix: (Units=1/GPa)
#
#
# Indices 1 2 3 4 5 6 
#
# 1 0.009275 -0.005210 -0.008401 0.000000 0.000000 0.000000
# 2 -0.005210 0.009520 0.005558 0.000000 0.000000 0.000000
# 3 -0.008401 0.005558 0.071674 0.000000 0.000000 0.000000
# 4 0.000000 0.000000 0.000000 0.067954 0.000000 0.000000
# 5 0.000000 0.000000 0.000000 0.000000 0.038537 0.000000
# 6 0.000000 0.000000 0.000000 0.000000 0.000000 0.021659
#
#
# Mechanical properties :
#
#
# Convention : Reuss Voigt Hill
#
# Bulk Modulus (GPa) = 13.44728 58.13831 35.79279
# Shear Modulus (GPa) = 19.26689 33.33447 26.30068
#
# Velocity S-wave (km/s) = 2.90138 3.81633 3.38987
# Velocity P-wave (km/s) = 4.13514 6.69483 5.56418
#
# Compressibility (1/GPa) = 0.07436449
#
# Stress axis : x y z
#
# Youngs Moduli (GPa) = 107.81583 105.03877 13.95210
#
# Poissons Ratio (x) = 0.54724 0.11721
# Poissons Ratio (y) = 0.56170 -0.07755
# Poissons Ratio (z) = 0.90573 -0.58383
#
# Static dielectric constant tensor:
#      x y z
#    x 3.779820 0.000000 0.000000 
#    y 0.000000 4.143840 0.000000 
#    z 0.000000 0.000000 4.187670 
# 
# 
# High freq. dielectric constant tensor:
#      x y z
#    x 1.899690 0.000000 0.000000 
#    y 0.000000 1.897170 0.000000 
#    z 0.000000 0.000000 1.921440 
# 
# From -- ./inp_files/46498.got.cif
#   From: 2010.03.12/outbox.cif.g09.slc.cpg/sg65_24_cif.got.tgz:46498.got - 2010.04.10 20:52:16.
