data_PCOD8273656
_publ_section_title
;
Structure prediction by ZEFSAII (Michael W. Deem and Ramdas Pophale) SiO2 
 PCOD8273656
Probable space group: C M M M
;
_chemical_formula_sum "Si O2"
_cell_formula_units_Z 88
_cell_length_a 20.662935
_cell_length_b 8.828817
_cell_length_c 24.353389
_cell_angle_alpha 90.000000
_cell_angle_beta 90.000000
_cell_angle_gamma 90.000000
_cell_volume 4442.771021
_symmetry_space_group_name_H-M "C M M M"
_symmetry_group_IT_number 65
_symmetry_cell_setting 'orthorhombic'
loop_
_space_group_symop_operation_xyz
x,y,z
-x,-y,z
x,-y,-z
-x,y,-z
-x,-y,-z
x,y,-z
-x,y,z
x,-y,z
1/2+x,1/2+y,z
1/2-x,1/2-y,z
1/2+x,1/2-y,-z
1/2-x,1/2+y,-z
1/2-x,1/2-y,-z
1/2+x,1/2+y,-z
1/2-x,1/2+y,z
1/2+x,1/2-y,z
loop_
_atom_site_type_symbol
_atom_site_label
_atom_site_fract_x
_atom_site_fract_y
_atom_site_fract_z
Si Si1 0.183031 0.820981 0.562660
Si Si2 0.685629 0.821610 0.835685
Si Si3 0.500000 0.169332 0.064831
Si Si4 0.368234 0.678689 0.063042
Si Si5 0.571249 0.320426 0.641014
Si Si6 0.925541 0.823375 0.234090
O O1 0.169004 0.772912 0.500000
O O2 0.250000 0.750000 0.583677
O O3 0.125093 0.753518 0.599835
O O4 0.188372 0.000000 0.568874
O O5 0.750000 0.750000 0.807928
O O6 0.683841 0.759916 0.898296
O O7 0.621470 0.774276 0.803469
O O8 0.692108 0.000000 0.835899
O O9 0.562204 0.262932 0.083960
O O10 0.500000 0.000000 0.090794
O O11 0.500000 0.155726 0.000000
O O12 0.365500 0.500000 0.071286
O O13 0.354425 0.724678 0.000000
O O14 0.500000 0.256817 0.624857
O O15 0.569569 0.500000 0.636185
O O16 0.588008 0.274296 0.703207
O O17 0.000000 0.787760 0.218400
O O18 0.910441 0.000000 0.225282
#
# Coordination Sequence:
#
# PCOD8273656 Si02
#       6
#    16  16   8  16  16  16
#     4   9  17  29  47  74 109 147 186 227 271 322
#     4  12  26  42  60  83 114 147 186 232 281 339
#     4   9  17  31  53  83 115 145 181 223 264 311
#     4  10  21  38  60  85 114 148 185 225 274 333
#     4   8  15  30  53  80 107 138 180 228 276 325
#     4   9  19  38  62  84 110 145 184 229 283 341
#
# _framework density 19.807459000000001
#
# number of rings (size 3 to 8) (size 9 to 14) (size 15 to 20)
#    0.000    2.455    0.000    3.545    1.273    4.000 
#    0.000    4.545    0.000    1.636    0.000    2.545 
#    0.000    0.000    0.000    0.000    0.000    0.000 
#
# Total GULP energy -545556.540469 kJ/mol
# GULP energy per Si atom -12399.012283 kJ/mol
# Density = 1.976238 g / cm^3
# Si number density = 19.807459 Si / 1000 Ang^3
#
#
#
# Elastic Constant Matrix: (Units=GPa)
#
#
# Indices 1 2 3 4 5 6 
#
# 1 138.8660 51.0271 75.2076 0.0000 0.0000 0.0000
# 2 51.0271 92.2823 37.4236 0.0000 0.0000 0.0000
# 3 75.2076 37.4236 95.8462 0.0000 0.0000 0.0000
# 4 0.0000 0.0000 0.0000 18.5802 0.0000 0.0000
# 5 0.0000 0.0000 0.0000 0.0000 50.6827 0.0000
# 6 0.0000 0.0000 0.0000 0.0000 0.0000 33.1980
#
#
#
# Elastic Compliance Matrix: (Units=1/GPa)
#
#
# Indices 1 2 3 4 5 6 
#
# 1 0.013548 -0.003779 -0.009155 0.000000 0.000000 0.000000
# 2 -0.003779 0.013929 -0.002474 0.000000 0.000000 0.000000
# 3 -0.009155 -0.002474 0.018583 0.000000 0.000000 0.000000
# 4 0.000000 0.000000 0.000000 0.053821 0.000000 0.000000
# 5 0.000000 0.000000 0.000000 0.000000 0.019731 0.000000
# 6 0.000000 0.000000 0.000000 0.000000 0.000000 0.030122
#
#
# Mechanical properties :
#
#
# Convention : Reuss Voigt Hill
#
# Bulk Modulus (GPa) = 65.59589 72.70124 69.14857
# Shear Modulus (GPa) = 26.93524 31.38125 29.15824
#
# Velocity S-wave (km/s) = 3.69162 3.98466 3.84094
# Velocity P-wave (km/s) = 7.16655 7.61273 7.39301
#
# Compressibility (1/GPa) = 0.01524486
#
# Stress axis : x y z
#
# Youngs Moduli (GPa) = 73.81136 71.79380 53.81196
#
# Poissons Ratio (x) = 0.27127 0.49267
# Poissons Ratio (y) = 0.27890 0.13311
# Poissons Ratio (z) = 0.67577 0.17759
#
# Static dielectric constant tensor:
#      x y z
#    x 3.979790 0.000000 0.000000 
#    y 0.000000 3.339520 0.000000 
#    z 0.000000 0.000000 3.664530 
# 
# 
# High freq. dielectric constant tensor:
#      x y z
#    x 1.781140 0.000000 0.000000 
#    y 0.000000 1.749880 0.000000 
#    z 0.000000 0.000000 1.765860 
# 
# From -- ./inp_files/70991.got.cif
#   From: 2010.03.12/outbox.cif.g09.slc.cpg/sg65_36_cif.got.tgz:70991.got - 2010.04.10 20:52:16.
