data_PCOD8273506
_publ_section_title
;
Structure prediction by ZEFSAII (Michael W. Deem and Ramdas Pophale) SiO2 
 PCOD8273506
Probable space group: C M M M
;
_chemical_formula_sum "Si O2"
_cell_formula_units_Z 72
_cell_length_a 8.903311
_cell_length_b 26.316273
_cell_length_c 15.696410
_cell_angle_alpha 90.000000
_cell_angle_beta 90.000000
_cell_angle_gamma 90.000000
_cell_volume 3677.699673
_symmetry_space_group_name_H-M "C M M M"
_symmetry_group_IT_number 65
_symmetry_cell_setting 'orthorhombic'
loop_
_space_group_symop_operation_xyz
x,y,z
-x,-y,z
x,-y,-z
-x,y,-z
-x,-y,-z
x,y,-z
-x,y,z
x,-y,z
1/2+x,1/2+y,z
1/2-x,1/2-y,z
1/2+x,1/2-y,-z
1/2-x,1/2+y,-z
1/2-x,1/2-y,-z
1/2+x,1/2+y,-z
1/2-x,1/2+y,z
1/2+x,1/2-y,z
loop_
_atom_site_type_symbol
_atom_site_label
_atom_site_fract_x
_atom_site_fract_y
_atom_site_fract_z
Si Si1 0.321405 0.105559 0.820978
Si Si2 0.664220 0.058169 0.500000
Si Si3 0.826479 0.196756 0.500000
Si Si4 0.821648 0.500000 0.096680
Si Si5 0.823004 0.116108 0.361232
Si Si6 0.832136 0.200206 0.100043
O O1 0.500000 0.107174 0.819494
O O2 0.258449 0.117534 0.728405
O O3 0.261827 0.149379 0.882839
O O4 0.263948 0.050555 0.854502
O O5 0.500000 0.086211 0.500000
O O6 0.759756 0.069428 0.415489
O O7 0.629641 0.000000 0.500000
O O8 0.750000 0.250000 0.500000
O O9 0.780955 0.166498 0.414659
O O10 0.000000 0.207105 0.500000
O O11 0.000000 0.500000 0.094208
O O12 0.758172 0.500000 0.000000
O O13 0.000000 0.109686 0.348280
O O14 0.750000 0.250000 0.139534
O O15 0.000000 0.196122 0.139998
O O16 0.845214 0.207241 0.000000
#
# Coordination Sequence:
#
# PCOD8273506 Si02
#       6
#    16   8   8   8  16  16
#     4  11  22  37  60  88 120 157 202 251 300 357
#     4  10  21  37  59  83 110 144 188 236 286 343
#     4   9  20  38  60  82 111 150 190 234 285 350
#     4   9  20  38  59  84 117 158 201 247 302 359
#     4  10  22  39  56  83 118 151 191 236 291 351
#     4  10  21  38  60  86 116 152 196 247 304 365
#
# _framework density 19.577455
#
# number of rings (size 3 to 8) (size 9 to 14) (size 15 to 20)
#    0.000    2.000    0.000    3.667    1.556    6.667 
#    0.000    3.889    0.000    4.000    0.000    0.000 
#    0.000    0.000    0.000    0.000    0.000    0.000 
#
# Total GULP energy -446351.912223 kJ/mol
# GULP energy per Si atom -12398.664228 kJ/mol
# Density = 1.953290 g / cm^3
# Si number density = 19.577455 Si / 1000 Ang^3
#
#
#
# Elastic Constant Matrix: (Units=GPa)
#
#
# Indices 1 2 3 4 5 6 
#
# 1 102.1378 60.6622 36.8280 0.0000 0.0000 0.0000
# 2 60.6622 161.5055 44.4411 0.0000 0.0000 0.0000
# 3 36.8280 44.4411 91.3153 0.0000 0.0000 0.0000
# 4 0.0000 0.0000 0.0000 9.9595 0.0000 0.0000
# 5 0.0000 0.0000 0.0000 0.0000 30.5076 0.0000
# 6 0.0000 0.0000 0.0000 0.0000 0.0000 29.1669
#
#
#
# Elastic Compliance Matrix: (Units=1/GPa)
#
#
# Indices 1 2 3 4 5 6 
#
# 1 0.013472 -0.004116 -0.003430 0.000000 0.000000 0.000000
# 2 -0.004116 0.008407 -0.002431 0.000000 0.000000 0.000000
# 3 -0.003430 -0.002431 0.013518 0.000000 0.000000 0.000000
# 4 0.000000 0.000000 0.000000 0.100406 0.000000 0.000000
# 5 0.000000 0.000000 0.000000 0.000000 0.032779 0.000000
# 6 0.000000 0.000000 0.000000 0.000000 0.000000 0.034285
#
#
# Mechanical properties :
#
#
# Convention : Reuss Voigt Hill
#
# Bulk Modulus (GPa) = 64.76125 70.98015 67.87070
# Shear Modulus (GPa) = 21.93268 28.12861 25.03065
#
# Velocity S-wave (km/s) = 3.35072 3.79461 3.57955
# Velocity P-wave (km/s) = 6.93694 7.45208 7.19912
#
# Compressibility (1/GPa) = 0.01544133
#
# Stress axis : x y z
#
# Youngs Moduli (GPa) = 74.22615 118.95004 73.97708
#
# Poissons Ratio (x) = 0.48965 0.25375
# Poissons Ratio (y) = 0.30555 0.17986
# Poissons Ratio (z) = 0.25460 0.28920
#
# Static dielectric constant tensor:
#      x y z
#    x 3.816380 0.000000 0.000000 
#    y 0.000000 3.658930 0.000000 
#    z 0.000000 0.000000 3.675790 
# 
# 
# High freq. dielectric constant tensor:
#      x y z
#    x 1.769220 0.000000 0.000000 
#    y 0.000000 1.768010 0.000000 
#    z 0.000000 0.000000 1.759730 
# 
# From -- ./inp_files/36693.got.cif
#   From: 2010.03.12/outbox.cif.g09.slc.cpg/sg65_19_cif.got.tgz:36693.got - 2010.04.10 20:52:16.
