data_PCOD8273907
_publ_section_title
;
Structure prediction by ZEFSAII (Michael W. Deem and Ramdas Pophale) SiO2 
 PCOD8273907
Probable space group: C M M M
;
_chemical_formula_sum "Si O2"
_cell_formula_units_Z 104
_cell_length_a 24.568448
_cell_length_b 9.344372
_cell_length_c 24.830539
_cell_angle_alpha 90.000000
_cell_angle_beta 90.000000
_cell_angle_gamma 90.000000
_cell_volume 5700.513639
_symmetry_space_group_name_H-M "C M M M"
_symmetry_group_IT_number 65
_symmetry_cell_setting 'orthorhombic'
loop_
_space_group_symop_operation_xyz
x,y,z
-x,-y,z
x,-y,-z
-x,y,-z
-x,-y,-z
x,y,-z
-x,y,z
x,-y,z
1/2+x,1/2+y,z
1/2-x,1/2-y,z
1/2+x,1/2-y,-z
1/2-x,1/2+y,-z
1/2-x,1/2-y,-z
1/2+x,1/2+y,-z
1/2-x,1/2+y,z
1/2+x,1/2-y,z
loop_
_atom_site_type_symbol
_atom_site_label
_atom_site_fract_x
_atom_site_fract_y
_atom_site_fract_z
Si Si1 0.896916 0.333677 0.640981
Si Si2 0.105144 0.666311 0.234904
Si Si3 0.000000 0.161315 0.767567
Si Si4 0.000000 0.839854 0.639824
Si Si5 0.693651 0.833450 0.851429
Si Si6 0.605128 0.166270 0.062153
Si Si7 0.000000 0.837889 0.063834
Si Si8 0.803647 0.665779 0.439309
O O1 0.910991 0.500000 0.633780
O O2 0.882433 0.298259 0.702837
O O3 0.847912 0.283671 0.603496
O O4 0.947481 0.243643 0.619026
O O5 0.090391 0.500000 0.226749
O O6 0.053990 0.756577 0.212432
O O7 0.158805 0.708201 0.201418
O O8 0.000000 0.159483 0.703760
O O9 0.000000 0.000000 0.791019
O O10 0.000000 0.000000 0.616244
O O11 0.750000 0.750000 0.851512
O O12 0.658671 0.791845 0.904177
O O13 0.708096 0.000000 0.851439
O O14 0.553989 0.256924 0.084470
O O15 0.590319 0.000000 0.070258
O O16 0.617722 0.201858 0.000000
O O17 0.000000 0.000000 0.086167
O O18 0.000000 0.835192 0.000000
O O19 0.823592 0.700822 0.500000
O O20 0.790265 0.500000 0.432717
O O21 0.750000 0.750000 0.424209
#
# Coordination Sequence:
#
# PCOD8273907 Si02
#       8
#    16  16   8   8  16  16   8  16
#     4   9  17  31  51  71  94 128 162 190 231 287
#     4   9  18  33  51  71  97 128 159 192 235 287
#     4   9  17  30  50  76 100 123 156 197 239 281
#     4   9  17  29  47  73 101 125 155 197 238 279
#     4  10  22  37  51  70  97 128 163 202 239 278
#     4   9  18  34  54  73  96 129 163 193 234 288
#     4   9  17  30  51  80 106 124 151 196 243 283
#     4   9  18  32  49  70  95 123 159 201 239 277
#
# _framework density 18.243970000000001
#
# number of rings (size 3 to 8) (size 9 to 14) (size 15 to 20)
#    0.000    2.846    0.000    0.692    0.000    6.154 
#    0.000    3.462    0.000    2.308    0.000    0.000 
#    0.000    0.000    0.000    0.000    0.000    0.000 
#
# Total GULP energy -644776.051806 kJ/mol
# GULP energy per Si atom -12399.539458 kJ/mol
# Density = 1.820245 g / cm^3
# Si number density = 18.243970 Si / 1000 Ang^3
#
#
#
# Elastic Constant Matrix: (Units=GPa)
#
#
# Indices 1 2 3 4 5 6 
#
# 1 185.0359 88.6216 77.9279 0.0000 0.0000 0.0000
# 2 88.6216 89.0212 43.2384 0.0000 0.0000 0.0000
# 3 77.9279 43.2384 89.2448 0.0000 0.0000 0.0000
# 4 0.0000 0.0000 0.0000 14.1634 0.0000 0.0000
# 5 0.0000 0.0000 0.0000 0.0000 -30.9389 0.0000
# 6 0.0000 0.0000 0.0000 0.0000 0.0000 40.5999
#
#
#
# Elastic Compliance Matrix: (Units=1/GPa)
#
#
# Indices 1 2 3 4 5 6 
#
# 1 0.012661 -0.009461 -0.006472 0.000000 0.000000 0.000000
# 2 -0.009461 0.021760 -0.002281 0.000000 0.000000 0.000000
# 3 -0.006472 -0.002281 0.017962 0.000000 0.000000 0.000000
# 4 0.000000 0.000000 0.000000 0.070605 0.000000 0.000000
# 5 0.000000 0.000000 0.000000 0.000000 -0.032322 0.000000
# 6 0.000000 0.000000 0.000000 0.000000 0.000000 0.024631
#
#
# Mechanical properties :
#
#
# Convention : Reuss Voigt Hill
#
# Bulk Modulus (GPa) = 62.67856 86.98640 74.83248
# Shear Modulus (GPa) = 31.83853 14.99914 23.41884
#
# Velocity S-wave (km/s) = 4.18204 2.87041 3.58669
# Velocity P-wave (km/s) = 7.59931 7.66608 7.63277
#
# Compressibility (1/GPa) = 0.01595442
#
# Stress axis : x y z
#
# Youngs Moduli (GPa) = 78.98095 45.95644 55.67419
#
# Poissons Ratio (x) = 0.43479 0.36032
# Poissons Ratio (y) = 0.74723 0.12700
# Poissons Ratio (z) = 0.51116 0.10484
#
# Static dielectric constant tensor:
#      x y z
#    x 3.329680 0.000000 0.000000 
#    y 0.000000 3.431340 0.000000 
#    z 0.000000 0.000000 3.355120 
# 
# 
# High freq. dielectric constant tensor:
#      x y z
#    x 1.703100 0.000000 0.000000 
#    y 0.000000 1.704310 0.000000 
#    z 0.000000 0.000000 1.700850 
# 
# From -- ./inp_files/75853.got.cif
#   From: 2010.03.12/outbox.cif.g09.slc.cpg/sg65_38_cif.got.tgz:75853.got - 2010.04.10 20:52:16.
