data_PCOD8273088
_publ_section_title
;
Structure prediction by ZEFSAII (Michael W. Deem and Ramdas Pophale) SiO2 
 PCOD8273088
Probable space group: C M M M
;
_chemical_formula_sum "Si O2"
_cell_formula_units_Z 64
_cell_length_a 25.787700
_cell_length_b 14.757002
_cell_length_c 8.780408
_cell_angle_alpha 90.000000
_cell_angle_beta 90.000000
_cell_angle_gamma 90.000000
_cell_volume 3341.376717
_symmetry_space_group_name_H-M "C M M M"
_symmetry_group_IT_number 65
_symmetry_cell_setting 'orthorhombic'
loop_
_space_group_symop_operation_xyz
x,y,z
-x,-y,z
x,-y,-z
-x,y,-z
-x,-y,-z
x,y,-z
-x,y,z
x,-y,z
1/2+x,1/2+y,z
1/2-x,1/2-y,z
1/2+x,1/2-y,-z
1/2-x,1/2+y,-z
1/2-x,1/2-y,-z
1/2+x,1/2+y,-z
1/2-x,1/2+y,z
1/2+x,1/2-y,z
loop_
_atom_site_type_symbol
_atom_site_label
_atom_site_fract_x
_atom_site_fract_y
_atom_site_fract_z
Si Si1 0.060138 0.000000 0.321978
Si Si2 0.000000 0.397301 0.679689
Si Si3 0.135329 0.134814 0.179049
Si Si4 0.212725 0.000000 0.679546
Si Si5 0.176233 0.500000 0.821833
Si Si6 0.895975 0.334229 0.177182
O O1 0.083785 0.910626 0.246080
O O2 0.073114 0.000000 0.500000
O O3 0.000000 0.000000 0.287054
O O4 0.949558 0.343127 0.733335
O O5 0.000000 0.500000 0.746396
O O6 0.000000 0.400070 0.500000
O O7 0.132686 0.240740 0.218891
O O8 0.186174 0.090629 0.254099
O O9 0.138012 0.117282 0.000000
O O10 0.205897 0.000000 0.500000
O O11 0.272442 0.000000 0.722585
O O12 0.143284 0.412721 0.774260
O O13 0.190520 0.500000 0.000000
O O14 0.909823 0.339887 0.000000
#
# Coordination Sequence:
#
# PCOD8273088 Si02
#       6
#     8   8  16   8   8  16
#     4  10  21  36  54  80 116 155 190 232 291 350
#     4  11  23  37  57  86 123 160 191 235 290 344
#     4  10  21  38  60  86 113 148 196 243 286 339
#     4  11  23  40  61  85 117 154 189 239 299 350
#     4  10  21  40  63  85 114 152 195 242 287 341
#     4  10  22  39  62  88 116 154 198 241 286 339
#
# _framework density 19.153780000000001
#
# number of rings (size 3 to 8) (size 9 to 14) (size 15 to 20)
#    0.000    1.750    1.250    4.125    1.750    5.500 
#    0.000    5.000    0.000    0.000    0.000    0.000 
#    0.000    0.000    0.000    0.000    0.000    0.000 
#
# Total GULP energy -396931.958146 kJ/mol
# GULP energy per Si atom -12404.123692 kJ/mol
# Density = 1.911019 g / cm^3
# Si number density = 19.153780 Si / 1000 Ang^3
#
#
#
# Elastic Constant Matrix: (Units=GPa)
#
#
# Indices 1 2 3 4 5 6 
#
# 1 147.1806 71.9113 62.2600 0.0000 0.0000 0.0000
# 2 71.9113 164.8230 54.7253 0.0000 0.0000 0.0000
# 3 62.2600 54.7253 97.0683 0.0000 0.0000 0.0000
# 4 0.0000 0.0000 0.0000 10.7286 0.0000 0.0000
# 5 0.0000 0.0000 0.0000 0.0000 7.4303 0.0000
# 6 0.0000 0.0000 0.0000 0.0000 0.0000 -95.4766
#
#
#
# Elastic Compliance Matrix: (Units=1/GPa)
#
#
# Indices 1 2 3 4 5 6 
#
# 1 0.010295 -0.002829 -0.005009 0.000000 0.000000 0.000000
# 2 -0.002829 0.008242 -0.002832 0.000000 0.000000 0.000000
# 3 -0.005009 -0.002832 0.015111 0.000000 0.000000 0.000000
# 4 0.000000 0.000000 0.000000 0.093209 0.000000 0.000000
# 5 0.000000 0.000000 0.000000 0.000000 0.134584 0.000000
# 6 0.000000 0.000000 0.000000 0.000000 0.000000 -0.010474
#
#
# Mechanical properties :
#
#
# Convention : Reuss Voigt Hill
#
# Bulk Modulus (GPa) = 81.24019 87.42945 84.33482
# Shear Modulus (GPa) = 18.08911 -0.78519 8.65196
#
# Velocity S-wave (km/s) = 3.07647 -0.64096 2.12765
# Velocity P-wave (km/s) = 7.42471 6.72290 7.08250
#
# Compressibility (1/GPa) = 0.01230918
#
# Stress axis : x y z
#
# Youngs Moduli (GPa) = 97.13264 121.33558 66.17603
#
# Poissons Ratio (x) = 0.34323 0.33145
# Poissons Ratio (y) = 0.27477 0.18742
# Poissons Ratio (z) = 0.48650 0.34363
#
# Static dielectric constant tensor:
#      x y z
#    x 3.424480 0.000000 0.000000 
#    y 0.000000 3.653520 0.000000 
#    z 0.000000 0.000000 3.508620 
# 
# 
# High freq. dielectric constant tensor:
#      x y z
#    x 1.747980 0.000000 0.000000 
#    y 0.000000 1.753610 0.000000 
#    z 0.000000 0.000000 1.749650 
# 
# From -- ./inp_files/13431.got.cif
#   From: 2010.03.12/outbox.cif.g09.slc.cpg/sg65_7_cif.got.tgz:13431.got - 2010.04.10 20:52:16.
