data_PCOD8273418
_publ_section_title
;
Structure prediction by ZEFSAII (Michael W. Deem and Ramdas Pophale) SiO2 
 PCOD8273418
Probable space group: C M M M
;
_chemical_formula_sum "Si O2"
_cell_formula_units_Z 72
_cell_length_a 19.806215
_cell_length_b 8.931041
_cell_length_c 19.782006
_cell_angle_alpha 90.000000
_cell_angle_beta 90.000000
_cell_angle_gamma 90.000000
_cell_volume 3499.241380
_symmetry_space_group_name_H-M "C M M M"
_symmetry_group_IT_number 65
_symmetry_cell_setting 'orthorhombic'
loop_
_space_group_symop_operation_xyz
x,y,z
-x,-y,z
x,-y,-z
-x,y,-z
-x,-y,-z
x,y,-z
-x,y,z
x,-y,z
1/2+x,1/2+y,z
1/2-x,1/2-y,z
1/2+x,1/2-y,-z
1/2-x,1/2+y,-z
1/2-x,1/2-y,-z
1/2+x,1/2+y,-z
1/2-x,1/2+y,z
1/2+x,1/2-y,z
loop_
_atom_site_type_symbol
_atom_site_label
_atom_site_fract_x
_atom_site_fract_y
_atom_site_fract_z
Si Si1 0.424007 0.177136 0.188057
Si Si2 0.500000 0.165545 0.421029
Si Si3 0.136001 0.176848 0.577310
Si Si4 0.184764 0.323243 0.295639
Si Si5 0.179857 0.323892 0.922949
O O1 0.500000 0.246825 0.189440
O O2 0.382997 0.223754 0.255482
O O3 0.381947 0.236114 0.123111
O O4 0.429988 0.000000 0.183739
O O5 0.500000 0.139331 0.500000
O O6 0.563780 0.261568 0.399244
O O7 0.500000 0.000000 0.385530
O O8 0.153507 0.222299 0.500000
O O9 0.186881 0.256639 0.628375
O O10 0.137597 0.000000 0.586422
O O11 0.193467 0.500000 0.298393
O O12 0.250000 0.250000 0.258677
O O13 0.189125 0.500000 0.913068
O O14 0.250000 0.250000 0.900006
O O15 0.162153 0.281191 0.000000
#
# Coordination Sequence:
#
# PCOD8273418 Si02
#       5
#    16   8  16  16  16
#     4   9  19  35  55  82 113 145 187 236 281 328
#     4   9  17  31  53  81 111 143 178 217 270 335
#     4  10  21  37  57  82 112 144 183 235 289 341
#     4  11  23  38  58  80 109 148 188 235 290 348
#     4   9  17  31  55  85 116 151 187 225 271 326
#
# _framework density 20.575889
#
# number of rings (size 3 to 8) (size 9 to 14) (size 15 to 20)
#    0.000    2.333    0.000    2.333    1.556    3.556 
#    0.000    3.333    0.000    3.333    0.000    3.111 
#    0.000    0.000    0.000    0.000    0.000    0.000 
#
# Total GULP energy -446230.229555 kJ/mol
# GULP energy per Si atom -12395.284154 kJ/mol
# Density = 2.052906 g / cm^3
# Si number density = 20.575889 Si / 1000 Ang^3
#
#
#
# Elastic Constant Matrix: (Units=GPa)
#
#
# Indices 1 2 3 4 5 6 
#
# 1 171.4792 40.9226 72.2590 0.0000 0.0000 0.0000
# 2 40.9226 66.5560 38.1299 0.0000 0.0000 0.0000
# 3 72.2590 38.1299 122.5579 0.0000 0.0000 0.0000
# 4 0.0000 0.0000 0.0000 17.5053 0.0000 0.0000
# 5 0.0000 0.0000 0.0000 0.0000 31.4592 0.0000
# 6 0.0000 0.0000 0.0000 0.0000 0.0000 31.9713
#
#
#
# Elastic Compliance Matrix: (Units=1/GPa)
#
#
# Indices 1 2 3 4 5 6 
#
# 1 0.008153 -0.002749 -0.003952 0.000000 0.000000 0.000000
# 2 -0.002749 0.019211 -0.004356 0.000000 0.000000 0.000000
# 3 -0.003952 -0.004356 0.011844 0.000000 0.000000 0.000000
# 4 0.000000 0.000000 0.000000 0.057126 0.000000 0.000000
# 5 0.000000 0.000000 0.000000 0.000000 0.031787 0.000000
# 6 0.000000 0.000000 0.000000 0.000000 0.000000 0.031278
#
#
# Mechanical properties :
#
#
# Convention : Reuss Voigt Hill
#
# Bulk Modulus (GPa) = 58.49713 73.69069 66.09391
# Shear Modulus (GPa) = 26.70794 30.13925 28.42359
#
# Velocity S-wave (km/s) = 3.60671 3.83140 3.72076
# Velocity P-wave (km/s) = 6.77024 7.44746 7.11691
#
# Compressibility (1/GPa) = 0.01709486
#
# Stress axis : x y z
#
# Youngs Moduli (GPa) = 122.65774 52.05424 84.42780
#
# Poissons Ratio (x) = 0.14310 0.33362
# Poissons Ratio (y) = 0.33718 0.36777
# Poissons Ratio (z) = 0.48469 0.22675
#
# Static dielectric constant tensor:
#      x y z
#    x 3.972790 0.000000 0.000000 
#    y 0.000000 3.461030 0.000000 
#    z 0.000000 0.000000 3.808370 
# 
# 
# High freq. dielectric constant tensor:
#      x y z
#    x 1.812800 0.000000 0.000000 
#    y 0.000000 1.778280 0.000000 
#    z 0.000000 0.000000 1.805240 
# 
# From -- ./inp_files/64320.got.cif
#   From: 2010.03.12/outbox.cif.g09.slc.cpg/sg65_33_cif.got.tgz:64320.got - 2010.04.10 20:52:16.
