data_PCOD8273212
_publ_section_title
;
Structure prediction by ZEFSAII (Michael W. Deem and Ramdas Pophale) SiO2 
 PCOD8273212
Probable space group: C M M M
;
_chemical_formula_sum "Si O2"
_cell_formula_units_Z 64
_cell_length_a 14.851661
_cell_length_b 10.146895
_cell_length_c 20.986405
_cell_angle_alpha 90.000000
_cell_angle_beta 90.000000
_cell_angle_gamma 90.000000
_cell_volume 3162.614397
_symmetry_space_group_name_H-M "C M M M"
_symmetry_group_IT_number 65
_symmetry_cell_setting 'orthorhombic'
loop_
_space_group_symop_operation_xyz
x,y,z
-x,-y,z
x,-y,-z
-x,y,-z
-x,-y,-z
x,y,-z
-x,y,z
x,-y,z
1/2+x,1/2+y,z
1/2-x,1/2-y,z
1/2+x,1/2-y,-z
1/2-x,1/2+y,-z
1/2-x,1/2-y,-z
1/2+x,1/2+y,-z
1/2-x,1/2+y,z
1/2+x,1/2-y,z
loop_
_atom_site_type_symbol
_atom_site_label
_atom_site_fract_x
_atom_site_fract_y
_atom_site_fract_z
Si Si1 0.000000 0.734070 0.155285
Si Si2 0.358760 0.500000 0.345200
Si Si3 0.143655 0.244987 0.570842
Si Si4 0.500000 0.000000 0.250998
Si Si5 0.354609 0.000000 0.354411
Si Si6 0.500000 0.500000 0.234095
Si Si7 0.169121 0.652498 0.925626
O O1 0.000000 0.876907 0.186893
O O2 0.914123 0.712015 0.111620
O O3 0.000000 0.631335 0.211396
O O4 0.390182 0.625580 0.385693
O O5 0.250922 0.500000 0.335824
O O6 0.409784 0.500000 0.277604
O O7 0.101656 0.232143 0.500000
O O8 0.250000 0.250000 0.564998
O O9 0.111718 0.377501 0.604204
O O10 0.592617 0.000000 0.289089
O O11 0.189669 0.500000 0.905762
O O12 0.250000 0.750000 0.907724
O O13 0.146612 0.658933 0.000000
#
# Coordination Sequence:
#
# PCOD8273212 Si02
#       7
#     8   8  16   4   8   4  16
#     4  12  25  43  64  91 131 178 216 263 305 369
#     4  10  21  40  56  79 116 159 196 262 314 370
#     4   9  17  33  59  85 109 145 194 253 327 388
#     4  12  24  40  60  84 116 172 218 244 300 376
#     4  10  21  36  58  81 116 151 198 260 316 372
#     4  12  28  40  58  88 126 168 230 258 298 366
#     4  10  22  43  72 104 134 165 206 259 318 374
#
# _framework density 20.236424
#
# number of rings (size 3 to 8) (size 9 to 14) (size 15 to 20)
#    0.000    1.750    1.250    2.625    1.750    6.000 
#    0.000    4.375    0.000    0.000    0.000    0.000 
#    0.000    0.000    0.000    0.000    0.000    0.000 
#
# Total GULP energy -396771.104592 kJ/mol
# GULP energy per Si atom -12399.097019 kJ/mol
# Density = 2.019036 g / cm^3
# Si number density = 20.236424 Si / 1000 Ang^3
#
#
#
# Elastic Constant Matrix: (Units=GPa)
#
#
# Indices 1 2 3 4 5 6 
#
# 1 117.4942 66.5071 78.2994 0.0000 0.0000 0.0000
# 2 66.5071 212.1791 80.1563 0.0000 0.0000 0.0000
# 3 78.2994 80.1563 105.8408 0.0000 0.0000 0.0000
# 4 0.0000 0.0000 0.0000 43.6556 0.0000 0.0000
# 5 0.0000 0.0000 0.0000 0.0000 341.5746 0.0000
# 6 0.0000 0.0000 0.0000 0.0000 0.0000 14.5715
#
#
#
# Elastic Compliance Matrix: (Units=1/GPa)
#
#
# Indices 1 2 3 4 5 6 
#
# 1 0.016884 -0.000804 -0.011882 0.000000 0.000000 0.000000
# 2 -0.000804 0.006640 -0.004434 0.000000 0.000000 0.000000
# 3 -0.011882 -0.004434 0.021597 0.000000 0.000000 0.000000
# 4 0.000000 0.000000 0.000000 0.022907 0.000000 0.000000
# 5 0.000000 0.000000 0.000000 0.000000 0.002928 0.000000
# 6 0.000000 0.000000 0.000000 0.000000 0.000000 0.068627
#
#
# Mechanical properties :
#
#
# Convention : Reuss Voigt Hill
#
# Bulk Modulus (GPa) = 91.90357 98.38219 95.14288
# Shear Modulus (GPa) = 28.17705 93.99710 61.08708
#
# Velocity S-wave (km/s) = 3.73553 6.82278 5.50020
# Velocity P-wave (km/s) = 8.00744 10.52564 9.35169
#
# Compressibility (1/GPa) = 0.01088097
#
# Stress axis : x y z
#
# Youngs Moduli (GPa) = 59.22642 150.60214 46.30352
#
# Poissons Ratio (x) = 0.12101 0.55019
# Poissons Ratio (y) = 0.04759 0.20532
# Poissons Ratio (z) = 0.70374 0.66780
#
# Static dielectric constant tensor:
#      x y z
#    x 3.497020 0.000000 0.000000 
#    y 0.000000 3.942820 0.000000 
#    z 0.000000 0.000000 3.764520 
# 
# 
# High freq. dielectric constant tensor:
#      x y z
#    x 1.788750 0.000000 0.000000 
#    y 0.000000 1.810090 0.000000 
#    z 0.000000 0.000000 1.795840 
# 
# From -- ./inp_files/52588.got.cif
#   From: 2010.03.12/outbox.cif.g09.slc.cpg/sg65_27_cif.got.tgz:52588.got - 2010.04.10 20:52:16.
