data_PCOD8273824
_publ_section_title
;
Structure prediction by ZEFSAII (Michael W. Deem and Ramdas Pophale) SiO2 
 PCOD8273824
Probable space group: C M M M
;
_chemical_formula_sum "Si O2"
_cell_formula_units_Z 64
_cell_length_a 18.328411
_cell_length_b 8.598364
_cell_length_c 20.405653
_cell_angle_alpha 90.000000
_cell_angle_beta 90.000000
_cell_angle_gamma 90.000000
_cell_volume 3215.815607
_symmetry_space_group_name_H-M "C M M M"
_symmetry_group_IT_number 65
_symmetry_cell_setting 'orthorhombic'
loop_
_space_group_symop_operation_xyz
x,y,z
-x,-y,z
x,-y,-z
-x,y,-z
-x,-y,-z
x,y,-z
-x,y,z
x,-y,z
1/2+x,1/2+y,z
1/2-x,1/2-y,z
1/2+x,1/2-y,-z
1/2-x,1/2+y,-z
1/2-x,1/2-y,-z
1/2+x,1/2+y,-z
1/2-x,1/2+y,z
1/2+x,1/2-y,z
loop_
_atom_site_type_symbol
_atom_site_label
_atom_site_fract_x
_atom_site_fract_y
_atom_site_fract_z
Si Si1 0.669614 0.184170 0.000000
Si Si2 0.583044 0.183804 0.500000
Si Si3 0.669757 0.682236 0.621068
Si Si4 0.084830 0.820272 0.878123
Si Si5 0.915586 0.318750 0.739048
O O1 0.750000 0.250000 0.000000
O O2 0.629283 0.244011 0.936048
O O3 0.670842 0.000000 0.000000
O O4 0.500000 0.242817 0.500000
O O5 0.620945 0.245264 0.435278
O O6 0.587382 0.000000 0.500000
O O7 0.674161 0.500000 0.610556
O O8 0.750000 0.750000 0.616939
O O9 0.634276 0.719852 0.690774
O O10 0.105874 0.729882 0.812206
O O11 0.000000 0.800991 0.894619
O O12 0.106446 0.000000 0.870183
O O13 0.899311 0.500000 0.728917
O O14 0.000000 0.279521 0.724864
#
# Coordination Sequence:
#
# PCOD8273824 Si02
#       5
#     8   8  16  16  16
#     4  12  25  40  59  85 119 157 199 246 299 356
#     4  11  24  43  66  91 121 157 198 245 296 351
#     4  12  25  41  62  89 123 160 200 245 296 353
#     4  10  21  39  63  90 120 155 197 244 294 351
#     4  10  21  39  63  91 122 156 197 244 294 350
#
# _framework density 19.901637000000001
#
# number of rings (size 3 to 8) (size 9 to 14) (size 15 to 20)
#    0.000    1.125    0.000    6.750    0.000    9.500 
#    0.000    5.000    0.000    0.000    0.000    0.000 
#    0.000    0.000    0.000    0.000    0.000    0.000 
#
# Total GULP energy -397014.886521 kJ/mol
# GULP energy per Si atom -12406.715204 kJ/mol
# Density = 1.985634 g / cm^3
# Si number density = 19.901637 Si / 1000 Ang^3
#
#
#
# Elastic Constant Matrix: (Units=GPa)
#
#
# Indices 1 2 3 4 5 6 
#
# 1 130.1707 49.8245 81.6046 0.0000 0.0000 0.0000
# 2 49.8245 64.9998 24.1328 0.0000 0.0000 0.0000
# 3 81.6046 24.1328 126.7178 0.0000 0.0000 0.0000
# 4 0.0000 0.0000 0.0000 46.1933 0.0000 0.0000
# 5 0.0000 0.0000 0.0000 0.0000 204.5589 0.0000
# 6 0.0000 0.0000 0.0000 0.0000 0.0000 34.1519
#
#
#
# Elastic Compliance Matrix: (Units=1/GPa)
#
#
# Indices 1 2 3 4 5 6 
#
# 1 0.017194 -0.009759 -0.009214 0.000000 0.000000 0.000000
# 2 -0.009759 0.022094 0.002077 0.000000 0.000000 0.000000
# 3 -0.009214 0.002077 0.013430 0.000000 0.000000 0.000000
# 4 0.000000 0.000000 0.000000 0.021648 0.000000 0.000000
# 5 0.000000 0.000000 0.000000 0.000000 0.004889 0.000000
# 6 0.000000 0.000000 0.000000 0.000000 0.000000 0.029281
#
#
# Mechanical properties :
#
#
# Convention : Reuss Voigt Hill
#
# Bulk Modulus (GPa) = 52.83855 70.33466 61.58661
# Shear Modulus (GPa) = 33.63924 68.06924 50.85424
#
# Velocity S-wave (km/s) = 4.11576 5.85466 5.06046
# Velocity P-wave (km/s) = 7.01380 9.00670 8.07199
#
# Compressibility (1/GPa) = 0.01892558
#
# Stress axis : x y z
#
# Youngs Moduli (GPa) = 58.16030 45.26123 74.46118
#
# Poissons Ratio (x) = 0.44169 0.68609
# Poissons Ratio (y) = 0.56757 -0.15464
# Poissons Ratio (z) = 0.53590 -0.09400
#
# Static dielectric constant tensor:
#      x y z
#    x 3.781000 0.000000 0.000000 
#    y 0.000000 3.862780 0.000000 
#    z 0.000000 0.000000 3.862730 
# 
# 
# High freq. dielectric constant tensor:
#      x y z
#    x 1.782480 0.000000 0.000000 
#    y 0.000000 1.796360 0.000000 
#    z 0.000000 0.000000 1.795050 
# 
# From -- ./inp_files/63288.got.cif
#   From: 2010.03.12/outbox.cif.g09.slc.cpg/sg65_32_cif.got.tgz:63288.got - 2010.04.10 20:52:16.
