data_PCOD8273345
_publ_section_title
;
Structure prediction by ZEFSAII (Michael W. Deem and Ramdas Pophale) SiO2 
 PCOD8273345
Probable space group: C M M M
;
_chemical_formula_sum "Si O2"
_cell_formula_units_Z 104
_cell_length_a 8.797443
_cell_length_b 28.156189
_cell_length_c 21.464192
_cell_angle_alpha 90.000000
_cell_angle_beta 90.000000
_cell_angle_gamma 90.000000
_cell_volume 5316.733328
_symmetry_space_group_name_H-M "C M M M"
_symmetry_group_IT_number 65
_symmetry_cell_setting 'orthorhombic'
loop_
_space_group_symop_operation_xyz
x,y,z
-x,-y,z
x,-y,-z
-x,y,-z
-x,-y,-z
x,y,-z
-x,y,z
x,-y,z
1/2+x,1/2+y,z
1/2-x,1/2-y,z
1/2+x,1/2-y,-z
1/2-x,1/2+y,-z
1/2-x,1/2-y,-z
1/2+x,1/2+y,-z
1/2-x,1/2+y,z
1/2+x,1/2-y,z
loop_
_atom_site_type_symbol
_atom_site_label
_atom_site_fract_x
_atom_site_fract_y
_atom_site_fract_z
Si Si1 0.319072 0.801410 0.000000
Si Si2 0.820493 0.054329 0.687333
Si Si3 0.677624 0.801132 0.367538
Si Si4 0.178875 0.640571 0.246489
Si Si5 0.324131 0.386125 0.430327
Si Si6 0.679716 0.448947 0.069101
Si Si7 0.179964 0.851797 0.119182
O O1 0.250000 0.750000 0.000000
O O2 0.260658 0.825836 0.062544
O O3 0.500000 0.800180 0.000000
O O4 0.742471 0.087869 0.738913
O O5 0.774282 0.072998 0.618389
O O6 0.000000 0.056925 0.697998
O O7 0.762809 0.000000 0.694356
O O8 0.500000 0.794938 0.374022
O O9 0.750000 0.750000 0.376855
O O10 0.724120 0.823194 0.301057
O O11 0.733608 0.837223 0.420583
O O12 0.256046 0.664283 0.185751
O O13 0.000000 0.636828 0.236538
O O14 0.290617 0.405145 0.500000
O O15 0.500000 0.373856 0.420858
O O16 0.500000 0.449717 0.063361
O O17 0.738428 0.500000 0.094793
O O18 0.728232 0.407218 0.115191
O O19 0.747572 0.439699 0.000000
O O20 0.000000 0.842880 0.114886
#
# Coordination Sequence:
#
# PCOD8273345 Si02
#       7
#     8  16  16  16  16  16  16
#     4  12  26  44  63  84 113 147 186 233 285 341
#     4   9  18  34  56  82 113 151 194 235 277 327
#     4  10  21  37  57  78 105 141 183 230 280 335
#     4  10  22  38  55  80 112 147 187 232 282 334
#     4   9  18  33  54  82 115 148 184 228 277 330
#     4   8  14  27  50  79 108 137 171 210 253 309
#     4  11  21  37  61  87 114 146 186 231 282 336
#
# _framework density 19.560883
#
# number of rings (size 3 to 8) (size 9 to 14) (size 15 to 20)
#    0.000    2.308    0.769    2.538    0.000    4.308 
#    0.000    4.615    0.000    1.846    0.000    4.308 
#    0.000    0.000    0.000    0.000    0.000    0.000 
#
# Total GULP energy -644639.009270 kJ/mol
# GULP energy per Si atom -12396.904024 kJ/mol
# Density = 1.951636 g / cm^3
# Si number density = 19.560883 Si / 1000 Ang^3
#
#
#
# Elastic Constant Matrix: (Units=GPa)
#
#
# Indices 1 2 3 4 5 6 
#
# 1 69.9061 28.7619 34.4840 0.0000 0.0000 0.0000
# 2 28.7619 89.3708 20.5770 0.0000 0.0000 0.0000
# 3 34.4840 20.5770 106.2199 0.0000 0.0000 0.0000
# 4 0.0000 0.0000 0.0000 10.4028 0.0000 0.0000
# 5 0.0000 0.0000 0.0000 0.0000 28.2913 0.0000
# 6 0.0000 0.0000 0.0000 0.0000 0.0000 27.9744
#
#
#
# Elastic Compliance Matrix: (Units=1/GPa)
#
#
# Indices 1 2 3 4 5 6 
#
# 1 0.018868 -0.004879 -0.005180 0.000000 0.000000 0.000000
# 2 -0.004879 0.012974 -0.000929 0.000000 0.000000 0.000000
# 3 -0.005180 -0.000929 0.011276 0.000000 0.000000 0.000000
# 4 0.000000 0.000000 0.000000 0.096128 0.000000 0.000000
# 5 0.000000 0.000000 0.000000 0.000000 0.035347 0.000000
# 6 0.000000 0.000000 0.000000 0.000000 0.000000 0.035747
#
#
# Mechanical properties :
#
#
# Convention : Reuss Voigt Hill
#
# Bulk Modulus (GPa) = 47.30356 48.12695 47.71526
# Shear Modulus (GPa) = 20.88879 25.44531 23.16705
#
# Velocity S-wave (km/s) = 3.27140 3.61061 3.44518
# Velocity P-wave (km/s) = 6.20521 6.48376 6.34601
#
# Compressibility (1/GPa) = 0.02114006
#
# Stress axis : x y z
#
# Youngs Moduli (GPa) = 53.00039 77.07953 88.68281
#
# Poissons Ratio (x) = 0.37611 0.45939
# Poissons Ratio (y) = 0.25861 0.08240
# Poissons Ratio (z) = 0.27455 0.07162
#
# Static dielectric constant tensor:
#      x y z
#    x 3.419970 0.000000 0.000000 
#    y 0.000000 3.745230 0.000000 
#    z 0.000000 0.000000 3.603560 
# 
# 
# High freq. dielectric constant tensor:
#      x y z
#    x 1.747180 0.000000 0.000000 
#    y 0.000000 1.762800 0.000000 
#    z 0.000000 0.000000 1.764170 
# 
# From -- ./inp_files/60422.got.cif
#   From: 2010.03.12/outbox.cif.g09.slc.cpg/sg65_31_cif.got.tgz:60422.got - 2010.04.10 20:52:16.
