data_PCOD8273446
_publ_section_title
;
Structure prediction by ZEFSAII (Michael W. Deem and Ramdas Pophale) SiO2 
 PCOD8273446
Probable space group: C M M M
;
_chemical_formula_sum "Si O2"
_cell_formula_units_Z 56
_cell_length_a 8.780721
_cell_length_b 18.026023
_cell_length_c 17.773025
_cell_angle_alpha 90.000000
_cell_angle_beta 90.000000
_cell_angle_gamma 90.000000
_cell_volume 2813.140678
_symmetry_space_group_name_H-M "C M M M"
_symmetry_group_IT_number 65
_symmetry_cell_setting 'orthorhombic'
loop_
_space_group_symop_operation_xyz
x,y,z
-x,-y,z
x,-y,-z
-x,y,-z
-x,-y,-z
x,y,-z
-x,y,z
x,-y,z
1/2+x,1/2+y,z
1/2-x,1/2-y,z
1/2+x,1/2-y,-z
1/2-x,1/2+y,-z
1/2-x,1/2-y,-z
1/2+x,1/2+y,-z
1/2-x,1/2+y,z
1/2+x,1/2-y,z
loop_
_atom_site_type_symbol
_atom_site_label
_atom_site_fract_x
_atom_site_fract_y
_atom_site_fract_z
Si Si1 0.179930 0.669532 0.637700
Si Si2 0.321626 0.585024 0.227089
Si Si3 0.678103 0.326606 0.916416
Si Si4 0.826279 0.087818 0.500000
O O1 0.250000 0.750000 0.625956
O O2 0.225378 0.636661 0.718077
O O3 0.241460 0.615550 0.573784
O O4 0.000000 0.675700 0.631786
O O5 0.500000 0.596426 0.244212
O O6 0.273314 0.500000 0.238169
O O7 0.280467 0.608164 0.141722
O O8 0.500000 0.313367 0.918863
O O9 0.750000 0.250000 0.887881
O O10 0.738823 0.348264 0.000000
O O11 0.000000 0.116644 0.500000
O O12 0.820569 0.000000 0.500000
#
# Coordination Sequence:
#
# PCOD8273446 Si02
#       4
#    16  16  16   8
#     4  12  25  41  62  87 117 152 193 237 282 336
#     4  10  21  37  57  83 116 152 191 237 289 342
#     4   9  18  33  54  80 110 147 191 237 285 338
#     4  11  24  43  66  91 121 153 186 229 282 337
#
# _framework density 19.906575
#
# number of rings (size 3 to 8) (size 9 to 14) (size 15 to 20)
#    0.000    1.571    0.000    5.143    0.000    9.143 
#    0.000    2.857    0.000    0.000    0.000    6.000 
#    0.000    0.000    0.000    0.000    0.000    0.000 
#
# Total GULP energy -347298.341486 kJ/mol
# GULP energy per Si atom -12403.512196 kJ/mol
# Density = 1.986127 g / cm^3
# Si number density = 19.906575 Si / 1000 Ang^3
#
#
#
# Elastic Constant Matrix: (Units=GPa)
#
#
# Indices 1 2 3 4 5 6 
#
# 1 107.8441 42.6426 46.2590 0.0000 0.0000 0.0000
# 2 42.6426 89.8831 36.2228 0.0000 0.0000 0.0000
# 3 46.2590 36.2228 109.3582 0.0000 0.0000 0.0000
# 4 0.0000 0.0000 0.0000 43.0850 0.0000 0.0000
# 5 0.0000 0.0000 0.0000 0.0000 -77.0227 0.0000
# 6 0.0000 0.0000 0.0000 0.0000 0.0000 30.2334
#
#
#
# Elastic Compliance Matrix: (Units=1/GPa)
#
#
# Indices 1 2 3 4 5 6 
#
# 1 0.012708 -0.004458 -0.003899 0.000000 0.000000 0.000000
# 2 -0.004458 0.014403 -0.002885 0.000000 0.000000 0.000000
# 3 -0.003899 -0.002885 0.011749 0.000000 0.000000 0.000000
# 4 0.000000 0.000000 0.000000 0.023210 0.000000 0.000000
# 5 0.000000 0.000000 0.000000 0.000000 -0.012983 0.000000
# 6 0.000000 0.000000 0.000000 0.000000 0.000000 0.033076
#
#
# Mechanical properties :
#
#
# Convention : Reuss Voigt Hill
#
# Bulk Modulus (GPa) = 61.06269 61.92600 61.49435
# Shear Modulus (GPa) = 45.41138 11.38990 28.40064
#
# Velocity S-wave (km/s) = 4.78140 2.39460 3.78126
# Velocity P-wave (km/s) = 7.82455 6.23068 7.07266
#
# Compressibility (1/GPa) = 0.01637661
#
# Stress axis : x y z
#
# Youngs Moduli (GPa) = 78.69314 69.42985 85.11239
#
# Poissons Ratio (x) = 0.30948 0.33184
# Poissons Ratio (y) = 0.35078 0.24556
# Poissons Ratio (z) = 0.30682 0.20032
#
# Static dielectric constant tensor:
#      x y z
#    x 3.668910 0.000000 0.000000 
#    y 0.000000 3.782500 0.000000 
#    z 0.000000 0.000000 4.022460 
# 
# 
# High freq. dielectric constant tensor:
#      x y z
#    x 1.773130 0.000000 0.000000 
#    y 0.000000 1.780720 0.000000 
#    z 0.000000 0.000000 1.794110 
# 
# From -- ./inp_files/35462.got.cif
#   From: 2010.03.12/outbox.cif.g09.slc.cpg/sg65_18_cif.got.tgz:35462.got - 2010.04.10 20:52:16.
