data_PCOD8273918
_publ_section_title
;
Structure prediction by ZEFSAII (Michael W. Deem and Ramdas Pophale) SiO2 
 PCOD8273918
Probable space group: C M M M
;
_chemical_formula_sum "Si O2"
_cell_formula_units_Z 104
_cell_length_a 26.178759
_cell_length_b 27.755483
_cell_length_c 7.661393
_cell_angle_alpha 90.000000
_cell_angle_beta 90.000000
_cell_angle_gamma 90.000000
_cell_volume 5566.799568
_symmetry_space_group_name_H-M "C M M M"
_symmetry_group_IT_number 65
_symmetry_cell_setting 'orthorhombic'
loop_
_space_group_symop_operation_xyz
x,y,z
-x,-y,z
x,-y,-z
-x,y,-z
-x,-y,-z
x,y,-z
-x,y,z
x,-y,z
1/2+x,1/2+y,z
1/2-x,1/2-y,z
1/2+x,1/2-y,-z
1/2-x,1/2+y,-z
1/2-x,1/2-y,-z
1/2+x,1/2+y,-z
1/2-x,1/2+y,z
1/2+x,1/2-y,z
loop_
_atom_site_type_symbol
_atom_site_label
_atom_site_fract_x
_atom_site_fract_y
_atom_site_fract_z
Si Si1 0.872259 0.054088 0.500000
Si Si2 0.375409 0.311825 0.198435
Si Si3 0.560400 0.353653 0.500000
Si Si4 0.500000 0.945699 0.295265
Si Si5 0.697720 0.228370 0.207129
Si Si6 0.695605 0.878842 0.207065
Si Si7 0.691703 0.595597 0.198194
Si Si8 0.891734 0.553680 0.798694
O O1 0.918772 0.091731 0.500000
O O2 0.838111 0.060131 0.673126
O O3 0.894779 0.000000 0.500000
O O4 0.421446 0.325446 0.327174
O O5 0.350828 0.261244 0.259040
O O6 0.330230 0.350648 0.211290
O O7 0.396762 0.309275 0.000000
O O8 0.500000 0.355918 0.500000
O O9 0.500000 0.943336 0.500000
O O10 0.447661 0.921510 0.225865
O O11 0.500000 0.000000 0.221476
O O12 0.750000 0.250000 0.286939
O O13 0.689461 0.174911 0.284965
O O14 0.703000 0.226751 0.000000
O O15 0.749666 0.902059 0.259442
O O16 0.651026 0.912282 0.288998
O O17 0.690946 0.875618 0.000000
O O18 0.686596 0.575872 0.000000
O O19 0.890576 0.500000 0.711949
O O20 0.878430 0.548800 0.000000
#
# Coordination Sequence:
#
# PCOD8273918 Si02
#       8
#     8  16   8   8  16  16  16  16
#     4  10  22  37  53  79 106 135 179 220 268 325
#     4   9  17  32  56  81 106 138 173 211 263 319
#     4  10  22  39  58  78 103 137 184 233 267 314
#     4   9  17  31  49  63  79 113 161 207 249 289
#     4   9  14  25  50  80 107 136 167 204 248 301
#     4   9  16  27  48  77 105 134 169 206 251 306
#     4   9  17  32  52  76 108 141 168 203 256 321
#     4   9  17  29  46  67  90 121 164 208 246 291
#
# _framework density 18.682188
#
# number of rings (size 3 to 8) (size 9 to 14) (size 15 to 20)
#    0.000    2.846    1.538    0.231    0.000    2.308 
#    1.385    2.692    1.692    0.000    0.000    4.308 
#    0.000    0.000    0.000    0.000    0.000    0.000 
#
# Total GULP energy -644561.817380 kJ/mol
# GULP energy per Si atom -12395.419565 kJ/mol
# Density = 1.863967 g / cm^3
# Si number density = 18.682188 Si / 1000 Ang^3
#
#
#
# Elastic Constant Matrix: (Units=GPa)
#
#
# Indices 1 2 3 4 5 6 
#
# 1 162.7935 64.4703 39.4578 0.0000 0.0000 0.0000
# 2 64.4703 104.5835 26.4706 0.0000 0.0000 0.0000
# 3 39.4578 26.4706 67.3904 0.0000 0.0000 0.0000
# 4 0.0000 0.0000 0.0000 8.5015 0.0000 0.0000
# 5 0.0000 0.0000 0.0000 0.0000 6.4460 0.0000
# 6 0.0000 0.0000 0.0000 0.0000 0.0000 16.8986
#
#
#
# Elastic Compliance Matrix: (Units=1/GPa)
#
#
# Indices 1 2 3 4 5 6 
#
# 1 0.008754 -0.004552 -0.003338 0.000000 0.000000 0.000000
# 2 -0.004552 0.012984 -0.002435 0.000000 0.000000 0.000000
# 3 -0.003338 -0.002435 0.017750 0.000000 0.000000 0.000000
# 4 0.000000 0.000000 0.000000 0.117627 0.000000 0.000000
# 5 0.000000 0.000000 0.000000 0.000000 0.155134 0.000000
# 6 0.000000 0.000000 0.000000 0.000000 0.000000 0.059176
#
#
# Mechanical properties :
#
#
# Convention : Reuss Voigt Hill
#
# Bulk Modulus (GPa) = 53.08163 66.17385 59.62774
# Shear Modulus (GPa) = 12.55166 19.99382 16.27274
#
# Velocity S-wave (km/s) = 2.59482 3.27495 2.95452
# Velocity P-wave (km/s) = 6.11981 7.05678 6.60493
#
# Compressibility (1/GPa) = 0.01883891
#
# Stress axis : x y z
#
# Youngs Moduli (GPa) = 114.22813 77.01798 56.33899
#
# Poissons Ratio (x) = 0.35057 0.18805
# Poissons Ratio (y) = 0.51994 0.13718
# Poissons Ratio (z) = 0.38128 0.18753
#
# Static dielectric constant tensor:
#      x y z
#    x 3.335920 0.000000 0.000000 
#    y 0.000000 3.551410 0.000000 
#    z 0.000000 0.000000 3.316040 
# 
# 
# High freq. dielectric constant tensor:
#      x y z
#    x 1.708910 0.000000 0.000000 
#    y 0.000000 1.707190 0.000000 
#    z 0.000000 0.000000 1.713680 
# 
# From -- ./inp_files/15076.got.cif
#   From: 2010.03.12/outbox.cif.g09.slc.cpg/sg65_8_cif.got.tgz:15076.got - 2010.04.10 20:52:16.
