data_PCOD8273757
_publ_section_title
;
Structure prediction by ZEFSAII (Michael W. Deem and Ramdas Pophale) SiO2 
 PCOD8273757
Probable space group: C M M M
;
_chemical_formula_sum "Si O2"
_cell_formula_units_Z 80
_cell_length_a 8.489273
_cell_length_b 23.933487
_cell_length_c 20.077716
_cell_angle_alpha 90.000000
_cell_angle_beta 90.000000
_cell_angle_gamma 90.000000
_cell_volume 4079.348274
_symmetry_space_group_name_H-M "C M M M"
_symmetry_group_IT_number 65
_symmetry_cell_setting 'orthorhombic'
loop_
_space_group_symop_operation_xyz
x,y,z
-x,-y,z
x,-y,-z
-x,y,-z
-x,-y,-z
x,y,-z
-x,y,z
x,-y,z
1/2+x,1/2+y,z
1/2-x,1/2-y,z
1/2+x,1/2-y,-z
1/2-x,1/2+y,-z
1/2-x,1/2-y,-z
1/2+x,1/2+y,-z
1/2-x,1/2+y,z
1/2+x,1/2-y,z
loop_
_atom_site_type_symbol
_atom_site_label
_atom_site_fract_x
_atom_site_fract_y
_atom_site_fract_z
Si Si1 0.316921 0.500000 0.728260
Si Si2 0.681234 0.000000 0.872014
Si Si3 0.319111 0.389544 0.075442
Si Si4 0.185870 0.880072 0.308879
Si Si5 0.184220 0.690122 0.577027
Si Si6 0.314994 0.188303 0.813189
O O1 0.500000 0.500000 0.715249
O O2 0.286256 0.500000 0.806462
O O3 0.248696 0.443675 0.694804
O O4 0.717261 0.945256 0.914947
O O5 0.500000 0.000000 0.850590
O O6 0.500000 0.404317 0.090749
O O7 0.264634 0.340197 0.123344
O O8 0.296301 0.368385 0.000000
O O9 0.226087 0.857394 0.381898
O O10 0.277133 0.844778 0.253847
O O11 0.000000 0.876526 0.294730
O O12 0.221737 0.678645 0.500000
O O13 0.250000 0.750000 0.599389
O O14 0.000000 0.688306 0.592537
O O15 0.500000 0.189677 0.824759
O O16 0.250000 0.250000 0.805196
#
# Coordination Sequence:
#
# PCOD8273757 Si02
#       6
#     8   8  16  16  16  16
#     4  10  22  39  62  87 120 159 198 245 299 354
#     4  12  23  37  62  92 121 155 198 250 300 356
#     4  11  24  42  63  87 119 158 199 248 304 360
#     4  11  22  39  63  90 121 158 200 247 298 355
#     4  10  21  38  61  90 124 161 201 247 297 350
#     4  12  25  41  62  88 119 156 200 248 302 363
#
# _framework density 19.610975
#
# number of rings (size 3 to 8) (size 9 to 14) (size 15 to 20)
#    0.000    1.000    2.000    5.400    0.000    5.200 
#    0.000    0.500    0.000    3.000    0.000    0.000 
#    0.000    0.000    0.000    0.000    0.000    0.000 
#
# Total GULP energy -496220.908536 kJ/mol
# GULP energy per Si atom -12405.522713 kJ/mol
# Density = 1.956634 g / cm^3
# Si number density = 19.610975 Si / 1000 Ang^3
#
#
#
# Elastic Constant Matrix: (Units=GPa)
#
#
# Indices 1 2 3 4 5 6 
#
# 1 35.6032 25.6490 16.8679 0.0000 0.0000 0.0000
# 2 25.6490 158.7933 62.2035 0.0000 0.0000 0.0000
# 3 16.8679 62.2035 103.9739 0.0000 0.0000 0.0000
# 4 0.0000 0.0000 0.0000 31.0324 0.0000 0.0000
# 5 0.0000 0.0000 0.0000 0.0000 33.4189 0.0000
# 6 0.0000 0.0000 0.0000 0.0000 0.0000 14.6970
#
#
#
# Elastic Compliance Matrix: (Units=1/GPa)
#
#
# Indices 1 2 3 4 5 6 
#
# 1 0.032388 -0.004144 -0.002775 0.000000 0.000000 0.000000
# 2 -0.004144 0.008755 -0.004566 0.000000 0.000000 0.000000
# 3 -0.002775 -0.004566 0.012799 0.000000 0.000000 0.000000
# 4 0.000000 0.000000 0.000000 0.032224 0.000000 0.000000
# 5 0.000000 0.000000 0.000000 0.000000 0.029923 0.000000
# 6 0.000000 0.000000 0.000000 0.000000 0.000000 0.068041
#
#
# Mechanical properties :
#
#
# Convention : Reuss Voigt Hill
#
# Bulk Modulus (GPa) = 32.28654 56.42348 44.35501
# Shear Modulus (GPa) = 22.99639 28.73965 25.86802
#
# Velocity S-wave (km/s) = 3.42808 3.83232 3.63582
# Velocity P-wave (km/s) = 5.67170 6.95817 6.34761
#
# Compressibility (1/GPa) = 0.03097266
#
# Stress axis : x y z
#
# Youngs Moduli (GPa) = 30.87588 114.21510 78.12849
#
# Poissons Ratio (x) = 0.47336 0.21680
# Poissons Ratio (y) = 0.12796 0.35671
# Poissons Ratio (z) = 0.08568 0.52147
#
# Static dielectric constant tensor:
#      x y z
#    x 3.666500 0.000000 0.000000 
#    y 0.000000 3.828330 0.000000 
#    z 0.000000 0.000000 3.542360 
# 
# 
# High freq. dielectric constant tensor:
#      x y z
#    x 1.775620 0.000000 0.000000 
#    y 0.000000 1.770750 0.000000 
#    z 0.000000 0.000000 1.765000 
# 
# From -- ./inp_files/59612.got.cif
#   From: 2010.03.12/outbox.cif.g09.slc.cpg/sg65_30_cif.got.tgz:59612.got - 2010.04.10 20:52:16.
