data_PCOD8273718
_publ_section_title
;
Structure prediction by ZEFSAII (Michael W. Deem and Ramdas Pophale) SiO2 
 PCOD8273718
Probable space group: C M M M
;
_chemical_formula_sum "Si O2"
_cell_formula_units_Z 80
_cell_length_a 18.509726
_cell_length_b 8.721764
_cell_length_c 25.331165
_cell_angle_alpha 90.000000
_cell_angle_beta 90.000000
_cell_angle_gamma 90.000000
_cell_volume 4089.398984
_symmetry_space_group_name_H-M "C M M M"
_symmetry_group_IT_number 65
_symmetry_cell_setting 'orthorhombic'
loop_
_space_group_symop_operation_xyz
x,y,z
-x,-y,z
x,-y,-z
-x,y,-z
-x,-y,-z
x,y,-z
-x,y,z
x,-y,z
1/2+x,1/2+y,z
1/2-x,1/2-y,z
1/2+x,1/2-y,-z
1/2-x,1/2+y,-z
1/2-x,1/2-y,-z
1/2+x,1/2+y,-z
1/2-x,1/2+y,z
1/2+x,1/2-y,z
loop_
_atom_site_type_symbol
_atom_site_label
_atom_site_fract_x
_atom_site_fract_y
_atom_site_fract_z
Si Si1 0.915985 0.820725 0.350558
Si Si2 0.919338 0.682479 0.155632
Si Si3 0.326242 0.818846 0.059068
Si Si4 0.173914 0.679121 0.438647
Si Si5 0.329122 0.181269 0.744826
O O1 0.890286 0.762774 0.407694
O O2 0.872290 0.729120 0.306780
O O3 0.000000 0.782168 0.344331
O O4 0.900401 0.000000 0.344725
O O5 0.921761 0.500000 0.156983
O O6 0.886062 0.740729 0.100238
O O7 0.871454 0.745008 0.203977
O O8 0.000000 0.750457 0.160628
O O9 0.250000 0.750000 0.076288
O O10 0.318921 0.000000 0.061630
O O11 0.348164 0.764747 0.000000
O O12 0.159743 0.711049 0.500000
O O13 0.174688 0.500000 0.425321
O O14 0.250000 0.750000 0.420387
O O15 0.250000 0.250000 0.744049
O O16 0.322658 0.000000 0.746429
#
# Coordination Sequence:
#
# PCOD8273718 Si02
#       5
#    16  16  16  16  16
#     4  11  24  40  58  82 113 146 181 224 273 324
#     4   9  18  32  51  77 106 136 174 220 269 319
#     4   9  17  30  50  75 103 136 174 217 263 314
#     4  10  21  38  61  87 115 148 186 226 267 316
#     4  11  22  37  58  80 106 141 181 225 271 323
#
# _framework density 19.562777000000001
#
# number of rings (size 3 to 8) (size 9 to 14) (size 15 to 20)
#    0.000    2.000    0.000    3.600    0.000    4.400 
#    0.000    5.000    0.000    3.000    0.000    2.800 
#    0.000    0.000    0.000    0.000    0.000    0.000 
#
# Total GULP energy -496121.590626 kJ/mol
# GULP energy per Si atom -12403.039766 kJ/mol
# Density = 1.951825 g / cm^3
# Si number density = 19.562777 Si / 1000 Ang^3
#
#
#
# Elastic Constant Matrix: (Units=GPa)
#
#
# Indices 1 2 3 4 5 6 
#
# 1 158.5903 41.8166 79.4172 0.0000 0.0000 0.0000
# 2 41.8166 50.4249 27.1238 0.0000 0.0000 0.0000
# 3 79.4172 27.1238 118.3072 0.0000 0.0000 0.0000
# 4 0.0000 0.0000 0.0000 18.8282 0.0000 0.0000
# 5 0.0000 0.0000 0.0000 0.0000 35.2320 0.0000
# 6 0.0000 0.0000 0.0000 0.0000 0.0000 24.2413
#
#
#
# Elastic Compliance Matrix: (Units=1/GPa)
#
#
# Indices 1 2 3 4 5 6 
#
# 1 0.010791 -0.005763 -0.005922 0.000000 0.000000 0.000000
# 2 -0.005763 0.025699 -0.002023 0.000000 0.000000 0.000000
# 3 -0.005922 -0.002023 0.012892 0.000000 0.000000 0.000000
# 4 0.000000 0.000000 0.000000 0.053112 0.000000 0.000000
# 5 0.000000 0.000000 0.000000 0.000000 0.028383 0.000000
# 6 0.000000 0.000000 0.000000 0.000000 0.000000 0.041252
#
#
# Mechanical properties :
#
#
# Convention : Reuss Voigt Hill
#
# Bulk Modulus (GPa) = 45.52817 69.33751 57.43284
# Shear Modulus (GPa) = 24.16997 27.59128 25.88063
#
# Velocity S-wave (km/s) = 3.51879 3.75960 3.64119
# Velocity P-wave (km/s) = 6.31131 7.37337 6.86292
#
# Compressibility (1/GPa) = 0.02196442
#
# Stress axis : x y z
#
# Youngs Moduli (GPa) = 92.67046 38.91199 77.56711
#
# Poissons Ratio (x) = 0.22425 0.45939
# Poissons Ratio (y) = 0.53406 0.15694
# Poissons Ratio (z) = 0.54884 0.07873
#
# Static dielectric constant tensor:
#      x y z
#    x 3.470920 0.000000 0.000000 
#    y 0.000000 3.425700 0.000000 
#    z 0.000000 0.000000 3.815500 
# 
# 
# High freq. dielectric constant tensor:
#      x y z
#    x 1.767570 0.000000 0.000000 
#    y 0.000000 1.747450 0.000000 
#    z 0.000000 0.000000 1.777990 
# 
# From -- ./inp_files/72774.got.cif
#   From: 2010.03.12/outbox.cif.g09.slc.cpg/sg65_37_cif.got.tgz:72774.got - 2010.04.10 20:52:16.
