data_PCOD8273428
_publ_section_title
;
Structure prediction by ZEFSAII (Michael W. Deem and Ramdas Pophale) SiO2 
 PCOD8273428
Probable space group: C M M M
;
_chemical_formula_sum "Si O2"
_cell_formula_units_Z 88
_cell_length_a 23.757669
_cell_length_b 8.442362
_cell_length_c 22.915725
_cell_angle_alpha 90.000000
_cell_angle_beta 90.000000
_cell_angle_gamma 90.000000
_cell_volume 4596.226258
_symmetry_space_group_name_H-M "C M M M"
_symmetry_group_IT_number 65
_symmetry_cell_setting 'orthorhombic'
loop_
_space_group_symop_operation_xyz
x,y,z
-x,-y,z
x,-y,-z
-x,y,-z
-x,-y,-z
x,y,-z
-x,y,z
x,-y,z
1/2+x,1/2+y,z
1/2-x,1/2-y,z
1/2+x,1/2-y,-z
1/2-x,1/2+y,-z
1/2-x,1/2-y,-z
1/2+x,1/2+y,-z
1/2-x,1/2+y,z
1/2+x,1/2-y,z
loop_
_atom_site_type_symbol
_atom_site_label
_atom_site_fract_x
_atom_site_fract_y
_atom_site_fract_z
Si Si1 0.188790 0.687719 0.435521
Si Si2 0.500000 0.680846 0.690235
Si Si3 0.380628 0.813447 0.327625
Si Si4 0.104004 0.813752 0.875752
Si Si5 0.000000 0.680666 0.188741
Si Si6 0.563626 0.685211 0.000000
Si Si7 0.312810 0.811530 0.213885
O O1 0.169082 0.746171 0.500000
O O2 0.189428 0.500000 0.433523
O O3 0.250000 0.750000 0.420829
O O4 0.148914 0.758258 0.385193
O O5 0.500000 0.500000 0.670635
O O6 0.555005 0.765114 0.665591
O O7 0.500000 0.693787 0.759571
O O8 0.351259 0.750164 0.268144
O O9 0.375273 0.000000 0.327075
O O10 0.055378 0.708366 0.848132
O O11 0.101466 0.767018 0.944084
O O12 0.162867 0.763114 0.846131
O O13 0.093009 0.000000 0.866357
O O14 0.000000 0.500000 0.212598
O O15 0.553470 0.500000 0.000000
O O16 0.500000 0.762135 0.000000
O O17 0.250000 0.750000 0.223729
O O18 0.312835 0.000000 0.209081
#
# Coordination Sequence:
#
# PCOD8273428 Si02
#       7
#    16   8  16  16   8   8  16
#     4   9  18  34  57  84 113 150 192 232 277 328
#     4  12  24  36  56  84 112 149 190 228 279 340
#     4  10  21  37  57  82 116 149 183 233 284 333
#     4  11  21  37  60  85 114 148 188 231 279 333
#     4  12  22  35  55  83 118 150 181 227 283 334
#     4   9  18  34  57  86 115 144 183 231 278 326
#     4  11  23  38  57  82 113 148 188 234 284 334
#
# _framework density 19.146141
#
# number of rings (size 3 to 8) (size 9 to 14) (size 15 to 20)
#    0.000    1.545    2.727    3.273    0.000    1.455 
#    0.000    3.182    0.000    2.727    0.000    0.000 
#    0.000    0.000    0.000    0.000    0.000    0.000 
#
# Total GULP energy -545502.911487 kJ/mol
# GULP energy per Si atom -12397.793443 kJ/mol
# Density = 1.910256 g / cm^3
# Si number density = 19.146141 Si / 1000 Ang^3
#
#
#
# Elastic Constant Matrix: (Units=GPa)
#
#
# Indices 1 2 3 4 5 6 
#
# 1 135.5751 14.5330 76.8997 0.0000 0.0000 0.0000
# 2 14.5330 32.7778 18.9271 0.0000 0.0000 0.0000
# 3 76.8997 18.9271 154.3442 0.0000 0.0000 0.0000
# 4 0.0000 0.0000 0.0000 19.1772 0.0000 0.0000
# 5 0.0000 0.0000 0.0000 0.0000 36.5144 0.0000
# 6 0.0000 0.0000 0.0000 0.0000 0.0000 28.8775
#
#
#
# Elastic Compliance Matrix: (Units=1/GPa)
#
#
# Indices 1 2 3 4 5 6 
#
# 1 0.010373 -0.001738 -0.004955 0.000000 0.000000 0.000000
# 2 -0.001738 0.033125 -0.003196 0.000000 0.000000 0.000000
# 3 -0.004955 -0.003196 0.009340 0.000000 0.000000 0.000000
# 4 0.000000 0.000000 0.000000 0.052145 0.000000 0.000000
# 5 0.000000 0.000000 0.000000 0.000000 0.027386 0.000000
# 6 0.000000 0.000000 0.000000 0.000000 0.000000 0.034629
#
#
# Mechanical properties :
#
#
# Convention : Reuss Voigt Hill
#
# Bulk Modulus (GPa) = 30.24889 60.37962 45.31426
# Shear Modulus (GPa) = 25.27862 31.06964 28.17413
#
# Velocity S-wave (km/s) = 3.63753 4.03272 3.84022
# Velocity P-wave (km/s) = 5.78580 7.29989 6.58650
#
# Compressibility (1/GPa) = 0.03305906
#
# Stress axis : x y z
#
# Youngs Moduli (GPa) = 96.40600 30.18903 107.06967
#
# Poissons Ratio (x) = 0.05247 0.53053
# Poissons Ratio (y) = 0.16754 0.34221
# Poissons Ratio (z) = 0.47769 0.09649
#
# Static dielectric constant tensor:
#      x y z
#    x 3.457100 0.000000 0.000000 
#    y 0.000000 3.348870 0.000000 
#    z 0.000000 0.000000 3.933780 
# 
# 
# High freq. dielectric constant tensor:
#      x y z
#    x 1.739110 0.000000 0.000000 
#    y 0.000000 1.735540 0.000000 
#    z 0.000000 0.000000 1.749150 
# 
# From -- ./inp_files/65215.got.cif
#   From: 2010.03.12/outbox.cif.g09.slc.cpg/sg65_33_cif.got.tgz:65215.got - 2010.04.10 20:52:16.
