data_PCOD8273044
_publ_section_title
;
Structure prediction by ZEFSAII (Michael W. Deem and Ramdas Pophale) SiO2 
 PCOD8273044
Probable space group: C M M M
;
_chemical_formula_sum "Si O2"
_cell_formula_units_Z 96
_cell_length_a 19.881030
_cell_length_b 8.803366
_cell_length_c 29.482744
_cell_angle_alpha 90.000000
_cell_angle_beta 90.000000
_cell_angle_gamma 90.000000
_cell_volume 5160.069370
_symmetry_space_group_name_H-M "C M M M"
_symmetry_group_IT_number 65
_symmetry_cell_setting 'orthorhombic'
loop_
_space_group_symop_operation_xyz
x,y,z
-x,-y,z
x,-y,-z
-x,y,-z
-x,-y,-z
x,y,-z
-x,y,z
x,-y,z
1/2+x,1/2+y,z
1/2-x,1/2-y,z
1/2+x,1/2-y,-z
1/2-x,1/2+y,-z
1/2-x,1/2-y,-z
1/2+x,1/2+y,-z
1/2-x,1/2+y,z
1/2+x,1/2-y,z
loop_
_atom_site_type_symbol
_atom_site_label
_atom_site_fract_x
_atom_site_fract_y
_atom_site_fract_z
Si Si1 0.077824 0.825145 0.219550
Si Si2 0.320265 0.321112 0.618165
Si Si3 0.181654 0.322362 0.051080
Si Si4 0.820390 0.320965 0.286073
Si Si5 0.422539 0.825980 0.447458
Si Si6 0.922426 0.826042 0.115300
O O1 0.122298 0.714164 0.249742
O O2 0.094317 0.788799 0.167379
O O3 0.000000 0.791725 0.230044
O O4 0.094873 0.000000 0.230705
O O5 0.311481 0.500000 0.623943
O O6 0.250000 0.250000 0.601394
O O7 0.342244 0.249585 0.665966
O O8 0.377270 0.287190 0.581486
O O9 0.191761 0.500000 0.051431
O O10 0.250000 0.250000 0.070491
O O11 0.119893 0.281386 0.082991
O O12 0.167346 0.262677 0.000000
O O13 0.811758 0.500000 0.291444
O O14 0.750000 0.250000 0.269417
O O15 0.408064 0.793731 0.500000
O O16 0.500000 0.792128 0.435923
O O17 0.404881 0.000000 0.435479
O O18 0.000000 0.792663 0.105158
O O19 0.904746 0.000000 0.104497
#
# Coordination Sequence:
#
# PCOD8273044 Si02
#       6
#    16  16  16  16  16  16
#     4   9  19  37  58  80 108 140 176 218 263 313
#     4  11  22  37  57  80 109 143 180 223 268 316
#     4  10  21  36  54  77 106 140 178 221 266 313
#     4  11  22  37  57  80 108 141 179 221 266 317
#     4   9  19  37  59  82 110 143 179 221 267 315
#     4   9  19  36  57  80 107 140 176 216 263 315
#
# _framework density 18.604402
#
# number of rings (size 3 to 8) (size 9 to 14) (size 15 to 20)
#    0.000    2.167    0.000    6.000    0.000    5.000 
#    0.000    4.167    0.000    0.000    0.000    0.000 
#    0.000    0.000    0.000    0.000    0.000    0.000 
#
# Total GULP energy -595355.143265 kJ/mol
# GULP energy per Si atom -12403.232151 kJ/mol
# Density = 1.856206 g / cm^3
# Si number density = 18.604402 Si / 1000 Ang^3
#
#
#
# Elastic Constant Matrix: (Units=GPa)
#
#
# Indices 1 2 3 4 5 6 
#
# 1 99.2078 53.4465 67.8006 0.0000 0.0000 0.0000
# 2 53.4465 121.0300 50.2937 0.0000 0.0000 0.0000
# 3 67.8006 50.2937 86.9653 0.0000 0.0000 0.0000
# 4 0.0000 0.0000 0.0000 32.3711 0.0000 0.0000
# 5 0.0000 0.0000 0.0000 0.0000 40.3530 0.0000
# 6 0.0000 0.0000 0.0000 0.0000 0.0000 34.9612
#
#
#
# Elastic Compliance Matrix: (Units=1/GPa)
#
#
# Indices 1 2 3 4 5 6 
#
# 1 0.022653 -0.003507 -0.015632 0.000000 0.000000 0.000000
# 2 -0.003507 0.011419 -0.003869 0.000000 0.000000 0.000000
# 3 -0.015632 -0.003869 0.025924 0.000000 0.000000 0.000000
# 4 0.000000 0.000000 0.000000 0.030892 0.000000 0.000000
# 5 0.000000 0.000000 0.000000 0.000000 0.024781 0.000000
# 6 0.000000 0.000000 0.000000 0.000000 0.000000 0.028603
#
#
# Mechanical properties :
#
#
# Convention : Reuss Voigt Hill
#
# Bulk Modulus (GPa) = 71.54312 72.25388 71.89850
# Shear Modulus (GPa) = 25.64753 30.58120 28.11437
#
# Velocity S-wave (km/s) = 3.71694 4.05873 3.89159
# Velocity P-wave (km/s) = 7.54714 7.80293 7.67610
#
# Compressibility (1/GPa) = 0.01397758
#
# Stress axis : x y z
#
# Youngs Moduli (GPa) = 44.14433 87.57146 38.57410
#
# Poissons Ratio (x) = 0.30715 0.60301
# Poissons Ratio (y) = 0.15483 0.14926
# Poissons Ratio (z) = 0.69008 0.33885
#
# Static dielectric constant tensor:
#      x y z
#    x 3.353570 0.000000 0.000000 
#    y 0.000000 3.348090 0.000000 
#    z 0.000000 0.000000 3.368010 
# 
# 
# High freq. dielectric constant tensor:
#      x y z
#    x 1.725200 0.000000 0.000000 
#    y 0.000000 1.725270 0.000000 
#    z 0.000000 0.000000 1.721840 
# 
# From -- ./inp_files/75315.got.cif
#   From: 2010.03.12/outbox.cif.g09.slc.cpg/sg65_38_cif.got.tgz:75315.got - 2010.04.10 20:52:16.
