data_PCOD8273039
_publ_section_title
;
Structure prediction by ZEFSAII (Michael W. Deem and Ramdas Pophale) SiO2 
 PCOD8273039
Probable space group: C M M M
;
_chemical_formula_sum "Si O2"
_cell_formula_units_Z 80
_cell_length_a 19.667340
_cell_length_b 8.879178
_cell_length_c 25.227543
_cell_angle_alpha 90.000000
_cell_angle_beta 90.000000
_cell_angle_gamma 90.000000
_cell_volume 4405.481108
_symmetry_space_group_name_H-M "C M M M"
_symmetry_group_IT_number 65
_symmetry_cell_setting 'orthorhombic'
loop_
_space_group_symop_operation_xyz
x,y,z
-x,-y,z
x,-y,-z
-x,y,-z
-x,-y,-z
x,y,-z
-x,y,z
x,-y,z
1/2+x,1/2+y,z
1/2-x,1/2-y,z
1/2+x,1/2-y,-z
1/2-x,1/2+y,-z
1/2-x,1/2-y,-z
1/2+x,1/2+y,-z
1/2-x,1/2+y,z
1/2+x,1/2-y,z
loop_
_atom_site_type_symbol
_atom_site_label
_atom_site_fract_x
_atom_site_fract_y
_atom_site_fract_z
Si Si1 0.323383 0.823611 0.057457
Si Si2 0.578304 0.174141 0.242889
Si Si3 0.324225 0.677840 0.838788
Si Si4 0.078687 0.329050 0.364964
Si Si5 0.818793 0.823908 0.559797
O O1 0.250000 0.750000 0.053820
O O2 0.359984 0.742326 0.107144
O O3 0.316702 0.000000 0.069738
O O4 0.360371 0.798283 0.000000
O O5 0.500000 0.211095 0.229521
O O6 0.626944 0.281440 0.209501
O O7 0.593798 0.209915 0.304014
O O8 0.593922 0.000000 0.230054
O O9 0.316266 0.500000 0.842796
O O10 0.250000 0.750000 0.830030
O O11 0.100577 0.500000 0.377080
O O12 0.119192 0.217669 0.402577
O O13 0.000000 0.305298 0.377703
O O14 0.834081 0.766939 0.500000
O O15 0.750000 0.750000 0.581908
O O16 0.808062 0.000000 0.561048
#
# Coordination Sequence:
#
# PCOD8273039 Si02
#       5
#    16  16  16  16  16
#     4   9  16  27  45  69  98 131 166 206 253 301
#     4   9  19  37  57  75 100 134 170 209 255 306
#     4  11  21  32  50  76 105 135 170 211 253 300
#     4   9  19  36  57  79 102 132 170 210 253 302
#     4  10  21  36  54  77 106 139 172 208 252 300
#
# _framework density 18.159196999999999
#
# number of rings (size 3 to 8) (size 9 to 14) (size 15 to 20)
#    0.000    2.400    0.000    5.400    0.000    5.200 
#    0.000    4.000    0.000    0.600    0.000    4.200 
#    0.000    0.000    0.000    0.000    0.000    0.000 
#
# Total GULP energy -495847.338552 kJ/mol
# GULP energy per Si atom -12396.183464 kJ/mol
# Density = 1.811787 g / cm^3
# Si number density = 18.159197 Si / 1000 Ang^3
#
#
#
# Elastic Constant Matrix: (Units=GPa)
#
#
# Indices 1 2 3 4 5 6 
#
# 1 66.1363 41.7286 56.6387 0.0000 0.0000 0.0000
# 2 41.7286 111.9375 53.2725 0.0000 0.0000 0.0000
# 3 56.6387 53.2725 104.5362 0.0000 0.0000 0.0000
# 4 0.0000 0.0000 0.0000 34.2226 0.0000 0.0000
# 5 0.0000 0.0000 0.0000 0.0000 -19.5171 0.0000
# 6 0.0000 0.0000 0.0000 0.0000 0.0000 29.6961
#
#
#
# Elastic Compliance Matrix: (Units=1/GPa)
#
#
# Indices 1 2 3 4 5 6 
#
# 1 0.029854 -0.004530 -0.013867 0.000000 0.000000 0.000000
# 2 -0.004530 0.012481 -0.003906 0.000000 0.000000 0.000000
# 3 -0.013867 -0.003906 0.019070 0.000000 0.000000 0.000000
# 4 0.000000 0.000000 0.000000 0.029220 0.000000 0.000000
# 5 0.000000 0.000000 0.000000 0.000000 -0.051237 0.000000
# 6 0.000000 0.000000 0.000000 0.000000 0.000000 0.033674
#
#
# Mechanical properties :
#
#
# Convention : Reuss Voigt Hill
#
# Bulk Modulus (GPa) = 59.52583 65.09886 62.31234
# Shear Modulus (GPa) = 40.56229 17.61167 29.08698
#
# Velocity S-wave (km/s) = 4.73134 3.11762 4.00656
# Velocity P-wave (km/s) = 7.91824 6.99187 7.46943
#
# Compressibility (1/GPa) = 0.01679943
#
# Stress axis : x y z
#
# Youngs Moduli (GPa) = 33.49690 80.12050 52.43892
#
# Poissons Ratio (x) = 0.36292 0.72715
# Poissons Ratio (y) = 0.15173 0.20484
# Poissons Ratio (z) = 0.46449 0.31298
#
# Static dielectric constant tensor:
#      x y z
#    x 3.028490 0.000000 0.000000 
#    y 0.000000 3.341940 0.000000 
#    z 0.000000 0.000000 3.802790 
# 
# 
# High freq. dielectric constant tensor:
#      x y z
#    x 1.670920 0.000000 0.000000 
#    y 0.000000 1.710510 0.000000 
#    z 0.000000 0.000000 1.718280 
# 
# From -- ./inp_files/72829.got.cif
#   From: 2010.03.12/outbox.cif.g09.slc.cpg/sg65_37_cif.got.tgz:72829.got - 2010.04.10 20:52:16.
