data_PCOD8273635
_publ_section_title
;
Structure prediction by ZEFSAII (Michael W. Deem and Ramdas Pophale) SiO2 
 PCOD8273635
Probable space group: C M M M
;
_chemical_formula_sum "Si O2"
_cell_formula_units_Z 88
_cell_length_a 24.531491
_cell_length_b 20.265917
_cell_length_c 8.568887
_cell_angle_alpha 90.000000
_cell_angle_beta 90.000000
_cell_angle_gamma 90.000000
_cell_volume 4260.049254
_symmetry_space_group_name_H-M "C M M M"
_symmetry_group_IT_number 65
_symmetry_cell_setting 'orthorhombic'
loop_
_space_group_symop_operation_xyz
x,y,z
-x,-y,z
x,-y,-z
-x,y,-z
-x,-y,-z
x,y,-z
-x,y,z
x,-y,z
1/2+x,1/2+y,z
1/2-x,1/2-y,z
1/2+x,1/2-y,-z
1/2-x,1/2+y,-z
1/2-x,1/2-y,-z
1/2+x,1/2+y,-z
1/2-x,1/2+y,z
1/2+x,1/2-y,z
loop_
_atom_site_type_symbol
_atom_site_label
_atom_site_fract_x
_atom_site_fract_y
_atom_site_fract_z
Si Si1 0.259382 0.675024 0.185489
Si Si2 0.671665 0.928009 0.185534
Si Si3 0.558658 0.881022 0.185204
Si Si4 0.561937 0.269029 0.174761
Si Si5 0.628880 0.622632 0.679915
Si Si6 0.062930 0.000000 0.815608
O O1 0.250000 0.750000 0.248179
O O2 0.209468 0.630577 0.249785
O O3 0.312612 0.638059 0.246854
O O4 0.262072 0.675949 0.000000
O O5 0.610001 0.921198 0.252707
O O6 0.693956 0.000000 0.237797
O O7 0.669890 0.922970 0.000000
O O8 0.500000 0.907088 0.251027
O O9 0.566574 0.805378 0.233759
O O10 0.556754 0.886203 0.000000
O O11 0.500000 0.293409 0.169820
O O12 0.593805 0.311593 0.300597
O O13 0.587418 0.276852 0.000000
O O14 0.636108 0.604511 0.500000
O O15 0.596868 0.563568 0.762867
O O16 0.000000 0.000000 0.750110
O O17 0.060222 0.000000 0.000000
#
# Coordination Sequence:
#
# PCOD8273635 Si02
#       6
#    16  16  16  16  16   8
#     4  10  21  38  60  82 109 154 208 254 296 352
#     4   9  17  28  46  75 107 140 184 235 284 333
#     4   8  14  26  47  76 109 142 178 225 280 337
#     4   9  17  32  55  80 107 145 191 231 274 339
#     4  12  25  38  57  86 120 153 190 244 310 365
#     4  11  25  45  67  89 117 159 208 251 298 369
#
# _framework density 20.657038
#
# number of rings (size 3 to 8) (size 9 to 14) (size 15 to 20)
#    0.000    2.273    0.000    4.636    1.273    6.909 
#    0.000    1.818    0.000    0.000    0.000    0.000 
#    0.000    0.000    0.000   11.091    0.000   10.909 
#
# Total GULP energy -545281.509118 kJ/mol
# GULP energy per Si atom -12392.761571 kJ/mol
# Density = 2.061002 g / cm^3
# Si number density = 20.657038 Si / 1000 Ang^3
#
#
#
# Elastic Constant Matrix: (Units=GPa)
#
#
# Indices 1 2 3 4 5 6 
#
# 1 157.7785 90.3381 18.7835 0.0000 0.0000 0.0000
# 2 90.3381 128.1191 19.9960 0.0000 0.0000 0.0000
# 3 18.7835 19.9960 33.8881 0.0000 0.0000 0.0000
# 4 0.0000 0.0000 0.0000 2.3688 0.0000 0.0000
# 5 0.0000 0.0000 0.0000 0.0000 7.3957 0.0000
# 6 0.0000 0.0000 0.0000 0.0000 0.0000 17.1967
#
#
#
# Elastic Compliance Matrix: (Units=1/GPa)
#
#
# Indices 1 2 3 4 5 6 
#
# 1 0.010710 -0.007298 -0.001631 0.000000 0.000000 0.000000
# 2 -0.007298 0.013569 -0.003962 0.000000 0.000000 0.000000
# 3 -0.001631 -0.003962 0.032750 0.000000 0.000000 0.000000
# 4 0.000000 0.000000 0.000000 0.422157 0.000000 0.000000
# 5 0.000000 0.000000 0.000000 0.000000 0.135213 0.000000
# 6 0.000000 0.000000 0.000000 0.000000 0.000000 0.058151
#
#
# Mechanical properties :
#
#
# Convention : Reuss Voigt Hill
#
# Bulk Modulus (GPa) = 31.99980 64.22454 48.11217
# Shear Modulus (GPa) = 7.05470 18.10346 12.57908
#
# Velocity S-wave (km/s) = 1.85002 2.96359 2.47037
# Velocity P-wave (km/s) = 4.48197 6.54743 5.61057
#
# Compressibility (1/GPa) = 0.03125019
#
# Stress axis : x y z
#
# Youngs Moduli (GPa) = 93.36703 73.69677 30.53405
#
# Poissons Ratio (x) = 0.53780 0.04979
# Poissons Ratio (y) = 0.68135 0.12097
# Poissons Ratio (z) = 0.15224 0.29196
#
# Static dielectric constant tensor:
#      x y z
#    x 4.252460 0.000000 0.000000 
#    y 0.000000 3.934560 0.000000 
#    z 0.000000 0.000000 3.183470 
# 
# 
# High freq. dielectric constant tensor:
#      x y z
#    x 1.825630 0.000000 0.000000 
#    y 0.000000 1.816590 0.000000 
#    z 0.000000 0.000000 1.748340 
# 
# From -- ./inp_files/13971.got.cif
#   From: 2010.03.12/outbox.cif.g09.slc.cpg/sg65_7_cif.got.tgz:13971.got - 2010.04.10 20:52:16.
