data_PCOD8273751
_publ_section_title
;
Structure prediction by ZEFSAII (Michael W. Deem and Ramdas Pophale) SiO2 
 PCOD8273751
Probable space group: C M M M
;
_chemical_formula_sum "Si O2"
_cell_formula_units_Z 64
_cell_length_a 16.076120
_cell_length_b 8.939828
_cell_length_c 21.786250
_cell_angle_alpha 90.000000
_cell_angle_beta 90.000000
_cell_angle_gamma 90.000000
_cell_volume 3131.070781
_symmetry_space_group_name_H-M "C M M M"
_symmetry_group_IT_number 65
_symmetry_cell_setting 'orthorhombic'
loop_
_space_group_symop_operation_xyz
x,y,z
-x,-y,z
x,-y,-z
-x,y,-z
-x,-y,-z
x,y,-z
-x,y,z
x,-y,z
1/2+x,1/2+y,z
1/2-x,1/2-y,z
1/2+x,1/2-y,-z
1/2-x,1/2+y,-z
1/2-x,1/2-y,-z
1/2+x,1/2+y,-z
1/2-x,1/2+y,z
1/2+x,1/2-y,z
loop_
_atom_site_type_symbol
_atom_site_label
_atom_site_fract_x
_atom_site_fract_y
_atom_site_fract_z
Si Si1 0.594532 0.171221 0.250593
Si Si2 0.165100 0.176501 0.139100
Si Si3 0.500000 0.677757 0.930449
Si Si4 0.597792 0.332461 0.500000
Si Si5 0.335704 0.174162 0.379982
O O1 0.500000 0.205291 0.232236
O O2 0.653612 0.277430 0.210271
O O3 0.603681 0.204488 0.322768
O O4 0.619044 0.000000 0.236369
O O5 0.250000 0.250000 0.112945
O O6 0.084536 0.237321 0.101773
O O7 0.174070 0.000000 0.133334
O O8 0.500000 0.500000 0.927530
O O9 0.500000 0.737006 0.000000
O O10 0.635562 0.500000 0.500000
O O11 0.500000 0.338675 0.500000
O O12 0.627171 0.246580 0.559666
O O13 0.250000 0.250000 0.362023
O O14 0.322627 0.000000 0.392806
#
# Coordination Sequence:
#
# PCOD8273751 Si02
#       5
#    16  16   8   8  16
#     4  10  21  38  61  89 121 156 198 250 303 358
#     4  11  22  38  62  92 124 164 207 253 307 362
#     4   9  20  40  63  89 125 166 207 250 301 363
#     4  11  24  41  60  83 111 147 192 245 300 357
#     4  11  23  39  59  84 115 153 194 241 297 358
#
# _framework density 20.440290999999998
#
# number of rings (size 3 to 8) (size 9 to 14) (size 15 to 20)
#    0.000    1.500    1.250    3.750    0.000    6.500 
#    0.000    0.000    0.000    5.250    0.000    0.000 
#    0.000    0.000    0.000    0.000    0.000    0.000 
#
# Total GULP energy -396880.852416 kJ/mol
# GULP energy per Si atom -12402.526638 kJ/mol
# Density = 2.039377 g / cm^3
# Si number density = 20.440291 Si / 1000 Ang^3
#
#
#
# Elastic Constant Matrix: (Units=GPa)
#
#
# Indices 1 2 3 4 5 6 
#
# 1 136.5982 50.6955 51.5851 0.0000 0.0000 0.0000
# 2 50.6955 101.1716 45.0937 0.0000 0.0000 0.0000
# 3 51.5851 45.0937 117.1407 0.0000 0.0000 0.0000
# 4 0.0000 0.0000 0.0000 23.2172 0.0000 0.0000
# 5 0.0000 0.0000 0.0000 0.0000 28.1651 0.0000
# 6 0.0000 0.0000 0.0000 0.0000 0.0000 61.3932
#
#
#
# Elastic Compliance Matrix: (Units=1/GPa)
#
#
# Indices 1 2 3 4 5 6 
#
# 1 0.009753 -0.003588 -0.002913 0.000000 0.000000 0.000000
# 2 -0.003588 0.013252 -0.003521 0.000000 0.000000 0.000000
# 3 -0.002913 -0.003521 0.011175 0.000000 0.000000 0.000000
# 4 0.000000 0.000000 0.000000 0.043071 0.000000 0.000000
# 5 0.000000 0.000000 0.000000 0.000000 0.035505 0.000000
# 6 0.000000 0.000000 0.000000 0.000000 0.000000 0.016288
#
#
# Mechanical properties :
#
#
# Convention : Reuss Voigt Hill
#
# Bulk Modulus (GPa) = 70.75235 72.18437 71.46836
# Shear Modulus (GPa) = 32.50946 36.39085 34.45015
#
# Velocity S-wave (km/s) = 3.99238 4.22400 4.10982
# Velocity P-wave (km/s) = 7.47940 7.69291 7.58691
#
# Compressibility (1/GPa) = 0.01413381
#
# Stress axis : x y z
#
# Youngs Moduli (GPa) = 102.53539 75.46222 89.48397
#
# Poissons Ratio (x) = 0.27079 0.26071
# Poissons Ratio (y) = 0.36794 0.31508
# Poissons Ratio (z) = 0.29873 0.26571
#
# Static dielectric constant tensor:
#      x y z
#    x 4.032230 0.000000 0.000000 
#    y 0.000000 3.671820 0.000000 
#    z 0.000000 0.000000 3.640600 
# 
# 
# High freq. dielectric constant tensor:
#      x y z
#    x 1.813580 0.000000 0.000000 
#    y 0.000000 1.791890 0.000000 
#    z 0.000000 0.000000 1.800050 
# 
# From -- ./inp_files/66815.got.cif
#   From: 2010.03.12/outbox.cif.g09.slc.cpg/sg65_34_cif.got.tgz:66815.got - 2010.04.10 20:52:16.
