data_PCOD8273682
_publ_section_title
;
Structure prediction by ZEFSAII (Michael W. Deem and Ramdas Pophale) SiO2 
 PCOD8273682
Probable space group: C M M M
;
_chemical_formula_sum "Si O2"
_cell_formula_units_Z 48
_cell_length_a 34.527388
_cell_length_b 8.824215
_cell_length_c 7.577469
_cell_angle_alpha 90.000000
_cell_angle_beta 90.000000
_cell_angle_gamma 90.000000
_cell_volume 2308.681243
_symmetry_space_group_name_H-M "C M M M"
_symmetry_group_IT_number 65
_symmetry_cell_setting 'orthorhombic'
loop_
_space_group_symop_operation_xyz
x,y,z
-x,-y,z
x,-y,-z
-x,y,-z
-x,-y,-z
x,y,-z
-x,y,z
x,-y,z
1/2+x,1/2+y,z
1/2-x,1/2-y,z
1/2+x,1/2-y,-z
1/2-x,1/2+y,-z
1/2-x,1/2-y,-z
1/2+x,1/2+y,-z
1/2-x,1/2+y,z
1/2+x,1/2-y,z
loop_
_atom_site_type_symbol
_atom_site_label
_atom_site_fract_x
_atom_site_fract_y
_atom_site_fract_z
Si Si1 0.707854 0.319996 0.500000
Si Si2 0.655701 0.822939 0.792783
Si Si3 0.921586 0.833641 0.795851
Si Si4 0.000000 0.332368 0.293463
O O1 0.710138 0.500000 0.500000
O O2 0.750000 0.250000 0.500000
O O3 0.687136 0.266186 0.320968
O O4 0.613392 0.769583 0.724058
O O5 0.659299 0.000000 0.753199
O O6 0.662483 0.787918 0.000000
O O7 0.962404 0.755743 0.767200
O O8 0.921129 0.000000 0.703876
O O9 0.914620 0.856355 0.000000
O O10 0.000000 0.500000 0.207463
O O11 0.000000 0.346509 0.500000
#
# Coordination Sequence:
#
# PCOD8273682 Si02
#       4
#     8  16  16   8
#     4  12  26  44  68  97 130 167 206 256 312 374
#     4  10  22  42  68  96 128 167 210 258 312 373
#     4  10  21  38  60  86 117 156 203 254 307 364
#     4  11  24  37  52  80 118 161 206 255 305 359
#
# _framework density 20.791091000000002
#
# number of rings (size 3 to 8) (size 9 to 14) (size 15 to 20)
#    0.000    1.500    0.000    4.500    2.333    8.000 
#    0.000    0.000    0.000    0.000    0.000    0.000 
#    0.000    0.000    0.000    0.000    0.000    0.000 
#
# Total GULP energy -297591.011422 kJ/mol
# GULP energy per Si atom -12399.625476 kJ/mol
# Density = 2.074377 g / cm^3
# Si number density = 20.791091 Si / 1000 Ang^3
#
#
#
# Elastic Constant Matrix: (Units=GPa)
#
#
# Indices 1 2 3 4 5 6 
#
# 1 192.6361 91.7934 47.6790 0.0000 0.0000 0.0000
# 2 91.7934 202.8420 51.0541 0.0000 0.0000 0.0000
# 3 47.6790 51.0541 66.1986 0.0000 0.0000 0.0000
# 4 0.0000 0.0000 0.0000 29.7294 0.0000 0.0000
# 5 0.0000 0.0000 0.0000 0.0000 31.1733 0.0000
# 6 0.0000 0.0000 0.0000 0.0000 0.0000 45.8212
#
#
#
# Elastic Compliance Matrix: (Units=1/GPa)
#
#
# Indices 1 2 3 4 5 6 
#
# 1 0.007154 -0.002408 -0.003296 0.000000 0.000000 0.000000
# 2 -0.002408 0.006928 -0.003609 0.000000 0.000000 0.000000
# 3 -0.003296 -0.003609 0.020263 0.000000 0.000000 0.000000
# 4 0.000000 0.000000 0.000000 0.033637 0.000000 0.000000
# 5 0.000000 0.000000 0.000000 0.000000 0.032079 0.000000
# 6 0.000000 0.000000 0.000000 0.000000 0.000000 0.021824
#
#
# Mechanical properties :
#
#
# Convention : Reuss Voigt Hill
#
# Bulk Modulus (GPa) = 63.61182 93.63664 78.62423
# Shear Modulus (GPa) = 34.30547 39.42146 36.86346
#
# Velocity S-wave (km/s) = 4.06644 4.35912 4.21532
# Velocity P-wave (km/s) = 7.26017 8.39467 7.84795
#
# Compressibility (1/GPa) = 0.01572035
#
# Stress axis : x y z
#
# Youngs Moduli (GPa) = 139.77563 144.34254 49.35151
#
# Poissons Ratio (x) = 0.34759 0.16265
# Poissons Ratio (y) = 0.33659 0.17809
# Poissons Ratio (z) = 0.46065 0.52088
#
# Static dielectric constant tensor:
#      x y z
#    x 2.943490 0.000000 0.000000 
#    y 0.000000 4.302030 0.000000 
#    z 0.000000 0.000000 3.824300 
# 
# 
# High freq. dielectric constant tensor:
#      x y z
#    x 1.818130 0.000000 0.000000 
#    y 0.000000 1.836120 0.000000 
#    z 0.000000 0.000000 1.814590 
# 
# From -- ./inp_files/3018.got.cif
#   From: 2010.03.12/outbox.cif.g09.slc.cpg/sg65_2_cif.got.tgz:3018.got - 2010.04.10 20:52:16.
