data_PCOD8273390
_publ_section_title
;
Structure prediction by ZEFSAII (Michael W. Deem and Ramdas Pophale) SiO2 
 PCOD8273390
Probable space group: C M M M
;
_chemical_formula_sum "Si O2"
_cell_formula_units_Z 88
_cell_length_a 8.777436
_cell_length_b 25.650203
_cell_length_c 20.734854
_cell_angle_alpha 90.000000
_cell_angle_beta 90.000000
_cell_angle_gamma 90.000000
_cell_volume 4668.307550
_symmetry_space_group_name_H-M "C M M M"
_symmetry_group_IT_number 65
_symmetry_cell_setting 'orthorhombic'
loop_
_space_group_symop_operation_xyz
x,y,z
-x,-y,z
x,-y,-z
-x,y,-z
-x,-y,-z
x,y,-z
-x,y,z
x,-y,z
1/2+x,1/2+y,z
1/2-x,1/2-y,z
1/2+x,1/2-y,-z
1/2-x,1/2+y,-z
1/2-x,1/2-y,-z
1/2+x,1/2+y,-z
1/2-x,1/2+y,z
1/2+x,1/2-y,z
loop_
_atom_site_type_symbol
_atom_site_label
_atom_site_fract_x
_atom_site_fract_y
_atom_site_fract_z
Si Si1 0.823215 0.000000 0.151769
Si Si2 0.178029 0.696349 0.149684
Si Si3 0.176143 0.896442 0.074366
Si Si4 0.319453 0.195378 0.703353
Si Si5 0.180997 0.096708 0.637411
Si Si6 0.180089 0.058065 0.500000
Si Si7 0.320363 0.000000 0.711466
O O1 0.782524 0.050084 0.109466
O O2 0.714286 0.000000 0.213046
O O3 0.000000 0.000000 0.173093
O O4 0.250000 0.750000 0.124344
O O5 0.225645 0.649695 0.103838
O O6 0.230103 0.684230 0.222884
O O7 0.000000 0.703900 0.146258
O O8 0.000000 0.882177 0.083432
O O9 0.219816 0.903157 0.000000
O O10 0.500000 0.196100 0.694950
O O11 0.250000 0.250000 0.679963
O O12 0.247483 0.151607 0.658611
O O13 0.234134 0.088545 0.563610
O O14 0.000000 0.096242 0.644954
O O15 0.248187 0.051259 0.681086
O O16 0.000000 0.052846 0.500000
O O17 0.252006 0.000000 0.500000
O O18 0.500000 0.000000 0.700019
#
# Coordination Sequence:
#
# PCOD8273390 Si02
#       7
#     8  16  16  16  16   8   8
#     4  10  21  38  59  81 108 147 189 227 276 334
#     4  10  21  37  58  82 110 144 183 230 280 330
#     4  10  21  37  57  81 110 144 184 229 276 332
#     4  10  21  38  59  86 117 149 189 235 282 333
#     4  11  21  37  61  86 114 151 191 232 282 334
#     4   9  18  36  59  84 115 150 191 233 274 330
#     4  12  24  36  54  85 119 147 184 235 284 335
#
# _framework density 18.850514
#
# number of rings (size 3 to 8) (size 9 to 14) (size 15 to 20)
#    0.000    1.727    0.909    3.818    0.000    7.636 
#    0.000    2.727    0.000    1.636    0.000    0.000 
#    0.000    0.000    0.000    0.000    0.000    0.000 
#
# Total GULP energy -545788.942460 kJ/mol
# GULP energy per Si atom -12404.294147 kJ/mol
# Density = 1.880761 g / cm^3
# Si number density = 18.850514 Si / 1000 Ang^3
#
#
#
# Elastic Constant Matrix: (Units=GPa)
#
#
# Indices 1 2 3 4 5 6 
#
# 1 75.6512 50.0430 42.1542 0.0000 0.0000 0.0000
# 2 50.0430 154.4359 76.1946 0.0000 0.0000 0.0000
# 3 42.1542 76.1946 125.5241 0.0000 0.0000 0.0000
# 4 0.0000 0.0000 0.0000 121.6381 0.0000 0.0000
# 5 0.0000 0.0000 0.0000 0.0000 21.6452 0.0000
# 6 0.0000 0.0000 0.0000 0.0000 0.0000 37.1239
#
#
#
# Elastic Compliance Matrix: (Units=1/GPa)
#
#
# Indices 1 2 3 4 5 6 
#
# 1 0.017868 -0.004039 -0.003549 0.000000 0.000000 0.000000
# 2 -0.004039 0.010156 -0.004809 0.000000 0.000000 0.000000
# 3 -0.003549 -0.004809 0.012077 0.000000 0.000000 0.000000
# 4 0.000000 0.000000 0.000000 0.008221 0.000000 0.000000
# 5 0.000000 0.000000 0.000000 0.000000 0.046200 0.000000
# 6 0.000000 0.000000 0.000000 0.000000 0.000000 0.026937
#
#
# Mechanical properties :
#
#
# Convention : Reuss Voigt Hill
#
# Bulk Modulus (GPa) = 65.32245 76.93277 71.12761
# Shear Modulus (GPa) = 33.03495 48.56271 40.79883
#
# Velocity S-wave (km/s) = 4.19079 5.08114 4.65729
# Velocity P-wave (km/s) = 7.62529 8.67897 8.16914
#
# Compressibility (1/GPa) = 0.01530867
#
# Stress axis : x y z
#
# Youngs Moduli (GPa) = 55.96675 98.45982 82.79996
#
# Poissons Ratio (x) = 0.39767 0.29384
# Poissons Ratio (y) = 0.22605 0.39816
# Poissons Ratio (z) = 0.19861 0.47346
#
# Static dielectric constant tensor:
#      x y z
#    x 3.411830 0.000000 0.000000 
#    y 0.000000 3.610650 0.000000 
#    z 0.000000 0.000000 3.614910 
# 
# 
# High freq. dielectric constant tensor:
#      x y z
#    x 1.730900 0.000000 0.000000 
#    y 0.000000 1.744330 0.000000 
#    z 0.000000 0.000000 1.734370 
# 
# From -- ./inp_files/59875.got.cif
#   From: 2010.03.12/outbox.cif.g09.slc.cpg/sg65_30_cif.got.tgz:59875.got - 2010.04.10 20:52:16.
