data_PCOD8273026
_publ_section_title
;
Structure prediction by ZEFSAII (Michael W. Deem and Ramdas Pophale) SiO2 
 PCOD8273026
Probable space group: C M M M
;
_chemical_formula_sum "Si O2"
_cell_formula_units_Z 104
_cell_length_a 29.367373
_cell_length_b 22.564779
_cell_length_c 9.064438
_cell_angle_alpha 90.000000
_cell_angle_beta 90.000000
_cell_angle_gamma 90.000000
_cell_volume 6006.715553
_symmetry_space_group_name_H-M "C M M M"
_symmetry_group_IT_number 65
_symmetry_cell_setting 'orthorhombic'
loop_
_space_group_symop_operation_xyz
x,y,z
-x,-y,z
x,-y,-z
-x,y,-z
-x,-y,-z
x,y,-z
-x,y,z
x,-y,z
1/2+x,1/2+y,z
1/2-x,1/2-y,z
1/2+x,1/2-y,-z
1/2-x,1/2+y,-z
1/2-x,1/2-y,-z
1/2+x,1/2+y,-z
1/2-x,1/2+y,z
1/2+x,1/2-y,z
loop_
_atom_site_type_symbol
_atom_site_label
_atom_site_fract_x
_atom_site_fract_y
_atom_site_fract_z
Si Si1 0.616217 0.930856 0.827502
Si Si2 0.053905 0.000000 0.168489
Si Si3 0.947244 0.659421 0.670409
Si Si4 0.717123 0.929498 0.163768
Si Si5 0.946912 0.780207 0.828173
Si Si6 0.401499 0.610714 0.674509
Si Si7 0.804170 0.066824 0.328042
O O1 0.580538 0.896636 0.727266
O O2 0.667147 0.909910 0.779593
O O3 0.609314 0.000000 0.795323
O O4 0.608177 0.917358 0.000000
O O5 0.070995 0.941950 0.250728
O O6 0.000000 0.000000 0.172662
O O7 0.071623 0.000000 0.000000
O O8 0.935914 0.672221 0.500000
O O9 0.933258 0.716194 0.766502
O O10 0.000000 0.644105 0.692742
O O11 0.758549 0.903746 0.260672
O O12 0.718365 0.000000 0.165152
O O13 0.724690 0.904855 0.000000
O O14 0.917995 0.827350 0.737832
O O15 0.000000 0.793364 0.801750
O O16 0.934291 0.783544 0.000000
O O17 0.409958 0.607496 0.500000
O O18 0.348092 0.605507 0.713799
O O19 0.796146 0.064984 0.500000
O O20 0.812174 0.000000 0.267741
#
# Coordination Sequence:
#
# PCOD8273026 Si02
#       7
#    16   8  16  16  16  16  16
#     4   9  18  33  53  79 110 139 168 203 248 301
#     4  11  23  35  47  69 101 135 173 217 264 311
#     4  10  21  36  54  77 104 135 172 210 249 298
#     4   8  15  28  47  72 100 132 168 204 244 295
#     4  10  21  37  55  74  97 130 174 216 255 305
#     4  11  21  34  51  73 102 134 170 214 263 311
#     4   9  17  30  46  69 101 133 167 206 252 305
#
# _framework density 17.313955
#
# number of rings (size 3 to 8) (size 9 to 14) (size 15 to 20)
#    0.000    2.385    0.769    3.000    0.000    6.769 
#    0.000    3.077    0.000    0.923    0.000    6.462 
#    0.000    0.000    0.000    0.000    0.000    0.000 
#
# Total GULP energy -644739.323660 kJ/mol
# GULP energy per Si atom -12398.833147 kJ/mol
# Density = 1.727455 g / cm^3
# Si number density = 17.313955 Si / 1000 Ang^3
#
#
#
# Elastic Constant Matrix: (Units=GPa)
#
#
# Indices 1 2 3 4 5 6 
#
# 1 107.1017 54.2171 60.8277 0.0000 0.0000 0.0000
# 2 54.2171 69.1973 42.6948 0.0000 0.0000 0.0000
# 3 60.8277 42.6948 89.5120 0.0000 0.0000 0.0000
# 4 0.0000 0.0000 0.0000 33.1075 0.0000 0.0000
# 5 0.0000 0.0000 0.0000 0.0000 34.4668 0.0000
# 6 0.0000 0.0000 0.0000 0.0000 0.0000 50.3915
#
#
#
# Elastic Compliance Matrix: (Units=1/GPa)
#
#
# Indices 1 2 3 4 5 6 
#
# 1 0.018954 -0.009783 -0.008214 0.000000 0.000000 0.000000
# 2 -0.009783 0.025527 -0.005528 0.000000 0.000000 0.000000
# 3 -0.008214 -0.005528 0.019390 0.000000 0.000000 0.000000
# 4 0.000000 0.000000 0.000000 0.030205 0.000000 0.000000
# 5 0.000000 0.000000 0.000000 0.000000 0.029013 0.000000
# 6 0.000000 0.000000 0.000000 0.000000 0.000000 0.019845
#
#
# Mechanical properties :
#
#
# Convention : Reuss Voigt Hill
#
# Bulk Modulus (GPa) = 59.44623 64.58781 62.01702
# Shear Modulus (GPa) = 25.56342 30.79791 28.18066
#
# Velocity S-wave (km/s) = 3.84665 4.22215 4.03876
# Velocity P-wave (km/s) = 7.35784 7.82008 7.59247
#
# Compressibility (1/GPa) = 0.01682193
#
# Stress axis : x y z
#
# Youngs Moduli (GPa) = 52.75798 39.17402 51.57203
#
# Poissons Ratio (x) = 0.38323 0.42363
# Poissons Ratio (y) = 0.51612 0.28508
# Poissons Ratio (z) = 0.43337 0.21655
#
# Static dielectric constant tensor:
#      x y z
#    x 3.413850 0.000000 0.000000 
#    y 0.000000 2.968850 0.000000 
#    z 0.000000 0.000000 3.355100 
# 
# 
# High freq. dielectric constant tensor:
#      x y z
#    x 1.675060 0.000000 0.000000 
#    y 0.000000 1.639670 0.000000 
#    z 0.000000 0.000000 1.676970 
# 
# From -- ./inp_files/16753.got.cif
#   From: 2010.03.12/outbox.cif.g09.slc.cpg/sg65_9_cif.got.tgz:16753.got - 2010.04.10 20:52:16.
