data_PCOD8273235
_publ_section_title
;
Structure prediction by ZEFSAII (Michael W. Deem and Ramdas Pophale) SiO2 
 PCOD8273235
Probable space group: C M M M
;
_chemical_formula_sum "Si O2"
_cell_formula_units_Z 52
_cell_length_a 13.311909
_cell_length_b 13.227296
_cell_length_c 12.524889
_cell_angle_alpha 90.000000
_cell_angle_beta 90.000000
_cell_angle_gamma 90.000000
_cell_volume 2205.389477
_symmetry_space_group_name_H-M "C M M M"
_symmetry_group_IT_number 65
_symmetry_cell_setting 'orthorhombic'
loop_
_space_group_symop_operation_xyz
x,y,z
-x,-y,z
x,-y,-z
-x,y,-z
-x,-y,-z
x,y,-z
-x,y,z
x,-y,z
1/2+x,1/2+y,z
1/2-x,1/2-y,z
1/2+x,1/2-y,-z
1/2-x,1/2+y,-z
1/2-x,1/2-y,-z
1/2+x,1/2+y,-z
1/2-x,1/2+y,z
1/2+x,1/2-y,z
loop_
_atom_site_type_symbol
_atom_site_label
_atom_site_fract_x
_atom_site_fract_y
_atom_site_fract_z
Si Si1 0.619898 0.387673 0.380069
Si Si2 0.616573 0.218615 0.225914
Si Si3 0.116589 0.500000 0.199673
Si Si4 0.618117 0.296952 0.000000
Si Si5 0.759175 0.000000 0.000000
O O1 0.659348 0.367478 0.500000
O O2 0.500000 0.381757 0.379746
O O3 0.653784 0.500000 0.341334
O O4 0.669246 0.303092 0.301578
O O5 0.500000 0.242679 0.232047
O O6 0.638073 0.103474 0.266186
O O7 0.653124 0.232276 0.103516
O O8 0.000000 0.500000 0.161391
O O9 0.187676 0.500000 0.099959
O O10 0.667840 0.405201 0.000000
O O11 0.500000 0.314920 0.000000
#
# Coordination Sequence:
#
# PCOD8273235 Si02
#       5
#    16  16   8   8   4
#     4   8  14  26  48  79 110 141 182 230 279 328
#     4   9  18  33  53  77 112 149 182 226 272 325
#     4  10  21  37  54  76 108 154 198 221 257 321
#     4  10  22  36  54  84 116 143 174 224 289 339
#     4  12  24  36  56  82 112 150 180 232 276 330
#
# _framework density 23.578602
#
# number of rings (size 3 to 8) (size 9 to 14) (size 15 to 20)
#    0.000    2.769    0.000    2.308    2.154    4.923 
#    0.000    0.769    0.000    4.615    0.000    6.462 
#    0.000    0.000    0.000    0.000    0.000    0.923 
#
# Total GULP energy -322195.004226 kJ/mol
# GULP energy per Si atom -12392.115547 kJ/mol
# Density = 2.352494 g / cm^3
# Si number density = 23.578602 Si / 1000 Ang^3
#
#
#
# Elastic Constant Matrix: (Units=GPa)
#
#
# Indices 1 2 3 4 5 6 
#
# 1 50.6881 31.6478 -15.3939 0.0000 0.0000 0.0000
# 2 31.6478 256.3319 113.1849 0.0000 0.0000 0.0000
# 3 -15.3939 113.1849 137.9931 0.0000 0.0000 0.0000
# 4 0.0000 0.0000 0.0000 58.1537 0.0000 0.0000
# 5 0.0000 0.0000 0.0000 0.0000 -11.3814 0.0000
# 6 0.0000 0.0000 0.0000 0.0000 0.0000 28.0615
#
#
#
# Elastic Compliance Matrix: (Units=1/GPa)
#
#
# Indices 1 2 3 4 5 6 
#
# 1 0.027041 -0.007323 0.009023 0.000000 0.000000 0.000000
# 2 -0.007323 0.008099 -0.007460 0.000000 0.000000 0.000000
# 3 0.009023 -0.007460 0.014372 0.000000 0.000000 0.000000
# 4 0.000000 0.000000 0.000000 0.017196 0.000000 0.000000
# 5 0.000000 0.000000 0.000000 0.000000 -0.087863 0.000000
# 6 0.000000 0.000000 0.000000 0.000000 0.000000 0.035636
#
#
# Mechanical properties :
#
#
# Convention : Reuss Voigt Hill
#
# Bulk Modulus (GPa) = 26.32126 78.21009 52.26567
# Shear Modulus (GPa) = 129.31544 36.00504 82.66024
#
# Velocity S-wave (km/s) = 7.41374 3.91195 5.92734
# Velocity P-wave (km/s) = 9.19087 7.32437 8.31019
#
# Compressibility (1/GPa) = 0.03799211
#
# Stress axis : x y z
#
# Youngs Moduli (GPa) = 36.98142 123.46703 69.57869
#
# Poissons Ratio (x) = 0.90409 -0.62778
# Poissons Ratio (y) = 0.27080 0.51907
# Poissons Ratio (z) = -0.33367 0.92108
#
# Static dielectric constant tensor:
#      x y z
#    x 4.053760 0.000000 0.000000 
#    y 0.000000 4.772530 0.000000 
#    z 0.000000 0.000000 4.321760 
# 
# 
# High freq. dielectric constant tensor:
#      x y z
#    x 1.935530 0.000000 0.000000 
#    y 0.000000 1.956540 0.000000 
#    z 0.000000 0.000000 1.897870 
# 
# From -- ./inp_files/39319.got.cif
#   From: 2010.03.12/outbox.cif.g09.slc.cpg/sg65_20_cif.got.tgz:39319.got - 2010.04.10 20:52:16.
