data_PCOD8273771
_publ_section_title
;
Structure prediction by ZEFSAII (Michael W. Deem and Ramdas Pophale) SiO2 
 PCOD8273771
Probable space group: C M M M
;
_chemical_formula_sum "Si O2"
_cell_formula_units_Z 72
_cell_length_a 8.163620
_cell_length_b 15.514274
_cell_length_c 28.044666
_cell_angle_alpha 90.000000
_cell_angle_beta 90.000000
_cell_angle_gamma 90.000000
_cell_volume 3551.930917
_symmetry_space_group_name_H-M "C M M M"
_symmetry_group_IT_number 65
_symmetry_cell_setting 'orthorhombic'
loop_
_space_group_symop_operation_xyz
x,y,z
-x,-y,z
x,-y,-z
-x,y,-z
-x,-y,-z
x,y,-z
-x,y,z
x,-y,z
1/2+x,1/2+y,z
1/2-x,1/2-y,z
1/2+x,1/2-y,-z
1/2-x,1/2+y,-z
1/2-x,1/2-y,-z
1/2+x,1/2+y,-z
1/2-x,1/2+y,z
1/2+x,1/2-y,z
loop_
_atom_site_type_symbol
_atom_site_label
_atom_site_fract_x
_atom_site_fract_y
_atom_site_fract_z
Si Si1 0.812572 0.500000 0.279773
Si Si2 0.807379 0.842227 0.553394
Si Si3 0.000000 0.602475 0.946359
Si Si4 0.686232 0.602008 0.113597
Si Si5 0.188994 0.842996 0.219418
Si Si6 0.192103 0.500000 0.615434
O O1 0.776943 0.415221 0.249768
O O2 0.724645 0.500000 0.331656
O O3 0.000000 0.500000 0.291966
O O4 0.735234 0.856737 0.500000
O O5 0.750000 0.750000 0.573563
O O6 0.745506 0.914968 0.588323
O O7 0.000000 0.845719 0.551545
O O8 0.169401 0.635258 0.921683
O O9 0.000000 0.500000 0.946217
O O10 0.000000 0.638954 0.000000
O O11 0.500000 0.626901 0.096012
O O12 0.696295 0.500000 0.120104
O O13 0.727398 0.645780 0.163679
O O14 0.250000 0.750000 0.236412
O O15 0.000000 0.853373 0.230125
O O16 0.000000 0.500000 0.618822
#
# Coordination Sequence:
#
# PCOD8273771 Si02
#       6
#     8  16   8  16  16   8
#     4  11  25  42  62  87 122 159 199 252 311 363
#     4  10  21  38  62  91 121 159 207 253 299 355
#     4   9  18  30  52  86 118 155 195 239 303 366
#     4   9  18  33  55  83 115 152 196 247 299 359
#     4  11  23  39  62  91 117 153 203 252 303 364
#     4  11  24  40  59  88 122 162 201 245 310 370
#
# _framework density 20.270665000000001
#
# number of rings (size 3 to 8) (size 9 to 14) (size 15 to 20)
#    0.000    1.889    1.111    2.333    3.111    5.778 
#    0.000    2.222    0.000    0.667    0.000    0.000 
#    0.000    0.000    0.000    0.000    0.000    0.000 
#
# Total GULP energy -446323.775930 kJ/mol
# GULP energy per Si atom -12397.882665 kJ/mol
# Density = 2.022453 g / cm^3
# Si number density = 20.270665 Si / 1000 Ang^3
#
#
#
# Elastic Constant Matrix: (Units=GPa)
#
#
# Indices 1 2 3 4 5 6 
#
# 1 105.1968 38.1974 61.2103 0.0000 0.0000 0.0000
# 2 38.1974 127.7926 70.5447 0.0000 0.0000 0.0000
# 3 61.2103 70.5447 111.6387 0.0000 0.0000 0.0000
# 4 0.0000 0.0000 0.0000 2.2935 0.0000 0.0000
# 5 0.0000 0.0000 0.0000 0.0000 26.3330 0.0000
# 6 0.0000 0.0000 0.0000 0.0000 0.0000 31.0506
#
#
#
# Elastic Compliance Matrix: (Units=1/GPa)
#
#
# Indices 1 2 3 4 5 6 
#
# 1 0.013960 0.000081 -0.007705 0.000000 0.000000 0.000000
# 2 0.000081 0.012017 -0.007638 0.000000 0.000000 0.000000
# 3 -0.007705 -0.007638 0.018009 0.000000 0.000000 0.000000
# 4 0.000000 0.000000 0.000000 0.436011 0.000000 0.000000
# 5 0.000000 0.000000 0.000000 0.000000 0.037975 0.000000
# 6 0.000000 0.000000 0.000000 0.000000 0.000000 0.032206
#
#
# Mechanical properties :
#
#
# Convention : Reuss Voigt Hill
#
# Bulk Modulus (GPa) = 74.28819 76.05923 75.17371
# Shear Modulus (GPa) = 8.54423 23.58048 16.06236
#
# Velocity S-wave (km/s) = 2.05529 3.41439 2.81800
# Velocity P-wave (km/s) = 6.50845 7.29022 6.91040
#
# Compressibility (1/GPa) = 0.01346109
#
# Stress axis : x y z
#
# Youngs Moduli (GPa) = 71.63307 83.21207 55.52872
#
# Poissons Ratio (x) = -0.00672 0.42786
# Poissons Ratio (y) = -0.00579 0.42414
# Poissons Ratio (z) = 0.55195 0.63559
#
# Static dielectric constant tensor:
#      x y z
#    x 3.924900 0.000000 0.000000 
#    y 0.000000 3.620560 0.000000 
#    z 0.000000 0.000000 3.967970 
# 
# 
# High freq. dielectric constant tensor:
#      x y z
#    x 1.805740 0.000000 0.000000 
#    y 0.000000 1.788930 0.000000 
#    z 0.000000 0.000000 1.785560 
# 
# From -- ./inp_files/72590.got.cif
#   From: 2010.03.12/outbox.cif.g09.slc.cpg/sg65_37_cif.got.tgz:72590.got - 2010.04.10 20:52:16.
