data_PCOD8273856
_publ_section_title
;
Structure prediction by ZEFSAII (Michael W. Deem and Ramdas Pophale) SiO2 
 PCOD8273856
Probable space group: C M M M
;
_chemical_formula_sum "Si O2"
_cell_formula_units_Z 64
_cell_length_a 15.494165
_cell_length_b 23.833909
_cell_length_c 9.095671
_cell_angle_alpha 90.000000
_cell_angle_beta 90.000000
_cell_angle_gamma 90.000000
_cell_volume 3358.908678
_symmetry_space_group_name_H-M "C M M M"
_symmetry_group_IT_number 65
_symmetry_cell_setting 'orthorhombic'
loop_
_space_group_symop_operation_xyz
x,y,z
-x,-y,z
x,-y,-z
-x,y,-z
-x,-y,-z
x,y,-z
-x,y,z
x,-y,z
1/2+x,1/2+y,z
1/2-x,1/2-y,z
1/2+x,1/2-y,-z
1/2-x,1/2+y,-z
1/2-x,1/2-y,-z
1/2+x,1/2+y,-z
1/2-x,1/2+y,z
1/2+x,1/2-y,z
loop_
_atom_site_type_symbol
_atom_site_label
_atom_site_fract_x
_atom_site_fract_y
_atom_site_fract_z
Si Si1 0.000000 0.214796 0.825118
Si Si2 0.635365 0.500000 0.825115
Si Si3 0.900888 0.394872 0.666447
Si Si4 0.500000 0.588653 0.174649
Si Si5 0.828167 0.500000 0.826122
Si Si6 0.842785 0.726234 0.670591
O O1 0.085748 0.244416 0.769009
O O2 0.000000 0.151341 0.762353
O O3 0.000000 0.216475 0.000000
O O4 0.585183 0.444405 0.769402
O O5 0.731524 0.500000 0.759268
O O6 0.638609 0.500000 0.000000
O O7 0.885362 0.415593 0.500000
O O8 0.877517 0.444779 0.774981
O O9 0.843082 0.340401 0.701881
O O10 0.000000 0.377394 0.690666
O O11 0.500000 0.589731 0.000000
O O12 0.826880 0.500000 0.000000
O O13 0.863465 0.738306 0.500000
O O14 0.750000 0.750000 0.717167
#
# Coordination Sequence:
#
# PCOD8273856 Si02
#       6
#     8   8  16   8   8  16
#     4  11  22  35  60  93 121 150 187 244 300 347
#     4   8  16  33  52  75 111 152 183 218 268 339
#     4  10  21  40  60  78 108 150 190 230 282 343
#     4   8  16  32  53  76 111 153 185 212 273 344
#     4  11  23  34  56  88 113 140 184 239 287 333
#     4  10  22  41  63  85 115 159 202 238 284 348
#
# _framework density 19.053808
#
# number of rings (size 3 to 8) (size 9 to 14) (size 15 to 20)
#    0.000    2.250    1.250    1.875    3.500    3.500 
#    0.000    0.000    0.000    0.000    0.000    7.000 
#    0.000    0.000    0.000    0.000    0.000    0.000 
#
# Total GULP energy -396834.500624 kJ/mol
# GULP energy per Si atom -12401.078145 kJ/mol
# Density = 1.901044 g / cm^3
# Si number density = 19.053808 Si / 1000 Ang^3
#
#
#
# Elastic Constant Matrix: (Units=GPa)
#
#
# Indices 1 2 3 4 5 6 
#
# 1 120.1379 59.6757 41.1785 0.0000 0.0000 0.0000
# 2 59.6757 138.2607 47.0276 0.0000 0.0000 0.0000
# 3 41.1785 47.0276 59.0739 0.0000 0.0000 0.0000
# 4 0.0000 0.0000 0.0000 25.5143 0.0000 0.0000
# 5 0.0000 0.0000 0.0000 0.0000 7.2313 0.0000
# 6 0.0000 0.0000 0.0000 0.0000 0.0000 22.9130
#
#
#
# Elastic Compliance Matrix: (Units=1/GPa)
#
#
# Indices 1 2 3 4 5 6 
#
# 1 0.011868 -0.003166 -0.005753 0.000000 0.000000 0.000000
# 2 -0.003166 0.010763 -0.006361 0.000000 0.000000 0.000000
# 3 -0.005753 -0.006361 0.026002 0.000000 0.000000 0.000000
# 4 0.000000 0.000000 0.000000 0.039194 0.000000 0.000000
# 5 0.000000 0.000000 0.000000 0.000000 0.138287 0.000000
# 6 0.000000 0.000000 0.000000 0.000000 0.000000 0.043643
#
#
# Mechanical properties :
#
#
# Convention : Reuss Voigt Hill
#
# Bulk Modulus (GPa) = 55.32967 68.13734 61.73351
# Shear Modulus (GPa) = 16.32166 22.43777 19.37972
#
# Velocity S-wave (km/s) = 2.92996 3.43534 3.19267
# Velocity P-wave (km/s) = 6.36773 7.18147 6.78681
#
# Compressibility (1/GPa) = 0.01807348
#
# Stress axis : x y z
#
# Youngs Moduli (GPa) = 84.25982 92.91230 38.45853
#
# Poissons Ratio (x) = 0.29414 0.22124
# Poissons Ratio (y) = 0.26675 0.24465
# Poissons Ratio (z) = 0.48471 0.59105
#
# Static dielectric constant tensor:
#      x y z
#    x 3.741290 0.000000 0.000000 
#    y 0.000000 3.643730 0.000000 
#    z 0.000000 0.000000 3.188770 
# 
# 
# High freq. dielectric constant tensor:
#      x y z
#    x 1.749150 0.000000 0.000000 
#    y 0.000000 1.753270 0.000000 
#    z 0.000000 0.000000 1.712830 
# 
# From -- ./inp_files/6817.got.cif
#   From: 2010.03.12/outbox.cif.g09.slc.cpg/sg65_4_cif.got.tgz:6817.got - 2010.04.10 20:52:16.
