data_PCOD8273646
_publ_section_title
;
Structure prediction by ZEFSAII (Michael W. Deem and Ramdas Pophale) SiO2 
 PCOD8273646
Probable space group: C M M M
;
_chemical_formula_sum "Si O2"
_cell_formula_units_Z 48
_cell_length_a 38.197773
_cell_length_b 8.769182
_cell_length_c 7.520283
_cell_angle_alpha 90.000000
_cell_angle_beta 90.000000
_cell_angle_gamma 90.000000
_cell_volume 2519.018235
_symmetry_space_group_name_H-M "C M M M"
_symmetry_group_IT_number 65
_symmetry_cell_setting 'orthorhombic'
loop_
_space_group_symop_operation_xyz
x,y,z
-x,-y,z
x,-y,-z
-x,y,-z
-x,-y,-z
x,y,-z
-x,y,z
x,-y,z
1/2+x,1/2+y,z
1/2-x,1/2-y,z
1/2+x,1/2-y,-z
1/2-x,1/2+y,-z
1/2-x,1/2-y,-z
1/2+x,1/2+y,-z
1/2-x,1/2+y,z
1/2+x,1/2-y,z
loop_
_atom_site_type_symbol
_atom_site_label
_atom_site_fract_x
_atom_site_fract_y
_atom_site_fract_z
Si Si1 0.335280 0.677659 0.205394
Si Si2 0.538838 0.819399 0.500000
Si Si3 0.591475 0.177340 0.797283
Si Si4 0.788076 0.679658 0.500000
O O1 0.331379 0.500000 0.246849
O O2 0.374335 0.728256 0.256579
O O3 0.307799 0.769133 0.322390
O O4 0.327431 0.715824 0.000000
O O5 0.500000 0.745780 0.500000
O O6 0.559535 0.765126 0.324484
O O7 0.535500 0.000000 0.500000
O O8 0.599932 0.000000 0.763750
O O9 0.580376 0.208339 0.000000
O O10 0.784798 0.500000 0.500000
O O11 0.750000 0.750000 0.500000
#
# Coordination Sequence:
#
# PCOD8273646 Si02
#       4
#    16   8  16   8
#     4  10  21  38  60  84 110 142 182 227 273 322
#     4   9  17  28  44  70 103 137 174 219 270 319
#     4   9  17  30  50  75 101 133 176 223 269 317
#     4  12  25  40  59  83 114 148 181 220 267 321
#
# _framework density 19.055043999999999
#
# number of rings (size 3 to 8) (size 9 to 14) (size 15 to 20)
#    0.000    2.167    0.000    3.500    0.000    4.667 
#    0.000    3.333    0.000    2.000    0.000    4.667 
#    0.000    0.000    0.000    0.000    0.000    0.000 
#
# Total GULP energy -297663.355719 kJ/mol
# GULP energy per Si atom -12402.639822 kJ/mol
# Density = 1.901167 g / cm^3
# Si number density = 19.055044 Si / 1000 Ang^3
#
#
#
# Elastic Constant Matrix: (Units=GPa)
#
#
# Indices 1 2 3 4 5 6 
#
# 1 171.7563 63.1126 99.8560 0.0000 0.0000 0.0000
# 2 63.1126 95.6578 49.5525 0.0000 0.0000 0.0000
# 3 99.8560 49.5525 128.9280 0.0000 0.0000 0.0000
# 4 0.0000 0.0000 0.0000 23.1122 0.0000 0.0000
# 5 0.0000 0.0000 0.0000 0.0000 3.4733 0.0000
# 6 0.0000 0.0000 0.0000 0.0000 0.0000 25.5043
#
#
#
# Elastic Compliance Matrix: (Units=1/GPa)
#
#
# Indices 1 2 3 4 5 6 
#
# 1 0.011570 -0.003735 -0.007525 0.000000 0.000000 0.000000
# 2 -0.003735 0.014259 -0.002587 0.000000 0.000000 0.000000
# 3 -0.007525 -0.002587 0.014579 0.000000 0.000000 0.000000
# 4 0.000000 0.000000 0.000000 0.043267 0.000000 0.000000
# 5 0.000000 0.000000 0.000000 0.000000 0.287910 0.000000
# 6 0.000000 0.000000 0.000000 0.000000 0.000000 0.039209
#
#
# Mechanical properties :
#
#
# Convention : Reuss Voigt Hill
#
# Bulk Modulus (GPa) = 78.66617 91.26492 84.96554
# Shear Modulus (GPa) = 11.29364 22.67270 16.98317
#
# Velocity S-wave (km/s) = 2.43715 3.45317 2.98865
# Velocity P-wave (km/s) = 7.02089 7.99366 7.52301
#
# Compressibility (1/GPa) = 0.01271194
#
# Stress axis : x y z
#
# Youngs Moduli (GPa) = 86.43178 70.13333 68.59132
#
# Poissons Ratio (x) = 0.26196 0.51617
# Poissons Ratio (y) = 0.32284 0.17746
# Poissons Ratio (z) = 0.65043 0.18145
#
# Static dielectric constant tensor:
#      x y z
#    x 3.472410 0.000000 0.000000 
#    y 0.000000 3.378390 0.000000 
#    z 0.000000 0.000000 3.549620 
# 
# 
# High freq. dielectric constant tensor:
#      x y z
#    x 1.738890 0.000000 0.000000 
#    y 0.000000 1.726040 0.000000 
#    z 0.000000 0.000000 1.756520 
# 
# From -- ./inp_files/3100.got.cif
#   From: 2010.03.12/outbox.cif.g09.slc.cpg/sg65_2_cif.got.tgz:3100.got - 2010.04.10 20:52:16.
