data_PCOD8273077
_publ_section_title
;
Structure prediction by ZEFSAII (Michael W. Deem and Ramdas Pophale) SiO2 
 PCOD8273077
Probable space group: C M M M
;
_chemical_formula_sum "Si O2"
_cell_formula_units_Z 72
_cell_length_a 18.970268
_cell_length_b 8.615963
_cell_length_c 22.652898
_cell_angle_alpha 90.000000
_cell_angle_beta 90.000000
_cell_angle_gamma 90.000000
_cell_volume 3702.551101
_symmetry_space_group_name_H-M "C M M M"
_symmetry_group_IT_number 65
_symmetry_cell_setting 'orthorhombic'
loop_
_space_group_symop_operation_xyz
x,y,z
-x,-y,z
x,-y,-z
-x,y,-z
-x,-y,-z
x,y,-z
-x,y,z
x,-y,z
1/2+x,1/2+y,z
1/2-x,1/2-y,z
1/2+x,1/2-y,-z
1/2-x,1/2+y,-z
1/2-x,1/2-y,-z
1/2+x,1/2+y,-z
1/2-x,1/2+y,z
1/2+x,1/2-y,z
loop_
_atom_site_type_symbol
_atom_site_label
_atom_site_fract_x
_atom_site_fract_y
_atom_site_fract_z
Si Si1 0.917262 0.319265 0.500000
Si Si2 0.323831 0.317177 0.065800
Si Si3 0.918267 0.181371 0.172858
Si Si4 0.325223 0.316266 0.601334
Si Si5 0.324058 0.182471 0.728421
O O1 0.898736 0.500000 0.500000
O O2 0.885894 0.241309 0.441829
O O3 0.000000 0.288014 0.500000
O O4 0.316709 0.500000 0.064372
O O5 0.250000 0.250000 0.088759
O O6 0.384815 0.265084 0.110661
O O7 0.341814 0.253671 0.000000
O O8 0.884995 0.280352 0.225329
O O9 0.000000 0.221821 0.169620
O O10 0.904586 0.000000 0.184816
O O11 0.321149 0.500000 0.600232
O O12 0.250000 0.250000 0.580479
O O13 0.344886 0.259419 0.666557
O O14 0.250000 0.250000 0.752025
O O15 0.316368 0.000000 0.719255
#
# Coordination Sequence:
#
# PCOD8273077 Si02
#       5
#     8  16  16  16  16
#     4  11  24  41  60  85 119 155 190 229 276 329
#     4   9  18  33  54  79 106 140 183 229 276 327
#     4  10  21  36  54  79 112 148 185 227 277 332
#     4  11  22  39  63  88 115 147 188 233 278 329
#     4  11  22  38  60  84 111 144 186 232 279 330
#
# _framework density 19.446052000000002
#
# number of rings (size 3 to 8) (size 9 to 14) (size 15 to 20)
#    0.000    1.667    0.000    6.667    0.000    5.333 
#    0.000    2.222    0.000    0.000    0.000    4.667 
#    0.000    0.000    0.000    0.000    0.000    0.000 
#
# Total GULP energy -446556.264486 kJ/mol
# GULP energy per Si atom -12404.340680 kJ/mol
# Density = 1.940179 g / cm^3
# Si number density = 19.446052 Si / 1000 Ang^3
#
#
#
# Elastic Constant Matrix: (Units=GPa)
#
#
# Indices 1 2 3 4 5 6 
#
# 1 134.4526 60.2896 85.9559 0.0000 0.0000 0.0000
# 2 60.2896 126.3317 54.2542 0.0000 0.0000 0.0000
# 3 85.9559 54.2542 124.2404 0.0000 0.0000 0.0000
# 4 0.0000 0.0000 0.0000 18.7444 0.0000 0.0000
# 5 0.0000 0.0000 0.0000 0.0000 197.7312 0.0000
# 6 0.0000 0.0000 0.0000 0.0000 0.0000 29.8032
#
#
#
# Elastic Compliance Matrix: (Units=1/GPa)
#
#
# Indices 1 2 3 4 5 6 
#
# 1 0.014298 -0.003170 -0.008508 0.000000 0.000000 0.000000
# 2 -0.003170 0.010446 -0.002368 0.000000 0.000000 0.000000
# 3 -0.008508 -0.002368 0.014969 0.000000 0.000000 0.000000
# 4 0.000000 0.000000 0.000000 0.053349 0.000000 0.000000
# 5 0.000000 0.000000 0.000000 0.000000 0.005057 0.000000
# 6 0.000000 0.000000 0.000000 0.000000 0.000000 0.033553
#
#
# Mechanical properties :
#
#
# Convention : Reuss Voigt Hill
#
# Bulk Modulus (GPa) = 86.05288 87.33600 86.69444
# Shear Modulus (GPa) = 30.55509 61.55743 46.05626
#
# Velocity S-wave (km/s) = 3.96823 5.63242 4.87191
# Velocity P-wave (km/s) = 8.08356 9.34390 8.73649
#
# Compressibility (1/GPa) = 0.01162076
#
# Stress axis : x y z
#
# Youngs Moduli (GPa) = 69.93968 95.73495 66.80273
#
# Poissons Ratio (x) = 0.30345 0.56836
# Poissons Ratio (y) = 0.22169 0.15822
# Poissons Ratio (z) = 0.59504 0.22675
#
# Static dielectric constant tensor:
#      x y z
#    x 3.483850 0.000000 0.000000 
#    y 0.000000 3.577290 0.000000 
#    z 0.000000 0.000000 3.776030 
# 
# 
# High freq. dielectric constant tensor:
#      x y z
#    x 1.752340 0.000000 0.000000 
#    y 0.000000 1.761910 0.000000 
#    z 0.000000 0.000000 1.770890 
# 
# From -- ./inp_files/64285.got.cif
#   From: 2010.03.12/outbox.cif.g09.slc.cpg/sg65_33_cif.got.tgz:64285.got - 2010.04.10 20:52:16.
