data_PCOD8273293
_publ_section_title
;
Structure prediction by ZEFSAII (Michael W. Deem and Ramdas Pophale) SiO2 
 PCOD8273293
Probable space group: C M M M
;
_chemical_formula_sum "Si O2"
_cell_formula_units_Z 80
_cell_length_a 19.180091
_cell_length_b 8.773262
_cell_length_c 25.472447
_cell_angle_alpha 90.000000
_cell_angle_beta 90.000000
_cell_angle_gamma 90.000000
_cell_volume 4286.298673
_symmetry_space_group_name_H-M "C M M M"
_symmetry_group_IT_number 65
_symmetry_cell_setting 'orthorhombic'
loop_
_space_group_symop_operation_xyz
x,y,z
-x,-y,z
x,-y,-z
-x,y,-z
-x,-y,-z
x,y,-z
-x,y,z
x,-y,z
1/2+x,1/2+y,z
1/2-x,1/2-y,z
1/2+x,1/2-y,-z
1/2-x,1/2+y,-z
1/2-x,1/2-y,-z
1/2+x,1/2+y,-z
1/2-x,1/2+y,z
1/2+x,1/2-y,z
loop_
_atom_site_type_symbol
_atom_site_label
_atom_site_fract_x
_atom_site_fract_y
_atom_site_fract_z
Si Si1 0.177195 0.819966 0.558571
Si Si2 0.826318 0.819618 0.151605
Si Si3 0.919342 0.677740 0.240048
Si Si4 0.077952 0.181128 0.058455
Si Si5 0.580416 0.675012 0.348540
O O1 0.156297 0.763272 0.500000
O O2 0.250000 0.750000 0.576393
O O3 0.120255 0.763410 0.600255
O O4 0.183914 0.000000 0.559329
O O5 0.750000 0.750000 0.154022
O O6 0.870564 0.774203 0.202139
O O7 0.866440 0.754486 0.100193
O O8 0.819404 0.000000 0.149565
O O9 0.905528 0.500000 0.231221
O O10 0.898404 0.721710 0.299155
O O11 0.000000 0.720897 0.229231
O O12 0.000000 0.241290 0.072227
O O13 0.077293 0.000000 0.060468
O O14 0.099297 0.236988 0.000000
O O15 0.500000 0.693149 0.362317
O O16 0.599462 0.500000 0.335473
#
# Coordination Sequence:
#
# PCOD8273293 Si02
#       5
#    16  16  16  16  16
#     4   9  18  32  50  73 101 133 167 204 249 301
#     4  11  22  35  53  78 108 141 176 214 258 307
#     4  10  21  37  56  77 103 135 172 216 263 311
#     4   8  15  30  53  79 104 133 172 214 255 303
#     4   9  18  33  53  76 101 131 169 211 254 302
#
# _framework density 18.664121000000002
#
# number of rings (size 3 to 8) (size 9 to 14) (size 15 to 20)
#    0.000    2.600    0.000    2.400    0.000    4.400 
#    0.000    4.000    0.000    1.800    0.000   12.600 
#    0.000    0.000    0.000    0.000    0.000    0.000 
#
# Total GULP energy -495964.541218 kJ/mol
# GULP energy per Si atom -12399.113530 kJ/mol
# Density = 1.862164 g / cm^3
# Si number density = 18.664121 Si / 1000 Ang^3
#
#
#
# Elastic Constant Matrix: (Units=GPa)
#
#
# Indices 1 2 3 4 5 6 
#
# 1 117.6215 32.6603 90.0457 0.0000 0.0000 0.0000
# 2 32.6603 39.2405 29.6802 0.0000 0.0000 0.0000
# 3 90.0457 29.6802 137.3053 0.0000 0.0000 0.0000
# 4 0.0000 0.0000 0.0000 16.7786 0.0000 0.0000
# 5 0.0000 0.0000 0.0000 0.0000 13.9658 0.0000
# 6 0.0000 0.0000 0.0000 0.0000 0.0000 22.3921
#
#
#
# Elastic Compliance Matrix: (Units=1/GPa)
#
#
# Indices 1 2 3 4 5 6 
#
# 1 0.018774 -0.007547 -0.010681 0.000000 0.000000 0.000000
# 2 -0.007547 0.033499 -0.002292 0.000000 0.000000 0.000000
# 3 -0.010681 -0.002292 0.014783 0.000000 0.000000 0.000000
# 4 0.000000 0.000000 0.000000 0.059600 0.000000 0.000000
# 5 0.000000 0.000000 0.000000 0.000000 0.071604 0.000000
# 6 0.000000 0.000000 0.000000 0.000000 0.000000 0.044659
#
#
# Mechanical properties :
#
#
# Convention : Reuss Voigt Hill
#
# Bulk Modulus (GPa) = 38.43708 66.54888 52.49298
# Shear Modulus (GPa) = 17.08642 20.07938 18.58290
#
# Velocity S-wave (km/s) = 3.02895 3.28354 3.15881
# Velocity P-wave (km/s) = 5.73337 7.07877 6.44129
#
# Compressibility (1/GPa) = 0.02601655
#
# Stress axis : x y z
#
# Youngs Moduli (GPa) = 53.26413 29.85169 67.64542
#
# Poissons Ratio (x) = 0.22530 0.72251
# Poissons Ratio (y) = 0.40201 0.15501
# Poissons Ratio (z) = 0.56891 0.06841
#
# Static dielectric constant tensor:
#      x y z
#    x 3.470870 0.000000 0.000000 
#    y 0.000000 3.200950 0.000000 
#    z 0.000000 0.000000 3.736100 
# 
# 
# High freq. dielectric constant tensor:
#      x y z
#    x 1.722000 0.000000 0.000000 
#    y 0.000000 1.703480 0.000000 
#    z 0.000000 0.000000 1.736960 
# 
# From -- ./inp_files/72715.got.cif
#   From: 2010.03.12/outbox.cif.g09.slc.cpg/sg65_37_cif.got.tgz:72715.got - 2010.04.10 20:52:16.
