data_PCOD8273306
_publ_section_title
;
Structure prediction by ZEFSAII (Michael W. Deem and Ramdas Pophale) SiO2 
 PCOD8273306
Probable space group: C M M M
;
_chemical_formula_sum "Si O2"
_cell_formula_units_Z 88
_cell_length_a 8.928152
_cell_length_b 18.739002
_cell_length_c 27.734710
_cell_angle_alpha 90.000000
_cell_angle_beta 90.000000
_cell_angle_gamma 90.000000
_cell_volume 4640.146176
_symmetry_space_group_name_H-M "C M M M"
_symmetry_group_IT_number 65
_symmetry_cell_setting 'orthorhombic'
loop_
_space_group_symop_operation_xyz
x,y,z
-x,-y,z
x,-y,-z
-x,y,-z
-x,-y,-z
x,y,-z
-x,y,z
x,-y,z
1/2+x,1/2+y,z
1/2-x,1/2-y,z
1/2+x,1/2-y,-z
1/2-x,1/2+y,-z
1/2-x,1/2-y,-z
1/2+x,1/2+y,-z
1/2-x,1/2+y,z
1/2+x,1/2-y,z
loop_
_atom_site_type_symbol
_atom_site_label
_atom_site_fract_x
_atom_site_fract_y
_atom_site_fract_z
Si Si1 0.176963 0.823716 0.914312
Si Si2 0.674877 0.582595 0.282420
Si Si3 0.178290 0.078830 0.000000
Si Si4 0.674518 0.677092 0.806239
Si Si5 0.827237 0.918538 0.443866
Si Si6 0.323204 0.172903 0.634755
O O1 0.250000 0.750000 0.930295
O O2 0.236398 0.882823 0.951543
O O3 0.227834 0.844845 0.860036
O O4 0.000000 0.815191 0.917774
O O5 0.500000 0.593550 0.294258
O O6 0.719436 0.500000 0.282745
O O7 0.716458 0.613304 0.229843
O O8 0.771851 0.622778 0.321903
O O9 0.000000 0.076377 0.000000
O O10 0.247433 0.000000 0.000000
O O11 0.500000 0.692750 0.806011
O O12 0.750000 0.750000 0.788364
O O13 0.797839 0.905399 0.500000
O O14 0.723417 0.863749 0.415339
O O15 0.000000 0.903756 0.430780
O O16 0.786362 0.000000 0.429922
O O17 0.500000 0.182347 0.636087
O O18 0.250000 0.250000 0.639963
#
# Coordination Sequence:
#
# PCOD8273306 Si02
#       6
#    16  16   8  16  16  16
#     4   9  17  30  49  72  98 130 169 210 253 305
#     4  10  21  37  56  78 106 139 174 215 265 319
#     4   9  17  28  45  71 100 129 164 210 258 303
#     4   9  18  32  51  75 101 132 170 212 258 308
#     4   9  19  38  63  88 115 147 180 216 262 315
#     4  12  25  39  57  81 110 144 182 224 267 312
#
# _framework density 18.964919999999999
#
# number of rings (size 3 to 8) (size 9 to 14) (size 15 to 20)
#    0.000    2.273    0.000    3.545    0.000    6.545 
#    0.000    4.545    0.000    1.091    0.000    5.091 
#    0.000    0.000    0.000    0.000    0.000    0.000 
#
# Total GULP energy -545649.610893 kJ/mol
# GULP energy per Si atom -12401.127520 kJ/mol
# Density = 1.892175 g / cm^3
# Si number density = 18.964920 Si / 1000 Ang^3
#
#
#
# Elastic Constant Matrix: (Units=GPa)
#
#
# Indices 1 2 3 4 5 6 
#
# 1 70.8670 59.4932 47.4667 0.0000 0.0000 0.0000
# 2 59.4932 165.1407 88.6955 0.0000 0.0000 0.0000
# 3 47.4667 88.6955 121.1086 0.0000 0.0000 0.0000
# 4 0.0000 0.0000 0.0000 38.0945 0.0000 0.0000
# 5 0.0000 0.0000 0.0000 0.0000 6.5950 0.0000
# 6 0.0000 0.0000 0.0000 0.0000 0.0000 29.6774
#
#
#
# Elastic Compliance Matrix: (Units=1/GPa)
#
#
# Indices 1 2 3 4 5 6 
#
# 1 0.021665 -0.005348 -0.004574 0.000000 0.000000 0.000000
# 2 -0.005348 0.011302 -0.006181 0.000000 0.000000 0.000000
# 3 -0.004574 -0.006181 0.014577 0.000000 0.000000 0.000000
# 4 0.000000 0.000000 0.000000 0.026251 0.000000 0.000000
# 5 0.000000 0.000000 0.000000 0.000000 0.151629 0.000000
# 6 0.000000 0.000000 0.000000 0.000000 0.000000 0.033696
#
#
# Mechanical properties :
#
#
# Convention : Reuss Voigt Hill
#
# Bulk Modulus (GPa) = 65.20492 83.15856 74.18174
# Shear Modulus (GPa) = 16.86698 25.63745 21.25222
#
# Velocity S-wave (km/s) = 2.98548 3.68072 3.35118
# Velocity P-wave (km/s) = 6.80739 7.87448 7.36030
#
# Compressibility (1/GPa) = 0.01533627
#
# Stress axis : x y z
#
# Youngs Moduli (GPa) = 46.15842 88.48129 68.60273
#
# Poissons Ratio (x) = 0.47319 0.31382
# Poissons Ratio (y) = 0.24685 0.42403
# Poissons Ratio (z) = 0.21115 0.54690
#
# Static dielectric constant tensor:
#      x y z
#    x 3.297830 0.000000 0.000000 
#    y 0.000000 3.618730 0.000000 
#    z 0.000000 0.000000 3.763550 
# 
# 
# High freq. dielectric constant tensor:
#      x y z
#    x 1.716510 0.000000 0.000000 
#    y 0.000000 1.738530 0.000000 
#    z 0.000000 0.000000 1.753350 
# 
# From -- ./inp_files/76623.got.cif
#   From: 2010.03.12/outbox.cif.g09.slc.cpg/sg65_39_cif.got.tgz:76623.got - 2010.04.10 20:52:16.
