data_PCOD8273404
_publ_section_title
;
Structure prediction by ZEFSAII (Michael W. Deem and Ramdas Pophale) SiO2 
 PCOD8273404
Probable space group: C M M M
;
_chemical_formula_sum "Si O2"
_cell_formula_units_Z 96
_cell_length_a 8.828509
_cell_length_b 18.577557
_cell_length_c 30.361852
_cell_angle_alpha 90.000000
_cell_angle_beta 90.000000
_cell_angle_gamma 90.000000
_cell_volume 4979.711992
_symmetry_space_group_name_H-M "C M M M"
_symmetry_group_IT_number 65
_symmetry_cell_setting 'orthorhombic'
loop_
_space_group_symop_operation_xyz
x,y,z
-x,-y,z
x,-y,-z
-x,y,-z
-x,-y,-z
x,y,-z
-x,y,z
x,-y,z
1/2+x,1/2+y,z
1/2-x,1/2-y,z
1/2+x,1/2-y,-z
1/2-x,1/2+y,-z
1/2-x,1/2-y,-z
1/2+x,1/2+y,-z
1/2-x,1/2+y,z
1/2+x,1/2-y,z
loop_
_atom_site_type_symbol
_atom_site_label
_atom_site_fract_x
_atom_site_fract_y
_atom_site_fract_z
Si Si1 0.321145 0.671528 0.208014
Si Si2 0.822960 0.416835 0.130653
Si Si3 0.677190 0.915953 0.286475
Si Si4 0.322945 0.823682 0.950865
Si Si5 0.329182 0.415140 0.623337
Si Si6 0.322297 0.175161 0.550595
O O1 0.500000 0.679512 0.209777
O O2 0.250000 0.750000 0.205657
O O3 0.275187 0.626586 0.165370
O O4 0.265799 0.630094 0.250960
O O5 0.777215 0.500000 0.132959
O O6 0.781519 0.388543 0.081905
O O7 0.000000 0.405732 0.141429
O O8 0.500000 0.899837 0.282687
O O9 0.734838 0.890160 0.334103
O O10 0.712547 0.000000 0.278470
O O11 0.500000 0.810187 0.951816
O O12 0.250000 0.750000 0.933291
O O13 0.262994 0.843145 0.000000
O O14 0.500000 0.384939 0.626910
O O15 0.329968 0.500000 0.619772
O O16 0.248833 0.387559 0.579511
O O17 0.281972 0.158294 0.500000
O O18 0.500000 0.179031 0.558522
O O19 0.250000 0.250000 0.565835
#
# Coordination Sequence:
#
# PCOD8273404 Si02
#       6
#    16  16  16  16  16  16
#     4  12  25  40  59  83 112 145 185 230 276 329
#     4  10  21  37  57  82 113 148 186 229 278 331
#     4  10  21  39  62  86 114 146 181 224 275 330
#     4   9  18  33  54  80 110 146 187 230 276 326
#     4  10  21  37  58  85 116 149 186 228 275 329
#     4  10  21  37  57  81 111 148 190 235 282 332
#
# _framework density 19.278223000000001
#
# number of rings (size 3 to 8) (size 9 to 14) (size 15 to 20)
#    0.000    1.833    0.000    4.000    0.000    8.667 
#    0.000    6.667    0.000    0.000    0.000    3.500 
#    0.000    0.000    0.000    0.000    0.000    0.000 
#
# Total GULP energy -595376.469696 kJ/mol
# GULP energy per Si atom -12403.676452 kJ/mol
# Density = 1.923434 g / cm^3
# Si number density = 19.278223 Si / 1000 Ang^3
#
#
#
# Elastic Constant Matrix: (Units=GPa)
#
#
# Indices 1 2 3 4 5 6 
#
# 1 114.2178 62.1380 62.4013 0.0000 0.0000 0.0000
# 2 62.1380 91.3314 67.3381 0.0000 0.0000 0.0000
# 3 62.4013 67.3381 124.8347 0.0000 0.0000 0.0000
# 4 0.0000 0.0000 0.0000 -127.5930 0.0000 0.0000
# 5 0.0000 0.0000 0.0000 0.0000 31.7115 0.0000
# 6 0.0000 0.0000 0.0000 0.0000 0.0000 33.0248
#
#
#
# Elastic Compliance Matrix: (Units=1/GPa)
#
#
# Indices 1 2 3 4 5 6 
#
# 1 0.014645 -0.007582 -0.003231 0.000000 0.000000 0.000000
# 2 -0.007582 0.022104 -0.008134 0.000000 0.000000 0.000000
# 3 -0.003231 -0.008134 0.014013 0.000000 0.000000 0.000000
# 4 0.000000 0.000000 0.000000 -0.007837 0.000000 0.000000
# 5 0.000000 0.000000 0.000000 0.000000 0.031534 0.000000
# 6 0.000000 0.000000 0.000000 0.000000 0.000000 0.030280
#
#
# Mechanical properties :
#
#
# Convention : Reuss Voigt Hill
#
# Bulk Modulus (GPa) = 77.70050 79.34875 78.52462
# Shear Modulus (GPa) = 34.03171 -3.33757 15.34707
#
# Velocity S-wave (km/s) = 4.20610 -1.31720 2.82456
# Velocity P-wave (km/s) = 7.99879 6.23985 7.17344
#
# Compressibility (1/GPa) = 0.01286993
#
# Stress axis : x y z
#
# Youngs Moduli (GPa) = 68.28237 45.24025 71.36219
#
# Poissons Ratio (x) = 0.34300 0.23057
# Poissons Ratio (y) = 0.51770 0.58043
# Poissons Ratio (z) = 0.22062 0.36796
#
# Static dielectric constant tensor:
#      x y z
#    x 3.674460 0.000000 0.000000 
#    y 0.000000 3.547750 0.000000 
#    z 0.000000 0.000000 3.773650 
# 
# 
# High freq. dielectric constant tensor:
#      x y z
#    x 1.757790 0.000000 0.000000 
#    y 0.000000 1.747850 0.000000 
#    z 0.000000 0.000000 1.763760 
# 
# From -- ./inp_files/73189.got.cif
#   From: 2010.03.12/outbox.cif.g09.slc.cpg/sg65_37_cif.got.tgz:73189.got - 2010.04.10 20:52:16.
