data_PCOD8273455
_publ_section_title
;
Structure prediction by ZEFSAII (Michael W. Deem and Ramdas Pophale) SiO2 
 PCOD8273455
Probable space group: C M M M
;
_chemical_formula_sum "Si O2"
_cell_formula_units_Z 64
_cell_length_a 25.818971
_cell_length_b 14.569608
_cell_length_c 8.267731
_cell_angle_alpha 90.000000
_cell_angle_beta 90.000000
_cell_angle_gamma 90.000000
_cell_volume 3110.091274
_symmetry_space_group_name_H-M "C M M M"
_symmetry_group_IT_number 65
_symmetry_cell_setting 'orthorhombic'
loop_
_space_group_symop_operation_xyz
x,y,z
-x,-y,z
x,-y,-z
-x,y,-z
-x,-y,-z
x,y,-z
-x,y,z
x,-y,z
1/2+x,1/2+y,z
1/2-x,1/2-y,z
1/2+x,1/2-y,-z
1/2-x,1/2+y,-z
1/2-x,1/2-y,-z
1/2+x,1/2+y,-z
1/2-x,1/2+y,z
1/2+x,1/2-y,z
loop_
_atom_site_type_symbol
_atom_site_label
_atom_site_fract_x
_atom_site_fract_y
_atom_site_fract_z
Si Si1 0.056864 0.391063 0.500000
Si Si2 0.000000 0.894531 0.188380
Si Si3 0.306520 0.738311 0.182471
Si Si4 0.391835 0.397377 0.688610
Si Si5 0.384089 0.893789 0.819760
O O1 0.055091 0.500000 0.500000
O O2 0.082331 0.356612 0.331862
O O3 0.000000 0.348110 0.500000
O O4 0.946019 0.850584 0.252301
O O5 0.000000 0.000000 0.245346
O O6 0.000000 0.881078 0.000000
O O7 0.250000 0.750000 0.265816
O O8 0.342672 0.664780 0.270159
O O9 0.330695 0.839441 0.187131
O O10 0.299567 0.702472 0.000000
O O11 0.395489 0.405994 0.500000
O O12 0.384965 0.500000 0.764882
O O13 0.370844 0.000000 0.794242
O O14 0.410288 0.878925 0.000000
#
# Coordination Sequence:
#
# PCOD8273455 Si02
#       5
#     8   8  16  16  16
#     4   9  18  34  57  84 111 145 190 234 282 340
#     4   9  17  33  59  85 112 149 190 233 281 340
#     4  10  22  39  59  83 112 149 193 239 285 339
#     4  10  21  37  57  85 119 152 188 234 289 345
#     4   9  19  37  58  82 114 149 188 235 286 340
#
# _framework density 20.578175000000002
#
# number of rings (size 3 to 8) (size 9 to 14) (size 15 to 20)
#    0.000    2.500    0.000    1.125    1.750    5.000 
#    2.250    5.000    0.000    0.000    0.000    0.000 
#    0.000    0.000    0.000    0.000    0.000    0.000 
#
# Total GULP energy -396502.979252 kJ/mol
# GULP energy per Si atom -12390.718102 kJ/mol
# Density = 2.053134 g / cm^3
# Si number density = 20.578175 Si / 1000 Ang^3
#
#
#
# Elastic Constant Matrix: (Units=GPa)
#
#
# Indices 1 2 3 4 5 6 
#
# 1 184.3881 51.5097 65.6077 0.0000 0.0000 0.0000
# 2 51.5097 61.8278 28.0665 0.0000 0.0000 0.0000
# 3 65.6077 28.0665 121.6530 0.0000 0.0000 0.0000
# 4 0.0000 0.0000 0.0000 22.1244 0.0000 0.0000
# 5 0.0000 0.0000 0.0000 0.0000 -9.2550 0.0000
# 6 0.0000 0.0000 0.0000 0.0000 0.0000 10.4710
#
#
#
# Elastic Compliance Matrix: (Units=1/GPa)
#
#
# Indices 1 2 3 4 5 6 
#
# 1 0.007993 -0.005253 -0.003099 0.000000 0.000000 0.000000
# 2 -0.005253 0.021518 -0.002132 0.000000 0.000000 0.000000
# 3 -0.003099 -0.002132 0.010383 0.000000 0.000000 0.000000
# 4 0.000000 0.000000 0.000000 0.045199 0.000000 0.000000
# 5 0.000000 0.000000 0.000000 0.000000 -0.108049 0.000000
# 6 0.000000 0.000000 0.000000 0.000000 0.000000 0.095502
#
#
# Mechanical properties :
#
#
# Convention : Reuss Voigt Hill
#
# Bulk Modulus (GPa) = 52.83246 73.13742 62.98494
# Shear Modulus (GPa) = 50.08932 19.51372 34.80152
#
# Velocity S-wave (km/s) = 4.93901 3.08274 4.11686
# Velocity P-wave (km/s) = 7.63249 6.94906 7.29878
#
# Compressibility (1/GPa) = 0.01892776
#
# Stress axis : x y z
#
# Youngs Moduli (GPa) = 125.10389 46.47358 96.30959
#
# Poissons Ratio (x) = 0.24411 0.29846
# Poissons Ratio (y) = 0.65712 0.20529
# Poissons Ratio (z) = 0.38770 0.09906
#
# Static dielectric constant tensor:
#      x y z
#    x 4.204130 0.000000 0.000000 
#    y 0.000000 3.628700 0.000000 
#    z 0.000000 0.000000 3.932010 
# 
# 
# High freq. dielectric constant tensor:
#      x y z
#    x 1.795260 0.000000 0.000000 
#    y 0.000000 1.794740 0.000000 
#    z 0.000000 0.000000 1.812300 
# 
# From -- ./inp_files/13360.got.cif
#   From: 2010.03.12/outbox.cif.g09.slc.cpg/sg65_7_cif.got.tgz:13360.got - 2010.04.10 20:52:16.
