data_PCOD8273231
_publ_section_title
;
Structure prediction by ZEFSAII (Michael W. Deem and Ramdas Pophale) SiO2 
 PCOD8273231
Probable space group: C M M M
;
_chemical_formula_sum "Si O2"
_cell_formula_units_Z 72
_cell_length_a 16.287949
_cell_length_b 27.453473
_cell_length_c 8.877204
_cell_angle_alpha 90.000000
_cell_angle_beta 90.000000
_cell_angle_gamma 90.000000
_cell_volume 3969.537359
_symmetry_space_group_name_H-M "C M M M"
_symmetry_group_IT_number 65
_symmetry_cell_setting 'orthorhombic'
loop_
_space_group_symop_operation_xyz
x,y,z
-x,-y,z
x,-y,-z
-x,y,-z
-x,-y,-z
x,y,-z
-x,y,z
x,-y,z
1/2+x,1/2+y,z
1/2-x,1/2-y,z
1/2+x,1/2-y,-z
1/2-x,1/2+y,-z
1/2-x,1/2-y,-z
1/2+x,1/2+y,-z
1/2-x,1/2+y,z
1/2+x,1/2-y,z
loop_
_atom_site_type_symbol
_atom_site_label
_atom_site_fract_x
_atom_site_fract_y
_atom_site_fract_z
Si Si1 0.336150 0.390479 0.321051
Si Si2 0.592391 0.852854 0.324362
Si Si3 0.500000 0.555879 0.320712
Si Si4 0.255066 0.194440 0.822961
Si Si5 0.178077 0.447210 0.676525
O O1 0.336912 0.385156 0.500000
O O2 0.420911 0.414088 0.261936
O O3 0.318162 0.336826 0.253708
O O4 0.263752 0.425650 0.262258
O O5 0.611970 0.843501 0.500000
O O6 0.500000 0.837611 0.282989
O O7 0.654252 0.822091 0.224545
O O8 0.604094 0.910225 0.286464
O O9 0.500000 0.500000 0.258714
O O10 0.500000 0.553692 0.500000
O O11 0.250000 0.250000 0.769326
O O12 0.244515 0.188986 0.000000
O O13 0.187480 0.454183 0.500000
O O14 0.160813 0.500000 0.751992
#
# Coordination Sequence:
#
# PCOD8273231 Si02
#       5
#    16  16   8  16  16
#     4   9  17  30  50  76 104 132 167 209 252 298
#     4   9  18  32  51  77 103 126 158 201 247 295
#     4   9  16  28  51  83 113 137 167 211 260 311
#     4  10  21  37  54  70  93 131 174 212 254 302
#     4   8  13  23  43  71 101 131 159 189 230 282
#
# _framework density 18.138134000000001
#
# number of rings (size 3 to 8) (size 9 to 14) (size 15 to 20)
#    0.000    3.000    0.000    2.667    0.000    5.333 
#    2.000    2.778    0.000   17.333    0.000    6.222 
#    0.000    0.000    0.000    0.000    0.000    0.000 
#
# Total GULP energy -446160.793613 kJ/mol
# GULP energy per Si atom -12393.355378 kJ/mol
# Density = 1.809685 g / cm^3
# Si number density = 18.138134 Si / 1000 Ang^3
#
#
#
# Elastic Constant Matrix: (Units=GPa)
#
#
# Indices 1 2 3 4 5 6 
#
# 1 99.0370 47.3950 12.5971 0.0000 0.0000 0.0000
# 2 47.3950 150.9684 27.5617 0.0000 0.0000 0.0000
# 3 12.5971 27.5617 23.3147 0.0000 0.0000 0.0000
# 4 0.0000 0.0000 0.0000 -1.0507 0.0000 0.0000
# 5 0.0000 0.0000 0.0000 0.0000 12.4998 0.0000
# 6 0.0000 0.0000 0.0000 0.0000 0.0000 10.5009
#
#
#
# Elastic Compliance Matrix: (Units=1/GPa)
#
#
# Indices 1 2 3 4 5 6 
#
# 1 0.012004 -0.003296 -0.002590 0.000000 0.000000 0.000000
# 2 -0.003296 0.009352 -0.009275 0.000000 0.000000 0.000000
# 3 -0.002590 -0.009275 0.055255 0.000000 0.000000 0.000000
# 4 0.000000 0.000000 0.000000 -0.951756 0.000000 0.000000
# 5 0.000000 0.000000 0.000000 0.000000 0.080001 0.000000
# 6 0.000000 0.000000 0.000000 0.000000 0.000000 0.095230
#
#
# Mechanical properties :
#
#
# Convention : Reuss Voigt Hill
#
# Bulk Modulus (GPa) = 21.60280 49.82530 35.71405
# Shear Modulus (GPa) = -7.64335 16.77441 4.56553
#
# Velocity S-wave (km/s) = -2.05502 3.04438 1.58825
# Velocity P-wave (km/s) = 2.51101 6.31563 4.80585
#
# Compressibility (1/GPa) = 0.04629029
#
# Stress axis : x y z
#
# Youngs Moduli (GPa) = 83.30681 106.93158 18.09800
#
# Poissons Ratio (x) = 0.35241 0.04687
# Poissons Ratio (y) = 0.27455 0.16785
# Poissons Ratio (z) = 0.21574 0.99175
#
# Static dielectric constant tensor:
#      x y z
#    x 3.377150 0.000000 0.000000 
#    y 0.000000 3.622740 0.000000 
#    z 0.000000 0.000000 2.918600 
# 
# 
# High freq. dielectric constant tensor:
#      x y z
#    x 1.700230 0.000000 0.000000 
#    y 0.000000 1.708980 0.000000 
#    z 0.000000 0.000000 1.659110 
# 
# From -- ./inp_files/9486.got.cif
#   From: 2010.03.12/outbox.cif.g09.slc.cpg/sg65_5_cif.got.tgz:9486.got - 2010.04.10 20:52:16.
