data_PCOD8273051
_publ_section_title
;
Structure prediction by ZEFSAII (Michael W. Deem and Ramdas Pophale) SiO2 
 PCOD8273051
Probable space group: C M M M
;
_chemical_formula_sum "Si O2"
_cell_formula_units_Z 96
_cell_length_a 28.822528
_cell_length_b 8.652201
_cell_length_c 20.742494
_cell_angle_alpha 90.000000
_cell_angle_beta 90.000000
_cell_angle_gamma 90.000000
_cell_volume 5172.728007
_symmetry_space_group_name_H-M "C M M M"
_symmetry_group_IT_number 65
_symmetry_cell_setting 'orthorhombic'
loop_
_space_group_symop_operation_xyz
x,y,z
-x,-y,z
x,-y,-z
-x,y,-z
-x,-y,-z
x,y,-z
-x,y,z
x,-y,z
1/2+x,1/2+y,z
1/2-x,1/2-y,z
1/2+x,1/2-y,-z
1/2-x,1/2+y,-z
1/2-x,1/2-y,-z
1/2+x,1/2+y,-z
1/2-x,1/2+y,z
1/2+x,1/2-y,z
loop_
_atom_site_type_symbol
_atom_site_label
_atom_site_fract_x
_atom_site_fract_y
_atom_site_fract_z
Si Si1 0.797670 0.681362 0.875733
Si Si2 0.553602 0.318977 0.807235
Si Si3 0.389738 0.817367 0.690622
Si Si4 0.613707 0.677339 0.928151
Si Si5 0.948160 0.683490 0.571147
Si Si6 0.298174 0.317603 0.264287
O O1 0.791764 0.500000 0.866698
O O2 0.750000 0.750000 0.904922
O O3 0.840240 0.718979 0.922487
O O4 0.808645 0.756905 0.807039
O O5 0.500000 0.269831 0.807352
O O6 0.559847 0.500000 0.793152
O O7 0.580050 0.223820 0.752871
O O8 0.574645 0.273214 0.876796
O O9 0.414752 0.751441 0.626629
O O10 0.339797 0.736534 0.690173
O O11 0.382807 0.000000 0.688489
O O12 0.628293 0.500000 0.916845
O O13 0.593159 0.701958 0.000000
O O14 0.930595 0.735773 0.500000
O O15 0.949494 0.500000 0.575110
O O16 0.000000 0.748405 0.583100
O O17 0.294950 0.500000 0.262832
O O18 0.250000 0.250000 0.291463
#
# Coordination Sequence:
#
# PCOD8273051 Si02
#       6
#    16  16  16  16  16  16
#     4  11  21  35  56  80 106 137 173 219 272 326
#     4  10  21  36  54  77 106 141 181 226 272 319
#     4  11  20  32  55  85 112 143 180 222 269 317
#     4  10  21  37  55  75 104 143 183 223 270 324
#     4   8  15  29  50  79 115 151 185 220 260 310
#     4  11  21  35  55  80 110 141 176 220 268 322
#
# _framework density 18.558872000000001
#
# number of rings (size 3 to 8) (size 9 to 14) (size 15 to 20)
#    0.000    1.833    1.667    5.500    0.000    2.000 
#    0.000    1.667    0.000    2.500    0.000    8.167 
#    0.000    0.000    0.000    0.000    0.000    0.000 
#
# Total GULP energy -595245.456999 kJ/mol
# GULP energy per Si atom -12400.947021 kJ/mol
# Density = 1.851663 g / cm^3
# Si number density = 18.558872 Si / 1000 Ang^3
#
#
#
# Elastic Constant Matrix: (Units=GPa)
#
#
# Indices 1 2 3 4 5 6 
#
# 1 130.9251 40.4123 65.4937 0.0000 0.0000 0.0000
# 2 40.4123 95.6456 34.1605 0.0000 0.0000 0.0000
# 3 65.4937 34.1605 124.0087 0.0000 0.0000 0.0000
# 4 0.0000 0.0000 0.0000 15.0025 0.0000 0.0000
# 5 0.0000 0.0000 0.0000 0.0000 30.8528 0.0000
# 6 0.0000 0.0000 0.0000 0.0000 0.0000 25.6164
#
#
#
# Elastic Compliance Matrix: (Units=1/GPa)
#
#
# Indices 1 2 3 4 5 6 
#
# 1 0.011046 -0.002865 -0.005044 0.000000 0.000000 0.000000
# 2 -0.002865 0.012339 -0.001886 0.000000 0.000000 0.000000
# 3 -0.005044 -0.001886 0.011248 0.000000 0.000000 0.000000
# 4 0.000000 0.000000 0.000000 0.066656 0.000000 0.000000
# 5 0.000000 0.000000 0.000000 0.000000 0.032412 0.000000
# 6 0.000000 0.000000 0.000000 0.000000 0.000000 0.039037
#
#
# Mechanical properties :
#
#
# Convention : Reuss Voigt Hill
#
# Bulk Modulus (GPa) = 66.48215 70.07917 68.28066
# Shear Modulus (GPa) = 25.33660 28.32853 26.83257
#
# Velocity S-wave (km/s) = 3.69887 3.91117 3.80650
# Velocity P-wave (km/s) = 7.35814 7.63144 7.49604
#
# Compressibility (1/GPa) = 0.01504163
#
# Stress axis : x y z
#
# Youngs Moduli (GPa) = 90.53202 81.04058 88.90824
#
# Poissons Ratio (x) = 0.23222 0.44849
# Poissons Ratio (y) = 0.25942 0.16766
# Poissons Ratio (z) = 0.45668 0.15282
#
# Static dielectric constant tensor:
#      x y z
#    x 3.615640 0.000000 0.000000 
#    y 0.000000 3.270890 0.000000 
#    z 0.000000 0.000000 3.468770 
# 
# 
# High freq. dielectric constant tensor:
#      x y z
#    x 1.725180 0.000000 0.000000 
#    y 0.000000 1.710620 0.000000 
#    z 0.000000 0.000000 1.705590 
# 
# From -- ./inp_files/60190.got.cif
#   From: 2010.03.12/outbox.cif.g09.slc.cpg/sg65_31_cif.got.tgz:60190.got - 2010.04.10 20:52:16.
