data_PCOD8273343
_publ_section_title
;
Structure prediction by ZEFSAII (Michael W. Deem and Ramdas Pophale) SiO2 
 PCOD8273343
Probable space group: C M M M
;
_chemical_formula_sum "Si O2"
_cell_formula_units_Z 80
_cell_length_a 32.876829
_cell_length_b 11.012360
_cell_length_c 11.996729
_cell_angle_alpha 90.000000
_cell_angle_beta 90.000000
_cell_angle_gamma 90.000000
_cell_volume 4343.433449
_symmetry_space_group_name_H-M "C M M M"
_symmetry_group_IT_number 65
_symmetry_cell_setting 'orthorhombic'
loop_
_space_group_symop_operation_xyz
x,y,z
-x,-y,z
x,-y,-z
-x,y,-z
-x,-y,-z
x,y,-z
-x,y,z
x,-y,z
1/2+x,1/2+y,z
1/2-x,1/2-y,z
1/2+x,1/2-y,-z
1/2-x,1/2+y,-z
1/2-x,1/2-y,-z
1/2+x,1/2+y,-z
1/2-x,1/2+y,z
1/2+x,1/2-y,z
loop_
_atom_site_type_symbol
_atom_site_label
_atom_site_fract_x
_atom_site_fract_y
_atom_site_fract_z
Si Si1 0.281821 0.636972 0.237284
Si Si2 0.637219 0.359262 0.371344
Si Si3 0.544359 0.500000 0.127516
Si Si4 0.000000 0.641887 0.871867
Si Si5 0.205044 0.204969 0.000000
Si Si6 0.918942 0.244816 0.803254
Si Si7 0.130304 0.358861 0.000000
O O1 0.263285 0.500000 0.260844
O O2 0.250000 0.750000 0.248300
O O3 0.317872 0.664394 0.323206
O O4 0.301693 0.629151 0.113354
O O5 0.638147 0.323009 0.500000
O O6 0.624632 0.500000 0.354535
O O7 0.604023 0.269101 0.314975
O O8 0.500000 0.500000 0.190144
O O9 0.572250 0.611549 0.155877
O O10 0.533847 0.500000 0.000000
O O11 0.961172 0.681544 0.799128
O O12 0.000000 0.500000 0.884819
O O13 0.000000 0.697529 0.000000
O O14 0.250000 0.250000 0.000000
O O15 0.177399 0.324818 0.000000
O O16 0.889333 0.308509 0.888896
O O17 0.124195 0.500000 0.000000
#
# Coordination Sequence:
#
# PCOD8273343 Si02
#       7
#    16  16   8   8   8  16   8
#     4  10  21  38  61  90 123 159 197 246 306 367
#     4  10  22  40  61  86 118 157 205 257 301 344
#     4  11  20  32  55  89 125 149 188 239 305 359
#     4  11  22  37  58  89 126 159 190 236 301 366
#     4  10  21  37  56  89 122 157 186 241 295 363
#     4  12  21  37  59  88 122 155 193 248 299 358
#     4  12  24  37  60  91 122 161 199 238 297 365
#
# _framework density 18.418607999999999
#
# number of rings (size 3 to 8) (size 9 to 14) (size 15 to 20)
#    0.000    1.200    6.000    0.900    0.000    3.600 
#    1.800    0.500    0.000    7.200    0.000    0.000 
#    0.000    0.000    0.000    0.000    0.000    0.000 
#
# Total GULP energy -495677.201888 kJ/mol
# GULP energy per Si atom -12391.930047 kJ/mol
# Density = 1.837669 g / cm^3
# Si number density = 18.418608 Si / 1000 Ang^3
#
#
#
# Elastic Constant Matrix: (Units=GPa)
#
#
# Indices 1 2 3 4 5 6 
#
# 1 122.8137 56.9980 66.6934 0.0000 0.0000 0.0000
# 2 56.9980 120.7605 43.4842 0.0000 0.0000 0.0000
# 3 66.6934 43.4842 136.8965 0.0000 0.0000 0.0000
# 4 0.0000 0.0000 0.0000 31.7885 0.0000 0.0000
# 5 0.0000 0.0000 0.0000 0.0000 16.2569 0.0000
# 6 0.0000 0.0000 0.0000 0.0000 0.0000 30.1743
#
#
#
# Elastic Compliance Matrix: (Units=1/GPa)
#
#
# Indices 1 2 3 4 5 6 
#
# 1 0.012767 -0.004275 -0.004862 0.000000 0.000000 0.000000
# 2 -0.004275 0.010782 -0.001342 0.000000 0.000000 0.000000
# 3 -0.004862 -0.001342 0.010100 0.000000 0.000000 0.000000
# 4 0.000000 0.000000 0.000000 0.031458 0.000000 0.000000
# 5 0.000000 0.000000 0.000000 0.000000 0.061512 0.000000
# 6 0.000000 0.000000 0.000000 0.000000 0.000000 0.033141
#
#
# Mechanical properties :
#
#
# Convention : Reuss Voigt Hill
#
# Bulk Modulus (GPa) = 78.79948 79.42465 79.11207
# Shear Modulus (GPa) = 27.03478 29.86361 28.44919
#
# Velocity S-wave (km/s) = 3.83534 4.03101 3.93439
# Velocity P-wave (km/s) = 7.90497 8.05487 7.98027
#
# Compressibility (1/GPa) = 0.01269044
#
# Stress axis : x y z
#
# Youngs Moduli (GPa) = 78.32924 92.74787 99.01372
#
# Poissons Ratio (x) = 0.39651 0.48138
# Poissons Ratio (y) = 0.33487 0.13288
# Poissons Ratio (z) = 0.38081 0.12447
#
# Static dielectric constant tensor:
#      x y z
#    x 3.530790 0.000000 0.000000 
#    y 0.000000 3.578890 0.000000 
#    z 0.000000 0.000000 3.780730 
# 
# 
# High freq. dielectric constant tensor:
#      x y z
#    x 1.723360 0.000000 0.000000 
#    y 0.000000 1.715100 0.000000 
#    z 0.000000 0.000000 1.692530 
# 
# From -- ./inp_files/33570.got.cif
#   From: 2010.03.12/outbox.cif.g09.slc.cpg/sg65_17_cif.got.tgz:33570.got - 2010.04.10 20:52:16.
