data_PCOD8273408
_publ_section_title
;
Structure prediction by ZEFSAII (Michael W. Deem and Ramdas Pophale) SiO2 
 PCOD8273408
Probable space group: C M M M
;
_chemical_formula_sum "Si O2"
_cell_formula_units_Z 96
_cell_length_a 19.796509
_cell_length_b 27.417167
_cell_length_c 8.913826
_cell_angle_alpha 90.000000
_cell_angle_beta 90.000000
_cell_angle_gamma 90.000000
_cell_volume 4838.105578
_symmetry_space_group_name_H-M "C M M M"
_symmetry_group_IT_number 65
_symmetry_cell_setting 'orthorhombic'
loop_
_space_group_symop_operation_xyz
x,y,z
-x,-y,z
x,-y,-z
-x,y,-z
-x,-y,-z
x,y,-z
-x,y,z
x,-y,z
1/2+x,1/2+y,z
1/2-x,1/2-y,z
1/2+x,1/2-y,-z
1/2-x,1/2+y,-z
1/2-x,1/2-y,-z
1/2+x,1/2+y,-z
1/2-x,1/2+y,z
1/2+x,1/2-y,z
loop_
_atom_site_type_symbol
_atom_site_label
_atom_site_fract_x
_atom_site_fract_y
_atom_site_fract_z
Si Si1 0.077003 0.133836 0.326453
Si Si2 0.805816 0.710675 0.677014
Si Si3 0.922070 0.233647 0.824524
Si Si4 0.577820 0.056008 0.326777
Si Si5 0.804109 0.391030 0.176197
Si Si6 0.813453 0.944390 0.326868
O O1 0.086585 0.147901 0.500000
O O2 0.100324 0.180203 0.230310
O O3 0.122579 0.088149 0.279633
O O4 0.000000 0.119265 0.290716
O O5 0.811116 0.705904 0.500000
O O6 0.750000 0.750000 0.726139
O O7 0.878647 0.725402 0.741431
O O8 0.783508 0.659135 0.744032
O O9 0.000000 0.243256 0.783197
O O10 0.908532 0.237431 0.000000
O O11 0.596652 0.064864 0.500000
O O12 0.500000 0.068890 0.297089
O O13 0.621479 0.091657 0.223798
O O14 0.592408 0.000000 0.283382
O O15 0.750679 0.431898 0.225155
O O16 0.802423 0.383073 0.000000
O O17 0.793630 0.935725 0.500000
O O18 0.834392 0.000000 0.297246
#
# Coordination Sequence:
#
# PCOD8273408 Si02
#       6
#    16  16  16  16  16  16
#     4   9  18  34  57  84 113 147 188 231 276 327
#     4  11  24  41  61  83 108 143 188 234 279 329
#     4  10  21  37  58  85 116 148 182 223 275 333
#     4   9  19  38  63  87 112 146 187 229 274 325
#     4  12  25  38  56  83 115 149 184 227 279 333
#     4  10  21  37  57  81 112 150 190 233 278 325
#
# _framework density 19.842476000000001
#
# number of rings (size 3 to 8) (size 9 to 14) (size 15 to 20)
#    0.000    1.833    0.000    4.500    0.000   11.000 
#    0.000    2.500    0.000    0.000    0.000    3.500 
#    0.000    0.000    0.000    0.000    0.000    0.000 
#
# Total GULP energy -595505.872470 kJ/mol
# GULP energy per Si atom -12406.372343 kJ/mol
# Density = 1.979731 g / cm^3
# Si number density = 19.842476 Si / 1000 Ang^3
#
#
#
# Elastic Constant Matrix: (Units=GPa)
#
#
# Indices 1 2 3 4 5 6 
#
# 1 74.0614 24.4375 29.7018 0.0000 0.0000 0.0000
# 2 24.4375 74.7677 27.6946 0.0000 0.0000 0.0000
# 3 29.7018 27.6946 73.9454 0.0000 0.0000 0.0000
# 4 0.0000 0.0000 0.0000 8.7904 0.0000 0.0000
# 5 0.0000 0.0000 0.0000 0.0000 22.1176 0.0000
# 6 0.0000 0.0000 0.0000 0.0000 0.0000 40.4574
#
#
#
# Elastic Compliance Matrix: (Units=1/GPa)
#
#
# Indices 1 2 3 4 5 6 
#
# 1 0.016841 -0.003482 -0.005461 0.000000 0.000000 0.000000
# 2 -0.003482 0.016249 -0.004687 0.000000 0.000000 0.000000
# 3 -0.005461 -0.004687 0.017472 0.000000 0.000000 0.000000
# 4 0.000000 0.000000 0.000000 0.113760 0.000000 0.000000
# 5 0.000000 0.000000 0.000000 0.000000 0.045213 0.000000
# 6 0.000000 0.000000 0.000000 0.000000 0.000000 0.024717
#
#
# Mechanical properties :
#
#
# Convention : Reuss Voigt Hill
#
# Bulk Modulus (GPa) = 42.91231 42.93803 42.92517
# Shear Modulus (GPa) = 18.56806 23.66912 21.11859
#
# Velocity S-wave (km/s) = 3.06236 3.45751 3.26592
# Velocity P-wave (km/s) = 5.84615 6.13397 5.99179
#
# Compressibility (1/GPa) = 0.02330333
#
# Stress axis : x y z
#
# Youngs Moduli (GPa) = 59.37857 61.54255 57.23342
#
# Poissons Ratio (x) = 0.21428 0.31253
# Poissons Ratio (y) = 0.20674 0.26826
# Poissons Ratio (z) = 0.32424 0.28846
#
# Static dielectric constant tensor:
#      x y z
#    x 3.697510 0.000000 0.000000 
#    y 0.000000 3.601750 0.000000 
#    z 0.000000 0.000000 3.517660 
# 
# 
# High freq. dielectric constant tensor:
#      x y z
#    x 1.782820 0.000000 0.000000 
#    y 0.000000 1.775630 0.000000 
#    z 0.000000 0.000000 1.767530 
# 
# From -- ./inp_files/12243.got.cif
#   From: 2010.03.12/outbox.cif.g09.slc.cpg/sg65_7_cif.got.tgz:12243.got - 2010.04.10 20:52:16.
