data_PCOD8273900
_publ_section_title
;
Structure prediction by ZEFSAII (Michael W. Deem and Ramdas Pophale) SiO2 
 PCOD8273900
Probable space group: C M M M
;
_chemical_formula_sum "Si O2"
_cell_formula_units_Z 72
_cell_length_a 18.100742
_cell_length_b 10.268772
_cell_length_c 20.573529
_cell_angle_alpha 90.000000
_cell_angle_beta 90.000000
_cell_angle_gamma 90.000000
_cell_volume 3824.051060
_symmetry_space_group_name_H-M "C M M M"
_symmetry_group_IT_number 65
_symmetry_cell_setting 'orthorhombic'
loop_
_space_group_symop_operation_xyz
x,y,z
-x,-y,z
x,-y,-z
-x,y,-z
-x,-y,-z
x,y,-z
-x,y,z
x,-y,z
1/2+x,1/2+y,z
1/2-x,1/2-y,z
1/2+x,1/2-y,-z
1/2-x,1/2+y,-z
1/2-x,1/2-y,-z
1/2+x,1/2+y,-z
1/2-x,1/2+y,z
1/2+x,1/2-y,z
loop_
_atom_site_type_symbol
_atom_site_label
_atom_site_fract_x
_atom_site_fract_y
_atom_site_fract_z
Si Si1 0.587750 0.145625 0.927436
Si Si2 0.836891 0.239206 0.571369
Si Si3 0.185713 0.855850 0.702813
Si Si4 0.418054 0.000000 0.423875
Si Si5 0.413840 0.648498 0.176294
O O1 0.500000 0.153889 0.928389
O O2 0.619560 0.254058 0.878144
O O3 0.612602 0.000000 0.905686
O O4 0.617965 0.175207 0.000000
O O5 0.869779 0.196356 0.500000
O O6 0.750000 0.250000 0.562092
O O7 0.852683 0.140907 0.630944
O O8 0.871251 0.374502 0.596576
O O9 0.250000 0.750000 0.705523
O O10 0.124582 0.819129 0.755691
O O11 0.217825 0.000000 0.716712
O O12 0.500000 0.000000 0.391142
O O13 0.428422 0.000000 0.500000
O O14 0.500000 0.674201 0.186942
O O15 0.399008 0.500000 0.153680
#
# Coordination Sequence:
#
# PCOD8273900 Si02
#       5
#    16  16  16   8  16
#     4   8  14  26  46  74 105 132 163 208 256 302
#     4   9  19  33  54  78 104 136 180 227 274 327
#     4  10  22  36  53  75 105 140 177 221 269 318
#     4   9  18  34  54  80 111 139 172 224 283 332
#     4   9  18  33  51  73 103 137 171 209 257 313
#
# _framework density 18.828199999999999
#
# number of rings (size 3 to 8) (size 9 to 14) (size 15 to 20)
#    0.000    3.000    0.000    0.667    6.222    2.667 
#    0.000    2.222    0.000    0.667    0.000    6.222 
#    0.000    0.000    0.000    0.000    0.000    0.000 
#
# Total GULP energy -445991.308542 kJ/mol
# GULP energy per Si atom -12388.647460 kJ/mol
# Density = 1.878535 g / cm^3
# Si number density = 18.828200 Si / 1000 Ang^3
#
#
#
# Elastic Constant Matrix: (Units=GPa)
#
#
# Indices 1 2 3 4 5 6 
#
# 1 54.4825 41.8296 24.1101 0.0000 0.0000 0.0000
# 2 41.8296 119.4695 76.8133 0.0000 0.0000 0.0000
# 3 24.1101 76.8133 155.8901 0.0000 0.0000 0.0000
# 4 0.0000 0.0000 0.0000 32.1459 0.0000 0.0000
# 5 0.0000 0.0000 0.0000 0.0000 22.2551 0.0000
# 6 0.0000 0.0000 0.0000 0.0000 0.0000 23.2828
#
#
#
# Elastic Compliance Matrix: (Units=1/GPa)
#
#
# Indices 1 2 3 4 5 6 
#
# 1 0.025148 -0.009228 0.000657 0.000000 0.000000 0.000000
# 2 -0.009228 0.015638 -0.006278 0.000000 0.000000 0.000000
# 3 0.000657 -0.006278 0.009407 0.000000 0.000000 0.000000
# 4 0.000000 0.000000 0.000000 0.031108 0.000000 0.000000
# 5 0.000000 0.000000 0.000000 0.000000 0.044933 0.000000
# 6 0.000000 0.000000 0.000000 0.000000 0.000000 0.042950
#
#
# Mechanical properties :
#
#
# Convention : Reuss Voigt Hill
#
# Bulk Modulus (GPa) = 48.79083 68.37199 58.58141
# Shear Modulus (GPa) = 24.30561 28.00937 26.15749
#
# Velocity S-wave (km/s) = 3.59683 3.86116 3.73134
# Velocity P-wave (km/s) = 6.57416 7.50137 7.05302
#
# Compressibility (1/GPa) = 0.02049565
#
# Stress axis : x y z
#
# Youngs Moduli (GPa) = 39.76398 63.94731 106.30808
#
# Poissons Ratio (x) = 0.59010 -0.06990
# Poissons Ratio (y) = 0.36694 0.66743
# Poissons Ratio (z) = -0.02614 0.40148
#
# Static dielectric constant tensor:
#      x y z
#    x 3.129890 0.000000 0.000000 
#    y 0.000000 3.689590 0.000000 
#    z 0.000000 0.000000 3.902150 
# 
# 
# High freq. dielectric constant tensor:
#      x y z
#    x 1.687990 0.000000 0.000000 
#    y 0.000000 1.732870 0.000000 
#    z 0.000000 0.000000 1.735110 
# 
# From -- ./inp_files/64373.got.cif
#   From: 2010.03.12/outbox.cif.g09.slc.cpg/sg65_33_cif.got.tgz:64373.got - 2010.04.10 20:52:16.
