data_PCOD8273052
_publ_section_title
;
Structure prediction by ZEFSAII (Michael W. Deem and Ramdas Pophale) SiO2 
 PCOD8273052
Probable space group: C M M M
;
_chemical_formula_sum "Si O2"
_cell_formula_units_Z 56
_cell_length_a 9.015482
_cell_length_b 19.132822
_cell_length_c 17.385557
_cell_angle_alpha 90.000000
_cell_angle_beta 90.000000
_cell_angle_gamma 90.000000
_cell_volume 2998.862759
_symmetry_space_group_name_H-M "C M M M"
_symmetry_group_IT_number 65
_symmetry_cell_setting 'orthorhombic'
loop_
_space_group_symop_operation_xyz
x,y,z
-x,-y,z
x,-y,-z
-x,y,-z
-x,-y,-z
x,y,-z
-x,y,z
x,-y,z
1/2+x,1/2+y,z
1/2-x,1/2-y,z
1/2+x,1/2-y,-z
1/2-x,1/2+y,-z
1/2-x,1/2-y,-z
1/2+x,1/2+y,-z
1/2-x,1/2+y,z
1/2+x,1/2-y,z
loop_
_atom_site_type_symbol
_atom_site_label
_atom_site_fract_x
_atom_site_fract_y
_atom_site_fract_z
Si Si1 0.833788 0.081571 0.199296
Si Si2 0.676160 0.174180 0.500000
Si Si3 0.673367 0.179649 0.912915
Si Si4 0.172550 0.080616 0.375594
O O1 0.718220 0.117052 0.142533
O O2 0.791959 0.098145 0.287189
O O3 0.000000 0.108614 0.181926
O O4 0.823931 0.000000 0.183671
O O5 0.500000 0.182906 0.500000
O O6 0.750000 0.250000 0.500000
O O7 0.725583 0.131559 0.575019
O O8 0.500000 0.191239 0.908026
O O9 0.750000 0.250000 0.883183
O O10 0.723975 0.161969 0.000000
O O11 0.000000 0.094257 0.394345
O O12 0.211670 0.000000 0.394201
#
# Coordination Sequence:
#
# PCOD8273052 Si02
#       4
#    16   8  16  16
#     4   9  19  36  58  83 109 140 178 218 264 319
#     4  12  25  38  55  81 111 143 181 222 265 314
#     4  10  21  36  54  77 107 144 183 223 269 319
#     4   9  19  38  61  82 108 142 177 216 266 321
#
# _framework density 18.673746000000001
#
# number of rings (size 3 to 8) (size 9 to 14) (size 15 to 20)
#    0.000    2.286    0.000    4.286    0.000    7.429 
#    0.000    5.714    0.000    0.000    0.000    0.000 
#    0.000    0.000    0.000    0.000    0.000    0.000 
#
# Total GULP energy -347255.957597 kJ/mol
# GULP energy per Si atom -12401.998486 kJ/mol
# Density = 1.863124 g / cm^3
# Si number density = 18.673746 Si / 1000 Ang^3
#
#
#
# Elastic Constant Matrix: (Units=GPa)
#
#
# Indices 1 2 3 4 5 6 
#
# 1 100.7266 57.9599 53.6499 0.0000 0.0000 0.0000
# 2 57.9599 96.8380 66.0894 0.0000 0.0000 0.0000
# 3 53.6499 66.0894 102.5243 0.0000 0.0000 0.0000
# 4 0.0000 0.0000 0.0000 84.3421 0.0000 0.0000
# 5 0.0000 0.0000 0.0000 0.0000 33.8319 0.0000
# 6 0.0000 0.0000 0.0000 0.0000 0.0000 37.7606
#
#
#
# Elastic Compliance Matrix: (Units=1/GPa)
#
#
# Indices 1 2 3 4 5 6 
#
# 1 0.015980 -0.006888 -0.003922 0.000000 0.000000 0.000000
# 2 -0.006888 0.021407 -0.010195 0.000000 0.000000 0.000000
# 3 -0.003922 -0.010195 0.018378 0.000000 0.000000 0.000000
# 4 0.000000 0.000000 0.000000 0.011856 0.000000 0.000000
# 5 0.000000 0.000000 0.000000 0.000000 0.029558 0.000000
# 6 0.000000 0.000000 0.000000 0.000000 0.000000 0.026483
#
#
# Mechanical properties :
#
#
# Convention : Reuss Voigt Hill
#
# Bulk Modulus (GPa) = 72.69985 72.83193 72.76589
# Shear Modulus (GPa) = 29.36723 39.34624 34.35674
#
# Velocity S-wave (km/s) = 3.96997 4.59523 4.29399
# Velocity P-wave (km/s) = 7.74792 8.20011 7.97722
#
# Compressibility (1/GPa) = 0.01375519
#
# Stress axis : x y z
#
# Youngs Moduli (GPa) = 62.57691 46.71407 54.41200
#
# Poissons Ratio (x) = 0.32175 0.21343
# Poissons Ratio (y) = 0.43101 0.55473
# Poissons Ratio (z) = 0.24545 0.47625
#
# Static dielectric constant tensor:
#      x y z
#    x 3.383840 0.000000 0.000000 
#    y 0.000000 3.355400 0.000000 
#    z 0.000000 0.000000 3.494660 
# 
# 
# High freq. dielectric constant tensor:
#      x y z
#    x 1.722840 0.000000 0.000000 
#    y 0.000000 1.723580 0.000000 
#    z 0.000000 0.000000 1.733080 
# 
# From -- ./inp_files/35486.got.cif
#   From: 2010.03.12/outbox.cif.g09.slc.cpg/sg65_18_cif.got.tgz:35486.got - 2010.04.10 20:52:16.
