data_PCOD8273666
_publ_section_title
;
Structure prediction by ZEFSAII (Michael W. Deem and Ramdas Pophale) SiO2 
 PCOD8273666
Probable space group: C M M M
;
_chemical_formula_sum "Si O2"
_cell_formula_units_Z 96
_cell_length_a 18.443166
_cell_length_b 22.682514
_cell_length_c 11.818609
_cell_angle_alpha 90.000000
_cell_angle_beta 90.000000
_cell_angle_gamma 90.000000
_cell_volume 4944.165818
_symmetry_space_group_name_H-M "C M M M"
_symmetry_group_IT_number 65
_symmetry_cell_setting 'orthorhombic'
loop_
_space_group_symop_operation_xyz
x,y,z
-x,-y,z
x,-y,-z
-x,y,-z
-x,-y,-z
x,y,-z
-x,y,z
x,-y,z
1/2+x,1/2+y,z
1/2-x,1/2-y,z
1/2+x,1/2-y,-z
1/2-x,1/2+y,-z
1/2-x,1/2-y,-z
1/2+x,1/2+y,-z
1/2-x,1/2+y,z
1/2+x,1/2-y,z
loop_
_atom_site_type_symbol
_atom_site_label
_atom_site_fract_x
_atom_site_fract_y
_atom_site_fract_z
Si Si1 0.418139 0.068931 0.128942
Si Si2 0.417898 0.248447 0.125490
Si Si3 0.420708 0.567642 0.268115
Si Si4 0.319375 0.640825 0.873668
Si Si5 0.272283 0.821124 0.500000
Si Si6 0.157539 0.069894 0.500000
Si Si7 0.325660 0.157856 0.743420
O O1 0.500000 0.093000 0.149168
O O2 0.362355 0.096492 0.218869
O O3 0.416192 0.000000 0.150814
O O4 0.394375 0.083436 0.000000
O O5 0.500000 0.255452 0.166096
O O6 0.382227 0.311652 0.123573
O O7 0.376641 0.209305 0.214578
O O8 0.413494 0.219675 0.000000
O O9 0.500000 0.598683 0.250952
O O10 0.432993 0.500000 0.247509
O O11 0.358160 0.584651 0.179711
O O12 0.393067 0.580828 0.393321
O O13 0.253565 0.663768 0.797601
O O14 0.290907 0.626421 0.000000
O O15 0.250000 0.750000 0.500000
O O16 0.213201 0.874510 0.500000
O O17 0.321264 0.834286 0.390806
O O18 0.187904 0.000000 0.500000
#
# Coordination Sequence:
#
# PCOD8273666 Si02
#       7
#    16  16  16  16   8   8  16
#     4   9  19  38  65  96 128 162 204 257 314 376
#     4  10  21  38  60  85 116 156 201 244 295 366
#     4  10  21  38  61  87 116 155 203 252 299 356
#     4  11  22  36  57  88 122 155 192 244 307 371
#     4  12  26  43  62  88 130 166 205 268 330 374
#     4  10  21  42  68  88 113 161 221 261 299 363
#     4  12  23  38  62  86 118 161 206 253 312 367
#
# _framework density 19.416824999999999
#
# number of rings (size 3 to 8) (size 9 to 14) (size 15 to 20)
#    0.000    1.500    1.667    4.750    0.000    6.333 
#    0.000    2.500    0.000    1.000    0.000    0.000 
#    0.000    0.000    0.000    0.000    0.000    0.000 
#
# Total GULP energy -594822.613887 kJ/mol
# GULP energy per Si atom -12392.137789 kJ/mol
# Density = 1.937263 g / cm^3
# Si number density = 19.416825 Si / 1000 Ang^3
#
#
#
# Elastic Constant Matrix: (Units=GPa)
#
#
# Indices 1 2 3 4 5 6 
#
# 1 126.7583 39.1661 63.8611 0.0000 0.0000 0.0000
# 2 39.1661 76.2208 36.5725 0.0000 0.0000 0.0000
# 3 63.8611 36.5725 148.7978 0.0000 0.0000 0.0000
# 4 0.0000 0.0000 0.0000 53.9865 0.0000 0.0000
# 5 0.0000 0.0000 0.0000 0.0000 45.5005 0.0000
# 6 0.0000 0.0000 0.0000 0.0000 0.0000 41.9681
#
#
#
# Elastic Compliance Matrix: (Units=1/GPa)
#
#
# Indices 1 2 3 4 5 6 
#
# 1 0.010970 -0.003830 -0.003767 0.000000 0.000000 0.000000
# 2 -0.003830 0.016211 -0.002341 0.000000 0.000000 0.000000
# 3 -0.003767 -0.002341 0.008913 0.000000 0.000000 0.000000
# 4 0.000000 0.000000 0.000000 0.018523 0.000000 0.000000
# 5 0.000000 0.000000 0.000000 0.000000 0.021978 0.000000
# 6 0.000000 0.000000 0.000000 0.000000 0.000000 0.023828
#
#
# Mechanical properties :
#
#
# Convention : Reuss Voigt Hill
#
# Bulk Modulus (GPa) = 61.65655 70.10847 65.88251
# Shear Modulus (GPa) = 39.77640 42.43617 41.10628
#
# Velocity S-wave (km/s) = 4.53100 4.68004 4.60613
# Velocity P-wave (km/s) = 7.69392 8.08636 7.89258
#
# Compressibility (1/GPa) = 0.01621888
#
# Stress axis : x y z
#
# Youngs Moduli (GPa) = 91.15720 61.68740 112.20138
#
# Poissons Ratio (x) = 0.23623 0.42265
# Poissons Ratio (y) = 0.34909 0.26264
# Poissons Ratio (z) = 0.34338 0.14440
#
# Static dielectric constant tensor:
#      x y z
#    x 2.317270 0.000000 0.000000 
#    y 0.000000 3.724510 0.000000 
#    z 0.000000 0.000000 3.335370 
# 
# 
# High freq. dielectric constant tensor:
#      x y z
#    x 1.763430 0.000000 0.000000 
#    y 0.000000 1.760670 0.000000 
#    z 0.000000 0.000000 1.751510 
# 
# From -- ./inp_files/27175.got.cif
#   From: 2010.03.12/outbox.cif.g09.slc.cpg/sg65_14_cif.got.tgz:27175.got - 2010.04.10 20:52:16.
