data_PCOD8273362
_publ_section_title
;
Structure prediction by ZEFSAII (Michael W. Deem and Ramdas Pophale) SiO2 
 PCOD8273362
Probable space group: C M M M
;
_chemical_formula_sum "Si O2"
_cell_formula_units_Z 104
_cell_length_a 8.720821
_cell_length_b 28.462615
_cell_length_c 22.894438
_cell_angle_alpha 90.000000
_cell_angle_beta 90.000000
_cell_angle_gamma 90.000000
_cell_volume 5682.797202
_symmetry_space_group_name_H-M "C M M M"
_symmetry_group_IT_number 65
_symmetry_cell_setting 'orthorhombic'
loop_
_space_group_symop_operation_xyz
x,y,z
-x,-y,z
x,-y,-z
-x,y,-z
-x,-y,-z
x,y,-z
-x,y,z
x,-y,z
1/2+x,1/2+y,z
1/2-x,1/2-y,z
1/2+x,1/2-y,-z
1/2-x,1/2+y,-z
1/2-x,1/2-y,-z
1/2+x,1/2+y,-z
1/2-x,1/2+y,z
1/2+x,1/2-y,z
loop_
_atom_site_type_symbol
_atom_site_label
_atom_site_fract_x
_atom_site_fract_y
_atom_site_fract_z
Si Si1 0.676496 0.446687 0.711783
Si Si2 0.817946 0.850587 0.888117
Si Si3 0.677554 0.859973 0.661887
Si Si4 0.318650 0.199188 0.776030
Si Si5 0.181053 0.698371 0.000000
Si Si6 0.681749 0.551005 0.156705
Si Si7 0.820006 0.798431 0.433959
O O1 0.500000 0.430376 0.709337
O O2 0.693903 0.500000 0.689707
O O3 0.776957 0.414234 0.669601
O O4 0.742743 0.441720 0.777515
O O5 0.766066 0.822400 0.831532
O O6 0.765253 0.905361 0.883265
O O7 0.000000 0.845871 0.895476
O O8 0.734513 0.829788 0.943712
O O9 0.500000 0.855239 0.647901
O O10 0.723186 0.832052 0.720229
O O11 0.768652 0.841076 0.606379
O O12 0.500000 0.201761 0.787770
O O13 0.250000 0.250000 0.763708
O O14 0.250000 0.750000 0.000000
O O15 0.000000 0.703029 0.000000
O O16 0.500000 0.549591 0.160093
O O17 0.740859 0.500000 0.132372
O O18 0.762559 0.808105 0.500000
O O19 0.750000 0.750000 0.409627
O O20 0.000000 0.793289 0.431403
#
# Coordination Sequence:
#
# PCOD8273362 Si02
#       7
#    16  16  16  16   8  16  16
#     4   9  17  32  55  82 112 147 185 225 273 328
#     4  11  21  37  61  84 108 141 182 226 272 321
#     4  11  22  34  53  82 115 148 184 226 276 332
#     4  11  23  36  51  77 111 144 179 221 274 325
#     4  12  26  44  61  78 107 143 186 229 271 330
#     4   8  15  30  55  85 112 140 177 220 266 319
#     4  10  21  37  57  80 109 147 190 233 278 329
#
# _framework density 18.300847000000001
#
# number of rings (size 3 to 8) (size 9 to 14) (size 15 to 20)
#    0.000    1.846    1.538    4.385    0.000    4.308 
#    0.000    0.385    0.000    4.615    0.000    3.231 
#    0.000    0.000    0.000    0.000    0.000    0.000 
#
# Total GULP energy -644832.812584 kJ/mol
# GULP energy per Si atom -12400.631011 kJ/mol
# Density = 1.825919 g / cm^3
# Si number density = 18.300847 Si / 1000 Ang^3
#
#
#
# Elastic Constant Matrix: (Units=GPa)
#
#
# Indices 1 2 3 4 5 6 
#
# 1 71.0969 36.7725 35.7198 0.0000 0.0000 0.0000
# 2 36.7725 135.4599 52.8943 0.0000 0.0000 0.0000
# 3 35.7198 52.8943 92.3421 0.0000 0.0000 0.0000
# 4 0.0000 0.0000 0.0000 21.2072 0.0000 0.0000
# 5 0.0000 0.0000 0.0000 0.0000 32.6325 0.0000
# 6 0.0000 0.0000 0.0000 0.0000 0.0000 28.0358
#
#
#
# Elastic Compliance Matrix: (Units=1/GPa)
#
#
# Indices 1 2 3 4 5 6 
#
# 1 0.018265 -0.002833 -0.005442 0.000000 0.000000 0.000000
# 2 -0.002833 0.009949 -0.004603 0.000000 0.000000 0.000000
# 3 -0.005442 -0.004603 0.015571 0.000000 0.000000 0.000000
# 4 0.000000 0.000000 0.000000 0.047154 0.000000 0.000000
# 5 0.000000 0.000000 0.000000 0.000000 0.030644 0.000000
# 6 0.000000 0.000000 0.000000 0.000000 0.000000 0.035669
#
#
# Mechanical properties :
#
#
# Convention : Reuss Voigt Hill
#
# Bulk Modulus (GPa) = 55.46917 61.07469 58.27193
# Shear Modulus (GPa) = 26.45262 27.94261 27.19761
#
# Velocity S-wave (km/s) = 3.80601 3.91173 3.85923
# Velocity P-wave (km/s) = 7.04909 7.33807 7.19503
#
# Compressibility (1/GPa) = 0.01802803
#
# Stress axis : x y z
#
# Youngs Moduli (GPa) = 54.74962 100.51639 64.22189
#
# Poissons Ratio (x) = 0.28478 0.34952
# Poissons Ratio (y) = 0.15511 0.29560
# Poissons Ratio (z) = 0.29797 0.46265
#
# Static dielectric constant tensor:
#      x y z
#    x 3.313800 0.000000 0.000000 
#    y 0.000000 3.801420 0.000000 
#    z 0.000000 0.000000 3.098080 
# 
# 
# High freq. dielectric constant tensor:
#      x y z
#    x 1.705540 0.000000 0.000000 
#    y 0.000000 1.721870 0.000000 
#    z 0.000000 0.000000 1.692470 
# 
# From -- ./inp_files/60377.got.cif
#   From: 2010.03.12/outbox.cif.g09.slc.cpg/sg65_31_cif.got.tgz:60377.got - 2010.04.10 20:52:16.
