data_PCOD8273335
_publ_section_title
;
Structure prediction by ZEFSAII (Michael W. Deem and Ramdas Pophale) SiO2 
 PCOD8273335
Probable space group: C M M M
;
_chemical_formula_sum "Si O2"
_cell_formula_units_Z 104
_cell_length_a 8.991383
_cell_length_b 26.452012
_cell_length_c 24.656217
_cell_angle_alpha 90.000000
_cell_angle_beta 90.000000
_cell_angle_gamma 90.000000
_cell_volume 5864.238868
_symmetry_space_group_name_H-M "C M M M"
_symmetry_group_IT_number 65
_symmetry_cell_setting 'orthorhombic'
loop_
_space_group_symop_operation_xyz
x,y,z
-x,-y,z
x,-y,-z
-x,y,-z
-x,-y,-z
x,y,-z
-x,y,z
x,-y,z
1/2+x,1/2+y,z
1/2-x,1/2-y,z
1/2+x,1/2-y,-z
1/2-x,1/2+y,-z
1/2-x,1/2-y,-z
1/2+x,1/2+y,-z
1/2-x,1/2+y,z
1/2+x,1/2-y,z
loop_
_atom_site_type_symbol
_atom_site_label
_atom_site_fract_x
_atom_site_fract_y
_atom_site_fract_z
Si Si1 0.668872 0.500000 0.064019
Si Si2 0.164160 0.058567 0.330672
Si Si3 0.172283 0.442878 0.226897
Si Si4 0.175757 0.598359 0.888044
Si Si5 0.164086 0.703135 0.563378
Si Si6 0.323606 0.399350 0.440449
Si Si7 0.826208 0.802506 0.063671
O O1 0.500000 0.500000 0.087343
O O2 0.754212 0.550400 0.081911
O O3 0.663694 0.500000 0.000000
O O4 0.255592 0.082317 0.280744
O O5 0.234552 0.065946 0.390888
O O6 0.000000 0.083090 0.329926
O O7 0.157075 0.000000 0.318992
O O8 0.230589 0.500000 0.214567
O O9 0.208377 0.407367 0.175924
O O10 0.000000 0.445186 0.239294
O O11 0.249609 0.650600 0.906349
O O12 0.000000 0.599413 0.900528
O O13 0.144831 0.713134 0.500000
O O14 0.250000 0.750000 0.590848
O O15 0.265944 0.655456 0.574833
O O16 0.000000 0.696588 0.589589
O O17 0.261779 0.417114 0.500000
O O18 0.500000 0.399052 0.443677
O O19 0.750000 0.750000 0.082448
O O20 0.000000 0.800504 0.078798
O O21 0.802240 0.810742 0.000000
#
# Coordination Sequence:
#
# PCOD8273335 Si02
#       7
#     8  16  16  16  16  16  16
#     4  11  23  35  49  77 115 147 174 211 262 315
#     4   9  18  31  48  71  96 127 168 207 246 295
#     4   9  18  34  52  72  99 131 169 210 255 307
#     4  11  21  35  55  79 107 141 180 221 267 317
#     4   9  16  26  42  64  89 117 150 186 228 283
#     4   9  17  29  45  67  97 128 158 197 245 297
#     4  10  21  37  56  80 110 145 185 224 264 313
#
# _framework density 17.734611000000001
#
# number of rings (size 3 to 8) (size 9 to 14) (size 15 to 20)
#    0.000    2.385    0.769    2.077    0.000    7.385 
#    0.000    1.538    0.000    0.923    0.000   10.769 
#    0.000    0.000    0.000    0.000    0.000    0.000 
#
# Total GULP energy -644399.797604 kJ/mol
# GULP energy per Si atom -12392.303800 kJ/mol
# Density = 1.769425 g / cm^3
# Si number density = 17.734611 Si / 1000 Ang^3
#
#
#
# Elastic Constant Matrix: (Units=GPa)
#
#
# Indices 1 2 3 4 5 6 
#
# 1 68.4956 47.4452 55.5952 0.0000 0.0000 0.0000
# 2 47.4452 99.3615 53.7396 0.0000 0.0000 0.0000
# 3 55.5952 53.7396 111.9281 0.0000 0.0000 0.0000
# 4 0.0000 0.0000 0.0000 26.4059 0.0000 0.0000
# 5 0.0000 0.0000 0.0000 0.0000 23.7689 0.0000
# 6 0.0000 0.0000 0.0000 0.0000 0.0000 28.0938
#
#
#
# Elastic Compliance Matrix: (Units=1/GPa)
#
#
# Indices 1 2 3 4 5 6 
#
# 1 0.028550 -0.008054 -0.010314 0.000000 0.000000 0.000000
# 2 -0.008054 0.015867 -0.003617 0.000000 0.000000 0.000000
# 3 -0.010314 -0.003617 0.015794 0.000000 0.000000 0.000000
# 4 0.000000 0.000000 0.000000 0.037870 0.000000 0.000000
# 5 0.000000 0.000000 0.000000 0.000000 0.042072 0.000000
# 6 0.000000 0.000000 0.000000 0.000000 0.000000 0.035595
#
#
# Mechanical properties :
#
#
# Convention : Reuss Voigt Hill
#
# Bulk Modulus (GPa) = 61.57811 65.92727 63.75269
# Shear Modulus (GPa) = 22.20924 23.85407 23.03166
#
# Velocity S-wave (km/s) = 3.54264 3.67148 3.60764
# Velocity P-wave (km/s) = 7.17852 7.43156 7.30613
#
# Compressibility (1/GPa) = 0.01623954
#
# Stress axis : x y z
#
# Youngs Moduli (GPa) = 35.02660 63.02518 63.31542
#
# Poissons Ratio (x) = 0.50763 0.65301
# Poissons Ratio (y) = 0.28212 0.22903
# Poissons Ratio (z) = 0.36125 0.22798
#
# Static dielectric constant tensor:
#      x y z
#    x 3.517240 0.000000 0.000000 
#    y 0.000000 3.215950 0.000000 
#    z 0.000000 0.000000 3.373640 
# 
# 
# High freq. dielectric constant tensor:
#      x y z
#    x 1.692780 0.000000 0.000000 
#    y 0.000000 1.668990 0.000000 
#    z 0.000000 0.000000 1.673150 
# 
# From -- ./inp_files/68198.got.cif
#   From: 2010.03.12/outbox.cif.g09.slc.cpg/sg65_35_cif.got.tgz:68198.got - 2010.04.10 20:52:16.
