data_PCOD8273845
_publ_section_title
;
Structure prediction by ZEFSAII (Michael W. Deem and Ramdas Pophale) SiO2 
 PCOD8273845
Probable space group: C M M M
;
_chemical_formula_sum "Si O2"
_cell_formula_units_Z 72
_cell_length_a 24.206060
_cell_length_b 17.767123
_cell_length_c 7.855876
_cell_angle_alpha 90.000000
_cell_angle_beta 90.000000
_cell_angle_gamma 90.000000
_cell_volume 3378.592659
_symmetry_space_group_name_H-M "C M M M"
_symmetry_group_IT_number 65
_symmetry_cell_setting 'orthorhombic'
loop_
_space_group_symop_operation_xyz
x,y,z
-x,-y,z
x,-y,-z
-x,y,-z
-x,-y,-z
x,y,-z
-x,y,z
x,-y,z
1/2+x,1/2+y,z
1/2-x,1/2-y,z
1/2+x,1/2-y,-z
1/2-x,1/2+y,-z
1/2-x,1/2-y,-z
1/2+x,1/2+y,-z
1/2-x,1/2+y,z
1/2+x,1/2-y,z
loop_
_atom_site_type_symbol
_atom_site_label
_atom_site_fract_x
_atom_site_fract_y
_atom_site_fract_z
Si Si1 0.343731 0.810038 0.307325
Si Si2 0.936996 0.414369 0.802181
Si Si3 0.633263 0.351810 0.188520
Si Si4 0.934733 0.087308 0.500000
Si Si5 0.254337 0.415160 0.699248
O O1 0.331148 0.785165 0.500000
O O2 0.398761 0.860104 0.307350
O O3 0.351260 0.735920 0.196449
O O4 0.292736 0.858559 0.233046
O O5 0.926798 0.500000 0.743948
O O6 0.000000 0.391124 0.766348
O O7 0.922731 0.404845 0.000000
O O8 0.588546 0.373588 0.330476
O O9 0.688477 0.400498 0.206248
O O10 0.608479 0.367563 0.000000
O O11 0.000000 0.098207 0.500000
O O12 0.917460 0.000000 0.500000
O O13 0.264652 0.403133 0.500000
O O14 0.234636 0.500000 0.738995
#
# Coordination Sequence:
#
# PCOD8273845 Si02
#       5
#    16  16  16   8  16
#     4  11  22  38  61  93 131 174 220 267 320 381
#     4   9  19  36  56  81 120 169 218 270 324 378
#     4  12  25  43  69 100 132 171 215 266 330 392
#     4  11  26  50  75  98 129 167 211 270 330 390
#     4  10  21  39  64  94 132 175 219 268 321 382
#
# _framework density 21.310649000000002
#
# number of rings (size 3 to 8) (size 9 to 14) (size 15 to 20)
#    0.000    1.444    2.222    3.333    0.000    9.333 
#    0.000    2.222    0.000    0.000    0.000    0.000 
#    0.000    0.000    0.000    0.000    0.000    0.000 
#
# Total GULP energy -446549.414448 kJ/mol
# GULP energy per Si atom -12404.150401 kJ/mol
# Density = 2.126215 g / cm^3
# Si number density = 21.310649 Si / 1000 Ang^3
#
#
#
# Elastic Constant Matrix: (Units=GPa)
#
#
# Indices 1 2 3 4 5 6 
#
# 1 98.0588 40.5267 39.7069 0.0000 0.0000 0.0000
# 2 40.5267 115.0750 41.9086 0.0000 0.0000 0.0000
# 3 39.7069 41.9086 115.0100 0.0000 0.0000 0.0000
# 4 0.0000 0.0000 0.0000 26.0079 0.0000 0.0000
# 5 0.0000 0.0000 0.0000 0.0000 18.2166 0.0000
# 6 0.0000 0.0000 0.0000 0.0000 0.0000 27.6661
#
#
#
# Elastic Compliance Matrix: (Units=1/GPa)
#
#
# Indices 1 2 3 4 5 6 
#
# 1 0.012895 -0.003367 -0.003225 0.000000 0.000000 0.000000
# 2 -0.003367 0.010899 -0.002809 0.000000 0.000000 0.000000
# 3 -0.003225 -0.002809 0.010832 0.000000 0.000000 0.000000
# 4 0.000000 0.000000 0.000000 0.038450 0.000000 0.000000
# 5 0.000000 0.000000 0.000000 0.000000 0.054895 0.000000
# 6 0.000000 0.000000 0.000000 0.000000 0.000000 0.036145
#
#
# Mechanical properties :
#
#
# Convention : Reuss Voigt Hill
#
# Bulk Modulus (GPa) = 63.19558 63.60314 63.39936
# Shear Modulus (GPa) = 26.56845 28.11156 27.34000
#
# Velocity S-wave (km/s) = 3.53473 3.63593 3.58568
# Velocity P-wave (km/s) = 6.81013 6.89472 6.85255
#
# Compressibility (1/GPa) = 0.01582389
#
# Stress axis : x y z
#
# Youngs Moduli (GPa) = 77.54664 91.75399 92.31917
#
# Poissons Ratio (x) = 0.30892 0.29775
# Poissons Ratio (y) = 0.26109 0.25932
# Poissons Ratio (z) = 0.25011 0.25774
#
# Static dielectric constant tensor:
#      x y z
#    x 3.766890 0.000000 0.000000 
#    y 0.000000 3.932220 0.000000 
#    z 0.000000 0.000000 3.750680 
# 
# 
# High freq. dielectric constant tensor:
#      x y z
#    x 1.832220 0.000000 0.000000 
#    y 0.000000 1.844600 0.000000 
#    z 0.000000 0.000000 1.829750 
# 
# From -- ./inp_files/13605.got.cif
#   From: 2010.03.12/outbox.cif.g09.slc.cpg/sg65_7_cif.got.tgz:13605.got - 2010.04.10 20:52:16.
