data_PCOD8273305
_publ_section_title
;
Structure prediction by ZEFSAII (Michael W. Deem and Ramdas Pophale) SiO2 
 PCOD8273305
Probable space group: C M M M
;
_chemical_formula_sum "Si O2"
_cell_formula_units_Z 80
_cell_length_a 8.167369
_cell_length_b 21.054968
_cell_length_c 23.948824
_cell_angle_alpha 90.000000
_cell_angle_beta 90.000000
_cell_angle_gamma 90.000000
_cell_volume 4118.328217
_symmetry_space_group_name_H-M "C M M M"
_symmetry_group_IT_number 65
_symmetry_cell_setting 'orthorhombic'
loop_
_space_group_symop_operation_xyz
x,y,z
-x,-y,z
x,-y,-z
-x,y,-z
-x,-y,-z
x,y,-z
-x,y,z
x,-y,z
1/2+x,1/2+y,z
1/2-x,1/2-y,z
1/2+x,1/2-y,-z
1/2-x,1/2+y,-z
1/2-x,1/2-y,-z
1/2+x,1/2+y,-z
1/2-x,1/2+y,z
1/2+x,1/2-y,z
loop_
_atom_site_type_symbol
_atom_site_label
_atom_site_fract_x
_atom_site_fract_y
_atom_site_fract_z
Si Si1 0.500000 0.075548 0.935900
Si Si2 0.809907 0.866421 0.562399
Si Si3 0.181871 0.074286 0.872190
Si Si4 0.319192 0.000000 0.565780
Si Si5 0.306688 0.928139 0.750378
Si Si6 0.810890 0.683026 0.327622
O O1 0.332919 0.103939 0.908016
O O2 0.500000 0.000000 0.928095
O O3 0.500000 0.096428 0.000000
O O4 0.735168 0.855781 0.500000
O O5 0.728832 0.818951 0.606380
O O6 0.000000 0.852629 0.560800
O O7 0.778057 0.937714 0.584509
O O8 0.213609 0.087573 0.807304
O O9 0.000000 0.102318 0.887881
O O10 0.178505 0.000000 0.884460
O O11 0.500000 0.000000 0.593941
O O12 0.337248 0.000000 0.500000
O O13 0.500000 0.921103 0.760969
O O14 0.236270 0.877541 0.705255
O O15 0.266670 0.000000 0.729694
O O16 0.750000 0.750000 0.302891
O O17 0.000000 0.680041 0.317967
#
# Coordination Sequence:
#
# PCOD8273305 Si02
#       6
#     8  16  16   8  16  16
#     4   9  16  26  42  68 110 154 185 225 274 322
#     4  10  21  37  56  78 106 138 175 222 277 335
#     4   9  16  27  46  72 103 143 188 229 272 325
#     4   9  17  31  53  79 105 133 169 213 259 320
#     4   9  18  35  57  78 103 140 185 231 278 330
#     4  11  24  39  57  80 110 143 177 229 282 336
#
# _framework density 19.425357000000002
#
# number of rings (size 3 to 8) (size 9 to 14) (size 15 to 20)
#    0.000    2.400    1.000    1.500    1.400    4.800 
#    0.000    2.000    0.000    0.000    0.000    0.000 
#    0.000    0.800    0.400    0.000    0.000    0.000 
#
# Total GULP energy -495728.265418 kJ/mol
# GULP energy per Si atom -12393.206635 kJ/mol
# Density = 1.938114 g / cm^3
# Si number density = 19.425357 Si / 1000 Ang^3
#
#
#
# Elastic Constant Matrix: (Units=GPa)
#
#
# Indices 1 2 3 4 5 6 
#
# 1 96.2363 27.3008 53.8448 0.0000 0.0000 0.0000
# 2 27.3008 85.1040 45.5186 0.0000 0.0000 0.0000
# 3 53.8448 45.5186 94.0330 0.0000 0.0000 0.0000
# 4 0.0000 0.0000 0.0000 6.4026 0.0000 0.0000
# 5 0.0000 0.0000 0.0000 0.0000 19.9721 0.0000
# 6 0.0000 0.0000 0.0000 0.0000 0.0000 21.4104
#
#
#
# Elastic Compliance Matrix: (Units=1/GPa)
#
#
# Indices 1 2 3 4 5 6 
#
# 1 0.015295 -0.000300 -0.008613 0.000000 0.000000 0.000000
# 2 -0.000300 0.015861 -0.007506 0.000000 0.000000 0.000000
# 3 -0.008613 -0.007506 0.019200 0.000000 0.000000 0.000000
# 4 0.000000 0.000000 0.000000 0.156187 0.000000 0.000000
# 5 0.000000 0.000000 0.000000 0.000000 0.050070 0.000000
# 6 0.000000 0.000000 0.000000 0.000000 0.000000 0.046706
#
#
# Mechanical properties :
#
#
# Convention : Reuss Voigt Hill
#
# Bulk Modulus (GPa) = 57.08356 58.74462 57.91409
# Shear Modulus (GPa) = 14.61994 19.47094 17.04544
#
# Velocity S-wave (km/s) = 2.74637 3.16942 2.96545
# Velocity P-wave (km/s) = 6.28543 6.61064 6.45008
#
# Compressibility (1/GPa) = 0.01751818
#
# Stress axis : x y z
#
# Youngs Moduli (GPa) = 65.37964 63.04643 52.08272
#
# Poissons Ratio (x) = 0.01890 0.44860
# Poissons Ratio (y) = 0.01960 0.39095
# Poissons Ratio (z) = 0.56313 0.47325
#
# Static dielectric constant tensor:
#      x y z
#    x 3.718460 0.000000 0.000000 
#    y 0.000000 3.477710 0.000000 
#    z 0.000000 0.000000 3.540610 
# 
# 
# High freq. dielectric constant tensor:
#      x y z
#    x 1.763500 0.000000 0.000000 
#    y 0.000000 1.709410 0.000000 
#    z 0.000000 0.000000 1.740590 
# 
# From -- ./inp_files/67401.got.cif
#   From: 2010.03.12/outbox.cif.g09.slc.cpg/sg65_34_cif.got.tgz:67401.got - 2010.04.10 20:52:16.
