data_PCOD8273474
_publ_section_title
;
Structure prediction by ZEFSAII (Michael W. Deem and Ramdas Pophale) SiO2 
 PCOD8273474
Probable space group: C M M M
;
_chemical_formula_sum "Si O2"
_cell_formula_units_Z 104
_cell_length_a 8.942361
_cell_length_b 19.009869
_cell_length_c 30.193638
_cell_angle_alpha 90.000000
_cell_angle_beta 90.000000
_cell_angle_gamma 90.000000
_cell_volume 5132.710461
_symmetry_space_group_name_H-M "C M M M"
_symmetry_group_IT_number 65
_symmetry_cell_setting 'orthorhombic'
loop_
_space_group_symop_operation_xyz
x,y,z
-x,-y,z
x,-y,-z
-x,y,-z
-x,-y,-z
x,y,-z
-x,y,z
x,-y,z
1/2+x,1/2+y,z
1/2-x,1/2-y,z
1/2+x,1/2-y,-z
1/2-x,1/2+y,-z
1/2-x,1/2-y,-z
1/2+x,1/2+y,-z
1/2-x,1/2+y,z
1/2+x,1/2-y,z
loop_
_atom_site_type_symbol
_atom_site_label
_atom_site_fract_x
_atom_site_fract_y
_atom_site_fract_z
Si Si1 0.323639 0.141946 0.550833
Si Si2 0.325014 0.918685 0.300726
Si Si3 0.676576 0.682580 0.635225
Si Si4 0.165737 0.000000 0.551409
Si Si5 0.676604 0.173800 0.783446
Si Si6 0.176654 0.420208 0.864367
Si Si7 0.831533 0.916509 0.951725
O O1 0.282852 0.161287 0.500000
O O2 0.500000 0.147413 0.559045
O O3 0.232532 0.190998 0.584355
O O4 0.266975 0.065258 0.564672
O O5 0.500000 0.910767 0.310553
O O6 0.234312 0.889297 0.342747
O O7 0.276242 0.873853 0.258141
O O8 0.281478 0.000000 0.293077
O O9 0.500000 0.686979 0.637685
O O10 0.750000 0.750000 0.660489
O O11 0.134190 0.000000 0.500000
O O12 0.000000 0.000000 0.574796
O O13 0.500000 0.184128 0.785573
O O14 0.750000 0.250000 0.780389
O O15 0.737051 0.131833 0.826403
O O16 0.237887 0.500000 0.856591
O O17 0.229383 0.388670 0.911623
O O18 0.000000 0.421977 0.863681
O O19 0.000000 0.889888 0.943634
O O20 0.826443 0.000000 0.952319
O O21 0.774311 0.888816 0.000000
#
# Coordination Sequence:
#
# PCOD8273474 Si02
#       7
#    16  16  16   8  16  16  16
#     4  10  21  38  61  88 119 157 199 240 285 339
#     4  10  22  42  67  91 117 150 188 232 286 346
#     4  12  26  43  63  88 122 158 196 239 288 344
#     4   9  17  31  53  83 117 151 189 235 283 327
#     4  10  21  37  58  84 114 149 186 228 281 340
#     4   9  17  30  50  77 108 142 185 234 281 333
#     4   8  14  25  42  68 104 143 182 227 281 336
#
# _framework density 20.262198000000001
#
# number of rings (size 3 to 8) (size 9 to 14) (size 15 to 20)
#    0.000    2.231    0.000    3.462    1.077    7.077 
#    0.000    1.538    0.000    3.231    0.000    0.000 
#    0.000    0.000    0.000    0.000    0.000    0.000 
#
# Total GULP energy -644548.189868 kJ/mol
# GULP energy per Si atom -12395.157497 kJ/mol
# Density = 2.021608 g / cm^3
# Si number density = 20.262198 Si / 1000 Ang^3
#
#
#
# Elastic Constant Matrix: (Units=GPa)
#
#
# Indices 1 2 3 4 5 6 
#
# 1 79.9339 44.7731 48.5029 0.0000 0.0000 0.0000
# 2 44.7731 123.0217 58.6759 0.0000 0.0000 0.0000
# 3 48.5029 58.6759 137.7723 0.0000 0.0000 0.0000
# 4 0.0000 0.0000 0.0000 19.5675 0.0000 0.0000
# 5 0.0000 0.0000 0.0000 0.0000 27.4956 0.0000
# 6 0.0000 0.0000 0.0000 0.0000 0.0000 34.2140
#
#
#
# Elastic Compliance Matrix: (Units=1/GPa)
#
#
# Indices 1 2 3 4 5 6 
#
# 1 0.017567 -0.004321 -0.004344 0.000000 0.000000 0.000000
# 2 -0.004321 0.011264 -0.003276 0.000000 0.000000 0.000000
# 3 -0.004344 -0.003276 0.010183 0.000000 0.000000 0.000000
# 4 0.000000 0.000000 0.000000 0.051105 0.000000 0.000000
# 5 0.000000 0.000000 0.000000 0.000000 0.036369 0.000000
# 6 0.000000 0.000000 0.000000 0.000000 0.000000 0.029228
#
#
# Mechanical properties :
#
#
# Convention : Reuss Voigt Hill
#
# Bulk Modulus (GPa) = 66.08953 71.62575 68.85764
# Shear Modulus (GPa) = 27.07945 28.84048 27.95997
#
# Velocity S-wave (km/s) = 3.65972 3.77684 3.71874
# Velocity P-wave (km/s) = 7.10957 7.37872 7.24540
#
# Compressibility (1/GPa) = 0.01513099
#
# Stress axis : x y z
#
# Youngs Moduli (GPa) = 56.92577 88.77986 98.20522
#
# Poissons Ratio (x) = 0.38366 0.42660
# Poissons Ratio (y) = 0.24600 0.32170
# Poissons Ratio (z) = 0.24728 0.29082
#
# Static dielectric constant tensor:
#      x y z
#    x 3.512400 0.000000 0.000000 
#    y 0.000000 3.499520 0.000000 
#    z 0.000000 0.000000 3.994640 
# 
# 
# High freq. dielectric constant tensor:
#      x y z
#    x 1.780230 0.000000 0.000000 
#    y 0.000000 1.779550 0.000000 
#    z 0.000000 0.000000 1.797450 
# 
# From -- ./inp_files/73306.got.cif
#   From: 2010.03.12/outbox.cif.g09.slc.cpg/sg65_37_cif.got.tgz:73306.got - 2010.04.10 20:52:16.
