data_PCOD8273120
_publ_section_title
;
Structure prediction by ZEFSAII (Michael W. Deem and Ramdas Pophale) SiO2 
 PCOD8273120
Probable space group: C M M M
;
_chemical_formula_sum "Si O2"
_cell_formula_units_Z 104
_cell_length_a 28.850460
_cell_length_b 8.813586
_cell_length_c 20.226215
_cell_angle_alpha 90.000000
_cell_angle_beta 90.000000
_cell_angle_gamma 90.000000
_cell_volume 5143.041255
_symmetry_space_group_name_H-M "C M M M"
_symmetry_group_IT_number 65
_symmetry_cell_setting 'orthorhombic'
loop_
_space_group_symop_operation_xyz
x,y,z
-x,-y,z
x,-y,-z
-x,y,-z
-x,-y,-z
x,y,-z
-x,y,z
x,-y,z
1/2+x,1/2+y,z
1/2-x,1/2-y,z
1/2+x,1/2-y,-z
1/2-x,1/2+y,-z
1/2-x,1/2-y,-z
1/2+x,1/2+y,-z
1/2-x,1/2+y,z
1/2+x,1/2-y,z
loop_
_atom_site_type_symbol
_atom_site_label
_atom_site_fract_x
_atom_site_fract_y
_atom_site_fract_z
Si Si1 0.447540 0.672113 0.753556
Si Si2 0.946170 0.679916 0.000000
Si Si3 0.702328 0.822628 0.680360
Si Si4 0.110623 0.178379 0.118832
Si Si5 0.139094 0.825577 0.426480
Si Si6 0.200911 0.319898 0.169002
Si Si7 0.447328 0.824149 0.618005
O O1 0.500000 0.691179 0.779487
O O2 0.438950 0.500000 0.728900
O O3 0.413353 0.715943 0.811976
O O4 0.436997 0.787012 0.694437
O O5 0.920505 0.744652 0.063585
O O6 0.942292 0.500000 0.000000
O O7 0.000000 0.731922 0.000000
O O8 0.750000 0.750000 0.656026
O O9 0.663094 0.774878 0.629199
O O10 0.690026 0.771248 0.755054
O O11 0.708937 0.000000 0.677299
O O12 0.161910 0.250216 0.121000
O O13 0.114214 0.000000 0.104634
O O14 0.159906 0.797856 0.500000
O O15 0.085328 0.776598 0.428510
O O16 0.143992 0.000000 0.406238
O O17 0.202448 0.500000 0.160419
O O18 0.250000 0.250000 0.147000
O O19 0.500000 0.782363 0.599695
O O20 0.436942 0.000000 0.605736
#
# Coordination Sequence:
#
# PCOD8273120 Si02
#       7
#    16   8  16  16  16  16  16
#     4   9  18  33  55  83 113 146 185 230 281 339
#     4  11  25  43  62  87 122 163 203 241 281 329
#     4  10  21  38  62  89 117 149 185 231 285 340
#     4  11  22  37  60  88 119 156 195 236 284 336
#     4  11  24  39  55  77 107 146 191 236 284 342
#     4  10  21  38  61  90 120 150 189 235 285 339
#     4  10  21  36  55  80 109 142 183 234 290 345
#
# _framework density 20.221499000000001
#
# number of rings (size 3 to 8) (size 9 to 14) (size 15 to 20)
#    0.000    1.769    0.000    3.923    0.000    9.538 
#    0.000    3.462    0.000    0.000    0.000    0.000 
#    0.000    0.000    0.000    0.000    0.000    0.000 
#
# Total GULP energy -644950.668085 kJ/mol
# GULP energy per Si atom -12402.897463 kJ/mol
# Density = 2.017547 g / cm^3
# Si number density = 20.221499 Si / 1000 Ang^3
#
#
#
# Elastic Constant Matrix: (Units=GPa)
#
#
# Indices 1 2 3 4 5 6 
#
# 1 127.3960 43.7267 49.7809 0.0000 0.0000 0.0000
# 2 43.7267 76.8957 32.5173 0.0000 0.0000 0.0000
# 3 49.7809 32.5173 61.3155 0.0000 0.0000 0.0000
# 4 0.0000 0.0000 0.0000 32.1648 0.0000 0.0000
# 5 0.0000 0.0000 0.0000 0.0000 25.4791 0.0000
# 6 0.0000 0.0000 0.0000 0.0000 0.0000 37.8785
#
#
#
# Elastic Compliance Matrix: (Units=1/GPa)
#
#
# Indices 1 2 3 4 5 6 
#
# 1 0.012203 -0.003545 -0.008028 0.000000 0.000000 0.000000
# 2 -0.003545 0.017794 -0.006559 0.000000 0.000000 0.000000
# 3 -0.008028 -0.006559 0.026305 0.000000 0.000000 0.000000
# 4 0.000000 0.000000 0.000000 0.031090 0.000000 0.000000
# 5 0.000000 0.000000 0.000000 0.000000 0.039248 0.000000
# 6 0.000000 0.000000 0.000000 0.000000 0.000000 0.026400
#
#
# Mechanical properties :
#
#
# Convention : Reuss Voigt Hill
#
# Bulk Modulus (GPa) = 49.90081 57.51745 53.70913
# Shear Modulus (GPa) = 25.51262 28.40996 26.96129
#
# Velocity S-wave (km/s) = 3.55584 3.75232 3.65540
# Velocity P-wave (km/s) = 6.44898 6.87595 6.66588
#
# Compressibility (1/GPa) = 0.02003975
#
# Stress axis : x y z
#
# Youngs Moduli (GPa) = 81.94704 56.19937 38.01578
#
# Poissons Ratio (x) = 0.19920 0.30518
# Poissons Ratio (y) = 0.29047 0.24934
# Poissons Ratio (z) = 0.65784 0.36860
#
# Static dielectric constant tensor:
#      x y z
#    x 3.803350 0.000000 0.000000 
#    y 0.000000 3.668550 0.000000 
#    z 0.000000 0.000000 3.697200 
# 
# 
# High freq. dielectric constant tensor:
#      x y z
#    x 1.799670 0.000000 0.000000 
#    y 0.000000 1.798350 0.000000 
#    z 0.000000 0.000000 1.776060 
# 
# From -- ./inp_files/65921.got.cif
#   From: 2010.03.12/outbox.cif.g09.slc.cpg/sg65_33_cif.got.tgz:65921.got - 2010.04.10 20:52:16.
