data_PCOD8273324
_publ_section_title
;
Structure prediction by ZEFSAII (Michael W. Deem and Ramdas Pophale) SiO2 
 PCOD8273324
Probable space group: C M M M
;
_chemical_formula_sum "Si O2"
_cell_formula_units_Z 88
_cell_length_a 30.220882
_cell_length_b 9.009800
_cell_length_c 17.643456
_cell_angle_alpha 90.000000
_cell_angle_beta 90.000000
_cell_angle_gamma 90.000000
_cell_volume 4804.032584
_symmetry_space_group_name_H-M "C M M M"
_symmetry_group_IT_number 65
_symmetry_cell_setting 'orthorhombic'
loop_
_space_group_symop_operation_xyz
x,y,z
-x,-y,z
x,-y,-z
-x,y,-z
-x,-y,-z
x,y,-z
-x,y,z
x,-y,z
1/2+x,1/2+y,z
1/2-x,1/2-y,z
1/2+x,1/2-y,-z
1/2-x,1/2+y,-z
1/2-x,1/2-y,-z
1/2+x,1/2+y,-z
1/2-x,1/2+y,z
1/2+x,1/2-y,z
loop_
_atom_site_type_symbol
_atom_site_label
_atom_site_fract_x
_atom_site_fract_y
_atom_site_fract_z
Si Si1 0.293581 0.171403 0.741849
Si Si2 0.611041 0.175527 0.204946
Si Si3 0.584745 0.675709 0.644032
Si Si4 0.500000 0.163285 0.412675
Si Si5 0.949867 0.171228 0.088815
Si Si6 0.832095 0.671055 0.584192
O O1 0.250000 0.250000 0.774500
O O2 0.336846 0.220166 0.790230
O O3 0.298644 0.212254 0.652260
O O4 0.284863 0.000000 0.752728
O O5 0.586106 0.256619 0.272454
O O6 0.587697 0.228661 0.128012
O O7 0.605899 0.000000 0.213938
O O8 0.583701 0.500000 0.649539
O O9 0.541307 0.736466 0.606384
O O10 0.625344 0.725640 0.591628
O O11 0.500000 0.129743 0.500000
O O12 0.500000 0.000000 0.371707
O O13 0.000000 0.217072 0.113365
O O14 0.941745 0.000000 0.110059
O O15 0.944177 0.197099 0.000000
O O16 0.811023 0.696378 0.500000
O O17 0.847160 0.500000 0.594306
#
# Coordination Sequence:
#
# PCOD8273324 Si02
#       6
#    16  16  16   8  16  16
#     4   9  19  34  52  76 104 137 179 225 274 323
#     4  10  21  37  56  79 109 144 180 218 262 316
#     4  11  22  34  50  73 100 133 176 224 268 314
#     4  11  23  37  51  67  94 135 178 221 271 321
#     4   9  19  36  58  86 119 148 174 211 260 310
#     4   9  18  34  52  70  99 136 172 217 275 332
#
# _framework density 18.317944000000001
#
# number of rings (size 3 to 8) (size 9 to 14) (size 15 to 20)
#    0.000    2.273    0.000    4.636    1.273    8.000 
#    0.000    0.909    0.000    0.545    0.000    0.000 
#    0.000    0.000    0.000    0.000    0.000    0.000 
#
# Total GULP energy -545414.643720 kJ/mol
# GULP energy per Si atom -12395.787357 kJ/mol
# Density = 1.827625 g / cm^3
# Si number density = 18.317944 Si / 1000 Ang^3
#
#
#
# Elastic Constant Matrix: (Units=GPa)
#
#
# Indices 1 2 3 4 5 6 
#
# 1 119.6754 56.4235 47.1023 0.0000 0.0000 0.0000
# 2 56.4235 99.2134 35.3588 0.0000 0.0000 0.0000
# 3 47.1023 35.3588 63.6743 0.0000 0.0000 0.0000
# 4 0.0000 0.0000 0.0000 23.3775 0.0000 0.0000
# 5 0.0000 0.0000 0.0000 0.0000 27.1712 0.0000
# 6 0.0000 0.0000 0.0000 0.0000 0.0000 35.6085
#
#
#
# Elastic Compliance Matrix: (Units=1/GPa)
#
#
# Indices 1 2 3 4 5 6 
#
# 1 0.013639 -0.005187 -0.007209 0.000000 0.000000 0.000000
# 2 -0.005187 0.014539 -0.004236 0.000000 0.000000 0.000000
# 3 -0.007209 -0.004236 0.023390 0.000000 0.000000 0.000000
# 4 0.000000 0.000000 0.000000 0.042776 0.000000 0.000000
# 5 0.000000 0.000000 0.000000 0.000000 0.036804 0.000000
# 6 0.000000 0.000000 0.000000 0.000000 0.000000 0.028083
#
#
# Mechanical properties :
#
#
# Convention : Reuss Voigt Hill
#
# Bulk Modulus (GPa) = 54.63536 62.25915 58.44725
# Shear Modulus (GPa) = 25.17665 26.81001 25.99333
#
# Velocity S-wave (km/s) = 3.71135 3.82984 3.77106
# Velocity P-wave (km/s) = 6.94668 7.32249 7.13706
#
# Compressibility (1/GPa) = 0.01830317
#
# Stress axis : x y z
#
# Youngs Moduli (GPa) = 73.32013 68.77938 42.75362
#
# Poissons Ratio (x) = 0.35679 0.30819
# Poissons Ratio (y) = 0.38034 0.18112
# Poissons Ratio (z) = 0.52853 0.29138
#
# Static dielectric constant tensor:
#      x y z
#    x 3.195360 0.000000 0.000000 
#    y 0.000000 3.389700 0.000000 
#    z 0.000000 0.000000 3.256910 
# 
# 
# High freq. dielectric constant tensor:
#      x y z
#    x 1.705900 0.000000 0.000000 
#    y 0.000000 1.715020 0.000000 
#    z 0.000000 0.000000 1.691920 
# 
# From -- ./inp_files/50406.got.cif
#   From: 2010.03.12/outbox.cif.g09.slc.cpg/sg65_26_cif.got.tgz:50406.got - 2010.04.10 20:52:16.
