data_PCOD8273658
_publ_section_title
;
Structure prediction by ZEFSAII (Michael W. Deem and Ramdas Pophale) SiO2 
 PCOD8273658
Probable space group: C M M M
;
_chemical_formula_sum "Si O2"
_cell_formula_units_Z 112
_cell_length_a 14.422734
_cell_length_b 27.068103
_cell_length_c 14.378136
_cell_angle_alpha 90.000000
_cell_angle_beta 90.000000
_cell_angle_gamma 90.000000
_cell_volume 5613.167493
_symmetry_space_group_name_H-M "C M M M"
_symmetry_group_IT_number 65
_symmetry_cell_setting 'orthorhombic'
loop_
_space_group_symop_operation_xyz
x,y,z
-x,-y,z
x,-y,-z
-x,y,-z
-x,-y,-z
x,y,-z
-x,y,z
x,-y,z
1/2+x,1/2+y,z
1/2-x,1/2-y,z
1/2+x,1/2-y,-z
1/2-x,1/2+y,-z
1/2-x,1/2-y,-z
1/2+x,1/2+y,-z
1/2-x,1/2+y,z
1/2+x,1/2-y,z
loop_
_atom_site_type_symbol
_atom_site_label
_atom_site_fract_x
_atom_site_fract_y
_atom_site_fract_z
Si Si1 0.853540 0.769476 0.291264
Si Si2 0.105839 0.942651 0.729252
Si Si3 0.261383 0.443210 0.106575
Si Si4 0.102107 0.371653 0.109609
Si Si5 0.205055 0.135344 0.610698
Si Si6 0.856011 0.260390 0.100712
Si Si7 0.600275 0.824912 0.393210
O O1 0.750000 0.750000 0.281431
O O2 0.857825 0.821168 0.345117
O O3 0.893908 0.774382 0.184851
O O4 0.910181 0.728509 0.346521
O O5 0.147803 0.932724 0.831693
O O6 0.166427 0.915685 0.650569
O O7 0.000000 0.923652 0.729502
O O8 0.110666 0.000000 0.703435
O O9 0.229792 0.500000 0.113727
O O10 0.177479 0.410348 0.148081
O O11 0.285790 0.428946 0.000000
O O12 0.131014 0.316374 0.137303
O O13 0.000000 0.383074 0.152138
O O14 0.098142 0.377524 0.000000
O O15 0.193569 0.135575 0.500000
O O16 0.313160 0.141992 0.642560
O O17 0.750000 0.250000 0.081900
O O18 0.907355 0.252149 0.000000
O O19 0.620227 0.813649 0.500000
O O20 0.500000 0.852082 0.378635
#
# Coordination Sequence:
#
# PCOD8273658 Si02
#       7
#    16  16  16  16  16  16  16
#     4   9  18  31  51  79 110 148 190 232 274 316
#     4  10  23  42  62  85 111 141 184 236 289 347
#     4   9  19  36  60  88 117 150 186 229 281 335
#     4   9  18  32  53  82 117 157 197 233 274 328
#     4  10  21  38  60  85 115 146 184 238 293 342
#     4   9  18  31  48  73 110 159 201 232 266 312
#     4   9  18  33  54  82 116 152 187 224 274 339
#
# _framework density 19.953082999999999
#
# number of rings (size 3 to 8) (size 9 to 14) (size 15 to 20)
#    0.000    2.714    0.000    0.429    6.000    4.000 
#    0.000    3.571    0.000    1.286    0.000    2.000 
#    0.000    0.000    0.000    0.000    0.000    0.000 
#
# Total GULP energy -693879.982492 kJ/mol
# GULP energy per Si atom -12390.713973 kJ/mol
# Density = 1.990767 g / cm^3
# Si number density = 19.953083 Si / 1000 Ang^3
#
#
#
# Elastic Constant Matrix: (Units=GPa)
#
#
# Indices 1 2 3 4 5 6 
#
# 1 131.1218 54.7352 40.1917 0.0000 0.0000 0.0000
# 2 54.7352 74.4241 47.6655 0.0000 0.0000 0.0000
# 3 40.1917 47.6655 105.5352 0.0000 0.0000 0.0000
# 4 0.0000 0.0000 0.0000 33.1881 0.0000 0.0000
# 5 0.0000 0.0000 0.0000 0.0000 40.6172 0.0000
# 6 0.0000 0.0000 0.0000 0.0000 0.0000 23.5137
#
#
#
# Elastic Compliance Matrix: (Units=1/GPa)
#
#
# Indices 1 2 3 4 5 6 
#
# 1 0.011048 -0.007641 -0.000757 0.000000 0.000000 0.000000
# 2 -0.007641 0.024189 -0.008015 0.000000 0.000000 0.000000
# 3 -0.000757 -0.008015 0.013384 0.000000 0.000000 0.000000
# 4 0.000000 0.000000 0.000000 0.030131 0.000000 0.000000
# 5 0.000000 0.000000 0.000000 0.000000 0.024620 0.000000
# 6 0.000000 0.000000 0.000000 0.000000 0.000000 0.042528
#
#
# Mechanical properties :
#
#
# Convention : Reuss Voigt Hill
#
# Bulk Modulus (GPa) = 63.30742 66.25176 64.77959
# Shear Modulus (GPa) = 27.17523 30.69639 28.93581
#
# Velocity S-wave (km/s) = 3.69447 3.92654 3.81227
# Velocity P-wave (km/s) = 7.07077 7.33708 7.20516
#
# Compressibility (1/GPa) = 0.01579594
#
# Stress axis : x y z
#
# Youngs Moduli (GPa) = 90.51518 41.34056 74.71721
#
# Poissons Ratio (x) = 0.31587 0.05652
# Poissons Ratio (y) = 0.69159 0.59889
# Poissons Ratio (z) = 0.06848 0.33136
#
# Static dielectric constant tensor:
#      x y z
#    x 3.944990 0.000000 0.000000 
#    y 0.000000 3.481830 0.000000 
#    z 0.000000 0.000000 3.849140 
# 
# 
# High freq. dielectric constant tensor:
#      x y z
#    x 1.777550 0.000000 0.000000 
#    y 0.000000 1.747910 0.000000 
#    z 0.000000 0.000000 1.786860 
# 
# From -- ./inp_files/40812.got.cif
#   From: 2010.03.12/outbox.cif.g09.slc.cpg/sg65_21_cif.got.tgz:40812.got - 2010.04.10 20:52:16.
