data_PCOD8273985
_publ_section_title
;
Structure prediction by ZEFSAII (Michael W. Deem and Ramdas Pophale) SiO2 
 PCOD8273985
Probable space group: C M M M
;
_chemical_formula_sum "Si O2"
_cell_formula_units_Z 64
_cell_length_a 28.425916
_cell_length_b 12.709374
_cell_length_c 7.628898
_cell_angle_alpha 90.000000
_cell_angle_beta 90.000000
_cell_angle_gamma 90.000000
_cell_volume 2756.134685
_symmetry_space_group_name_H-M "C M M M"
_symmetry_group_IT_number 65
_symmetry_cell_setting 'orthorhombic'
loop_
_space_group_symop_operation_xyz
x,y,z
-x,-y,z
x,-y,-z
-x,y,-z
-x,-y,-z
x,y,-z
-x,y,z
x,-y,z
1/2+x,1/2+y,z
1/2-x,1/2-y,z
1/2+x,1/2-y,-z
1/2-x,1/2+y,-z
1/2-x,1/2-y,-z
1/2+x,1/2+y,-z
1/2-x,1/2+y,z
1/2+x,1/2-y,z
loop_
_atom_site_type_symbol
_atom_site_label
_atom_site_fract_x
_atom_site_fract_y
_atom_site_fract_z
Si Si1 0.946154 0.814566 0.000000
Si Si2 0.879360 0.122745 0.693728
Si Si3 0.722274 0.384231 0.706629
Si Si4 0.676481 0.125384 0.697267
Si Si5 0.606414 0.878591 0.000000
O O1 0.921269 0.858939 0.172256
O O2 0.941846 0.687728 0.000000
O O3 0.000000 0.850491 0.000000
O O4 0.895238 0.161416 0.500000
O O5 0.828031 0.176305 0.749574
O O6 0.867636 0.000000 0.686693
O O7 0.724600 0.398837 0.500000
O O8 0.721205 0.500000 0.797061
O O9 0.772125 0.326706 0.757934
O O10 0.663012 0.161942 0.500000
O O11 0.682371 0.000000 0.704603
O O12 0.634646 0.158094 0.827470
O O13 0.592960 0.000000 0.000000
#
# Coordination Sequence:
#
# PCOD8273985 Si02
#       5
#     8  16  16  16   8
#     4  12  27  42  57  80 108 141 191 252 297 327
#     4   9  19  38  63  89 119 152 180 212 266 338
#     4   7  11  24  50  83 116 148 176 204 252 323
#     4   8  14  28  53  83 113 144 179 220 266 323
#     4  10  22  39  58  79 105 146 195 237 285 335
#
# _framework density 23.220925000000001
#
# number of rings (size 3 to 8) (size 9 to 14) (size 15 to 20)
#    0.000    3.250    0.000    3.375    0.000    3.750 
#    0.000    7.500    0.000    4.500    0.000    5.250 
#    0.000    0.000    0.000    0.000    0.000    0.000 
#
# Total GULP energy -396435.077394 kJ/mol
# GULP energy per Si atom -12388.596169 kJ/mol
# Density = 2.316807 g / cm^3
# Si number density = 23.220925 Si / 1000 Ang^3
#
#
#
# Elastic Constant Matrix: (Units=GPa)
#
#
# Indices 1 2 3 4 5 6 
#
# 1 164.5860 13.1768 59.5873 0.0000 0.0000 0.0000
# 2 13.1768 22.5501 4.9818 0.0000 0.0000 0.0000
# 3 59.5873 4.9818 118.0298 0.0000 0.0000 0.0000
# 4 0.0000 0.0000 0.0000 2235.3235 0.0000 0.0000
# 5 0.0000 0.0000 0.0000 0.0000 17.9993 0.0000
# 6 0.0000 0.0000 0.0000 0.0000 0.0000 28.4095
#
#
#
# Elastic Compliance Matrix: (Units=1/GPa)
#
#
# Indices 1 2 3 4 5 6 
#
# 1 0.007727 -0.003688 -0.003745 0.000000 0.000000 0.000000
# 2 -0.003688 0.046523 -0.000102 0.000000 0.000000 0.000000
# 3 -0.003745 -0.000102 0.010368 0.000000 0.000000 0.000000
# 4 0.000000 0.000000 0.000000 0.000447 0.000000 0.000000
# 5 0.000000 0.000000 0.000000 0.000000 0.055558 0.000000
# 6 0.000000 0.000000 0.000000 0.000000 0.000000 0.035200
#
#
# Mechanical properties :
#
#
# Convention : Reuss Voigt Hill
#
# Bulk Modulus (GPa) = 20.18257 51.18418 35.68338
# Shear Modulus (GPa) = 26.67971 471.50777 249.09374
#
# Velocity S-wave (km/s) = 3.39330 14.26512 10.36842
# Velocity P-wave (km/s) = 4.90541 17.12937 12.59917
#
# Compressibility (1/GPa) = 0.04954769
#
# Stress axis : x y z
#
# Youngs Moduli (GPa) = 129.41514 21.49472 96.45454
#
# Poissons Ratio (x) = 0.07927 0.36126
# Poissons Ratio (y) = 0.47725 0.00983
# Poissons Ratio (z) = 0.48471 0.00219
#
# Static dielectric constant tensor:
#      x y z
#    x 3.877730 0.000000 0.000000 
#    y 0.000000 4.410530 0.000000 
#    z 0.000000 0.000000 4.038050 
# 
# 
# High freq. dielectric constant tensor:
#      x y z
#    x 1.880310 0.000000 0.000000 
#    y 0.000000 1.957670 0.000000 
#    z 0.000000 0.000000 1.893640 
# 
# From -- ./inp_files/15626.got.cif
#   From: 2010.03.12/outbox.cif.g09.slc.cpg/sg65_8_cif.got.tgz:15626.got - 2010.04.10 20:52:16.
