data_PCOD8273035
_publ_section_title
;
Structure prediction by ZEFSAII (Michael W. Deem and Ramdas Pophale) SiO2 
 PCOD8273035
Probable space group: C M M M
;
_chemical_formula_sum "Si O2"
_cell_formula_units_Z 72
_cell_length_a 17.827562
_cell_length_b 9.215159
_cell_length_c 23.211590
_cell_angle_alpha 90.000000
_cell_angle_beta 90.000000
_cell_angle_gamma 90.000000
_cell_volume 3813.288637
_symmetry_space_group_name_H-M "C M M M"
_symmetry_group_IT_number 65
_symmetry_cell_setting 'orthorhombic'
loop_
_space_group_symop_operation_xyz
x,y,z
-x,-y,z
x,-y,-z
-x,y,-z
-x,-y,-z
x,y,-z
-x,y,z
x,-y,z
1/2+x,1/2+y,z
1/2-x,1/2-y,z
1/2+x,1/2-y,-z
1/2-x,1/2+y,-z
1/2-x,1/2-y,-z
1/2+x,1/2+y,-z
1/2-x,1/2+y,z
1/2+x,1/2-y,z
loop_
_atom_site_type_symbol
_atom_site_label
_atom_site_fract_x
_atom_site_fract_y
_atom_site_fract_z
Si Si1 0.326598 0.831536 0.784594
Si Si2 0.585677 0.828731 0.673156
Si Si3 0.329536 0.327026 0.000000
Si Si4 0.412067 0.834225 0.099432
Si Si5 0.589115 0.663771 0.563035
O O1 0.250000 0.750000 0.797293
O O2 0.365515 0.771374 0.726690
O O3 0.383424 0.802374 0.836590
O O4 0.307845 0.000000 0.778204
O O5 0.500000 0.776830 0.682380
O O6 0.620855 0.763466 0.614397
O O7 0.589483 0.000000 0.668212
O O8 0.250000 0.250000 0.000000
O O9 0.374007 0.278519 0.943495
O O10 0.319773 0.500000 0.000000
O O11 0.500000 0.805995 0.098333
O O12 0.393397 0.000000 0.080939
O O13 0.618403 0.717152 0.500000
O O14 0.500000 0.671787 0.562963
O O15 0.616406 0.500000 0.574125
#
# Coordination Sequence:
#
# PCOD8273035 Si02
#       5
#    16  16   8  16  16
#     4  10  21  36  54  77 105 138 175 215 260 312
#     4   9  17  30  49  73 100 130 167 211 257 306
#     4  12  25  40  59  85 117 149 183 222 263 310
#     4  10  21  39  62  85 111 144 180 219 267 319
#     4   8  14  25  42  67  99 131 163 203 253 307
#
# _framework density 18.881339000000001
#
# number of rings (size 3 to 8) (size 9 to 14) (size 15 to 20)
#    0.000    2.444    0.000    3.333    0.000    8.444 
#    0.000    2.222    0.000    4.667    0.000    0.000 
#    0.000    0.000    0.000    0.000    0.000    0.000 
#
# Total GULP energy -446360.771355 kJ/mol
# GULP energy per Si atom -12398.910315 kJ/mol
# Density = 1.883836 g / cm^3
# Si number density = 18.881339 Si / 1000 Ang^3
#
#
#
# Elastic Constant Matrix: (Units=GPa)
#
#
# Indices 1 2 3 4 5 6 
#
# 1 87.4902 44.2505 48.4750 0.0000 0.0000 0.0000
# 2 44.2505 74.0439 57.9995 0.0000 0.0000 0.0000
# 3 48.4750 57.9995 145.0791 0.0000 0.0000 0.0000
# 4 0.0000 0.0000 0.0000 82.5301 0.0000 0.0000
# 5 0.0000 0.0000 0.0000 0.0000 -5.2472 0.0000
# 6 0.0000 0.0000 0.0000 0.0000 0.0000 23.6518
#
#
#
# Elastic Compliance Matrix: (Units=1/GPa)
#
#
# Indices 1 2 3 4 5 6 
#
# 1 0.016912 -0.008271 -0.002344 0.000000 0.000000 0.000000
# 2 -0.008271 0.023708 -0.006714 0.000000 0.000000 0.000000
# 3 -0.002344 -0.006714 0.010360 0.000000 0.000000 0.000000
# 4 0.000000 0.000000 0.000000 0.012117 0.000000 0.000000
# 5 0.000000 0.000000 0.000000 0.000000 -0.190580 0.000000
# 6 0.000000 0.000000 0.000000 0.000000 0.000000 0.042280
#
#
# Mechanical properties :
#
#
# Convention : Reuss Voigt Hill
#
# Bulk Modulus (GPa) = 61.26974 67.56259 64.41616
# Shear Modulus (GPa) = -110.85566 30.57949 -40.13809
#
# Velocity S-wave (km/s) = -7.67067 4.02874 -4.61565
# Velocity P-wave (km/s) = 6.77731 7.58297 2.40515
#
# Compressibility (1/GPa) = 0.01632127
#
# Stress axis : x y z
#
# Youngs Moduli (GPa) = 59.13025 42.18037 96.52177
#
# Poissons Ratio (x) = 0.34886 0.22628
# Poissons Ratio (y) = 0.48904 0.64809
# Poissons Ratio (z) = 0.13862 0.28322
#
# Static dielectric constant tensor:
#      x y z
#    x 3.284880 0.000000 0.000000 
#    y 0.000000 3.407580 0.000000 
#    z 0.000000 0.000000 4.122950 
# 
# 
# High freq. dielectric constant tensor:
#      x y z
#    x 1.711550 0.000000 0.000000 
#    y 0.000000 1.720800 0.000000 
#    z 0.000000 0.000000 1.754450 
# 
# From -- ./inp_files/67120.got.cif
#   From: 2010.03.12/outbox.cif.g09.slc.cpg/sg65_34_cif.got.tgz:67120.got - 2010.04.10 20:52:16.
