data_PCOD8273193
_publ_section_title
;
Structure prediction by ZEFSAII (Michael W. Deem and Ramdas Pophale) SiO2 
 PCOD8273193
Probable space group: C M M M
;
_chemical_formula_sum "Si O2"
_cell_formula_units_Z 72
_cell_length_a 8.540970
_cell_length_b 32.318746
_cell_length_c 13.144975
_cell_angle_alpha 90.000000
_cell_angle_beta 90.000000
_cell_angle_gamma 90.000000
_cell_volume 3628.452668
_symmetry_space_group_name_H-M "C M M M"
_symmetry_group_IT_number 65
_symmetry_cell_setting 'orthorhombic'
loop_
_space_group_symop_operation_xyz
x,y,z
-x,-y,z
x,-y,-z
-x,y,-z
-x,-y,-z
x,y,-z
-x,y,z
x,-y,z
1/2+x,1/2+y,z
1/2-x,1/2-y,z
1/2+x,1/2-y,-z
1/2-x,1/2+y,-z
1/2-x,1/2-y,-z
1/2+x,1/2+y,-z
1/2-x,1/2+y,z
1/2+x,1/2-y,z
loop_
_atom_site_type_symbol
_atom_site_label
_atom_site_fract_x
_atom_site_fract_y
_atom_site_fract_z
Si Si1 0.816117 0.000000 0.111734
Si Si2 0.318687 0.295261 0.113333
Si Si3 0.316625 0.934150 0.261096
Si Si4 0.316193 0.842006 0.301459
Si Si5 0.684676 0.703473 0.500000
Si Si6 0.329399 0.500000 0.614957
O O1 0.762587 0.042208 0.166772
O O2 0.000000 0.000000 0.102783
O O3 0.739634 0.000000 0.000000
O O4 0.500000 0.294424 0.146086
O O5 0.250000 0.250000 0.110053
O O6 0.218977 0.319214 0.196453
O O7 0.299806 0.315187 0.000000
O O8 0.500000 0.933143 0.241093
O O9 0.251436 0.888253 0.282025
O O10 0.273063 0.959724 0.361324
O O11 0.500000 0.841886 0.323507
O O12 0.235644 0.820880 0.398600
O O13 0.500000 0.706908 0.500000
O O14 0.750000 0.750000 0.500000
O O15 0.500000 0.500000 0.673648
O O16 0.371802 0.500000 0.500000
#
# Coordination Sequence:
#
# PCOD8273193 Si02
#       6
#     8  16  16  16   8   8
#     4  10  21  38  61  87 120 160 199 245 298 355
#     4  10  21  38  61  88 118 155 198 245 300 360
#     4  10  22  38  58  85 115 152 194 239 288 344
#     4  11  24  41  61  89 124 158 202 253 303 360
#     4  12  26  44  66  89 120 163 206 252 309 368
#     4  10  21  36  57  83 112 146 185 231 284 337
#
# _framework density 19.843171000000002
#
# number of rings (size 3 to 8) (size 9 to 14) (size 15 to 20)
#    0.000    1.556    0.000    5.667    1.556    7.556 
#    0.000    4.444    0.000    0.000    0.000    0.000 
#    0.000    0.000    0.000    0.000    0.000    0.000 
#
# Total GULP energy -446221.845903 kJ/mol
# GULP energy per Si atom -12395.051275 kJ/mol
# Density = 1.979801 g / cm^3
# Si number density = 19.843171 Si / 1000 Ang^3
#
#
#
# Elastic Constant Matrix: (Units=GPa)
#
#
# Indices 1 2 3 4 5 6 
#
# 1 84.1073 40.9546 34.4176 0.0000 0.0000 0.0000
# 2 40.9546 152.9063 76.2280 0.0000 0.0000 0.0000
# 3 34.4176 76.2280 146.2442 0.0000 0.0000 0.0000
# 4 0.0000 0.0000 0.0000 8.0789 0.0000 0.0000
# 5 0.0000 0.0000 0.0000 0.0000 26.4648 0.0000
# 6 0.0000 0.0000 0.0000 0.0000 0.0000 26.7103
#
#
#
# Elastic Compliance Matrix: (Units=1/GPa)
#
#
# Indices 1 2 3 4 5 6 
#
# 1 0.014020 -0.002851 -0.001813 0.000000 0.000000 0.000000
# 2 -0.002851 0.009416 -0.004237 0.000000 0.000000 0.000000
# 3 -0.001813 -0.004237 0.009473 0.000000 0.000000 0.000000
# 4 0.000000 0.000000 0.000000 0.123779 0.000000 0.000000
# 5 0.000000 0.000000 0.000000 0.000000 0.037786 0.000000
# 6 0.000000 0.000000 0.000000 0.000000 0.000000 0.037439
#
#
# Mechanical properties :
#
#
# Convention : Reuss Voigt Hill
#
# Bulk Modulus (GPa) = 66.19862 76.27311 71.23587
# Shear Modulus (GPa) = 19.62708 27.69466 23.66087
#
# Velocity S-wave (km/s) = 3.14842 3.73993 3.45685
# Velocity P-wave (km/s) = 6.83009 7.56114 7.20489
#
# Compressibility (1/GPa) = 0.01510605
#
# Stress axis : x y z
#
# Youngs Moduli (GPa) = 71.32712 106.20455 105.56232
#
# Poissons Ratio (x) = 0.30280 0.19143
# Poissons Ratio (y) = 0.20336 0.44726
# Poissons Ratio (z) = 0.12934 0.44998
#
# Static dielectric constant tensor:
#      x y z
#    x 3.703530 0.000000 0.000000 
#    y 0.000000 3.836630 0.000000 
#    z 0.000000 0.000000 3.862060 
# 
# 
# High freq. dielectric constant tensor:
#      x y z
#    x 1.788980 0.000000 0.000000 
#    y 0.000000 1.775170 0.000000 
#    z 0.000000 0.000000 1.786000 
# 
# From -- ./inp_files/36652.got.cif
#   From: 2010.03.12/outbox.cif.g09.slc.cpg/sg65_19_cif.got.tgz:36652.got - 2010.04.10 20:52:16.
