data_PCOD8273301
_publ_section_title
;
Structure prediction by ZEFSAII (Michael W. Deem and Ramdas Pophale) SiO2 
 PCOD8273301
Probable space group: C M M M
;
_chemical_formula_sum "Si O2"
_cell_formula_units_Z 120
_cell_length_a 8.967190
_cell_length_b 28.109248
_cell_length_c 26.817150
_cell_angle_alpha 90.000000
_cell_angle_beta 90.000000
_cell_angle_gamma 90.000000
_cell_volume 6759.556777
_symmetry_space_group_name_H-M "C M M M"
_symmetry_group_IT_number 65
_symmetry_cell_setting 'orthorhombic'
loop_
_space_group_symop_operation_xyz
x,y,z
-x,-y,z
x,-y,-z
-x,y,-z
-x,-y,-z
x,y,-z
-x,y,z
x,-y,z
1/2+x,1/2+y,z
1/2-x,1/2-y,z
1/2+x,1/2-y,-z
1/2-x,1/2+y,-z
1/2-x,1/2-y,-z
1/2+x,1/2+y,-z
1/2-x,1/2+y,z
1/2+x,1/2-y,z
loop_
_atom_site_type_symbol
_atom_site_label
_atom_site_fract_x
_atom_site_fract_y
_atom_site_fract_z
Si Si1 0.175638 0.897755 0.093855
Si Si2 0.662894 0.444533 0.445349
Si Si3 0.168828 0.443806 0.000000
Si Si4 0.174505 0.945597 0.290375
Si Si5 0.327770 0.885970 0.626578
Si Si6 0.673803 0.296582 0.056407
Si Si7 0.323721 0.200225 0.443130
Si Si8 0.171395 0.445450 0.814860
O O1 0.248866 0.926667 0.049281
O O2 0.215919 0.842180 0.089166
O O3 0.237940 0.913685 0.146691
O O4 0.000000 0.906764 0.091182
O O5 0.670301 0.421297 0.500000
O O6 0.500000 0.431821 0.420933
O O7 0.679269 0.500000 0.449948
O O8 0.803298 0.426560 0.414377
O O9 0.170212 0.500000 0.000000
O O10 0.000000 0.424232 0.000000
O O11 0.231344 0.903185 0.326214
O O12 0.259820 0.937690 0.239146
O O13 0.000000 0.938592 0.281286
O O14 0.205683 0.000000 0.310469
O O15 0.500000 0.882731 0.642105
O O16 0.270937 0.837529 0.599333
O O17 0.500000 0.287155 0.056322
O O18 0.750000 0.250000 0.080130
O O19 0.731959 0.305350 0.000000
O O20 0.276572 0.185406 0.500000
O O21 0.500000 0.205787 0.440485
O O22 0.250000 0.250000 0.428322
O O23 0.185388 0.500000 0.831818
O O24 0.000000 0.429092 0.813898
#
# Coordination Sequence:
#
# PCOD8273301 Si02
#       8
#    16  16   8  16  16  16  16  16
#     4  11  21  35  54  78 108 141 178 218 265 320
#     4   9  18  31  45  65  97 135 171 204 241 293
#     4  11  23  35  48  73 108 143 180 219 260 311
#     4  10  21  37  56  78 104 137 178 218 258 309
#     4  11  21  32  50  76 104 132 166 212 263 309
#     4   9  18  33  51  75 105 137 175 215 255 304
#     4   9  19  35  53  75 104 137 174 215 260 314
#     4  10  21  37  56  79 107 139 177 219 263 313
#
# _framework density 17.752642999999999
#
# number of rings (size 3 to 8) (size 9 to 14) (size 15 to 20)
#    0.000    2.067    0.667    3.400    0.000    8.533 
#    0.000    2.000    0.000    0.800    0.000    5.600 
#    0.000    0.000    0.000    0.000    0.000    0.000 
#
# Total GULP energy -743692.719679 kJ/mol
# GULP energy per Si atom -12394.878661 kJ/mol
# Density = 1.771224 g / cm^3
# Si number density = 17.752643 Si / 1000 Ang^3
#
#
#
# Elastic Constant Matrix: (Units=GPa)
#
#
# Indices 1 2 3 4 5 6 
#
# 1 78.8730 53.5924 38.1647 0.0000 0.0000 0.0000
# 2 53.5924 101.6180 60.5348 0.0000 0.0000 0.0000
# 3 38.1647 60.5348 81.1979 0.0000 0.0000 0.0000
# 4 0.0000 0.0000 0.0000 10.1565 0.0000 0.0000
# 5 0.0000 0.0000 0.0000 0.0000 23.9813 0.0000
# 6 0.0000 0.0000 0.0000 0.0000 0.0000 30.5051
#
#
#
# Elastic Compliance Matrix: (Units=1/GPa)
#
#
# Indices 1 2 3 4 5 6 
#
# 1 0.020102 -0.008946 -0.002779 0.000000 0.000000 0.000000
# 2 -0.008946 0.021684 -0.011961 0.000000 0.000000 0.000000
# 3 -0.002779 -0.011961 0.022539 0.000000 0.000000 0.000000
# 4 0.000000 0.000000 0.000000 0.098459 0.000000 0.000000
# 5 0.000000 0.000000 0.000000 0.000000 0.041699 0.000000
# 6 0.000000 0.000000 0.000000 0.000000 0.000000 0.032781
#
#
# Mechanical properties :
#
#
# Convention : Reuss Voigt Hill
#
# Bulk Modulus (GPa) = 58.98696 62.91920 60.95308
# Shear Modulus (GPa) = 17.22423 20.22171 18.72297
#
# Velocity S-wave (km/s) = 3.11824 3.37869 3.25107
# Velocity P-wave (km/s) = 6.80175 7.12319 6.96433
#
# Compressibility (1/GPa) = 0.01695290
#
# Stress axis : x y z
#
# Youngs Moduli (GPa) = 49.74641 46.11616 44.36755
#
# Poissons Ratio (x) = 0.41257 0.12328
# Poissons Ratio (y) = 0.44505 0.53069
# Poissons Ratio (z) = 0.13823 0.55161
#
# Static dielectric constant tensor:
#      x y z
#    x 3.437080 0.000000 0.000000 
#    y 0.000000 3.325630 0.000000 
#    z 0.000000 0.000000 3.908190 
# 
# 
# High freq. dielectric constant tensor:
#      x y z
#    x 1.695880 0.000000 0.000000 
#    y 0.000000 1.677610 0.000000 
#    z 0.000000 0.000000 1.675000 
# 
# From -- ./inp_files/73885.got.cif
#   From: 2010.03.12/outbox.cif.g09.slc.cpg/sg65_37_cif.got.tgz:73885.got - 2010.04.10 20:52:16.
