data_PCOD8273547
_publ_section_title
;
Structure prediction by ZEFSAII (Michael W. Deem and Ramdas Pophale) SiO2 
 PCOD8273547
Probable space group: C M M M
;
_chemical_formula_sum "Si O2"
_cell_formula_units_Z 120
_cell_length_a 14.695713
_cell_length_b 19.607806
_cell_length_c 20.486689
_cell_angle_alpha 90.000000
_cell_angle_beta 90.000000
_cell_angle_gamma 90.000000
_cell_volume 5903.253562
_symmetry_space_group_name_H-M "C M M M"
_symmetry_group_IT_number 65
_symmetry_cell_setting 'orthorhombic'
loop_
_space_group_symop_operation_xyz
x,y,z
-x,-y,z
x,-y,-z
-x,y,-z
-x,-y,-z
x,y,-z
-x,y,z
x,-y,z
1/2+x,1/2+y,z
1/2-x,1/2-y,z
1/2+x,1/2-y,-z
1/2-x,1/2+y,-z
1/2-x,1/2-y,-z
1/2+x,1/2+y,-z
1/2-x,1/2+y,z
1/2+x,1/2-y,z
loop_
_atom_site_type_symbol
_atom_site_label
_atom_site_fract_x
_atom_site_fract_y
_atom_site_fract_z
Si Si1 0.606794 0.000000 0.573375
Si Si2 0.397969 0.227249 0.664387
Si Si3 0.399741 0.643717 0.425834
Si Si4 0.394323 0.576818 0.880536
Si Si5 0.350234 0.720584 0.071631
Si Si6 0.237278 0.424211 0.785217
Si Si7 0.725261 0.891812 0.636578
Si Si8 0.599785 0.807317 0.808759
O O1 0.641917 0.065699 0.610031
O O2 0.500000 0.000000 0.577130
O O3 0.643032 0.000000 0.500000
O O4 0.500000 0.196455 0.653088
O O5 0.391574 0.298741 0.628725
O O6 0.315783 0.183939 0.633866
O O7 0.379185 0.234762 0.742227
O O8 0.388659 0.671494 0.500000
O O9 0.500000 0.608321 0.419467
O O10 0.314788 0.595042 0.408441
O O11 0.500000 0.588964 0.864726
O O12 0.380406 0.500000 0.911384
O O13 0.357068 0.637754 0.926551
O O14 0.338535 0.582573 0.813543
O O15 0.250000 0.750000 0.079314
O O16 0.404608 0.754695 0.130943
O O17 0.388534 0.741977 0.000000
O O18 0.197520 0.500000 0.799399
O O19 0.249259 0.413765 0.708999
O O20 0.171322 0.368520 0.818591
O O21 0.500000 0.841185 0.803539
#
# Coordination Sequence:
#
# PCOD8273547 Si02
#       8
#     8  16  16  16  16  16  16  16
#     4  11  24  40  59  85 115 149 195 250 302 360
#     4   9  20  36  57  87 117 151 196 247 302 360
#     4  10  22  38  56  82 116 154 200 251 305 372
#     4  10  22  40  64  92 126 164 208 258 311 370
#     4  11  23  40  64  94 129 168 208 257 313 371
#     4  10  21  39  59  88 121 157 202 255 308 372
#     4  11  21  37  59  83 114 156 197 243 307 366
#     4  10  21  37  61  91 121 159 203 252 309 370
#
# _framework density 20.327773000000001
#
# number of rings (size 3 to 8) (size 9 to 14) (size 15 to 20)
#    0.000    1.800    2.000    1.600    1.867    4.267 
#    0.000    2.333    0.000    1.600    0.000    0.933 
#    0.000    0.000    0.000    0.000    0.000    0.000 
#
# Total GULP energy -743423.614557 kJ/mol
# GULP energy per Si atom -12390.393576 kJ/mol
# Density = 2.028151 g / cm^3
# Si number density = 20.327773 Si / 1000 Ang^3
#
#
#
# Elastic Constant Matrix: (Units=GPa)
#
#
# Indices 1 2 3 4 5 6 
#
# 1 101.9665 35.0330 34.7559 0.0000 0.0000 0.0000
# 2 35.0330 94.3550 34.3603 0.0000 0.0000 0.0000
# 3 34.7559 34.3603 104.8946 0.0000 0.0000 0.0000
# 4 0.0000 0.0000 0.0000 18.7730 0.0000 0.0000
# 5 0.0000 0.0000 0.0000 0.0000 13.1595 0.0000
# 6 0.0000 0.0000 0.0000 0.0000 0.0000 32.0823
#
#
#
# Elastic Compliance Matrix: (Units=1/GPa)
#
#
# Indices 1 2 3 4 5 6 
#
# 1 0.011944 -0.003399 -0.002844 0.000000 0.000000 0.000000
# 2 -0.003399 0.013001 -0.003132 0.000000 0.000000 0.000000
# 3 -0.002844 -0.003132 0.011502 0.000000 0.000000 0.000000
# 4 0.000000 0.000000 0.000000 0.053268 0.000000 0.000000
# 5 0.000000 0.000000 0.000000 0.000000 0.075991 0.000000
# 6 0.000000 0.000000 0.000000 0.000000 0.000000 0.031170
#
#
# Mechanical properties :
#
#
# Convention : Reuss Voigt Hill
#
# Bulk Modulus (GPa) = 56.51074 56.61271 56.56172
# Shear Modulus (GPa) = 22.57071 25.94075 24.25573
#
# Velocity S-wave (km/s) = 3.33579 3.57616 3.45806
# Velocity P-wave (km/s) = 6.53428 6.70539 6.62039
#
# Compressibility (1/GPa) = 0.01769575
#
# Stress axis : x y z
#
# Youngs Moduli (GPa) = 83.72079 76.91684 86.94210
#
# Poissons Ratio (x) = 0.26145 0.24729
# Poissons Ratio (y) = 0.28457 0.27235
# Poissons Ratio (z) = 0.23812 0.24094
#
# Static dielectric constant tensor:
#      x y z
#    x 4.007340 0.000000 0.000000 
#    y 0.000000 3.655400 0.000000 
#    z 0.000000 0.000000 3.768920 
# 
# 
# High freq. dielectric constant tensor:
#      x y z
#    x 1.810800 0.000000 0.000000 
#    y 0.000000 1.778120 0.000000 
#    z 0.000000 0.000000 1.792810 
# 
# From -- ./inp_files/63066.got.cif
#   From: 2010.03.12/outbox.cif.g09.slc.cpg/sg65_32_cif.got.tgz:63066.got - 2010.04.10 20:52:16.
