data_PCOD8273338
_publ_section_title
;
Structure prediction by ZEFSAII (Michael W. Deem and Ramdas Pophale) SiO2 
 PCOD8273338
Probable space group: C M M M
;
_chemical_formula_sum "Si O2"
_cell_formula_units_Z 64
_cell_length_a 35.011908
_cell_length_b 11.048951
_cell_length_c 9.014715
_cell_angle_alpha 90.000000
_cell_angle_beta 90.000000
_cell_angle_gamma 90.000000
_cell_volume 3487.296125
_symmetry_space_group_name_H-M "C M M M"
_symmetry_group_IT_number 65
_symmetry_cell_setting 'orthorhombic'
loop_
_space_group_symop_operation_xyz
x,y,z
-x,-y,z
x,-y,-z
-x,y,-z
-x,-y,-z
x,y,-z
-x,y,z
x,-y,z
1/2+x,1/2+y,z
1/2-x,1/2-y,z
1/2+x,1/2-y,-z
1/2-x,1/2+y,-z
1/2-x,1/2-y,-z
1/2+x,1/2+y,-z
1/2-x,1/2+y,z
1/2+x,1/2-y,z
loop_
_atom_site_type_symbol
_atom_site_label
_atom_site_fract_x
_atom_site_fract_y
_atom_site_fract_z
Si Si1 0.777673 0.638269 0.172264
Si Si2 0.500000 0.859896 0.663101
Si Si3 0.457692 0.500000 0.825362
Si Si4 0.571688 0.246266 0.824717
Si Si5 0.643087 0.860373 0.331720
O O1 0.761607 0.500000 0.204616
O O2 0.750000 0.750000 0.216578
O O3 0.815072 0.661663 0.267953
O O4 0.788416 0.647975 0.000000
O O5 0.500000 0.796207 0.500000
O O6 0.462147 0.830090 0.753910
O O7 0.500000 0.000000 0.635778
O O8 0.500000 0.500000 0.752019
O O9 0.434008 0.615784 0.774359
O O10 0.463143 0.500000 0.000000
O O11 0.613042 0.210846 0.767008
O O12 0.570039 0.227226 0.000000
O O13 0.641974 0.812268 0.500000
O O14 0.631682 0.000000 0.325016
#
# Coordination Sequence:
#
# PCOD8273338 Si02
#       5
#    16   8   8  16  16
#     4   9  18  35  59  85 112 144 184 226 270 325
#     4  11  23  36  51  76 110 141 172 219 274 323
#     4   9  18  36  56  76 104 138 178 226 276 318
#     4  11  21  36  58  79 103 139 184 226 267 320
#     4  10  21  37  56  80 113 147 178 220 273 322
#
# _framework density 18.352328
#
# number of rings (size 3 to 8) (size 9 to 14) (size 15 to 20)
#    0.000    2.000    1.250    2.625    0.000    6.000 
#    2.250    3.125    0.000    0.000    0.000    0.000 
#    0.000    0.000    0.000    0.000    0.000    0.000 
#
# Total GULP energy -396677.994288 kJ/mol
# GULP energy per Si atom -12396.187322 kJ/mol
# Density = 1.831056 g / cm^3
# Si number density = 18.352328 Si / 1000 Ang^3
#
#
#
# Elastic Constant Matrix: (Units=GPa)
#
#
# Indices 1 2 3 4 5 6 
#
# 1 103.9834 67.8793 54.4858 0.0000 0.0000 0.0000
# 2 67.8793 117.8601 48.5269 0.0000 0.0000 0.0000
# 3 54.4858 48.5269 105.1361 0.0000 0.0000 0.0000
# 4 0.0000 0.0000 0.0000 8.5556 0.0000 0.0000
# 5 0.0000 0.0000 0.0000 0.0000 16.0059 0.0000
# 6 0.0000 0.0000 0.0000 0.0000 0.0000 15.7108
#
#
#
# Elastic Compliance Matrix: (Units=1/GPa)
#
#
# Indices 1 2 3 4 5 6 
#
# 1 0.017662 -0.007906 -0.005504 0.000000 0.000000 0.000000
# 2 -0.007906 0.014014 -0.002371 0.000000 0.000000 0.000000
# 3 -0.005504 -0.002371 0.013458 0.000000 0.000000 0.000000
# 4 0.000000 0.000000 0.000000 0.116883 0.000000 0.000000
# 5 0.000000 0.000000 0.000000 0.000000 0.062477 0.000000
# 6 0.000000 0.000000 0.000000 0.000000 0.000000 0.063650
#
#
# Mechanical properties :
#
#
# Convention : Reuss Voigt Hill
#
# Bulk Modulus (GPa) = 73.68065 74.30706 73.99385
# Shear Modulus (GPa) = 15.42112 18.46030 16.94071
#
# Velocity S-wave (km/s) = 2.90191 3.17501 3.04152
# Velocity P-wave (km/s) = 7.17378 7.34969 7.26227
#
# Compressibility (1/GPa) = 0.01357208
#
# Stress axis : x y z
#
# Youngs Moduli (GPa) = 56.61950 71.35643 74.30294
#
# Poissons Ratio (x) = 0.56413 0.40897
# Poissons Ratio (y) = 0.44762 0.17620
# Poissons Ratio (z) = 0.31164 0.16921
#
# Static dielectric constant tensor:
#      x y z
#    x 3.282800 0.000000 0.000000 
#    y 0.000000 2.919630 0.000000 
#    z 0.000000 0.000000 3.439440 
# 
# 
# High freq. dielectric constant tensor:
#      x y z
#    x 1.707470 0.000000 0.000000 
#    y 0.000000 1.715540 0.000000 
#    z 0.000000 0.000000 1.715380 
# 
# From -- ./inp_files/4948.got.cif
#   From: 2010.03.12/outbox.cif.g09.slc.cpg/sg65_3_cif.got.tgz:4948.got - 2010.04.10 20:52:16.
