data_PCOD8273965
_publ_section_title
;
Structure prediction by ZEFSAII (Michael W. Deem and Ramdas Pophale) SiO2 
 PCOD8273965
Probable space group: C M M M
;
_chemical_formula_sum "Si O2"
_cell_formula_units_Z 90
_cell_length_a 21.675354
_cell_length_b 19.032189
_cell_length_c 11.216584
_cell_angle_alpha 90.000000
_cell_angle_beta 90.000000
_cell_angle_gamma 90.000000
_cell_volume 4627.171049
_symmetry_space_group_name_H-M "C M M M"
_symmetry_group_IT_number 65
_symmetry_cell_setting 'orthorhombic'
loop_
_space_group_symop_operation_xyz
x,y,z
-x,-y,z
x,-y,-z
-x,y,-z
-x,-y,-z
x,y,-z
-x,y,z
x,-y,z
1/2+x,1/2+y,z
1/2-x,1/2-y,z
1/2+x,1/2-y,-z
1/2-x,1/2+y,-z
1/2-x,1/2-y,-z
1/2+x,1/2+y,-z
1/2-x,1/2+y,z
1/2+x,1/2-y,z
loop_
_atom_site_type_symbol
_atom_site_label
_atom_site_fract_x
_atom_site_fract_y
_atom_site_fract_z
Si Si1 0.660890 0.301756 0.000000
Si Si2 0.571443 0.188966 0.638865
Si Si3 0.656297 0.080699 0.241627
Si Si4 0.500000 0.500000 0.000000
Si Si5 0.500000 0.424366 0.238858
Si Si6 0.218298 0.079326 0.637749
Si Si7 0.884833 0.169949 0.747070
Si Si8 0.706851 0.143732 0.000000
O O1 0.617203 0.313709 0.886953
O O2 0.684156 0.222848 0.000000
O O3 0.718438 0.356169 0.000000
O O4 0.580359 0.171823 0.500000
O O5 0.500000 0.198656 0.672429
O O6 0.597318 0.125328 0.718062
O O7 0.607973 0.259605 0.670858
O O8 0.709760 0.093121 0.338721
O O9 0.635258 0.000000 0.236333
O O10 0.681624 0.103063 0.113713
O O11 0.500000 0.563431 0.903377
O O12 0.500000 0.500000 0.306480
O O13 0.440187 0.382420 0.282064
O O14 0.204141 0.091325 0.500000
O O15 0.179574 0.134518 0.713231
O O16 0.200880 0.000000 0.677498
#
# Coordination Sequence:
#
# PCOD8273965 Si02
#       8
#     8  16  16   2   8  16  16   8
#     4  11  23  35  66  92 128 168 202 256 318 374
#     4  11  25  44  67  94 124 167 220 267 320 380
#     4  11  23  43  66  93 128 165 208 266 326 381
#     4   8  20  40  52  88 122 168 226 240 298 366
#     4  10  22  38  57  88 127 166 207 253 299 378
#     4  10  22  39  61  91 126 166 210 257 314 379
#     4  12  21  41  62  92 129 165 211 261 315 375
#     4  11  21  42  59  97 133 159 200 253 320 396
#
# _framework density 19.450330000000001
#
# number of rings (size 3 to 8) (size 9 to 14) (size 15 to 20)
#    0.267    0.889    4.444    2.400    0.000    2.133 
#    0.000    4.000    0.000    3.200    0.000    0.000 
#    0.000    0.000    0.000    0.000    0.000    0.000 
#
# Total GULP energy -557674.835656 kJ/mol
# GULP energy per Si atom -12392.774126 kJ/mol
# Density = 1.940606 g / cm^3
# Si number density = 19.450330 Si / 1000 Ang^3
#
#
#
# Elastic Constant Matrix: (Units=GPa)
#
#
# Indices 1 2 3 4 5 6 
#
# 1 64.9783 36.3908 15.0269 0.0000 0.0000 0.0000
# 2 36.3908 120.4015 28.3187 0.0000 0.0000 0.0000
# 3 15.0269 28.3187 66.2609 0.0000 0.0000 0.0000
# 4 0.0000 0.0000 0.0000 27.6149 0.0000 0.0000
# 5 0.0000 0.0000 0.0000 0.0000 28.2559 0.0000
# 6 0.0000 0.0000 0.0000 0.0000 0.0000 38.8320
#
#
#
# Elastic Compliance Matrix: (Units=1/GPa)
#
#
# Indices 1 2 3 4 5 6 
#
# 1 0.018770 -0.005194 -0.002037 0.000000 0.000000 0.000000
# 2 -0.005194 0.010671 -0.003383 0.000000 0.000000 0.000000
# 3 -0.002037 -0.003383 0.016999 0.000000 0.000000 0.000000
# 4 0.000000 0.000000 0.000000 0.036212 0.000000 0.000000
# 5 0.000000 0.000000 0.000000 0.000000 0.035391 0.000000
# 6 0.000000 0.000000 0.000000 0.000000 0.000000 0.025752
#
#
# Mechanical properties :
#
#
# Convention : Reuss Voigt Hill
#
# Bulk Modulus (GPa) = 39.66185 45.67928 42.67057
# Shear Modulus (GPa) = 28.83062 30.40084 29.61573
#
# Velocity S-wave (km/s) = 3.85420 3.95777 3.90633
# Velocity P-wave (km/s) = 6.34367 6.66493 6.50628
#
# Compressibility (1/GPa) = 0.02521314
#
# Stress axis : x y z
#
# Youngs Moduli (GPa) = 53.27749 93.71172 58.82531
#
# Poissons Ratio (x) = 0.48674 0.11982
# Poissons Ratio (y) = 0.27672 0.19899
# Poissons Ratio (z) = 0.10852 0.31700
#
# Static dielectric constant tensor:
#      x y z
#    x 3.425070 0.000000 0.000000 
#    y 0.000000 3.618840 0.000000 
#    z 0.000000 0.000000 3.434430 
# 
# 
# High freq. dielectric constant tensor:
#      x y z
#    x 1.747100 0.000000 0.000000 
#    y 0.000000 1.769660 0.000000 
#    z 0.000000 0.000000 1.764020 
# 
# From -- ./inp_files/28794.got.cif
#   From: 2010.03.12/outbox.cif.g09.slc.cpg/sg65_15_cif.got.tgz:28794.got - 2010.04.10 20:52:16.
