data_PCOD8273723
_publ_section_title
;
Structure prediction by ZEFSAII (Michael W. Deem and Ramdas Pophale) SiO2 
 PCOD8273723
Probable space group: C M M M
;
_chemical_formula_sum "Si O2"
_cell_formula_units_Z 72
_cell_length_a 25.621863
_cell_length_b 9.615786
_cell_length_c 14.070733
_cell_angle_alpha 90.000000
_cell_angle_beta 90.000000
_cell_angle_gamma 90.000000
_cell_volume 3466.667718
_symmetry_space_group_name_H-M "C M M M"
_symmetry_group_IT_number 65
_symmetry_cell_setting 'orthorhombic'
loop_
_space_group_symop_operation_xyz
x,y,z
-x,-y,z
x,-y,-z
-x,y,-z
-x,-y,-z
x,y,-z
-x,y,z
x,-y,z
1/2+x,1/2+y,z
1/2-x,1/2-y,z
1/2+x,1/2-y,-z
1/2-x,1/2+y,-z
1/2-x,1/2-y,-z
1/2+x,1/2+y,-z
1/2-x,1/2+y,z
1/2+x,1/2-y,z
loop_
_atom_site_type_symbol
_atom_site_label
_atom_site_fract_x
_atom_site_fract_y
_atom_site_fract_z
Si Si1 0.389109 0.345597 0.603316
Si Si2 0.000000 0.654596 0.888958
Si Si3 0.299656 0.660344 0.890140
Si Si4 0.411177 0.342331 0.808142
Si Si5 0.792616 0.347973 0.391232
O O1 0.418114 0.328605 0.500000
O O2 0.362618 0.500000 0.606440
O O3 0.425995 0.332524 0.695548
O O4 0.348051 0.223928 0.614319
O O5 0.051850 0.736535 0.861414
O O6 0.000000 0.500000 0.842285
O O7 0.000000 0.637860 0.000000
O O8 0.284606 0.500000 0.876019
O O9 0.250000 0.750000 0.855663
O O10 0.350702 0.699145 0.827379
O O11 0.313064 0.693098 0.000000
O O12 0.421032 0.500000 0.845104
O O13 0.775289 0.368403 0.500000
O O14 0.795033 0.500000 0.341623
O O15 0.750000 0.250000 0.338870
#
# Coordination Sequence:
#
# PCOD8273723 Si02
#       5
#    16   8  16  16  16
#     4   9  18  33  52  76 108 144 185 234 283 334
#     4  11  25  43  64  91 118 144 181 235 294 343
#     4   9  18  33  54  81 112 146 185 230 283 343
#     4  10  21  38  61  87 115 152 195 235 282 342
#     4   9  16  26  42  65  96 139 189 237 284 331
#
# _framework density 20.769224000000001
#
# number of rings (size 3 to 8) (size 9 to 14) (size 15 to 20)
#    0.000    2.556    0.000    1.667    0.000    7.111 
#    0.000    5.000    0.000    3.333    0.000    0.000 
#    0.000    0.000    0.000    0.000    0.000    0.000 
#
# Total GULP energy -446071.812668 kJ/mol
# GULP energy per Si atom -12390.883685 kJ/mol
# Density = 2.072195 g / cm^3
# Si number density = 20.769224 Si / 1000 Ang^3
#
#
#
# Elastic Constant Matrix: (Units=GPa)
#
#
# Indices 1 2 3 4 5 6 
#
# 1 91.3033 56.5499 27.2977 0.0000 0.0000 0.0000
# 2 56.5499 147.8797 29.7882 0.0000 0.0000 0.0000
# 3 27.2977 29.7882 90.4053 0.0000 0.0000 0.0000
# 4 0.0000 0.0000 0.0000 17.3516 0.0000 0.0000
# 5 0.0000 0.0000 0.0000 0.0000 12.5703 0.0000
# 6 0.0000 0.0000 0.0000 0.0000 0.0000 21.5745
#
#
#
# Elastic Compliance Matrix: (Units=1/GPa)
#
#
# Indices 1 2 3 4 5 6 
#
# 1 0.014997 -0.005166 -0.002826 0.000000 0.000000 0.000000
# 2 -0.005166 0.009022 -0.001413 0.000000 0.000000 0.000000
# 3 -0.002826 -0.001413 0.012380 0.000000 0.000000 0.000000
# 4 0.000000 0.000000 0.000000 0.057632 0.000000 0.000000
# 5 0.000000 0.000000 0.000000 0.000000 0.079553 0.000000
# 6 0.000000 0.000000 0.000000 0.000000 0.000000 0.046351
#
#
# Mechanical properties :
#
#
# Convention : Reuss Voigt Hill
#
# Bulk Modulus (GPa) = 56.85166 61.87332 59.36249
# Shear Modulus (GPa) = 20.44090 24.69611 22.56850
#
# Velocity S-wave (km/s) = 3.14059 3.45203 3.29999
# Velocity P-wave (km/s) = 6.37052 6.76345 6.56992
#
# Compressibility (1/GPa) = 0.01758964
#
# Stress axis : x y z
#
# Youngs Moduli (GPa) = 66.68066 110.83731 80.77365
#
# Poissons Ratio (x) = 0.57254 0.22829
# Poissons Ratio (y) = 0.34444 0.11414
# Poissons Ratio (z) = 0.18846 0.15662
#
# Static dielectric constant tensor:
#      x y z
#    x 3.263070 0.000000 0.000000 
#    y 0.000000 4.059840 0.000000 
#    z 0.000000 0.000000 3.972380 
# 
# 
# High freq. dielectric constant tensor:
#      x y z
#    x 1.769050 0.000000 0.000000 
#    y 0.000000 1.820720 0.000000 
#    z 0.000000 0.000000 1.817610 
# 
# From -- ./inp_files/46492.got.cif
#   From: 2010.03.12/outbox.cif.g09.slc.cpg/sg65_24_cif.got.tgz:46492.got - 2010.04.10 20:52:16.
