data_PCOD8273734
_publ_section_title
;
Structure prediction by ZEFSAII (Michael W. Deem and Ramdas Pophale) SiO2 
 PCOD8273734
Probable space group: C M M M
;
_chemical_formula_sum "Si O2"
_cell_formula_units_Z 96
_cell_length_a 8.967630
_cell_length_b 28.242795
_cell_length_c 18.733888
_cell_angle_alpha 90.000000
_cell_angle_beta 90.000000
_cell_angle_gamma 90.000000
_cell_volume 4744.749344
_symmetry_space_group_name_H-M "C M M M"
_symmetry_group_IT_number 65
_symmetry_cell_setting 'orthorhombic'
loop_
_space_group_symop_operation_xyz
x,y,z
-x,-y,z
x,-y,-z
-x,y,-z
-x,-y,-z
x,y,-z
-x,y,z
x,-y,z
1/2+x,1/2+y,z
1/2-x,1/2-y,z
1/2+x,1/2-y,-z
1/2-x,1/2+y,-z
1/2-x,1/2-y,-z
1/2+x,1/2+y,-z
1/2-x,1/2+y,z
1/2+x,1/2-y,z
loop_
_atom_site_type_symbol
_atom_site_label
_atom_site_fract_x
_atom_site_fract_y
_atom_site_fract_z
Si Si1 0.337395 0.552112 0.083094
Si Si2 0.323889 0.799525 0.080717
Si Si3 0.324506 0.445849 0.701842
Si Si4 0.168081 0.203617 0.415115
Si Si5 0.328412 0.115072 0.821654
Si Si6 0.674831 0.892129 0.582773
O O1 0.500000 0.575170 0.102512
O O2 0.335907 0.500000 0.117216
O O3 0.195650 0.579595 0.112796
O O4 0.316348 0.548897 0.000000
O O5 0.500000 0.793682 0.081992
O O6 0.250000 0.750000 0.100064
O O7 0.274054 0.834930 0.144685
O O8 0.274340 0.816057 0.000000
O O9 0.500000 0.440354 0.693333
O O10 0.282477 0.500000 0.724106
O O11 0.269089 0.405476 0.756835
O O12 0.247659 0.435334 0.625883
O O13 0.166869 0.206229 0.500000
O O14 0.250000 0.250000 0.383643
O O15 0.256244 0.157284 0.389385
O O16 0.000000 0.201848 0.384981
O O17 0.500000 0.116499 0.797827
O O18 0.711758 0.900626 0.500000
O O19 0.500000 0.890114 0.597255
#
# Coordination Sequence:
#
# PCOD8273734 Si02
#       6
#    16  16  16  16  16  16
#     4   9  18  32  50  75 108 145 185 226 268 321
#     4   9  19  36  58  86 119 154 193 236 281 331
#     4  11  25  43  61  82 111 149 193 240 293 357
#     4   9  16  28  50  81 116 150 182 219 268 327
#     4  11  22  36  56  82 113 147 186 234 285 338
#     4  10  21  38  61  88 116 147 189 242 299 361
#
# _framework density 20.232892
#
# number of rings (size 3 to 8) (size 9 to 14) (size 15 to 20)
#    0.000    2.167    0.000    3.500    0.000    9.333 
#    0.000    5.000    0.000    2.000    0.000    0.000 
#    0.000    0.000    0.000    0.000    0.000    0.000 
#
# Total GULP energy -594860.635414 kJ/mol
# GULP energy per Si atom -12392.929904 kJ/mol
# Density = 2.018684 g / cm^3
# Si number density = 20.232892 Si / 1000 Ang^3
#
#
#
# Elastic Constant Matrix: (Units=GPa)
#
#
# Indices 1 2 3 4 5 6 
#
# 1 93.3287 53.1774 46.0584 0.0000 0.0000 0.0000
# 2 53.1774 114.8482 65.7724 0.0000 0.0000 0.0000
# 3 46.0584 65.7724 78.5562 0.0000 0.0000 0.0000
# 4 0.0000 0.0000 0.0000 34.3261 0.0000 0.0000
# 5 0.0000 0.0000 0.0000 0.0000 31.6606 0.0000
# 6 0.0000 0.0000 0.0000 0.0000 0.0000 36.8842
#
#
#
# Elastic Compliance Matrix: (Units=1/GPa)
#
#
# Indices 1 2 3 4 5 6 
#
# 1 0.015936 -0.003896 -0.006081 0.000000 0.000000 0.000000
# 2 -0.003896 0.017681 -0.012519 0.000000 0.000000 0.000000
# 3 -0.006081 -0.012519 0.026777 0.000000 0.000000 0.000000
# 4 0.000000 0.000000 0.000000 0.029132 0.000000 0.000000
# 5 0.000000 0.000000 0.000000 0.000000 0.031585 0.000000
# 6 0.000000 0.000000 0.000000 0.000000 0.000000 0.027112
#
#
# Mechanical properties :
#
#
# Convention : Reuss Voigt Hill
#
# Bulk Modulus (GPa) = 64.93228 68.52773 66.73000
# Shear Modulus (GPa) = 25.20799 28.68917 26.94858
#
# Velocity S-wave (km/s) = 3.53355 3.76965 3.65351
# Velocity P-wave (km/s) = 6.98642 7.27255 7.13092
#
# Compressibility (1/GPa) = 0.01540066
#
# Stress axis : x y z
#
# Youngs Moduli (GPa) = 62.75144 56.55896 37.34509
#
# Poissons Ratio (x) = 0.22035 0.22711
# Poissons Ratio (y) = 0.24447 0.46753
# Poissons Ratio (z) = 0.38162 0.70807
#
# Static dielectric constant tensor:
#      x y z
#    x 3.729310 0.000000 0.000000 
#    y 0.000000 3.852940 0.000000 
#    z 0.000000 0.000000 3.572270 
# 
# 
# High freq. dielectric constant tensor:
#      x y z
#    x 1.793330 0.000000 0.000000 
#    y 0.000000 1.789230 0.000000 
#    z 0.000000 0.000000 1.773940 
# 
# From -- ./inp_files/60229.got.cif
#   From: 2010.03.12/outbox.cif.g09.slc.cpg/sg65_31_cif.got.tgz:60229.got - 2010.04.10 20:52:16.
