data_PCOD8273943
_publ_section_title
;
Structure prediction by ZEFSAII (Michael W. Deem and Ramdas Pophale) SiO2 
 PCOD8273943
Probable space group: C M M M
;
_chemical_formula_sum "Si O2"
_cell_formula_units_Z 52
_cell_length_a 15.039422
_cell_length_b 7.490894
_cell_length_c 24.302395
_cell_angle_alpha 90.000000
_cell_angle_beta 90.000000
_cell_angle_gamma 90.000000
_cell_volume 2737.876617
_symmetry_space_group_name_H-M "C M M M"
_symmetry_group_IT_number 65
_symmetry_cell_setting 'orthorhombic'
loop_
_space_group_symop_operation_xyz
x,y,z
-x,-y,z
x,-y,-z
-x,y,-z
-x,-y,-z
x,y,-z
-x,y,z
x,-y,z
1/2+x,1/2+y,z
1/2-x,1/2-y,z
1/2+x,1/2-y,-z
1/2-x,1/2+y,-z
1/2-x,1/2-y,-z
1/2+x,1/2+y,-z
1/2-x,1/2+y,z
1/2+x,1/2-y,z
loop_
_atom_site_type_symbol
_atom_site_label
_atom_site_fract_x
_atom_site_fract_y
_atom_site_fract_z
Si Si1 0.144470 0.207247 0.500000
Si Si2 0.902249 0.500000 0.216859
Si Si3 0.500000 0.288803 0.938977
Si Si4 0.500000 0.287553 0.413839
Si Si5 0.154526 0.207094 0.859921
Si Si6 0.000000 0.500000 0.677647
O O1 0.250000 0.250000 0.500000
O O2 0.089908 0.274976 0.446416
O O3 0.132289 0.000000 0.500000
O O4 0.853154 0.320782 0.196452
O O5 0.000000 0.500000 0.189645
O O6 0.911508 0.500000 0.283485
O O7 0.500000 0.500000 0.943992
O O8 0.413661 0.224301 0.905884
O O9 0.500000 0.202832 0.000000
O O10 0.500000 0.500000 0.402284
O O11 0.500000 0.181390 0.357064
O O12 0.250000 0.250000 0.885995
O O13 0.140209 0.000000 0.844845
#
# Coordination Sequence:
#
# PCOD8273943 Si02
#       6
#     8   8   8   8  16   4
#     4   9  19  34  59  87 116 153 197 225 266 343
#     4  10  22  40  59  86 108 147 208 233 282 346
#     4   9  19  35  55  86 118 146 184 234 293 346
#     4   9  20  38  57  86 119 156 185 229 287 329
#     4  11  21  37  63  82 112 153 192 238 285 346
#     4  10  22  37  64  80 117 148 192 244 288 330
#
# _framework density 18.992819999999998
#
# number of rings (size 3 to 8) (size 9 to 14) (size 15 to 20)
#    0.462    1.692    3.077    0.923    2.154    2.462 
#    0.000    3.077    0.000    0.000    0.000    0.000 
#    0.000    0.000    0.000    0.000    0.000    0.000 
#
# Total GULP energy -322147.979231 kJ/mol
# GULP energy per Si atom -12390.306893 kJ/mol
# Density = 1.894959 g / cm^3
# Si number density = 18.992820 Si / 1000 Ang^3
#
#
#
# Elastic Constant Matrix: (Units=GPa)
#
#
# Indices 1 2 3 4 5 6 
#
# 1 157.4236 24.3386 65.6658 0.0000 0.0000 0.0000
# 2 24.3386 100.6249 55.9983 0.0000 0.0000 0.0000
# 3 65.6658 55.9983 153.2376 0.0000 0.0000 0.0000
# 4 0.0000 0.0000 0.0000 13.6680 0.0000 0.0000
# 5 0.0000 0.0000 0.0000 0.0000 9.6524 0.0000
# 6 0.0000 0.0000 0.0000 0.0000 0.0000 21.9066
#
#
#
# Elastic Compliance Matrix: (Units=1/GPa)
#
#
# Indices 1 2 3 4 5 6 
#
# 1 0.007735 -0.000033 -0.003303 0.000000 0.000000 0.000000
# 2 -0.000033 0.012475 -0.004545 0.000000 0.000000 0.000000
# 3 -0.003303 -0.004545 0.009602 0.000000 0.000000 0.000000
# 4 0.000000 0.000000 0.000000 0.073164 0.000000 0.000000
# 5 0.000000 0.000000 0.000000 0.000000 0.103601 0.000000
# 6 0.000000 0.000000 0.000000 0.000000 0.000000 0.045648
#
#
# Mechanical properties :
#
#
# Convention : Reuss Voigt Hill
#
# Bulk Modulus (GPa) = 71.16746 78.14349 74.65547
# Shear Modulus (GPa) = 18.33725 26.73097 22.53411
#
# Velocity S-wave (km/s) = 3.11059 3.75564 3.44823
# Velocity P-wave (km/s) = 7.10304 7.74851 7.43278
#
# Compressibility (1/GPa) = 0.01405137
#
# Stress axis : x y z
#
# Youngs Moduli (GPa) = 129.28280 80.16034 104.14709
#
# Poissons Ratio (x) = 0.00265 0.34395
# Poissons Ratio (y) = 0.00427 0.47331
# Poissons Ratio (z) = 0.42696 0.36430
#
# Static dielectric constant tensor:
#      x y z
#    x 3.198500 0.000000 0.000000 
#    y 0.000000 3.376520 0.000000 
#    z 0.000000 0.000000 3.339380 
# 
# 
# High freq. dielectric constant tensor:
#      x y z
#    x 1.741850 0.000000 0.000000 
#    y 0.000000 1.744550 0.000000 
#    z 0.000000 0.000000 1.713620 
# 
# From -- ./inp_files/62131.got.cif
#   From: 2010.03.12/outbox.cif.g09.slc.cpg/sg65_32_cif.got.tgz:62131.got - 2010.04.10 20:52:16.
