data_PCOD8273531
_publ_section_title
;
Structure prediction by ZEFSAII (Michael W. Deem and Ramdas Pophale) SiO2 
 PCOD8273531
Probable space group: C M M M
;
_chemical_formula_sum "Si O2"
_cell_formula_units_Z 120
_cell_length_a 14.265046
_cell_length_b 22.883039
_cell_length_c 18.742198
_cell_angle_alpha 90.000000
_cell_angle_beta 90.000000
_cell_angle_gamma 90.000000
_cell_volume 6117.970786
_symmetry_space_group_name_H-M "C M M M"
_symmetry_group_IT_number 65
_symmetry_cell_setting 'orthorhombic'
loop_
_space_group_symop_operation_xyz
x,y,z
-x,-y,z
x,-y,-z
-x,y,-z
-x,-y,-z
x,y,-z
-x,y,z
x,-y,z
1/2+x,1/2+y,z
1/2-x,1/2-y,z
1/2+x,1/2-y,-z
1/2-x,1/2+y,-z
1/2-x,1/2-y,-z
1/2+x,1/2+y,-z
1/2-x,1/2+y,z
1/2+x,1/2-y,z
loop_
_atom_site_type_symbol
_atom_site_label
_atom_site_fract_x
_atom_site_fract_y
_atom_site_fract_z
Si Si1 0.109531 0.712218 0.581217
Si Si2 0.105762 0.834262 0.649535
Si Si3 0.391555 0.111029 0.082366
Si Si4 0.611075 0.242383 0.921195
Si Si5 0.790854 0.607237 0.348422
Si Si6 0.893026 0.838636 0.186799
Si Si7 0.742966 0.066541 0.804920
Si Si8 0.894553 0.500000 0.583625
O O1 0.142765 0.701655 0.500000
O O2 0.133674 0.778525 0.602225
O O3 0.161368 0.668920 0.634873
O O4 0.000000 0.700111 0.589349
O O5 0.179373 0.886573 0.633526
O O6 0.113356 0.815792 0.732279
O O7 0.000000 0.855942 0.631449
O O8 0.500000 0.103217 0.102678
O O9 0.356207 0.176980 0.098090
O O10 0.331378 0.067824 0.131057
O O11 0.375207 0.094599 0.000000
O O12 0.500000 0.242595 0.921303
O O13 0.650784 0.288042 0.863516
O O14 0.648261 0.260076 0.000000
O O15 0.805770 0.593340 0.265328
O O16 0.837004 0.557002 0.395068
O O17 0.836326 0.898173 0.174656
O O18 0.000000 0.852129 0.165082
O O19 0.772745 0.000000 0.790067
O O20 0.904972 0.500000 0.500000
O O21 0.000000 0.500000 0.617362
#
# Coordination Sequence:
#
# PCOD8273531 Si02
#       8
#    16  16  16  16  16  16  16   8
#     4  10  21  37  59  88 118 148 183 227 287 352
#     4   9  20  37  58  85 117 152 187 227 280 345
#     4   9  20  38  58  82 114 150 184 225 280 337
#     4   8  15  31  56  85 113 141 178 223 277 337
#     4  11  22  39  58  83 116 151 192 237 285 333
#     4   9  19  36  58  82 111 146 183 229 282 332
#     4  11  24  39  54  80 111 147 196 238 273 321
#     4  11  24  42  63  85 112 148 191 238 285 335
#
# _framework density 19.614346999999999
#
# number of rings (size 3 to 8) (size 9 to 14) (size 15 to 20)
#    0.000    2.333    0.667    2.000    1.867    5.600 
#    0.000    2.333    0.000    0.400    0.000    2.800 
#    0.000    0.000    0.000    0.000    0.000    0.000 
#
# Total GULP energy -744004.779598 kJ/mol
# GULP energy per Si atom -12400.079660 kJ/mol
# Density = 1.956970 g / cm^3
# Si number density = 19.614347 Si / 1000 Ang^3
#
#
#
# Elastic Constant Matrix: (Units=GPa)
#
#
# Indices 1 2 3 4 5 6 
#
# 1 80.1308 46.2306 31.9120 0.0000 0.0000 0.0000
# 2 46.2306 82.2711 34.5345 0.0000 0.0000 0.0000
# 3 31.9120 34.5345 71.3916 0.0000 0.0000 0.0000
# 4 0.0000 0.0000 0.0000 30.9783 0.0000 0.0000
# 5 0.0000 0.0000 0.0000 0.0000 22.2491 0.0000
# 6 0.0000 0.0000 0.0000 0.0000 0.0000 137.8029
#
#
#
# Elastic Compliance Matrix: (Units=1/GPa)
#
#
# Indices 1 2 3 4 5 6 
#
# 1 0.019454 -0.009137 -0.004276 0.000000 0.000000 0.000000
# 2 -0.009137 0.019543 -0.005370 0.000000 0.000000 0.000000
# 3 -0.004276 -0.005370 0.018516 0.000000 0.000000 0.000000
# 4 0.000000 0.000000 0.000000 0.032281 0.000000 0.000000
# 5 0.000000 0.000000 0.000000 0.000000 0.044946 0.000000
# 6 0.000000 0.000000 0.000000 0.000000 0.000000 0.007257
#
#
# Mechanical properties :
#
#
# Convention : Reuss Voigt Hill
#
# Bulk Modulus (GPa) = 50.12966 51.01641 50.57303
# Shear Modulus (GPa) = 26.85133 46.28047 36.56590
#
# Velocity S-wave (km/s) = 3.70397 4.86276 4.32237
# Velocity P-wave (km/s) = 6.62613 7.58912 7.12392
#
# Compressibility (1/GPa) = 0.01994827
#
# Stress axis : x y z
#
# Youngs Moduli (GPa) = 51.40349 51.16898 54.00710
#
# Poissons Ratio (x) = 0.46752 0.23094
# Poissons Ratio (y) = 0.46966 0.28999
# Poissons Ratio (z) = 0.21981 0.27475
#
# Static dielectric constant tensor:
#      x y z
#    x 3.674190 0.000000 0.000000 
#    y 0.000000 3.495000 0.000000 
#    z 0.000000 0.000000 3.678060 
# 
# 
# High freq. dielectric constant tensor:
#      x y z
#    x 1.769430 0.000000 0.000000 
#    y 0.000000 1.749190 0.000000 
#    z 0.000000 0.000000 1.765980 
# 
# From -- ./inp_files/63035.got.cif
#   From: 2010.03.12/outbox.cif.g09.slc.cpg/sg65_32_cif.got.tgz:63035.got - 2010.04.10 20:52:16.
