data_PCOD8273802
_publ_section_title
;
Structure prediction by ZEFSAII (Michael W. Deem and Ramdas Pophale) SiO2 
 PCOD8273802
Probable space group: C M M M
;
_chemical_formula_sum "Si O2"
_cell_formula_units_Z 64
_cell_length_a 15.334616
_cell_length_b 27.434019
_cell_length_c 7.625566
_cell_angle_alpha 90.000000
_cell_angle_beta 90.000000
_cell_angle_gamma 90.000000
_cell_volume 3208.000479
_symmetry_space_group_name_H-M "C M M M"
_symmetry_group_IT_number 65
_symmetry_cell_setting 'orthorhombic'
loop_
_space_group_symop_operation_xyz
x,y,z
-x,-y,z
x,-y,-z
-x,y,-z
-x,-y,-z
x,y,-z
-x,y,z
x,-y,z
1/2+x,1/2+y,z
1/2-x,1/2-y,z
1/2+x,1/2-y,-z
1/2-x,1/2+y,-z
1/2-x,1/2-y,-z
1/2+x,1/2+y,-z
1/2-x,1/2+y,z
1/2+x,1/2-y,z
loop_
_atom_site_type_symbol
_atom_site_label
_atom_site_fract_x
_atom_site_fract_y
_atom_site_fract_z
Si Si1 0.896997 0.347768 0.500000
Si Si2 0.199034 0.443321 0.500000
Si Si3 0.838034 0.278651 0.796731
Si Si4 0.500000 0.605652 0.694572
Si Si5 0.169848 0.054930 0.194640
Si Si6 0.500000 0.711205 0.798918
O O1 0.882467 0.406347 0.500000
O O2 0.850656 0.325531 0.672912
O O3 0.000000 0.337459 0.500000
O O4 0.167669 0.500000 0.500000
O O5 0.255703 0.430167 0.329885
O O6 0.750000 0.250000 0.750843
O O7 0.915503 0.242107 0.752665
O O8 0.839256 0.295877 0.000000
O O9 0.500000 0.583011 0.500000
O O10 0.413860 0.589205 0.795269
O O11 0.500000 0.663738 0.679263
O O12 0.138384 0.000000 0.233426
O O13 0.209921 0.060013 0.000000
O O14 0.500000 0.694420 0.000000
#
# Coordination Sequence:
#
# PCOD8273802 Si02
#       6
#     8   8  16   8  16   8
#     4  12  25  42  69  92 120 163 199 253 316 374
#     4  10  24  43  62  91 119 150 206 263 313 368
#     4  10  23  42  65  92 126 167 209 254 302 360
#     4  12  23  31  56  92 128 169 204 247 296 361
#     4  10  21  39  60  84 122 167 208 251 300 360
#     4  10  22  39  57  88 128 161 202 254 298 355
#
# _framework density 19.950122
#
# number of rings (size 3 to 8) (size 9 to 14) (size 15 to 20)
#    0.000    1.500    2.500    1.875    5.250    2.750 
#    0.000    0.000    0.000    0.000    0.000    5.250 
#    0.000    0.000    0.000    0.000    0.000    0.000 
#
# Total GULP energy -396878.514548 kJ/mol
# GULP energy per Si atom -12402.453580 kJ/mol
# Density = 1.990471 g / cm^3
# Si number density = 19.950122 Si / 1000 Ang^3
#
#
#
# Elastic Constant Matrix: (Units=GPa)
#
#
# Indices 1 2 3 4 5 6 
#
# 1 114.1403 48.9747 35.5969 0.0000 0.0000 0.0000
# 2 48.9747 111.7566 40.9707 0.0000 0.0000 0.0000
# 3 35.5969 40.9707 122.6789 0.0000 0.0000 0.0000
# 4 0.0000 0.0000 0.0000 22.7171 0.0000 0.0000
# 5 0.0000 0.0000 0.0000 0.0000 51.4656 0.0000
# 6 0.0000 0.0000 0.0000 0.0000 0.0000 32.5138
#
#
#
# Elastic Compliance Matrix: (Units=1/GPa)
#
#
# Indices 1 2 3 4 5 6 
#
# 1 0.011137 -0.004212 -0.001825 0.000000 0.000000 0.000000
# 2 -0.004212 0.011789 -0.002715 0.000000 0.000000 0.000000
# 3 -0.001825 -0.002715 0.009588 0.000000 0.000000 0.000000
# 4 0.000000 0.000000 0.000000 0.044020 0.000000 0.000000
# 5 0.000000 0.000000 0.000000 0.000000 0.019430 0.000000
# 6 0.000000 0.000000 0.000000 0.000000 0.000000 0.030756
#
#
# Mechanical properties :
#
#
# Convention : Reuss Voigt Hill
#
# Bulk Modulus (GPa) = 66.62009 66.62895 66.62452
# Shear Modulus (GPa) = 33.50582 36.20819 34.85700
#
# Velocity S-wave (km/s) = 4.10259 4.26483 4.18450
# Velocity P-wave (km/s) = 7.47713 7.59750 7.53755
#
# Compressibility (1/GPa) = 0.01501049
#
# Stress axis : x y z
#
# Youngs Moduli (GPa) = 89.78716 84.82457 104.30036
#
# Poissons Ratio (x) = 0.35725 0.19036
# Poissons Ratio (y) = 0.37815 0.28319
# Poissons Ratio (z) = 0.16387 0.23031
#
# Static dielectric constant tensor:
#      x y z
#    x 3.428330 0.000000 0.000000 
#    y 0.000000 3.508090 0.000000 
#    z 0.000000 0.000000 3.776200 
# 
# 
# High freq. dielectric constant tensor:
#      x y z
#    x 1.764020 0.000000 0.000000 
#    y 0.000000 1.774180 0.000000 
#    z 0.000000 0.000000 1.795110 
# 
# From -- ./inp_files/6822.got.cif
#   From: 2010.03.12/outbox.cif.g09.slc.cpg/sg65_4_cif.got.tgz:6822.got - 2010.04.10 20:52:16.
