data_PCOD8273217
_publ_section_title
;
Structure prediction by ZEFSAII (Michael W. Deem and Ramdas Pophale) SiO2 
 PCOD8273217
Probable space group: C M M M
;
_chemical_formula_sum "Si O2"
_cell_formula_units_Z 72
_cell_length_a 17.074511
_cell_length_b 12.866561
_cell_length_c 14.532625
_cell_angle_alpha 90.000000
_cell_angle_beta 90.000000
_cell_angle_gamma 90.000000
_cell_volume 3192.675835
_symmetry_space_group_name_H-M "C M M M"
_symmetry_group_IT_number 65
_symmetry_cell_setting 'orthorhombic'
loop_
_space_group_symop_operation_xyz
x,y,z
-x,-y,z
x,-y,-z
-x,y,-z
-x,-y,-z
x,y,-z
-x,y,z
x,-y,z
1/2+x,1/2+y,z
1/2-x,1/2-y,z
1/2+x,1/2-y,-z
1/2-x,1/2+y,-z
1/2-x,1/2-y,-z
1/2+x,1/2+y,-z
1/2-x,1/2+y,z
1/2+x,1/2-y,z
loop_
_atom_site_type_symbol
_atom_site_label
_atom_site_fract_x
_atom_site_fract_y
_atom_site_fract_z
Si Si1 0.000000 0.622796 0.397103
Si Si2 0.913049 0.218474 0.894863
Si Si3 0.199867 0.878249 0.241249
Si Si4 0.623754 0.877066 0.750957
Si Si5 0.587399 0.623210 0.602373
O O1 0.078912 0.657078 0.342714
O O2 0.000000 0.500000 0.404963
O O3 0.000000 0.671851 0.500000
O O4 0.845815 0.143102 0.853938
O O5 0.916938 0.327106 0.839938
O O6 0.000000 0.166579 0.888236
O O7 0.890533 0.241448 0.000000
O O8 0.287496 0.830693 0.247880
O O9 0.146810 0.829498 0.322942
O O10 0.210300 0.000000 0.255353
O O11 0.620416 0.000000 0.763769
O O12 0.618112 0.649527 0.500000
O O13 0.500000 0.672181 0.617819
O O14 0.580513 0.500000 0.615099
#
# Coordination Sequence:
#
# PCOD8273217 Si02
#       5
#     8  16  16  16  16
#     4   9  18  36  63  91 120 155 195 243 301 361
#     4  11  24  41  62  86 115 156 202 249 300 354
#     4  10  21  36  58  88 122 157 193 241 296 354
#     4  10  21  39  62  88 118 152 195 247 301 354
#     4   8  14  27  49  77 111 151 190 227 273 334
#
# _framework density 22.551615999999999
#
# number of rings (size 3 to 8) (size 9 to 14) (size 15 to 20)
#    0.000    2.333    1.111    2.000    0.000    4.889 
#    0.000   10.000    0.000    2.667    0.000    0.000 
#    0.000    0.000    0.000    0.000    0.000    0.000 
#
# Total GULP energy -446369.451510 kJ/mol
# GULP energy per Si atom -12399.151431 kJ/mol
# Density = 2.250029 g / cm^3
# Si number density = 22.551616 Si / 1000 Ang^3
#
#
#
# Elastic Constant Matrix: (Units=GPa)
#
#
# Indices 1 2 3 4 5 6 
#
# 1 180.2147 26.8774 92.7601 0.0000 0.0000 0.0000
# 2 26.8774 20.0805 11.9482 0.0000 0.0000 0.0000
# 3 92.7601 11.9482 199.5020 0.0000 0.0000 0.0000
# 4 0.0000 0.0000 0.0000 26.8035 0.0000 0.0000
# 5 0.0000 0.0000 0.0000 0.0000 20.5357 0.0000
# 6 0.0000 0.0000 0.0000 0.0000 0.0000 34.5641
#
#
#
# Elastic Compliance Matrix: (Units=1/GPa)
#
#
# Indices 1 2 3 4 5 6 
#
# 1 0.008802 -0.009692 -0.003512 0.000000 0.000000 0.000000
# 2 -0.009692 0.062311 0.000774 0.000000 0.000000 0.000000
# 3 -0.003512 0.000774 0.006599 0.000000 0.000000 0.000000
# 4 0.000000 0.000000 0.000000 0.037309 0.000000 0.000000
# 5 0.000000 0.000000 0.000000 0.000000 0.048696 0.000000
# 6 0.000000 0.000000 0.000000 0.000000 0.000000 0.028932
#
#
# Mechanical properties :
#
#
# Convention : Reuss Voigt Hill
#
# Bulk Modulus (GPa) = 18.92033 73.66317 46.29175
# Shear Modulus (GPa) = 21.26530 34.26143 27.76336
#
# Velocity S-wave (km/s) = 3.07410 3.90198 3.51251
# Velocity P-wave (km/s) = 4.58346 7.28256 6.08456
#
# Compressibility (1/GPa) = 0.05285319
#
# Stress axis : x y z
#
# Youngs Moduli (GPa) = 113.60849 16.04857 151.53517
#
# Poissons Ratio (x) = 0.15554 0.53222
# Poissons Ratio (y) = 1.10106 -0.11735
# Poissons Ratio (z) = 0.39902 -0.01243
#
# Static dielectric constant tensor:
#      x y z
#    x 4.539410 0.000000 0.000000 
#    y 0.000000 3.986660 0.000000 
#    z 0.000000 0.000000 4.018930 
# 
# 
# High freq. dielectric constant tensor:
#      x y z
#    x 1.898940 0.000000 0.000000 
#    y 0.000000 1.914910 0.000000 
#    z 0.000000 0.000000 1.876990 
# 
# From -- ./inp_files/42142.got.cif
#   From: 2010.03.12/outbox.cif.g09.slc.cpg/sg65_22_cif.got.tgz:42142.got - 2010.04.10 20:52:16.
