data_PCOD8273509
_publ_section_title
;
Structure prediction by ZEFSAII (Michael W. Deem and Ramdas Pophale) SiO2 
 PCOD8273509
Probable space group: C M M M
;
_chemical_formula_sum "Si O2"
_cell_formula_units_Z 64
_cell_length_a 8.778455
_cell_length_b 18.035091
_cell_length_c 21.152566
_cell_angle_alpha 90.000000
_cell_angle_beta 90.000000
_cell_angle_gamma 90.000000
_cell_volume 3348.879215
_symmetry_space_group_name_H-M "C M M M"
_symmetry_group_IT_number 65
_symmetry_cell_setting 'orthorhombic'
loop_
_space_group_symop_operation_xyz
x,y,z
-x,-y,z
x,-y,-z
-x,y,-z
-x,-y,-z
x,y,-z
-x,y,z
x,-y,z
1/2+x,1/2+y,z
1/2-x,1/2-y,z
1/2+x,1/2-y,-z
1/2-x,1/2+y,-z
1/2-x,1/2-y,-z
1/2+x,1/2+y,-z
1/2-x,1/2+y,z
1/2+x,1/2-y,z
loop_
_atom_site_type_symbol
_atom_site_label
_atom_site_fract_x
_atom_site_fract_y
_atom_site_fract_z
Si Si1 0.822617 0.170317 0.000000
Si Si2 0.679701 0.330479 0.500000
Si Si3 0.179241 0.331125 0.739754
Si Si4 0.323791 0.586726 0.374478
Si Si5 0.179915 0.168652 0.864938
O O1 0.750000 0.250000 0.000000
O O2 0.781237 0.128742 0.066739
O O3 0.000000 0.185966 0.000000
O O4 0.500000 0.323425 0.500000
O O5 0.750000 0.250000 0.500000
O O6 0.735127 0.374349 0.438195
O O7 0.250000 0.250000 0.728962
O O8 0.221891 0.384547 0.682703
O O9 0.242233 0.370319 0.804386
O O10 0.000000 0.322471 0.744418
O O11 0.500000 0.605631 0.360890
O O12 0.297927 0.500000 0.382999
O O13 0.250000 0.250000 0.867717
O O14 0.000000 0.172031 0.853243
#
# Coordination Sequence:
#
# PCOD8273509 Si02
#       5
#     8   8  16  16  16
#     4   8  14  22  36  60  91 126 163 206 255 307
#     4  10  21  37  59  85 109 136 169 206 250 302
#     4  11  21  33  50  74 104 138 177 217 258 306
#     4  10  21  38  58  79 105 137 172 211 256 305
#     4   9  15  25  41  64  95 130 168 210 258 307
#
# _framework density 19.110872000000001
#
# number of rings (size 3 to 8) (size 9 to 14) (size 15 to 20)
#    0.000    2.250    0.000    5.625    0.000    6.000 
#    0.000    0.000    0.000    2.250    0.000    0.875 
#    0.000    7.000    0.000    0.000    0.000    0.000 
#
# Total GULP energy -396460.404303 kJ/mol
# GULP energy per Si atom -12389.387634 kJ/mol
# Density = 1.906737 g / cm^3
# Si number density = 19.110872 Si / 1000 Ang^3
#
#
#
# Elastic Constant Matrix: (Units=GPa)
#
#
# Indices 1 2 3 4 5 6 
#
# 1 95.3890 27.4214 64.6175 0.0000 0.0000 0.0000
# 2 27.4214 62.0566 51.1834 0.0000 0.0000 0.0000
# 3 64.6175 51.1834 214.9936 0.0000 0.0000 0.0000
# 4 0.0000 0.0000 0.0000 -0.3163 0.0000 0.0000
# 5 0.0000 0.0000 0.0000 0.0000 15.5583 0.0000
# 6 0.0000 0.0000 0.0000 0.0000 0.0000 20.7718
#
#
#
# Elastic Compliance Matrix: (Units=1/GPa)
#
#
# Indices 1 2 3 4 5 6 
#
# 1 0.013687 -0.003304 -0.003327 0.000000 0.000000 0.000000
# 2 -0.003304 0.020849 -0.003971 0.000000 0.000000 0.000000
# 3 -0.003327 -0.003971 0.006597 0.000000 0.000000 0.000000
# 4 0.000000 0.000000 0.000000 -3.161935 0.000000 0.000000
# 5 0.000000 0.000000 0.000000 0.000000 0.064275 0.000000
# 6 0.000000 0.000000 0.000000 0.000000 0.000000 0.048142
#
#
# Mechanical properties :
#
#
# Convention : Reuss Voigt Hill
#
# Bulk Modulus (GPa) = 50.17664 73.20934 61.69299
# Shear Modulus (GPa) = -1.67755 22.48389 10.40317
#
# Velocity S-wave (km/s) = -0.93793 3.43373 2.33568
# Velocity P-wave (km/s) = 5.01394 7.35605 6.29488
#
# Compressibility (1/GPa) = 0.01992959
#
# Stress axis : x y z
#
# Youngs Moduli (GPa) = 73.06213 47.96387 151.59391
#
# Poissons Ratio (x) = 0.15846 0.50438
# Poissons Ratio (y) = 0.24138 0.60191
# Poissons Ratio (z) = 0.24309 0.19044
#
# Static dielectric constant tensor:
#      x y z
#    x 3.577200 0.000000 0.000000 
#    y 0.000000 2.945780 0.000000 
#    z 0.000000 0.000000 4.655900 
# 
# 
# High freq. dielectric constant tensor:
#      x y z
#    x 1.744720 0.000000 0.000000 
#    y 0.000000 1.682420 0.000000 
#    z 0.000000 0.000000 1.782410 
# 
# From -- ./inp_files/58804.got.cif
#   From: 2010.03.12/outbox.cif.g09.slc.cpg/sg65_30_cif.got.tgz:58804.got - 2010.04.10 20:52:16.
