data_PCOD8273294
_publ_section_title
;
Structure prediction by ZEFSAII (Michael W. Deem and Ramdas Pophale) SiO2 
 PCOD8273294
Probable space group: C M M M
;
_chemical_formula_sum "Si O2"
_cell_formula_units_Z 88
_cell_length_a 23.921507
_cell_length_b 22.711523
_cell_length_c 8.969320
_cell_angle_alpha 90.000000
_cell_angle_beta 90.000000
_cell_angle_gamma 90.000000
_cell_volume 4872.976452
_symmetry_space_group_name_H-M "C M M M"
_symmetry_group_IT_number 65
_symmetry_cell_setting 'orthorhombic'
loop_
_space_group_symop_operation_xyz
x,y,z
-x,-y,z
x,-y,-z
-x,y,-z
-x,-y,-z
x,y,-z
-x,y,z
x,-y,z
1/2+x,1/2+y,z
1/2-x,1/2-y,z
1/2+x,1/2-y,-z
1/2-x,1/2+y,-z
1/2-x,1/2-y,-z
1/2+x,1/2+y,-z
1/2-x,1/2+y,z
1/2+x,1/2-y,z
loop_
_atom_site_type_symbol
_atom_site_label
_atom_site_fract_x
_atom_site_fract_y
_atom_site_fract_z
Si Si1 0.859629 0.068503 0.829130
Si Si2 0.437149 0.000000 0.322734
Si Si3 0.628477 0.885618 0.676399
Si Si4 0.435763 0.340254 0.327525
Si Si5 0.435526 0.780114 0.174832
Si Si6 0.767849 0.432522 0.827460
O O1 0.899199 0.104140 0.719309
O O2 0.795712 0.087391 0.799375
O O3 0.867710 0.000000 0.793329
O O4 0.875907 0.081727 0.000000
O O5 0.405811 0.057960 0.263065
O O6 0.500000 0.000000 0.258416
O O7 0.437767 0.000000 0.500000
O O8 0.625909 0.880949 0.500000
O O9 0.602529 0.827403 0.744472
O O10 0.692540 0.891236 0.728402
O O11 0.425639 0.325815 0.500000
O O12 0.500000 0.356329 0.295346
O O13 0.417131 0.283855 0.232217
O O14 0.500000 0.792464 0.216188
O O15 0.424843 0.783272 0.000000
O O16 0.775804 0.500000 0.777183
O O17 0.783789 0.425117 0.000000
#
# Coordination Sequence:
#
# PCOD8273294 Si02
#       6
#    16   8  16  16  16  16
#     4   9  19  36  58  83 110 143 179 216 263 317
#     4   9  18  30  45  71 107 141 174 217 266 313
#     4  11  20  32  52  78 108 143 182 223 270 320
#     4  10  21  37  57  82 111 141 173 216 270 322
#     4  10  21  37  56  77 104 142 184 223 267 321
#     4   9  18  34  54  76 107 144 181 222 266 314
#
# _framework density 18.058779000000001
#
# number of rings (size 3 to 8) (size 9 to 14) (size 15 to 20)
#    0.000    2.273    0.909    3.273    0.000    4.364 
#    0.000    4.545    0.000    7.636    0.000    0.000 
#    0.000    0.000    0.000    0.000    0.000    0.000 
#
# Total GULP energy -545746.363160 kJ/mol
# GULP energy per Si atom -12403.326435 kJ/mol
# Density = 1.801768 g / cm^3
# Si number density = 18.058779 Si / 1000 Ang^3
#
#
#
# Elastic Constant Matrix: (Units=GPa)
#
#
# Indices 1 2 3 4 5 6 
#
# 1 95.6503 59.8767 46.9806 0.0000 0.0000 0.0000
# 2 59.8767 91.5519 43.2181 0.0000 0.0000 0.0000
# 3 46.9806 43.2181 76.1529 0.0000 0.0000 0.0000
# 4 0.0000 0.0000 0.0000 33.5530 0.0000 0.0000
# 5 0.0000 0.0000 0.0000 0.0000 31.3134 0.0000
# 6 0.0000 0.0000 0.0000 0.0000 0.0000 29.6433
#
#
#
# Elastic Compliance Matrix: (Units=1/GPa)
#
#
# Indices 1 2 3 4 5 6 
#
# 1 0.019917 -0.009870 -0.006686 0.000000 0.000000 0.000000
# 2 -0.009870 0.019811 -0.005154 0.000000 0.000000 0.000000
# 3 -0.006686 -0.005154 0.020181 0.000000 0.000000 0.000000
# 4 0.000000 0.000000 0.000000 0.029804 0.000000 0.000000
# 5 0.000000 0.000000 0.000000 0.000000 0.031935 0.000000
# 6 0.000000 0.000000 0.000000 0.000000 0.000000 0.033734
#
#
# Mechanical properties :
#
#
# Convention : Reuss Voigt Hill
#
# Bulk Modulus (GPa) = 60.64529 62.61177 61.62853
# Shear Modulus (GPa) = 24.47386 26.45394 25.46390
#
# Velocity S-wave (km/s) = 3.68534 3.83153 3.75915
# Velocity P-wave (km/s) = 7.19473 7.37024 7.28301
#
# Compressibility (1/GPa) = 0.01648933
#
# Stress axis : x y z
#
# Youngs Moduli (GPa) = 50.20727 50.47694 49.55100
#
# Poissons Ratio (x) = 0.49822 0.33130
# Poissons Ratio (y) = 0.49555 0.25538
# Poissons Ratio (z) = 0.33569 0.26016
#
# Static dielectric constant tensor:
#      x y z
#    x 3.334610 0.000000 0.000000 
#    y 0.000000 3.233810 0.000000 
#    z 0.000000 0.000000 3.240840 
# 
# 
# High freq. dielectric constant tensor:
#      x y z
#    x 1.699840 0.000000 0.000000 
#    y 0.000000 1.692760 0.000000 
#    z 0.000000 0.000000 1.698050 
# 
# From -- ./inp_files/11700.got.cif
#   From: 2010.03.12/outbox.cif.g09.slc.cpg/sg65_6_cif.got.tgz:11700.got - 2010.04.10 20:52:16.
