data_PCOD8273597
_publ_section_title
;
Structure prediction by ZEFSAII (Michael W. Deem and Ramdas Pophale) SiO2 
 PCOD8273597
Probable space group: C M M M
;
_chemical_formula_sum "Si O2"
_cell_formula_units_Z 80
_cell_length_a 8.849430
_cell_length_b 19.003117
_cell_length_c 25.275566
_cell_angle_alpha 90.000000
_cell_angle_beta 90.000000
_cell_angle_gamma 90.000000
_cell_volume 4250.509881
_symmetry_space_group_name_H-M "C M M M"
_symmetry_group_IT_number 65
_symmetry_cell_setting 'orthorhombic'
loop_
_space_group_symop_operation_xyz
x,y,z
-x,-y,z
x,-y,-z
-x,y,-z
-x,-y,-z
x,y,-z
-x,y,z
x,-y,z
1/2+x,1/2+y,z
1/2-x,1/2-y,z
1/2+x,1/2-y,-z
1/2-x,1/2+y,-z
1/2-x,1/2-y,-z
1/2+x,1/2+y,-z
1/2-x,1/2+y,z
1/2+x,1/2-y,z
loop_
_atom_site_type_symbol
_atom_site_label
_atom_site_fract_x
_atom_site_fract_y
_atom_site_fract_z
Si Si1 0.673857 0.581420 0.846039
Si Si2 0.677963 0.326593 0.647248
Si Si3 0.176301 0.418151 0.262128
Si Si4 0.174013 0.580325 0.561545
Si Si5 0.178267 0.176776 0.058997
O O1 0.500000 0.600053 0.833538
O O2 0.695660 0.500000 0.857896
O O3 0.774102 0.605562 0.796383
O O4 0.733879 0.619732 0.898604
O O5 0.500000 0.317821 0.649720
O O6 0.750000 0.250000 0.648926
O O7 0.732066 0.372292 0.696526
O O8 0.721928 0.366031 0.593308
O O9 0.215882 0.500000 0.271550
O O10 0.000000 0.403468 0.269454
O O11 0.198384 0.596020 0.500000
O O12 0.220205 0.500000 0.574798
O O13 0.000000 0.592362 0.577713
O O14 0.250000 0.250000 0.076076
O O15 0.000000 0.184994 0.060326
O O16 0.232216 0.154272 0.000000
#
# Coordination Sequence:
#
# PCOD8273597 Si02
#       5
#    16  16  16  16  16
#     4   9  18  33  53  77 104 135 175 221 265 312
#     4  12  25  39  57  82 113 147 184 227 273 321
#     4  10  21  38  59  81 108 142 179 221 271 327
#     4   9  19  38  63  88 115 148 184 222 267 320
#     4   9  18  32  50  73 102 137 174 213 261 316
#
# _framework density 18.821272
#
# number of rings (size 3 to 8) (size 9 to 14) (size 15 to 20)
#    0.000    2.200    0.000    3.600    0.000    6.800 
#    0.000    5.000    0.000    0.000    0.000    5.600 
#    0.000    0.000    0.000    0.000    0.000    0.000 
#
# Total GULP energy -496079.268643 kJ/mol
# GULP energy per Si atom -12401.981716 kJ/mol
# Density = 1.877843 g / cm^3
# Si number density = 18.821272 Si / 1000 Ang^3
#
#
#
# Elastic Constant Matrix: (Units=GPa)
#
#
# Indices 1 2 3 4 5 6 
#
# 1 98.9599 60.8172 58.7426 0.0000 0.0000 0.0000
# 2 60.8172 103.3552 77.8325 0.0000 0.0000 0.0000
# 3 58.7426 77.8325 127.7823 0.0000 0.0000 0.0000
# 4 0.0000 0.0000 0.0000 -9.3381 0.0000 0.0000
# 5 0.0000 0.0000 0.0000 0.0000 30.7649 0.0000
# 6 0.0000 0.0000 0.0000 0.0000 0.0000 30.6744
#
#
#
# Elastic Compliance Matrix: (Units=1/GPa)
#
#
# Indices 1 2 3 4 5 6 
#
# 1 0.016461 -0.007366 -0.003080 0.000000 0.000000 0.000000
# 2 -0.007366 0.021170 -0.009509 0.000000 0.000000 0.000000
# 3 -0.003080 -0.009509 0.015034 0.000000 0.000000 0.000000
# 4 0.000000 0.000000 0.000000 -0.107088 0.000000 0.000000
# 5 0.000000 0.000000 0.000000 0.000000 0.032505 0.000000
# 6 0.000000 0.000000 0.000000 0.000000 0.000000 0.032600
#
#
# Mechanical properties :
#
#
# Convention : Reuss Voigt Hill
#
# Bulk Modulus (GPa) = 78.40509 80.54245 79.47377
# Shear Modulus (GPa) = 91.16811 19.26725 55.21768
#
# Velocity S-wave (km/s) = 6.96735 3.20299 5.42232
# Velocity P-wave (km/s) = 10.31860 7.52098 9.02880
#
# Compressibility (1/GPa) = 0.01275427
#
# Stress axis : x y z
#
# Youngs Moduli (GPa) = 60.75116 47.23562 66.51781
#
# Poissons Ratio (x) = 0.34795 0.20489
# Poissons Ratio (y) = 0.44751 0.63249
# Poissons Ratio (z) = 0.18713 0.44915
#
# Static dielectric constant tensor:
#      x y z
#    x 3.438630 0.000000 0.000000 
#    y 0.000000 3.453530 0.000000 
#    z 0.000000 0.000000 3.694800 
# 
# 
# High freq. dielectric constant tensor:
#      x y z
#    x 1.727610 0.000000 0.000000 
#    y 0.000000 1.728020 0.000000 
#    z 0.000000 0.000000 1.745050 
# 
# From -- ./inp_files/72769.got.cif
#   From: 2010.03.12/outbox.cif.g09.slc.cpg/sg65_37_cif.got.tgz:72769.got - 2010.04.10 20:52:16.
