data_PCOD8273121
_publ_section_title
;
Structure prediction by ZEFSAII (Michael W. Deem and Ramdas Pophale) SiO2 
 PCOD8273121
Probable space group: C M M M
;
_chemical_formula_sum "Si O2"
_cell_formula_units_Z 64
_cell_length_a 8.838365
_cell_length_b 16.447433
_cell_length_c 21.829883
_cell_angle_alpha 90.000000
_cell_angle_beta 90.000000
_cell_angle_gamma 90.000000
_cell_volume 3173.375517
_symmetry_space_group_name_H-M "C M M M"
_symmetry_group_IT_number 65
_symmetry_cell_setting 'orthorhombic'
loop_
_space_group_symop_operation_xyz
x,y,z
-x,-y,z
x,-y,-z
-x,y,-z
-x,-y,-z
x,y,-z
-x,y,z
x,-y,z
1/2+x,1/2+y,z
1/2-x,1/2-y,z
1/2+x,1/2-y,-z
1/2-x,1/2+y,-z
1/2-x,1/2-y,-z
1/2+x,1/2+y,-z
1/2-x,1/2+y,z
1/2+x,1/2-y,z
loop_
_atom_site_type_symbol
_atom_site_label
_atom_site_fract_x
_atom_site_fract_y
_atom_site_fract_z
Si Si1 0.319639 0.662394 0.371435
Si Si2 0.819348 0.336392 0.000000
Si Si3 0.676542 0.332524 0.768216
Si Si4 0.335389 0.907594 0.124581
Si Si5 0.326300 0.000000 0.572410
O O1 0.500000 0.666186 0.381305
O O2 0.250000 0.750000 0.393684
O O3 0.272459 0.647433 0.300936
O O4 0.254512 0.583628 0.406326
O O5 0.750000 0.250000 0.000000
O O6 0.756145 0.375765 0.937401
O O7 0.000000 0.339434 0.000000
O O8 0.500000 0.323272 0.770717
O O9 0.750000 0.250000 0.792180
O O10 0.730320 0.400491 0.815563
O O11 0.500000 0.865204 0.136070
O O12 0.364819 0.000000 0.112094
O O13 0.500000 0.000000 0.595721
O O14 0.318780 0.000000 0.500000
#
# Coordination Sequence:
#
# PCOD8273121 Si02
#       5
#    16   8  16  16   8
#     4  10  22  41  65  93 127 167 209 257 310 365
#     4  10  21  37  55  75 105 144 191 238 286 346
#     4  10  21  37  58  85 116 149 191 240 290 348
#     4  10  21  36  55  80 110 148 189 235 291 348
#     4  11  25  43  65  95 129 166 209 254 303 365
#
# _framework density 20.167798999999999
#
# number of rings (size 3 to 8) (size 9 to 14) (size 15 to 20)
#    0.000    1.875    0.000    3.000    1.750    9.500 
#    0.000    0.000    0.000    2.250    0.000    0.000 
#    0.000    0.000    0.000    0.000    0.000    0.000 
#
# Total GULP energy -396573.500010 kJ/mol
# GULP energy per Si atom -12392.921875 kJ/mol
# Density = 2.012190 g / cm^3
# Si number density = 20.167799 Si / 1000 Ang^3
#
#
#
# Elastic Constant Matrix: (Units=GPa)
#
#
# Indices 1 2 3 4 5 6 
#
# 1 73.4398 44.6888 38.2171 0.0000 0.0000 0.0000
# 2 44.6888 132.9315 51.9252 0.0000 0.0000 0.0000
# 3 38.2171 51.9252 99.9938 0.0000 0.0000 0.0000
# 4 0.0000 0.0000 0.0000 42.3838 0.0000 0.0000
# 5 0.0000 0.0000 0.0000 0.0000 -0.2280 0.0000
# 6 0.0000 0.0000 0.0000 0.0000 0.0000 32.5657
#
#
#
# Elastic Compliance Matrix: (Units=1/GPa)
#
#
# Indices 1 2 3 4 5 6 
#
# 1 0.018865 -0.004423 -0.004913 0.000000 0.000000 0.000000
# 2 -0.004423 0.010474 -0.003749 0.000000 0.000000 0.000000
# 3 -0.004913 -0.003749 0.013825 0.000000 0.000000 0.000000
# 4 0.000000 0.000000 0.000000 0.023594 0.000000 0.000000
# 5 0.000000 0.000000 0.000000 0.000000 -4.385411 0.000000
# 6 0.000000 0.000000 0.000000 0.000000 0.000000 0.030707
#
#
# Mechanical properties :
#
#
# Convention : Reuss Voigt Hill
#
# Bulk Modulus (GPa) = 58.84315 64.00304 61.42310
# Shear Modulus (GPa) = -1.17478 26.37988 12.60255
#
# Velocity S-wave (km/s) = -0.76405 3.62058 2.50248
# Velocity P-wave (km/s) = 5.33496 7.02013 6.23474
#
# Compressibility (1/GPa) = 0.01699433
#
# Stress axis : x y z
#
# Youngs Moduli (GPa) = 53.00907 95.47710 72.33261
#
# Poissons Ratio (x) = 0.42227 0.35540
# Poissons Ratio (y) = 0.23444 0.27114
# Poissons Ratio (z) = 0.26045 0.35790
#
# Static dielectric constant tensor:
#      x y z
#    x 3.653380 0.000000 0.000000 
#    y 0.000000 3.609060 0.000000 
#    z 0.000000 0.000000 3.684180 
# 
# 
# High freq. dielectric constant tensor:
#      x y z
#    x 1.787750 0.000000 0.000000 
#    y 0.000000 1.791070 0.000000 
#    z 0.000000 0.000000 1.794500 
# 
# From -- ./inp_files/66777.got.cif
#   From: 2010.03.12/outbox.cif.g09.slc.cpg/sg65_34_cif.got.tgz:66777.got - 2010.04.10 20:52:16.
