data_PCOD8273585
_publ_section_title
;
Structure prediction by ZEFSAII (Michael W. Deem and Ramdas Pophale) SiO2 
 PCOD8273585
Probable space group: C M M M
;
_chemical_formula_sum "Si O2"
_cell_formula_units_Z 92
_cell_length_a 14.821211
_cell_length_b 14.864582
_cell_length_c 20.469648
_cell_angle_alpha 90.000000
_cell_angle_beta 90.000000
_cell_angle_gamma 90.000000
_cell_volume 4509.690795
_symmetry_space_group_name_H-M "C M M M"
_symmetry_group_IT_number 65
_symmetry_cell_setting 'orthorhombic'
loop_
_space_group_symop_operation_xyz
x,y,z
-x,-y,z
x,-y,-z
-x,y,-z
-x,-y,-z
x,y,-z
-x,y,z
x,-y,z
1/2+x,1/2+y,z
1/2-x,1/2-y,z
1/2+x,1/2-y,-z
1/2-x,1/2+y,-z
1/2-x,1/2-y,-z
1/2+x,1/2+y,-z
1/2-x,1/2+y,z
1/2+x,1/2-y,z
loop_
_atom_site_type_symbol
_atom_site_label
_atom_site_fract_x
_atom_site_fract_y
_atom_site_fract_z
Si Si1 0.336206 0.190726 0.428422
Si Si2 0.791870 0.653080 0.293939
Si Si3 0.752698 0.355412 0.924873
Si Si4 0.400516 0.898323 0.178863
Si Si5 0.159439 0.000000 0.256319
Si Si6 0.000000 0.187825 0.576026
Si Si7 0.393886 0.500000 0.888707
Si Si8 0.500000 0.500000 0.354675
O O1 0.360777 0.145293 0.500000
O O2 0.250000 0.250000 0.442115
O O3 0.321561 0.120629 0.367677
O O4 0.413245 0.256770 0.401382
O O5 0.750000 0.750000 0.304244
O O6 0.873203 0.661117 0.241935
O O7 0.720598 0.587765 0.260500
O O8 0.750000 0.250000 0.906388
O O9 0.832160 0.395817 0.881515
O O10 0.658371 0.409449 0.913113
O O11 0.780198 0.367656 0.000000
O O12 0.500000 0.866264 0.155598
O O13 0.403426 0.000000 0.204632
O O14 0.090134 0.000000 0.314104
O O15 0.105323 0.000000 0.189126
O O16 0.000000 0.175141 0.500000
O O17 0.000000 0.088456 0.602926
O O18 0.500000 0.500000 0.912336
#
# Coordination Sequence:
#
# PCOD8273585 Si02
#       8
#    16  16  16  16   8   8   8   4
#     4   9  19  36  56  82 115 158 208 255 306 371
#     4  11  21  40  62  85 123 168 207 262 323 375
#     4  11  24  45  70  98 133 168 212 267 319 387
#     4  11  23  40  64  93 125 164 212 259 314 383
#     4  12  24  40  60  91 130 159 211 268 309 381
#     4  10  21  38  58  87 128 162 206 260 319 385
#     4  12  25  46  69  98 137 183 214 267 332 397
#     4  12  21  34  56  94 121 164 208 254 318 374
#
# _framework density 20.400511999999999
#
# number of rings (size 3 to 8) (size 9 to 14) (size 15 to 20)
#    0.000    1.217    3.913    3.000    1.217    1.739 
#    1.565    3.913    0.000    0.000    0.000    3.043 
#    0.000    0.000    0.000    0.000    0.000    0.000 
#
# Total GULP energy -570033.687471 kJ/mol
# GULP energy per Si atom -12392.036684 kJ/mol
# Density = 2.035408 g / cm^3
# Si number density = 20.400512 Si / 1000 Ang^3
#
#
#
# Elastic Constant Matrix: (Units=GPa)
#
#
# Indices 1 2 3 4 5 6 
#
# 1 138.8636 29.3177 32.7484 0.0000 0.0000 0.0000
# 2 29.3177 78.5259 16.5991 0.0000 0.0000 0.0000
# 3 32.7484 16.5991 119.0168 0.0000 0.0000 0.0000
# 4 0.0000 0.0000 0.0000 25.6012 0.0000 0.0000
# 5 0.0000 0.0000 0.0000 0.0000 21.9377 0.0000
# 6 0.0000 0.0000 0.0000 0.0000 0.0000 16.6142
#
#
#
# Elastic Compliance Matrix: (Units=1/GPa)
#
#
# Indices 1 2 3 4 5 6 
#
# 1 0.008209 -0.002666 -0.001887 0.000000 0.000000 0.000000
# 2 -0.002666 0.013987 -0.001217 0.000000 0.000000 0.000000
# 3 -0.001887 -0.001217 0.009091 0.000000 0.000000 0.000000
# 4 0.000000 0.000000 0.000000 0.039061 0.000000 0.000000
# 5 0.000000 0.000000 0.000000 0.000000 0.045584 0.000000
# 6 0.000000 0.000000 0.000000 0.000000 0.000000 0.060189
#
#
# Mechanical properties :
#
#
# Convention : Reuss Voigt Hill
#
# Bulk Modulus (GPa) = 50.64011 54.85964 52.74987
# Shear Modulus (GPa) = 25.74079 30.01336 27.87708
#
# Velocity S-wave (km/s) = 3.55600 3.83979 3.70062
# Velocity P-wave (km/s) = 6.46042 6.82703 6.64625
#
# Compressibility (1/GPa) = 0.01974719
#
# Stress axis : x y z
#
# Youngs Moduli (GPa) = 121.81473 71.49331 109.99695
#
# Poissons Ratio (x) = 0.19060 0.20756
# Poissons Ratio (y) = 0.32476 0.13389
# Poissons Ratio (z) = 0.22986 0.08702
#
# Static dielectric constant tensor:
#      x y z
#    x 4.187840 0.000000 0.000000 
#    y 0.000000 3.533630 0.000000 
#    z 0.000000 0.000000 4.015670 
# 
# 
# High freq. dielectric constant tensor:
#      x y z
#    x 1.802220 0.000000 0.000000 
#    y 0.000000 1.773160 0.000000 
#    z 0.000000 0.000000 1.820320 
# 
# From -- ./inp_files/62711.got.cif
#   From: 2010.03.12/outbox.cif.g09.slc.cpg/sg65_32_cif.got.tgz:62711.got - 2010.04.10 20:52:16.
