data_PCOD8273501
_publ_section_title
;
Structure prediction by ZEFSAII (Michael W. Deem and Ramdas Pophale) SiO2 
 PCOD8273501
Probable space group: C M M M
;
_chemical_formula_sum "Si O2"
_cell_formula_units_Z 112
_cell_length_a 15.245975
_cell_length_b 15.859212
_cell_length_c 22.903147
_cell_angle_alpha 90.000000
_cell_angle_beta 90.000000
_cell_angle_gamma 90.000000
_cell_volume 5537.732438
_symmetry_space_group_name_H-M "C M M M"
_symmetry_group_IT_number 65
_symmetry_cell_setting 'orthorhombic'
loop_
_space_group_symop_operation_xyz
x,y,z
-x,-y,z
x,-y,-z
-x,y,-z
-x,-y,-z
x,y,-z
-x,y,z
x,-y,z
1/2+x,1/2+y,z
1/2-x,1/2-y,z
1/2+x,1/2-y,-z
1/2-x,1/2+y,-z
1/2-x,1/2-y,-z
1/2+x,1/2+y,-z
1/2-x,1/2+y,z
1/2+x,1/2-y,z
loop_
_atom_site_type_symbol
_atom_site_label
_atom_site_fract_x
_atom_site_fract_y
_atom_site_fract_z
Si Si1 0.598154 0.594754 0.640866
Si Si2 0.406059 0.862556 0.934009
Si Si3 0.215102 0.907118 0.064779
Si Si4 0.649005 0.744658 0.723767
Si Si5 0.901376 0.595013 0.344725
Si Si6 0.402185 0.297199 0.853532
Si Si7 0.744697 0.151020 0.432743
O O1 0.500000 0.602792 0.615285
O O2 0.613260 0.500000 0.666611
O O3 0.608654 0.664094 0.691252
O O4 0.664739 0.609590 0.587949
O O5 0.500000 0.911931 0.924882
O O6 0.319125 0.916508 0.920718
O O7 0.406315 0.783971 0.892411
O O8 0.401496 0.828831 0.000000
O O9 0.166022 0.859618 0.116294
O O10 0.174970 0.000000 0.063778
O O11 0.201168 0.865721 0.000000
O O12 0.750000 0.750000 0.706770
O O13 0.607177 0.834613 0.705964
O O14 0.635184 0.729864 0.791558
O O15 0.882273 0.500000 0.319983
O O16 0.837057 0.613321 0.398092
O O17 0.000000 0.599533 0.369456
O O18 0.500000 0.337246 0.847731
O O19 0.730481 0.128466 0.500000
O O20 0.750000 0.250000 0.421397
#
# Coordination Sequence:
#
# PCOD8273501 Si02
#       7
#    16  16  16  16  16  16  16
#     4  11  23  40  63  90 124 167 209 253 307 363
#     4   9  18  35  59  85 114 152 199 250 305 360
#     4  10  21  37  58  87 123 160 200 250 309 370
#     4  12  23  41  65  89 122 162 207 259 310 366
#     4  11  23  41  66  93 124 162 202 253 317 376
#     4  11  23  38  59  85 117 157 202 251 299 357
#     4  11  23  41  66  95 127 166 208 255 309 367
#
# _framework density 20.224885
#
# number of rings (size 3 to 8) (size 9 to 14) (size 15 to 20)
#    0.000    1.286    2.857    3.429    0.000    4.857 
#    0.000    7.143    0.000    0.857    0.000    0.000 
#    0.000    0.000    0.000    0.000    0.000    0.000 
#
# Total GULP energy -694046.419402 kJ/mol
# GULP energy per Si atom -12393.686061 kJ/mol
# Density = 2.017885 g / cm^3
# Si number density = 20.224885 Si / 1000 Ang^3
#
#
#
# Elastic Constant Matrix: (Units=GPa)
#
#
# Indices 1 2 3 4 5 6 
#
# 1 143.6666 51.2460 57.0260 0.0000 0.0000 0.0000
# 2 51.2460 136.2300 61.1324 0.0000 0.0000 0.0000
# 3 57.0260 61.1324 112.2568 0.0000 0.0000 0.0000
# 4 0.0000 0.0000 0.0000 19.2343 0.0000 0.0000
# 5 0.0000 0.0000 0.0000 0.0000 14.9171 0.0000
# 6 0.0000 0.0000 0.0000 0.0000 0.0000 70.0314
#
#
#
# Elastic Compliance Matrix: (Units=1/GPa)
#
#
# Indices 1 2 3 4 5 6 
#
# 1 0.009030 -0.001771 -0.003623 0.000000 0.000000 0.000000
# 2 -0.001771 0.010062 -0.004580 0.000000 0.000000 0.000000
# 3 -0.003623 -0.004580 0.013243 0.000000 0.000000 0.000000
# 4 0.000000 0.000000 0.000000 0.051990 0.000000 0.000000
# 5 0.000000 0.000000 0.000000 0.000000 0.067037 0.000000
# 6 0.000000 0.000000 0.000000 0.000000 0.000000 0.014279
#
#
# Mechanical properties :
#
#
# Convention : Reuss Voigt Hill
#
# Bulk Modulus (GPa) = 80.72789 81.21800 80.97294
# Shear Modulus (GPa) = 26.35483 35.68650 31.02066
#
# Velocity S-wave (km/s) = 3.61375 4.20513 3.92061
# Velocity P-wave (km/s) = 7.57720 7.98888 7.78576
#
# Compressibility (1/GPa) = 0.01238729
#
# Stress axis : x y z
#
# Youngs Moduli (GPa) = 110.73726 99.38437 75.51437
#
# Poissons Ratio (x) = 0.17604 0.27357
# Poissons Ratio (y) = 0.19615 0.34583
# Poissons Ratio (z) = 0.40118 0.45515
#
# Static dielectric constant tensor:
#      x y z
#    x 4.241100 0.000000 0.000000 
#    y 0.000000 4.212130 0.000000 
#    z 0.000000 0.000000 3.921970 
# 
# 
# High freq. dielectric constant tensor:
#      x y z
#    x 1.813000 0.000000 0.000000 
#    y 0.000000 1.790010 0.000000 
#    z 0.000000 0.000000 1.776770 
# 
# From -- ./inp_files/70014.got.cif
#   From: 2010.03.12/outbox.cif.g09.slc.cpg/sg65_36_cif.got.tgz:70014.got - 2010.04.10 20:52:16.
