data_PCOD8273461
_publ_section_title
;
Structure prediction by ZEFSAII (Michael W. Deem and Ramdas Pophale) SiO2 
 PCOD8273461
Probable space group: C M M M
;
_chemical_formula_sum "Si O2"
_cell_formula_units_Z 96
_cell_length_a 8.867807
_cell_length_b 18.751427
_cell_length_c 30.483668
_cell_angle_alpha 90.000000
_cell_angle_beta 90.000000
_cell_angle_gamma 90.000000
_cell_volume 5068.947335
_symmetry_space_group_name_H-M "C M M M"
_symmetry_group_IT_number 65
_symmetry_cell_setting 'orthorhombic'
loop_
_space_group_symop_operation_xyz
x,y,z
-x,-y,z
x,-y,-z
-x,y,-z
-x,-y,-z
x,y,-z
-x,y,z
x,-y,z
1/2+x,1/2+y,z
1/2-x,1/2-y,z
1/2+x,1/2-y,-z
1/2-x,1/2+y,-z
1/2-x,1/2-y,-z
1/2+x,1/2+y,-z
1/2-x,1/2+y,z
1/2+x,1/2-y,z
loop_
_atom_site_type_symbol
_atom_site_label
_atom_site_fract_x
_atom_site_fract_y
_atom_site_fract_z
Si Si1 0.174580 0.916789 0.203866
Si Si2 0.177211 0.673306 0.623082
Si Si3 0.320862 0.079754 0.048651
Si Si4 0.826059 0.081461 0.550606
Si Si5 0.174557 0.582145 0.294004
Si Si6 0.821328 0.327071 0.128571
O O1 0.225438 0.894944 0.252555
O O2 0.275280 0.873175 0.170235
O O3 0.000000 0.896961 0.197790
O O4 0.205205 0.000000 0.195585
O O5 0.250000 0.750000 0.625636
O O6 0.223974 0.633639 0.578846
O O7 0.231527 0.628164 0.665012
O O8 0.000000 0.682424 0.622840
O O9 0.500000 0.078428 0.050629
O O10 0.257312 0.134487 0.084720
O O11 0.259698 0.000000 0.058726
O O12 0.267033 0.103908 0.000000
O O13 0.798398 0.100637 0.500000
O O14 0.000000 0.093043 0.563141
O O15 0.778364 0.000000 0.559846
O O16 0.201817 0.500000 0.306350
O O17 0.000000 0.596509 0.282776
O O18 0.750000 0.250000 0.131874
O O19 0.000000 0.319887 0.127345
#
# Coordination Sequence:
#
# PCOD8273461 Si02
#       6
#    16  16  16  16  16  16
#     4  10  21  37  58  83 109 139 178 223 269 320
#     4  11  23  37  55  81 113 148 183 222 269 320
#     4   8  15  30  53  79 104 134 177 224 267 316
#     4   9  19  37  60  84 110 142 181 225 272 322
#     4   9  19  37  59  81 106 139 181 226 271 321
#     4  11  22  35  53  78 110 147 182 220 269 320
#
# _framework density 18.938845000000001
#
# number of rings (size 3 to 8) (size 9 to 14) (size 15 to 20)
#    0.000    2.333    0.000    3.500    0.000    5.667 
#    0.000    4.167    0.000    1.500    0.000    5.833 
#    0.000    0.000    0.000    0.000    0.000    0.000 
#
# Total GULP energy -595288.997653 kJ/mol
# GULP energy per Si atom -12401.854118 kJ/mol
# Density = 1.889574 g / cm^3
# Si number density = 18.938845 Si / 1000 Ang^3
#
#
#
# Elastic Constant Matrix: (Units=GPa)
#
#
# Indices 1 2 3 4 5 6 
#
# 1 60.9994 42.9171 45.4362 0.0000 0.0000 0.0000
# 2 42.9171 107.6032 79.9935 0.0000 0.0000 0.0000
# 3 45.4362 79.9935 132.1781 0.0000 0.0000 0.0000
# 4 0.0000 0.0000 0.0000 5.8761 0.0000 0.0000
# 5 0.0000 0.0000 0.0000 0.0000 18.2003 0.0000
# 6 0.0000 0.0000 0.0000 0.0000 0.0000 1.5985
#
#
#
# Elastic Compliance Matrix: (Units=1/GPa)
#
#
# Indices 1 2 3 4 5 6 
#
# 1 0.024176 -0.006298 -0.004499 0.000000 0.000000 0.000000
# 2 -0.006298 0.018535 -0.009052 0.000000 0.000000 0.000000
# 3 -0.004499 -0.009052 0.014591 0.000000 0.000000 0.000000
# 4 0.000000 0.000000 0.000000 0.170180 0.000000 0.000000
# 5 0.000000 0.000000 0.000000 0.000000 0.054944 0.000000
# 6 0.000000 0.000000 0.000000 0.000000 0.000000 0.625601
#
#
# Mechanical properties :
#
#
# Convention : Reuss Voigt Hill
#
# Bulk Modulus (GPa) = 56.80911 70.83050 63.81981
# Shear Modulus (GPa) = 5.24333 13.96390 9.60361
#
# Velocity S-wave (km/s) = 1.66570 2.71830 2.25430
# Velocity P-wave (km/s) = 5.81039 6.87990 6.36764
#
# Compressibility (1/GPa) = 0.01760281
#
# Stress axis : x y z
#
# Youngs Moduli (GPa) = 41.36392 53.95236 68.53760
#
# Poissons Ratio (x) = 0.33978 0.30835
# Poissons Ratio (y) = 0.26050 0.62043
# Poissons Ratio (z) = 0.18610 0.48840
#
# Static dielectric constant tensor:
#      x y z
#    x 3.299280 0.000000 0.000000 
#    y 0.000000 3.495880 0.000000 
#    z 0.000000 0.000000 3.648130 
# 
# 
# High freq. dielectric constant tensor:
#      x y z
#    x 1.722560 0.000000 0.000000 
#    y 0.000000 1.735440 0.000000 
#    z 0.000000 0.000000 1.748890 
# 
# From -- ./inp_files/73130.got.cif
#   From: 2010.03.12/outbox.cif.g09.slc.cpg/sg65_37_cif.got.tgz:73130.got - 2010.04.10 20:52:16.
