data_PCOD8273091
_publ_section_title
;
Structure prediction by ZEFSAII (Michael W. Deem and Ramdas Pophale) SiO2 
 PCOD8273091
Probable space group: C M M M
;
_chemical_formula_sum "Si O2"
_cell_formula_units_Z 88
_cell_length_a 9.227270
_cell_length_b 18.965944
_cell_length_c 27.980519
_cell_angle_alpha 90.000000
_cell_angle_beta 90.000000
_cell_angle_gamma 90.000000
_cell_volume 4896.699560
_symmetry_space_group_name_H-M "C M M M"
_symmetry_group_IT_number 65
_symmetry_cell_setting 'orthorhombic'
loop_
_space_group_symop_operation_xyz
x,y,z
-x,-y,z
x,-y,-z
-x,y,-z
-x,-y,-z
x,y,-z
-x,y,z
x,-y,z
1/2+x,1/2+y,z
1/2-x,1/2-y,z
1/2+x,1/2-y,-z
1/2-x,1/2+y,-z
1/2-x,1/2-y,-z
1/2+x,1/2+y,-z
1/2-x,1/2+y,z
1/2+x,1/2-y,z
loop_
_atom_site_type_symbol
_atom_site_label
_atom_site_fract_x
_atom_site_fract_y
_atom_site_fract_z
Si Si1 0.339049 0.916126 0.359946
Si Si2 0.832632 0.820192 0.815106
Si Si3 0.670403 0.322208 0.073821
Si Si4 0.162344 0.916197 0.447980
Si Si5 0.670465 0.083516 0.000000
Si Si6 0.334145 0.917018 0.745754
O O1 0.500000 0.886392 0.366156
O O2 0.247646 0.882282 0.403342
O O3 0.280444 0.894138 0.307461
O O4 0.339570 0.000000 0.363489
O O5 0.750000 0.750000 0.799591
O O6 0.807709 0.837783 0.870481
O O7 0.770860 0.884424 0.784869
O O8 0.000000 0.809347 0.803157
O O9 0.500000 0.317575 0.060259
O O10 0.750000 0.250000 0.058766
O O11 0.749657 0.385611 0.046565
O O12 0.229049 0.894613 0.500000
O O13 0.000000 0.887160 0.444726
O O14 0.163266 0.000000 0.443567
O O15 0.500000 0.103314 0.000000
O O16 0.692259 0.000000 0.000000
O O17 0.500000 0.892506 0.753820
O O18 0.322562 0.000000 0.751779
#
# Coordination Sequence:
#
# PCOD8273091 Si02
#       6
#    16  16  16  16   8  16
#     4   8  14  24  37  55  81 115 154 192 234 286
#     4  10  21  36  55  78 102 131 168 208 249 294
#     4  10  21  38  59  80 104 135 170 208 249 294
#     4   8  13  20  30  47  74 109 148 190 236 283
#     4  11  24  39  56  81 111 141 172 205 244 291
#     4   9  18  32  49  70  99 133 165 202 250 299
#
# _framework density 17.971288000000001
#
# number of rings (size 3 to 8) (size 9 to 14) (size 15 to 20)
#    0.000    2.818    0.000    3.273    0.000    5.091 
#    0.000    7.273    0.000    0.000    0.000    0.000 
#    0.000    0.727    0.000    2.364    0.000    5.273 
#
# Total GULP energy -545353.800790 kJ/mol
# GULP energy per Si atom -12394.404563 kJ/mol
# Density = 1.793038 g / cm^3
# Si number density = 17.971288 Si / 1000 Ang^3
#
#
#
# Elastic Constant Matrix: (Units=GPa)
#
#
# Indices 1 2 3 4 5 6 
#
# 1 118.7931 44.6411 70.9426 0.0000 0.0000 0.0000
# 2 44.6411 51.1655 43.1421 0.0000 0.0000 0.0000
# 3 70.9426 43.1421 123.3910 0.0000 0.0000 0.0000
# 4 0.0000 0.0000 0.0000 1.1439 0.0000 0.0000
# 5 0.0000 0.0000 0.0000 0.0000 36.8303 0.0000
# 6 0.0000 0.0000 0.0000 0.0000 0.0000 25.2616
#
#
#
# Elastic Compliance Matrix: (Units=1/GPa)
#
#
# Indices 1 2 3 4 5 6 
#
# 1 0.014903 -0.008194 -0.005704 0.000000 0.000000 0.000000
# 2 -0.008194 0.032220 -0.006554 0.000000 0.000000 0.000000
# 3 -0.005704 -0.006554 0.013675 0.000000 0.000000 0.000000
# 4 0.000000 0.000000 0.000000 0.874210 0.000000 0.000000
# 5 0.000000 0.000000 0.000000 0.000000 0.027152 0.000000
# 6 0.000000 0.000000 0.000000 0.000000 0.000000 0.039586
#
#
# Mechanical properties :
#
#
# Convention : Reuss Voigt Hill
#
# Bulk Modulus (GPa) = 50.26407 67.86681 59.06544
# Shear Modulus (GPa) = 4.76517 21.62208 13.19362
#
# Velocity S-wave (km/s) = 1.63012 3.47240 2.71246
# Velocity P-wave (km/s) = 5.61898 7.34321 6.53818
#
# Compressibility (1/GPa) = 0.01989493
#
# Stress axis : x y z
#
# Youngs Moduli (GPa) = 67.09928 31.03679 73.12452
#
# Poissons Ratio (x) = 0.25430 0.41708
# Poissons Ratio (y) = 0.54978 0.47929
# Poissons Ratio (z) = 0.38272 0.20343
#
# Static dielectric constant tensor:
#      x y z
#    x 3.521380 0.000000 0.000000 
#    y 0.000000 2.833990 0.000000 
#    z 0.000000 0.000000 3.618530 
# 
# 
# High freq. dielectric constant tensor:
#      x y z
#    x 1.699940 0.000000 0.000000 
#    y 0.000000 1.644700 0.000000 
#    z 0.000000 0.000000 1.713750 
# 
# From -- ./inp_files/76618.got.cif
#   From: 2010.03.12/outbox.cif.g09.slc.cpg/sg65_39_cif.got.tgz:76618.got - 2010.04.10 20:52:16.
