data_PCOD8273136
_publ_section_title
;
Structure prediction by ZEFSAII (Michael W. Deem and Ramdas Pophale) SiO2 
 PCOD8273136
Probable space group: C M M M
;
_chemical_formula_sum "Si O2"
_cell_formula_units_Z 88
_cell_length_a 19.288650
_cell_length_b 7.935324
_cell_length_c 29.164686
_cell_angle_alpha 90.000000
_cell_angle_beta 90.000000
_cell_angle_gamma 90.000000
_cell_volume 4463.996048
_symmetry_space_group_name_H-M "C M M M"
_symmetry_group_IT_number 65
_symmetry_cell_setting 'orthorhombic'
loop_
_space_group_symop_operation_xyz
x,y,z
-x,-y,z
x,-y,-z
-x,y,-z
-x,-y,-z
x,y,-z
-x,y,z
x,-y,z
1/2+x,1/2+y,z
1/2-x,1/2-y,z
1/2+x,1/2-y,-z
1/2-x,1/2+y,-z
1/2-x,1/2-y,-z
1/2+x,1/2+y,-z
1/2-x,1/2+y,z
1/2+x,1/2-y,z
loop_
_atom_site_type_symbol
_atom_site_label
_atom_site_fract_x
_atom_site_fract_y
_atom_site_fract_z
Si Si1 0.321861 0.811250 0.197862
Si Si2 0.579002 0.308316 0.273326
Si Si3 0.076894 0.693414 0.630870
Si Si4 0.919803 0.000000 0.945825
Si Si5 0.671577 0.795984 0.904061
Si Si6 0.825910 0.197694 0.448263
O O1 0.250000 0.750000 0.220278
O O2 0.381712 0.797551 0.235278
O O3 0.338824 0.729743 0.148588
O O4 0.309639 0.000000 0.184089
O O5 0.500000 0.244048 0.274189
O O6 0.585372 0.500000 0.257957
O O7 0.609975 0.286383 0.324759
O O8 0.073923 0.500000 0.644307
O O9 0.120211 0.715465 0.585044
O O10 0.000000 0.765628 0.620966
O O11 0.882143 0.824645 0.930859
O O12 0.000000 0.000000 0.927845
O O13 0.919009 0.000000 0.000000
O O14 0.750000 0.750000 0.919753
O O15 0.657196 0.000000 0.911555
O O16 0.839073 0.263689 0.500000
O O17 0.750000 0.250000 0.431653
O O18 0.835447 0.000000 0.445382
#
# Coordination Sequence:
#
# PCOD8273136 Si02
#       6
#    16  16  16   8  16  16
#     4  10  21  36  59  87 118 152 193 243 292 343
#     4  10  21  36  55  81 113 150 189 230 281 341
#     4  10  21  37  56  78 109 145 183 230 276 330
#     4  11  26  44  64  96 135 171 213 269 325 379
#     4  10  21  41  67  95 127 168 217 267 316 379
#     4  10  21  37  57  80 106 137 176 225 279 337
#
# _framework density 19.713279
#
# number of rings (size 3 to 8) (size 9 to 14) (size 15 to 20)
#    0.000    1.909    0.909    2.182    2.545    6.182 
#    0.000    8.182    0.000    0.000    0.000    0.000 
#    0.000    0.000    0.000    0.000    0.000    0.000 
#
# Total GULP energy -545333.674570 kJ/mol
# GULP energy per Si atom -12393.947149 kJ/mol
# Density = 1.966841 g / cm^3
# Si number density = 19.713279 Si / 1000 Ang^3
#
#
#
# Elastic Constant Matrix: (Units=GPa)
#
#
# Indices 1 2 3 4 5 6 
#
# 1 108.6975 37.2597 61.2615 0.0000 0.0000 0.0000
# 2 37.2597 82.3259 25.3395 0.0000 0.0000 0.0000
# 3 61.2615 25.3395 98.6278 0.0000 0.0000 0.0000
# 4 0.0000 0.0000 0.0000 32.0693 0.0000 0.0000
# 5 0.0000 0.0000 0.0000 0.0000 -62.1537 0.0000
# 6 0.0000 0.0000 0.0000 0.0000 0.0000 29.3494
#
#
#
# Elastic Compliance Matrix: (Units=1/GPa)
#
#
# Indices 1 2 3 4 5 6 
#
# 1 0.015495 -0.004398 -0.008495 0.000000 0.000000 0.000000
# 2 -0.004398 0.014438 -0.000978 0.000000 0.000000 0.000000
# 3 -0.008495 -0.000978 0.015667 0.000000 0.000000 0.000000
# 4 0.000000 0.000000 0.000000 0.031182 0.000000 0.000000
# 5 0.000000 0.000000 0.000000 0.000000 -0.016089 0.000000
# 6 0.000000 0.000000 0.000000 0.000000 0.000000 0.034072
#
#
# Mechanical properties :
#
#
# Convention : Reuss Voigt Hill
#
# Bulk Modulus (GPa) = 55.99369 59.70808 57.85089
# Shear Modulus (GPa) = 38.92288 10.90572 24.91430
#
# Velocity S-wave (km/s) = 4.44830 2.35461 3.55890
# Velocity P-wave (km/s) = 7.40600 6.14380 6.80423
#
# Compressibility (1/GPa) = 0.01785915
#
# Stress axis : x y z
#
# Youngs Moduli (GPa) = 64.53701 69.26007 63.83021
#
# Poissons Ratio (x) = 0.30462 0.54221
# Poissons Ratio (y) = 0.28385 0.06240
# Poissons Ratio (z) = 0.54821 0.06771
#
# Static dielectric constant tensor:
#      x y z
#    x 3.574150 0.000000 0.000000 
#    y 0.000000 3.675900 0.000000 
#    z 0.000000 0.000000 3.529370 
# 
# 
# High freq. dielectric constant tensor:
#      x y z
#    x 1.758470 0.000000 0.000000 
#    y 0.000000 1.780250 0.000000 
#    z 0.000000 0.000000 1.770270 
# 
# From -- ./inp_files/77930.got.cif
#   From: 2010.03.12/outbox.cif.g09.slc.cpg/sg65_39_cif.got.tgz:77930.got - 2010.04.10 20:52:16.
