data_PCOD8273093
_publ_section_title
;
Structure prediction by ZEFSAII (Michael W. Deem and Ramdas Pophale) SiO2 
 PCOD8273093
Probable space group: C M M M
;
_chemical_formula_sum "Si O2"
_cell_formula_units_Z 80
_cell_length_a 29.615649
_cell_length_b 9.160992
_cell_length_c 14.933889
_cell_angle_alpha 90.000000
_cell_angle_beta 90.000000
_cell_angle_gamma 90.000000
_cell_volume 4051.694362
_symmetry_space_group_name_H-M "C M M M"
_symmetry_group_IT_number 65
_symmetry_cell_setting 'orthorhombic'
loop_
_space_group_symop_operation_xyz
x,y,z
-x,-y,z
x,-y,-z
-x,y,-z
-x,-y,-z
x,y,-z
-x,y,z
x,-y,z
1/2+x,1/2+y,z
1/2-x,1/2-y,z
1/2+x,1/2-y,-z
1/2-x,1/2+y,-z
1/2-x,1/2-y,-z
1/2+x,1/2+y,-z
1/2-x,1/2+y,z
1/2+x,1/2-y,z
loop_
_atom_site_type_symbol
_atom_site_label
_atom_site_fract_x
_atom_site_fract_y
_atom_site_fract_z
Si Si1 0.117096 0.169721 0.605169
Si Si2 0.609945 0.826299 0.099009
Si Si3 0.793622 0.665275 0.606465
Si Si4 0.708720 0.839778 0.894148
Si Si5 0.052525 0.328952 0.734001
O O1 0.110281 0.193835 0.500000
O O2 0.161727 0.252030 0.640634
O O3 0.073699 0.238437 0.652885
O O4 0.121702 0.000000 0.629092
O O5 0.659826 0.767134 0.126873
O O6 0.573612 0.774537 0.171867
O O7 0.612867 0.000000 0.094377
O O8 0.596121 0.766944 0.000000
O O9 0.792227 0.665296 0.500000
O O10 0.794060 0.500000 0.643506
O O11 0.750000 0.750000 0.644528
O O12 0.750000 0.750000 0.850758
O O13 0.711154 0.000000 0.850605
O O14 0.714840 0.850754 0.000000
O O15 0.061724 0.500000 0.718295
O O16 0.000000 0.292728 0.737412
#
# Coordination Sequence:
#
# PCOD8273093 Si02
#       5
#    16  16  16  16  16
#     4  10  21  37  56  77 104 141 182 221 265 318
#     4   8  15  30  52  77 105 136 169 208 258 316
#     4   9  16  28  50  80 112 143 175 213 258 310
#     4   8  13  23  42  68  98 131 164 198 238 288
#     4  10  21  36  55  79 104 132 172 225 280 328
#
# _framework density 19.744826
#
# number of rings (size 3 to 8) (size 9 to 14) (size 15 to 20)
#    0.000    3.000    0.000    2.400    0.000    4.800 
#    0.000    6.000    0.000    4.200    0.000    1.400 
#    0.000    0.000    0.000    0.000    0.000    0.000 
#
# Total GULP energy -495845.090652 kJ/mol
# GULP energy per Si atom -12396.127266 kJ/mol
# Density = 1.969989 g / cm^3
# Si number density = 19.744826 Si / 1000 Ang^3
#
#
#
# Elastic Constant Matrix: (Units=GPa)
#
#
# Indices 1 2 3 4 5 6 
#
# 1 175.5071 75.5846 57.8532 0.0000 0.0000 0.0000
# 2 75.5846 103.0576 37.7945 0.0000 0.0000 0.0000
# 3 57.8532 37.7945 65.8315 0.0000 0.0000 0.0000
# 4 0.0000 0.0000 0.0000 11.7202 0.0000 0.0000
# 5 0.0000 0.0000 0.0000 0.0000 -11.4602 0.0000
# 6 0.0000 0.0000 0.0000 0.0000 0.0000 33.4213
#
#
#
# Elastic Compliance Matrix: (Units=1/GPa)
#
#
# Indices 1 2 3 4 5 6 
#
# 1 0.009747 -0.005076 -0.005651 0.000000 0.000000 0.000000
# 2 -0.005076 0.014935 -0.004113 0.000000 0.000000 0.000000
# 3 -0.005651 -0.004113 0.022518 0.000000 0.000000 0.000000
# 4 0.000000 0.000000 0.000000 0.085323 0.000000 0.000000
# 5 0.000000 0.000000 0.000000 0.000000 -0.087258 0.000000
# 6 0.000000 0.000000 0.000000 0.000000 0.000000 0.029921
#
#
# Mechanical properties :
#
#
# Convention : Reuss Voigt Hill
#
# Bulk Modulus (GPa) = 57.08303 76.31788 66.70045
# Shear Modulus (GPa) = 45.16485 18.28051 31.72268
#
# Velocity S-wave (km/s) = 4.78789 3.04606 4.01263
# Velocity P-wave (km/s) = 7.71611 7.14894 7.43793
#
# Compressibility (1/GPa) = 0.01751834
#
# Stress axis : x y z
#
# Youngs Moduli (GPa) = 102.59939 66.95877 44.40844
#
# Poissons Ratio (x) = 0.33987 0.25097
# Poissons Ratio (y) = 0.52078 0.18267
# Poissons Ratio (z) = 0.57982 0.27543
#
# Static dielectric constant tensor:
#      x y z
#    x 3.698340 0.000000 0.000000 
#    y 0.000000 3.532970 0.000000 
#    z 0.000000 0.000000 3.440560 
# 
# 
# High freq. dielectric constant tensor:
#      x y z
#    x 1.772700 0.000000 0.000000 
#    y 0.000000 1.743340 0.000000 
#    z 0.000000 0.000000 1.756730 
# 
# From -- ./inp_files/57235.got.cif
#   From: 2010.03.12/outbox.cif.g09.slc.cpg/sg65_29_cif.got.tgz:57235.got - 2010.04.10 20:52:16.
