data_PCOD8273937
_publ_section_title
;
Structure prediction by ZEFSAII (Michael W. Deem and Ramdas Pophale) SiO2 
 PCOD8273937
Probable space group: C M M M
;
_chemical_formula_sum "Si O2"
_cell_formula_units_Z 104
_cell_length_a 23.673540
_cell_length_b 25.180808
_cell_length_c 8.765141
_cell_angle_alpha 90.000000
_cell_angle_beta 90.000000
_cell_angle_gamma 90.000000
_cell_volume 5225.065908
_symmetry_space_group_name_H-M "C M M M"
_symmetry_group_IT_number 65
_symmetry_cell_setting 'orthorhombic'
loop_
_space_group_symop_operation_xyz
x,y,z
-x,-y,z
x,-y,-z
-x,y,-z
-x,-y,-z
x,y,-z
-x,y,z
x,-y,z
1/2+x,1/2+y,z
1/2-x,1/2-y,z
1/2+x,1/2-y,-z
1/2-x,1/2+y,-z
1/2-x,1/2-y,-z
1/2+x,1/2+y,-z
1/2-x,1/2+y,z
1/2+x,1/2-y,z
loop_
_atom_site_type_symbol
_atom_site_label
_atom_site_fract_x
_atom_site_fract_y
_atom_site_fract_z
Si Si1 0.885108 0.250239 0.178957
Si Si2 0.000000 0.612319 0.177468
Si Si3 0.500000 0.562758 0.165896
Si Si4 0.878952 0.059216 0.817649
Si Si5 0.605298 0.060251 0.674712
Si Si6 0.818089 0.343753 0.323855
Si Si7 0.303151 0.654935 0.179904
Si Si8 0.500000 0.772305 0.320197
O O1 0.858948 0.305992 0.228655
O O2 0.843779 0.202882 0.227602
O O3 0.945213 0.241492 0.258865
O O4 0.895328 0.251098 0.000000
O O5 0.054760 0.577796 0.216312
O O6 0.000000 0.666615 0.270524
O O7 0.000000 0.626575 0.000000
O O8 0.500000 0.500000 0.142598
O O9 0.559287 0.577450 0.250243
O O10 0.500000 0.590952 0.000000
O O11 0.831285 0.100052 0.763085
O O12 0.862615 0.000000 0.760171
O O13 0.884189 0.059778 0.000000
O O14 0.584582 0.065691 0.500000
O O15 0.660694 0.096147 0.703037
O O16 0.622654 0.000000 0.714001
O O17 0.821542 0.327133 0.500000
O O18 0.754668 0.337496 0.267882
O O19 0.291112 0.654767 0.000000
O O20 0.500000 0.770242 0.500000
#
# Coordination Sequence:
#
# PCOD8273937 Si02
#       8
#    16   8   8  16  16  16  16   8
#     4  11  23  40  61  87 118 151 190 242 298 350
#     4  12  23  37  61  92 123 155 194 245 303 358
#     4   7  10  19  40  70 101 133 170 212 260 317
#     4   8  14  27  49  78 111 146 183 227 283 346
#     4  10  22  40  61  86 119 160 203 248 297 353
#     4  11  23  39  60  82 111 155 202 243 288 348
#     4  10  22  37  56  84 117 152 193 244 298 345
#     4  12  24  40  64  91 120 156 194 239 297 361
#
# _framework density 19.904056000000001
#
# number of rings (size 3 to 8) (size 9 to 14) (size 15 to 20)
#    0.000    1.923    1.538    3.923    0.000    6.154 
#    0.000    2.308    0.000    0.000    0.000    0.000 
#    0.000    2.462    0.000    0.000    0.000    0.000 
#
# Total GULP energy -644753.394179 kJ/mol
# GULP energy per Si atom -12399.103734 kJ/mol
# Density = 1.985875 g / cm^3
# Si number density = 19.904056 Si / 1000 Ang^3
#
#
#
# Elastic Constant Matrix: (Units=GPa)
#
#
# Indices 1 2 3 4 5 6 
#
# 1 146.3068 48.3546 50.9838 0.0000 0.0000 0.0000
# 2 48.3546 96.1152 33.5975 0.0000 0.0000 0.0000
# 3 50.9838 33.5975 74.0570 0.0000 0.0000 0.0000
# 4 0.0000 0.0000 0.0000 19.0276 0.0000 0.0000
# 5 0.0000 0.0000 0.0000 0.0000 9.5804 0.0000
# 6 0.0000 0.0000 0.0000 0.0000 0.0000 24.4082
#
#
#
# Elastic Compliance Matrix: (Units=1/GPa)
#
#
# Indices 1 2 3 4 5 6 
#
# 1 0.009677 -0.003018 -0.005293 0.000000 0.000000 0.000000
# 2 -0.003018 0.013306 -0.003959 0.000000 0.000000 0.000000
# 3 -0.005293 -0.003959 0.018943 0.000000 0.000000 0.000000
# 4 0.000000 0.000000 0.000000 0.052555 0.000000 0.000000
# 5 0.000000 0.000000 0.000000 0.000000 0.104380 0.000000
# 6 0.000000 0.000000 0.000000 0.000000 0.000000 0.040970
#
#
# Mechanical properties :
#
#
# Convention : Reuss Voigt Hill
#
# Bulk Modulus (GPa) = 57.51555 64.70563 61.11059
# Shear Modulus (GPa) = 18.50711 22.83943 20.67327
#
# Velocity S-wave (km/s) = 3.05260 3.39112 3.22630
# Velocity P-wave (km/s) = 6.43301 6.92187 6.68191
#
# Compressibility (1/GPa) = 0.01738660
#
# Stress axis : x y z
#
# Youngs Moduli (GPa) = 103.33978 75.15131 52.79053
#
# Poissons Ratio (x) = 0.22683 0.27940
# Poissons Ratio (y) = 0.31191 0.20899
# Poissons Ratio (z) = 0.54694 0.29752
#
# Static dielectric constant tensor:
#      x y z
#    x 3.855520 0.000000 0.000000 
#    y 0.000000 3.744880 0.000000 
#    z 0.000000 0.000000 3.360960 
# 
# 
# High freq. dielectric constant tensor:
#      x y z
#    x 1.788250 0.000000 0.000000 
#    y 0.000000 1.777170 0.000000 
#    z 0.000000 0.000000 1.748540 
# 
# From -- ./inp_files/12480.got.cif
#   From: 2010.03.12/outbox.cif.g09.slc.cpg/sg65_7_cif.got.tgz:12480.got - 2010.04.10 20:52:16.
