data_PCOD8273261
_publ_section_title
;
Structure prediction by ZEFSAII (Michael W. Deem and Ramdas Pophale) SiO2 
 PCOD8273261
Probable space group: C M M M
;
_chemical_formula_sum "Si O2"
_cell_formula_units_Z 72
_cell_length_a 9.065020
_cell_length_b 14.398431
_cell_length_c 30.723987
_cell_angle_alpha 90.000000
_cell_angle_beta 90.000000
_cell_angle_gamma 90.000000
_cell_volume 4010.158228
_symmetry_space_group_name_H-M "C M M M"
_symmetry_group_IT_number 65
_symmetry_cell_setting 'orthorhombic'
loop_
_space_group_symop_operation_xyz
x,y,z
-x,-y,z
x,-y,-z
-x,y,-z
-x,-y,-z
x,y,-z
-x,y,z
x,-y,z
1/2+x,1/2+y,z
1/2-x,1/2-y,z
1/2+x,1/2-y,-z
1/2-x,1/2+y,-z
1/2-x,1/2-y,-z
1/2+x,1/2+y,-z
1/2-x,1/2+y,z
1/2+x,1/2-y,z
loop_
_atom_site_type_symbol
_atom_site_label
_atom_site_fract_x
_atom_site_fract_y
_atom_site_fract_z
Si Si1 0.673010 0.151388 0.770121
Si Si2 0.673898 0.500000 0.068223
Si Si3 0.174903 0.500000 0.296009
Si Si4 0.675742 0.000000 0.395355
Si Si5 0.329782 0.652751 0.548927
Si Si6 0.670825 0.000000 0.159714
Si Si7 0.674171 0.349161 0.000000
O O1 0.500000 0.168851 0.766311
O O2 0.750000 0.250000 0.772347
O O3 0.731917 0.093091 0.728294
O O4 0.711274 0.092213 0.813108
O O5 0.500000 0.500000 0.071877
O O6 0.738538 0.500000 0.115916
O O7 0.724621 0.407470 0.042467
O O8 0.229061 0.500000 0.345511
O O9 0.000000 0.500000 0.292413
O O10 0.742620 0.910330 0.417724
O O11 0.500000 0.000000 0.399987
O O12 0.320023 0.611622 0.500000
O O13 0.500000 0.661980 0.563306
O O14 0.250000 0.750000 0.550820
O O15 0.500000 0.000000 0.147659
O O16 0.750000 0.250000 0.000000
O O17 0.500000 0.334144 0.000000
#
# Coordination Sequence:
#
# PCOD8273261 Si02
#       7
#    16   8   8   8  16   8   8
#     4   9  18  35  55  74 100 133 167 205 250 300
#     4   9  19  35  52  72 103 135 167 210 252 292
#     4   8  18  36  53  72 102 136 167 202 248 302
#     4  11  21  34  55  80 106 137 171 210 258 308
#     4  10  21  37  55  76 104 137 173 213 256 304
#     4   9  19  34  52  75 103 133 166 205 252 303
#     4   9  19  35  52  72 100 137 173 207 250 296
#
# _framework density 17.954404
#
# number of rings (size 3 to 8) (size 9 to 14) (size 15 to 20)
#    0.000    2.667    0.000    3.333    0.000    6.222 
#    0.000   11.667    0.000    0.000    0.000    0.000 
#    0.000    0.000    0.000    0.000    0.000    0.000 
#
# Total GULP energy -446299.370883 kJ/mol
# GULP energy per Si atom -12397.204747 kJ/mol
# Density = 1.791354 g / cm^3
# Si number density = 17.954404 Si / 1000 Ang^3
#
#
#
# Elastic Constant Matrix: (Units=GPa)
#
#
# Indices 1 2 3 4 5 6 
#
# 1 71.9463 54.2584 56.8554 0.0000 0.0000 0.0000
# 2 54.2584 158.1453 77.6101 0.0000 0.0000 0.0000
# 3 56.8554 77.6101 143.6544 0.0000 0.0000 0.0000
# 4 0.0000 0.0000 0.0000 19.1393 0.0000 0.0000
# 5 0.0000 0.0000 0.0000 0.0000 28.9584 0.0000
# 6 0.0000 0.0000 0.0000 0.0000 0.0000 38.6687
#
#
#
# Elastic Compliance Matrix: (Units=1/GPa)
#
#
# Indices 1 2 3 4 5 6 
#
# 1 0.022384 -0.004534 -0.006409 0.000000 0.000000 0.000000
# 2 -0.004534 0.009523 -0.003350 0.000000 0.000000 0.000000
# 3 -0.006409 -0.003350 0.011308 0.000000 0.000000 0.000000
# 4 0.000000 0.000000 0.000000 0.052249 0.000000 0.000000
# 5 0.000000 0.000000 0.000000 0.000000 0.034532 0.000000
# 6 0.000000 0.000000 0.000000 0.000000 0.000000 0.025861
#
#
# Mechanical properties :
#
#
# Convention : Reuss Voigt Hill
#
# Bulk Modulus (GPa) = 68.36756 83.46596 75.91676
# Shear Modulus (GPa) = 26.41030 29.68807 28.04918
#
# Velocity S-wave (km/s) = 3.83948 4.07077 3.95681
# Velocity P-wave (km/s) = 7.60372 8.28755 7.95299
#
# Compressibility (1/GPa) = 0.01462682
#
# Stress axis : x y z
#
# Youngs Moduli (GPa) = 44.67517 105.00693 88.43376
#
# Poissons Ratio (x) = 0.47613 0.56680
# Poissons Ratio (y) = 0.20257 0.29629
# Poissons Ratio (z) = 0.28634 0.35181
#
# Static dielectric constant tensor:
#      x y z
#    x 3.183190 0.000000 0.000000 
#    y 0.000000 3.427240 0.000000 
#    z 0.000000 0.000000 3.808440 
# 
# 
# High freq. dielectric constant tensor:
#      x y z
#    x 1.686270 0.000000 0.000000 
#    y 0.000000 1.703610 0.000000 
#    z 0.000000 0.000000 1.698520 
# 
# From -- ./inp_files/76394.got.cif
#   From: 2010.03.12/outbox.cif.g09.slc.cpg/sg65_39_cif.got.tgz:76394.got - 2010.04.10 20:52:16.
