data_PCOD8273836
_publ_section_title
;
Structure prediction by ZEFSAII (Michael W. Deem and Ramdas Pophale) SiO2 
 PCOD8273836
Probable space group: C M M M
;
_chemical_formula_sum "Si O2"
_cell_formula_units_Z 56
_cell_length_a 32.705688
_cell_length_b 11.377825
_cell_length_c 7.778678
_cell_angle_alpha 90.000000
_cell_angle_beta 90.000000
_cell_angle_gamma 90.000000
_cell_volume 2894.598504
_symmetry_space_group_name_H-M "C M M M"
_symmetry_group_IT_number 65
_symmetry_cell_setting 'orthorhombic'
loop_
_space_group_symop_operation_xyz
x,y,z
-x,-y,z
x,-y,-z
-x,y,-z
-x,-y,-z
x,y,-z
-x,y,z
x,-y,z
1/2+x,1/2+y,z
1/2-x,1/2-y,z
1/2+x,1/2-y,-z
1/2-x,1/2+y,-z
1/2-x,1/2-y,-z
1/2+x,1/2+y,-z
1/2-x,1/2+y,z
1/2+x,1/2-y,z
loop_
_atom_site_type_symbol
_atom_site_label
_atom_site_fract_x
_atom_site_fract_y
_atom_site_fract_z
Si Si1 0.841562 0.132061 0.308587
Si Si2 0.920205 0.743547 0.802609
Si Si3 0.500000 0.631548 0.204830
Si Si4 0.452825 0.000000 0.703922
Si Si5 0.219200 0.138992 0.000000
O O1 0.822568 0.144953 0.500000
O O2 0.879518 0.220303 0.296936
O O3 0.806965 0.161251 0.170750
O O4 0.858043 0.000000 0.276855
O O5 0.927783 0.606521 0.783553
O O6 0.959579 0.807432 0.719621
O O7 0.914338 0.780264 0.000000
O O8 0.500000 0.500000 0.271942
O O9 0.500000 0.642229 0.000000
O O10 0.500000 0.000000 0.767649
O O11 0.450744 0.000000 0.500000
O O12 0.250000 0.250000 0.000000
O O13 0.235930 0.000000 0.000000
#
# Coordination Sequence:
#
# PCOD8273836 Si02
#       5
#    16  16   8   8   8
#     4  10  21  39  64  92 124 160 198 246 302 358
#     4  11  20  35  57  81 114 156 207 253 297 353
#     4   9  18  29  49  80 112 148 196 251 295 340
#     4  11  23  37  51  73 117 167 211 258 307 359
#     4  10  22  44  70  97 126 157 197 244 305 380
#
# _framework density 19.346378999999999
#
# number of rings (size 3 to 8) (size 9 to 14) (size 15 to 20)
#    0.000    1.714    2.857    2.143    0.000    2.286 
#    2.571    0.000    0.000    3.429    0.000    0.000 
#    0.000    0.000    0.000    0.000    0.000    0.000 
#
# Total GULP energy -347116.839296 kJ/mol
# GULP energy per Si atom -12397.029975 kJ/mol
# Density = 1.930235 g / cm^3
# Si number density = 19.346379 Si / 1000 Ang^3
#
#
#
# Elastic Constant Matrix: (Units=GPa)
#
#
# Indices 1 2 3 4 5 6 
#
# 1 109.6763 72.9386 46.3560 0.0000 0.0000 0.0000
# 2 72.9386 148.0531 24.7723 0.0000 0.0000 0.0000
# 3 46.3560 24.7723 102.4607 0.0000 0.0000 0.0000
# 4 0.0000 0.0000 0.0000 19.6346 0.0000 0.0000
# 5 0.0000 0.0000 0.0000 0.0000 14.3815 0.0000
# 6 0.0000 0.0000 0.0000 0.0000 0.0000 -227.3153
#
#
#
# Elastic Compliance Matrix: (Units=1/GPa)
#
#
# Indices 1 2 3 4 5 6 
#
# 1 0.016160 -0.007022 -0.005614 0.000000 0.000000 0.000000
# 2 -0.007022 0.010090 0.000737 0.000000 0.000000 0.000000
# 3 -0.005614 0.000737 0.012121 0.000000 0.000000 0.000000
# 4 0.000000 0.000000 0.000000 0.050931 0.000000 0.000000
# 5 0.000000 0.000000 0.000000 0.000000 0.069534 0.000000
# 6 0.000000 0.000000 0.000000 0.000000 0.000000 -0.004399
#
#
# Mechanical properties :
#
#
# Convention : Reuss Voigt Hill
#
# Bulk Modulus (GPa) = 68.60884 72.03600 70.32242
# Shear Modulus (GPa) = 27.30856 -24.25164 1.52846
#
# Velocity S-wave (km/s) = 3.76115 -3.54439 0.88981
# Velocity P-wave (km/s) = 7.37577 4.53491 6.12240
#
# Compressibility (1/GPa) = 0.01457538
#
# Stress axis : x y z
#
# Youngs Moduli (GPa) = 61.87964 99.10375 82.49931
#
# Poissons Ratio (x) = 0.69592 0.46312
# Poissons Ratio (y) = 0.43453 -0.06084
# Poissons Ratio (z) = 0.34737 -0.07308
#
# Static dielectric constant tensor:
#      x y z
#    x 3.286910 0.000000 0.000000 
#    y 0.000000 3.606200 0.000000 
#    z 0.000000 0.000000 3.545900 
# 
# 
# High freq. dielectric constant tensor:
#      x y z
#    x 1.725980 0.000000 0.000000 
#    y 0.000000 1.760210 0.000000 
#    z 0.000000 0.000000 1.760480 
# 
# From -- ./inp_files/4784.got.cif
#   From: 2010.03.12/outbox.cif.g09.slc.cpg/sg65_3_cif.got.tgz:4784.got - 2010.04.10 20:52:16.
