data_PCOD8273858
_publ_section_title
;
Structure prediction by ZEFSAII (Michael W. Deem and Ramdas Pophale) SiO2 
 PCOD8273858
Probable space group: C M M M
;
_chemical_formula_sum "Si O2"
_cell_formula_units_Z 64
_cell_length_a 8.914127
_cell_length_b 15.209193
_cell_length_c 23.869105
_cell_angle_alpha 90.000000
_cell_angle_beta 90.000000
_cell_angle_gamma 90.000000
_cell_volume 3236.093962
_symmetry_space_group_name_H-M "C M M M"
_symmetry_group_IT_number 65
_symmetry_cell_setting 'orthorhombic'
loop_
_space_group_symop_operation_xyz
x,y,z
-x,-y,z
x,-y,-z
-x,y,-z
-x,-y,-z
x,y,-z
-x,y,z
x,-y,z
1/2+x,1/2+y,z
1/2-x,1/2-y,z
1/2+x,1/2-y,-z
1/2-x,1/2+y,-z
1/2-x,1/2-y,-z
1/2+x,1/2+y,-z
1/2-x,1/2+y,z
1/2+x,1/2-y,z
loop_
_atom_site_type_symbol
_atom_site_label
_atom_site_fract_x
_atom_site_fract_y
_atom_site_fract_z
Si Si1 0.833785 0.099319 0.392486
Si Si2 0.822750 0.500000 0.917706
Si Si3 0.321373 0.000000 0.209734
Si Si4 0.822238 0.161059 0.726886
Si Si5 0.674798 0.156807 0.500000
Si Si6 0.322001 0.151813 0.000000
O O1 0.781974 0.155925 0.339255
O O2 0.720803 0.105640 0.444140
O O3 0.000000 0.128769 0.412693
O O4 0.837170 0.000000 0.370737
O O5 0.765073 0.500000 0.854255
O O6 0.768696 0.591448 0.947048
O O7 0.000000 0.500000 0.921730
O O8 0.255818 0.915259 0.239206
O O9 0.500000 0.000000 0.214629
O O10 0.750000 0.250000 0.750385
O O11 0.000000 0.158239 0.736506
O O12 0.500000 0.168352 0.500000
O O13 0.750000 0.250000 0.500000
O O14 0.250000 0.250000 0.000000
O O15 0.500000 0.166540 0.000000
#
# Coordination Sequence:
#
# PCOD8273858 Si02
#       6
#    16   8   8  16   8   8
#     4  10  21  40  62  83 111 147 187 237 296 356
#     4   8  18  36  58  84 119 161 199 238 293 350
#     4  11  22  39  62  89 121 160 203 250 300 353
#     4  11  23  41  62  88 118 157 202 248 301 359
#     4  12  25  38  55  83 113 145 187 237 292 357
#     4   9  17  35  60  86 120 159 199 243 288 344
#
# _framework density 19.776928000000002
#
# number of rings (size 3 to 8) (size 9 to 14) (size 15 to 20)
#    0.000    1.750    1.250    4.125    0.000    7.000 
#    0.000    6.250    0.000    0.000    0.000    0.000 
#    0.000    0.000    0.000    0.000    0.000    0.000 
#
# Total GULP energy -396705.907262 kJ/mol
# GULP energy per Si atom -12397.059602 kJ/mol
# Density = 1.973192 g / cm^3
# Si number density = 19.776928 Si / 1000 Ang^3
#
#
#
# Elastic Constant Matrix: (Units=GPa)
#
#
# Indices 1 2 3 4 5 6 
#
# 1 105.8374 53.2736 67.6305 0.0000 0.0000 0.0000
# 2 53.2736 163.4027 65.4000 0.0000 0.0000 0.0000
# 3 67.6305 65.4000 128.3890 0.0000 0.0000 0.0000
# 4 0.0000 0.0000 0.0000 82.2623 0.0000 0.0000
# 5 0.0000 0.0000 0.0000 0.0000 23.9456 0.0000
# 6 0.0000 0.0000 0.0000 0.0000 0.0000 37.0509
#
#
#
# Elastic Compliance Matrix: (Units=1/GPa)
#
#
# Indices 1 2 3 4 5 6 
#
# 1 0.014817 -0.002144 -0.006713 0.000000 0.000000 0.000000
# 2 -0.002144 0.007997 -0.002944 0.000000 0.000000 0.000000
# 3 -0.006713 -0.002944 0.012825 0.000000 0.000000 0.000000
# 4 0.000000 0.000000 0.000000 0.012156 0.000000 0.000000
# 5 0.000000 0.000000 0.000000 0.000000 0.041761 0.000000
# 6 0.000000 0.000000 0.000000 0.000000 0.000000 0.026990
#
#
# Mechanical properties :
#
#
# Convention : Reuss Voigt Hill
#
# Bulk Modulus (GPa) = 83.07997 85.58191 84.33094
# Shear Modulus (GPa) = 34.68323 42.74011 38.71167
#
# Velocity S-wave (km/s) = 4.19229 4.65382 4.42907
# Velocity P-wave (km/s) = 8.09527 8.49970 8.29995
#
# Compressibility (1/GPa) = 0.01203660
#
# Stress axis : x y z
#
# Youngs Moduli (GPa) = 67.48855 125.04220 77.97368
#
# Poissons Ratio (x) = 0.26809 0.52344
# Poissons Ratio (y) = 0.14470 0.22958
# Poissons Ratio (z) = 0.45306 0.36817
#
# Static dielectric constant tensor:
#      x y z
#    x 3.654420 0.000000 0.000000 
#    y 0.000000 3.698590 0.000000 
#    z 0.000000 0.000000 5.145650 
# 
# 
# High freq. dielectric constant tensor:
#      x y z
#    x 1.761210 0.000000 0.000000 
#    y 0.000000 1.786190 0.000000 
#    z 0.000000 0.000000 1.768660 
# 
# From -- ./inp_files/66893.got.cif
#   From: 2010.03.12/outbox.cif.g09.slc.cpg/sg65_34_cif.got.tgz:66893.got - 2010.04.10 20:52:16.
