data_PCOD8273876
_publ_section_title
;
Structure prediction by ZEFSAII (Michael W. Deem and Ramdas Pophale) SiO2 
 PCOD8273876
Probable space group: C M M M
;
_chemical_formula_sum "Si O2"
_cell_formula_units_Z 72
_cell_length_a 23.047516
_cell_length_b 9.423194
_cell_length_c 15.200519
_cell_angle_alpha 90.000000
_cell_angle_beta 90.000000
_cell_angle_gamma 90.000000
_cell_volume 3301.267177
_symmetry_space_group_name_H-M "C M M M"
_symmetry_group_IT_number 65
_symmetry_cell_setting 'orthorhombic'
loop_
_space_group_symop_operation_xyz
x,y,z
-x,-y,z
x,-y,-z
-x,y,-z
-x,-y,-z
x,y,-z
-x,y,z
x,-y,z
1/2+x,1/2+y,z
1/2-x,1/2-y,z
1/2+x,1/2-y,-z
1/2-x,1/2+y,-z
1/2-x,1/2-y,-z
1/2+x,1/2+y,-z
1/2-x,1/2+y,z
1/2+x,1/2-y,z
loop_
_atom_site_type_symbol
_atom_site_label
_atom_site_fract_x
_atom_site_fract_y
_atom_site_fract_z
Si Si1 0.193375 0.162747 0.191711
Si Si2 0.373750 0.346416 0.366710
Si Si3 0.809540 0.667129 0.500000
Si Si4 0.894205 0.336512 0.099639
Si Si5 0.000000 0.342184 0.790306
Si Si6 0.500000 0.258795 0.601369
O O1 0.250000 0.250000 0.222144
O O2 0.144256 0.170377 0.266382
O O3 0.164155 0.242107 0.108991
O O4 0.209888 0.000000 0.168999
O O5 0.350450 0.500000 0.401436
O O6 0.346286 0.212209 0.415531
O O7 0.442757 0.351816 0.382742
O O8 0.799004 0.500000 0.500000
O O9 0.750000 0.750000 0.500000
O O10 0.878605 0.500000 0.121933
O O11 0.942424 0.272717 0.167196
O O12 0.916969 0.321628 0.000000
O O13 0.000000 0.500000 0.828490
O O14 0.000000 0.351629 0.683289
O O15 0.500000 0.195376 0.500000
#
# Coordination Sequence:
#
# PCOD8273876 Si02
#       6
#    16  16   8  16   8   8
#     4  11  24  42  66  94 129 172 221 273 330 392
#     4  11  24  43  66  94 130 174 220 268 328 396
#     4  12  26  43  66  93 127 170 222 278 331 390
#     4  10  21  40  68  99 131 173 220 267 328 394
#     4  10  21  40  65  95 138 176 214 272 325 390
#     4  12  23  40  67 102 133 175 215 265 328 396
#
# _framework density 21.809806999999999
#
# number of rings (size 3 to 8) (size 9 to 14) (size 15 to 20)
#    0.000    1.111    3.333    3.000    0.000    7.333 
#    0.000    0.556    0.000    1.333    0.000    0.000 
#    0.000    0.000    0.000    0.000    0.000    0.000 
#
# Total GULP energy -446083.598612 kJ/mol
# GULP energy per Si atom -12391.211073 kJ/mol
# Density = 2.176017 g / cm^3
# Si number density = 21.809807 Si / 1000 Ang^3
#
#
#
# Elastic Constant Matrix: (Units=GPa)
#
#
# Indices 1 2 3 4 5 6 
#
# 1 134.3380 60.1777 43.1521 0.0000 0.0000 0.0000
# 2 60.1777 147.0862 36.4217 0.0000 0.0000 0.0000
# 3 43.1521 36.4217 119.3247 0.0000 0.0000 0.0000
# 4 0.0000 0.0000 0.0000 28.0625 0.0000 0.0000
# 5 0.0000 0.0000 0.0000 0.0000 29.0715 0.0000
# 6 0.0000 0.0000 0.0000 0.0000 0.0000 28.9448
#
#
#
# Elastic Compliance Matrix: (Units=1/GPa)
#
#
# Indices 1 2 3 4 5 6 
#
# 1 0.009758 -0.003373 -0.002499 0.000000 0.000000 0.000000
# 2 -0.003373 0.008521 -0.001381 0.000000 0.000000 0.000000
# 3 -0.002499 -0.001381 0.009706 0.000000 0.000000 0.000000
# 4 0.000000 0.000000 0.000000 0.035635 0.000000 0.000000
# 5 0.000000 0.000000 0.000000 0.000000 0.034398 0.000000
# 6 0.000000 0.000000 0.000000 0.000000 0.000000 0.034549
#
#
# Mechanical properties :
#
#
# Convention : Reuss Voigt Hill
#
# Bulk Modulus (GPa) = 74.19712 75.58354 74.89033
# Shear Modulus (GPa) = 32.98916 34.61559 33.80237
#
# Velocity S-wave (km/s) = 3.89341 3.98824 3.94111
# Velocity P-wave (km/s) = 7.36923 7.47924 7.42444
#
# Compressibility (1/GPa) = 0.01347761
#
# Stress axis : x y z
#
# Youngs Moduli (GPa) = 102.48194 117.35930 103.03164
#
# Poissons Ratio (x) = 0.39590 0.25749
# Poissons Ratio (y) = 0.34571 0.14228
# Poissons Ratio (z) = 0.25611 0.16206
#
# Static dielectric constant tensor:
#      x y z
#    x 4.010030 0.000000 0.000000 
#    y 0.000000 3.807410 0.000000 
#    z 0.000000 0.000000 3.834350 
# 
# 
# High freq. dielectric constant tensor:
#      x y z
#    x 1.866920 0.000000 0.000000 
#    y 0.000000 1.841780 0.000000 
#    z 0.000000 0.000000 1.855550 
# 
# From -- ./inp_files/46595.got.cif
#   From: 2010.03.12/outbox.cif.g09.slc.cpg/sg65_24_cif.got.tgz:46595.got - 2010.04.10 20:52:16.
