data_PCOD8273987
_publ_section_title
;
Structure prediction by ZEFSAII (Michael W. Deem and Ramdas Pophale) SiO2 
 PCOD8273987
Probable space group: C M M M
;
_chemical_formula_sum "Si O2"
_cell_formula_units_Z 64
_cell_length_a 26.861194
_cell_length_b 10.058580
_cell_length_c 13.728538
_cell_angle_alpha 90.000000
_cell_angle_beta 90.000000
_cell_angle_gamma 90.000000
_cell_volume 3709.251475
_symmetry_space_group_name_H-M "C M M M"
_symmetry_group_IT_number 65
_symmetry_cell_setting 'orthorhombic'
loop_
_space_group_symop_operation_xyz
x,y,z
-x,-y,z
x,-y,-z
-x,y,-z
-x,-y,-z
x,y,-z
-x,y,z
x,-y,z
1/2+x,1/2+y,z
1/2-x,1/2-y,z
1/2+x,1/2-y,-z
1/2-x,1/2+y,-z
1/2-x,1/2-y,-z
1/2+x,1/2+y,-z
1/2-x,1/2+y,z
1/2+x,1/2-y,z
loop_
_atom_site_type_symbol
_atom_site_label
_atom_site_fract_x
_atom_site_fract_y
_atom_site_fract_z
Si Si1 0.442827 0.344509 0.110689
Si Si2 0.796149 0.655205 0.387621
Si Si3 0.556977 0.000000 0.394288
Si Si4 0.056182 0.000000 0.385558
Si Si5 0.896274 0.255807 0.704000
O O1 0.500000 0.302181 0.129369
O O2 0.436590 0.500000 0.133076
O O3 0.405655 0.263322 0.180658
O O4 0.427480 0.312098 0.000000
O O5 0.812474 0.672979 0.500000
O O6 0.783469 0.500000 0.366304
O O7 0.750000 0.750000 0.363371
O O8 0.839366 0.705843 0.316252
O O9 0.568956 0.127599 0.332021
O O10 0.500000 0.000000 0.418456
O O11 0.585467 0.000000 0.500000
O O12 0.087785 0.125661 0.353475
O O13 0.051388 0.000000 0.500000
O O14 0.000000 0.000000 0.339867
#
# Coordination Sequence:
#
# PCOD8273987 Si02
#       5
#    16  16   8   8  16
#     4   9  18  34  56  82 112 148 193 240 281 325
#     4  10  22  39  58  81 110 147 191 236 283 336
#     4  11  22  34  50  76 116 157 182 214 274 345
#     4  11  22  32  48  80 116 149 190 228 262 329
#     4  12  21  35  56  80 112 152 191 229 281 335
#
# _framework density 17.254155000000001
#
# number of rings (size 3 to 8) (size 9 to 14) (size 15 to 20)
#    0.000    1.500    2.500    5.250    1.750    2.000 
#    0.000    0.625    0.000    3.000    0.000    0.000 
#    0.000    0.000    0.000    0.000    0.000    0.000 
#
# Total GULP energy -396759.264676 kJ/mol
# GULP energy per Si atom -12398.727021 kJ/mol
# Density = 1.721488 g / cm^3
# Si number density = 17.254155 Si / 1000 Ang^3
#
#
#
# Elastic Constant Matrix: (Units=GPa)
#
#
# Indices 1 2 3 4 5 6 
#
# 1 107.4068 53.1651 53.3804 0.0000 0.0000 0.0000
# 2 53.1651 131.4369 52.7600 0.0000 0.0000 0.0000
# 3 53.3804 52.7600 123.8044 0.0000 0.0000 0.0000
# 4 0.0000 0.0000 0.0000 37.2973 0.0000 0.0000
# 5 0.0000 0.0000 0.0000 0.0000 27.3714 0.0000
# 6 0.0000 0.0000 0.0000 0.0000 0.0000 31.2239
#
#
#
# Elastic Compliance Matrix: (Units=1/GPa)
#
#
# Indices 1 2 3 4 5 6 
#
# 1 0.013175 -0.003678 -0.004113 0.000000 0.000000 0.000000
# 2 -0.003678 0.010205 -0.002763 0.000000 0.000000 0.000000
# 3 -0.004113 -0.002763 0.011028 0.000000 0.000000 0.000000
# 4 0.000000 0.000000 0.000000 0.026812 0.000000 0.000000
# 5 0.000000 0.000000 0.000000 0.000000 0.036534 0.000000
# 6 0.000000 0.000000 0.000000 0.000000 0.000000 0.032027
#
#
# Mechanical properties :
#
#
# Convention : Reuss Voigt Hill
#
# Bulk Modulus (GPa) = 75.18998 75.69545 75.44271
# Shear Modulus (GPa) = 32.19081 32.73470 32.46276
#
# Velocity S-wave (km/s) = 4.32404 4.36042 4.34227
# Velocity P-wave (km/s) = 8.28265 8.32569 8.30420
#
# Compressibility (1/GPa) = 0.01329964
#
# Stress axis : x y z
#
# Youngs Moduli (GPa) = 75.89939 97.98991 90.67610
#
# Poissons Ratio (x) = 0.36043 0.37298
# Poissons Ratio (y) = 0.27917 0.25054
# Poissons Ratio (z) = 0.31220 0.27075
#
# Static dielectric constant tensor:
#      x y z
#    x 3.096780 0.000000 0.000000 
#    y 0.000000 3.097410 0.000000 
#    z 0.000000 0.000000 3.238010 
# 
# 
# High freq. dielectric constant tensor:
#      x y z
#    x 1.650580 0.000000 0.000000 
#    y 0.000000 1.674830 0.000000 
#    z 0.000000 0.000000 1.658860 
# 
# From -- ./inp_files/46377.got.cif
#   From: 2010.03.12/outbox.cif.g09.slc.cpg/sg65_24_cif.got.tgz:46377.got - 2010.04.10 20:52:16.
