data_PCOD8273098
_publ_section_title
;
Structure prediction by ZEFSAII (Michael W. Deem and Ramdas Pophale) SiO2 
 PCOD8273098
Probable space group: C M M M
;
_chemical_formula_sum "Si O2"
_cell_formula_units_Z 96
_cell_length_a 19.755421
_cell_length_b 8.941373
_cell_length_c 29.393669
_cell_angle_alpha 90.000000
_cell_angle_beta 90.000000
_cell_angle_gamma 90.000000
_cell_volume 5192.114974
_symmetry_space_group_name_H-M "C M M M"
_symmetry_group_IT_number 65
_symmetry_cell_setting 'orthorhombic'
loop_
_space_group_symop_operation_xyz
x,y,z
-x,-y,z
x,-y,-z
-x,y,-z
-x,-y,-z
x,y,-z
-x,y,z
x,-y,z
1/2+x,1/2+y,z
1/2-x,1/2-y,z
1/2+x,1/2-y,-z
1/2-x,1/2+y,-z
1/2-x,1/2-y,-z
1/2+x,1/2+y,-z
1/2-x,1/2+y,z
1/2+x,1/2-y,z
loop_
_atom_site_type_symbol
_atom_site_label
_atom_site_fract_x
_atom_site_fract_y
_atom_site_fract_z
Si Si1 0.680439 0.176434 0.779913
Si Si2 0.681924 0.174015 0.115507
Si Si3 0.579113 0.674068 0.712599
Si Si4 0.180789 0.173353 0.553393
Si Si5 0.921109 0.325902 0.618951
Si Si6 0.921429 0.828363 0.051761
O O1 0.750000 0.250000 0.762190
O O2 0.668219 0.219344 0.832392
O O3 0.617644 0.244400 0.753100
O O4 0.684285 0.000000 0.771957
O O5 0.750000 0.250000 0.096924
O O6 0.618634 0.222781 0.085669
O O7 0.692778 0.000000 0.110209
O O8 0.500000 0.701174 0.721055
O O9 0.597711 0.500000 0.711840
O O10 0.602397 0.745912 0.665137
O O11 0.170485 0.196342 0.500000
O O12 0.250000 0.250000 0.570087
O O13 0.117932 0.253220 0.577054
O O14 0.183183 0.000000 0.566974
O O15 0.903420 0.500000 0.622836
O O16 0.000000 0.298737 0.609737
O O17 0.000000 0.793671 0.058848
O O18 0.905380 0.000000 0.063455
O O19 0.900139 0.792811 0.000000
#
# Coordination Sequence:
#
# PCOD8273098 Si02
#       6
#    16  16  16  16  16  16
#     4  10  21  37  56  79 108 140 177 220 265 315
#     4  10  21  36  55  79 107 140 177 219 265 314
#     4  10  21  37  57  81 109 141 178 219 264 316
#     4  10  21  37  57  81 110 143 180 223 268 316
#     4  10  21  37  57  81 110 143 179 221 267 315
#     4   9  19  36  56  78 106 140 177 218 264 314
#
# _framework density 18.489576
#
# number of rings (size 3 to 8) (size 9 to 14) (size 15 to 20)
#    0.000    2.167    0.000    3.000    0.000    7.667 
#    0.000    9.167    0.000    0.000    0.000    0.000 
#    0.000    0.000    0.000    0.000    0.000    0.000 
#
# Total GULP energy -595436.250159 kJ/mol
# GULP energy per Si atom -12404.921878 kJ/mol
# Density = 1.844749 g / cm^3
# Si number density = 18.489576 Si / 1000 Ang^3
#
#
#
# Elastic Constant Matrix: (Units=GPa)
#
#
# Indices 1 2 3 4 5 6 
#
# 1 81.9874 53.9399 55.4343 0.0000 0.0000 0.0000
# 2 53.9399 109.9030 52.8393 0.0000 0.0000 0.0000
# 3 55.4343 52.8393 77.4868 0.0000 0.0000 0.0000
# 4 0.0000 0.0000 0.0000 37.2513 0.0000 0.0000
# 5 0.0000 0.0000 0.0000 0.0000 39.9377 0.0000
# 6 0.0000 0.0000 0.0000 0.0000 0.0000 39.4772
#
#
#
# Elastic Compliance Matrix: (Units=1/GPa)
#
#
# Indices 1 2 3 4 5 6 
#
# 1 0.025771 -0.005630 -0.014597 0.000000 0.000000 0.000000
# 2 -0.005630 0.014767 -0.006042 0.000000 0.000000 0.000000
# 3 -0.014597 -0.006042 0.027468 0.000000 0.000000 0.000000
# 4 0.000000 0.000000 0.000000 0.026845 0.000000 0.000000
# 5 0.000000 0.000000 0.000000 0.000000 0.025039 0.000000
# 6 0.000000 0.000000 0.000000 0.000000 0.000000 0.025331
#
#
# Mechanical properties :
#
#
# Convention : Reuss Voigt Hill
#
# Bulk Modulus (GPa) = 64.65164 65.97823 65.31493
# Shear Modulus (GPa) = 24.64079 30.47748 27.55913
#
# Velocity S-wave (km/s) = 3.65456 4.06440 3.86492
# Velocity P-wave (km/s) = 7.26981 7.60180 7.43766
#
# Compressibility (1/GPa) = 0.01546751
#
# Stress axis : x y z
#
# Youngs Moduli (GPa) = 38.80381 67.71820 36.40537
#
# Poissons Ratio (x) = 0.38126 0.53142
# Poissons Ratio (y) = 0.21847 0.21996
# Poissons Ratio (z) = 0.56643 0.40916
#
# Static dielectric constant tensor:
#      x y z
#    x 3.363420 0.000000 0.000000 
#    y 0.000000 3.526830 0.000000 
#    z 0.000000 0.000000 3.371660 
# 
# 
# High freq. dielectric constant tensor:
#      x y z
#    x 1.719510 0.000000 0.000000 
#    y 0.000000 1.732670 0.000000 
#    z 0.000000 0.000000 1.716880 
# 
# From -- ./inp_files/73067.got.cif
#   From: 2010.03.12/outbox.cif.g09.slc.cpg/sg65_37_cif.got.tgz:73067.got - 2010.04.10 20:52:16.
