data_PCOD8273166
_publ_section_title
;
Structure prediction by ZEFSAII (Michael W. Deem and Ramdas Pophale) SiO2 
 PCOD8273166
Probable space group: C M M M
;
_chemical_formula_sum "Si O2"
_cell_formula_units_Z 104
_cell_length_a 9.603644
_cell_length_b 18.381195
_cell_length_c 29.773394
_cell_angle_alpha 90.000000
_cell_angle_beta 90.000000
_cell_angle_gamma 90.000000
_cell_volume 5255.791639
_symmetry_space_group_name_H-M "C M M M"
_symmetry_group_IT_number 65
_symmetry_cell_setting 'orthorhombic'
loop_
_space_group_symop_operation_xyz
x,y,z
-x,-y,z
x,-y,-z
-x,y,-z
-x,-y,-z
x,y,-z
-x,y,z
x,-y,z
1/2+x,1/2+y,z
1/2-x,1/2-y,z
1/2+x,1/2-y,-z
1/2-x,1/2+y,-z
1/2-x,1/2-y,-z
1/2+x,1/2+y,-z
1/2-x,1/2+y,z
1/2+x,1/2-y,z
loop_
_atom_site_type_symbol
_atom_site_label
_atom_site_fract_x
_atom_site_fract_y
_atom_site_fract_z
Si Si1 0.657919 0.413377 0.210371
Si Si2 0.841987 0.083825 0.552582
Si Si3 0.500000 0.579483 0.947322
Si Si4 0.650609 0.918064 0.868761
Si Si5 0.658946 0.915789 0.707089
Si Si6 0.770060 0.335228 0.051204
Si Si7 0.164452 0.323528 0.618623
O O1 0.500000 0.383442 0.210757
O O2 0.661923 0.500000 0.210051
O O3 0.736098 0.384915 0.165640
O O4 0.739173 0.385010 0.254236
O O5 0.825965 0.098207 0.500000
O O6 0.727744 0.133474 0.576575
O O7 0.000000 0.103607 0.567812
O O8 0.810767 0.000000 0.564133
O O9 0.500000 0.500000 0.923772
O O10 0.630934 0.625397 0.932197
O O11 0.500000 0.569360 0.000000
O O12 0.500000 0.920113 0.844272
O O13 0.623862 0.866957 0.912542
O O14 0.692606 0.000000 0.883991
O O15 0.500000 0.905399 0.723106
O O16 0.690378 0.871198 0.662573
O O17 0.690765 0.000000 0.696674
O O18 0.750000 0.250000 0.055596
O O19 0.814343 0.354952 0.000000
O O20 0.250000 0.250000 0.624972
O O21 0.000000 0.308761 0.610442
#
# Coordination Sequence:
#
# PCOD8273166 Si02
#       7
#    16  16   8  16  16  16  16
#     4   9  18  33  56  85 112 140 179 227 276 330
#     4   9  19  37  60  85 114 150 194 245 298 350
#     4   9  18  34  56  80 105 139 185 231 274 324
#     4  10  21  36  56  82 112 144 178 222 275 331
#     4   9  18  35  59  84 111 143 183 232 285 341
#     4  10  22  37  56  80 110 146 184 228 281 336
#     4  11  23  37  55  82 117 157 197 239 290 346
#
# _framework density 19.787693999999998
#
# number of rings (size 3 to 8) (size 9 to 14) (size 15 to 20)
#    0.000    2.385    0.000    2.308    2.154    5.846 
#    0.000    3.846    0.000    0.000    0.000    0.000 
#    0.000    0.000    0.000    0.000    0.000    0.000 
#
# Total GULP energy -644552.283564 kJ/mol
# GULP energy per Si atom -12395.236222 kJ/mol
# Density = 1.974266 g / cm^3
# Si number density = 19.787694 Si / 1000 Ang^3
#
#
#
# Elastic Constant Matrix: (Units=GPa)
#
#
# Indices 1 2 3 4 5 6 
#
# 1 139.3047 50.0475 63.5008 0.0000 0.0000 0.0000
# 2 50.0475 88.8519 48.3173 0.0000 0.0000 0.0000
# 3 63.5008 48.3173 112.6504 0.0000 0.0000 0.0000
# 4 0.0000 0.0000 0.0000 16.6926 0.0000 0.0000
# 5 0.0000 0.0000 0.0000 0.0000 33.3185 0.0000
# 6 0.0000 0.0000 0.0000 0.0000 0.0000 19.2322
#
#
#
# Elastic Compliance Matrix: (Units=1/GPa)
#
#
# Indices 1 2 3 4 5 6 
#
# 1 0.010431 -0.003492 -0.004382 0.000000 0.000000 0.000000
# 2 -0.003492 0.015848 -0.004829 0.000000 0.000000 0.000000
# 3 -0.004382 -0.004829 0.013418 0.000000 0.000000 0.000000
# 4 0.000000 0.000000 0.000000 0.059907 0.000000 0.000000
# 5 0.000000 0.000000 0.000000 0.000000 0.030013 0.000000
# 6 0.000000 0.000000 0.000000 0.000000 0.000000 0.051996
#
#
# Mechanical properties :
#
#
# Convention : Reuss Voigt Hill
#
# Bulk Modulus (GPa) = 69.97546 73.83757 71.90651
# Shear Modulus (GPa) = 23.60922 25.77809 24.69365
#
# Velocity S-wave (km/s) = 3.45791 3.61326 3.53644
# Velocity P-wave (km/s) = 7.16818 7.40293 7.28650
#
# Compressibility (1/GPa) = 0.01429072
#
# Stress axis : x y z
#
# Youngs Moduli (GPa) = 95.87171 63.10085 74.52652
#
# Poissons Ratio (x) = 0.22038 0.32656
# Poissons Ratio (y) = 0.33483 0.35986
# Poissons Ratio (z) = 0.42009 0.30469
#
# Static dielectric constant tensor:
#      x y z
#    x 3.817340 0.000000 0.000000 
#    y 0.000000 3.391950 0.000000 
#    z 0.000000 0.000000 3.503830 
# 
# 
# High freq. dielectric constant tensor:
#      x y z
#    x 1.783050 0.000000 0.000000 
#    y 0.000000 1.748740 0.000000 
#    z 0.000000 0.000000 1.769260 
# 
# From -- ./inp_files/76870.got.cif
#   From: 2010.03.12/outbox.cif.g09.slc.cpg/sg65_39_cif.got.tgz:76870.got - 2010.04.10 20:52:16.
