data_PCOD8273295
_publ_section_title
;
Structure prediction by ZEFSAII (Michael W. Deem and Ramdas Pophale) SiO2 
 PCOD8273295
Probable space group: C M M M
;
_chemical_formula_sum "Si O2"
_cell_formula_units_Z 104
_cell_length_a 28.525844
_cell_length_b 8.901781
_cell_length_c 22.633349
_cell_angle_alpha 90.000000
_cell_angle_beta 90.000000
_cell_angle_gamma 90.000000
_cell_volume 5747.304783
_symmetry_space_group_name_H-M "C M M M"
_symmetry_group_IT_number 65
_symmetry_cell_setting 'orthorhombic'
loop_
_space_group_symop_operation_xyz
x,y,z
-x,-y,z
x,-y,-z
-x,y,-z
-x,-y,-z
x,y,-z
-x,y,z
x,-y,z
1/2+x,1/2+y,z
1/2-x,1/2-y,z
1/2+x,1/2-y,-z
1/2-x,1/2+y,-z
1/2-x,1/2-y,-z
1/2+x,1/2+y,-z
1/2-x,1/2+y,z
1/2+x,1/2-y,z
loop_
_atom_site_type_symbol
_atom_site_label
_atom_site_fract_x
_atom_site_fract_y
_atom_site_fract_z
Si Si1 0.701144 0.675209 0.568379
Si Si2 0.852553 0.171270 0.104352
Si Si3 0.200909 0.824707 0.224759
Si Si4 0.646381 0.821300 0.331758
Si Si5 0.551926 0.672355 0.845684
Si Si6 0.699694 0.824664 0.000000
Si Si7 0.948744 0.322883 0.277252
O O1 0.689906 0.704719 0.500000
O O2 0.704061 0.500000 0.583322
O O3 0.750000 0.750000 0.587077
O O4 0.659821 0.753141 0.605025
O O5 0.833264 0.201553 0.169689
O O6 0.908444 0.206160 0.105155
O O7 0.828789 0.281309 0.058196
O O8 0.842672 0.000000 0.084665
O O9 0.250000 0.750000 0.207967
O O10 0.180287 0.744259 0.282004
O O11 0.207787 0.000000 0.238678
O O12 0.592705 0.768474 0.320445
O O13 0.651519 0.000000 0.332528
O O14 0.500000 0.707013 0.871950
O O15 0.555900 0.500000 0.825265
O O16 0.562376 0.770777 0.788611
O O17 0.750000 0.750000 0.000000
O O18 0.707923 0.000000 0.000000
O O19 0.949585 0.500000 0.275746
O O20 0.000000 0.261202 0.298278
#
# Coordination Sequence:
#
# PCOD8273295 Si02
#       7
#    16  16  16  16  16   8  16
#     4  10  21  37  56  77 105 142 183 225 268 318
#     4  10  21  38  58  81 109 142 179 222 266 318
#     4  11  22  35  52  77 108 141 175 219 269 318
#     4  11  21  33  53  80 110 142 177 220 267 318
#     4   9  17  32  56  84 111 140 175 216 265 317
#     4  12  26  42  61  80 103 141 184 227 271 324
#     4   9  18  32  51  78 111 144 177 215 263 318
#
# _framework density 18.095438999999999
#
# number of rings (size 3 to 8) (size 9 to 14) (size 15 to 20)
#    0.000    1.846    1.538    3.000    0.000    4.615 
#    0.000    0.385    0.000    2.769    0.000    3.231 
#    0.000    0.000    0.000    0.000    0.000    0.000 
#
# Total GULP energy -644815.334509 kJ/mol
# GULP energy per Si atom -12400.294894 kJ/mol
# Density = 1.805425 g / cm^3
# Si number density = 18.095439 Si / 1000 Ang^3
#
#
#
# Elastic Constant Matrix: (Units=GPa)
#
#
# Indices 1 2 3 4 5 6 
#
# 1 143.3641 45.9569 48.6720 0.0000 0.0000 0.0000
# 2 45.9569 63.6914 29.1606 0.0000 0.0000 0.0000
# 3 48.6720 29.1606 72.7789 0.0000 0.0000 0.0000
# 4 0.0000 0.0000 0.0000 30.5343 0.0000 0.0000
# 5 0.0000 0.0000 0.0000 0.0000 27.6110 0.0000
# 6 0.0000 0.0000 0.0000 0.0000 0.0000 22.2412
#
#
#
# Elastic Compliance Matrix: (Units=1/GPa)
#
#
# Indices 1 2 3 4 5 6 
#
# 1 0.010272 -0.005225 -0.004776 0.000000 0.000000 0.000000
# 2 -0.005225 0.021886 -0.005275 0.000000 0.000000 0.000000
# 3 -0.004776 -0.005275 0.019048 0.000000 0.000000 0.000000
# 4 0.000000 0.000000 0.000000 0.032750 0.000000 0.000000
# 5 0.000000 0.000000 0.000000 0.000000 0.036217 0.000000
# 6 0.000000 0.000000 0.000000 0.000000 0.000000 0.044962
#
#
# Mechanical properties :
#
#
# Convention : Reuss Voigt Hill
#
# Bulk Modulus (GPa) = 48.41693 58.60148 53.50921
# Shear Modulus (GPa) = 24.68288 26.48031 25.58160
#
# Velocity S-wave (km/s) = 3.69730 3.82955 3.76400
# Velocity P-wave (km/s) = 6.71127 7.21172 6.96599
#
# Compressibility (1/GPa) = 0.02065393
#
# Stress axis : x y z
#
# Youngs Moduli (GPa) = 97.35653 45.69164 52.50011
#
# Poissons Ratio (x) = 0.23874 0.25073
# Poissons Ratio (y) = 0.50868 0.27693
# Poissons Ratio (z) = 0.46495 0.24102
#
# Static dielectric constant tensor:
#      x y z
#    x 3.743410 0.000000 0.000000 
#    y 0.000000 3.457010 0.000000 
#    z 0.000000 0.000000 3.158150 
# 
# 
# High freq. dielectric constant tensor:
#      x y z
#    x 1.715710 0.000000 0.000000 
#    y 0.000000 1.707210 0.000000 
#    z 0.000000 0.000000 1.678270 
# 
# From -- ./inp_files/60852.got.cif
#   From: 2010.03.12/outbox.cif.g09.slc.cpg/sg65_31_cif.got.tgz:60852.got - 2010.04.10 20:52:16.
