data_PCOD8273146
_publ_section_title
;
Structure prediction by ZEFSAII (Michael W. Deem and Ramdas Pophale) SiO2 
 PCOD8273146
Probable space group: C M M M
;
_chemical_formula_sum "Si O2"
_cell_formula_units_Z 104
_cell_length_a 28.777249
_cell_length_b 9.052022
_cell_length_c 20.070007
_cell_angle_alpha 90.000000
_cell_angle_beta 90.000000
_cell_angle_gamma 90.000000
_cell_volume 5228.082105
_symmetry_space_group_name_H-M "C M M M"
_symmetry_group_IT_number 65
_symmetry_cell_setting 'orthorhombic'
loop_
_space_group_symop_operation_xyz
x,y,z
-x,-y,z
x,-y,-z
-x,y,-z
-x,-y,-z
x,y,-z
-x,y,z
x,-y,z
1/2+x,1/2+y,z
1/2-x,1/2-y,z
1/2+x,1/2-y,-z
1/2-x,1/2+y,-z
1/2-x,1/2-y,-z
1/2+x,1/2+y,-z
1/2-x,1/2+y,z
1/2+x,1/2-y,z
loop_
_atom_site_type_symbol
_atom_site_label
_atom_site_fract_x
_atom_site_fract_y
_atom_site_fract_z
Si Si1 0.053323 0.673564 0.866422
Si Si2 0.950905 0.334665 0.579050
Si Si3 0.702088 0.672170 0.924840
Si Si4 0.649583 0.175469 0.577042
Si Si5 0.134497 0.172554 0.808931
Si Si6 0.702672 0.326226 0.690053
Si Si7 0.445123 0.664601 0.000000
O O1 0.059597 0.500000 0.873804
O O2 0.085964 0.737251 0.807674
O O3 0.000000 0.714646 0.849906
O O4 0.070988 0.748588 0.934627
O O5 0.949310 0.342767 0.500000
O O6 0.952557 0.500000 0.607995
O O7 0.901691 0.262807 0.601063
O O8 0.000000 0.254276 0.601481
O O9 0.711350 0.500000 0.915599
O O10 0.750000 0.750000 0.906851
O O11 0.663262 0.726727 0.873390
O O12 0.685589 0.710702 0.000000
O O13 0.658623 0.213689 0.500000
O O14 0.688418 0.260288 0.618726
O O15 0.652721 0.000000 0.588881
O O16 0.162802 0.212772 0.742874
O O17 0.122921 0.000000 0.812605
O O18 0.711019 0.500000 0.683805
O O19 0.750000 0.250000 0.714315
O O20 0.422500 0.500000 0.000000
O O21 0.500000 0.651731 0.000000
#
# Coordination Sequence:
#
# PCOD8273146 Si02
#       7
#    16  16  16  16  16  16   8
#     4  10  21  36  55  83 117 150 191 242 286 329
#     4   7  10  20  43  76 110 140 171 210 256 309
#     4   9  18  33  53  78 106 135 174 225 274 325
#     4   9  18  34  58  87 116 147 187 234 284 340
#     4  10  22  38  57  81 109 147 190 228 277 343
#     4  11  24  41  60  82 110 145 187 234 286 348
#     4   9  17  31  53  79 110 151 192 231 281 335
#
# _framework density 19.892572999999999
#
# number of rings (size 3 to 8) (size 9 to 14) (size 15 to 20)
#    0.000    2.692    0.000    3.000    1.077    4.308 
#    0.000    0.769    0.000    3.231    0.000    2.154 
#    0.000    0.000    0.000    0.000    0.000    0.000 
#
# Total GULP energy -644454.219072 kJ/mol
# GULP energy per Si atom -12393.350367 kJ/mol
# Density = 1.984730 g / cm^3
# Si number density = 19.892573 Si / 1000 Ang^3
#
#
#
# Elastic Constant Matrix: (Units=GPa)
#
#
# Indices 1 2 3 4 5 6 
#
# 1 110.4439 54.8399 52.8290 0.0000 0.0000 0.0000
# 2 54.8399 75.2727 43.7810 0.0000 0.0000 0.0000
# 3 52.8290 43.7810 81.3729 0.0000 0.0000 0.0000
# 4 0.0000 0.0000 0.0000 22.2961 0.0000 0.0000
# 5 0.0000 0.0000 0.0000 0.0000 27.0106 0.0000
# 6 0.0000 0.0000 0.0000 0.0000 0.0000 28.7806
#
#
#
# Elastic Compliance Matrix: (Units=1/GPa)
#
#
# Indices 1 2 3 4 5 6 
#
# 1 0.015961 -0.008153 -0.005976 0.000000 0.000000 0.000000
# 2 -0.008153 0.023500 -0.007351 0.000000 0.000000 0.000000
# 3 -0.005976 -0.007351 0.020124 0.000000 0.000000 0.000000
# 4 0.000000 0.000000 0.000000 0.044851 0.000000 0.000000
# 5 0.000000 0.000000 0.000000 0.000000 0.037022 0.000000
# 6 0.000000 0.000000 0.000000 0.000000 0.000000 0.034746
#
#
# Mechanical properties :
#
#
# Convention : Reuss Voigt Hill
#
# Bulk Modulus (GPa) = 60.14639 63.33215 61.73927
# Shear Modulus (GPa) = 22.25146 23.32677 22.78911
#
# Velocity S-wave (km/s) = 3.34815 3.42809 3.38836
# Velocity P-wave (km/s) = 6.72667 6.89749 6.81261
#
# Compressibility (1/GPa) = 0.01662610
#
# Stress axis : x y z
#
# Youngs Moduli (GPa) = 62.65318 42.55303 49.69247
#
# Poissons Ratio (x) = 0.34692 0.29695
# Poissons Ratio (y) = 0.51078 0.36529
# Poissons Ratio (z) = 0.37441 0.31281
#
# Static dielectric constant tensor:
#      x y z
#    x 3.940290 0.000000 0.000000 
#    y 0.000000 3.362340 0.000000 
#    z 0.000000 0.000000 3.429260 
# 
# 
# High freq. dielectric constant tensor:
#      x y z
#    x 1.791730 0.000000 0.000000 
#    y 0.000000 1.749960 0.000000 
#    z 0.000000 0.000000 1.754070 
# 
# From -- ./inp_files/65935.got.cif
#   From: 2010.03.12/outbox.cif.g09.slc.cpg/sg65_33_cif.got.tgz:65935.got - 2010.04.10 20:52:16.
