data_PCOD8273327
_publ_section_title
;
Structure prediction by ZEFSAII (Michael W. Deem and Ramdas Pophale) SiO2 
 PCOD8273327
Probable space group: C M M M
;
_chemical_formula_sum "Si O2"
_cell_formula_units_Z 96
_cell_length_a 20.962538
_cell_length_b 17.934799
_cell_length_c 13.670405
_cell_angle_alpha 90.000000
_cell_angle_beta 90.000000
_cell_angle_gamma 90.000000
_cell_volume 5139.510502
_symmetry_space_group_name_H-M "C M M M"
_symmetry_group_IT_number 65
_symmetry_cell_setting 'orthorhombic'
loop_
_space_group_symop_operation_xyz
x,y,z
-x,-y,z
x,-y,-z
-x,y,-z
-x,-y,-z
x,y,-z
-x,y,z
x,-y,z
1/2+x,1/2+y,z
1/2-x,1/2-y,z
1/2+x,1/2-y,-z
1/2-x,1/2+y,-z
1/2-x,1/2-y,-z
1/2+x,1/2+y,-z
1/2-x,1/2+y,z
1/2+x,1/2-y,z
loop_
_atom_site_type_symbol
_atom_site_label
_atom_site_fract_x
_atom_site_fract_y
_atom_site_fract_z
Si Si1 0.684904 0.322380 0.887529
Si Si2 0.233092 0.585962 0.388403
Si Si3 0.929029 0.587371 0.889707
Si Si4 0.428690 0.412005 0.191921
Si Si5 0.811959 0.335398 0.204973
Si Si6 0.381114 0.587145 0.605168
O O1 0.623070 0.374331 0.878272
O O2 0.750295 0.365437 0.856729
O O3 0.679727 0.252560 0.813802
O O4 0.689857 0.295876 0.000000
O O5 0.211549 0.600427 0.500000
O O6 0.218470 0.500000 0.359075
O O7 0.196230 0.644178 0.319145
O O8 0.307355 0.603227 0.374839
O O9 0.917402 0.500000 0.886179
O O10 0.877256 0.626264 0.823808
O O11 0.000000 0.606988 0.850643
O O12 0.921824 0.617064 0.000000
O O13 0.500000 0.392094 0.155396
O O14 0.416403 0.500000 0.187728
O O15 0.421188 0.381368 0.303280
O O16 0.401826 0.623130 0.500000
O O17 0.393438 0.500000 0.597048
#
# Coordination Sequence:
#
# PCOD8273327 Si02
#       6
#    16  16  16  16  16  16
#     4  11  24  38  52  77 110 144 189 235 274 327
#     4   9  17  31  56  88 116 143 179 222 270 327
#     4   9  18  32  52  80 107 132 172 222 269 323
#     4  10  21  37  56  79 109 147 190 235 284 333
#     4  11  20  36  57  77 108 146 179 220 275 327
#     4   8  14  28  51  79 109 138 173 220 270 320
#
# _framework density 18.678822
#
# number of rings (size 3 to 8) (size 9 to 14) (size 15 to 20)
#    0.000    2.333    1.667    4.000    0.000    2.333 
#    0.000    5.000    0.000    0.500    0.000    2.333 
#    0.000    0.000    0.000    0.000    0.000    0.000 
#
# Total GULP energy -594879.882281 kJ/mol
# GULP energy per Si atom -12393.330881 kJ/mol
# Density = 1.863631 g / cm^3
# Si number density = 18.678822 Si / 1000 Ang^3
#
#
#
# Elastic Constant Matrix: (Units=GPa)
#
#
# Indices 1 2 3 4 5 6 
#
# 1 115.8237 41.3113 43.4647 0.0000 0.0000 0.0000
# 2 41.3113 47.2125 43.0215 0.0000 0.0000 0.0000
# 3 43.4647 43.0215 91.4637 0.0000 0.0000 0.0000
# 4 0.0000 0.0000 0.0000 24.8859 0.0000 0.0000
# 5 0.0000 0.0000 0.0000 0.0000 34.2527 0.0000
# 6 0.0000 0.0000 0.0000 0.0000 0.0000 26.9154
#
#
#
# Elastic Compliance Matrix: (Units=1/GPa)
#
#
# Indices 1 2 3 4 5 6 
#
# 1 0.012654 -0.009788 -0.001409 0.000000 0.000000 0.000000
# 2 -0.009788 0.044640 -0.016346 0.000000 0.000000 0.000000
# 3 -0.001409 -0.016346 0.019292 0.000000 0.000000 0.000000
# 4 0.000000 0.000000 0.000000 0.040183 0.000000 0.000000
# 5 0.000000 0.000000 0.000000 0.000000 0.029195 0.000000
# 6 0.000000 0.000000 0.000000 0.000000 0.000000 0.037154
#
#
# Mechanical properties :
#
#
# Convention : Reuss Voigt Hill
#
# Bulk Modulus (GPa) = 46.51320 56.67722 51.59521
# Shear Modulus (GPa) = 20.37735 25.65761 23.01748
#
# Velocity S-wave (km/s) = 3.30651 3.71026 3.51419
# Velocity P-wave (km/s) = 6.28753 6.98309 6.64442
#
# Compressibility (1/GPa) = 0.02149927
#
# Stress axis : x y z
#
# Youngs Moduli (GPa) = 79.02771 22.40125 51.83593
#
# Poissons Ratio (x) = 0.21926 0.07305
# Poissons Ratio (y) = 0.77352 0.84731
# Poissons Ratio (z) = 0.11137 0.36617
#
# Static dielectric constant tensor:
#      x y z
#    x 3.692290 0.000000 0.000000 
#    y 0.000000 3.111500 0.000000 
#    z 0.000000 0.000000 3.543550 
# 
# 
# High freq. dielectric constant tensor:
#      x y z
#    x 1.721710 0.000000 0.000000 
#    y 0.000000 1.689940 0.000000 
#    z 0.000000 0.000000 1.725400 
# 
# From -- ./inp_files/29041.got.cif
#   From: 2010.03.12/outbox.cif.g09.slc.cpg/sg65_15_cif.got.tgz:29041.got - 2010.04.10 20:52:16.
