data_PCOD8273364
_publ_section_title
;
Structure prediction by ZEFSAII (Michael W. Deem and Ramdas Pophale) SiO2 
 PCOD8273364
Probable space group: C M M M
;
_chemical_formula_sum "Si O2"
_cell_formula_units_Z 104
_cell_length_a 9.041491
_cell_length_b 27.504816
_cell_length_c 21.308076
_cell_angle_alpha 90.000000
_cell_angle_beta 90.000000
_cell_angle_gamma 90.000000
_cell_volume 5298.989213
_symmetry_space_group_name_H-M "C M M M"
_symmetry_group_IT_number 65
_symmetry_cell_setting 'orthorhombic'
loop_
_space_group_symop_operation_xyz
x,y,z
-x,-y,z
x,-y,-z
-x,y,-z
-x,-y,-z
x,y,-z
-x,y,z
x,-y,z
1/2+x,1/2+y,z
1/2-x,1/2-y,z
1/2+x,1/2-y,-z
1/2-x,1/2+y,-z
1/2-x,1/2-y,-z
1/2+x,1/2+y,-z
1/2-x,1/2+y,z
1/2+x,1/2-y,z
loop_
_atom_site_type_symbol
_atom_site_label
_atom_site_fract_x
_atom_site_fract_y
_atom_site_fract_z
Si Si1 0.331016 0.445427 0.641902
Si Si2 0.165602 0.557119 0.000000
Si Si3 0.829172 0.203567 0.070562
Si Si4 0.826783 0.397766 0.753052
Si Si5 0.174322 0.700050 0.316361
Si Si6 0.326687 0.600383 0.881029
Si Si7 0.171585 0.850033 0.571271
O O1 0.500000 0.439943 0.665463
O O2 0.301128 0.500000 0.616451
O O3 0.222323 0.435147 0.699576
O O4 0.298661 0.406845 0.586743
O O5 0.252383 0.572493 0.938080
O O6 0.154699 0.500000 0.000000
O O7 0.000000 0.579769 0.000000
O O8 0.750000 0.250000 0.101269
O O9 0.794069 0.157519 0.113010
O O10 0.000000 0.215670 0.068376
O O11 0.769228 0.193617 0.000000
O O12 0.784516 0.342623 0.732896
O O13 0.742800 0.415183 0.815301
O O14 0.000000 0.402928 0.764726
O O15 0.250000 0.750000 0.293458
O O16 0.233093 0.685397 0.385052
O O17 0.000000 0.707985 0.320628
O O18 0.500000 0.588435 0.882374
O O19 0.221513 0.840938 0.500000
O O20 0.000000 0.837083 0.581296
#
# Coordination Sequence:
#
# PCOD8273364 Si02
#       7
#    16   8  16  16  16  16  16
#     4   9  18  34  56  81 109 143 183 226 276 331
#     4  11  25  43  62  85 112 143 182 229 280 333
#     4   9  18  33  52  78 108 137 170 207 253 312
#     4  10  22  38  56  81 110 143 185 230 277 328
#     4  10  21  37  57  80 111 150 191 233 276 324
#     4  11  22  39  61  84 112 145 183 226 275 331
#     4   9  18  33  54  82 115 148 184 228 276 327
#
# _framework density 19.626386
#
# number of rings (size 3 to 8) (size 9 to 14) (size 15 to 20)
#    0.000    2.231    0.769    1.615    0.000    6.154 
#    0.000    4.615    0.000    0.000    0.000    4.308 
#    0.000    0.000    0.000    0.000    0.000    0.000 
#
# Total GULP energy -644855.764881 kJ/mol
# GULP energy per Si atom -12401.072402 kJ/mol
# Density = 1.958171 g / cm^3
# Si number density = 19.626386 Si / 1000 Ang^3
#
#
#
# Elastic Constant Matrix: (Units=GPa)
#
#
# Indices 1 2 3 4 5 6 
#
# 1 83.3392 28.3926 37.4157 0.0000 0.0000 0.0000
# 2 28.3926 63.8616 3.4618 0.0000 0.0000 0.0000
# 3 37.4157 3.4618 94.2975 0.0000 0.0000 0.0000
# 4 0.0000 0.0000 0.0000 10.9393 0.0000 0.0000
# 5 0.0000 0.0000 0.0000 0.0000 29.7892 0.0000
# 6 0.0000 0.0000 0.0000 0.0000 0.0000 29.6264
#
#
#
# Elastic Compliance Matrix: (Units=1/GPa)
#
#
# Indices 1 2 3 4 5 6 
#
# 1 0.017532 -0.007432 -0.006683 0.000000 0.000000 0.000000
# 2 -0.007432 0.018841 0.002257 0.000000 0.000000 0.000000
# 3 -0.006683 0.002257 0.013174 0.000000 0.000000 0.000000
# 4 0.000000 0.000000 0.000000 0.091414 0.000000 0.000000
# 5 0.000000 0.000000 0.000000 0.000000 0.033569 0.000000
# 6 0.000000 0.000000 0.000000 0.000000 0.000000 0.033754
#
#
# Mechanical properties :
#
#
# Convention : Reuss Voigt Hill
#
# Bulk Modulus (GPa) = 38.71531 42.22648 40.47090
# Shear Modulus (GPa) = 20.78055 25.55288 23.16671
#
# Velocity S-wave (km/s) = 3.25746 3.61219 3.43940
# Velocity P-wave (km/s) = 5.82383 6.24172 6.03640
#
# Compressibility (1/GPa) = 0.02582958
#
# Stress axis : x y z
#
# Youngs Moduli (GPa) = 57.03914 53.07618 75.90845
#
# Poissons Ratio (x) = 0.39448 0.50733
# Poissons Ratio (y) = 0.42393 -0.17135
# Poissons Ratio (z) = 0.38122 -0.11981
#
# Static dielectric constant tensor:
#      x y z
#    x 3.623100 0.000000 0.000000 
#    y 0.000000 3.595440 0.000000 
#    z 0.000000 0.000000 3.447660 
# 
# 
# High freq. dielectric constant tensor:
#      x y z
#    x 1.767540 0.000000 0.000000 
#    y 0.000000 1.765600 0.000000 
#    z 0.000000 0.000000 1.754820 
# 
# From -- ./inp_files/60781.got.cif
#   From: 2010.03.12/outbox.cif.g09.slc.cpg/sg65_31_cif.got.tgz:60781.got - 2010.04.10 20:52:16.
