data_PCOD8273342
_publ_section_title
;
Structure prediction by ZEFSAII (Michael W. Deem and Ramdas Pophale) SiO2 
 PCOD8273342
Probable space group: C M M M
;
_chemical_formula_sum "Si O2"
_cell_formula_units_Z 64
_cell_length_a 28.919041
_cell_length_b 8.638620
_cell_length_c 12.723896
_cell_angle_alpha 90.000000
_cell_angle_beta 90.000000
_cell_angle_gamma 90.000000
_cell_volume 3178.691409
_symmetry_space_group_name_H-M "C M M M"
_symmetry_group_IT_number 65
_symmetry_cell_setting 'orthorhombic'
loop_
_space_group_symop_operation_xyz
x,y,z
-x,-y,z
x,-y,-z
-x,y,-z
-x,-y,-z
x,y,-z
-x,y,z
x,-y,z
1/2+x,1/2+y,z
1/2-x,1/2-y,z
1/2+x,1/2-y,-z
1/2-x,1/2+y,-z
1/2-x,1/2-y,-z
1/2+x,1/2+y,-z
1/2-x,1/2+y,z
1/2+x,1/2-y,z
loop_
_atom_site_type_symbol
_atom_site_label
_atom_site_fract_x
_atom_site_fract_y
_atom_site_fract_z
Si Si1 0.699324 0.819698 0.500000
Si Si2 0.949052 0.184172 0.224847
Si Si3 0.199797 0.680215 0.879740
Si Si4 0.554205 0.667115 0.000000
Si Si5 0.645679 0.318999 0.306978
O O1 0.750000 0.750000 0.500000
O O2 0.671323 0.773074 0.602757
O O3 0.706215 0.000000 0.500000
O O4 0.909105 0.226281 0.308836
O O5 0.000000 0.244934 0.261962
O O6 0.951229 0.000000 0.210090
O O7 0.934554 0.256345 0.109969
O O8 0.200666 0.500000 0.849297
O O9 0.250000 0.750000 0.860362
O O10 0.164686 0.772910 0.806761
O O11 0.183840 0.705046 0.000000
O O12 0.579947 0.500000 0.000000
O O13 0.500000 0.637844 0.000000
O O14 0.653114 0.500000 0.327014
#
# Coordination Sequence:
#
# PCOD8273342 Si02
#       5
#     8  16  16   8  16
#     4  12  26  46  67  84 111 147 192 243 297 354
#     4   8  15  28  49  81 120 156 191 234 279 328
#     4  10  21  37  56  81 116 154 191 233 287 351
#     4   7  10  20  40  70 110 151 186 221 266 315
#     4  11  22  36  60  90 118 148 193 242 293 345
#
# _framework density 20.134070999999999
#
# number of rings (size 3 to 8) (size 9 to 14) (size 15 to 20)
#    0.000    2.375    0.000    4.875    1.750    1.500 
#    0.000    0.625    0.000    6.750    0.000    1.750 
#    0.000    0.000    0.000    0.000    0.000    0.000 
#
# Total GULP energy -396496.908384 kJ/mol
# GULP energy per Si atom -12390.528387 kJ/mol
# Density = 2.008825 g / cm^3
# Si number density = 20.134071 Si / 1000 Ang^3
#
#
#
# Elastic Constant Matrix: (Units=GPa)
#
#
# Indices 1 2 3 4 5 6 
#
# 1 144.3169 38.7176 75.5537 0.0000 0.0000 0.0000
# 2 38.7176 80.2843 33.6459 0.0000 0.0000 0.0000
# 3 75.5537 33.6459 95.5124 0.0000 0.0000 0.0000
# 4 0.0000 0.0000 0.0000 25.9471 0.0000 0.0000
# 5 0.0000 0.0000 0.0000 0.0000 29.2752 0.0000
# 6 0.0000 0.0000 0.0000 0.0000 0.0000 17.6311
#
#
#
# Elastic Compliance Matrix: (Units=1/GPa)
#
#
# Indices 1 2 3 4 5 6 
#
# 1 0.012134 -0.002146 -0.008843 0.000000 0.000000 0.000000
# 2 -0.002146 0.014993 -0.003584 0.000000 0.000000 0.000000
# 3 -0.008843 -0.003584 0.018727 0.000000 0.000000 0.000000
# 4 0.000000 0.000000 0.000000 0.038540 0.000000 0.000000
# 5 0.000000 0.000000 0.000000 0.000000 0.034159 0.000000
# 6 0.000000 0.000000 0.000000 0.000000 0.000000 0.056718
#
#
# Mechanical properties :
#
#
# Convention : Reuss Voigt Hill
#
# Bulk Modulus (GPa) = 59.84792 68.43867 64.14329
# Shear Modulus (GPa) = 23.81119 26.05046 24.93082
#
# Velocity S-wave (km/s) = 3.44267 3.60091 3.52268
# Velocity P-wave (km/s) = 6.75218 7.16617 6.96225
#
# Compressibility (1/GPa) = 0.01670902
#
# Stress axis : x y z
#
# Youngs Moduli (GPa) = 82.41087 66.69963 53.39825
#
# Poissons Ratio (x) = 0.14314 0.47219
# Poissons Ratio (y) = 0.17685 0.19137
# Poissons Ratio (z) = 0.72874 0.23904
#
# Static dielectric constant tensor:
#      x y z
#    x 3.900400 0.000000 0.000000 
#    y 0.000000 3.343800 0.000000 
#    z 0.000000 0.000000 3.495830 
# 
# 
# High freq. dielectric constant tensor:
#      x y z
#    x 1.796400 0.000000 0.000000 
#    y 0.000000 1.751340 0.000000 
#    z 0.000000 0.000000 1.776390 
# 
# From -- ./inp_files/20934.got.cif
#   From: 2010.03.12/outbox.cif.g09.slc.cpg/sg65_11_cif.got.tgz:20934.got - 2010.04.10 20:52:16.
