data_PCOD8273703
_publ_section_title
;
Structure prediction by ZEFSAII (Michael W. Deem and Ramdas Pophale) SiO2 
 PCOD8273703
Probable space group: C M M M
;
_chemical_formula_sum "Si O2"
_cell_formula_units_Z 64
_cell_length_a 28.449837
_cell_length_b 8.631685
_cell_length_c 12.571275
_cell_angle_alpha 90.000000
_cell_angle_beta 90.000000
_cell_angle_gamma 90.000000
_cell_volume 3087.128395
_symmetry_space_group_name_H-M "C M M M"
_symmetry_group_IT_number 65
_symmetry_cell_setting 'orthorhombic'
loop_
_space_group_symop_operation_xyz
x,y,z
-x,-y,z
x,-y,-z
-x,y,-z
-x,-y,-z
x,y,-z
-x,y,z
x,-y,z
1/2+x,1/2+y,z
1/2-x,1/2-y,z
1/2+x,1/2-y,-z
1/2-x,1/2+y,-z
1/2-x,1/2-y,-z
1/2+x,1/2+y,-z
1/2-x,1/2+y,z
1/2+x,1/2-y,z
loop_
_atom_site_type_symbol
_atom_site_label
_atom_site_fract_x
_atom_site_fract_y
_atom_site_fract_z
Si Si1 0.944549 0.827209 0.000000
Si Si2 0.446216 0.182373 0.779225
Si Si3 0.300452 0.819153 0.877235
Si Si4 0.358518 0.318711 0.694062
Si Si5 0.301821 0.181883 0.500000
O O1 0.928706 0.733343 0.103954
O O2 0.000000 0.841511 0.000000
O O3 0.922173 0.000000 0.000000
O O4 0.500000 0.232875 0.757463
O O5 0.413192 0.265876 0.691997
O O6 0.439970 0.000000 0.769475
O O7 0.250000 0.750000 0.848597
O O8 0.338542 0.728109 0.808768
O O9 0.300761 0.000000 0.848293
O O10 0.313197 0.789915 0.000000
O O11 0.354870 0.500000 0.673945
O O12 0.329720 0.232648 0.603789
O O13 0.250000 0.250000 0.500000
O O14 0.296736 0.000000 0.500000
#
# Coordination Sequence:
#
# PCOD8273703 Si02
#       5
#     8  16  16  16   8
#     4   9  17  31  53  83 120 163 208 255 307 363
#     4  10  21  38  60  88 125 168 213 260 312 371
#     4  10  21  38  60  88 124 163 204 252 311 376
#     4  12  25  41  64  93 126 163 210 259 315 375
#     4  12  26  48  73  96 125 160 208 261 317 377
#
# _framework density 20.73124
#
# number of rings (size 3 to 8) (size 9 to 14) (size 15 to 20)
#    0.000    1.375    0.000    6.000    1.750    4.500 
#    0.000    0.625    0.000    3.750    0.000    0.000 
#    0.000    0.000    0.000    0.000    0.000    0.000 
#
# Total GULP energy -396925.208267 kJ/mol
# GULP energy per Si atom -12403.912758 kJ/mol
# Density = 2.068405 g / cm^3
# Si number density = 20.731240 Si / 1000 Ang^3
#
#
#
# Elastic Constant Matrix: (Units=GPa)
#
#
# Indices 1 2 3 4 5 6 
#
# 1 133.5376 55.6298 67.9711 0.0000 0.0000 0.0000
# 2 55.6298 147.8912 43.8871 0.0000 0.0000 0.0000
# 3 67.9711 43.8871 85.6513 0.0000 0.0000 0.0000
# 4 0.0000 0.0000 0.0000 29.3872 0.0000 0.0000
# 5 0.0000 0.0000 0.0000 0.0000 22.9443 0.0000
# 6 0.0000 0.0000 0.0000 0.0000 0.0000 38.2716
#
#
#
# Elastic Compliance Matrix: (Units=1/GPa)
#
#
# Indices 1 2 3 4 5 6 
#
# 1 0.013133 -0.002178 -0.009306 0.000000 0.000000 0.000000
# 2 -0.002178 0.008336 -0.002542 0.000000 0.000000 0.000000
# 3 -0.009306 -0.002542 0.020363 0.000000 0.000000 0.000000
# 4 0.000000 0.000000 0.000000 0.034028 0.000000 0.000000
# 5 0.000000 0.000000 0.000000 0.000000 0.043584 0.000000
# 6 0.000000 0.000000 0.000000 0.000000 0.000000 0.026129
#
#
# Mechanical properties :
#
#
# Convention : Reuss Voigt Hill
#
# Bulk Modulus (GPa) = 72.57856 78.00622 75.29239
# Shear Modulus (GPa) = 28.05561 31.42675 29.74118
#
# Velocity S-wave (km/s) = 3.68272 3.89770 3.79173
# Velocity P-wave (km/s) = 7.29167 7.61348 7.45431
#
# Compressibility (1/GPa) = 0.01377817
#
# Stress axis : x y z
#
# Youngs Moduli (GPa) = 76.14649 119.96749 49.10962
#
# Poissons Ratio (x) = 0.26134 0.45699
# Poissons Ratio (y) = 0.16588 0.12485
# Poissons Ratio (z) = 0.70858 0.30500
#
# Static dielectric constant tensor:
#      x y z
#    x 3.930940 0.000000 0.000000 
#    y 0.000000 3.885770 0.000000 
#    z 0.000000 0.000000 3.665340 
# 
# 
# High freq. dielectric constant tensor:
#      x y z
#    x 1.823970 0.000000 0.000000 
#    y 0.000000 1.827110 0.000000 
#    z 0.000000 0.000000 1.793930 
# 
# From -- ./inp_files/21025.got.cif
#   From: 2010.03.12/outbox.cif.g09.slc.cpg/sg65_11_cif.got.tgz:21025.got - 2010.04.10 20:52:16.
