data_PCOD8273778
_publ_section_title
;
Structure prediction by ZEFSAII (Michael W. Deem and Ramdas Pophale) SiO2 
 PCOD8273778
Probable space group: C M M M
;
_chemical_formula_sum "Si O2"
_cell_formula_units_Z 72
_cell_length_a 15.562720
_cell_length_b 8.791221
_cell_length_c 26.315425
_cell_angle_alpha 90.000000
_cell_angle_beta 90.000000
_cell_angle_gamma 90.000000
_cell_volume 3600.353052
_symmetry_space_group_name_H-M "C M M M"
_symmetry_group_IT_number 65
_symmetry_cell_setting 'orthorhombic'
loop_
_space_group_symop_operation_xyz
x,y,z
-x,-y,z
x,-y,-z
-x,y,-z
-x,-y,-z
x,y,-z
-x,y,z
x,-y,z
1/2+x,1/2+y,z
1/2-x,1/2-y,z
1/2+x,1/2-y,-z
1/2-x,1/2+y,-z
1/2-x,1/2-y,-z
1/2+x,1/2+y,-z
1/2-x,1/2+y,z
1/2+x,1/2-y,z
loop_
_atom_site_type_symbol
_atom_site_label
_atom_site_fract_x
_atom_site_fract_y
_atom_site_fract_z
Si Si1 0.337946 0.319654 0.214483
Si Si2 0.596117 0.318651 0.891823
Si Si3 0.500000 0.826000 0.612433
Si Si4 0.102634 0.831994 0.000000
Si Si5 0.160451 0.821410 0.558603
Si Si6 0.000000 0.325534 0.267486
O O1 0.336712 0.500000 0.219608
O O2 0.250000 0.250000 0.236276
O O3 0.345998 0.266521 0.155505
O O4 0.415903 0.257286 0.247155
O O5 0.500000 0.257862 0.881040
O O6 0.593739 0.500000 0.896266
O O7 0.630804 0.251194 0.946482
O O8 0.415549 0.745243 0.591838
O O9 0.500000 0.811647 0.672452
O O10 0.500000 0.000000 0.594236
O O11 0.000000 0.842374 0.000000
O O12 0.143177 0.000000 0.000000
O O13 0.142884 0.779964 0.500000
O O14 0.250000 0.750000 0.577231
O O15 0.165222 0.000000 0.567364
O O16 0.000000 0.500000 0.249477
#
# Coordination Sequence:
#
# PCOD8273778 Si02
#       6
#    16  16   8   8  16   8
#     4  11  22  38  60  85 113 148 192 239 291 350
#     4   8  13  25  47  76 107 140 180 225 277 339
#     4  11  24  40  61  88 119 155 198 246 295 346
#     4   7  10  18  39  72 106 137 172 218 272 333
#     4  10  21  38  62  93 128 164 200 237 281 336
#     4  11  25  44  62  84 113 150 197 248 299 346
#
# _framework density 19.998038000000001
#
# number of rings (size 3 to 8) (size 9 to 14) (size 15 to 20)
#    0.000    2.333    1.111    3.667    0.000    5.333 
#    0.000    0.556    0.000    0.000    0.000    3.111 
#    0.000    0.000    0.000    0.000    0.000    0.000 
#
# Total GULP energy -446176.567988 kJ/mol
# GULP energy per Si atom -12393.793555 kJ/mol
# Density = 1.995252 g / cm^3
# Si number density = 19.998038 Si / 1000 Ang^3
#
#
#
# Elastic Constant Matrix: (Units=GPa)
#
#
# Indices 1 2 3 4 5 6 
#
# 1 146.1591 54.0271 53.2569 0.0000 0.0000 0.0000
# 2 54.0271 85.7436 44.9089 0.0000 0.0000 0.0000
# 3 53.2569 44.9089 84.0878 0.0000 0.0000 0.0000
# 4 0.0000 0.0000 0.0000 20.9577 0.0000 0.0000
# 5 0.0000 0.0000 0.0000 0.0000 1.6218 0.0000
# 6 0.0000 0.0000 0.0000 0.0000 0.0000 29.1115
#
#
#
# Elastic Compliance Matrix: (Units=1/GPa)
#
#
# Indices 1 2 3 4 5 6 
#
# 1 0.009820 -0.004068 -0.004047 0.000000 0.000000 0.000000
# 2 -0.004068 0.017877 -0.006971 0.000000 0.000000 0.000000
# 3 -0.004047 -0.006971 0.018179 0.000000 0.000000 0.000000
# 4 0.000000 0.000000 0.000000 0.047715 0.000000 0.000000
# 5 0.000000 0.000000 0.000000 0.000000 0.616602 0.000000
# 6 0.000000 0.000000 0.000000 0.000000 0.000000 0.034351
#
#
# Mechanical properties :
#
#
# Convention : Reuss Voigt Hill
#
# Bulk Modulus (GPa) = 63.68003 68.93070 66.30537
# Shear Modulus (GPa) = 6.41066 21.25803 13.83435
#
# Velocity S-wave (km/s) = 1.79237 3.26391 2.63303
# Velocity P-wave (km/s) = 6.01629 6.98196 6.51703
#
# Compressibility (1/GPa) = 0.01570351
#
# Stress axis : x y z
#
# Youngs Moduli (GPa) = 101.83056 55.93716 55.00974
#
# Poissons Ratio (x) = 0.22756 0.22262
# Poissons Ratio (y) = 0.41426 0.38348
# Poissons Ratio (z) = 0.41211 0.38995
#
# Static dielectric constant tensor:
#      x y z
#    x 3.536930 0.000000 0.000000 
#    y 0.000000 3.420810 0.000000 
#    z 0.000000 0.000000 3.927080 
# 
# 
# High freq. dielectric constant tensor:
#      x y z
#    x 1.775860 0.000000 0.000000 
#    y 0.000000 1.755310 0.000000 
#    z 0.000000 0.000000 1.790800 
# 
# From -- ./inp_files/74664.got.cif
#   From: 2010.03.12/outbox.cif.g09.slc.cpg/sg65_38_cif.got.tgz:74664.got - 2010.04.10 20:52:16.
