data_PCOD8273608
_publ_section_title
;
Structure prediction by ZEFSAII (Michael W. Deem and Ramdas Pophale) SiO2 
 PCOD8273608
Probable space group: C M M M
;
_chemical_formula_sum "Si O2"
_cell_formula_units_Z 72
_cell_length_a 16.779397
_cell_length_b 24.478811
_cell_length_c 9.017167
_cell_angle_alpha 90.000000
_cell_angle_beta 90.000000
_cell_angle_gamma 90.000000
_cell_volume 3703.708359
_symmetry_space_group_name_H-M "C M M M"
_symmetry_group_IT_number 65
_symmetry_cell_setting 'orthorhombic'
loop_
_space_group_symop_operation_xyz
x,y,z
-x,-y,z
x,-y,-z
-x,y,-z
-x,-y,-z
x,y,-z
-x,y,z
x,-y,z
1/2+x,1/2+y,z
1/2-x,1/2-y,z
1/2+x,1/2-y,-z
1/2-x,1/2+y,-z
1/2-x,1/2-y,-z
1/2+x,1/2+y,-z
1/2-x,1/2+y,z
1/2+x,1/2-y,z
loop_
_atom_site_type_symbol
_atom_site_label
_atom_site_fract_x
_atom_site_fract_y
_atom_site_fract_z
Si Si1 0.365792 0.355413 0.324434
Si Si2 0.092300 0.437489 0.333287
Si Si3 0.089442 0.253682 0.169812
Si Si4 0.197073 0.645756 0.826575
Si Si5 0.000000 0.938267 0.675995
O O1 0.360254 0.354371 0.500000
O O2 0.404159 0.299064 0.271762
O O3 0.278590 0.362397 0.259327
O O4 0.421272 0.405689 0.269833
O O5 0.109689 0.415817 0.500000
O O6 0.119100 0.500000 0.321605
O O7 0.140851 0.404668 0.211398
O O8 0.000000 0.431092 0.294967
O O9 0.153177 0.298558 0.223647
O O10 0.000000 0.277865 0.185283
O O11 0.107191 0.236988 0.000000
O O12 0.214673 0.646568 0.000000
O O13 0.000000 0.941103 0.500000
O O14 0.000000 0.000000 0.742414
#
# Coordination Sequence:
#
# PCOD8273608 Si02
#       5
#    16  16  16  16   8
#     4  11  22  38  60  86 113 147 194 246 298 352
#     4   9  19  37  59  83 114 152 193 239 290 341
#     4  10  21  38  59  82 116 157 192 233 292 354
#     4  11  23  37  56  86 120 156 196 236 289 356
#     4   9  20  40  63  85 111 147 192 243 300 355
#
# _framework density 19.439975
#
# number of rings (size 3 to 8) (size 9 to 14) (size 15 to 20)
#    0.000    1.889    1.111    3.333    0.000    7.111 
#    0.000    3.333    0.000    4.667    0.000    0.000 
#    0.000    0.000    0.000    0.000    0.000    0.000 
#
# Total GULP energy -446456.131898 kJ/mol
# GULP energy per Si atom -12401.559219 kJ/mol
# Density = 1.939573 g / cm^3
# Si number density = 19.439975 Si / 1000 Ang^3
#
#
#
# Elastic Constant Matrix: (Units=GPa)
#
#
# Indices 1 2 3 4 5 6 
#
# 1 123.5995 82.9711 46.3739 0.0000 0.0000 0.0000
# 2 82.9711 133.8899 46.6659 0.0000 0.0000 0.0000
# 3 46.3739 46.6659 65.0434 0.0000 0.0000 0.0000
# 4 0.0000 0.0000 0.0000 27.1060 0.0000 0.0000
# 5 0.0000 0.0000 0.0000 0.0000 32.3766 0.0000
# 6 0.0000 0.0000 0.0000 0.0000 0.0000 20.1890
#
#
#
# Elastic Compliance Matrix: (Units=1/GPa)
#
#
# Indices 1 2 3 4 5 6 
#
# 1 0.015166 -0.007507 -0.005427 0.000000 0.000000 0.000000
# 2 -0.007507 0.013675 -0.004459 0.000000 0.000000 0.000000
# 3 -0.005427 -0.004459 0.022443 0.000000 0.000000 0.000000
# 4 0.000000 0.000000 0.000000 0.036892 0.000000 0.000000
# 5 0.000000 0.000000 0.000000 0.000000 0.030887 0.000000
# 6 0.000000 0.000000 0.000000 0.000000 0.000000 0.049532
#
#
# Mechanical properties :
#
#
# Convention : Reuss Voigt Hill
#
# Bulk Modulus (GPa) = 60.61365 74.95051 67.78208
# Shear Modulus (GPa) = 23.93719 25.70245 24.81982
#
# Velocity S-wave (km/s) = 3.51285 3.64007 3.57703
# Velocity P-wave (km/s) = 6.90660 7.50369 7.21133
#
# Compressibility (1/GPa) = 0.01649793
#
# Stress axis : x y z
#
# Youngs Moduli (GPa) = 65.93637 73.12645 44.55745
#
# Poissons Ratio (x) = 0.54895 0.24182
# Poissons Ratio (y) = 0.49497 0.19868
# Poissons Ratio (z) = 0.35785 0.32608
#
# Static dielectric constant tensor:
#      x y z
#    x 3.710610 0.000000 0.000000 
#    y 0.000000 3.631480 0.000000 
#    z 0.000000 0.000000 3.437930 
# 
# 
# High freq. dielectric constant tensor:
#      x y z
#    x 1.770900 0.000000 0.000000 
#    y 0.000000 1.757610 0.000000 
#    z 0.000000 0.000000 1.746470 
# 
# From -- ./inp_files/7267.got.cif
#   From: 2010.03.12/outbox.cif.g09.slc.cpg/sg65_4_cif.got.tgz:7267.got - 2010.04.10 20:52:16.
