data_PCOD8273397
_publ_section_title
;
Structure prediction by ZEFSAII (Michael W. Deem and Ramdas Pophale) SiO2 
 PCOD8273397
Probable space group: C M M M
;
_chemical_formula_sum "Si O2"
_cell_formula_units_Z 96
_cell_length_a 8.925361
_cell_length_b 18.562678
_cell_length_c 30.812348
_cell_angle_alpha 90.000000
_cell_angle_beta 90.000000
_cell_angle_gamma 90.000000
_cell_volume 5104.946750
_symmetry_space_group_name_H-M "C M M M"
_symmetry_group_IT_number 65
_symmetry_cell_setting 'orthorhombic'
loop_
_space_group_symop_operation_xyz
x,y,z
-x,-y,z
x,-y,-z
-x,y,-z
-x,-y,-z
x,y,-z
-x,y,z
x,-y,z
1/2+x,1/2+y,z
1/2-x,1/2-y,z
1/2+x,1/2-y,-z
1/2-x,1/2+y,-z
1/2-x,1/2-y,-z
1/2+x,1/2+y,-z
1/2-x,1/2+y,z
1/2+x,1/2-y,z
loop_
_atom_site_type_symbol
_atom_site_label
_atom_site_fract_x
_atom_site_fract_y
_atom_site_fract_z
Si Si1 0.825937 0.915231 0.291273
Si Si2 0.321890 0.171944 0.785200
Si Si3 0.324974 0.675434 0.550166
Si Si4 0.676641 0.081440 0.132662
Si Si5 0.330448 0.914971 0.620727
Si Si6 0.830644 0.085550 0.047238
O O1 0.731896 0.874182 0.255316
O O2 0.763062 0.889053 0.337536
O O3 0.000000 0.894307 0.288223
O O4 0.800562 0.000000 0.284639
O O5 0.500000 0.178694 0.783811
O O6 0.250000 0.250000 0.783914
O O7 0.264979 0.131458 0.828478
O O8 0.293117 0.658136 0.500000
O O9 0.500000 0.679725 0.560285
O O10 0.250000 0.750000 0.564271
O O11 0.249815 0.612470 0.577560
O O12 0.500000 0.079973 0.131494
O O13 0.732632 0.115540 0.087098
O O14 0.738983 0.000000 0.139523
O O15 0.500000 0.885156 0.623967
O O16 0.330673 0.000000 0.617691
O O17 0.000000 0.112015 0.054227
O O18 0.822277 0.000000 0.047199
O O19 0.771773 0.113579 0.000000
#
# Coordination Sequence:
#
# PCOD8273397 Si02
#       6
#    16  16  16  16  16  16
#     4  10  21  38  60  84 109 138 175 218 265 319
#     4  11  23  38  55  77 107 140 177 220 265 315
#     4  10  21  37  57  81 111 147 186 227 269 315
#     4   9  18  32  51  75 102 134 170 210 259 312
#     4  10  21  37  58  84 113 144 178 219 267 317
#     4   8  14  25  43  70 102 132 164 206 254 303
#
# _framework density 18.805289999999999
#
# number of rings (size 3 to 8) (size 9 to 14) (size 15 to 20)
#    0.000    2.333    0.000    3.000    0.000    6.333 
#    0.000    8.333    0.000    0.500    0.000    0.000 
#    0.000    0.000    0.000    0.000    0.000    0.000 
#
# Total GULP energy -595187.472524 kJ/mol
# GULP energy per Si atom -12399.739011 kJ/mol
# Density = 1.876249 g / cm^3
# Si number density = 18.805290 Si / 1000 Ang^3
#
#
#
# Elastic Constant Matrix: (Units=GPa)
#
#
# Indices 1 2 3 4 5 6 
#
# 1 80.5856 31.6803 48.8688 0.0000 0.0000 0.0000
# 2 31.6803 38.0811 44.2310 0.0000 0.0000 0.0000
# 3 48.8688 44.2310 134.2502 0.0000 0.0000 0.0000
# 4 0.0000 0.0000 0.0000 2.3323 0.0000 0.0000
# 5 0.0000 0.0000 0.0000 0.0000 38.5815 0.0000
# 6 0.0000 0.0000 0.0000 0.0000 0.0000 24.1809
#
#
#
# Elastic Compliance Matrix: (Units=1/GPa)
#
#
# Indices 1 2 3 4 5 6 
#
# 1 0.019058 -0.012630 -0.002776 0.000000 0.000000 0.000000
# 2 -0.012630 0.050908 -0.012175 0.000000 0.000000 0.000000
# 3 -0.002776 -0.012175 0.012471 0.000000 0.000000 0.000000
# 4 0.000000 0.000000 0.000000 0.428766 0.000000 0.000000
# 5 0.000000 0.000000 0.000000 0.000000 0.025919 0.000000
# 6 0.000000 0.000000 0.000000 0.000000 0.000000 0.041355
#
#
# Mechanical properties :
#
#
# Convention : Reuss Voigt Hill
#
# Bulk Modulus (GPa) = 36.66475 55.83077 46.24776
# Shear Modulus (GPa) = 7.77931 21.56140 14.67035
#
# Velocity S-wave (km/s) = 2.03611 3.38976 2.79609
# Velocity P-wave (km/s) = 5.00670 6.71372 5.92204
#
# Compressibility (1/GPa) = 0.02727415
#
# Stress axis : x y z
#
# Youngs Moduli (GPa) = 52.47177 19.64318 80.18874
#
# Poissons Ratio (x) = 0.24810 0.22261
# Poissons Ratio (y) = 0.66273 0.97630
# Poissons Ratio (z) = 0.14567 0.23916
#
# Static dielectric constant tensor:
#      x y z
#    x 3.558310 0.000000 0.000000 
#    y 0.000000 3.239100 0.000000 
#    z 0.000000 0.000000 3.797660 
# 
# 
# High freq. dielectric constant tensor:
#      x y z
#    x 1.737500 0.000000 0.000000 
#    y 0.000000 1.702480 0.000000 
#    z 0.000000 0.000000 1.747380 
# 
# From -- ./inp_files/73128.got.cif
#   From: 2010.03.12/outbox.cif.g09.slc.cpg/sg65_37_cif.got.tgz:73128.got - 2010.04.10 20:52:16.
