data_PCOD8273355
_publ_section_title
;
Structure prediction by ZEFSAII (Michael W. Deem and Ramdas Pophale) SiO2 
 PCOD8273355
Probable space group: C M M M
;
_chemical_formula_sum "Si O2"
_cell_formula_units_Z 88
_cell_length_a 19.085478
_cell_length_b 8.115809
_cell_length_c 29.610629
_cell_angle_alpha 90.000000
_cell_angle_beta 90.000000
_cell_angle_gamma 90.000000
_cell_volume 4586.511555
_symmetry_space_group_name_H-M "C M M M"
_symmetry_group_IT_number 65
_symmetry_cell_setting 'orthorhombic'
loop_
_space_group_symop_operation_xyz
x,y,z
-x,-y,z
x,-y,-z
-x,y,-z
-x,-y,-z
x,y,-z
-x,y,z
x,-y,z
1/2+x,1/2+y,z
1/2-x,1/2-y,z
1/2+x,1/2-y,-z
1/2-x,1/2+y,-z
1/2-x,1/2-y,-z
1/2+x,1/2+y,-z
1/2-x,1/2+y,z
1/2+x,1/2-y,z
loop_
_atom_site_type_symbol
_atom_site_label
_atom_site_fract_x
_atom_site_fract_y
_atom_site_fract_z
Si Si1 0.421720 0.188943 0.870265
Si Si2 0.082294 0.693056 0.388549
Si Si3 0.082664 0.000000 0.550193
Si Si4 0.579791 0.311047 0.224452
Si Si5 0.327158 0.306954 0.051149
Si Si6 0.328871 0.811788 0.696067
O O1 0.500000 0.247609 0.881811
O O2 0.393471 0.290539 0.827122
O O3 0.378200 0.215072 0.915254
O O4 0.418969 0.000000 0.855848
O O5 0.099152 0.500000 0.402091
O O6 0.124368 0.759040 0.344756
O O7 0.000000 0.708498 0.377654
O O8 0.105728 0.826763 0.426360
O O9 0.115860 0.000000 0.500000
O O10 0.000000 0.000000 0.547271
O O11 0.500000 0.242132 0.228870
O O12 0.582543 0.500000 0.238599
O O13 0.632616 0.215316 0.256568
O O14 0.334573 0.500000 0.057923
O O15 0.250000 0.250000 0.063751
O O16 0.346010 0.254344 0.000000
O O17 0.250000 0.750000 0.697394
O O18 0.322939 0.000000 0.685773
#
# Coordination Sequence:
#
# PCOD8273355 Si02
#       6
#    16  16   8  16  16  16
#     4  10  21  37  57  81 110 143 178 222 273 325
#     4   9  19  35  56  83 114 150 189 234 287 339
#     4   9  18  32  56  88 116 146 187 237 286 336
#     4  10  21  37  58  82 110 144 182 225 274 332
#     4  10  21  37  57  80 107 140 180 225 273 326
#     4  11  23  37  55  82 112 148 187 231 279 329
#
# _framework density 19.186696000000001
#
# number of rings (size 3 to 8) (size 9 to 14) (size 15 to 20)
#    0.000    2.091    0.000    2.727    2.545    5.455 
#    0.000    7.273    0.000    0.545    0.000    0.000 
#    0.000    0.000    0.000    0.000    0.000    0.000 
#
# Total GULP energy -545420.943848 kJ/mol
# GULP energy per Si atom -12395.930542 kJ/mol
# Density = 1.914303 g / cm^3
# Si number density = 19.186696 Si / 1000 Ang^3
#
#
#
# Elastic Constant Matrix: (Units=GPa)
#
#
# Indices 1 2 3 4 5 6 
#
# 1 82.8526 25.8378 68.9861 0.0000 0.0000 0.0000
# 2 25.8378 62.1249 35.7972 0.0000 0.0000 0.0000
# 3 68.9861 35.7972 137.4791 0.0000 0.0000 0.0000
# 4 0.0000 0.0000 0.0000 34.2481 0.0000 0.0000
# 5 0.0000 0.0000 0.0000 0.0000 7.4143 0.0000
# 6 0.0000 0.0000 0.0000 0.0000 0.0000 22.3853
#
#
#
# Elastic Compliance Matrix: (Units=1/GPa)
#
#
# Indices 1 2 3 4 5 6 
#
# 1 0.021249 -0.003169 -0.009837 0.000000 0.000000 0.000000
# 2 -0.003169 0.019411 -0.003464 0.000000 0.000000 0.000000
# 3 -0.009837 -0.003464 0.013112 0.000000 0.000000 0.000000
# 4 0.000000 0.000000 0.000000 0.029199 0.000000 0.000000
# 5 0.000000 0.000000 0.000000 0.000000 0.134875 0.000000
# 6 0.000000 0.000000 0.000000 0.000000 0.000000 0.044672
#
#
# Mechanical properties :
#
#
# Convention : Reuss Voigt Hill
#
# Bulk Modulus (GPa) = 48.00577 60.41099 54.20838
# Shear Modulus (GPa) = 16.53428 22.93190 19.73309
#
# Velocity S-wave (km/s) = 2.93876 3.46091 3.21047
# Velocity P-wave (km/s) = 6.04894 6.89382 6.48516
#
# Compressibility (1/GPa) = 0.02083083
#
# Stress axis : x y z
#
# Youngs Moduli (GPa) = 47.06135 51.51818 76.26516
#
# Poissons Ratio (x) = 0.16326 0.75025
# Poissons Ratio (y) = 0.14914 0.26418
# Poissons Ratio (z) = 0.46296 0.17846
#
# Static dielectric constant tensor:
#      x y z
#    x 3.333060 0.000000 0.000000 
#    y 0.000000 3.643420 0.000000 
#    z 0.000000 0.000000 3.580780 
# 
# 
# High freq. dielectric constant tensor:
#      x y z
#    x 1.729750 0.000000 0.000000 
#    y 0.000000 1.759030 0.000000 
#    z 0.000000 0.000000 1.747070 
# 
# From -- ./inp_files/70962.got.cif
#   From: 2010.03.12/outbox.cif.g09.slc.cpg/sg65_36_cif.got.tgz:70962.got - 2010.04.10 20:52:16.
