data_PCOD8273201
_publ_section_title
;
Structure prediction by ZEFSAII (Michael W. Deem and Ramdas Pophale) SiO2 
 PCOD8273201
Probable space group: C M M M
;
_chemical_formula_sum "Si O2"
_cell_formula_units_Z 88
_cell_length_a 22.557804
_cell_length_b 23.984632
_cell_length_c 8.909196
_cell_angle_alpha 90.000000
_cell_angle_beta 90.000000
_cell_angle_gamma 90.000000
_cell_volume 4820.236996
_symmetry_space_group_name_H-M "C M M M"
_symmetry_group_IT_number 65
_symmetry_cell_setting 'orthorhombic'
loop_
_space_group_symop_operation_xyz
x,y,z
-x,-y,z
x,-y,-z
-x,y,-z
-x,-y,-z
x,y,-z
-x,y,z
x,-y,z
1/2+x,1/2+y,z
1/2-x,1/2-y,z
1/2+x,1/2-y,-z
1/2-x,1/2+y,-z
1/2-x,1/2-y,-z
1/2+x,1/2+y,-z
1/2-x,1/2+y,z
1/2+x,1/2-y,z
loop_
_atom_site_type_symbol
_atom_site_label
_atom_site_fract_x
_atom_site_fract_y
_atom_site_fract_z
Si Si1 0.720428 0.564583 0.175570
Si Si2 0.500000 0.434124 0.171597
Si Si3 0.842608 0.435677 0.326137
Si Si4 0.111171 0.877780 0.676087
Si Si5 0.430576 0.145861 0.173314
Si Si6 0.931664 0.757964 0.327926
O O1 0.707970 0.500000 0.212799
O O2 0.785131 0.582357 0.232103
O O3 0.673672 0.602037 0.262443
O O4 0.715589 0.576670 0.000000
O O5 0.500000 0.500000 0.185526
O O6 0.441298 0.411706 0.248538
O O7 0.500000 0.414347 0.000000
O O8 0.829954 0.423684 0.500000
O O9 0.858243 0.500000 0.297388
O O10 0.898405 0.400622 0.271046
O O11 0.107031 0.888710 0.500000
O O12 0.106454 0.812247 0.713421
O O13 0.500000 0.138732 0.204600
O O14 0.409810 0.207348 0.223972
O O15 0.414430 0.137710 0.000000
O O16 0.922252 0.740004 0.500000
O O17 0.000000 0.773144 0.296855
#
# Coordination Sequence:
#
# PCOD8273201 Si02
#       6
#    16   8  16  16  16  16
#     4  10  21  37  56  79 110 147 184 226 278 332
#     4  11  23  35  49  75 111 147 186 235 284 327
#     4  10  21  38  60  84 110 144 183 222 269 325
#     4  11  21  35  55  80 108 144 189 233 278 327
#     4  10  21  36  57  86 115 144 178 219 272 328
#     4   9  18  35  55  77 108 145 184 226 274 325
#
# _framework density 18.256364000000001
#
# number of rings (size 3 to 8) (size 9 to 14) (size 15 to 20)
#    0.000    1.909    0.909    3.000    0.000    8.000 
#    0.000    2.727    0.000    5.455    0.000    0.000 
#    0.000    0.000    0.000    0.000    0.000    0.000 
#
# Total GULP energy -545811.793436 kJ/mol
# GULP energy per Si atom -12404.813487 kJ/mol
# Density = 1.821481 g / cm^3
# Si number density = 18.256364 Si / 1000 Ang^3
#
#
#
# Elastic Constant Matrix: (Units=GPa)
#
#
# Indices 1 2 3 4 5 6 
#
# 1 80.0300 59.7464 41.5552 0.0000 0.0000 0.0000
# 2 59.7464 97.7869 57.4484 0.0000 0.0000 0.0000
# 3 41.5552 57.4484 90.6996 0.0000 0.0000 0.0000
# 4 0.0000 0.0000 0.0000 31.0024 0.0000 0.0000
# 5 0.0000 0.0000 0.0000 0.0000 6.2717 0.0000
# 6 0.0000 0.0000 0.0000 0.0000 0.0000 -66.4623
#
#
#
# Elastic Compliance Matrix: (Units=1/GPa)
#
#
# Indices 1 2 3 4 5 6 
#
# 1 0.023368 -0.012721 -0.002649 0.000000 0.000000 0.000000
# 2 -0.012721 0.023212 -0.008874 0.000000 0.000000 0.000000
# 3 -0.002649 -0.008874 0.017860 0.000000 0.000000 0.000000
# 4 0.000000 0.000000 0.000000 0.032256 0.000000 0.000000
# 5 0.000000 0.000000 0.000000 0.000000 0.159445 0.000000
# 6 0.000000 0.000000 0.000000 0.000000 0.000000 -0.015046
#
#
# Mechanical properties :
#
#
# Convention : Reuss Voigt Hill
#
# Bulk Modulus (GPa) = 62.68938 65.11292 63.90115
# Shear Modulus (GPa) = 16.95494 1.48014 9.21754
#
# Velocity S-wave (km/s) = 3.05079 0.90139 2.24942
# Velocity P-wave (km/s) = 6.84271 6.06850 6.46720
#
# Compressibility (1/GPa) = 0.01595166
#
# Stress axis : x y z
#
# Youngs Moduli (GPa) = 42.79421 43.08085 55.99219
#
# Poissons Ratio (x) = 0.54804 0.14830
# Poissons Ratio (y) = 0.54440 0.49687
# Poissons Ratio (z) = 0.11335 0.38230
#
# Static dielectric constant tensor:
#      x y z
#    x 3.158690 0.000000 0.000000 
#    y 0.000000 3.382740 0.000000 
#    z 0.000000 0.000000 3.516120 
# 
# 
# High freq. dielectric constant tensor:
#      x y z
#    x 1.699920 0.000000 0.000000 
#    y 0.000000 1.708700 0.000000 
#    z 0.000000 0.000000 1.723090 
# 
# From -- ./inp_files/11826.got.cif
#   From: 2010.03.12/outbox.cif.g09.slc.cpg/sg65_6_cif.got.tgz:11826.got - 2010.04.10 20:52:16.
