data_PCOD8273680
_publ_section_title
;
Structure prediction by ZEFSAII (Michael W. Deem and Ramdas Pophale) SiO2 
 PCOD8273680
Probable space group: C M M M
;
_chemical_formula_sum "Si O2"
_cell_formula_units_Z 88
_cell_length_a 8.681046
_cell_length_b 21.088664
_cell_length_c 25.224348
_cell_angle_alpha 90.000000
_cell_angle_beta 90.000000
_cell_angle_gamma 90.000000
_cell_volume 4617.863318
_symmetry_space_group_name_H-M "C M M M"
_symmetry_group_IT_number 65
_symmetry_cell_setting 'orthorhombic'
loop_
_space_group_symop_operation_xyz
x,y,z
-x,-y,z
x,-y,-z
-x,y,-z
-x,-y,-z
x,y,-z
-x,y,z
x,-y,z
1/2+x,1/2+y,z
1/2-x,1/2-y,z
1/2+x,1/2-y,-z
1/2-x,1/2+y,-z
1/2-x,1/2-y,-z
1/2+x,1/2+y,-z
1/2-x,1/2+y,z
1/2+x,1/2-y,z
loop_
_atom_site_type_symbol
_atom_site_label
_atom_site_fract_x
_atom_site_fract_y
_atom_site_fract_z
Si Si1 0.317373 0.318438 0.289673
Si Si2 0.320064 0.183480 0.500000
Si Si3 0.317578 0.500000 0.437735
Si Si4 0.673413 0.924206 0.000000
Si Si5 0.671188 0.574710 0.105960
Si Si6 0.683326 0.877803 0.606849
Si Si7 0.319237 0.073341 0.215609
O O1 0.500000 0.312900 0.289415
O O2 0.250000 0.250000 0.271305
O O3 0.256879 0.334581 0.347906
O O4 0.268034 0.376857 0.252504
O O5 0.500000 0.186834 0.500000
O O6 0.250000 0.250000 0.500000
O O7 0.258736 0.149902 0.551720
O O8 0.500000 0.500000 0.440332
O O9 0.254289 0.500000 0.500000
O O10 0.254888 0.553492 0.398387
O O11 0.757318 0.896539 0.052173
O O12 0.500000 0.898502 0.000000
O O13 0.675238 0.000000 0.000000
O O14 0.500000 0.603039 0.114846
O O15 0.660790 0.500000 0.099252
O O16 0.779438 0.592074 0.155361
O O17 0.500000 0.880321 0.614817
O O18 0.500000 0.080799 0.225029
O O19 0.268393 0.000000 0.227602
#
# Coordination Sequence:
#
# PCOD8273680 Si02
#       7
#    16   8   8   8  16  16  16
#     4  12  26  44  64  88 118 153 198 246 296 353
#     4  10  22  37  58  83 109 144 182 226 281 340
#     4  11  23  39  61  91 121 153 189 230 281 342
#     4   9  15  23  39  67 106 151 194 237 288 347
#     4   9  16  27  45  73 110 150 192 240 292 346
#     4  11  23  41  62  86 116 152 190 234 287 344
#     4  10  21  38  60  86 117 155 197 243 297 354
#
# _framework density 19.056433999999999
#
# number of rings (size 3 to 8) (size 9 to 14) (size 15 to 20)
#    0.000    1.636    0.909    4.364    1.273    7.636 
#    0.000    0.000    0.000    0.000    0.000    0.636 
#    0.000    0.000    0.000    0.000    0.000    0.000 
#
# Total GULP energy -545305.659387 kJ/mol
# GULP energy per Si atom -12393.310441 kJ/mol
# Density = 1.901306 g / cm^3
# Si number density = 19.056434 Si / 1000 Ang^3
#
#
#
# Elastic Constant Matrix: (Units=GPa)
#
#
# Indices 1 2 3 4 5 6 
#
# 1 111.9331 42.5519 46.3145 0.0000 0.0000 0.0000
# 2 42.5519 102.2412 44.5325 0.0000 0.0000 0.0000
# 3 46.3145 44.5325 121.3887 0.0000 0.0000 0.0000
# 4 0.0000 0.0000 0.0000 -1.1109 0.0000 0.0000
# 5 0.0000 0.0000 0.0000 0.0000 55.2547 0.0000
# 6 0.0000 0.0000 0.0000 0.0000 0.0000 29.5630
#
#
#
# Elastic Compliance Matrix: (Units=1/GPa)
#
#
# Indices 1 2 3 4 5 6 
#
# 1 0.011540 -0.003434 -0.003143 0.000000 0.000000 0.000000
# 2 -0.003434 0.012663 -0.003335 0.000000 0.000000 0.000000
# 3 -0.003143 -0.003335 0.010661 0.000000 0.000000 0.000000
# 4 0.000000 0.000000 0.000000 -0.900162 0.000000 0.000000
# 5 0.000000 0.000000 0.000000 0.000000 0.018098 0.000000
# 6 0.000000 0.000000 0.000000 0.000000 0.000000 0.033826
#
#
# Mechanical properties :
#
#
# Convention : Reuss Voigt Hill
#
# Bulk Modulus (GPa) = 66.49448 66.92899 66.71174
# Shear Modulus (GPa) = -6.34085 30.21897 11.93906
#
# Velocity S-wave (km/s) = -1.82610 3.98648 2.50574
# Velocity P-wave (km/s) = 5.52477 7.50913 6.59205
#
# Compressibility (1/GPa) = 0.01503884
#
# Stress axis : x y z
#
# Youngs Moduli (GPa) = 86.65655 78.97277 93.80132
#
# Poissons Ratio (x) = 0.27117 0.29484
# Poissons Ratio (y) = 0.29755 0.31285
# Poissons Ratio (z) = 0.27238 0.26340
#
# Static dielectric constant tensor:
#      x y z
#    x 3.569560 0.000000 0.000000 
#    y 0.000000 3.423880 0.000000 
#    z 0.000000 0.000000 3.941750 
# 
# 
# High freq. dielectric constant tensor:
#      x y z
#    x 1.754990 0.000000 0.000000 
#    y 0.000000 1.711410 0.000000 
#    z 0.000000 0.000000 1.750270 
# 
# From -- ./inp_files/67694.got.cif
#   From: 2010.03.12/outbox.cif.g09.slc.cpg/sg65_34_cif.got.tgz:67694.got - 2010.04.10 20:52:16.
