data_PCOD8273002
_publ_section_title
;
Structure prediction by ZEFSAII (Michael W. Deem and Ramdas Pophale) SiO2 
 PCOD8273002
Probable space group: C M M M
;
_chemical_formula_sum "Si O2"
_cell_formula_units_Z 96
_cell_length_a 18.472508
_cell_length_b 31.852442
_cell_length_c 9.234845
_cell_angle_alpha 90.000000
_cell_angle_beta 90.000000
_cell_angle_gamma 90.000000
_cell_volume 5433.731911
_symmetry_space_group_name_H-M "C M M M"
_symmetry_group_IT_number 65
_symmetry_cell_setting 'orthorhombic'
loop_
_space_group_symop_operation_xyz
x,y,z
-x,-y,z
x,-y,-z
-x,y,-z
-x,-y,-z
x,y,-z
-x,y,z
x,-y,z
1/2+x,1/2+y,z
1/2-x,1/2-y,z
1/2+x,1/2-y,-z
1/2-x,1/2+y,-z
1/2-x,1/2-y,-z
1/2+x,1/2+y,-z
1/2-x,1/2+y,z
1/2+x,1/2-y,z
loop_
_atom_site_type_symbol
_atom_site_label
_atom_site_fract_x
_atom_site_fract_y
_atom_site_fract_z
Si Si1 0.584122 0.663553 0.833739
Si Si2 0.204753 0.117661 0.330608
Si Si3 0.344534 0.169616 0.665386
Si Si4 0.419002 0.758903 0.829482
Si Si5 0.288031 0.048267 0.833453
Si Si6 0.417173 0.084112 0.331899
O O1 0.500000 0.653112 0.812818
O O2 0.628202 0.632309 0.731506
O O3 0.600495 0.711322 0.786325
O O4 0.607227 0.656522 0.000000
O O5 0.197647 0.108025 0.500000
O O6 0.263698 0.153890 0.300366
O O7 0.228366 0.074975 0.251988
O O8 0.352762 0.183362 0.500000
O O9 0.360414 0.210331 0.760362
O O10 0.400927 0.132691 0.704144
O O11 0.500000 0.769728 0.773642
O O12 0.415727 0.764303 0.000000
O O13 0.367621 0.054134 0.765033
O O14 0.265104 0.000000 0.820229
O O15 0.290552 0.062924 0.000000
O O16 0.399078 0.075404 0.500000
O O17 0.500000 0.073974 0.294788
#
# Coordination Sequence:
#
# PCOD8273002 Si02
#       6
#    16  16  16  16  16  16
#     4   9  19  36  55  75 101 131 163 202 249 300
#     4  10  21  36  54  76 101 130 165 204 249 302
#     4   9  18  31  46  68 100 136 173 211 247 284
#     4   9  18  31  47  70 100 135 174 211 247 288
#     4  10  21  36  54  76 101 130 165 205 251 302
#     4   9  18  32  49  71 102 140 178 213 251 293
#
# _framework density 17.667415999999999
#
# number of rings (size 3 to 8) (size 9 to 14) (size 15 to 20)
#    0.000    2.667    0.000    3.500    0.000    8.000 
#    0.000    6.667    0.000    0.500    0.000    3.500 
#    0.000    0.000    0.000    0.000    0.000    0.000 
#
# Total GULP energy -595269.110609 kJ/mol
# GULP energy per Si atom -12401.439804 kJ/mol
# Density = 1.762720 g / cm^3
# Si number density = 17.667416 Si / 1000 Ang^3
#
#
#
# Elastic Constant Matrix: (Units=GPa)
#
#
# Indices 1 2 3 4 5 6 
#
# 1 74.4656 51.8932 49.9509 0.0000 0.0000 0.0000
# 2 51.8932 86.2853 57.2080 0.0000 0.0000 0.0000
# 3 49.9509 57.2080 92.7502 0.0000 0.0000 0.0000
# 4 0.0000 0.0000 0.0000 9.1735 0.0000 0.0000
# 5 0.0000 0.0000 0.0000 0.0000 32.3700 0.0000
# 6 0.0000 0.0000 0.0000 0.0000 0.0000 16.4390
#
#
#
# Elastic Compliance Matrix: (Units=1/GPa)
#
#
# Indices 1 2 3 4 5 6 
#
# 1 0.025741 -0.010642 -0.007299 0.000000 0.000000 0.000000
# 2 -0.010642 0.024007 -0.009077 0.000000 0.000000 0.000000
# 3 -0.007299 -0.009077 0.020311 0.000000 0.000000 0.000000
# 4 0.000000 0.000000 0.000000 0.109010 0.000000 0.000000
# 5 0.000000 0.000000 0.000000 0.000000 0.030893 0.000000
# 6 0.000000 0.000000 0.000000 0.000000 0.000000 0.060831
#
#
# Mechanical properties :
#
#
# Convention : Reuss Voigt Hill
#
# Bulk Modulus (GPa) = 62.40371 63.51169 62.95770
# Shear Modulus (GPa) = 15.14374 17.89311 16.51843
#
# Velocity S-wave (km/s) = 2.93090 3.18586 3.06104
# Velocity P-wave (km/s) = 6.84482 7.03985 6.94302
#
# Compressibility (1/GPa) = 0.01602469
#
# Stress axis : x y z
#
# Youngs Moduli (GPa) = 38.84827 41.65392 49.23418
#
# Poissons Ratio (x) = 0.44326 0.35937
# Poissons Ratio (y) = 0.41341 0.44688
# Poissons Ratio (z) = 0.28356 0.37808
#
# Static dielectric constant tensor:
#      x y z
#    x 3.206510 0.000000 0.000000 
#    y 0.000000 3.091220 0.000000 
#    z 0.000000 0.000000 3.255550 
# 
# 
# High freq. dielectric constant tensor:
#      x y z
#    x 1.673240 0.000000 0.000000 
#    y 0.000000 1.671190 0.000000 
#    z 0.000000 0.000000 1.686060 
# 
# From -- ./inp_files/12222.got.cif
#   From: 2010.03.12/outbox.cif.g09.slc.cpg/sg65_7_cif.got.tgz:12222.got - 2010.04.10 20:52:16.
