data_PCOD8273400
_publ_section_title
;
Structure prediction by ZEFSAII (Michael W. Deem and Ramdas Pophale) SiO2 
 PCOD8273400
Probable space group: C M M M
;
_chemical_formula_sum "Si O2"
_cell_formula_units_Z 72
_cell_length_a 8.792627
_cell_length_b 18.455323
_cell_length_c 22.918823
_cell_angle_alpha 90.000000
_cell_angle_beta 90.000000
_cell_angle_gamma 90.000000
_cell_volume 3719.055086
_symmetry_space_group_name_H-M "C M M M"
_symmetry_group_IT_number 65
_symmetry_cell_setting 'orthorhombic'
loop_
_space_group_symop_operation_xyz
x,y,z
-x,-y,z
x,-y,-z
-x,y,-z
-x,-y,-z
x,y,-z
-x,y,z
x,-y,z
1/2+x,1/2+y,z
1/2-x,1/2-y,z
1/2+x,1/2-y,-z
1/2-x,1/2+y,-z
1/2-x,1/2-y,-z
1/2+x,1/2+y,-z
1/2-x,1/2+y,z
1/2+x,1/2-y,z
loop_
_atom_site_type_symbol
_atom_site_label
_atom_site_fract_x
_atom_site_fract_y
_atom_site_fract_z
Si Si1 0.671028 0.414574 0.835471
Si Si2 0.680712 0.418336 0.500000
Si Si3 0.821301 0.325535 0.933191
Si Si4 0.677699 0.084508 0.283947
Si Si5 0.680133 0.670880 0.611424
O O1 0.500000 0.383391 0.830768
O O2 0.668002 0.500000 0.839116
O O3 0.751447 0.388261 0.894040
O O4 0.767090 0.389134 0.779458
O O5 0.747805 0.500000 0.500000
O O6 0.500000 0.421513 0.500000
O O7 0.740467 0.376242 0.443074
O O8 0.750000 0.250000 0.912832
O O9 0.000000 0.321844 0.923930
O O10 0.777981 0.342732 0.000000
O O11 0.500000 0.100616 0.289948
O O12 0.769451 0.131185 0.330155
O O13 0.715126 0.000000 0.293903
O O14 0.500000 0.677979 0.610763
O O15 0.750000 0.750000 0.607226
#
# Coordination Sequence:
#
# PCOD8273400 Si02
#       5
#    16   8  16  16  16
#     4  10  21  37  58  84 113 146 185 229 277 330
#     4   9  19  36  59  85 112 147 188 229 276 330
#     4  10  21  37  57  81 111 147 186 229 278 332
#     4  10  21  38  59  83 112 145 184 230 279 332
#     4  11  22  37  58  84 116 150 187 230 276 328
#
# _framework density 19.359755
#
# number of rings (size 3 to 8) (size 9 to 14) (size 15 to 20)
#    0.000    1.889    0.000    3.667    0.000    6.222 
#    0.000    8.333    0.000    4.000    0.000    0.000 
#    0.000    0.000    0.000    0.000    0.000    0.000 
#
# Total GULP energy -446551.398156 kJ/mol
# GULP energy per Si atom -12404.205504 kJ/mol
# Density = 1.931569 g / cm^3
# Si number density = 19.359755 Si / 1000 Ang^3
#
#
#
# Elastic Constant Matrix: (Units=GPa)
#
#
# Indices 1 2 3 4 5 6 
#
# 1 88.0904 41.9757 42.6868 0.0000 0.0000 0.0000
# 2 41.9757 82.0273 63.0142 0.0000 0.0000 0.0000
# 3 42.6868 63.0142 129.3694 0.0000 0.0000 0.0000
# 4 0.0000 0.0000 0.0000 27.7129 0.0000 0.0000
# 5 0.0000 0.0000 0.0000 0.0000 29.7740 0.0000
# 6 0.0000 0.0000 0.0000 0.0000 0.0000 28.2605
#
#
#
# Elastic Compliance Matrix: (Units=1/GPa)
#
#
# Indices 1 2 3 4 5 6 
#
# 1 0.015322 -0.006323 -0.001976 0.000000 0.000000 0.000000
# 2 -0.006323 0.022090 -0.008673 0.000000 0.000000 0.000000
# 3 -0.001976 -0.008673 0.012606 0.000000 0.000000 0.000000
# 4 0.000000 0.000000 0.000000 0.036084 0.000000 0.000000
# 5 0.000000 0.000000 0.000000 0.000000 0.033586 0.000000
# 6 0.000000 0.000000 0.000000 0.000000 0.000000 0.035385
#
#
# Mechanical properties :
#
#
# Convention : Reuss Voigt Hill
#
# Bulk Modulus (GPa) = 62.21187 66.09340 64.15263
# Shear Modulus (GPa) = 25.72330 27.27018 26.49674
#
# Velocity S-wave (km/s) = 3.64909 3.75721 3.70354
# Velocity P-wave (km/s) = 7.06816 7.28257 7.17616
#
# Compressibility (1/GPa) = 0.01607410
#
# Stress axis : x y z
#
# Youngs Moduli (GPa) = 65.26389 45.27036 79.32486
#
# Poissons Ratio (x) = 0.28624 0.15674
# Poissons Ratio (y) = 0.41266 0.68800
# Poissons Ratio (z) = 0.12896 0.39264
#
# Static dielectric constant tensor:
#      x y z
#    x 3.618760 0.000000 0.000000 
#    y 0.000000 3.514770 0.000000 
#    z 0.000000 0.000000 3.674170 
# 
# 
# High freq. dielectric constant tensor:
#      x y z
#    x 1.759630 0.000000 0.000000 
#    y 0.000000 1.752060 0.000000 
#    z 0.000000 0.000000 1.766550 
# 
# From -- ./inp_files/64334.got.cif
#   From: 2010.03.12/outbox.cif.g09.slc.cpg/sg65_33_cif.got.tgz:64334.got - 2010.04.10 20:52:16.
