data_PCOD8273588
_publ_section_title
;
Structure prediction by ZEFSAII (Michael W. Deem and Ramdas Pophale) SiO2 
 PCOD8273588
Probable space group: C M M M
;
_chemical_formula_sum "Si O2"
_cell_formula_units_Z 72
_cell_length_a 8.861403
_cell_length_b 30.888404
_cell_length_c 14.461300
_cell_angle_alpha 90.000000
_cell_angle_beta 90.000000
_cell_angle_gamma 90.000000
_cell_volume 3958.268885
_symmetry_space_group_name_H-M "C M M M"
_symmetry_group_IT_number 65
_symmetry_cell_setting 'orthorhombic'
loop_
_space_group_symop_operation_xyz
x,y,z
-x,-y,z
x,-y,-z
-x,y,-z
-x,-y,-z
x,y,-z
-x,y,z
x,-y,z
1/2+x,1/2+y,z
1/2-x,1/2-y,z
1/2+x,1/2-y,-z
1/2-x,1/2+y,-z
1/2-x,1/2-y,-z
1/2+x,1/2+y,-z
1/2-x,1/2+y,z
1/2+x,1/2-y,z
loop_
_atom_site_type_symbol
_atom_site_label
_atom_site_fract_x
_atom_site_fract_y
_atom_site_fract_z
Si Si1 0.826183 0.049270 0.891789
Si Si2 0.676312 0.127229 0.791431
Si Si3 0.322728 0.294094 0.894586
Si Si4 0.679301 0.907676 0.398188
Si Si5 0.336980 0.000000 0.608544
O O1 0.717683 0.081535 0.837244
O O2 0.000000 0.060806 0.870711
O O3 0.790449 0.000000 0.860575
O O4 0.793597 0.054698 0.000000
O O5 0.500000 0.135930 0.806701
O O6 0.770638 0.165860 0.834097
O O7 0.719948 0.126402 0.682083
O O8 0.500000 0.289316 0.886801
O O9 0.250000 0.250000 0.855999
O O10 0.270709 0.302264 0.000000
O O11 0.739167 0.892421 0.500000
O O12 0.500000 0.914031 0.403377
O O13 0.750116 0.954838 0.368460
O O14 0.500000 0.000000 0.659750
O O15 0.364544 0.000000 0.500000
#
# Coordination Sequence:
#
# PCOD8273588 Si02
#       5
#    16  16  16  16   8
#     4   9  19  35  50  65  95 141 182 211 248 303
#     4  11  21  30  50  81 107 132 168 214 259 305
#     4  10  21  38  59  80 104 133 165 205 255 310
#     4   8  15  27  43  67 101 138 173 211 254 299
#     4   7  10  20  38  58  86 127 170 208 245 283
#
# _framework density 18.189769999999999
#
# number of rings (size 3 to 8) (size 9 to 14) (size 15 to 20)
#    0.000    2.778    0.000    4.000    1.556    4.889 
#    0.000    1.111    0.000    3.333    0.000    1.556 
#    0.000    0.000    0.000    0.000    0.000    0.000 
#
# Total GULP energy -446086.841097 kJ/mol
# GULP energy per Si atom -12391.301142 kJ/mol
# Density = 1.814837 g / cm^3
# Si number density = 18.189770 Si / 1000 Ang^3
#
#
#
# Elastic Constant Matrix: (Units=GPa)
#
#
# Indices 1 2 3 4 5 6 
#
# 1 39.5023 24.7742 21.9248 0.0000 0.0000 0.0000
# 2 24.7742 104.5892 56.3819 0.0000 0.0000 0.0000
# 3 21.9248 56.3819 85.1250 0.0000 0.0000 0.0000
# 4 0.0000 0.0000 0.0000 13.5468 0.0000 0.0000
# 5 0.0000 0.0000 0.0000 0.0000 12.2197 0.0000
# 6 0.0000 0.0000 0.0000 0.0000 0.0000 30.6681
#
#
#
# Elastic Compliance Matrix: (Units=1/GPa)
#
#
# Indices 1 2 3 4 5 6 
#
# 1 0.030967 -0.004721 -0.004849 0.000000 0.000000 0.000000
# 2 -0.004721 0.015591 -0.009110 0.000000 0.000000 0.000000
# 3 -0.004849 -0.009110 0.019031 0.000000 0.000000 0.000000
# 4 0.000000 0.000000 0.000000 0.073818 0.000000 0.000000
# 5 0.000000 0.000000 0.000000 0.000000 0.081835 0.000000
# 6 0.000000 0.000000 0.000000 0.000000 0.000000 0.032607
#
#
# Mechanical properties :
#
#
# Convention : Reuss Voigt Hill
#
# Bulk Modulus (GPa) = 35.42655 48.37537 41.90096
# Shear Modulus (GPa) = 16.63233 19.69595 18.16414
#
# Velocity S-wave (km/s) = 3.02715 3.29417 3.16348
# Velocity P-wave (km/s) = 5.63352 6.41259 6.03564
#
# Compressibility (1/GPa) = 0.02822741
#
# Stress axis : x y z
#
# Youngs Moduli (GPa) = 32.29226 64.14021 52.54722
#
# Poissons Ratio (x) = 0.30283 0.25479
# Poissons Ratio (y) = 0.15246 0.47873
# Poissons Ratio (z) = 0.15658 0.58435
#
# Static dielectric constant tensor:
#      x y z
#    x 3.046100 0.000000 0.000000 
#    y 0.000000 3.398810 0.000000 
#    z 0.000000 0.000000 3.489300 
# 
# 
# High freq. dielectric constant tensor:
#      x y z
#    x 1.676260 0.000000 0.000000 
#    y 0.000000 1.693620 0.000000 
#    z 0.000000 0.000000 1.701780 
# 
# From -- ./inp_files/36513.got.cif
#   From: 2010.03.12/outbox.cif.g09.slc.cpg/sg65_19_cif.got.tgz:36513.got - 2010.04.10 20:52:16.
