data_PCOD8273108
_publ_section_title
;
Structure prediction by ZEFSAII (Michael W. Deem and Ramdas Pophale) SiO2 
 PCOD8273108
Probable space group: C M M M
;
_chemical_formula_sum "Si O2"
_cell_formula_units_Z 80
_cell_length_a 18.285610
_cell_length_b 9.323444
_cell_length_c 25.561695
_cell_angle_alpha 90.000000
_cell_angle_beta 90.000000
_cell_angle_gamma 90.000000
_cell_volume 4357.882015
_symmetry_space_group_name_H-M "C M M M"
_symmetry_group_IT_number 65
_symmetry_cell_setting 'orthorhombic'
loop_
_space_group_symop_operation_xyz
x,y,z
-x,-y,z
x,-y,-z
-x,y,-z
-x,-y,-z
x,y,-z
-x,y,z
x,-y,z
1/2+x,1/2+y,z
1/2-x,1/2-y,z
1/2+x,1/2-y,-z
1/2-x,1/2+y,-z
1/2-x,1/2-y,-z
1/2+x,1/2+y,-z
1/2-x,1/2+y,z
1/2+x,1/2-y,z
loop_
_atom_site_type_symbol
_atom_site_label
_atom_site_fract_x
_atom_site_fract_y
_atom_site_fract_z
Si Si1 0.913097 0.161709 0.942725
Si Si2 0.826622 0.329656 0.257889
Si Si3 0.179309 0.165206 0.558671
Si Si4 0.416568 0.167343 0.155699
Si Si5 0.584984 0.334796 0.656076
O O1 0.882040 0.259009 0.895915
O O2 0.000000 0.169152 0.942286
O O3 0.886097 0.000000 0.933006
O O4 0.885050 0.215101 0.000000
O O5 0.815471 0.500000 0.263319
O O6 0.750000 0.250000 0.257713
O O7 0.868522 0.287258 0.205027
O O8 0.874047 0.273649 0.305939
O O9 0.156780 0.214238 0.500000
O O10 0.250000 0.250000 0.579087
O O11 0.111668 0.195224 0.597018
O O12 0.201824 0.000000 0.559369
O O13 0.500000 0.217866 0.166106
O O14 0.413494 0.000000 0.145258
O O15 0.500000 0.298627 0.658340
O O16 0.600601 0.500000 0.672202
#
# Coordination Sequence:
#
# PCOD8273108 Si02
#       5
#    16  16  16  16  16
#     4   8  14  25  43  70 102 132 162 199 245 296
#     4  11  23  38  55  75 102 136 174 216 262 312
#     4   9  18  33  53  77 106 140 176 213 253 300
#     4   9  18  32  50  73 100 130 165 206 253 303
#     4  10  21  36  55  80 107 136 173 215 260 310
#
# _framework density 18.357541000000001
#
# number of rings (size 3 to 8) (size 9 to 14) (size 15 to 20)
#    0.000    2.600    0.000    2.400    0.000    6.000 
#    0.000    6.000    0.000    0.600    0.000    4.200 
#    0.000    0.000    0.000    0.000    0.000    0.000 
#
# Total GULP energy -495929.607972 kJ/mol
# GULP energy per Si atom -12398.240199 kJ/mol
# Density = 1.831576 g / cm^3
# Si number density = 18.357541 Si / 1000 Ang^3
#
#
#
# Elastic Constant Matrix: (Units=GPa)
#
#
# Indices 1 2 3 4 5 6 
#
# 1 99.7827 48.2020 65.4713 0.0000 0.0000 0.0000
# 2 48.2020 66.9189 62.8335 0.0000 0.0000 0.0000
# 3 65.4713 62.8335 142.5823 0.0000 0.0000 0.0000
# 4 0.0000 0.0000 0.0000 34.5581 0.0000 0.0000
# 5 0.0000 0.0000 0.0000 0.0000 11.0949 0.0000
# 6 0.0000 0.0000 0.0000 0.0000 0.0000 16.8525
#
#
#
# Elastic Compliance Matrix: (Units=1/GPa)
#
#
# Indices 1 2 3 4 5 6 
#
# 1 0.016618 -0.008197 -0.004019 0.000000 0.000000 0.000000
# 2 -0.008197 0.029534 -0.009251 0.000000 0.000000 0.000000
# 3 -0.004019 -0.009251 0.012936 0.000000 0.000000 0.000000
# 4 0.000000 0.000000 0.000000 0.028937 0.000000 0.000000
# 5 0.000000 0.000000 0.000000 0.000000 0.090131 0.000000
# 6 0.000000 0.000000 0.000000 0.000000 0.000000 0.059338
#
#
# Mechanical properties :
#
#
# Convention : Reuss Voigt Hill
#
# Bulk Modulus (GPa) = 61.90237 73.58862 67.74550
# Shear Modulus (GPa) = 17.49396 21.35292 19.42344
#
# Velocity S-wave (km/s) = 3.09035 3.41423 3.25632
# Velocity P-wave (km/s) = 6.82109 7.46431 7.14994
#
# Compressibility (1/GPa) = 0.01615447
#
# Stress axis : x y z
#
# Youngs Moduli (GPa) = 60.17507 33.85891 77.30575
#
# Poissons Ratio (x) = 0.27754 0.31066
# Poissons Ratio (y) = 0.49325 0.71518
# Poissons Ratio (z) = 0.24182 0.31324
#
# Static dielectric constant tensor:
#      x y z
#    x 3.213350 0.000000 0.000000 
#    y 0.000000 3.401970 0.000000 
#    z 0.000000 0.000000 3.771730 
# 
# 
# High freq. dielectric constant tensor:
#      x y z
#    x 1.686020 0.000000 0.000000 
#    y 0.000000 1.709080 0.000000 
#    z 0.000000 0.000000 1.728440 
# 
# From -- ./inp_files/72730.got.cif
#   From: 2010.03.12/outbox.cif.g09.slc.cpg/sg65_37_cif.got.tgz:72730.got - 2010.04.10 20:52:16.
