data_PCOD8273462
_publ_section_title
;
Structure prediction by ZEFSAII (Michael W. Deem and Ramdas Pophale) SiO2 
 PCOD8273462
Probable space group: C M M M
;
_chemical_formula_sum "Si O2"
_cell_formula_units_Z 88
_cell_length_a 7.869009
_cell_length_b 18.139284
_cell_length_c 29.532483
_cell_angle_alpha 90.000000
_cell_angle_beta 90.000000
_cell_angle_gamma 90.000000
_cell_volume 4215.413142
_symmetry_space_group_name_H-M "C M M M"
_symmetry_group_IT_number 65
_symmetry_cell_setting 'orthorhombic'
loop_
_space_group_symop_operation_xyz
x,y,z
-x,-y,z
x,-y,-z
-x,y,-z
-x,-y,-z
x,y,-z
-x,y,z
x,-y,z
1/2+x,1/2+y,z
1/2-x,1/2-y,z
1/2+x,1/2-y,-z
1/2-x,1/2+y,-z
1/2-x,1/2-y,-z
1/2+x,1/2+y,-z
1/2-x,1/2+y,z
1/2+x,1/2-y,z
loop_
_atom_site_type_symbol
_atom_site_label
_atom_site_fract_x
_atom_site_fract_y
_atom_site_fract_z
Si Si1 0.799456 0.835165 0.395537
Si Si2 0.691026 0.169035 0.217264
Si Si3 0.696957 0.415974 0.302685
Si Si4 0.800514 0.830872 0.949224
Si Si5 0.802767 0.419227 0.134811
Si Si6 0.500000 0.915018 0.446559
O O1 0.750000 0.750000 0.395784
O O2 0.759596 0.867421 0.346265
O O3 0.674778 0.877046 0.429979
O O4 0.000000 0.846385 0.408470
O O5 0.500000 0.178213 0.202144
O O6 0.750000 0.250000 0.230692
O O7 0.702407 0.115791 0.260260
O O8 0.784815 0.133163 0.173253
O O9 0.500000 0.411309 0.290633
O O10 0.754282 0.500000 0.311823
O O11 0.750000 0.750000 0.932162
O O12 0.718523 0.889166 0.915673
O O13 0.000000 0.840642 0.948290
O O14 0.728980 0.844395 0.000000
O O15 0.716736 0.500000 0.137640
O O16 0.000000 0.427355 0.145684
O O17 0.500000 0.907674 0.500000
O O18 0.500000 0.000000 0.430797
#
# Coordination Sequence:
#
# PCOD8273462 Si02
#       6
#    16  16  16  16  16   8
#     4  11  23  43  68 101 136 177 225 280 331 396
#     4  11  23  38  58  85 116 156 199 246 298 357
#     4  10  22  39  62  92 126 163 207 256 312 373
#     4  10  21  37  58  83 109 142 186 234 286 347
#     4  10  22  39  57  81 114 148 189 237 292 356
#     4  11  26  46  70 102 137 179 229 279 341 403
#
# _framework density 20.875771
#
# number of rings (size 3 to 8) (size 9 to 14) (size 15 to 20)
#    0.000    1.545    0.909    3.273    1.273    9.091 
#    0.000    2.727    0.000    0.000    0.000    0.000 
#    0.000    0.000    0.000    0.000    0.000    0.000 
#
# Total GULP energy -545537.663548 kJ/mol
# GULP energy per Si atom -12398.583262 kJ/mol
# Density = 2.082826 g / cm^3
# Si number density = 20.875771 Si / 1000 Ang^3
#
#
#
# Elastic Constant Matrix: (Units=GPa)
#
#
# Indices 1 2 3 4 5 6 
#
# 1 72.3333 39.6027 33.5773 0.0000 0.0000 0.0000
# 2 39.6027 168.1529 67.6040 0.0000 0.0000 0.0000
# 3 33.5773 67.6040 114.4368 0.0000 0.0000 0.0000
# 4 0.0000 0.0000 0.0000 36.1585 0.0000 0.0000
# 5 0.0000 0.0000 0.0000 0.0000 27.4519 0.0000
# 6 0.0000 0.0000 0.0000 0.0000 0.0000 20.0487
#
#
#
# Elastic Compliance Matrix: (Units=1/GPa)
#
#
# Indices 1 2 3 4 5 6 
#
# 1 0.016825 -0.002594 -0.003404 0.000000 0.000000 0.000000
# 2 -0.002594 0.008199 -0.004083 0.000000 0.000000 0.000000
# 3 -0.003404 -0.004083 0.012149 0.000000 0.000000 0.000000
# 4 0.000000 0.000000 0.000000 0.027656 0.000000 0.000000
# 5 0.000000 0.000000 0.000000 0.000000 0.036427 0.000000
# 6 0.000000 0.000000 0.000000 0.000000 0.000000 0.049879
#
#
# Mechanical properties :
#
#
# Convention : Reuss Voigt Hill
#
# Bulk Modulus (GPa) = 58.78255 70.72122 64.75188
# Shear Modulus (GPa) = 28.25360 31.00774 29.63067
#
# Velocity S-wave (km/s) = 3.68287 3.85820 3.77155
# Velocity P-wave (km/s) = 6.80471 7.33473 7.07469
#
# Compressibility (1/GPa) = 0.01701185
#
# Stress axis : x y z
#
# Youngs Moduli (GPa) = 59.43381 121.96218 82.31001
#
# Poissons Ratio (x) = 0.31636 0.28022
# Poissons Ratio (y) = 0.15417 0.33604
# Poissons Ratio (z) = 0.20234 0.49793
#
# Static dielectric constant tensor:
#      x y z
#    x 3.696120 0.000000 0.000000 
#    y 0.000000 4.275580 0.000000 
#    z 0.000000 0.000000 3.764550 
# 
# 
# High freq. dielectric constant tensor:
#      x y z
#    x 1.813310 0.000000 0.000000 
#    y 0.000000 1.831990 0.000000 
#    z 0.000000 0.000000 1.820870 
# 
# From -- ./inp_files/76575.got.cif
#   From: 2010.03.12/outbox.cif.g09.slc.cpg/sg65_39_cif.got.tgz:76575.got - 2010.04.10 20:52:16.
