data_PCOD8273230
_publ_section_title
;
Structure prediction by ZEFSAII (Michael W. Deem and Ramdas Pophale) SiO2 
 PCOD8273230
Probable space group: C M M M
;
_chemical_formula_sum "Si O2"
_cell_formula_units_Z 80
_cell_length_a 8.163709
_cell_length_b 25.979073
_cell_length_c 23.575170
_cell_angle_alpha 90.000000
_cell_angle_beta 90.000000
_cell_angle_gamma 90.000000
_cell_volume 4999.953887
_symmetry_space_group_name_H-M "C M M M"
_symmetry_group_IT_number 65
_symmetry_cell_setting 'orthorhombic'
loop_
_space_group_symop_operation_xyz
x,y,z
-x,-y,z
x,-y,-z
-x,y,-z
-x,-y,-z
x,y,-z
-x,y,z
x,-y,z
1/2+x,1/2+y,z
1/2-x,1/2-y,z
1/2+x,1/2-y,-z
1/2-x,1/2+y,-z
1/2-x,1/2-y,-z
1/2+x,1/2+y,-z
1/2-x,1/2+y,z
1/2+x,1/2-y,z
loop_
_atom_site_type_symbol
_atom_site_label
_atom_site_fract_x
_atom_site_fract_y
_atom_site_fract_z
Si Si1 0.817196 0.561189 0.631916
Si Si2 0.500000 0.438672 0.564562
Si Si3 0.808408 0.059378 0.248545
Si Si4 0.311229 0.000000 0.066822
Si Si5 0.189862 0.304122 0.062585
Si Si6 0.309349 0.599684 0.870636
O O1 0.809425 0.500000 0.629256
O O2 0.667864 0.583142 0.593337
O O3 0.790037 0.579448 0.696661
O O4 0.000000 0.579922 0.611976
O O5 0.500000 0.500000 0.568869
O O6 0.500000 0.419509 0.500000
O O7 0.748087 0.091092 0.193793
O O8 0.000000 0.066824 0.260921
O O9 0.769243 0.000000 0.235769
O O10 0.227150 0.949389 0.090954
O O11 0.500000 0.000000 0.084362
O O12 0.286533 0.000000 0.000000
O O13 0.250000 0.250000 0.088718
O O14 0.224739 0.349851 0.105578
O O15 0.000000 0.300390 0.053884
O O16 0.271063 0.313645 0.000000
O O17 0.500000 0.609653 0.870854
#
# Coordination Sequence:
#
# PCOD8273230 Si02
#       6
#    16   8  16   8  16  16
#     4   9  16  25  39  57  78 112 150 188 232 272
#     4   9  16  26  38  54  80 112 148 196 232 260
#     4   9  16  29  44  60  88 117 148 188 231 276
#     4  11  23  35  45  63  95 125 149 188 239 286
#     4  10  21  37  54  70  89 115 150 193 237 286
#     4  11  21  33  50  71  91 118 152 192 237 288
#
# _framework density 16.000146999999998
#
# number of rings (size 3 to 8) (size 9 to 14) (size 15 to 20)
#    0.000    2.200    2.000    2.100    0.000    6.400 
#    0.000    2.000    0.000    0.000    0.000    0.000 
#    0.000    0.000    0.000    0.000    0.000    1.000 
#
# Total GULP energy -495812.031709 kJ/mol
# GULP energy per Si atom -12395.300793 kJ/mol
# Density = 1.596373 g / cm^3
# Si number density = 16.000147 Si / 1000 Ang^3
#
#
#
# Elastic Constant Matrix: (Units=GPa)
#
#
# Indices 1 2 3 4 5 6 
#
# 1 84.4932 19.9631 49.0131 0.0000 0.0000 0.0000
# 2 19.9631 71.6564 33.6657 0.0000 0.0000 0.0000
# 3 49.0131 33.6657 91.7612 0.0000 0.0000 0.0000
# 4 0.0000 0.0000 0.0000 15.1652 0.0000 0.0000
# 5 0.0000 0.0000 0.0000 0.0000 20.2580 0.0000
# 6 0.0000 0.0000 0.0000 0.0000 0.0000 18.5732
#
#
#
# Elastic Compliance Matrix: (Units=1/GPa)
#
#
# Indices 1 2 3 4 5 6 
#
# 1 0.017168 -0.000573 -0.008960 0.000000 0.000000 0.000000
# 2 -0.000573 0.016881 -0.005887 0.000000 0.000000 0.000000
# 3 -0.008960 -0.005887 0.017843 0.000000 0.000000 0.000000
# 4 0.000000 0.000000 0.000000 0.065941 0.000000 0.000000
# 5 0.000000 0.000000 0.000000 0.000000 0.049363 0.000000
# 6 0.000000 0.000000 0.000000 0.000000 0.000000 0.053841
#
#
# Mechanical properties :
#
#
# Convention : Reuss Voigt Hill
#
# Bulk Modulus (GPa) = 47.50119 50.35497 48.92808
# Shear Modulus (GPa) = 19.31278 20.48385 19.89831
#
# Velocity S-wave (km/s) = 3.47801 3.58191 3.53034
# Velocity P-wave (km/s) = 6.77357 6.97472 6.87488
#
# Compressibility (1/GPa) = 0.02105210
#
# Stress axis : x y z
#
# Youngs Moduli (GPa) = 58.24733 59.23762 56.04283
#
# Poissons Ratio (x) = 0.03397 0.50213
# Poissons Ratio (y) = 0.03340 0.32993
# Poissons Ratio (z) = 0.52188 0.34874
#
# Static dielectric constant tensor:
#      x y z
#    x 3.256960 0.000000 0.000000 
#    y 0.000000 2.446140 0.000000 
#    z 0.000000 0.000000 3.264130 
# 
# 
# High freq. dielectric constant tensor:
#      x y z
#    x 1.631860 0.000000 0.000000 
#    y 0.000000 1.552600 0.000000 
#    z 0.000000 0.000000 1.612360 
# 
# From -- ./inp_files/59658.got.cif
#   From: 2010.03.12/outbox.cif.g09.slc.cpg/sg65_30_cif.got.tgz:59658.got - 2010.04.10 20:52:16.
