data_PCOD8273036
_publ_section_title
;
Structure prediction by ZEFSAII (Michael W. Deem and Ramdas Pophale) SiO2 
 PCOD8273036
Probable space group: C M M M
;
_chemical_formula_sum "Si O2"
_cell_formula_units_Z 104
_cell_length_a 9.111184
_cell_length_b 18.832062
_cell_length_c 32.481045
_cell_angle_alpha 90.000000
_cell_angle_beta 90.000000
_cell_angle_gamma 90.000000
_cell_volume 5573.175070
_symmetry_space_group_name_H-M "C M M M"
_symmetry_group_IT_number 65
_symmetry_cell_setting 'orthorhombic'
loop_
_space_group_symop_operation_xyz
x,y,z
-x,-y,z
x,-y,-z
-x,y,-z
-x,-y,-z
x,y,-z
-x,y,z
x,-y,z
1/2+x,1/2+y,z
1/2-x,1/2-y,z
1/2+x,1/2-y,-z
1/2-x,1/2+y,-z
1/2-x,1/2-y,-z
1/2+x,1/2+y,-z
1/2-x,1/2+y,z
1/2+x,1/2-y,z
loop_
_atom_site_type_symbol
_atom_site_label
_atom_site_fract_x
_atom_site_fract_y
_atom_site_fract_z
Si Si1 0.671506 0.821411 0.107830
Si Si2 0.825173 0.673700 0.577249
Si Si3 0.334381 0.583644 0.953792
Si Si4 0.171227 0.678819 0.798573
Si Si5 0.326396 0.080295 0.500000
Si Si6 0.336814 0.582927 0.738216
Si Si7 0.329079 0.418259 0.643821
O O1 0.500000 0.809586 0.103316
O O2 0.750000 0.750000 0.093051
O O3 0.720861 0.884655 0.078497
O O4 0.715882 0.840547 0.154657
O O5 0.750000 0.750000 0.572329
O O6 0.772608 0.623517 0.539851
O O7 0.772472 0.635284 0.618588
O O8 0.000000 0.683849 0.578225
O O9 0.500000 0.606871 0.942422
O O10 0.318506 0.500000 0.951226
O O11 0.296075 0.609681 0.000000
O O12 0.250000 0.750000 0.783725
O O13 0.218911 0.616023 0.768721
O O14 0.000000 0.691162 0.794378
O O15 0.500000 0.074714 0.500000
O O16 0.259637 0.000000 0.500000
O O17 0.500000 0.612675 0.747655
O O18 0.334052 0.500000 0.746200
O O19 0.294797 0.599439 0.691196
O O20 0.500000 0.404972 0.633789
O O21 0.287756 0.500000 0.633769
#
# Coordination Sequence:
#
# PCOD8273036 Si02
#       7
#    16  16  16  16   8  16  16
#     4  10  21  36  54  77 105 138 176 217 262 311
#     4  11  22  36  56  81 111 145 180 220 266 315
#     4   9  19  36  56  78 105 137 173 213 258 310
#     4  10  21  36  54  77 106 139 176 219 263 311
#     4   9  19  36  57  81 108 139 178 223 268 316
#     4   9  19  36  57  80 107 140 176 216 264 316
#     4   9  19  37  58  80 108 140 177 221 265 314
#
# _framework density 18.660817000000002
#
# number of rings (size 3 to 8) (size 9 to 14) (size 15 to 20)
#    0.000    2.385    0.000    3.462    0.000    5.846 
#    0.000    6.538    0.000    2.769    0.000    0.000 
#    0.000    0.000    0.000    0.000    0.000    0.000 
#
# Total GULP energy -644870.175101 kJ/mol
# GULP energy per Si atom -12401.349521 kJ/mol
# Density = 1.861834 g / cm^3
# Si number density = 18.660817 Si / 1000 Ang^3
#
#
#
# Elastic Constant Matrix: (Units=GPa)
#
#
# Indices 1 2 3 4 5 6 
#
# 1 76.8909 46.7768 48.5294 0.0000 0.0000 0.0000
# 2 46.7768 97.8381 63.8979 0.0000 0.0000 0.0000
# 3 48.5294 63.8979 102.0812 0.0000 0.0000 0.0000
# 4 0.0000 0.0000 0.0000 23.1594 0.0000 0.0000
# 5 0.0000 0.0000 0.0000 0.0000 16.1890 0.0000
# 6 0.0000 0.0000 0.0000 0.0000 0.0000 33.6124
#
#
#
# Elastic Compliance Matrix: (Units=1/GPa)
#
#
# Indices 1 2 3 4 5 6 
#
# 1 0.020338 -0.005766 -0.006059 0.000000 0.000000 0.000000
# 2 -0.005766 0.018924 -0.009104 0.000000 0.000000 0.000000
# 3 -0.006059 -0.009104 0.018375 0.000000 0.000000 0.000000
# 4 0.000000 0.000000 0.000000 0.043179 0.000000 0.000000
# 5 0.000000 0.000000 0.000000 0.000000 0.061770 0.000000
# 6 0.000000 0.000000 0.000000 0.000000 0.000000 0.029751
#
#
# Mechanical properties :
#
#
# Convention : Reuss Voigt Hill
#
# Bulk Modulus (GPa) = 63.38031 66.13537 64.75784
# Shear Modulus (GPa) = 20.88079 22.43258 21.65668
#
# Velocity S-wave (km/s) = 3.34872 3.47092 3.41037
# Velocity P-wave (km/s) = 6.99929 7.18198 7.09122
#
# Compressibility (1/GPa) = 0.01577777
#
# Stress axis : x y z
#
# Youngs Moduli (GPa) = 49.17015 52.84391 54.42102
#
# Poissons Ratio (x) = 0.30471 0.32974
# Poissons Ratio (y) = 0.28353 0.49545
# Poissons Ratio (z) = 0.29792 0.48109
#
# Static dielectric constant tensor:
#      x y z
#    x 3.439790 0.000000 0.000000 
#    y 0.000000 3.372920 0.000000 
#    z 0.000000 0.000000 3.497900 
# 
# 
# High freq. dielectric constant tensor:
#      x y z
#    x 1.720850 0.000000 0.000000 
#    y 0.000000 1.724010 0.000000 
#    z 0.000000 0.000000 1.731090 
# 
# From -- ./inp_files/73353.got.cif
#   From: 2010.03.12/outbox.cif.g09.slc.cpg/sg65_37_cif.got.tgz:73353.got - 2010.04.10 20:52:16.
