data_PCOD8273916
_publ_section_title
;
Structure prediction by ZEFSAII (Michael W. Deem and Ramdas Pophale) SiO2 
 PCOD8273916
Probable space group: C M M M
;
_chemical_formula_sum "Si O2"
_cell_formula_units_Z 88
_cell_length_a 25.342275
_cell_length_b 13.983955
_cell_length_c 13.240286
_cell_angle_alpha 90.000000
_cell_angle_beta 90.000000
_cell_angle_gamma 90.000000
_cell_volume 4692.161842
_symmetry_space_group_name_H-M "C M M M"
_symmetry_group_IT_number 65
_symmetry_cell_setting 'orthorhombic'
loop_
_space_group_symop_operation_xyz
x,y,z
-x,-y,z
x,-y,-z
-x,y,-z
-x,-y,-z
x,y,-z
-x,y,z
x,-y,z
1/2+x,1/2+y,z
1/2-x,1/2-y,z
1/2+x,1/2-y,-z
1/2-x,1/2+y,-z
1/2-x,1/2-y,-z
1/2+x,1/2+y,-z
1/2-x,1/2+y,z
1/2+x,1/2-y,z
loop_
_atom_site_type_symbol
_atom_site_label
_atom_site_fract_x
_atom_site_fract_y
_atom_site_fract_z
Si Si1 0.296420 0.390302 0.887339
Si Si2 0.666959 0.724931 0.614727
Si Si3 0.737789 0.888811 0.688390
Si Si4 0.500000 0.613073 0.884846
Si Si5 0.103678 0.207454 0.801594
Si Si6 0.561036 0.893096 0.117137
O O1 0.314120 0.500000 0.874256
O O2 0.250559 0.366743 0.806442
O O3 0.348234 0.327329 0.870720
O O4 0.274098 0.370598 0.000000
O O5 0.647537 0.734484 0.500000
O O6 0.687348 0.827298 0.655934
O O7 0.712465 0.644705 0.621324
O O8 0.617532 0.692701 0.683409
O O9 0.726235 0.000000 0.668144
O O10 0.500000 0.500000 0.884460
O O11 0.551435 0.649079 0.827068
O O12 0.500000 0.652710 0.000000
O O13 0.096421 0.320108 0.820326
O O14 0.500000 0.868116 0.135142
O O15 0.573875 0.000000 0.155600
O O16 0.575014 0.883853 0.000000
#
# Coordination Sequence:
#
# PCOD8273916 Si02
#       6
#    16  16  16   8  16  16
#     4   9  17  30  50  79 114 144 169 206 262 324
#     4  10  22  37  53  78 106 136 181 229 269 308
#     4   9  18  35  58  80 105 140 178 217 264 318
#     4  11  22  36  58  86 112 139 172 208 252 316
#     4  11  20  33  53  77 107 143 177 218 264 309
#     4   9  17  30  49  72  99 133 171 210 253 304
#
# _framework density 18.754681999999999
#
# number of rings (size 3 to 8) (size 9 to 14) (size 15 to 20)
#    0.000    2.273    0.909    3.818    0.000    4.364 
#    0.000    9.545    0.000    2.727    0.000    1.273 
#    0.000    0.000    0.000    0.000    0.000    0.000 
#
# Total GULP energy -545598.143230 kJ/mol
# GULP energy per Si atom -12399.957801 kJ/mol
# Density = 1.871200 g / cm^3
# Si number density = 18.754682 Si / 1000 Ang^3
#
#
#
# Elastic Constant Matrix: (Units=GPa)
#
#
# Indices 1 2 3 4 5 6 
#
# 1 59.5528 20.0648 45.7579 0.0000 0.0000 0.0000
# 2 20.0648 79.6461 34.5549 0.0000 0.0000 0.0000
# 3 45.7579 34.5549 141.8900 0.0000 0.0000 0.0000
# 4 0.0000 0.0000 0.0000 20.1593 0.0000 0.0000
# 5 0.0000 0.0000 0.0000 0.0000 16.9815 0.0000
# 6 0.0000 0.0000 0.0000 0.0000 0.0000 20.1797
#
#
#
# Elastic Compliance Matrix: (Units=1/GPa)
#
#
# Indices 1 2 3 4 5 6 
#
# 1 0.022894 -0.002867 -0.006685 0.000000 0.000000 0.000000
# 2 -0.002867 0.014398 -0.002582 0.000000 0.000000 0.000000
# 3 -0.006685 -0.002582 0.009832 0.000000 0.000000 0.000000
# 4 0.000000 0.000000 0.000000 0.049605 0.000000 0.000000
# 5 0.000000 0.000000 0.000000 0.000000 0.058887 0.000000
# 6 0.000000 0.000000 0.000000 0.000000 0.000000 0.049555
#
#
# Mechanical properties :
#
#
# Convention : Reuss Voigt Hill
#
# Bulk Modulus (GPa) = 43.75090 53.53822 48.64456
# Shear Modulus (GPa) = 21.09188 23.51155 22.30171
#
# Velocity S-wave (km/s) = 3.35717 3.54451 3.45211
# Velocity P-wave (km/s) = 6.19727 6.73498 6.47171
#
# Compressibility (1/GPa) = 0.02285667
#
# Stress axis : x y z
#
# Youngs Moduli (GPa) = 43.67915 69.45423 101.70651
#
# Poissons Ratio (x) = 0.19915 0.67989
# Poissons Ratio (y) = 0.12524 0.26257
# Poissons Ratio (z) = 0.29199 0.17931
#
# Static dielectric constant tensor:
#      x y z
#    x 3.183090 0.000000 0.000000 
#    y 0.000000 3.623700 0.000000 
#    z 0.000000 0.000000 3.406730 
# 
# 
# High freq. dielectric constant tensor:
#      x y z
#    x 1.701590 0.000000 0.000000 
#    y 0.000000 1.745330 0.000000 
#    z 0.000000 0.000000 1.713380 
# 
# From -- ./inp_files/24817.got.cif
#   From: 2010.03.12/outbox.cif.g09.slc.cpg/sg65_13_cif.got.tgz:24817.got - 2010.04.10 20:52:16.
