data_PCOD8273860
_publ_section_title
;
Structure prediction by ZEFSAII (Michael W. Deem and Ramdas Pophale) SiO2 
 PCOD8273860
Probable space group: C M M M
;
_chemical_formula_sum "Si O2"
_cell_formula_units_Z 104
_cell_length_a 17.360282
_cell_length_b 16.048810
_cell_length_c 18.537939
_cell_angle_alpha 90.000000
_cell_angle_beta 90.000000
_cell_angle_gamma 90.000000
_cell_volume 5164.889802
_symmetry_space_group_name_H-M "C M M M"
_symmetry_group_IT_number 65
_symmetry_cell_setting 'orthorhombic'
loop_
_space_group_symop_operation_xyz
x,y,z
-x,-y,z
x,-y,-z
-x,y,-z
-x,-y,-z
x,y,-z
-x,y,z
x,-y,z
1/2+x,1/2+y,z
1/2-x,1/2-y,z
1/2+x,1/2-y,-z
1/2-x,1/2+y,-z
1/2-x,1/2-y,-z
1/2+x,1/2+y,-z
1/2-x,1/2+y,z
1/2+x,1/2-y,z
loop_
_atom_site_type_symbol
_atom_site_label
_atom_site_fract_x
_atom_site_fract_y
_atom_site_fract_z
Si Si1 0.091240 0.500000 0.581289
Si Si2 0.412503 0.656845 0.333856
Si Si3 0.358062 0.165968 0.834378
Si Si4 0.591942 0.500000 0.417841
Si Si5 0.779823 0.093464 0.918727
Si Si6 0.592176 0.844357 0.678320
Si Si7 0.500000 0.094950 0.083466
Si Si8 0.411593 0.650479 0.830296
O O1 0.125184 0.500000 0.500000
O O2 0.118257 0.414786 0.620973
O O3 0.000000 0.500000 0.578865
O O4 0.500000 0.665285 0.359347
O O5 0.372610 0.584884 0.382586
O O6 0.377947 0.750997 0.344121
O O7 0.407568 0.621557 0.252571
O O8 0.274790 0.145555 0.866079
O O9 0.368133 0.129731 0.753646
O O10 0.422769 0.132224 0.886218
O O11 0.366467 0.263839 0.833855
O O12 0.500000 0.500000 0.407591
O O13 0.618069 0.500000 0.500000
O O14 0.865678 0.090099 0.884362
O O15 0.747696 0.000000 0.922597
O O16 0.782253 0.131357 0.000000
O O17 0.500000 0.842526 0.690375
O O18 0.500000 0.000000 0.104495
O O19 0.500000 0.113531 0.000000
O O20 0.500000 0.657198 0.856222
#
# Coordination Sequence:
#
# PCOD8273860 Si02
#       8
#     8  16  16   8  16  16   8  16
#     4   9  18  28  44  77 116 157 196 232 288 349
#     4   8  16  30  49  77 108 141 189 240 283 339
#     4  11  20  38  59  84 113 151 199 246 294 354
#     4   9  16  26  46  79 113 148 182 226 295 349
#     4  11  26  42  56  83 121 155 192 247 304 357
#     4   9  17  30  51  78 111 152 198 242 285 345
#     4  11  22  32  52  84 115 149 184 237 304 356
#     4  10  21  40  62  85 110 153 205 246 293 353
#
# _framework density 20.135956
#
# number of rings (size 3 to 8) (size 9 to 14) (size 15 to 20)
#    0.000    2.231    1.538    2.308    3.231    4.308 
#    0.000    3.846    0.000    0.000    0.000    2.154 
#    0.000    4.923    0.000    0.000    0.000    0.000 
#
# Total GULP energy -644484.833891 kJ/mol
# GULP energy per Si atom -12393.939113 kJ/mol
# Density = 2.009013 g / cm^3
# Si number density = 20.135956 Si / 1000 Ang^3
#
#
#
# Elastic Constant Matrix: (Units=GPa)
#
#
# Indices 1 2 3 4 5 6 
#
# 1 71.3821 21.2571 42.3471 0.0000 0.0000 0.0000
# 2 21.2571 108.1741 80.4259 0.0000 0.0000 0.0000
# 3 42.3471 80.4259 164.0890 0.0000 0.0000 0.0000
# 4 0.0000 0.0000 0.0000 33.2790 0.0000 0.0000
# 5 0.0000 0.0000 0.0000 0.0000 15.8408 0.0000
# 6 0.0000 0.0000 0.0000 0.0000 0.0000 30.3197
#
#
#
# Elastic Compliance Matrix: (Units=1/GPa)
#
#
# Indices 1 2 3 4 5 6 
#
# 1 0.016543 -0.000121 -0.004210 0.000000 0.000000 0.000000
# 2 -0.000121 0.014545 -0.007098 0.000000 0.000000 0.000000
# 3 -0.004210 -0.007098 0.010660 0.000000 0.000000 0.000000
# 4 0.000000 0.000000 0.000000 0.030049 0.000000 0.000000
# 5 0.000000 0.000000 0.000000 0.000000 0.063128 0.000000
# 6 0.000000 0.000000 0.000000 0.000000 0.000000 0.032982
#
#
# Mechanical properties :
#
#
# Convention : Reuss Voigt Hill
#
# Bulk Modulus (GPa) = 52.93744 70.18947 61.56345
# Shear Modulus (GPa) = 25.37283 29.19558 27.28421
#
# Velocity S-wave (km/s) = 3.55361 3.81192 3.68502
# Velocity P-wave (km/s) = 6.57150 7.36938 6.98184
#
# Compressibility (1/GPa) = 0.01889022
#
# Stress axis : x y z
#
# Youngs Moduli (GPa) = 60.44980 68.75036 93.81040
#
# Poissons Ratio (x) = 0.00829 0.39495
# Poissons Ratio (y) = 0.00729 0.66587
# Poissons Ratio (z) = 0.25450 0.48800
#
# Static dielectric constant tensor:
#      x y z
#    x 3.286390 0.000000 0.000000 
#    y 0.000000 3.911830 0.000000 
#    z 0.000000 0.000000 3.798800 
# 
# 
# High freq. dielectric constant tensor:
#      x y z
#    x 1.746110 0.000000 0.000000 
#    y 0.000000 1.796320 0.000000 
#    z 0.000000 0.000000 1.784100 
# 
# From -- ./inp_files/54642.got.cif
#   From: 2010.03.12/outbox.cif.g09.slc.cpg/sg65_28_cif.got.tgz:54642.got - 2010.04.10 20:52:16.
