data_PCOD8273894
_publ_section_title
;
Structure prediction by ZEFSAII (Michael W. Deem and Ramdas Pophale) SiO2 
 PCOD8273894
Probable space group: C M M M
;
_chemical_formula_sum "Si O2"
_cell_formula_units_Z 88
_cell_length_a 12.224275
_cell_length_b 14.338808
_cell_length_c 26.815319
_cell_angle_alpha 90.000000
_cell_angle_beta 90.000000
_cell_angle_gamma 90.000000
_cell_volume 4700.230200
_symmetry_space_group_name_H-M "C M M M"
_symmetry_group_IT_number 65
_symmetry_cell_setting 'orthorhombic'
loop_
_space_group_symop_operation_xyz
x,y,z
-x,-y,z
x,-y,-z
-x,y,-z
-x,-y,-z
x,y,-z
-x,y,z
x,-y,z
1/2+x,1/2+y,z
1/2-x,1/2-y,z
1/2+x,1/2-y,-z
1/2-x,1/2+y,-z
1/2-x,1/2-y,-z
1/2+x,1/2+y,-z
1/2-x,1/2+y,z
1/2+x,1/2-y,z
loop_
_atom_site_type_symbol
_atom_site_label
_atom_site_fract_x
_atom_site_fract_y
_atom_site_fract_z
Si Si1 0.702089 0.652791 0.626280
Si Si2 0.869327 0.000000 0.814245
Si Si3 0.370758 0.000000 0.059297
Si Si4 0.715732 0.353963 0.889214
Si Si5 0.000000 0.105189 0.058510
Si Si6 0.371150 0.500000 0.700458
Si Si7 0.883266 0.394127 0.447087
Si Si8 0.000000 0.111832 0.440528
O O1 0.750000 0.750000 0.646022
O O2 0.671997 0.593142 0.674398
O O3 0.801680 0.607400 0.598070
O O4 0.604313 0.659654 0.585931
O O5 0.818261 0.092111 0.839153
O O6 0.830576 0.000000 0.757158
O O7 0.000000 0.000000 0.818983
O O8 0.313262 0.092097 0.082015
O O9 0.500000 0.000000 0.072811
O O10 0.353118 0.000000 0.000000
O O11 0.750000 0.250000 0.874175
O O12 0.609620 0.343460 0.924281
O O13 0.000000 0.000000 0.080902
O O14 0.000000 0.102556 0.000000
O O15 0.500000 0.500000 0.696721
O O16 0.838260 0.351109 0.500000
O O17 0.908409 0.500000 0.457376
O O18 0.000000 0.344537 0.433745
O O19 0.000000 0.130513 0.500000
O O20 0.000000 0.000000 0.429696
#
# Coordination Sequence:
#
# PCOD8273894 Si02
#       8
#    16   8   8  16   8   8  16   8
#     4  12  23  37  60  86 119 153 193 244 299 357
#     4  10  21  43  70  88 110 150 209 269 315 362
#     4  10  22  37  53  86 134 178 207 238 298 363
#     4  11  22  38  62  91 124 163 209 260 308 357
#     4  11  20  36  60  91 128 169 217 254 289 349
#     4  11  23  45  68  87 115 150 201 260 316 365
#     4   9  18  33  53  78 110 152 189 220 271 345
#     4  11  22  40  62  87 120 161 201 240 289 353
#
# _framework density 18.722487999999998
#
# number of rings (size 3 to 8) (size 9 to 14) (size 15 to 20)
#    0.000    1.364    5.455    1.636    2.545    5.091 
#    0.000    0.000    0.000    4.364    0.000    0.000 
#    0.000    0.000    0.000    0.000    0.000    0.000 
#
# Total GULP energy -545253.149680 kJ/mol
# GULP energy per Si atom -12392.117038 kJ/mol
# Density = 1.867987 g / cm^3
# Si number density = 18.722488 Si / 1000 Ang^3
#
#
#
# Elastic Constant Matrix: (Units=GPa)
#
#
# Indices 1 2 3 4 5 6 
#
# 1 124.9540 48.1546 62.3844 0.0000 0.0000 0.0000
# 2 48.1546 123.7867 54.6424 0.0000 0.0000 0.0000
# 3 62.3844 54.6424 140.9095 0.0000 0.0000 0.0000
# 4 0.0000 0.0000 0.0000 6.0865 0.0000 0.0000
# 5 0.0000 0.0000 0.0000 0.0000 29.3397 0.0000
# 6 0.0000 0.0000 0.0000 0.0000 0.0000 32.7185
#
#
#
# Elastic Compliance Matrix: (Units=1/GPa)
#
#
# Indices 1 2 3 4 5 6 
#
# 1 0.010901 -0.002546 -0.003839 0.000000 0.000000 0.000000
# 2 -0.002546 0.010341 -0.002883 0.000000 0.000000 0.000000
# 3 -0.003839 -0.002883 0.009914 0.000000 0.000000 0.000000
# 4 0.000000 0.000000 0.000000 0.164298 0.000000 0.000000
# 5 0.000000 0.000000 0.000000 0.000000 0.034084 0.000000
# 6 0.000000 0.000000 0.000000 0.000000 0.000000 0.030564
#
#
# Mechanical properties :
#
#
# Convention : Reuss Voigt Hill
#
# Bulk Modulus (GPa) = 79.23410 80.00144 79.61777
# Shear Modulus (GPa) = 17.67759 28.59354 23.13556
#
# Velocity S-wave (km/s) = 3.07610 3.91222 3.51908
# Velocity P-wave (km/s) = 7.41813 7.95174 7.68957
#
# Compressibility (1/GPa) = 0.01262083
#
# Stress axis : x y z
#
# Youngs Moduli (GPa) = 91.73793 96.69786 100.86482
#
# Poissons Ratio (x) = 0.24619 0.38719
# Poissons Ratio (y) = 0.23356 0.29080
# Poissons Ratio (z) = 0.35215 0.27879
#
# Static dielectric constant tensor:
#      x y z
#    x 3.616050 0.000000 0.000000 
#    y 0.000000 3.383040 0.000000 
#    z 0.000000 0.000000 3.362890 
# 
# 
# High freq. dielectric constant tensor:
#      x y z
#    x 1.740850 0.000000 0.000000 
#    y 0.000000 1.724520 0.000000 
#    z 0.000000 0.000000 1.712800 
# 
# From -- ./inp_files/74331.got.cif
#   From: 2010.03.12/outbox.cif.g09.slc.cpg/sg65_38_cif.got.tgz:74331.got - 2010.04.10 20:52:16.
