data_PCOD8273798
_publ_section_title
;
Structure prediction by ZEFSAII (Michael W. Deem and Ramdas Pophale) SiO2 
 PCOD8273798
Probable space group: C M M M
;
_chemical_formula_sum "Si O2"
_cell_formula_units_Z 112
_cell_length_a 15.743057
_cell_length_b 15.137192
_cell_length_c 23.133925
_cell_angle_alpha 90.000000
_cell_angle_beta 90.000000
_cell_angle_gamma 90.000000
_cell_volume 5512.945647
_symmetry_space_group_name_H-M "C M M M"
_symmetry_group_IT_number 65
_symmetry_cell_setting 'orthorhombic'
loop_
_space_group_symop_operation_xyz
x,y,z
-x,-y,z
x,-y,-z
-x,y,-z
-x,-y,-z
x,y,-z
-x,y,z
x,-y,z
1/2+x,1/2+y,z
1/2-x,1/2-y,z
1/2+x,1/2-y,-z
1/2-x,1/2+y,-z
1/2-x,1/2-y,-z
1/2+x,1/2+y,-z
1/2-x,1/2+y,z
1/2+x,1/2-y,z
loop_
_atom_site_type_symbol
_atom_site_label
_atom_site_fract_x
_atom_site_fract_y
_atom_site_fract_z
Si Si1 0.702598 0.404056 0.236574
Si Si2 0.745254 0.346264 0.641818
Si Si3 0.594855 0.289600 0.157297
Si Si4 0.695984 0.399533 0.933724
Si Si5 0.904920 0.604206 0.435269
Si Si6 0.094204 0.897616 0.566155
Si Si7 0.651815 0.097710 0.852095
O O1 0.661751 0.500000 0.220552
O O2 0.721617 0.408372 0.304814
O O3 0.642243 0.324247 0.215269
O O4 0.791983 0.395298 0.205059
O O5 0.750000 0.250000 0.669433
O O6 0.833915 0.368500 0.610879
O O7 0.667140 0.343052 0.597226
O O8 0.500000 0.324731 0.161624
O O9 0.636824 0.332046 0.100743
O O10 0.590802 0.182744 0.151412
O O11 0.662039 0.500000 0.926766
O O12 0.791344 0.393332 0.909558
O O13 0.696692 0.369506 0.000000
O O14 0.882658 0.639849 0.500000
O O15 0.906815 0.500000 0.437355
O O16 0.000000 0.638732 0.417413
O O17 0.094512 0.868241 0.500000
O O18 0.000000 0.878693 0.592244
O O19 0.117300 0.000000 0.572399
O O20 0.605803 0.000000 0.853130
#
# Coordination Sequence:
#
# PCOD8273798 Si02
#       7
#    16  16  16  16  16  16  16
#     4  10  21  39  60  77 100 139 186 234 278 325
#     4  12  23  34  54  82 111 143 179 224 280 343
#     4  11  22  35  55  84 117 148 180 228 287 341
#     4   9  18  34  58  85 112 148 194 240 283 328
#     4   9  19  37  59  81 107 140 178 223 277 337
#     4   9  19  36  55  75 103 141 185 230 274 327
#     4   9  19  37  58  79 108 148 189 226 269 327
#
# _framework density 20.315818
#
# number of rings (size 3 to 8) (size 9 to 14) (size 15 to 20)
#    0.000    2.143    0.000    6.429    0.000    6.286 
#    0.000    4.286    0.000    0.857    0.000    3.000 
#    0.000    0.000    0.000    0.000    0.000    0.000 
#
# Total GULP energy -693931.071389 kJ/mol
# GULP energy per Si atom -12391.626275 kJ/mol
# Density = 2.026958 g / cm^3
# Si number density = 20.315818 Si / 1000 Ang^3
#
#
#
# Elastic Constant Matrix: (Units=GPa)
#
#
# Indices 1 2 3 4 5 6 
#
# 1 94.0624 20.2031 45.3493 0.0000 0.0000 0.0000
# 2 20.2031 102.6704 19.0679 0.0000 0.0000 0.0000
# 3 45.3493 19.0679 115.9538 0.0000 0.0000 0.0000
# 4 0.0000 0.0000 0.0000 23.5448 0.0000 0.0000
# 5 0.0000 0.0000 0.0000 0.0000 6.8327 0.0000
# 6 0.0000 0.0000 0.0000 0.0000 0.0000 8.6718
#
#
#
# Elastic Compliance Matrix: (Units=1/GPa)
#
#
# Indices 1 2 3 4 5 6 
#
# 1 0.013388 -0.001714 -0.004954 0.000000 0.000000 0.000000
# 2 -0.001714 0.010266 -0.001018 0.000000 0.000000 0.000000
# 3 -0.004954 -0.001018 0.010729 0.000000 0.000000 0.000000
# 4 0.000000 0.000000 0.000000 0.042472 0.000000 0.000000
# 5 0.000000 0.000000 0.000000 0.000000 0.146355 0.000000
# 6 0.000000 0.000000 0.000000 0.000000 0.000000 0.115316
#
#
# Mechanical properties :
#
#
# Convention : Reuss Voigt Hill
#
# Bulk Modulus (GPa) = 52.60154 53.54746 53.07450
# Shear Modulus (GPa) = 13.87981 23.01429 18.44705
#
# Velocity S-wave (km/s) = 2.61665 3.36940 3.01660
# Velocity P-wave (km/s) = 5.92261 6.44607 6.18988
#
# Compressibility (1/GPa) = 0.01901085
#
# Stress axis : x y z
#
# Youngs Moduli (GPa) = 74.69434 97.40644 93.20521
#
# Poissons Ratio (x) = 0.16699 0.46174
# Poissons Ratio (y) = 0.12805 0.09486
# Poissons Ratio (z) = 0.37004 0.09914
#
# Static dielectric constant tensor:
#      x y z
#    x 3.678060 0.000000 0.000000 
#    y 0.000000 3.849470 0.000000 
#    z 0.000000 0.000000 3.579810 
# 
# 
# High freq. dielectric constant tensor:
#      x y z
#    x 1.770490 0.000000 0.000000 
#    y 0.000000 1.806920 0.000000 
#    z 0.000000 0.000000 1.786320 
# 
# From -- ./inp_files/70048.got.cif
#   From: 2010.03.12/outbox.cif.g09.slc.cpg/sg65_36_cif.got.tgz:70048.got - 2010.04.10 20:52:16.
