data_PCOD8273438
_publ_section_title
;
Structure prediction by ZEFSAII (Michael W. Deem and Ramdas Pophale) SiO2 
 PCOD8273438
Probable space group: C M M M
;
_chemical_formula_sum "Si O2"
_cell_formula_units_Z 88
_cell_length_a 20.513224
_cell_length_b 8.937420
_cell_length_c 24.130845
_cell_angle_alpha 90.000000
_cell_angle_beta 90.000000
_cell_angle_gamma 90.000000
_cell_volume 4424.035670
_symmetry_space_group_name_H-M "C M M M"
_symmetry_group_IT_number 65
_symmetry_cell_setting 'orthorhombic'
loop_
_space_group_symop_operation_xyz
x,y,z
-x,-y,z
x,-y,-z
-x,y,-z
-x,-y,-z
x,y,-z
-x,y,z
x,-y,z
1/2+x,1/2+y,z
1/2-x,1/2-y,z
1/2+x,1/2-y,-z
1/2-x,1/2+y,-z
1/2-x,1/2-y,-z
1/2+x,1/2+y,-z
1/2-x,1/2+y,z
1/2+x,1/2-y,z
loop_
_atom_site_type_symbol
_atom_site_label
_atom_site_fract_x
_atom_site_fract_y
_atom_site_fract_z
Si Si1 0.925086 0.324967 0.637158
Si Si2 0.000000 0.166179 0.065216
Si Si3 0.368651 0.823529 0.936378
Si Si4 0.313294 0.676004 0.835317
Si Si5 0.426011 0.327260 0.248135
Si Si6 0.183644 0.174081 0.435263
O O1 0.911462 0.500000 0.633020
O O2 0.908477 0.272083 0.698951
O O3 0.879462 0.241228 0.593941
O O4 0.000000 0.285936 0.622483
O O5 0.937470 0.258350 0.084071
O O6 0.000000 0.000000 0.093101
O O7 0.000000 0.147159 0.000000
O O8 0.315829 0.746837 0.896883
O O9 0.369184 0.000000 0.928128
O O10 0.353262 0.780190 0.000000
O O11 0.304029 0.500000 0.840151
O O12 0.250000 0.750000 0.806065
O O13 0.377404 0.719875 0.800781
O O14 0.500000 0.297116 0.227766
O O15 0.416262 0.500000 0.264785
O O16 0.175072 0.206288 0.500000
O O17 0.250000 0.250000 0.412986
O O18 0.188347 0.000000 0.421550
#
# Coordination Sequence:
#
# PCOD8273438 Si02
#       6
#    16   8  16  16  16  16
#     4  10  21  37  59  88 120 155 196 242 292 346
#     4   9  17  31  53  81 111 143 181 223 268 325
#     4  10  21  37  57  83 115 149 187 233 285 341
#     4  11  24  40  60  85 115 150 190 237 290 349
#     4   9  20  40  63  85 111 148 194 243 291 343
#     4  10  21  37  58  85 119 160 203 246 293 345
#
# _framework density 19.891341000000001
#
# number of rings (size 3 to 8) (size 9 to 14) (size 15 to 20)
#    0.000    2.091    0.000    2.455    1.273    7.273 
#    0.000    3.636    0.000    0.000    0.000    0.000 
#    0.000    0.000    0.000    0.000    0.000    0.000 
#
# Total GULP energy -545698.566827 kJ/mol
# GULP energy per Si atom -12402.240155 kJ/mol
# Density = 1.984607 g / cm^3
# Si number density = 19.891341 Si / 1000 Ang^3
#
#
#
# Elastic Constant Matrix: (Units=GPa)
#
#
# Indices 1 2 3 4 5 6 
#
# 1 130.8688 68.5268 67.2027 0.0000 0.0000 0.0000
# 2 68.5268 117.0248 62.2535 0.0000 0.0000 0.0000
# 3 67.2027 62.2535 84.1086 0.0000 0.0000 0.0000
# 4 0.0000 0.0000 0.0000 30.2190 0.0000 0.0000
# 5 0.0000 0.0000 0.0000 0.0000 22.9794 0.0000
# 6 0.0000 0.0000 0.0000 0.0000 0.0000 39.8631
#
#
#
# Elastic Compliance Matrix: (Units=1/GPa)
#
#
# Indices 1 2 3 4 5 6 
#
# 1 0.013851 -0.003668 -0.008352 0.000000 0.000000 0.000000
# 2 -0.003668 0.015066 -0.008221 0.000000 0.000000 0.000000
# 3 -0.008352 -0.008221 0.024647 0.000000 0.000000 0.000000
# 4 0.000000 0.000000 0.000000 0.033092 0.000000 0.000000
# 5 0.000000 0.000000 0.000000 0.000000 0.043517 0.000000
# 6 0.000000 0.000000 0.000000 0.000000 0.000000 0.025086
#
#
# Mechanical properties :
#
#
# Convention : Reuss Voigt Hill
#
# Bulk Modulus (GPa) = 76.43440 80.88534 78.65987
# Shear Modulus (GPa) = 24.98742 27.54691 26.26716
#
# Velocity S-wave (km/s) = 3.54813 3.72542 3.63786
# Velocity P-wave (km/s) = 7.43606 7.69785 7.56809
#
# Compressibility (1/GPa) = 0.01308311
#
# Stress axis : x y z
#
# Youngs Moduli (GPa) = 72.19951 66.37431 40.57226
#
# Poissons Ratio (x) = 0.24343 0.33886
# Poissons Ratio (y) = 0.26479 0.33354
# Poissons Ratio (z) = 0.60301 0.54566
#
# Static dielectric constant tensor:
#      x y z
#    x 3.684800 0.000000 0.000000 
#    y 0.000000 3.698410 0.000000 
#    z 0.000000 0.000000 3.473450 
# 
# 
# High freq. dielectric constant tensor:
#      x y z
#    x 1.784740 0.000000 0.000000 
#    y 0.000000 1.786130 0.000000 
#    z 0.000000 0.000000 1.763290 
# 
# From -- ./inp_files/70942.got.cif
#   From: 2010.03.12/outbox.cif.g09.slc.cpg/sg65_36_cif.got.tgz:70942.got - 2010.04.10 20:52:16.
