data_PCOD8273311
_publ_section_title
;
Structure prediction by ZEFSAII (Michael W. Deem and Ramdas Pophale) SiO2 
 PCOD8273311
Probable space group: C M M M
;
_chemical_formula_sum "Si O2"
_cell_formula_units_Z 96
_cell_length_a 28.723040
_cell_length_b 8.692360
_cell_length_c 20.421340
_cell_angle_alpha 90.000000
_cell_angle_beta 90.000000
_cell_angle_gamma 90.000000
_cell_volume 5098.616460
_symmetry_space_group_name_H-M "C M M M"
_symmetry_group_IT_number 65
_symmetry_cell_setting 'orthorhombic'
loop_
_space_group_symop_operation_xyz
x,y,z
-x,-y,z
x,-y,-z
-x,y,-z
-x,-y,-z
x,y,-z
-x,y,z
x,-y,z
1/2+x,1/2+y,z
1/2-x,1/2-y,z
1/2+x,1/2-y,-z
1/2-x,1/2+y,-z
1/2-x,1/2-y,-z
1/2+x,1/2+y,-z
1/2-x,1/2+y,z
1/2+x,1/2-y,z
loop_
_atom_site_type_symbol
_atom_site_label
_atom_site_fract_x
_atom_site_fract_y
_atom_site_fract_z
Si Si1 0.797766 0.680710 0.871659
Si Si2 0.553544 0.319720 0.804686
Si Si3 0.201755 0.181483 0.729848
Si Si4 0.610533 0.178758 0.686808
Si Si5 0.114343 0.176573 0.073102
Si Si6 0.053812 0.176432 0.424984
O O1 0.791917 0.500000 0.862876
O O2 0.750000 0.750000 0.900770
O O3 0.809231 0.755538 0.801880
O O4 0.839859 0.718928 0.920131
O O5 0.500000 0.268634 0.805263
O O6 0.558890 0.500000 0.790327
O O7 0.579618 0.228844 0.748142
O O8 0.574941 0.274408 0.875076
O O9 0.250000 0.250000 0.702150
O O10 0.159335 0.230761 0.683497
O O11 0.206073 0.000000 0.732562
O O12 0.583987 0.211404 0.619498
O O13 0.621423 0.000000 0.693043
O O14 0.129041 0.000000 0.084611
O O15 0.094042 0.201082 0.000000
O O16 0.068457 0.203049 0.500000
O O17 0.000000 0.218372 0.414738
O O18 0.062624 0.000000 0.404344
#
# Coordination Sequence:
#
# PCOD8273311 Si02
#       6
#    16  16  16  16  16  16
#     4  11  21  35  56  81 109 142 179 226 283 341
#     4  10  21  37  57  80 108 145 189 237 285 335
#     4  11  21  36  58  84 114 146 184 231 280 334
#     4  12  23  35  56  87 119 153 189 230 279 332
#     4  10  21  37  56  78 107 145 188 234 285 341
#     4   9  19  37  60  86 118 157 198 237 280 331
#
# _framework density 18.828637000000001
#
# number of rings (size 3 to 8) (size 9 to 14) (size 15 to 20)
#    0.000    1.500    1.667    6.500    0.000    4.000 
#    0.000    2.500    0.000    0.500    0.000    2.333 
#    0.000    0.000    0.000    0.000    0.000    0.000 
#
# Total GULP energy -595393.644009 kJ/mol
# GULP energy per Si atom -12404.034250 kJ/mol
# Density = 1.878578 g / cm^3
# Si number density = 18.828637 Si / 1000 Ang^3
#
#
#
# Elastic Constant Matrix: (Units=GPa)
#
#
# Indices 1 2 3 4 5 6 
#
# 1 118.2021 48.1558 48.8298 0.0000 0.0000 0.0000
# 2 48.1558 120.8076 35.2322 0.0000 0.0000 0.0000
# 3 48.8298 35.2322 92.2062 0.0000 0.0000 0.0000
# 4 0.0000 0.0000 0.0000 20.6254 0.0000 0.0000
# 5 0.0000 0.0000 0.0000 0.0000 28.4174 0.0000
# 6 0.0000 0.0000 0.0000 0.0000 0.0000 30.2606
#
#
#
# Elastic Compliance Matrix: (Units=1/GPa)
#
#
# Indices 1 2 3 4 5 6 
#
# 1 0.011871 -0.003262 -0.005040 0.000000 0.000000 0.000000
# 2 -0.003262 0.010212 -0.002175 0.000000 0.000000 0.000000
# 3 -0.005040 -0.002175 0.014345 0.000000 0.000000 0.000000
# 4 0.000000 0.000000 0.000000 0.048484 0.000000 0.000000
# 5 0.000000 0.000000 0.000000 0.000000 0.035190 0.000000
# 6 0.000000 0.000000 0.000000 0.000000 0.000000 0.033046
#
#
# Mechanical properties :
#
#
# Convention : Reuss Voigt Hill
#
# Bulk Modulus (GPa) = 64.62074 66.18351 65.40212
# Shear Modulus (GPa) = 27.89235 29.12721 28.50978
#
# Velocity S-wave (km/s) = 3.85304 3.93741 3.89546
# Velocity P-wave (km/s) = 7.36136 7.47648 7.41914
#
# Compressibility (1/GPa) = 0.01547491
#
# Stress axis : x y z
#
# Youngs Moduli (GPa) = 84.23738 97.92260 69.70928
#
# Poissons Ratio (x) = 0.31944 0.35135
# Poissons Ratio (y) = 0.27479 0.15159
# Poissons Ratio (z) = 0.42457 0.21294
#
# Static dielectric constant tensor:
#      x y z
#    x 3.597230 0.000000 0.000000 
#    y 0.000000 3.418620 0.000000 
#    z 0.000000 0.000000 3.311820 
# 
# 
# High freq. dielectric constant tensor:
#      x y z
#    x 1.736830 0.000000 0.000000 
#    y 0.000000 1.733050 0.000000 
#    z 0.000000 0.000000 1.714510 
# 
# From -- ./inp_files/60273.got.cif
#   From: 2010.03.12/outbox.cif.g09.slc.cpg/sg65_31_cif.got.tgz:60273.got - 2010.04.10 20:52:16.
