data_PCOD8273472
_publ_section_title
;
Structure prediction by ZEFSAII (Michael W. Deem and Ramdas Pophale) SiO2 
 PCOD8273472
Probable space group: C M M M
;
_chemical_formula_sum "Si O2"
_cell_formula_units_Z 80
_cell_length_a 8.865832
_cell_length_b 29.173998
_cell_length_c 15.696095
_cell_angle_alpha 90.000000
_cell_angle_beta 90.000000
_cell_angle_gamma 90.000000
_cell_volume 4059.822676
_symmetry_space_group_name_H-M "C M M M"
_symmetry_group_IT_number 65
_symmetry_cell_setting 'orthorhombic'
loop_
_space_group_symop_operation_xyz
x,y,z
-x,-y,z
x,-y,-z
-x,y,-z
-x,-y,-z
x,y,-z
-x,y,z
x,-y,z
1/2+x,1/2+y,z
1/2-x,1/2-y,z
1/2+x,1/2-y,-z
1/2-x,1/2+y,-z
1/2-x,1/2-y,-z
1/2+x,1/2+y,-z
1/2-x,1/2+y,z
1/2+x,1/2-y,z
loop_
_atom_site_type_symbol
_atom_site_label
_atom_site_fract_x
_atom_site_fract_y
_atom_site_fract_z
Si Si1 0.326191 0.854405 0.095316
Si Si2 0.820625 0.855402 0.406609
Si Si3 0.821617 0.200600 0.244906
Si Si4 0.328807 0.949646 0.833965
Si Si5 0.177905 0.049772 0.342261
O O1 0.500000 0.842458 0.115550
O O2 0.221279 0.828973 0.162671
O O3 0.298900 0.909305 0.098505
O O4 0.283274 0.838179 0.000000
O O5 0.768492 0.837280 0.500000
O O6 0.757318 0.823055 0.331379
O O7 0.757705 0.907483 0.396396
O O8 0.000000 0.856123 0.400145
O O9 0.750000 0.250000 0.236470
O O10 0.000000 0.205381 0.248454
O O11 0.500000 0.946813 0.799472
O O12 0.217446 0.941716 0.755666
O O13 0.299696 0.000000 0.875848
O O14 0.000000 0.048826 0.350974
O O15 0.242893 0.000000 0.373207
#
# Coordination Sequence:
#
# PCOD8273472 Si02
#       5
#    16  16  16  16  16
#     4  10  21  37  58  84 113 145 183 225 269 322
#     4   9  18  33  54  82 113 143 179 222 268 320
#     4  11  23  40  61  82 107 141 179 228 283 332
#     4   9  17  30  51  79 112 148 182 218 262 313
#     4   9  16  28  50  79 110 145 183 219 259 312
#
# _framework density 19.705293999999999
#
# number of rings (size 3 to 8) (size 9 to 14) (size 15 to 20)
#    0.000    2.400    2.000    0.600    0.000    2.000 
#    0.000    4.000    0.000    4.800    0.000    7.000 
#    0.000    0.000    0.000    0.000    0.000    0.000 
#
# Total GULP energy -495692.599025 kJ/mol
# GULP energy per Si atom -12392.314976 kJ/mol
# Density = 1.966044 g / cm^3
# Si number density = 19.705294 Si / 1000 Ang^3
#
#
#
# Elastic Constant Matrix: (Units=GPa)
#
#
# Indices 1 2 3 4 5 6 
#
# 1 27.0689 28.3640 20.6544 0.0000 0.0000 0.0000
# 2 28.3640 129.9134 59.4418 0.0000 0.0000 0.0000
# 3 20.6544 59.4418 122.0360 0.0000 0.0000 0.0000
# 4 0.0000 0.0000 0.0000 12.8038 0.0000 0.0000
# 5 0.0000 0.0000 0.0000 0.0000 17.5561 0.0000
# 6 0.0000 0.0000 0.0000 0.0000 0.0000 16.2927
#
#
#
# Elastic Compliance Matrix: (Units=1/GPa)
#
#
# Indices 1 2 3 4 5 6 
#
# 1 0.049371 -0.008951 -0.003996 0.000000 0.000000 0.000000
# 2 -0.008951 0.011528 -0.004100 0.000000 0.000000 0.000000
# 3 -0.003996 -0.004100 0.010868 0.000000 0.000000 0.000000
# 4 0.000000 0.000000 0.000000 0.078102 0.000000 0.000000
# 5 0.000000 0.000000 0.000000 0.000000 0.056960 0.000000
# 6 0.000000 0.000000 0.000000 0.000000 0.000000 0.061377
#
#
# Mechanical properties :
#
#
# Convention : Reuss Voigt Hill
#
# Bulk Modulus (GPa) = 26.54466 55.10430 40.82448
# Shear Modulus (GPa) = 15.88024 20.70105 18.29064
#
# Velocity S-wave (km/s) = 2.84189 3.24471 3.04996
# Velocity P-wave (km/s) = 4.92631 6.48556 5.75895
#
# Compressibility (1/GPa) = 0.03767237
#
# Stress axis : x y z
#
# Youngs Moduli (GPa) = 20.25485 86.74819 92.01569
#
# Poissons Ratio (x) = 0.77646 0.36771
# Poissons Ratio (y) = 0.18130 0.37727
# Poissons Ratio (z) = 0.08094 0.35567
#
# Static dielectric constant tensor:
#      x y z
#    x 3.319020 0.000000 0.000000 
#    y 0.000000 3.926880 0.000000 
#    z 0.000000 0.000000 3.539830 
# 
# 
# High freq. dielectric constant tensor:
#      x y z
#    x 1.734800 0.000000 0.000000 
#    y 0.000000 1.779790 0.000000 
#    z 0.000000 0.000000 1.756800 
# 
# From -- ./inp_files/22877.got.cif
#   From: 2010.03.12/outbox.cif.g09.slc.cpg/sg65_12_cif.got.tgz:22877.got - 2010.04.10 20:52:16.
