data_PCOD8273291
_publ_section_title
;
Structure prediction by ZEFSAII (Michael W. Deem and Ramdas Pophale) SiO2 
 PCOD8273291
Probable space group: C M M M
;
_chemical_formula_sum "Si O2"
_cell_formula_units_Z 72
_cell_length_a 14.900127
_cell_length_b 29.129988
_cell_length_c 9.030984
_cell_angle_alpha 90.000000
_cell_angle_beta 90.000000
_cell_angle_gamma 90.000000
_cell_volume 3919.812998
_symmetry_space_group_name_H-M "C M M M"
_symmetry_group_IT_number 65
_symmetry_cell_setting 'orthorhombic'
loop_
_space_group_symop_operation_xyz
x,y,z
-x,-y,z
x,-y,-z
-x,y,-z
-x,-y,-z
x,y,-z
-x,y,z
x,-y,z
1/2+x,1/2+y,z
1/2-x,1/2-y,z
1/2+x,1/2-y,-z
1/2-x,1/2+y,-z
1/2-x,1/2-y,-z
1/2+x,1/2+y,-z
1/2-x,1/2+y,z
1/2+x,1/2-y,z
loop_
_atom_site_type_symbol
_atom_site_label
_atom_site_fract_x
_atom_site_fract_y
_atom_site_fract_z
Si Si1 0.500000 0.446177 0.840069
Si Si2 0.762188 0.636963 0.326515
Si Si3 0.693714 0.447920 0.823266
Si Si4 0.895090 0.296284 0.170349
Si Si5 0.601976 0.702951 0.671170
O O1 0.500000 0.500000 0.869895
O O2 0.593962 0.434573 0.758079
O O3 0.500000 0.421112 0.000000
O O4 0.776581 0.631535 0.500000
O O5 0.763427 0.586657 0.252331
O O6 0.845040 0.664716 0.261313
O O7 0.668212 0.661679 0.287563
O O8 0.719860 0.500000 0.779064
O O9 0.694894 0.442399 0.000000
O O10 0.868646 0.246522 0.232529
O O11 0.000000 0.305366 0.191286
O O12 0.865691 0.298407 0.000000
O O13 0.611530 0.717158 0.500000
O O14 0.500000 0.687371 0.708064
#
# Coordination Sequence:
#
# PCOD8273291 Si02
#       5
#     8  16  16  16  16
#     4   7  12  26  47  69  95 131 171 207 247 293
#     4  11  22  33  52  79 107 141 176 212 258 311
#     4   9  18  33  52  74 103 139 177 217 258 300
#     4  10  21  37  56  77 101 132 174 222 267 310
#     4   9  19  35  52  74 109 145 173 205 251 309
#
# _framework density 18.368223
#
# number of rings (size 3 to 8) (size 9 to 14) (size 15 to 20)
#    0.000    2.556    0.000    3.333    1.556    6.222 
#    0.000    0.000    0.000    2.667    0.000    4.667 
#    0.000    0.000    0.000    0.000    0.000    0.000 
#
# Total GULP energy -446265.661758 kJ/mol
# GULP energy per Si atom -12396.268382 kJ/mol
# Density = 1.832642 g / cm^3
# Si number density = 18.368223 Si / 1000 Ang^3
#
#
#
# Elastic Constant Matrix: (Units=GPa)
#
#
# Indices 1 2 3 4 5 6 
#
# 1 46.0134 42.3543 34.6617 0.0000 0.0000 0.0000
# 2 42.3543 117.3752 56.9932 0.0000 0.0000 0.0000
# 3 34.6617 56.9932 77.3519 0.0000 0.0000 0.0000
# 4 0.0000 0.0000 0.0000 22.9620 0.0000 0.0000
# 5 0.0000 0.0000 0.0000 0.0000 18.8223 0.0000
# 6 0.0000 0.0000 0.0000 0.0000 0.0000 27.5824
#
#
#
# Elastic Compliance Matrix: (Units=1/GPa)
#
#
# Indices 1 2 3 4 5 6 
#
# 1 0.037411 -0.008345 -0.010615 0.000000 0.000000 0.000000
# 2 -0.008345 0.015127 -0.007406 0.000000 0.000000 0.000000
# 3 -0.010615 -0.007406 0.023142 0.000000 0.000000 0.000000
# 4 0.000000 0.000000 0.000000 0.043550 0.000000 0.000000
# 5 0.000000 0.000000 0.000000 0.000000 0.053128 0.000000
# 6 0.000000 0.000000 0.000000 0.000000 0.000000 0.036255
#
#
# Mechanical properties :
#
#
# Convention : Reuss Voigt Hill
#
# Bulk Modulus (GPa) = 43.57995 56.52877 50.05436
# Shear Modulus (GPa) = 18.58771 20.98877 19.78824
#
# Velocity S-wave (km/s) = 3.18457 3.38400 3.28580
# Velocity P-wave (km/s) = 6.10731 6.79049 6.45794
#
# Compressibility (1/GPa) = 0.02294633
#
# Stress axis : x y z
#
# Youngs Moduli (GPa) = 26.73035 66.10596 43.21220
#
# Poissons Ratio (x) = 0.55166 0.45870
# Poissons Ratio (y) = 0.22307 0.32004
# Poissons Ratio (z) = 0.28375 0.48960
#
# Static dielectric constant tensor:
#      x y z
#    x 3.398950 0.000000 0.000000 
#    y 0.000000 3.244240 0.000000 
#    z 0.000000 0.000000 3.268900 
# 
# 
# High freq. dielectric constant tensor:
#      x y z
#    x 1.699440 0.000000 0.000000 
#    y 0.000000 1.704080 0.000000 
#    z 0.000000 0.000000 1.703940 
# 
# From -- ./inp_files/7202.got.cif
#   From: 2010.03.12/outbox.cif.g09.slc.cpg/sg65_4_cif.got.tgz:7202.got - 2010.04.10 20:52:16.
