data_PCOD8273624
_publ_section_title
;
Structure prediction by ZEFSAII (Michael W. Deem and Ramdas Pophale) SiO2 
 PCOD8273624
Probable space group: C M M M
;
_chemical_formula_sum "Si O2"
_cell_formula_units_Z 72
_cell_length_a 23.607321
_cell_length_b 9.016342
_cell_length_c 17.651681
_cell_angle_alpha 90.000000
_cell_angle_beta 90.000000
_cell_angle_gamma 90.000000
_cell_volume 3757.189953
_symmetry_space_group_name_H-M "C M M M"
_symmetry_group_IT_number 65
_symmetry_cell_setting 'orthorhombic'
loop_
_space_group_symop_operation_xyz
x,y,z
-x,-y,z
x,-y,-z
-x,y,-z
-x,-y,-z
x,y,-z
-x,y,z
x,-y,z
1/2+x,1/2+y,z
1/2-x,1/2-y,z
1/2+x,1/2-y,-z
1/2-x,1/2+y,-z
1/2-x,1/2-y,-z
1/2+x,1/2+y,-z
1/2-x,1/2+y,z
1/2+x,1/2-y,z
loop_
_atom_site_type_symbol
_atom_site_label
_atom_site_fract_x
_atom_site_fract_y
_atom_site_fract_z
Si Si1 0.500000 0.664035 0.779521
Si Si2 0.309850 0.827193 0.721842
Si Si3 0.385292 0.829666 0.416438
Si Si4 0.500000 0.661853 0.395661
Si Si5 0.397401 0.826503 0.849716
Si Si6 0.566987 0.324457 0.000000
O O1 0.500000 0.500000 0.820795
O O2 0.500000 0.636492 0.692381
O O3 0.446463 0.761929 0.798507
O O4 0.250000 0.750000 0.724918
O O5 0.345379 0.762800 0.650008
O O6 0.340091 0.796712 0.802617
O O7 0.299912 0.000000 0.709044
O O8 0.356160 0.814514 0.500000
O O9 0.444743 0.747973 0.421577
O O10 0.398044 0.000000 0.396304
O O11 0.500000 0.500000 0.434566
O O12 0.407042 0.000000 0.864649
O O13 0.398845 0.740808 0.929030
O O14 0.572731 0.500000 0.000000
O O15 0.500000 0.277471 0.000000
#
# Coordination Sequence:
#
# PCOD8273624 Si02
#       6
#     8  16  16   8  16   8
#     4  11  21  33  55  87 119 154 190 235 293 346
#     4  10  23  41  61  85 112 151 201 247 290 341
#     4  10  21  38  59  84 117 156 196 239 291 351
#     4  11  22  34  54  87 123 154 191 238 294 353
#     4  11  22  38  61  88 118 154 196 237 283 345
#     4  11  23  37  58  93 129 154 185 231 288 346
#
# _framework density 19.163257999999999
#
# number of rings (size 3 to 8) (size 9 to 14) (size 15 to 20)
#    0.000    1.444    3.333    2.000    0.000    6.222 
#    0.000    0.556    0.000    0.000    0.000    0.000 
#    0.000    0.000    0.000    0.000    0.000    0.000 
#
# Total GULP energy -446268.666525 kJ/mol
# GULP energy per Si atom -12396.351848 kJ/mol
# Density = 1.911964 g / cm^3
# Si number density = 19.163258 Si / 1000 Ang^3
#
#
#
# Elastic Constant Matrix: (Units=GPa)
#
#
# Indices 1 2 3 4 5 6 
#
# 1 129.4698 58.5065 57.8996 0.0000 0.0000 0.0000
# 2 58.5065 90.7870 52.8460 0.0000 0.0000 0.0000
# 3 57.8996 52.8460 145.8191 0.0000 0.0000 0.0000
# 4 0.0000 0.0000 0.0000 14.7003 0.0000 0.0000
# 5 0.0000 0.0000 0.0000 0.0000 14.6092 0.0000
# 6 0.0000 0.0000 0.0000 0.0000 0.0000 39.3836
#
#
#
# Elastic Compliance Matrix: (Units=1/GPa)
#
#
# Indices 1 2 3 4 5 6 
#
# 1 0.011517 -0.006033 -0.002387 0.000000 0.000000 0.000000
# 2 -0.006033 0.017120 -0.003809 0.000000 0.000000 0.000000
# 3 -0.002387 -0.003809 0.009186 0.000000 0.000000 0.000000
# 4 0.000000 0.000000 0.000000 0.068026 0.000000 0.000000
# 5 0.000000 0.000000 0.000000 0.000000 0.068450 0.000000
# 6 0.000000 0.000000 0.000000 0.000000 0.000000 0.025391
#
#
# Mechanical properties :
#
#
# Convention : Reuss Voigt Hill
#
# Bulk Modulus (GPa) = 74.81737 78.28668 76.55203
# Shear Modulus (GPa) = 21.87198 26.86019 24.36609
#
# Velocity S-wave (km/s) = 3.38205 3.74792 3.56968
# Velocity P-wave (km/s) = 7.37414 7.72466 7.55143
#
# Compressibility (1/GPa) = 0.01336588
#
# Stress axis : x y z
#
# Youngs Moduli (GPa) = 86.82487 58.41209 108.86273
#
# Poissons Ratio (x) = 0.35240 0.25983
# Poissons Ratio (y) = 0.52381 0.41464
# Poissons Ratio (z) = 0.20723 0.22248
#
# Static dielectric constant tensor:
#      x y z
#    x 3.324630 0.000000 0.000000 
#    y 0.000000 3.635710 0.000000 
#    z 0.000000 0.000000 3.839520 
# 
# 
# High freq. dielectric constant tensor:
#      x y z
#    x 1.721750 0.000000 0.000000 
#    y 0.000000 1.752080 0.000000 
#    z 0.000000 0.000000 1.767970 
# 
# From -- ./inp_files/56486.got.cif
#   From: 2010.03.12/outbox.cif.g09.slc.cpg/sg65_29_cif.got.tgz:56486.got - 2010.04.10 20:52:16.
