data_PCOD8273689
_publ_section_title
;
Structure prediction by ZEFSAII (Michael W. Deem and Ramdas Pophale) SiO2 
 PCOD8273689
Probable space group: C M M M
;
_chemical_formula_sum "Si O2"
_cell_formula_units_Z 64
_cell_length_a 18.351185
_cell_length_b 8.689926
_cell_length_c 20.544038
_cell_angle_alpha 90.000000
_cell_angle_beta 90.000000
_cell_angle_gamma 90.000000
_cell_volume 3276.166772
_symmetry_space_group_name_H-M "C M M M"
_symmetry_group_IT_number 65
_symmetry_cell_setting 'orthorhombic'
loop_
_space_group_symop_operation_xyz
x,y,z
-x,-y,z
x,-y,-z
-x,y,-z
-x,-y,-z
x,y,-z
-x,y,z
x,-y,z
1/2+x,1/2+y,z
1/2-x,1/2-y,z
1/2+x,1/2-y,-z
1/2-x,1/2+y,-z
1/2-x,1/2-y,-z
1/2+x,1/2+y,-z
1/2-x,1/2+y,z
1/2+x,1/2-y,z
loop_
_atom_site_type_symbol
_atom_site_label
_atom_site_fract_x
_atom_site_fract_y
_atom_site_fract_z
Si Si1 0.418204 0.682989 0.000000
Si Si2 0.670323 0.317734 0.875459
Si Si3 0.829724 0.318429 0.500000
Si Si4 0.415907 0.819472 0.243145
Si Si5 0.914970 0.178342 0.619192
O O1 0.377040 0.744230 0.063955
O O2 0.420400 0.500000 0.000000
O O3 0.500000 0.750726 0.000000
O O4 0.675168 0.500000 0.875425
O O5 0.750000 0.250000 0.882407
O O6 0.633673 0.263006 0.809408
O O7 0.824934 0.500000 0.500000
O O8 0.750000 0.250000 0.500000
O O9 0.871465 0.264103 0.563650
O O10 0.500000 0.780223 0.228383
O O11 0.392401 0.753565 0.312692
O O12 0.400953 0.000000 0.242011
O O13 0.000000 0.201396 0.605122
O O14 0.893273 0.000000 0.620127
#
# Coordination Sequence:
#
# PCOD8273689 Si02
#       5
#     8  16   8  16  16
#     4   9  19  36  59  85 112 147 192 239 286 340
#     4  11  22  37  58  84 117 154 192 235 286 343
#     4  12  25  40  59  85 119 155 193 238 289 342
#     4  10  21  38  60  87 117 149 190 238 286 339
#     4  10  21  39  63  89 117 151 192 236 284 341
#
# _framework density 19.535025999999998
#
# number of rings (size 3 to 8) (size 9 to 14) (size 15 to 20)
#    0.000    1.625    0.000    4.875    0.000    6.500 
#    0.000    6.875    0.000    4.500    0.000    0.000 
#    0.000    0.000    0.000    0.000    0.000    0.000 
#
# Total GULP energy -396966.780418 kJ/mol
# GULP energy per Si atom -12405.211888 kJ/mol
# Density = 1.949056 g / cm^3
# Si number density = 19.535026 Si / 1000 Ang^3
#
#
#
# Elastic Constant Matrix: (Units=GPa)
#
#
# Indices 1 2 3 4 5 6 
#
# 1 136.0471 59.8611 101.4269 0.0000 0.0000 0.0000
# 2 59.8611 100.9300 57.2561 0.0000 0.0000 0.0000
# 3 101.4269 57.2561 168.7027 0.0000 0.0000 0.0000
# 4 0.0000 0.0000 0.0000 28.1407 0.0000 0.0000
# 5 0.0000 0.0000 0.0000 0.0000 -130.6001 0.0000
# 6 0.0000 0.0000 0.0000 0.0000 0.0000 28.5354
#
#
#
# Elastic Compliance Matrix: (Units=1/GPa)
#
#
# Indices 1 2 3 4 5 6 
#
# 1 0.014897 -0.004650 -0.007378 0.000000 0.000000 0.000000
# 2 -0.004650 0.013722 -0.001861 0.000000 0.000000 0.000000
# 3 -0.007378 -0.001861 0.010995 0.000000 0.000000 0.000000
# 4 0.000000 0.000000 0.000000 0.035536 0.000000 0.000000
# 5 0.000000 0.000000 0.000000 0.000000 -0.007657 0.000000
# 6 0.000000 0.000000 0.000000 0.000000 0.000000 0.035044
#
#
# Mechanical properties :
#
#
# Convention : Reuss Voigt Hill
#
# Bulk Modulus (GPa) = 84.49570 93.64089 89.06830
# Shear Modulus (GPa) = 37.24098 -2.30909 17.46595
#
# Velocity S-wave (km/s) = 4.37094 -1.08839 2.99337
# Velocity P-wave (km/s) = 8.29583 6.81612 7.59211
#
# Compressibility (1/GPa) = 0.01183492
#
# Stress axis : x y z
#
# Youngs Moduli (GPa) = 67.12769 72.87788 90.94832
#
# Poissons Ratio (x) = 0.33887 0.67104
# Poissons Ratio (y) = 0.31213 0.16930
# Poissons Ratio (z) = 0.49528 0.13566
#
# Static dielectric constant tensor:
#      x y z
#    x 3.927700 0.000000 0.000000 
#    y 0.000000 3.616130 0.000000 
#    z 0.000000 0.000000 3.732490 
# 
# 
# High freq. dielectric constant tensor:
#      x y z
#    x 1.766340 0.000000 0.000000 
#    y 0.000000 1.766460 0.000000 
#    z 0.000000 0.000000 1.779860 
# 
# From -- ./inp_files/63286.got.cif
#   From: 2010.03.12/outbox.cif.g09.slc.cpg/sg65_32_cif.got.tgz:63286.got - 2010.04.10 20:52:16.
