data_PCOD8273602
_publ_section_title
;
Structure prediction by ZEFSAII (Michael W. Deem and Ramdas Pophale) SiO2 
 PCOD8273602
Probable space group: C M M M
;
_chemical_formula_sum "Si O2"
_cell_formula_units_Z 72
_cell_length_a 8.924955
_cell_length_b 21.817699
_cell_length_c 18.518297
_cell_angle_alpha 90.000000
_cell_angle_beta 90.000000
_cell_angle_gamma 90.000000
_cell_volume 3605.919491
_symmetry_space_group_name_H-M "C M M M"
_symmetry_group_IT_number 65
_symmetry_cell_setting 'orthorhombic'
loop_
_space_group_symop_operation_xyz
x,y,z
-x,-y,z
x,-y,-z
-x,y,-z
-x,-y,-z
x,y,-z
-x,y,z
x,-y,z
1/2+x,1/2+y,z
1/2-x,1/2-y,z
1/2+x,1/2-y,-z
1/2-x,1/2+y,-z
1/2-x,1/2-y,-z
1/2+x,1/2+y,-z
1/2-x,1/2+y,z
1/2+x,1/2-y,z
loop_
_atom_site_type_symbol
_atom_site_label
_atom_site_fract_x
_atom_site_fract_y
_atom_site_fract_z
Si Si1 0.327101 0.687024 0.578455
Si Si2 0.176310 0.187140 0.082903
Si Si3 0.668294 0.500000 0.415507
Si Si4 0.676977 0.901567 0.674941
Si Si5 0.324670 0.430644 0.174569
O O1 0.316352 0.651157 0.500000
O O2 0.500000 0.692750 0.601429
O O3 0.250000 0.750000 0.561986
O O4 0.237041 0.663637 0.649018
O O5 0.250000 0.250000 0.114690
O O6 0.231290 0.124358 0.122026
O O7 0.000000 0.194950 0.091532
O O8 0.225230 0.179332 0.000000
O O9 0.500000 0.500000 0.382431
O O10 0.659598 0.500000 0.500000
O O11 0.759170 0.441869 0.389596
O O12 0.500000 0.904259 0.678388
O O13 0.738234 0.923682 0.751072
O O14 0.500000 0.423073 0.189127
O O15 0.292245 0.500000 0.143577
#
# Coordination Sequence:
#
# PCOD8273602 Si02
#       5
#    16  16   8  16  16
#     4  10  21  38  59  82 110 146 190 242 298 356
#     4   9  19  37  62  92 122 155 198 245 297 359
#     4  11  23  39  59  81 108 147 194 243 295 348
#     4  12  24  37  56  83 115 151 192 240 292 353
#     4  10  21  38  60  84 118 161 201 248 302 357
#
# _framework density 19.967168000000001
#
# number of rings (size 3 to 8) (size 9 to 14) (size 15 to 20)
#    0.000    1.667    1.111    3.667    0.000    7.111 
#    0.000    4.444    0.000    0.000    0.000    4.667 
#    0.000    0.000    0.000    0.000    0.000    0.000 
#
# Total GULP energy -446004.738186 kJ/mol
# GULP energy per Si atom -12389.020505 kJ/mol
# Density = 1.992172 g / cm^3
# Si number density = 19.967168 Si / 1000 Ang^3
#
#
#
# Elastic Constant Matrix: (Units=GPa)
#
#
# Indices 1 2 3 4 5 6 
#
# 1 87.0747 50.4606 43.3193 0.0000 0.0000 0.0000
# 2 50.4606 140.3826 60.1199 0.0000 0.0000 0.0000
# 3 43.3193 60.1199 75.2612 0.0000 0.0000 0.0000
# 4 0.0000 0.0000 0.0000 9.0256 0.0000 0.0000
# 5 0.0000 0.0000 0.0000 0.0000 19.1029 0.0000
# 6 0.0000 0.0000 0.0000 0.0000 0.0000 33.4021
#
#
#
# Elastic Compliance Matrix: (Units=1/GPa)
#
#
# Indices 1 2 3 4 5 6 
#
# 1 0.016830 -0.002889 -0.007379 0.000000 0.000000 0.000000
# 2 -0.002889 0.011324 -0.007382 0.000000 0.000000 0.000000
# 3 -0.007379 -0.007382 0.023431 0.000000 0.000000 0.000000
# 4 0.000000 0.000000 0.000000 0.110796 0.000000 0.000000
# 5 0.000000 0.000000 0.000000 0.000000 0.052348 0.000000
# 6 0.000000 0.000000 0.000000 0.000000 0.000000 0.029938
#
#
# Mechanical properties :
#
#
# Convention : Reuss Voigt Hill
#
# Bulk Modulus (GPa) = 61.41202 67.83532 64.62367
# Shear Modulus (GPa) = 17.51953 22.22736 19.87345
#
# Velocity S-wave (km/s) = 2.96534 3.34008 3.15827
# Velocity P-wave (km/s) = 6.52285 6.99443 6.76275
#
# Compressibility (1/GPa) = 0.01628346
#
# Stress axis : x y z
#
# Youngs Moduli (GPa) = 59.41844 88.31175 42.67786
#
# Poissons Ratio (x) = 0.25517 0.31491
# Poissons Ratio (y) = 0.17168 0.31506
# Poissons Ratio (z) = 0.43844 0.65194
#
# Static dielectric constant tensor:
#      x y z
#    x 3.659990 0.000000 0.000000 
#    y 0.000000 3.432020 0.000000 
#    z 0.000000 0.000000 3.569440 
# 
# 
# High freq. dielectric constant tensor:
#      x y z
#    x 1.776960 0.000000 0.000000 
#    y 0.000000 1.790760 0.000000 
#    z 0.000000 0.000000 1.769830 
# 
# From -- ./inp_files/49526.got.cif
#   From: 2010.03.12/outbox.cif.g09.slc.cpg/sg65_25_cif.got.tgz:49526.got - 2010.04.10 20:52:16.
