data_PCOD8273182
_publ_section_title
;
Structure prediction by ZEFSAII (Michael W. Deem and Ramdas Pophale) SiO2 
 PCOD8273182
Probable space group: C M M M
;
_chemical_formula_sum "Si O2"
_cell_formula_units_Z 72
_cell_length_a 19.634562
_cell_length_b 19.981243
_cell_length_c 9.132117
_cell_angle_alpha 90.000000
_cell_angle_beta 90.000000
_cell_angle_gamma 90.000000
_cell_volume 3582.739122
_symmetry_space_group_name_H-M "C M M M"
_symmetry_group_IT_number 65
_symmetry_cell_setting 'orthorhombic'
loop_
_space_group_symop_operation_xyz
x,y,z
-x,-y,z
x,-y,-z
-x,y,-z
-x,-y,-z
x,y,-z
-x,y,z
x,-y,z
1/2+x,1/2+y,z
1/2-x,1/2-y,z
1/2+x,1/2-y,-z
1/2-x,1/2+y,-z
1/2-x,1/2-y,-z
1/2+x,1/2+y,-z
1/2-x,1/2+y,z
1/2+x,1/2-y,z
loop_
_atom_site_type_symbol
_atom_site_label
_atom_site_fract_x
_atom_site_fract_y
_atom_site_fract_z
Si Si1 0.574519 0.823050 0.332430
Si Si2 0.702804 0.186411 0.833428
Si Si3 0.000000 0.422077 0.165694
Si Si4 0.075112 0.920661 0.835642
Si Si5 0.208984 0.078481 0.671896
O O1 0.596023 0.833019 0.500000
O O2 0.500000 0.785915 0.319828
O O3 0.634309 0.786166 0.245450
O O4 0.566738 0.895484 0.252672
O O5 0.750000 0.250000 0.825021
O O6 0.732941 0.121918 0.750285
O O7 0.688205 0.165056 0.000000
O O8 0.000000 0.500000 0.168658
O O9 0.000000 0.394339 0.000000
O O10 0.134805 0.896100 0.727771
O O11 0.000000 0.894446 0.784459
O O12 0.073439 0.000000 0.836489
O O13 0.090868 0.894300 0.000000
O O14 0.212300 0.091969 0.500000
O O15 0.220392 0.000000 0.708848
#
# Coordination Sequence:
#
# PCOD8273182 Si02
#       5
#    16  16   8  16  16
#     4   9  20  37  59  85 114 151 192 241 297 352
#     4  11  24  41  62  87 116 156 201 246 300 360
#     4   9  17  31  55  87 121 157 196 241 294 351
#     4   8  14  27  49  76 108 146 186 231 281 332
#     4  10  21  36  56  84 116 151 192 240 295 355
#
# _framework density 20.096357000000001
#
# number of rings (size 3 to 8) (size 9 to 14) (size 15 to 20)
#    0.667    1.889    0.000    2.667    0.000    5.333 
#    0.000    3.333    0.000    1.333    0.000    0.000 
#    0.000    0.000    0.000    0.000    0.000    0.000 
#
# Total GULP energy -446014.859281 kJ/mol
# GULP energy per Si atom -12389.301647 kJ/mol
# Density = 2.005062 g / cm^3
# Si number density = 20.096357 Si / 1000 Ang^3
#
#
#
# Elastic Constant Matrix: (Units=GPa)
#
#
# Indices 1 2 3 4 5 6 
#
# 1 130.5775 19.7418 77.4236 0.0000 0.0000 0.0000
# 2 19.7418 32.1247 35.3263 0.0000 0.0000 0.0000
# 3 77.4236 35.3263 160.6731 0.0000 0.0000 0.0000
# 4 0.0000 0.0000 0.0000 18.8934 0.0000 0.0000
# 5 0.0000 0.0000 0.0000 0.0000 24.3063 0.0000
# 6 0.0000 0.0000 0.0000 0.0000 0.0000 17.2028
#
#
#
# Elastic Compliance Matrix: (Units=1/GPa)
#
#
# Indices 1 2 3 4 5 6 
#
# 1 0.010757 -0.001201 -0.004919 0.000000 0.000000 0.000000
# 2 -0.001201 0.041189 -0.008477 0.000000 0.000000 0.000000
# 3 -0.004919 -0.008477 0.010458 0.000000 0.000000 0.000000
# 4 0.000000 0.000000 0.000000 0.052929 0.000000 0.000000
# 5 0.000000 0.000000 0.000000 0.000000 0.041142 0.000000
# 6 0.000000 0.000000 0.000000 0.000000 0.000000 0.058130
#
#
# Mechanical properties :
#
#
# Convention : Reuss Voigt Hill
#
# Bulk Modulus (GPa) = 30.11254 65.37319 47.74286
# Shear Modulus (GPa) = 19.61798 24.80608 22.21203
#
# Velocity S-wave (km/s) = 3.12780 3.51715 3.32818
# Velocity P-wave (km/s) = 5.29725 7.00673 6.21108
#
# Compressibility (1/GPa) = 0.03320876
#
# Stress axis : x y z
#
# Youngs Moduli (GPa) = 92.96585 24.27845 95.61927
#
# Poissons Ratio (x) = 0.02915 0.47038
# Poissons Ratio (y) = 0.11163 0.81060
# Poissons Ratio (z) = 0.45733 0.20582
#
# Static dielectric constant tensor:
#      x y z
#    x 6.346420 0.000000 0.000000 
#    y 0.000000 3.158860 0.000000 
#    z 0.000000 0.000000 3.876590 
# 
# 
# High freq. dielectric constant tensor:
#      x y z
#    x 1.793270 0.000000 0.000000 
#    y 0.000000 1.741300 0.000000 
#    z 0.000000 0.000000 1.796320 
# 
# From -- ./inp_files/11228.got.cif
#   From: 2010.03.12/outbox.cif.g09.slc.cpg/sg65_6_cif.got.tgz:11228.got - 2010.04.10 20:52:16.
