data_PCOD8273555
_publ_section_title
;
Structure prediction by ZEFSAII (Michael W. Deem and Ramdas Pophale) SiO2 
 PCOD8273555
Probable space group: C M M M
;
_chemical_formula_sum "Si O2"
_cell_formula_units_Z 88
_cell_length_a 9.908728
_cell_length_b 21.273546
_cell_length_c 22.787796
_cell_angle_alpha 90.000000
_cell_angle_beta 90.000000
_cell_angle_gamma 90.000000
_cell_volume 4803.525677
_symmetry_space_group_name_H-M "C M M M"
_symmetry_group_IT_number 65
_symmetry_cell_setting 'orthorhombic'
loop_
_space_group_symop_operation_xyz
x,y,z
-x,-y,z
x,-y,-z
-x,y,-z
-x,-y,-z
x,y,-z
-x,y,z
x,-y,z
1/2+x,1/2+y,z
1/2-x,1/2-y,z
1/2+x,1/2-y,-z
1/2-x,1/2+y,-z
1/2-x,1/2-y,-z
1/2+x,1/2+y,-z
1/2-x,1/2+y,z
1/2+x,1/2-y,z
loop_
_atom_site_type_symbol
_atom_site_label
_atom_site_fract_x
_atom_site_fract_y
_atom_site_fract_z
Si Si1 0.500000 0.680100 0.065642
Si Si2 0.844775 0.807006 0.431640
Si Si3 0.751405 0.122618 0.125192
Si Si4 0.500000 0.824361 0.063656
Si Si5 0.843275 0.572697 0.755822
Si Si6 0.153396 0.000000 0.068959
Si Si7 0.655337 0.428253 0.354887
O O1 0.377783 0.664171 0.108058
O O2 0.500000 0.751704 0.050313
O O3 0.500000 0.645469 0.000000
O O4 0.816224 0.816745 0.500000
O O5 0.750000 0.750000 0.407366
O O6 0.811520 0.874864 0.402973
O O7 0.000000 0.787839 0.419441
O O8 0.625628 0.159462 0.102126
O O9 0.732614 0.113251 0.194639
O O10 0.761400 0.057574 0.091811
O O11 0.500000 0.858806 0.000000
O O12 0.836694 0.500000 0.774301
O O13 0.759596 0.585013 0.697124
O O14 0.000000 0.593334 0.747667
O O15 0.000000 0.000000 0.094459
O O16 0.149092 0.000000 0.000000
O O17 0.500000 0.421628 0.333126
O O18 0.677401 0.500000 0.379362
#
# Coordination Sequence:
#
# PCOD8273555 Si02
#       7
#     8  16  16   8  16   8  16
#     4  11  24  41  59  79 109 148 184 225 282 347
#     4   9  18  34  57  87 123 159 193 234 283 331
#     4  12  22  38  60  83 109 142 182 230 285 344
#     4  11  24  41  59  79 107 144 186 229 278 341
#     4  10  21  38  56  81 113 147 182 229 288 340
#     4  11  22  35  55  87 115 135 170 227 292 349
#     4   9  19  35  59  86 113 151 197 237 281 335
#
# _framework density 18.319877999999999
#
# number of rings (size 3 to 8) (size 9 to 14) (size 15 to 20)
#    0.000    1.727    2.727    2.182    1.273    2.909 
#    0.000    4.545    0.000    0.000    0.000    5.091 
#    0.000    0.000    0.000    0.000    0.000    0.000 
#
# Total GULP energy -545318.024365 kJ/mol
# GULP energy per Si atom -12393.591463 kJ/mol
# Density = 1.827818 g / cm^3
# Si number density = 18.319878 Si / 1000 Ang^3
#
#
#
# Elastic Constant Matrix: (Units=GPa)
#
#
# Indices 1 2 3 4 5 6 
#
# 1 130.6216 51.3832 56.5937 0.0000 0.0000 0.0000
# 2 51.3832 106.2655 52.7373 0.0000 0.0000 0.0000
# 3 56.5937 52.7373 92.8085 0.0000 0.0000 0.0000
# 4 0.0000 0.0000 0.0000 32.1390 0.0000 0.0000
# 5 0.0000 0.0000 0.0000 0.0000 -7.7373 0.0000
# 6 0.0000 0.0000 0.0000 0.0000 0.0000 8.6458
#
#
#
# Elastic Compliance Matrix: (Units=1/GPa)
#
#
# Indices 1 2 3 4 5 6 
#
# 1 0.010957 -0.002761 -0.005113 0.000000 0.000000 0.000000
# 2 -0.002761 0.013802 -0.006159 0.000000 0.000000 0.000000
# 3 -0.005113 -0.006159 0.017393 0.000000 0.000000 0.000000
# 4 0.000000 0.000000 0.000000 0.031115 0.000000 0.000000
# 5 0.000000 0.000000 0.000000 0.000000 -0.129245 0.000000
# 6 0.000000 0.000000 0.000000 0.000000 0.000000 0.115663
#
#
# Mechanical properties :
#
#
# Convention : Reuss Voigt Hill
#
# Bulk Modulus (GPa) = 70.99288 72.34710 71.66999
# Shear Modulus (GPa) = 54.08610 17.87494 35.98052
#
# Velocity S-wave (km/s) = 5.43942 3.12703 4.43653
# Velocity P-wave (km/s) = 8.84792 7.25359 8.09012
#
# Compressibility (1/GPa) = 0.01408592
#
# Stress axis : x y z
#
# Youngs Moduli (GPa) = 91.26745 72.45274 57.49603
#
# Poissons Ratio (x) = 0.20002 0.29395
# Poissons Ratio (y) = 0.25197 0.35414
# Poissons Ratio (z) = 0.46661 0.44627
#
# Static dielectric constant tensor:
#      x y z
#    x 3.455620 0.000000 0.000000 
#    y 0.000000 3.478700 0.000000 
#    z 0.000000 0.000000 3.258470 
# 
# 
# High freq. dielectric constant tensor:
#      x y z
#    x 1.722020 0.000000 0.000000 
#    y 0.000000 1.711290 0.000000 
#    z 0.000000 0.000000 1.698260 
# 
# From -- ./inp_files/59904.got.cif
#   From: 2010.03.12/outbox.cif.g09.slc.cpg/sg65_30_cif.got.tgz:59904.got - 2010.04.10 20:52:16.
