data_PCOD8273629
_publ_section_title
;
Structure prediction by ZEFSAII (Michael W. Deem and Ramdas Pophale) SiO2 
 PCOD8273629
Probable space group: C M M M
;
_chemical_formula_sum "Si O2"
_cell_formula_units_Z 80
_cell_length_a 8.798835
_cell_length_b 23.638968
_cell_length_c 20.160691
_cell_angle_alpha 90.000000
_cell_angle_beta 90.000000
_cell_angle_gamma 90.000000
_cell_volume 4193.330565
_symmetry_space_group_name_H-M "C M M M"
_symmetry_group_IT_number 65
_symmetry_cell_setting 'orthorhombic'
loop_
_space_group_symop_operation_xyz
x,y,z
-x,-y,z
x,-y,-z
-x,y,-z
-x,-y,-z
x,y,-z
-x,y,z
x,-y,z
1/2+x,1/2+y,z
1/2-x,1/2-y,z
1/2+x,1/2-y,-z
1/2-x,1/2+y,-z
1/2-x,1/2-y,-z
1/2+x,1/2+y,-z
1/2-x,1/2+y,z
1/2+x,1/2-y,z
loop_
_atom_site_type_symbol
_atom_site_label
_atom_site_fract_x
_atom_site_fract_y
_atom_site_fract_z
Si Si1 0.822066 0.310306 0.184599
Si Si2 0.820065 0.500000 0.878911
Si Si3 0.821462 0.308628 0.425424
Si Si4 0.177497 0.389372 0.690859
Si Si5 0.674005 0.614378 0.923953
Si Si6 0.677514 0.500000 0.735745
O O1 0.750000 0.250000 0.200247
O O2 0.785367 0.350996 0.245844
O O3 0.750964 0.336446 0.118478
O O4 0.000000 0.302754 0.173426
O O5 0.758067 0.555017 0.915433
O O6 0.773913 0.500000 0.802612
O O7 0.000000 0.500000 0.883521
O O8 0.767899 0.324307 0.500000
O O9 0.750000 0.250000 0.401410
O O10 0.769233 0.357754 0.375822
O O11 0.000000 0.300354 0.421635
O O12 0.278630 0.445350 0.693108
O O13 0.000000 0.405386 0.688719
O O14 0.500000 0.606829 0.901282
O O15 0.685537 0.633522 0.000000
O O16 0.500000 0.500000 0.752480
#
# Coordination Sequence:
#
# PCOD8273629 Si02
#       6
#    16   8  16  16  16   8
#     4  11  23  38  59  84 114 152 194 241 291 346
#     4  12  23  39  62  88 117 149 188 236 291 350
#     4   9  18  34  58  88 121 157 195 235 282 335
#     4  10  21  38  59  85 117 153 193 239 288 342
#     4  11  24  41  61  86 116 150 192 241 289 343
#     4  12  24  37  60  87 114 151 192 239 292 342
#
# _framework density 19.077912999999999
#
# number of rings (size 3 to 8) (size 9 to 14) (size 15 to 20)
#    0.000    1.400    2.000    3.900    0.000    4.800 
#    0.000    0.500    0.000    3.000    0.000    0.000 
#    0.000    0.000    0.000    0.000    0.000    0.000 
#
# Total GULP energy -496220.944474 kJ/mol
# GULP energy per Si atom -12405.523612 kJ/mol
# Density = 1.903449 g / cm^3
# Si number density = 19.077913 Si / 1000 Ang^3
#
#
#
# Elastic Constant Matrix: (Units=GPa)
#
#
# Indices 1 2 3 4 5 6 
#
# 1 109.0070 62.5489 43.6322 0.0000 0.0000 0.0000
# 2 62.5489 130.4802 51.6331 0.0000 0.0000 0.0000
# 3 43.6322 51.6331 103.7558 0.0000 0.0000 0.0000
# 4 0.0000 0.0000 0.0000 11.5061 0.0000 0.0000
# 5 0.0000 0.0000 0.0000 0.0000 22.7571 0.0000
# 6 0.0000 0.0000 0.0000 0.0000 0.0000 38.2447
#
#
#
# Elastic Compliance Matrix: (Units=1/GPa)
#
#
# Indices 1 2 3 4 5 6 
#
# 1 0.013379 -0.005214 -0.003032 0.000000 0.000000 0.000000
# 2 -0.005214 0.011575 -0.003568 0.000000 0.000000 0.000000
# 3 -0.003032 -0.003568 0.012688 0.000000 0.000000 0.000000
# 4 0.000000 0.000000 0.000000 0.086910 0.000000 0.000000
# 5 0.000000 0.000000 0.000000 0.000000 0.043942 0.000000
# 6 0.000000 0.000000 0.000000 0.000000 0.000000 0.026147
#
#
# Mechanical properties :
#
#
# Convention : Reuss Voigt Hill
#
# Bulk Modulus (GPa) = 71.34641 73.20792 72.27716
# Shear Modulus (GPa) = 22.42749 26.86351 24.64550
#
# Velocity S-wave (km/s) = 3.43238 3.75653 3.59811
# Velocity P-wave (km/s) = 7.29294 7.56781 7.43165
#
# Compressibility (1/GPa) = 0.01401612
#
# Stress axis : x y z
#
# Youngs Moduli (GPa) = 74.74440 86.39157 78.81267
#
# Poissons Ratio (x) = 0.45044 0.23893
# Poissons Ratio (y) = 0.38971 0.28118
# Poissons Ratio (z) = 0.22659 0.30822
#
# Static dielectric constant tensor:
#      x y z
#    x 3.555700 0.000000 0.000000 
#    y 0.000000 3.548630 0.000000 
#    z 0.000000 0.000000 3.658140 
# 
# 
# High freq. dielectric constant tensor:
#      x y z
#    x 1.748620 0.000000 0.000000 
#    y 0.000000 1.744890 0.000000 
#    z 0.000000 0.000000 1.745460 
# 
# From -- ./inp_files/59700.got.cif
#   From: 2010.03.12/outbox.cif.g09.slc.cpg/sg65_30_cif.got.tgz:59700.got - 2010.04.10 20:52:16.
