data_PCOD8273793
_publ_section_title
;
Structure prediction by ZEFSAII (Michael W. Deem and Ramdas Pophale) SiO2 
 PCOD8273793
Probable space group: C M M M
;
_chemical_formula_sum "Si O2"
_cell_formula_units_Z 96
_cell_length_a 29.165727
_cell_length_b 18.973948
_cell_length_c 9.163515
_cell_angle_alpha 90.000000
_cell_angle_beta 90.000000
_cell_angle_gamma 90.000000
_cell_volume 5070.988288
_symmetry_space_group_name_H-M "C M M M"
_symmetry_group_IT_number 65
_symmetry_cell_setting 'orthorhombic'
loop_
_space_group_symop_operation_xyz
x,y,z
-x,-y,z
x,-y,-z
-x,y,-z
-x,-y,-z
x,y,-z
-x,y,z
x,-y,z
1/2+x,1/2+y,z
1/2-x,1/2-y,z
1/2+x,1/2-y,-z
1/2-x,1/2+y,-z
1/2-x,1/2-y,-z
1/2+x,1/2+y,-z
1/2-x,1/2+y,z
1/2+x,1/2-y,z
loop_
_atom_site_type_symbol
_atom_site_label
_atom_site_fract_x
_atom_site_fract_y
_atom_site_fract_z
Si Si1 0.446147 0.079096 0.838525
Si Si2 0.447788 0.417602 0.331033
Si Si3 0.617057 0.827418 0.670205
Si Si4 0.703412 0.080561 0.327948
Si Si5 0.771299 0.175870 0.829441
Si Si6 0.122332 0.182834 0.828740
O O1 0.500000 0.081590 0.823977
O O2 0.426513 0.125258 0.707664
O O3 0.427979 0.000000 0.817419
O O4 0.431187 0.106451 0.000000
O O5 0.439179 0.399527 0.500000
O O6 0.500000 0.395958 0.288034
O O7 0.440638 0.500000 0.301674
O O8 0.410642 0.377055 0.234701
O O9 0.618798 0.810410 0.500000
O O10 0.661642 0.870152 0.723690
O O11 0.609729 0.756555 0.758196
O O12 0.710213 0.084689 0.500000
O O13 0.748744 0.109979 0.251818
O O14 0.694837 0.000000 0.278131
O O15 0.750000 0.250000 0.771549
O O16 0.824709 0.168217 0.792023
O O17 0.761232 0.169062 0.000000
O O18 0.113779 0.187130 0.000000
#
# Coordination Sequence:
#
# PCOD8273793 Si02
#       6
#    16  16  16  16  16  16
#     4   9  19  36  56  78 107 145 188 233 282 336
#     4   9  20  41  66  90 119 155 194 239 295 358
#     4  11  22  36  56  82 114 150 190 236 285 338
#     4  10  22  38  57  84 115 148 190 237 285 341
#     4  10  21  39  59  81 114 153 194 239 288 343
#     4  11  23  38  60  88 118 152 194 239 288 345
#
# _framework density 18.931221000000001
#
# number of rings (size 3 to 8) (size 9 to 14) (size 15 to 20)
#    0.000    2.000    1.667    2.500    0.000    6.000 
#    0.000    5.000    0.000    0.000    0.000    0.000 
#    0.000    0.000    0.000    0.000    0.000    0.000 
#
# Total GULP energy -595234.269787 kJ/mol
# GULP energy per Si atom -12400.713954 kJ/mol
# Density = 1.888813 g / cm^3
# Si number density = 18.931221 Si / 1000 Ang^3
#
#
#
# Elastic Constant Matrix: (Units=GPa)
#
#
# Indices 1 2 3 4 5 6 
#
# 1 98.5830 61.6659 55.9828 0.0000 0.0000 0.0000
# 2 61.6659 102.3401 47.9231 0.0000 0.0000 0.0000
# 3 55.9828 47.9231 64.5977 0.0000 0.0000 0.0000
# 4 0.0000 0.0000 0.0000 36.2143 0.0000 0.0000
# 5 0.0000 0.0000 0.0000 0.0000 36.8344 0.0000
# 6 0.0000 0.0000 0.0000 0.0000 0.0000 21.2159
#
#
#
# Elastic Compliance Matrix: (Units=1/GPa)
#
#
# Indices 1 2 3 4 5 6 
#
# 1 0.022729 -0.006852 -0.014615 0.000000 0.000000 0.000000
# 2 -0.006852 0.017039 -0.006702 0.000000 0.000000 0.000000
# 3 -0.014615 -0.006702 0.033118 0.000000 0.000000 0.000000
# 4 0.000000 0.000000 0.000000 0.027613 0.000000 0.000000
# 5 0.000000 0.000000 0.000000 0.000000 0.027148 0.000000
# 6 0.000000 0.000000 0.000000 0.000000 0.000000 0.047134
#
#
# Mechanical properties :
#
#
# Convention : Reuss Voigt Hill
#
# Bulk Modulus (GPa) = 60.42946 66.29604 63.36275
# Shear Modulus (GPa) = 21.12952 25.51618 23.32285
#
# Velocity S-wave (km/s) = 3.34446 3.67527 3.51376
# Velocity P-wave (km/s) = 6.84863 7.28736 7.07140
#
# Compressibility (1/GPa) = 0.01654822
#
# Stress axis : x y z
#
# Youngs Moduli (GPa) = 43.99645 58.69056 30.19490
#
# Poissons Ratio (x) = 0.40215 0.44129
# Poissons Ratio (y) = 0.30146 0.20237
# Poissons Ratio (z) = 0.64299 0.39335
#
# Static dielectric constant tensor:
#      x y z
#    x 3.476060 0.000000 0.000000 
#    y 0.000000 3.488800 0.000000 
#    z 0.000000 0.000000 3.461410 
# 
# 
# High freq. dielectric constant tensor:
#      x y z
#    x 1.740250 0.000000 0.000000 
#    y 0.000000 1.738700 0.000000 
#    z 0.000000 0.000000 1.734210 
# 
# From -- ./inp_files/16309.got.cif
#   From: 2010.03.12/outbox.cif.g09.slc.cpg/sg65_9_cif.got.tgz:16309.got - 2010.04.10 20:52:16.
