data_PCOD8273308
_publ_section_title
;
Structure prediction by ZEFSAII (Michael W. Deem and Ramdas Pophale) SiO2 
 PCOD8273308
Probable space group: C M M M
;
_chemical_formula_sum "Si O2"
_cell_formula_units_Z 80
_cell_length_a 26.190236
_cell_length_b 20.420811
_cell_length_c 7.389874
_cell_angle_alpha 90.000000
_cell_angle_beta 90.000000
_cell_angle_gamma 90.000000
_cell_volume 3952.295713
_symmetry_space_group_name_H-M "C M M M"
_symmetry_group_IT_number 65
_symmetry_cell_setting 'orthorhombic'
loop_
_space_group_symop_operation_xyz
x,y,z
-x,-y,z
x,-y,-z
-x,y,-z
-x,-y,-z
x,y,-z
-x,y,z
x,-y,z
1/2+x,1/2+y,z
1/2-x,1/2-y,z
1/2+x,1/2-y,-z
1/2-x,1/2+y,-z
1/2-x,1/2-y,-z
1/2+x,1/2+y,-z
1/2-x,1/2+y,z
1/2+x,1/2-y,z
loop_
_atom_site_type_symbol
_atom_site_label
_atom_site_fract_x
_atom_site_fract_y
_atom_site_fract_z
Si Si1 0.865902 0.925329 0.791374
Si Si2 0.556644 0.683310 0.213480
Si Si3 0.622895 0.807068 0.214500
Si Si4 0.443176 0.927447 0.785640
Si Si5 0.291346 0.193279 0.500000
Si Si6 0.282117 0.574960 0.500000
O O1 0.911708 0.879788 0.719402
O O2 0.815181 0.910245 0.678630
O O3 0.883841 0.000000 0.762794
O O4 0.852655 0.910212 0.000000
O O5 0.500000 0.681808 0.300811
O O6 0.585450 0.748794 0.274263
O O7 0.551506 0.681698 0.000000
O O8 0.596843 0.874072 0.285190
O O9 0.675925 0.798704 0.317829
O O10 0.633743 0.806855 0.000000
O O11 0.500000 0.912672 0.709471
O O12 0.425510 0.000000 0.722663
O O13 0.445418 0.923536 0.000000
O O14 0.250000 0.250000 0.500000
O O15 0.266499 0.121593 0.500000
O O16 0.262781 0.500000 0.500000
#
# Coordination Sequence:
#
# PCOD8273308 Si02
#       6
#    16  16  16  16   8   8
#     4   9  18  34  56  80 107 139 173 211 258 312
#     4   9  17  31  54  82 111 143 174 206 251 308
#     4  10  21  37  56  78 107 140 174 216 262 310
#     4   8  14  28  53  82 111 143 173 203 249 310
#     4  12  26  40  56  78 102 134 180 230 274 312
#     4  10  22  40  58  76 102 136 176 224 272 314
#
# _framework density 20.241399999999999
#
# number of rings (size 3 to 8) (size 9 to 14) (size 15 to 20)
#    0.000    2.600    0.000    2.400    0.000    4.800 
#    0.000    5.500    0.000    3.000    0.000    0.000 
#    0.000    0.000    0.000    0.000    0.000    0.000 
#
# Total GULP energy -495939.838481 kJ/mol
# GULP energy per Si atom -12398.495962 kJ/mol
# Density = 2.019533 g / cm^3
# Si number density = 20.241400 Si / 1000 Ang^3
#
#
#
# Elastic Constant Matrix: (Units=GPa)
#
#
# Indices 1 2 3 4 5 6 
#
# 1 121.6681 65.9669 37.8398 0.0000 0.0000 0.0000
# 2 65.9669 128.7281 27.9423 0.0000 0.0000 0.0000
# 3 37.8398 27.9423 73.0434 0.0000 0.0000 0.0000
# 4 0.0000 0.0000 0.0000 11.6371 0.0000 0.0000
# 5 0.0000 0.0000 0.0000 0.0000 -155.8319 0.0000
# 6 0.0000 0.0000 0.0000 0.0000 0.0000 44.7448
#
#
#
# Elastic Compliance Matrix: (Units=1/GPa)
#
#
# Indices 1 2 3 4 5 6 
#
# 1 0.012562 -0.005480 -0.004411 0.000000 0.000000 0.000000
# 2 -0.005480 0.010862 -0.001316 0.000000 0.000000 0.000000
# 3 -0.004411 -0.001316 0.016479 0.000000 0.000000 0.000000
# 4 0.000000 0.000000 0.000000 0.085932 0.000000 0.000000
# 5 0.000000 0.000000 0.000000 0.000000 -0.006417 0.000000
# 6 0.000000 0.000000 0.000000 0.000000 0.000000 0.022349
#
#
# Mechanical properties :
#
#
# Convention : Reuss Voigt Hill
#
# Bulk Modulus (GPa) = 57.18140 65.21529 61.19835
# Shear Modulus (GPa) = 29.40953 -7.11063 11.14945
#
# Velocity S-wave (km/s) = 3.81588 -1.87631 2.34951
# Velocity P-wave (km/s) = 6.90837 5.25306 6.13679
#
# Compressibility (1/GPa) = 0.01748820
#
# Stress axis : x y z
#
# Youngs Moduli (GPa) = 79.60353 92.06170 60.68174
#
# Poissons Ratio (x) = 0.50450 0.26770
# Poissons Ratio (y) = 0.43623 0.07988
# Poissons Ratio (z) = 0.35117 0.12119
#
# Static dielectric constant tensor:
#      x y z
#    x 3.628270 0.000000 0.000000 
#    y 0.000000 3.995600 0.000000 
#    z 0.000000 0.000000 3.493860 
# 
# 
# High freq. dielectric constant tensor:
#      x y z
#    x 1.774570 0.000000 0.000000 
#    y 0.000000 1.805570 0.000000 
#    z 0.000000 0.000000 1.783790 
# 
# From -- ./inp_files/13834.got.cif
#   From: 2010.03.12/outbox.cif.g09.slc.cpg/sg65_7_cif.got.tgz:13834.got - 2010.04.10 20:52:16.
