data_PCOD8273535
_publ_section_title
;
Structure prediction by ZEFSAII (Michael W. Deem and Ramdas Pophale) SiO2 
 PCOD8273535
Probable space group: C M M M
;
_chemical_formula_sum "Si O2"
_cell_formula_units_Z 64
_cell_length_a 14.027495
_cell_length_b 21.915159
_cell_length_c 10.207938
_cell_angle_alpha 90.000000
_cell_angle_beta 90.000000
_cell_angle_gamma 90.000000
_cell_volume 3138.071048
_symmetry_space_group_name_H-M "C M M M"
_symmetry_group_IT_number 65
_symmetry_cell_setting 'orthorhombic'
loop_
_space_group_symop_operation_xyz
x,y,z
-x,-y,z
x,-y,-z
-x,y,-z
-x,-y,-z
x,y,-z
-x,y,z
x,-y,z
1/2+x,1/2+y,z
1/2-x,1/2-y,z
1/2+x,1/2-y,-z
1/2-x,1/2+y,-z
1/2-x,1/2-y,-z
1/2+x,1/2+y,-z
1/2-x,1/2+y,z
1/2+x,1/2-y,z
loop_
_atom_site_type_symbol
_atom_site_label
_atom_site_fract_x
_atom_site_fract_y
_atom_site_fract_z
Si Si1 0.612700 0.567261 0.500000
Si Si2 0.391319 0.647018 0.257939
Si Si3 0.297821 0.874751 0.852299
Si Si4 0.608751 0.215086 0.351239
Si Si5 0.107486 0.500000 0.845399
O O1 0.659140 0.500000 0.500000
O O2 0.500000 0.563345 0.500000
O O3 0.645545 0.602933 0.627771
O O4 0.500000 0.633695 0.212064
O O5 0.317611 0.631010 0.141548
O O6 0.381632 0.715155 0.310184
O O7 0.332069 0.823857 0.751484
O O8 0.334695 0.940111 0.799842
O O9 0.336209 0.862393 0.000000
O O10 0.647289 0.206726 0.500000
O O11 0.500000 0.193390 0.343739
O O12 0.000000 0.500000 0.785533
O O13 0.100694 0.500000 0.000000
#
# Coordination Sequence:
#
# PCOD8273535 Si02
#       5
#     8  16  16  16   8
#     4   9  18  34  57  84 116 157 202 239 283 349
#     4  10  21  37  59  88 124 159 195 243 298 357
#     4  11  24  39  60  89 118 158 206 246 297 361
#     4  10  21  39  62  88 120 156 197 248 304 356
#     4   9  20  42  64  82 113 156 201 247 296 353
#
# _framework density 20.394693
#
# number of rings (size 3 to 8) (size 9 to 14) (size 15 to 20)
#    0.000    2.000    1.250    1.500    3.500    5.000 
#    0.000    3.125    0.000    4.500    0.000    0.000 
#    0.000    0.000    0.000    0.000    0.000    0.000 
#
# Total GULP energy -396657.935285 kJ/mol
# GULP energy per Si atom -12395.560478 kJ/mol
# Density = 2.034827 g / cm^3
# Si number density = 20.394693 Si / 1000 Ang^3
#
#
#
# Elastic Constant Matrix: (Units=GPa)
#
#
# Indices 1 2 3 4 5 6 
#
# 1 122.0184 49.6301 38.7870 0.0000 0.0000 0.0000
# 2 49.6301 114.1377 32.1099 0.0000 0.0000 0.0000
# 3 38.7870 32.1099 69.8980 0.0000 0.0000 0.0000
# 4 0.0000 0.0000 0.0000 157.6387 0.0000 0.0000
# 5 0.0000 0.0000 0.0000 0.0000 28.1544 0.0000
# 6 0.0000 0.0000 0.0000 0.0000 0.0000 15.3462
#
#
#
# Elastic Compliance Matrix: (Units=1/GPa)
#
#
# Indices 1 2 3 4 5 6 
#
# 1 0.011073 -0.003544 -0.004516 0.000000 0.000000 0.000000
# 2 -0.003544 0.011196 -0.003177 0.000000 0.000000 0.000000
# 3 -0.004516 -0.003177 0.018272 0.000000 0.000000 0.000000
# 4 0.000000 0.000000 0.000000 0.006344 0.000000 0.000000
# 5 0.000000 0.000000 0.000000 0.000000 0.035518 0.000000
# 6 0.000000 0.000000 0.000000 0.000000 0.000000 0.065163
#
#
# Mechanical properties :
#
#
# Convention : Reuss Voigt Hill
#
# Bulk Modulus (GPa) = 55.35031 60.78981 58.07006
# Shear Modulus (GPa) = 28.39919 52.59634 40.49777
#
# Velocity S-wave (km/s) = 3.73564 5.08382 4.46095
# Velocity P-wave (km/s) = 6.76795 8.02070 7.42081
#
# Compressibility (1/GPa) = 0.01806675
#
# Stress axis : x y z
#
# Youngs Moduli (GPa) = 90.31271 89.31681 54.72885
#
# Poissons Ratio (x) = 0.31655 0.24717
# Poissons Ratio (y) = 0.32008 0.17385
# Poissons Ratio (z) = 0.40787 0.28372
#
# Static dielectric constant tensor:
#      x y z
#    x 3.944140 0.000000 0.000000 
#    y 0.000000 3.945740 0.000000 
#    z 0.000000 0.000000 3.480880 
# 
# 
# High freq. dielectric constant tensor:
#      x y z
#    x 1.803200 0.000000 0.000000 
#    y 0.000000 1.802860 0.000000 
#    z 0.000000 0.000000 1.776830 
# 
# From -- ./inp_files/6753.got.cif
#   From: 2010.03.12/outbox.cif.g09.slc.cpg/sg65_4_cif.got.tgz:6753.got - 2010.04.10 20:52:16.
