data_PCOD8273265
_publ_section_title
;
Structure prediction by ZEFSAII (Michael W. Deem and Ramdas Pophale) SiO2 
 PCOD8273265
Probable space group: C M M M
;
_chemical_formula_sum "Si O2"
_cell_formula_units_Z 104
_cell_length_a 28.922768
_cell_length_b 8.512781
_cell_length_c 22.794906
_cell_angle_alpha 90.000000
_cell_angle_beta 90.000000
_cell_angle_gamma 90.000000
_cell_volume 5612.406520
_symmetry_space_group_name_H-M "C M M M"
_symmetry_group_IT_number 65
_symmetry_cell_setting 'orthorhombic'
loop_
_space_group_symop_operation_xyz
x,y,z
-x,-y,z
x,-y,-z
-x,y,-z
-x,-y,-z
x,y,-z
-x,y,z
x,-y,z
1/2+x,1/2+y,z
1/2-x,1/2-y,z
1/2+x,1/2-y,-z
1/2-x,1/2+y,-z
1/2-x,1/2-y,-z
1/2+x,1/2+y,-z
1/2-x,1/2+y,z
1/2+x,1/2-y,z
loop_
_atom_site_type_symbol
_atom_site_label
_atom_site_fract_x
_atom_site_fract_y
_atom_site_fract_z
Si Si1 0.550216 0.186366 0.650801
Si Si2 0.646074 0.814798 0.829596
Si Si3 0.301262 0.314820 0.720653
Si Si4 0.300788 0.682262 0.500000
Si Si5 0.799555 0.184169 0.067568
Si Si6 0.853404 0.684704 0.610032
Si Si7 0.949796 0.313756 0.217632
O O1 0.500000 0.242766 0.625749
O O2 0.592822 0.242045 0.610160
O O3 0.557004 0.253256 0.716578
O O4 0.551229 0.000000 0.654313
O O5 0.678773 0.723264 0.784526
O O6 0.660975 0.770456 0.895193
O O7 0.592915 0.756342 0.822311
O O8 0.651006 0.000000 0.818415
O O9 0.301493 0.500000 0.709299
O O10 0.250000 0.250000 0.715773
O O11 0.331757 0.227892 0.672246
O O12 0.294323 0.500000 0.500000
O O13 0.250000 0.750000 0.500000
O O14 0.328031 0.729756 0.442281
O O15 0.750000 0.250000 0.087157
O O16 0.800579 0.000000 0.079844
O O17 0.809537 0.224722 0.000000
O O18 0.849168 0.500000 0.599752
O O19 0.949784 0.500000 0.219983
O O20 0.000000 0.255419 0.192953
#
# Coordination Sequence:
#
# PCOD8273265 Si02
#       7
#    16  16  16   8  16  16  16
#     4   8  14  28  54  85 113 140 175 219 265 317
#     4  11  20  33  55  83 111 141 180 226 273 321
#     4  12  24  37  53  77 111 145 179 222 274 327
#     4  12  26  44  61  80 107 145 188 227 273 328
#     4  10  21  37  55  76 106 145 186 227 272 326
#     4  11  21  38  61  85 110 141 183 227 272 320
#     4   8  14  27  50  81 112 141 175 218 266 316
#
# _framework density 18.530376
#
# number of rings (size 3 to 8) (size 9 to 14) (size 15 to 20)
#    0.000    1.846    1.538    5.308    0.000    0.923 
#    0.000    0.385    0.000    7.385    0.000    3.231 
#    0.000    0.000    0.000    0.000    0.000    0.000 
#
# Total GULP energy -644648.247875 kJ/mol
# GULP energy per Si atom -12397.081690 kJ/mol
# Density = 1.848820 g / cm^3
# Si number density = 18.530376 Si / 1000 Ang^3
#
#
#
# Elastic Constant Matrix: (Units=GPa)
#
#
# Indices 1 2 3 4 5 6 
#
# 1 181.7660 40.6013 61.4311 0.0000 0.0000 0.0000
# 2 40.6013 62.8257 20.0885 0.0000 0.0000 0.0000
# 3 61.4311 20.0885 83.1896 0.0000 0.0000 0.0000
# 4 0.0000 0.0000 0.0000 30.9688 0.0000 0.0000
# 5 0.0000 0.0000 0.0000 0.0000 21.5772 0.0000
# 6 0.0000 0.0000 0.0000 0.0000 0.0000 17.2118
#
#
#
# Elastic Compliance Matrix: (Units=1/GPa)
#
#
# Indices 1 2 3 4 5 6 
#
# 1 0.008003 -0.003557 -0.005051 0.000000 0.000000 0.000000
# 2 -0.003557 0.018830 -0.001920 0.000000 0.000000 0.000000
# 3 -0.005051 -0.001920 0.016214 0.000000 0.000000 0.000000
# 4 0.000000 0.000000 0.000000 0.032291 0.000000 0.000000
# 5 0.000000 0.000000 0.000000 0.000000 0.046345 0.000000
# 6 0.000000 0.000000 0.000000 0.000000 0.000000 0.058100
#
#
# Mechanical properties :
#
#
# Convention : Reuss Voigt Hill
#
# Bulk Modulus (GPa) = 45.47384 63.55813 54.51599
# Shear Modulus (GPa) = 24.01885 27.66224 25.84055
#
# Velocity S-wave (km/s) = 3.60417 3.86788 3.73835
# Velocity P-wave (km/s) = 6.47406 7.37029 6.93666
#
# Compressibility (1/GPa) = 0.02199066
#
# Stress axis : x y z
#
# Youngs Moduli (GPa) = 124.95021 53.10726 61.67383
#
# Poissons Ratio (x) = 0.18890 0.31151
# Poissons Ratio (y) = 0.44445 0.11843
# Poissons Ratio (z) = 0.63112 0.10198
#
# Static dielectric constant tensor:
#      x y z
#    x 3.657380 0.000000 0.000000 
#    y 0.000000 3.253630 0.000000 
#    z 0.000000 0.000000 2.700810 
# 
# 
# High freq. dielectric constant tensor:
#      x y z
#    x 1.737170 0.000000 0.000000 
#    y 0.000000 1.703900 0.000000 
#    z 0.000000 0.000000 1.698510 
# 
# From -- ./inp_files/65927.got.cif
#   From: 2010.03.12/outbox.cif.g09.slc.cpg/sg65_33_cif.got.tgz:65927.got - 2010.04.10 20:52:16.
