data_PCOD8273149
_publ_section_title
;
Structure prediction by ZEFSAII (Michael W. Deem and Ramdas Pophale) SiO2 
 PCOD8273149
Probable space group: C M M M
;
_chemical_formula_sum "Si O2"
_cell_formula_units_Z 104
_cell_length_a 23.746889
_cell_length_b 25.989002
_cell_length_c 8.934052
_cell_angle_alpha 90.000000
_cell_angle_beta 90.000000
_cell_angle_gamma 90.000000
_cell_volume 5513.721179
_symmetry_space_group_name_H-M "C M M M"
_symmetry_group_IT_number 65
_symmetry_cell_setting 'orthorhombic'
loop_
_space_group_symop_operation_xyz
x,y,z
-x,-y,z
x,-y,-z
-x,y,-z
-x,-y,-z
x,y,-z
-x,y,z
x,-y,z
1/2+x,1/2+y,z
1/2-x,1/2-y,z
1/2+x,1/2-y,-z
1/2-x,1/2+y,-z
1/2-x,1/2-y,-z
1/2+x,1/2+y,-z
1/2-x,1/2+y,z
1/2+x,1/2-y,z
loop_
_atom_site_type_symbol
_atom_site_label
_atom_site_fract_x
_atom_site_fract_y
_atom_site_fract_z
Si Si1 0.065003 0.389071 0.322979
Si Si2 0.639763 0.440699 0.323987
Si Si3 0.761296 0.130686 0.668799
Si Si4 0.841860 0.325200 0.823986
Si Si5 0.434354 0.357074 0.824454
Si Si6 0.933449 0.500000 0.336575
Si Si7 0.147757 0.781613 0.329084
O O1 0.077211 0.386044 0.500000
O O2 0.098945 0.346501 0.233534
O O3 0.083205 0.445938 0.257900
O O4 0.000000 0.377917 0.289537
O O5 0.629166 0.432676 0.500000
O O6 0.637047 0.500000 0.275835
O O7 0.701466 0.418566 0.281769
O O8 0.591192 0.410228 0.237419
O O9 0.738682 0.123657 0.500000
O O10 0.708062 0.136042 0.777198
O O11 0.799437 0.180947 0.680772
O O12 0.832470 0.269631 0.752969
O O13 0.843084 0.319590 0.000000
O O14 0.500000 0.356355 0.785560
O O15 0.406359 0.307265 0.748600
O O16 0.422792 0.354199 0.000000
O O17 0.904897 0.500000 0.500000
O O18 0.000000 0.500000 0.358697
O O19 0.131721 0.769119 0.500000
#
# Coordination Sequence:
#
# PCOD8273149 Si02
#       7
#    16  16  16  16  16   8  16
#     4   9  18  35  58  80 103 135 177 222 266 313
#     4   9  19  37  60  84 111 147 191 237 280 320
#     4   9  19  37  58  79 105 138 183 231 273 320
#     4  12  24  35  52  81 114 145 177 217 271 334
#     4  10  21  36  55  83 118 152 185 224 277 338
#     4   7  12  28  55  79  95 121 167 215 254 295
#     4  10  21  38  60  80 103 140 185 232 275 318
#
# _framework density 18.862034000000001
#
# number of rings (size 3 to 8) (size 9 to 14) (size 15 to 20)
#    0.000    2.385    0.000    4.615    0.000    7.692 
#    1.385    1.923    0.000    1.385    0.000    0.000 
#    0.000    0.000    0.000    0.000    0.000    0.000 
#
# Total GULP energy -644709.239462 kJ/mol
# GULP energy per Si atom -12398.254605 kJ/mol
# Density = 1.881910 g / cm^3
# Si number density = 18.862034 Si / 1000 Ang^3
#
#
#
# Elastic Constant Matrix: (Units=GPa)
#
#
# Indices 1 2 3 4 5 6 
#
# 1 91.8048 25.1587 48.5371 0.0000 0.0000 0.0000
# 2 25.1587 49.6450 24.6558 0.0000 0.0000 0.0000
# 3 48.5371 24.6558 97.5248 0.0000 0.0000 0.0000
# 4 0.0000 0.0000 0.0000 15.7889 0.0000 0.0000
# 5 0.0000 0.0000 0.0000 0.0000 19.9561 0.0000
# 6 0.0000 0.0000 0.0000 0.0000 0.0000 16.5865
#
#
#
# Elastic Compliance Matrix: (Units=1/GPa)
#
#
# Indices 1 2 3 4 5 6 
#
# 1 0.015668 -0.004652 -0.006622 0.000000 0.000000 0.000000
# 2 -0.004652 0.024416 -0.003858 0.000000 0.000000 0.000000
# 3 -0.006622 -0.003858 0.014525 0.000000 0.000000 0.000000
# 4 0.000000 0.000000 0.000000 0.063336 0.000000 0.000000
# 5 0.000000 0.000000 0.000000 0.000000 0.050110 0.000000
# 6 0.000000 0.000000 0.000000 0.000000 0.000000 0.060290
#
#
# Mechanical properties :
#
#
# Convention : Reuss Voigt Hill
#
# Bulk Modulus (GPa) = 41.07321 48.40864 44.74093
# Shear Modulus (GPa) = 18.74601 19.84117 19.29359
#
# Velocity S-wave (km/s) = 3.15596 3.24684 3.20172
# Velocity P-wave (km/s) = 5.92477 6.30684 6.11879
#
# Compressibility (1/GPa) = 0.02434677
#
# Stress axis : x y z
#
# Youngs Moduli (GPa) = 63.82235 40.95641 68.84752
#
# Poissons Ratio (x) = 0.19051 0.45591
# Poissons Ratio (y) = 0.29687 0.26560
# Poissons Ratio (z) = 0.42264 0.15800
#
# Static dielectric constant tensor:
#      x y z
#    x 3.355660 0.000000 0.000000 
#    y 0.000000 3.655310 0.000000 
#    z 0.000000 0.000000 3.347480 
# 
# 
# High freq. dielectric constant tensor:
#      x y z
#    x 1.726910 0.000000 0.000000 
#    y 0.000000 1.739430 0.000000 
#    z 0.000000 0.000000 1.719800 
# 
# From -- ./inp_files/12430.got.cif
#   From: 2010.03.12/outbox.cif.g09.slc.cpg/sg65_7_cif.got.tgz:12430.got - 2010.04.10 20:52:16.
