data_PCOD8273895
_publ_section_title
;
Structure prediction by ZEFSAII (Michael W. Deem and Ramdas Pophale) SiO2 
 PCOD8273895
Probable space group: C M M M
;
_chemical_formula_sum "Si O2"
_cell_formula_units_Z 66
_cell_length_a 8.611785
_cell_length_b 15.470557
_cell_length_c 25.614668
_cell_angle_alpha 90.000000
_cell_angle_beta 90.000000
_cell_angle_gamma 90.000000
_cell_volume 3412.619439
_symmetry_space_group_name_H-M "C M M M"
_symmetry_group_IT_number 65
_symmetry_cell_setting 'orthorhombic'
loop_
_space_group_symop_operation_xyz
x,y,z
-x,-y,z
x,-y,-z
-x,y,-z
-x,-y,-z
x,y,-z
-x,y,z
x,-y,z
1/2+x,1/2+y,z
1/2-x,1/2-y,z
1/2+x,1/2-y,-z
1/2-x,1/2+y,-z
1/2-x,1/2-y,-z
1/2+x,1/2+y,-z
1/2-x,1/2+y,z
1/2+x,1/2-y,z
loop_
_atom_site_type_symbol
_atom_site_label
_atom_site_fract_x
_atom_site_fract_y
_atom_site_fract_z
Si Si1 0.683736 0.339913 0.373853
Si Si2 0.500000 0.000000 0.000000
Si Si3 0.815102 0.000000 0.441303
Si Si4 0.182879 0.600074 0.733815
Si Si5 0.683875 0.659930 0.158149
Si Si6 0.831621 0.500000 0.104039
O O1 0.500000 0.337221 0.374433
O O2 0.750000 0.250000 0.395734
O O3 0.747836 0.415630 0.411270
O O4 0.740607 0.354410 0.315377
O O5 0.359472 0.000000 0.957891
O O6 0.748256 0.000000 0.500000
O O7 0.000000 0.000000 0.441897
O O8 0.230907 0.500000 0.735227
O O9 0.249159 0.646217 0.784460
O O10 0.000000 0.613395 0.730989
O O11 0.500000 0.663140 0.160339
O O12 0.750000 0.750000 0.135663
O O13 0.736293 0.584894 0.119168
O O14 0.000000 0.500000 0.134272
#
# Coordination Sequence:
#
# PCOD8273895 Si02
#       6
#    16   2   8  16  16   8
#     4  11  22  38  60  86 121 158 202 253 308 373
#     4   8  24  44  78  88 132 166 214 268 318 360
#     4   9  20  39  61  83 111 154 205 256 311 369
#     4  11  22  37  60  91 127 167 203 249 309 376
#     4  12  24  39  65  98 133 169 210 256 310 377
#     4  10  21  44  68  93 125 165 208 261 314 358
#
# _framework density 19.339981999999999
#
# number of rings (size 3 to 8) (size 9 to 14) (size 15 to 20)
#    0.364    0.848    2.424    4.727    0.000    1.455 
#    0.000    1.818    0.000    5.091    0.000    0.000 
#    0.000    0.000    0.000    0.000    0.000    0.000 
#
# Total GULP energy -408813.585792 kJ/mol
# GULP energy per Si atom -12388.290479 kJ/mol
# Density = 1.929596 g / cm^3
# Si number density = 19.339982 Si / 1000 Ang^3
#
#
#
# Elastic Constant Matrix: (Units=GPa)
#
#
# Indices 1 2 3 4 5 6 
#
# 1 43.5830 32.5260 -2.1001 0.0000 0.0000 0.0000
# 2 32.5260 170.5951 52.1519 0.0000 0.0000 0.0000
# 3 -2.1001 52.1519 121.4207 0.0000 0.0000 0.0000
# 4 0.0000 0.0000 0.0000 0.6325 0.0000 0.0000
# 5 0.0000 0.0000 0.0000 0.0000 163.3869 0.0000
# 6 0.0000 0.0000 0.0000 0.0000 0.0000 33.3436
#
#
#
# Elastic Compliance Matrix: (Units=1/GPa)
#
#
# Indices 1 2 3 4 5 6 
#
# 1 0.027773 -0.006265 0.003171 0.000000 0.000000 0.000000
# 2 -0.006265 0.008161 -0.003614 0.000000 0.000000 0.000000
# 3 0.003171 -0.003614 0.009843 0.000000 0.000000 0.000000
# 4 0.000000 0.000000 0.000000 1.580930 0.000000 0.000000
# 5 0.000000 0.000000 0.000000 0.000000 0.006120 0.000000
# 6 0.000000 0.000000 0.000000 0.000000 0.000000 0.029991
#
#
# Mechanical properties :
#
#
# Convention : Reuss Voigt Hill
#
# Bulk Modulus (GPa) = 30.90016 55.63938 43.26977
# Shear Modulus (GPa) = 2.96381 56.34067 29.65224
#
# Velocity S-wave (km/s) = 1.23928 5.40324 3.91987
# Velocity P-wave (km/s) = 4.24968 8.23153 6.55049
#
# Compressibility (1/GPa) = 0.03236229
#
# Stress axis : x y z
#
# Youngs Moduli (GPa) = 36.00637 122.53453 101.59750
#
# Poissons Ratio (x) = 0.76764 -0.32218
# Poissons Ratio (y) = 0.22557 0.36713
# Poissons Ratio (z) = -0.11418 0.44279
#
# Static dielectric constant tensor:
#      x y z
#    x 3.540060 0.000000 0.000000 
#    y 0.000000 3.887110 0.000000 
#    z 0.000000 0.000000 3.462500 
# 
# 
# High freq. dielectric constant tensor:
#      x y z
#    x 1.758890 0.000000 0.000000 
#    y 0.000000 1.764900 0.000000 
#    z 0.000000 0.000000 1.742480 
# 
# From -- ./inp_files/72438.got.cif
#   From: 2010.03.12/outbox.cif.g09.slc.cpg/sg65_37_cif.got.tgz:72438.got - 2010.04.10 20:52:16.
