data_PCOD8273216
_publ_section_title
;
Structure prediction by ZEFSAII (Michael W. Deem and Ramdas Pophale) SiO2 
 PCOD8273216
Probable space group: C M M M
;
_chemical_formula_sum "Si O2"
_cell_formula_units_Z 64
_cell_length_a 10.296637
_cell_length_b 35.542204
_cell_length_c 8.874701
_cell_angle_alpha 90.000000
_cell_angle_beta 90.000000
_cell_angle_gamma 90.000000
_cell_volume 3247.831485
_symmetry_space_group_name_H-M "C M M M"
_symmetry_group_IT_number 65
_symmetry_cell_setting 'orthorhombic'
loop_
_space_group_symop_operation_xyz
x,y,z
-x,-y,z
x,-y,-z
-x,y,-z
-x,-y,-z
x,y,-z
-x,y,z
x,-y,z
1/2+x,1/2+y,z
1/2-x,1/2-y,z
1/2+x,1/2-y,-z
1/2-x,1/2+y,-z
1/2-x,1/2-y,-z
1/2+x,1/2+y,-z
1/2-x,1/2+y,z
1/2+x,1/2-y,z
loop_
_atom_site_type_symbol
_atom_site_label
_atom_site_fract_x
_atom_site_fract_y
_atom_site_fract_z
Si Si1 0.500000 0.414890 0.174540
Si Si2 0.500000 0.665346 0.322166
Si Si3 0.500000 0.166927 0.822554
Si Si4 0.500000 0.914431 0.322858
Si Si5 0.264510 0.043813 0.825464
Si Si6 0.741561 0.205886 0.324628
O O1 0.500000 0.377276 0.270054
O O2 0.625338 0.439222 0.217237
O O3 0.500000 0.403775 0.000000
O O4 0.500000 0.666591 0.500000
O O5 0.372884 0.686850 0.262512
O O6 0.500000 0.125898 0.752706
O O7 0.374446 0.189641 0.772435
O O8 0.500000 0.162474 0.000000
O O9 0.500000 0.908730 0.500000
O O10 0.372491 0.937030 0.276403
O O11 0.260826 0.000000 0.787356
O O12 0.298602 0.050889 0.000000
O O13 0.717019 0.196701 0.500000
O O14 0.750000 0.250000 0.296653
#
# Coordination Sequence:
#
# PCOD8273216 Si02
#       6
#     8   8   8   8  16  16
#     4  10  21  37  59  86 116 152 191 232 285 349
#     4  10  21  36  58  87 115 148 193 242 291 345
#     4  12  25  40  60  88 121 157 199 244 291 343
#     4  12  25  40  59  85 118 156 199 242 289 347
#     4  10  21  39  62  87 116 151 192 239 293 352
#     4  10  21  40  64  88 117 155 197 241 293 351
#
# _framework density 19.705454
#
# number of rings (size 3 to 8) (size 9 to 14) (size 15 to 20)
#    0.000    1.500    0.000    5.250    0.000   12.000 
#    0.000    1.250    0.000    2.250    0.000    0.000 
#    0.000    0.000    0.000    0.000    0.000    0.000 
#
# Total GULP energy -396977.924555 kJ/mol
# GULP energy per Si atom -12405.560142 kJ/mol
# Density = 1.966060 g / cm^3
# Si number density = 19.705454 Si / 1000 Ang^3
#
#
#
# Elastic Constant Matrix: (Units=GPa)
#
#
# Indices 1 2 3 4 5 6 
#
# 1 180.9592 69.3827 68.6609 0.0000 0.0000 0.0000
# 2 69.3827 132.5761 53.8138 0.0000 0.0000 0.0000
# 3 68.6609 53.8138 86.3459 0.0000 0.0000 0.0000
# 4 0.0000 0.0000 0.0000 37.3825 0.0000 0.0000
# 5 0.0000 0.0000 0.0000 0.0000 -331.4802 0.0000
# 6 0.0000 0.0000 0.0000 0.0000 0.0000 37.3970
#
#
#
# Elastic Compliance Matrix: (Units=1/GPa)
#
#
# Indices 1 2 3 4 5 6 
#
# 1 0.008388 -0.002252 -0.005266 0.000000 0.000000 0.000000
# 2 -0.002252 0.010702 -0.004879 0.000000 0.000000 0.000000
# 3 -0.005266 -0.004879 0.018810 0.000000 0.000000 0.000000
# 4 0.000000 0.000000 0.000000 0.026750 0.000000 0.000000
# 5 0.000000 0.000000 0.000000 0.000000 -0.003017 0.000000
# 6 0.000000 0.000000 0.000000 0.000000 0.000000 0.026740
#
#
# Mechanical properties :
#
#
# Convention : Reuss Voigt Hill
#
# Bulk Modulus (GPa) = 76.30810 87.06621 81.68715
# Shear Modulus (GPa) = 42.54018 -37.47190 2.53414
#
# Velocity S-wave (km/s) = 4.65133 -4.36547 1.13525
# Velocity P-wave (km/s) = 8.22526 4.34396 6.57742
#
# Compressibility (1/GPa) = 0.01310477
#
# Stress axis : x y z
#
# Youngs Moduli (GPa) = 119.22168 93.44176 53.16403
#
# Poissons Ratio (x) = 0.21044 0.27997
# Poissons Ratio (y) = 0.26849 0.25939
# Poissons Ratio (z) = 0.62785 0.45590
#
# Static dielectric constant tensor:
#      x y z
#    x 3.897080 0.000000 0.000000 
#    y 0.000000 3.744910 0.000000 
#    z 0.000000 0.000000 3.497880 
# 
# 
# High freq. dielectric constant tensor:
#      x y z
#    x 1.790490 0.000000 0.000000 
#    y 0.000000 1.787810 0.000000 
#    z 0.000000 0.000000 1.756510 
# 
# From -- ./inp_files/5039.got.cif
#   From: 2010.03.12/outbox.cif.g09.slc.cpg/sg65_3_cif.got.tgz:5039.got - 2010.04.10 20:52:16.
