data_PCOD8273276
_publ_section_title
;
Structure prediction by ZEFSAII (Michael W. Deem and Ramdas Pophale) SiO2 
 PCOD8273276
Probable space group: C M M M
;
_chemical_formula_sum "Si O2"
_cell_formula_units_Z 80
_cell_length_a 8.719201
_cell_length_b 17.762374
_cell_length_c 25.923130
_cell_angle_alpha 90.000000
_cell_angle_beta 90.000000
_cell_angle_gamma 90.000000
_cell_volume 4014.811296
_symmetry_space_group_name_H-M "C M M M"
_symmetry_group_IT_number 65
_symmetry_cell_setting 'orthorhombic'
loop_
_space_group_symop_operation_xyz
x,y,z
-x,-y,z
x,-y,-z
-x,y,-z
-x,-y,-z
x,y,-z
-x,y,z
x,-y,z
1/2+x,1/2+y,z
1/2-x,1/2-y,z
1/2+x,1/2-y,-z
1/2-x,1/2+y,-z
1/2-x,1/2-y,-z
1/2+x,1/2+y,-z
1/2-x,1/2+y,z
1/2+x,1/2-y,z
loop_
_atom_site_type_symbol
_atom_site_label
_atom_site_fract_x
_atom_site_fract_y
_atom_site_fract_z
Si Si1 0.818688 0.168284 0.692096
Si Si2 0.325008 0.911305 0.402989
Si Si3 0.819785 0.668697 0.000000
Si Si4 0.680628 0.331960 0.500000
Si Si5 0.819417 0.413495 0.787103
Si Si6 0.319447 0.832010 0.110965
O O1 0.750000 0.250000 0.681480
O O2 0.751705 0.110400 0.650790
O O3 0.773282 0.139186 0.748371
O O4 0.000000 0.172572 0.686941
O O5 0.500000 0.882474 0.404171
O O6 0.232642 0.875264 0.449419
O O7 0.317325 0.000000 0.409260
O O8 0.750000 0.750000 0.000000
O O9 0.768705 0.631597 0.945068
O O10 0.000000 0.676142 0.000000
O O11 0.500000 0.325542 0.500000
O O12 0.750000 0.250000 0.500000
O O13 0.773051 0.500000 0.778657
O O14 0.767906 0.389571 0.844601
O O15 0.000000 0.401389 0.778076
O O16 0.500000 0.820902 0.112601
O O17 0.250000 0.750000 0.120759
#
# Coordination Sequence:
#
# PCOD8273276 Si02
#       6
#    16  16   8   8  16  16
#     4  12  25  41  62  87 115 148 190 237 285 339
#     4  11  24  43  66  92 124 159 194 236 288 341
#     4   8  14  26  45  71 101 133 175 224 273 326
#     4  12  25  42  65  93 127 163 203 246 285 332
#     4  10  21  37  55  78 111 148 185 229 283 339
#     4   9  17  30  50  75 103 138 180 227 277 330
#
# _framework density 19.926217000000001
#
# number of rings (size 3 to 8) (size 9 to 14) (size 15 to 20)
#    0.000    1.600    0.000    5.400    0.000    8.000 
#    0.000    0.500    0.000    3.000    0.000    0.000 
#    0.000    9.600    0.000    0.000    0.000    0.000 
#
# Total GULP energy -495902.099243 kJ/mol
# GULP energy per Si atom -12397.552481 kJ/mol
# Density = 1.988086 g / cm^3
# Si number density = 19.926217 Si / 1000 Ang^3
#
#
#
# Elastic Constant Matrix: (Units=GPa)
#
#
# Indices 1 2 3 4 5 6 
#
# 1 114.1283 39.2881 49.6987 0.0000 0.0000 0.0000
# 2 39.2881 74.9505 30.9169 0.0000 0.0000 0.0000
# 3 49.6987 30.9169 141.8373 0.0000 0.0000 0.0000
# 4 0.0000 0.0000 0.0000 37.7087 0.0000 0.0000
# 5 0.0000 0.0000 0.0000 0.0000 70.5692 0.0000
# 6 0.0000 0.0000 0.0000 0.0000 0.0000 26.9347
#
#
#
# Elastic Compliance Matrix: (Units=1/GPa)
#
#
# Indices 1 2 3 4 5 6 
#
# 1 0.011786 -0.004917 -0.003058 0.000000 0.000000 0.000000
# 2 -0.004917 0.016711 -0.001920 0.000000 0.000000 0.000000
# 3 -0.003058 -0.001920 0.008540 0.000000 0.000000 0.000000
# 4 0.000000 0.000000 0.000000 0.026519 0.000000 0.000000
# 5 0.000000 0.000000 0.000000 0.000000 0.014170 0.000000
# 6 0.000000 0.000000 0.000000 0.000000 0.000000 0.037127
#
#
# Mechanical properties :
#
#
# Convention : Reuss Voigt Hill
#
# Bulk Modulus (GPa) = 57.97579 63.41373 60.69476
# Shear Modulus (GPa) = 35.61418 41.11001 38.36210
#
# Velocity S-wave (km/s) = 4.23224 4.54708 4.39248
# Velocity P-wave (km/s) = 7.28291 7.71111 7.50007
#
# Compressibility (1/GPa) = 0.01724858
#
# Stress axis : x y z
#
# Youngs Moduli (GPa) = 84.84399 59.83942 117.09130
#
# Poissons Ratio (x) = 0.29422 0.35808
# Poissons Ratio (y) = 0.41716 0.22480
# Poissons Ratio (z) = 0.25946 0.11488
#
# Static dielectric constant tensor:
#      x y z
#    x 3.731750 0.000000 0.000000 
#    y 0.000000 3.526370 0.000000 
#    z 0.000000 0.000000 3.535620 
# 
# 
# High freq. dielectric constant tensor:
#      x y z
#    x 1.777470 0.000000 0.000000 
#    y 0.000000 1.766190 0.000000 
#    z 0.000000 0.000000 1.806010 
# 
# From -- ./inp_files/72883.got.cif
#   From: 2010.03.12/outbox.cif.g09.slc.cpg/sg65_37_cif.got.tgz:72883.got - 2010.04.10 20:52:16.
