data_PCOD8273781
_publ_section_title
;
Structure prediction by ZEFSAII (Michael W. Deem and Ramdas Pophale) SiO2 
 PCOD8273781
Probable space group: C M M M
;
_chemical_formula_sum "Si O2"
_cell_formula_units_Z 96
_cell_length_a 14.942795
_cell_length_b 14.273294
_cell_length_c 22.754931
_cell_angle_alpha 90.000000
_cell_angle_beta 90.000000
_cell_angle_gamma 90.000000
_cell_volume 4853.237814
_symmetry_space_group_name_H-M "C M M M"
_symmetry_group_IT_number 65
_symmetry_cell_setting 'orthorhombic'
loop_
_space_group_symop_operation_xyz
x,y,z
-x,-y,z
x,-y,-z
-x,y,-z
-x,-y,-z
x,y,-z
-x,y,z
x,-y,z
1/2+x,1/2+y,z
1/2-x,1/2-y,z
1/2+x,1/2-y,-z
1/2-x,1/2+y,-z
1/2-x,1/2-y,-z
1/2+x,1/2+y,-z
1/2-x,1/2+y,z
1/2+x,1/2-y,z
loop_
_atom_site_type_symbol
_atom_site_label
_atom_site_fract_x
_atom_site_fract_y
_atom_site_fract_z
Si Si1 0.863993 0.900045 0.653899
Si Si2 0.104479 0.247415 0.069474
Si Si3 0.289060 0.105444 0.566491
Si Si4 0.904858 0.300272 0.337456
Si Si5 0.253013 0.888515 0.884195
Si Si6 0.214571 0.603304 0.750810
O O1 0.809940 0.892085 0.592921
O O2 0.926745 0.810525 0.659673
O O3 0.799939 0.899161 0.709801
O O4 0.916758 0.000000 0.653757
O O5 0.160255 0.157408 0.092972
O O6 0.158060 0.342251 0.087115
O O7 0.000000 0.248331 0.092529
O O8 0.103116 0.240624 0.000000
O O9 0.286696 0.143261 0.500000
O O10 0.350996 0.172262 0.604799
O O11 0.327709 0.000000 0.569310
O O12 0.855371 0.323627 0.276636
O O13 0.000000 0.352607 0.337758
O O14 0.257036 0.864928 0.815317
O O15 0.252068 0.000000 0.897539
O O16 0.169947 0.500000 0.752674
#
# Coordination Sequence:
#
# PCOD8273781 Si02
#       6
#    16  16  16  16  16  16
#     4   9  19  35  53  74 102 138 181 223 265 319
#     4  10  23  40  59  90 127 158 195 246 298 349
#     4   9  18  34  56  77  98 133 182 230 274 328
#     4  11  22  32  50  79 110 144 175 218 284 342
#     4  10  21  38  63  89 116 158 205 245 293 353
#     4   9  19  36  56  78 105 137 180 230 275 327
#
# _framework density 19.780611
#
# number of rings (size 3 to 8) (size 9 to 14) (size 15 to 20)
#    0.000    2.333    0.000    4.500    4.667    6.000 
#    0.000    4.167    0.000    3.000    0.000    3.500 
#    0.000    0.000    0.000    0.000    0.000    0.000 
#
# Total GULP energy -594692.115735 kJ/mol
# GULP energy per Si atom -12389.419078 kJ/mol
# Density = 1.973559 g / cm^3
# Si number density = 19.780611 Si / 1000 Ang^3
#
#
#
# Elastic Constant Matrix: (Units=GPa)
#
#
# Indices 1 2 3 4 5 6 
#
# 1 116.5827 40.5062 37.6540 0.0000 0.0000 0.0000
# 2 40.5062 133.9847 31.9126 0.0000 0.0000 0.0000
# 3 37.6540 31.9126 122.7042 0.0000 0.0000 0.0000
# 4 0.0000 0.0000 0.0000 24.8535 0.0000 0.0000
# 5 0.0000 0.0000 0.0000 0.0000 -2.0850 0.0000
# 6 0.0000 0.0000 0.0000 0.0000 0.0000 -26.8833
#
#
#
# Elastic Compliance Matrix: (Units=1/GPa)
#
#
# Indices 1 2 3 4 5 6 
#
# 1 0.010254 -0.002506 -0.002495 0.000000 0.000000 0.000000
# 2 -0.002506 0.008569 -0.001460 0.000000 0.000000 0.000000
# 3 -0.002495 -0.001460 0.009295 0.000000 0.000000 0.000000
# 4 0.000000 0.000000 0.000000 0.040236 0.000000 0.000000
# 5 0.000000 0.000000 0.000000 0.000000 -0.479608 0.000000
# 6 0.000000 0.000000 0.000000 0.000000 0.000000 -0.037198
#
#
# Mechanical properties :
#
#
# Convention : Reuss Voigt Hill
#
# Bulk Modulus (GPa) = 65.80209 65.93522 65.86865
# Shear Modulus (GPa) = -11.61532 16.72361 2.55415
#
# Velocity S-wave (km/s) = -2.42587 2.91082 1.13756
# Velocity P-wave (km/s) = 5.04893 6.68602 5.92430
#
# Compressibility (1/GPa) = 0.01519709
#
# Stress axis : x y z
#
# Youngs Moduli (GPa) = 97.52258 116.70346 107.58581
#
# Poissons Ratio (x) = 0.29243 0.26842
# Poissons Ratio (y) = 0.24437 0.15703
# Poissons Ratio (z) = 0.24331 0.17034
#
# Static dielectric constant tensor:
#      x y z
#    x 3.329900 0.000000 0.000000 
#    y 0.000000 8.141390 0.000000 
#    z 0.000000 0.000000 3.628880 
# 
# 
# High freq. dielectric constant tensor:
#      x y z
#    x 1.750170 0.000000 0.000000 
#    y 0.000000 1.788180 0.000000 
#    z 0.000000 0.000000 1.773810 
# 
# From -- ./inp_files/62601.got.cif
#   From: 2010.03.12/outbox.cif.g09.slc.cpg/sg65_32_cif.got.tgz:62601.got - 2010.04.10 20:52:16.
