data_PCOD8273769
_publ_section_title
;
Structure prediction by ZEFSAII (Michael W. Deem and Ramdas Pophale) SiO2 
 PCOD8273769
Probable space group: C M M M
;
_chemical_formula_sum "Si O2"
_cell_formula_units_Z 64
_cell_length_a 22.172370
_cell_length_b 16.376065
_cell_length_c 8.857707
_cell_angle_alpha 90.000000
_cell_angle_beta 90.000000
_cell_angle_gamma 90.000000
_cell_volume 3216.199507
_symmetry_space_group_name_H-M "C M M M"
_symmetry_group_IT_number 65
_symmetry_cell_setting 'orthorhombic'
loop_
_space_group_symop_operation_xyz
x,y,z
-x,-y,z
x,-y,-z
-x,y,-z
-x,-y,-z
x,y,-z
-x,y,z
x,-y,z
1/2+x,1/2+y,z
1/2-x,1/2-y,z
1/2+x,1/2-y,-z
1/2-x,1/2+y,-z
1/2-x,1/2-y,-z
1/2+x,1/2+y,-z
1/2-x,1/2+y,z
1/2+x,1/2-y,z
loop_
_atom_site_type_symbol
_atom_site_label
_atom_site_fract_x
_atom_site_fract_y
_atom_site_fract_z
Si Si1 0.149896 0.147858 0.325098
Si Si2 0.567448 0.500000 0.679008
Si Si3 0.000000 0.592035 0.821708
Si Si4 0.268692 0.904996 0.825414
Si Si5 0.115345 0.668517 0.674225
O O1 0.166513 0.132642 0.500000
O O2 0.102858 0.080274 0.265030
O O3 0.210702 0.145181 0.228408
O O4 0.119818 0.235057 0.299736
O O5 0.500000 0.500000 0.749032
O O6 0.562763 0.500000 0.500000
O O7 0.058776 0.638505 0.767478
O O8 0.000000 0.500000 0.757311
O O9 0.000000 0.590949 0.000000
O O10 0.325471 0.877634 0.728892
O O11 0.256360 0.000000 0.796497
O O12 0.281312 0.885932 0.000000
O O13 0.105306 0.647316 0.500000
#
# Coordination Sequence:
#
# PCOD8273769 Si02
#       5
#    16   8   8  16  16
#     4  10  21  38  62  91 121 156 202 250 299 358
#     4   9  18  34  61  89 119 158 195 240 297 351
#     4  11  25  45  65  88 121 162 204 242 298 365
#     4  11  23  39  60  87 122 162 204 248 302 363
#     4  11  24  39  62  93 122 154 202 255 303 356
#
# _framework density 19.899263999999999
#
# number of rings (size 3 to 8) (size 9 to 14) (size 15 to 20)
#    0.000    1.500    1.250    3.375    1.750   10.500 
#    0.000    0.000    0.000    0.750    0.000    0.000 
#    0.000    0.000    0.000    0.000    0.000    0.000 
#
# Total GULP energy -396997.587022 kJ/mol
# GULP energy per Si atom -12406.174594 kJ/mol
# Density = 1.985397 g / cm^3
# Si number density = 19.899264 Si / 1000 Ang^3
#
#
#
# Elastic Constant Matrix: (Units=GPa)
#
#
# Indices 1 2 3 4 5 6 
#
# 1 144.2209 43.5543 27.5480 0.0000 0.0000 0.0000
# 2 43.5543 97.9524 45.8256 0.0000 0.0000 0.0000
# 3 27.5480 45.8256 58.8551 0.0000 0.0000 0.0000
# 4 0.0000 0.0000 0.0000 27.7979 0.0000 0.0000
# 5 0.0000 0.0000 0.0000 0.0000 53.3503 0.0000
# 6 0.0000 0.0000 0.0000 0.0000 0.0000 35.8419
#
#
#
# Elastic Compliance Matrix: (Units=1/GPa)
#
#
# Indices 1 2 3 4 5 6 
#
# 1 0.008098 -0.002875 -0.001552 0.000000 0.000000 0.000000
# 2 -0.002875 0.017079 -0.011953 0.000000 0.000000 0.000000
# 3 -0.001552 -0.011953 0.027024 0.000000 0.000000 0.000000
# 4 0.000000 0.000000 0.000000 0.035974 0.000000 0.000000
# 5 0.000000 0.000000 0.000000 0.000000 0.018744 0.000000
# 6 0.000000 0.000000 0.000000 0.000000 0.000000 0.027900
#
#
# Mechanical properties :
#
#
# Convention : Reuss Voigt Hill
#
# Bulk Modulus (GPa) = 51.43406 59.43158 55.43282
# Shear Modulus (GPa) = 28.72580 35.67140 32.19860
#
# Velocity S-wave (km/s) = 3.80354 4.23850 4.02690
# Velocity P-wave (km/s) = 6.72254 7.34059 7.03835
#
# Compressibility (1/GPa) = 0.01944237
#
# Stress axis : x y z
#
# Youngs Moduli (GPa) = 123.48002 58.55109 37.00430
#
# Poissons Ratio (x) = 0.16832 0.05744
# Poissons Ratio (y) = 0.35498 0.44229
# Poissons Ratio (z) = 0.19167 0.69983
#
# Static dielectric constant tensor:
#      x y z
#    x 1.548740 0.000000 0.000000 
#    y 0.000000 3.815030 0.000000 
#    z 0.000000 0.000000 3.558740 
# 
# 
# High freq. dielectric constant tensor:
#      x y z
#    x 1.788100 0.000000 0.000000 
#    y 0.000000 1.792540 0.000000 
#    z 0.000000 0.000000 1.767310 
# 
# From -- ./inp_files/6783.got.cif
#   From: 2010.03.12/outbox.cif.g09.slc.cpg/sg65_4_cif.got.tgz:6783.got - 2010.04.10 20:52:16.
