data_PCOD8273178
_publ_section_title
;
Structure prediction by ZEFSAII (Michael W. Deem and Ramdas Pophale) SiO2 
 PCOD8273178
Probable space group: C M M M
;
_chemical_formula_sum "Si O2"
_cell_formula_units_Z 112
_cell_length_a 13.953490
_cell_length_b 13.791997
_cell_length_c 27.833954
_cell_angle_alpha 90.000000
_cell_angle_beta 90.000000
_cell_angle_gamma 90.000000
_cell_volume 5356.546812
_symmetry_space_group_name_H-M "C M M M"
_symmetry_group_IT_number 65
_symmetry_cell_setting 'orthorhombic'
loop_
_space_group_symop_operation_xyz
x,y,z
-x,-y,z
x,-y,-z
-x,y,-z
-x,-y,-z
x,y,-z
-x,y,z
x,-y,z
1/2+x,1/2+y,z
1/2-x,1/2-y,z
1/2+x,1/2-y,-z
1/2-x,1/2+y,-z
1/2-x,1/2-y,-z
1/2+x,1/2+y,-z
1/2-x,1/2+y,z
1/2+x,1/2-y,z
loop_
_atom_site_type_symbol
_atom_site_label
_atom_site_fract_x
_atom_site_fract_y
_atom_site_fract_z
Si Si1 0.785405 0.613871 0.809146
Si Si2 0.715251 0.885706 0.298193
Si Si3 0.394619 0.613560 0.352277
Si Si4 0.113722 0.210834 0.447391
Si Si5 0.387108 0.286775 0.852491
Si Si6 0.387321 0.106710 0.607776
Si Si7 0.613169 0.392141 0.947243
O O1 0.803197 0.500000 0.817827
O O2 0.812068 0.648947 0.755103
O O3 0.673942 0.641236 0.818235
O O4 0.855427 0.675235 0.844052
O O5 0.818293 0.840750 0.314784
O O6 0.636101 0.857528 0.337942
O O7 0.728074 0.000000 0.295897
O O8 0.500000 0.661324 0.344036
O O9 0.401932 0.500000 0.345046
O O10 0.357417 0.632896 0.406757
O O11 0.157001 0.184982 0.500000
O O12 0.154068 0.316422 0.430698
O O13 0.000000 0.215506 0.451282
O O14 0.500000 0.301275 0.842285
O O15 0.357360 0.313991 0.907075
O O16 0.500000 0.100984 0.603054
O O17 0.341922 0.000000 0.598027
O O18 0.500000 0.398671 0.949329
O O19 0.653196 0.500000 0.934189
O O20 0.652323 0.360167 0.000000
#
# Coordination Sequence:
#
# PCOD8273178 Si02
#       7
#    16  16  16  16  16  16  16
#     4  10  22  38  55  80 115 151 187 231 284 337
#     4   9  19  36  54  72  98 132 172 215 256 307
#     4   9  18  33  52  72  95 125 162 206 253 301
#     4   9  18  31  48  72  97 122 154 191 243 312
#     4  10  21  36  56  84 115 148 189 234 279 330
#     4   9  18  33  52  71  92 122 161 205 249 296
#     4   8  14  28  54  85 114 148 191 236 280 326
#
# _framework density 20.908992999999999
#
# number of rings (size 3 to 8) (size 9 to 14) (size 15 to 20)
#    0.000    2.857    0.000    0.857    0.000    5.714 
#    0.000   10.000    0.000    3.857    0.000    2.000 
#    0.000    0.000    0.000    0.000    0.000    0.000 
#
# Total GULP energy -693819.991786 kJ/mol
# GULP energy per Si atom -12389.642710 kJ/mol
# Density = 2.086140 g / cm^3
# Si number density = 20.908993 Si / 1000 Ang^3
#
#
#
# Elastic Constant Matrix: (Units=GPa)
#
#
# Indices 1 2 3 4 5 6 
#
# 1 35.1671 -4.8254 9.1708 0.0000 0.0000 0.0000
# 2 -4.8254 64.7569 30.0547 0.0000 0.0000 0.0000
# 3 9.1708 30.0547 128.0181 0.0000 0.0000 0.0000
# 4 0.0000 0.0000 0.0000 34.4084 0.0000 0.0000
# 5 0.0000 0.0000 0.0000 0.0000 25.6529 0.0000
# 6 0.0000 0.0000 0.0000 0.0000 0.0000 19.2592
#
#
#
# Elastic Compliance Matrix: (Units=1/GPa)
#
#
# Indices 1 2 3 4 5 6 
#
# 1 0.029703 0.003592 -0.002971 0.000000 0.000000 0.000000
# 2 0.003592 0.017765 -0.004428 0.000000 0.000000 0.000000
# 3 -0.002971 -0.004428 0.009064 0.000000 0.000000 0.000000
# 4 0.000000 0.000000 0.000000 0.029063 0.000000 0.000000
# 5 0.000000 0.000000 0.000000 0.000000 0.038982 0.000000
# 6 0.000000 0.000000 0.000000 0.000000 0.000000 0.051923
#
#
# Mechanical properties :
#
#
# Convention : Reuss Voigt Hill
#
# Bulk Modulus (GPa) = 20.44210 32.97136 26.70673
# Shear Modulus (GPa) = 24.94757 28.76691 26.85724
#
# Velocity S-wave (km/s) = 3.45795 3.71322 3.58786
# Velocity P-wave (km/s) = 5.07357 5.84699 5.47396
#
# Compressibility (1/GPa) = 0.04891865
#
# Stress axis : x y z
#
# Youngs Moduli (GPa) = 33.66611 56.28984 110.32882
#
# Poissons Ratio (x) = -0.20222 0.32781
# Poissons Ratio (y) = -0.12094 0.48854
# Poissons Ratio (z) = 0.10003 0.24926
#
# Static dielectric constant tensor:
#      x y z
#    x 3.706220 0.000000 0.000000 
#    y 0.000000 3.882870 0.000000 
#    z 0.000000 0.000000 4.265200 
# 
# 
# High freq. dielectric constant tensor:
#      x y z
#    x 1.801020 0.000000 0.000000 
#    y 0.000000 1.817150 0.000000 
#    z 0.000000 0.000000 1.813620 
# 
# From -- ./inp_files/74862.got.cif
#   From: 2010.03.12/outbox.cif.g09.slc.cpg/sg65_38_cif.got.tgz:74862.got - 2010.04.10 20:52:16.
