data_PCOD8273603
_publ_section_title
;
Structure prediction by ZEFSAII (Michael W. Deem and Ramdas Pophale) SiO2 
 PCOD8273603
Probable space group: C M M M
;
_chemical_formula_sum "Si O2"
_cell_formula_units_Z 64
_cell_length_a 8.794381
_cell_length_b 24.671339
_cell_length_c 14.878233
_cell_angle_alpha 90.000000
_cell_angle_beta 90.000000
_cell_angle_gamma 90.000000
_cell_volume 3228.117641
_symmetry_space_group_name_H-M "C M M M"
_symmetry_group_IT_number 65
_symmetry_cell_setting 'orthorhombic'
loop_
_space_group_symop_operation_xyz
x,y,z
-x,-y,z
x,-y,-z
-x,y,-z
-x,-y,-z
x,y,-z
-x,y,z
x,-y,z
1/2+x,1/2+y,z
1/2-x,1/2-y,z
1/2+x,1/2-y,-z
1/2-x,1/2+y,-z
1/2-x,1/2-y,-z
1/2+x,1/2+y,-z
1/2-x,1/2+y,z
1/2+x,1/2-y,z
loop_
_atom_site_type_symbol
_atom_site_label
_atom_site_fract_x
_atom_site_fract_y
_atom_site_fract_z
Si Si1 0.181786 0.883696 0.399581
Si Si2 0.665153 0.500000 0.394080
Si Si3 0.328348 0.500000 0.106591
Si Si4 0.323642 0.890049 0.894186
Si Si5 0.319768 0.308963 0.760824
O O1 0.239128 0.867924 0.500000
O O2 0.249085 0.943122 0.369257
O O3 0.239511 0.839027 0.329265
O O4 0.000000 0.887780 0.399415
O O5 0.500000 0.500000 0.346164
O O6 0.641005 0.500000 0.500000
O O7 0.500000 0.500000 0.143397
O O8 0.243213 0.446725 0.142946
O O9 0.324464 0.500000 0.000000
O O10 0.500000 0.887591 0.869333
O O11 0.236166 0.840632 0.848441
O O12 0.295951 0.884427 0.000000
O O13 0.500000 0.304884 0.763257
O O14 0.250000 0.250000 0.761408
#
# Coordination Sequence:
#
# PCOD8273603 Si02
#       5
#    16   8   8  16  16
#     4   8  15  29  50  77 108 140 174 217 272 331
#     4   7  10  21  44  73 103 131 162 205 257 314
#     4   9  17  32  57  88 117 143 176 218 265 323
#     4  10  21  38  59  82 111 146 181 222 274 328
#     4  11  23  37  54  77 107 144 189 236 277 325
#
# _framework density 19.825796
#
# number of rings (size 3 to 8) (size 9 to 14) (size 15 to 20)
#    0.000    2.750    0.000    3.375    0.000    5.000 
#    0.000    2.500    0.000    2.250    0.000    0.000 
#    0.000   14.000    0.000    0.000    0.000    0.000 
#
# Total GULP energy -396593.994276 kJ/mol
# GULP energy per Si atom -12393.562321 kJ/mol
# Density = 1.978067 g / cm^3
# Si number density = 19.825796 Si / 1000 Ang^3
#
#
#
# Elastic Constant Matrix: (Units=GPa)
#
#
# Indices 1 2 3 4 5 6 
#
# 1 77.3735 56.9307 36.9384 0.0000 0.0000 0.0000
# 2 56.9307 200.5585 64.0962 0.0000 0.0000 0.0000
# 3 36.9384 64.0962 75.0410 0.0000 0.0000 0.0000
# 4 0.0000 0.0000 0.0000 40.8948 0.0000 0.0000
# 5 0.0000 0.0000 0.0000 0.0000 13.5155 0.0000
# 6 0.0000 0.0000 0.0000 0.0000 0.0000 22.1506
#
#
#
# Elastic Compliance Matrix: (Units=1/GPa)
#
#
# Indices 1 2 3 4 5 6 
#
# 1 0.018257 -0.003178 -0.006273 0.000000 0.000000 0.000000
# 2 -0.003178 0.007411 -0.004766 0.000000 0.000000 0.000000
# 3 -0.006273 -0.004766 0.020485 0.000000 0.000000 0.000000
# 4 0.000000 0.000000 0.000000 0.024453 0.000000 0.000000
# 5 0.000000 0.000000 0.000000 0.000000 0.073989 0.000000
# 6 0.000000 0.000000 0.000000 0.000000 0.000000 0.045145
#
#
# Mechanical properties :
#
#
# Convention : Reuss Voigt Hill
#
# Bulk Modulus (GPa) = 56.43335 74.32262 65.37798
# Shear Modulus (GPa) = 22.31344 28.31271 25.31307
#
# Velocity S-wave (km/s) = 3.35845 3.78309 3.57707
# Velocity P-wave (km/s) = 6.60040 7.52672 7.07873
#
# Compressibility (1/GPa) = 0.01772002
#
# Stress axis : x y z
#
# Youngs Moduli (GPa) = 54.77325 134.92850 48.81699
#
# Poissons Ratio (x) = 0.42878 0.30621
# Poissons Ratio (y) = 0.17406 0.23267
# Poissons Ratio (z) = 0.34357 0.64309
#
# Static dielectric constant tensor:
#      x y z
#    x 3.289790 0.000000 0.000000 
#    y 0.000000 3.888290 0.000000 
#    z 0.000000 0.000000 3.581960 
# 
# 
# High freq. dielectric constant tensor:
#      x y z
#    x 1.736880 0.000000 0.000000 
#    y 0.000000 1.783400 0.000000 
#    z 0.000000 0.000000 1.769940 
# 
# From -- ./inp_files/36011.got.cif
#   From: 2010.03.12/outbox.cif.g09.slc.cpg/sg65_19_cif.got.tgz:36011.got - 2010.04.10 20:52:16.
