data_PCOD8273968
_publ_section_title
;
Structure prediction by ZEFSAII (Michael W. Deem and Ramdas Pophale) SiO2 
 PCOD8273968
Probable space group: C M M M
;
_chemical_formula_sum "Si O2"
_cell_formula_units_Z 72
_cell_length_a 21.947575
_cell_length_b 23.507182
_cell_length_c 7.510530
_cell_angle_alpha 90.000000
_cell_angle_beta 90.000000
_cell_angle_gamma 90.000000
_cell_volume 3874.874997
_symmetry_space_group_name_H-M "C M M M"
_symmetry_group_IT_number 65
_symmetry_cell_setting 'orthorhombic'
loop_
_space_group_symop_operation_xyz
x,y,z
-x,-y,z
x,-y,-z
-x,y,-z
-x,-y,-z
x,y,-z
-x,y,z
x,-y,z
1/2+x,1/2+y,z
1/2-x,1/2-y,z
1/2+x,1/2-y,-z
1/2-x,1/2+y,-z
1/2-x,1/2-y,-z
1/2+x,1/2+y,-z
1/2-x,1/2+y,z
1/2+x,1/2-y,z
loop_
_atom_site_type_symbol
_atom_site_label
_atom_site_fract_x
_atom_site_fract_y
_atom_site_fract_z
Si Si1 0.615991 0.130276 0.789722
Si Si2 0.570826 0.660333 0.500000
Si Si3 0.500000 0.064185 0.787234
Si Si4 0.668419 0.565430 0.500000
Si Si5 0.429206 0.749227 0.796824
Si Si6 0.765322 0.565724 0.794923
O O1 0.559701 0.095097 0.708080
O O2 0.610424 0.196414 0.734956
O O3 0.679508 0.104401 0.720850
O O4 0.613185 0.123940 0.000000
O O5 0.500000 0.644164 0.500000
O O6 0.607467 0.602051 0.500000
O O7 0.588566 0.696154 0.325230
O O8 0.500000 0.000000 0.717099
O O9 0.500000 0.066710 0.000000
O O10 0.647958 0.500000 0.500000
O O11 0.706664 0.579917 0.676816
O O12 0.500000 0.765841 0.774495
O O13 0.414594 0.732269 0.000000
O O14 0.784849 0.500000 0.772838
O O15 0.749407 0.579714 0.000000
#
# Coordination Sequence:
#
# PCOD8273968 Si02
#       6
#    16   8   8   8  16  16
#     4   9  15  26  46  74 106 144 185 217 248 285
#     4  10  22  38  59  83  98 122 165 209 267 330
#     4   9  14  20  38  71 107 141 184 230 254 272
#     4  10  22  40  59  78 101 127 160 210 268 326
#     4   9  17  32  52  76 109 143 173 210 254 299
#     4   9  18  33  53  76 106 145 180 209 250 303
#
# _framework density 18.581246
#
# number of rings (size 3 to 8) (size 9 to 14) (size 15 to 20)
#    0.000    2.778    1.111    0.667    0.000    4.667 
#    0.000    2.222    0.000    4.000    0.000   10.111 
#    0.000    0.000    0.000    0.000    0.000    0.000 
#
# Total GULP energy -446374.023115 kJ/mol
# GULP energy per Si atom -12399.278420 kJ/mol
# Density = 1.853895 g / cm^3
# Si number density = 18.581246 Si / 1000 Ang^3
#
#
#
# Elastic Constant Matrix: (Units=GPa)
#
#
# Indices 1 2 3 4 5 6 
#
# 1 103.7337 83.7717 41.4775 0.0000 0.0000 0.0000
# 2 83.7717 123.1181 47.4630 0.0000 0.0000 0.0000
# 3 41.4775 47.4630 81.9929 0.0000 0.0000 0.0000
# 4 0.0000 0.0000 0.0000 12.6021 0.0000 0.0000
# 5 0.0000 0.0000 0.0000 0.0000 10.8596 0.0000
# 6 0.0000 0.0000 0.0000 0.0000 0.0000 37.9244
#
#
#
# Elastic Compliance Matrix: (Units=1/GPa)
#
#
# Indices 1 2 3 4 5 6 
#
# 1 0.022022 -0.013760 -0.003175 0.000000 0.000000 0.000000
# 2 -0.013760 0.019053 -0.004069 0.000000 0.000000 0.000000
# 3 -0.003175 -0.004069 0.016157 0.000000 0.000000 0.000000
# 4 0.000000 0.000000 0.000000 0.079352 0.000000 0.000000
# 5 0.000000 0.000000 0.000000 0.000000 0.092085 0.000000
# 6 0.000000 0.000000 0.000000 0.000000 0.000000 0.026368
#
#
# Mechanical properties :
#
#
# Convention : Reuss Voigt Hill
#
# Bulk Modulus (GPa) = 65.67926 72.69656 69.18791
# Shear Modulus (GPa) = 16.54980 21.35273 18.95127
#
# Velocity S-wave (km/s) = 2.98765 3.39360 3.19707
# Velocity P-wave (km/s) = 6.87933 7.38674 7.13755
#
# Compressibility (1/GPa) = 0.01522551
#
# Stress axis : x y z
#
# Youngs Moduli (GPa) = 45.41010 52.48447 61.89125
#
# Poissons Ratio (x) = 0.72218 0.19649
# Poissons Ratio (y) = 0.62484 0.25181
# Poissons Ratio (z) = 0.14417 0.21354
#
# Static dielectric constant tensor:
#      x y z
#    x 3.190950 0.000000 0.000000 
#    y 0.000000 3.250150 0.000000 
#    z 0.000000 0.000000 3.429590 
# 
# 
# High freq. dielectric constant tensor:
#      x y z
#    x 1.695380 0.000000 0.000000 
#    y 0.000000 1.709090 0.000000 
#    z 0.000000 0.000000 1.718210 
# 
# From -- ./inp_files/9311.got.cif
#   From: 2010.03.12/outbox.cif.g09.slc.cpg/sg65_5_cif.got.tgz:9311.got - 2010.04.10 20:52:16.
