data_PCOD8273175
_publ_section_title
;
Structure prediction by ZEFSAII (Michael W. Deem and Ramdas Pophale) SiO2 
 PCOD8273175
Probable space group: C M M M
;
_chemical_formula_sum "Si O2"
_cell_formula_units_Z 112
_cell_length_a 17.205325
_cell_length_b 25.097828
_cell_length_c 13.562951
_cell_angle_alpha 90.000000
_cell_angle_beta 90.000000
_cell_angle_gamma 90.000000
_cell_volume 5856.703149
_symmetry_space_group_name_H-M "C M M M"
_symmetry_group_IT_number 65
_symmetry_cell_setting 'orthorhombic'
loop_
_space_group_symop_operation_xyz
x,y,z
-x,-y,z
x,-y,-z
-x,y,-z
-x,-y,-z
x,y,-z
-x,y,z
x,-y,z
1/2+x,1/2+y,z
1/2-x,1/2-y,z
1/2+x,1/2-y,-z
1/2-x,1/2+y,-z
1/2-x,1/2-y,-z
1/2+x,1/2+y,-z
1/2-x,1/2+y,z
1/2+x,1/2-y,z
loop_
_atom_site_type_symbol
_atom_site_label
_atom_site_fract_x
_atom_site_fract_y
_atom_site_fract_z
Si Si1 0.912631 0.263486 0.192504
Si Si2 0.703532 0.622662 0.613568
Si Si3 0.412625 0.062096 0.111365
Si Si4 0.085761 0.217583 0.606775
Si Si5 0.135341 0.852028 0.885843
Si Si6 0.199007 0.641247 0.202020
Si Si7 0.087149 0.939547 0.735474
O O1 0.907097 0.262626 0.311120
O O2 0.892688 0.206255 0.147400
O O3 0.850119 0.307827 0.164663
O O4 0.000000 0.279715 0.158682
O O5 0.729403 0.613036 0.500000
O O6 0.647830 0.672589 0.626040
O O7 0.777577 0.637004 0.682222
O O8 0.653394 0.572686 0.653461
O O9 0.500000 0.074885 0.147124
O O10 0.352051 0.089240 0.184047
O O11 0.395819 0.000000 0.116167
O O12 0.401091 0.083004 0.000000
O O13 0.099636 0.244658 0.500000
O O14 0.000000 0.191011 0.612177
O O15 0.226573 0.858134 0.867790
O O16 0.091680 0.898435 0.826452
O O17 0.115615 0.859673 0.000000
O O18 0.000000 0.934999 0.690220
O O19 0.101960 0.000000 0.772926
#
# Coordination Sequence:
#
# PCOD8273175 Si02
#       7
#    16  16  16  16  16  16  16
#     4  11  22  37  56  81 112 149 191 233 279 337
#     4  10  21  36  56  83 116 151 185 228 283 336
#     4   9  19  38  63  87 110 141 186 238 288 336
#     4   9  17  32  55  79 106 144 187 228 271 323
#     4  11  24  39  55  79 115 153 188 232 294 353
#     4  11  22  36  57  86 116 147 186 234 284 339
#     4  10  21  38  60  84 111 147 195 243 282 332
#
# _framework density 19.123387000000001
#
# number of rings (size 3 to 8) (size 9 to 14) (size 15 to 20)
#    0.000    1.857    2.857    2.571    0.000    7.143 
#    0.000    2.857    0.000    1.286    0.000    1.000 
#    0.000    0.000    0.000    0.000    0.000    0.000 
#
# Total GULP energy -694099.073178 kJ/mol
# GULP energy per Si atom -12394.626307 kJ/mol
# Density = 1.907986 g / cm^3
# Si number density = 19.123387 Si / 1000 Ang^3
#
#
#
# Elastic Constant Matrix: (Units=GPa)
#
#
# Indices 1 2 3 4 5 6 
#
# 1 95.5688 37.3140 21.2496 0.0000 0.0000 0.0000
# 2 37.3140 77.6944 19.9250 0.0000 0.0000 0.0000
# 3 21.2496 19.9250 92.5671 0.0000 0.0000 0.0000
# 4 0.0000 0.0000 0.0000 14.1283 0.0000 0.0000
# 5 0.0000 0.0000 0.0000 0.0000 24.8080 0.0000
# 6 0.0000 0.0000 0.0000 0.0000 0.0000 48.3732
#
#
#
# Elastic Compliance Matrix: (Units=1/GPa)
#
#
# Indices 1 2 3 4 5 6 
#
# 1 0.013143 -0.005862 -0.001755 0.000000 0.000000 0.000000
# 2 -0.005862 0.016237 -0.002149 0.000000 0.000000 0.000000
# 3 -0.001755 -0.002149 0.011669 0.000000 0.000000 0.000000
# 4 0.000000 0.000000 0.000000 0.070780 0.000000 0.000000
# 5 0.000000 0.000000 0.000000 0.000000 0.040310 0.000000
# 6 0.000000 0.000000 0.000000 0.000000 0.000000 0.020673
#
#
# Mechanical properties :
#
#
# Convention : Reuss Voigt Hill
#
# Bulk Modulus (GPa) = 46.47802 46.97862 46.72832
# Shear Modulus (GPa) = 25.06072 29.95137 27.50604
#
# Velocity S-wave (km/s) = 3.62398 3.96184 3.79667
# Velocity P-wave (km/s) = 6.47055 6.74890 6.61119
#
# Compressibility (1/GPa) = 0.02151555
#
# Stress axis : x y z
#
# Youngs Moduli (GPa) = 76.08823 61.58618 85.70024
#
# Poissons Ratio (x) = 0.36101 0.15043
# Poissons Ratio (y) = 0.44602 0.18421
# Poissons Ratio (z) = 0.13355 0.13238
#
# Static dielectric constant tensor:
#      x y z
#    x 3.670100 0.000000 0.000000 
#    y 0.000000 3.365340 0.000000 
#    z 0.000000 0.000000 3.684550 
# 
# 
# High freq. dielectric constant tensor:
#      x y z
#    x 1.751470 0.000000 0.000000 
#    y 0.000000 1.730470 0.000000 
#    z 0.000000 0.000000 1.736710 
# 
# From -- ./inp_files/40772.got.cif
#   From: 2010.03.12/outbox.cif.g09.slc.cpg/sg65_21_cif.got.tgz:40772.got - 2010.04.10 20:52:16.
