data_PCOD8273011
_publ_section_title
;
Structure prediction by ZEFSAII (Michael W. Deem and Ramdas Pophale) SiO2 
 PCOD8273011
Probable space group: C M M M
;
_chemical_formula_sum "Si O2"
_cell_formula_units_Z 72
_cell_length_a 19.520616
_cell_length_b 9.046216
_cell_length_c 22.896366
_cell_angle_alpha 90.000000
_cell_angle_beta 90.000000
_cell_angle_gamma 90.000000
_cell_volume 4043.216812
_symmetry_space_group_name_H-M "C M M M"
_symmetry_group_IT_number 65
_symmetry_cell_setting 'orthorhombic'
loop_
_space_group_symop_operation_xyz
x,y,z
-x,-y,z
x,-y,-z
-x,y,-z
-x,-y,-z
x,y,-z
-x,y,z
x,-y,z
1/2+x,1/2+y,z
1/2-x,1/2-y,z
1/2+x,1/2-y,-z
1/2-x,1/2+y,-z
1/2-x,1/2-y,-z
1/2+x,1/2+y,-z
1/2-x,1/2+y,z
1/2+x,1/2-y,z
loop_
_atom_site_type_symbol
_atom_site_label
_atom_site_fract_x
_atom_site_fract_y
_atom_site_fract_z
Si Si1 0.819435 0.828177 0.431777
Si Si2 0.078716 0.173015 0.228751
Si Si3 0.580299 0.828961 0.652981
Si Si4 0.823144 0.826217 0.126252
Si Si5 0.679040 0.329208 0.000000
O O1 0.831628 0.801336 0.500000
O O2 0.750000 0.750000 0.410469
O O3 0.883304 0.756358 0.399261
O O4 0.814208 0.000000 0.416135
O O5 0.104019 0.261322 0.285416
O O6 0.123543 0.230887 0.174459
O O7 0.000000 0.209200 0.214071
O O8 0.089332 0.000000 0.240772
O O9 0.500000 0.805077 0.643706
O O10 0.601055 0.000000 0.651566
O O11 0.750000 0.750000 0.135376
O O12 0.857121 0.788519 0.061997
O O13 0.811316 0.000000 0.133095
O O14 0.750000 0.250000 0.000000
O O15 0.696098 0.500000 0.000000
#
# Coordination Sequence:
#
# PCOD8273011 Si02
#       5
#    16  16  16  16   8
#     4  10  21  37  57  80 106 135 166 203 248 296
#     4   9  18  33  50  68  95 130 165 202 246 294
#     4  10  21  36  54  76 102 134 171 209 249 294
#     4   9  17  29  47  70  94 123 159 199 243 291
#     4   8  14  26  43  65  93 121 153 194 240 290
#
# _framework density 17.807604000000001
#
# number of rings (size 3 to 8) (size 9 to 14) (size 15 to 20)
#    0.000    2.667    0.000    1.333    0.000    4.889 
#    0.000    5.000    0.000    3.333    0.000    0.000 
#    0.000   12.444    0.000    0.000    0.000    0.000 
#
# Total GULP energy -446233.870331 kJ/mol
# GULP energy per Si atom -12395.385287 kJ/mol
# Density = 1.776707 g / cm^3
# Si number density = 17.807604 Si / 1000 Ang^3
#
#
#
# Elastic Constant Matrix: (Units=GPa)
#
#
# Indices 1 2 3 4 5 6 
#
# 1 68.8932 40.4986 63.6184 0.0000 0.0000 0.0000
# 2 40.4986 78.5724 60.6563 0.0000 0.0000 0.0000
# 3 63.6184 60.6563 121.7027 0.0000 0.0000 0.0000
# 4 0.0000 0.0000 0.0000 24.7041 0.0000 0.0000
# 5 0.0000 0.0000 0.0000 0.0000 31.6032 0.0000
# 6 0.0000 0.0000 0.0000 0.0000 0.0000 28.2461
#
#
#
# Elastic Compliance Matrix: (Units=1/GPa)
#
#
# Indices 1 2 3 4 5 6 
#
# 1 0.029378 -0.005343 -0.012694 0.000000 0.000000 0.000000
# 2 -0.005343 0.021658 -0.008001 0.000000 0.000000 0.000000
# 3 -0.012694 -0.008001 0.018840 0.000000 0.000000 0.000000
# 4 0.000000 0.000000 0.000000 0.040479 0.000000 0.000000
# 5 0.000000 0.000000 0.000000 0.000000 0.031642 0.000000
# 6 0.000000 0.000000 0.000000 0.000000 0.000000 0.035403
#
#
# Mechanical properties :
#
#
# Convention : Reuss Voigt Hill
#
# Bulk Modulus (GPa) = 56.18070 66.52389 61.35230
# Shear Modulus (GPa) = 21.23945 23.87035 22.55490
#
# Velocity S-wave (km/s) = 3.45732 3.66520 3.56278
# Velocity P-wave (km/s) = 6.89599 7.43974 7.17302
#
# Compressibility (1/GPa) = 0.01779971
#
# Stress axis : x y z
#
# Youngs Moduli (GPa) = 34.03872 46.17270 53.07752
#
# Poissons Ratio (x) = 0.24669 0.67378
# Poissons Ratio (y) = 0.18186 0.42469
# Poissons Ratio (z) = 0.43210 0.36944
#
# Static dielectric constant tensor:
#      x y z
#    x 3.119850 0.000000 0.000000 
#    y 0.000000 3.110760 0.000000 
#    z 0.000000 0.000000 3.743220 
# 
# 
# High freq. dielectric constant tensor:
#      x y z
#    x 1.668230 0.000000 0.000000 
#    y 0.000000 1.693000 0.000000 
#    z 0.000000 0.000000 1.704150 
# 
# From -- ./inp_files/59283.got.cif
#   From: 2010.03.12/outbox.cif.g09.slc.cpg/sg65_30_cif.got.tgz:59283.got - 2010.04.10 20:52:16.
