data_PCOD8273369
_publ_section_title
;
Structure prediction by ZEFSAII (Michael W. Deem and Ramdas Pophale) SiO2 
 PCOD8273369
Probable space group: C M M M
;
_chemical_formula_sum "Si O2"
_cell_formula_units_Z 80
_cell_length_a 19.384249
_cell_length_b 8.735677
_cell_length_c 25.502602
_cell_angle_alpha 90.000000
_cell_angle_beta 90.000000
_cell_angle_gamma 90.000000
_cell_volume 4318.471331
_symmetry_space_group_name_H-M "C M M M"
_symmetry_group_IT_number 65
_symmetry_cell_setting 'orthorhombic'
loop_
_space_group_symop_operation_xyz
x,y,z
-x,-y,z
x,-y,-z
-x,y,-z
-x,-y,-z
x,y,-z
-x,y,z
x,-y,z
1/2+x,1/2+y,z
1/2-x,1/2-y,z
1/2+x,1/2-y,-z
1/2-x,1/2+y,-z
1/2-x,1/2-y,-z
1/2+x,1/2+y,-z
1/2-x,1/2+y,z
1/2+x,1/2-y,z
loop_
_atom_site_type_symbol
_atom_site_label
_atom_site_fract_x
_atom_site_fract_y
_atom_site_fract_z
Si Si1 0.174815 0.179264 0.443264
Si Si2 0.419629 0.175685 0.143131
Si Si3 0.322013 0.321278 0.060867
Si Si4 0.825857 0.680096 0.339289
Si Si5 0.419747 0.678121 0.748157
O O1 0.137481 0.208964 0.500000
O O2 0.250000 0.250000 0.446601
O O3 0.138148 0.259011 0.393446
O O4 0.180225 0.000000 0.431929
O O5 0.500000 0.194758 0.132128
O O6 0.382743 0.240522 0.092123
O O7 0.396871 0.272588 0.193763
O O8 0.399109 0.000000 0.152721
O O9 0.321133 0.500000 0.073266
O O10 0.250000 0.250000 0.079504
O O11 0.335360 0.286946 0.000000
O O12 0.818338 0.500000 0.342018
O O13 0.750000 0.750000 0.330922
O O14 0.875474 0.724764 0.292235
O O15 0.500000 0.716315 0.738919
O O16 0.403913 0.500000 0.740485
#
# Coordination Sequence:
#
# PCOD8273369 Si02
#       5
#    16  16  16  16  16
#     4   9  16  27  45  70 101 135 171 212 259 309
#     4  10  21  37  57  81 108 138 175 217 260 309
#     4  10  21  37  57  81 110 143 178 216 260 310
#     4  11  21  33  52  78 108 138 174 218 261 310
#     4  10  21  38  58  78 104 138 175 216 264 316
#
# _framework density 18.525072999999999
#
# number of rings (size 3 to 8) (size 9 to 14) (size 15 to 20)
#    0.000    2.000    0.000    5.400    0.000    6.000 
#    0.000    6.000    0.000    0.600    0.000    4.200 
#    0.000    0.000    0.000    0.000    0.000    0.000 
#
# Total GULP energy -495941.366449 kJ/mol
# GULP energy per Si atom -12398.534161 kJ/mol
# Density = 1.848291 g / cm^3
# Si number density = 18.525073 Si / 1000 Ang^3
#
#
#
# Elastic Constant Matrix: (Units=GPa)
#
#
# Indices 1 2 3 4 5 6 
#
# 1 51.3308 43.1769 53.8718 0.0000 0.0000 0.0000
# 2 43.1769 125.6425 51.4056 0.0000 0.0000 0.0000
# 3 53.8718 51.4056 111.5745 0.0000 0.0000 0.0000
# 4 0.0000 0.0000 0.0000 37.4076 0.0000 0.0000
# 5 0.0000 0.0000 0.0000 0.0000 -4.2897 0.0000
# 6 0.0000 0.0000 0.0000 0.0000 0.0000 28.5447
#
#
#
# Elastic Compliance Matrix: (Units=1/GPa)
#
#
# Indices 1 2 3 4 5 6 
#
# 1 0.045424 -0.008178 -0.018164 0.000000 0.000000 0.000000
# 2 -0.008178 0.011280 -0.001249 0.000000 0.000000 0.000000
# 3 -0.018164 -0.001249 0.018308 0.000000 0.000000 0.000000
# 4 0.000000 0.000000 0.000000 0.026733 0.000000 0.000000
# 5 0.000000 0.000000 0.000000 0.000000 -0.233118 0.000000
# 6 0.000000 0.000000 0.000000 0.000000 0.000000 0.035033
#
#
# Mechanical properties :
#
#
# Convention : Reuss Voigt Hill
#
# Bulk Modulus (GPa) = 50.42703 65.05070 57.73886
# Shear Modulus (GPa) = -144.72349 21.67210 -61.52569
#
# Velocity S-wave (km/s) = -8.84831 3.42406 -5.76925
# Velocity P-wave (km/s) = 8.78124 7.12906 3.62538
#
# Compressibility (1/GPa) = 0.01983064
#
# Stress axis : x y z
#
# Youngs Moduli (GPa) = 22.01482 88.65002 54.62056
#
# Poissons Ratio (x) = 0.72499 0.99214
# Poissons Ratio (y) = 0.18004 0.06819
# Poissons Ratio (z) = 0.39988 0.11068
#
# Static dielectric constant tensor:
#      x y z
#    x 3.107070 0.000000 0.000000 
#    y 0.000000 3.663010 0.000000 
#    z 0.000000 0.000000 3.884460 
# 
# 
# High freq. dielectric constant tensor:
#      x y z
#    x 1.683630 0.000000 0.000000 
#    y 0.000000 1.740180 0.000000 
#    z 0.000000 0.000000 1.736920 
# 
# From -- ./inp_files/72851.got.cif
#   From: 2010.03.12/outbox.cif.g09.slc.cpg/sg65_37_cif.got.tgz:72851.got - 2010.04.10 20:52:16.
