data_PCOD8273665
_publ_section_title
;
Structure prediction by ZEFSAII (Michael W. Deem and Ramdas Pophale) SiO2 
 PCOD8273665
Probable space group: C M M M
;
_chemical_formula_sum "Si O2"
_cell_formula_units_Z 72
_cell_length_a 17.674626
_cell_length_b 23.227007
_cell_length_c 9.192455
_cell_angle_alpha 90.000000
_cell_angle_beta 90.000000
_cell_angle_gamma 90.000000
_cell_volume 3773.766250
_symmetry_space_group_name_H-M "C M M M"
_symmetry_group_IT_number 65
_symmetry_cell_setting 'orthorhombic'
loop_
_space_group_symop_operation_xyz
x,y,z
-x,-y,z
x,-y,-z
-x,y,-z
-x,-y,-z
x,y,-z
-x,y,z
x,-y,z
1/2+x,1/2+y,z
1/2-x,1/2-y,z
1/2+x,1/2-y,-z
1/2-x,1/2+y,-z
1/2-x,1/2-y,-z
1/2+x,1/2+y,-z
1/2-x,1/2+y,z
1/2+x,1/2-y,z
loop_
_atom_site_type_symbol
_atom_site_label
_atom_site_fract_x
_atom_site_fract_y
_atom_site_fract_z
Si Si1 0.085289 0.651388 0.668659
Si Si2 0.665386 0.251673 0.166976
Si Si3 0.282905 0.933382 0.669062
Si Si4 0.500000 0.432158 0.663211
Si Si5 0.141111 0.883094 0.167915
O O1 0.089975 0.666636 0.500000
O O2 0.110844 0.708441 0.750853
O O3 0.137412 0.596656 0.706110
O O4 0.000000 0.635402 0.715766
O O5 0.750000 0.250000 0.233926
O O6 0.630959 0.314940 0.184320
O O7 0.669084 0.231846 0.000000
O O8 0.260993 0.925967 0.500000
O O9 0.220342 0.902996 0.766619
O O10 0.290167 0.000000 0.711634
O O11 0.500000 0.500000 0.654826
O O12 0.500000 0.406152 0.500000
O O13 0.425872 0.412972 0.746919
O O14 0.138120 0.901922 0.000000
#
# Coordination Sequence:
#
# PCOD8273665 Si02
#       5
#    16  16  16   8  16
#     4  10  22  38  58  88 120 153 196 242 290 345
#     4  10  21  39  60  84 115 150 189 235 292 348
#     4  10  21  38  60  85 116 155 196 240 293 349
#     4  11  25  43  61  85 121 159 194 239 294 349
#     4  11  23  39  61  88 117 153 197 243 292 348
#
# _framework density 19.079084000000002
#
# number of rings (size 3 to 8) (size 9 to 14) (size 15 to 20)
#    0.000    1.667    2.222    1.667    1.556    7.111 
#    0.000    2.222    0.000    0.000    0.000    3.111 
#    0.000    0.000    0.000    0.000    0.000    0.000 
#
# Total GULP energy -446553.793469 kJ/mol
# GULP energy per Si atom -12404.272041 kJ/mol
# Density = 1.903566 g / cm^3
# Si number density = 19.079084 Si / 1000 Ang^3
#
#
#
# Elastic Constant Matrix: (Units=GPa)
#
#
# Indices 1 2 3 4 5 6 
#
# 1 124.7630 28.5080 53.4751 0.0000 0.0000 0.0000
# 2 28.5080 84.9412 40.3629 0.0000 0.0000 0.0000
# 3 53.4751 40.3629 87.8406 0.0000 0.0000 0.0000
# 4 0.0000 0.0000 0.0000 12.6114 0.0000 0.0000
# 5 0.0000 0.0000 0.0000 0.0000 43.8671 0.0000
# 6 0.0000 0.0000 0.0000 0.0000 0.0000 21.5743
#
#
#
# Elastic Compliance Matrix: (Units=1/GPa)
#
#
# Indices 1 2 3 4 5 6 
#
# 1 0.010872 -0.000645 -0.006323 0.000000 0.000000 0.000000
# 2 -0.000645 0.015100 -0.006546 0.000000 0.000000 0.000000
# 3 -0.006323 -0.006546 0.018241 0.000000 0.000000 0.000000
# 4 0.000000 0.000000 0.000000 0.079293 0.000000 0.000000
# 5 0.000000 0.000000 0.000000 0.000000 0.022796 0.000000
# 6 0.000000 0.000000 0.000000 0.000000 0.000000 0.046351
#
#
# Mechanical properties :
#
#
# Convention : Reuss Voigt Hill
#
# Bulk Modulus (GPa) = 58.18354 60.24853 59.21603
# Shear Modulus (GPa) = 22.18182 27.29048 24.73615
#
# Velocity S-wave (km/s) = 3.41343 3.78615 3.60461
# Velocity P-wave (km/s) = 6.78951 7.12461 6.95908
#
# Compressibility (1/GPa) = 0.01718699
#
# Stress axis : x y z
#
# Youngs Moduli (GPa) = 91.97548 66.22643 54.82093
#
# Poissons Ratio (x) = 0.04269 0.34662
# Poissons Ratio (y) = 0.05928 0.35885
# Poissons Ratio (z) = 0.58153 0.43351
#
# Static dielectric constant tensor:
#      x y z
#    x 3.698390 0.000000 0.000000 
#    y 0.000000 3.536930 0.000000 
#    z 0.000000 0.000000 3.590200 
# 
# 
# High freq. dielectric constant tensor:
#      x y z
#    x 1.751900 0.000000 0.000000 
#    y 0.000000 1.749040 0.000000 
#    z 0.000000 0.000000 1.742720 
# 
# From -- ./inp_files/7234.got.cif
#   From: 2010.03.12/outbox.cif.g09.slc.cpg/sg65_4_cif.got.tgz:7234.got - 2010.04.10 20:52:16.
