data_PCOD8273187
_publ_section_title
;
Structure prediction by ZEFSAII (Michael W. Deem and Ramdas Pophale) SiO2 
 PCOD8273187
Probable space group: C M M M
;
_chemical_formula_sum "Si O2"
_cell_formula_units_Z 88
_cell_length_a 22.151106
_cell_length_b 22.231062
_cell_length_c 9.181309
_cell_angle_alpha 90.000000
_cell_angle_beta 90.000000
_cell_angle_gamma 90.000000
_cell_volume 4521.267775
_symmetry_space_group_name_H-M "C M M M"
_symmetry_group_IT_number 65
_symmetry_cell_setting 'orthorhombic'
loop_
_space_group_symop_operation_xyz
x,y,z
-x,-y,z
x,-y,-z
-x,y,-z
-x,-y,-z
x,y,-z
-x,y,z
x,-y,z
1/2+x,1/2+y,z
1/2-x,1/2-y,z
1/2+x,1/2-y,-z
1/2-x,1/2+y,-z
1/2-x,1/2-y,-z
1/2+x,1/2+y,-z
1/2-x,1/2+y,z
1/2+x,1/2-y,z
loop_
_atom_site_type_symbol
_atom_site_label
_atom_site_fract_x
_atom_site_fract_y
_atom_site_fract_z
Si Si1 0.385160 0.371802 0.168426
Si Si2 0.166748 0.632868 0.336148
Si Si3 0.736348 0.566647 0.165888
Si Si4 0.500000 0.571113 0.673853
Si Si5 0.182099 0.234348 0.333207
Si Si6 0.433225 0.928991 0.160616
O O1 0.335194 0.423815 0.178303
O O2 0.442057 0.394935 0.260262
O O3 0.355347 0.311209 0.233003
O O4 0.403852 0.360021 0.000000
O O5 0.179875 0.614143 0.500000
O O6 0.228934 0.618208 0.253312
O O7 0.147339 0.702261 0.322542
O O8 0.111868 0.593834 0.280743
O O9 0.751385 0.500000 0.226765
O O10 0.758072 0.571477 0.000000
O O11 0.500000 0.500000 0.715786
O O12 0.500000 0.579192 0.500000
O O13 0.184372 0.210046 0.500000
O O14 0.250000 0.250000 0.278480
O O15 0.500000 0.905213 0.198865
O O16 0.432315 0.000000 0.161964
O O17 0.414156 0.905715 0.000000
#
# Coordination Sequence:
#
# PCOD8273187 Si02
#       6
#    16  16  16   8  16  16
#     4  11  23  40  65  93 122 158 207 260 307 361
#     4  11  22  35  56  85 115 151 195 242 292 351
#     4  10  21  36  56  85 120 154 189 239 301 358
#     4  11  25  45  69  95 127 169 210 253 316 387
#     4  10  21  40  61  83 120 162 197 240 298 362
#     4   9  19  37  58  79 109 150 190 232 288 351
#
# _framework density 19.463569
#
# number of rings (size 3 to 8) (size 9 to 14) (size 15 to 20)
#    0.000    1.727    1.818    3.000    0.000    7.273 
#    1.636    0.909    0.000    0.000    0.000    0.000 
#    0.000    0.000    0.000    0.000    0.000    0.000 
#
# Total GULP energy -545483.132568 kJ/mol
# GULP energy per Si atom -12397.343922 kJ/mol
# Density = 1.941927 g / cm^3
# Si number density = 19.463569 Si / 1000 Ang^3
#
#
#
# Elastic Constant Matrix: (Units=GPa)
#
#
# Indices 1 2 3 4 5 6 
#
# 1 113.6652 44.1943 58.2944 0.0000 0.0000 0.0000
# 2 44.1943 82.9256 57.5570 0.0000 0.0000 0.0000
# 3 58.2944 57.5570 117.6182 0.0000 0.0000 0.0000
# 4 0.0000 0.0000 0.0000 29.9470 0.0000 0.0000
# 5 0.0000 0.0000 0.0000 0.0000 105.6495 0.0000
# 6 0.0000 0.0000 0.0000 0.0000 0.0000 27.1254
#
#
#
# Elastic Compliance Matrix: (Units=1/GPa)
#
#
# Indices 1 2 3 4 5 6 
#
# 1 0.012455 -0.003564 -0.004429 0.000000 0.000000 0.000000
# 2 -0.003564 0.019281 -0.007669 0.000000 0.000000 0.000000
# 3 -0.004429 -0.007669 0.014450 0.000000 0.000000 0.000000
# 4 0.000000 0.000000 0.000000 0.033392 0.000000 0.000000
# 5 0.000000 0.000000 0.000000 0.000000 0.009465 0.000000
# 6 0.000000 0.000000 0.000000 0.000000 0.000000 0.036866
#
#
# Mechanical properties :
#
#
# Convention : Reuss Voigt Hill
#
# Bulk Modulus (GPa) = 67.28283 70.47782 68.88032
# Shear Modulus (GPa) = 30.82858 42.82194 36.82526
#
# Velocity S-wave (km/s) = 3.98416 4.69562 4.35444
# Velocity P-wave (km/s) = 7.47050 8.10476 7.79408
#
# Compressibility (1/GPa) = 0.01486263
#
# Stress axis : x y z
#
# Youngs Moduli (GPa) = 80.29039 51.86412 69.20337
#
# Poissons Ratio (x) = 0.18482 0.30651
# Poissons Ratio (y) = 0.28612 0.53073
# Poissons Ratio (z) = 0.35561 0.39775
#
# Static dielectric constant tensor:
#      x y z
#    x 3.589730 0.000000 0.000000 
#    y 0.000000 3.572540 0.000000 
#    z 0.000000 0.000000 3.647360 
# 
# 
# High freq. dielectric constant tensor:
#      x y z
#    x 1.758350 0.000000 0.000000 
#    y 0.000000 1.759330 0.000000 
#    z 0.000000 0.000000 1.760050 
# 
# From -- ./inp_files/11835.got.cif
#   From: 2010.03.12/outbox.cif.g09.slc.cpg/sg65_6_cif.got.tgz:11835.got - 2010.04.10 20:52:16.
