data_PCOD8273028
_publ_section_title
;
Structure prediction by ZEFSAII (Michael W. Deem and Ramdas Pophale) SiO2 
 PCOD8273028
Probable space group: C M M M
;
_chemical_formula_sum "Si O2"
_cell_formula_units_Z 88
_cell_length_a 18.655988
_cell_length_b 7.999255
_cell_length_c 30.032291
_cell_angle_alpha 90.000000
_cell_angle_beta 90.000000
_cell_angle_gamma 90.000000
_cell_volume 4481.839074
_symmetry_space_group_name_H-M "C M M M"
_symmetry_group_IT_number 65
_symmetry_cell_setting 'orthorhombic'
loop_
_space_group_symop_operation_xyz
x,y,z
-x,-y,z
x,-y,-z
-x,y,-z
-x,-y,-z
x,y,-z
-x,y,z
x,-y,z
1/2+x,1/2+y,z
1/2-x,1/2-y,z
1/2+x,1/2-y,-z
1/2-x,1/2+y,-z
1/2-x,1/2-y,-z
1/2+x,1/2+y,-z
1/2-x,1/2+y,z
1/2+x,1/2-y,z
loop_
_atom_site_type_symbol
_atom_site_label
_atom_site_fract_x
_atom_site_fract_y
_atom_site_fract_z
Si Si1 0.171116 0.197881 0.950561
Si Si2 0.331769 0.803594 0.213302
Si Si3 0.585594 0.000000 0.449524
Si Si4 0.914875 0.185475 0.605907
Si Si5 0.920945 0.804924 0.870432
Si Si6 0.081871 0.696937 0.701159
O O1 0.250000 0.250000 0.935075
O O2 0.115745 0.274248 0.914582
O O3 0.166183 0.000000 0.951240
O O4 0.153939 0.269910 0.000000
O O5 0.250000 0.750000 0.213370
O O6 0.371895 0.722491 0.172115
O O7 0.368875 0.739045 0.258522
O O8 0.339519 0.000000 0.209107
O O9 0.616227 0.831925 0.425839
O O10 0.500000 0.000000 0.447577
O O11 0.613621 0.000000 0.500000
O O12 0.889406 0.214209 0.656556
O O13 0.000000 0.196193 0.604418
O O14 0.888983 0.000000 0.590243
O O15 0.000000 0.723847 0.863891
O O16 0.929179 0.000000 0.878221
O O17 0.087971 0.500000 0.693534
O O18 0.000000 0.748101 0.711775
#
# Coordination Sequence:
#
# PCOD8273028 Si02
#       6
#    16  16   8  16  16  16
#     4   9  18  33  53  76 102 135 174 216 265 319
#     4  11  23  37  54  76 105 140 173 216 265 319
#     4   9  16  26  40  62 100 142 176 218 266 316
#     4   9  16  26  43  67  95 133 177 218 264 317
#     4  10  21  36  54  77 105 136 174 219 265 318
#     4   9  17  32  52  71  96 133 174 215 262 319
#
# _framework density 19.634798
#
# number of rings (size 3 to 8) (size 9 to 14) (size 15 to 20)
#    0.000    2.455    0.909    1.636    0.000    5.455 
#    0.000    5.455    0.000    0.000    0.000    3.818 
#    0.000    0.727    0.364    0.000    0.000    0.000 
#
# Total GULP energy -545462.273030 kJ/mol
# GULP energy per Si atom -12396.869842 kJ/mol
# Density = 1.959011 g / cm^3
# Si number density = 19.634798 Si / 1000 Ang^3
#
#
#
# Elastic Constant Matrix: (Units=GPa)
#
#
# Indices 1 2 3 4 5 6 
#
# 1 104.8784 19.7873 69.3637 0.0000 0.0000 0.0000
# 2 19.7873 70.2261 50.7702 0.0000 0.0000 0.0000
# 3 69.3637 50.7702 160.6025 0.0000 0.0000 0.0000
# 4 0.0000 0.0000 0.0000 21.5915 0.0000 0.0000
# 5 0.0000 0.0000 0.0000 0.0000 8.9641 0.0000
# 6 0.0000 0.0000 0.0000 0.0000 0.0000 14.3007
#
#
#
# Elastic Compliance Matrix: (Units=1/GPa)
#
#
# Indices 1 2 3 4 5 6 
#
# 1 0.013363 0.000528 -0.005938 0.000000 0.000000 0.000000
# 2 0.000528 0.018479 -0.006070 0.000000 0.000000 0.000000
# 3 -0.005938 -0.006070 0.010710 0.000000 0.000000 0.000000
# 4 0.000000 0.000000 0.000000 0.046315 0.000000 0.000000
# 5 0.000000 0.000000 0.000000 0.000000 0.111556 0.000000
# 6 0.000000 0.000000 0.000000 0.000000 0.000000 0.069927
#
#
# Mechanical properties :
#
#
# Convention : Reuss Voigt Hill
#
# Bulk Modulus (GPa) = 51.04177 68.39439 59.71808
# Shear Modulus (GPa) = 16.67559 22.02364 19.34962
#
# Velocity S-wave (km/s) = 2.91742 3.35276 3.14263
# Velocity P-wave (km/s) = 6.11559 7.06377 6.60671
#
# Compressibility (1/GPa) = 0.01959180
#
# Stress axis : x y z
#
# Youngs Moduli (GPa) = 74.83586 54.11533 93.37092
#
# Poissons Ratio (x) = -0.02857 0.55445
# Poissons Ratio (y) = -0.03950 0.56673
# Poissons Ratio (z) = 0.44439 0.32846
#
# Static dielectric constant tensor:
#      x y z
#    x 3.414570 0.000000 0.000000 
#    y 0.000000 3.591610 0.000000 
#    z 0.000000 0.000000 3.818240 
# 
# 
# High freq. dielectric constant tensor:
#      x y z
#    x 1.727550 0.000000 0.000000 
#    y 0.000000 1.761210 0.000000 
#    z 0.000000 0.000000 1.773750 
# 
# From -- ./inp_files/77900.got.cif
#   From: 2010.03.12/outbox.cif.g09.slc.cpg/sg65_39_cif.got.tgz:77900.got - 2010.04.10 20:52:16.
