data_PCOD8273830
_publ_section_title
;
Structure prediction by ZEFSAII (Michael W. Deem and Ramdas Pophale) SiO2 
 PCOD8273830
Probable space group: C M M M
;
_chemical_formula_sum "Si O2"
_cell_formula_units_Z 96
_cell_length_a 17.942328
_cell_length_b 14.119175
_cell_length_c 18.820834
_cell_angle_alpha 90.000000
_cell_angle_beta 90.000000
_cell_angle_gamma 90.000000
_cell_volume 4767.898231
_symmetry_space_group_name_H-M "C M M M"
_symmetry_group_IT_number 65
_symmetry_cell_setting 'orthorhombic'
loop_
_space_group_symop_operation_xyz
x,y,z
-x,-y,z
x,-y,-z
-x,y,-z
-x,-y,-z
x,y,-z
-x,y,z
x,-y,z
1/2+x,1/2+y,z
1/2-x,1/2-y,z
1/2+x,1/2-y,-z
1/2-x,1/2+y,-z
1/2-x,1/2-y,-z
1/2+x,1/2+y,-z
1/2-x,1/2+y,z
1/2+x,1/2-y,z
loop_
_atom_site_type_symbol
_atom_site_label
_atom_site_fract_x
_atom_site_fract_y
_atom_site_fract_z
Si Si1 0.363949 0.111087 0.678006
Si Si2 0.914087 0.703213 0.176288
Si Si3 0.296875 0.110735 0.081361
Si Si4 0.416484 0.740564 0.418855
Si Si5 0.657713 0.393869 0.175743
Si Si6 0.196088 0.895468 0.338515
O O1 0.376256 0.162952 0.752730
O O2 0.417624 0.156274 0.618408
O O3 0.281500 0.132601 0.647835
O O4 0.380466 0.000000 0.686975
O O5 0.871413 0.660876 0.108938
O O6 0.909004 0.817846 0.172481
O O7 0.000000 0.672957 0.173215
O O8 0.223699 0.142806 0.124492
O O9 0.309360 0.000000 0.091628
O O10 0.284250 0.139526 0.000000
O O11 0.390259 0.750015 0.500000
O O12 0.500000 0.698211 0.414408
O O13 0.360271 0.674340 0.376494
O O14 0.629950 0.500000 0.153852
O O15 0.688931 0.395607 0.254456
O O16 0.179431 0.000000 0.369165
#
# Coordination Sequence:
#
# PCOD8273830 Si02
#       6
#    16  16  16  16  16  16
#     4  11  23  40  62  89 120 160 211 258 298 354
#     4  12  24  37  60  93 127 165 206 251 309 365
#     4  10  22  41  65  93 125 164 208 253 302 355
#     4  11  25  42  61  91 127 161 198 246 310 373
#     4  10  21  39  63  91 122 160 207 254 300 360
#     4  10  21  39  65  90 117 158 206 253 302 357
#
# _framework density 20.134658999999999
#
# number of rings (size 3 to 8) (size 9 to 14) (size 15 to 20)
#    0.000    1.333    3.333    2.000    0.000    6.667 
#    0.000    5.833    0.000    0.000    0.000    3.500 
#    0.000    0.000    0.000    0.000    0.000    0.000 
#
# Total GULP energy -595211.932680 kJ/mol
# GULP energy per Si atom -12400.248598 kJ/mol
# Density = 2.008883 g / cm^3
# Si number density = 20.134659 Si / 1000 Ang^3
#
#
#
# Elastic Constant Matrix: (Units=GPa)
#
#
# Indices 1 2 3 4 5 6 
#
# 1 95.3445 55.6449 42.2460 0.0000 0.0000 0.0000
# 2 55.6449 109.7622 47.4559 0.0000 0.0000 0.0000
# 3 42.2460 47.4559 120.8508 0.0000 0.0000 0.0000
# 4 0.0000 0.0000 0.0000 38.5059 0.0000 0.0000
# 5 0.0000 0.0000 0.0000 0.0000 20.0474 0.0000
# 6 0.0000 0.0000 0.0000 0.0000 0.0000 23.2743
#
#
#
# Elastic Compliance Matrix: (Units=1/GPa)
#
#
# Indices 1 2 3 4 5 6 
#
# 1 0.015665 -0.006714 -0.002840 0.000000 0.000000 0.000000
# 2 -0.006714 0.013851 -0.003092 0.000000 0.000000 0.000000
# 3 -0.002840 -0.003092 0.010482 0.000000 0.000000 0.000000
# 4 0.000000 0.000000 0.000000 0.025970 0.000000 0.000000
# 5 0.000000 0.000000 0.000000 0.000000 0.049882 0.000000
# 6 0.000000 0.000000 0.000000 0.000000 0.000000 0.042966
#
#
# Mechanical properties :
#
#
# Convention : Reuss Voigt Hill
#
# Bulk Modulus (GPa) = 67.99726 68.51679 68.25703
# Shear Modulus (GPa) = 26.45393 28.40624 27.43008
#
# Velocity S-wave (km/s) = 3.62864 3.76015 3.69498
# Velocity P-wave (km/s) = 7.16942 7.27701 7.22341
#
# Compressibility (1/GPa) = 0.01470647
#
# Stress axis : x y z
#
# Youngs Moduli (GPa) = 63.83789 72.19680 95.40577
#
# Poissons Ratio (x) = 0.48470 0.27091
# Poissons Ratio (y) = 0.42858 0.29501
# Poissons Ratio (z) = 0.18127 0.22324
#
# Static dielectric constant tensor:
#      x y z
#    x 3.529470 0.000000 0.000000 
#    y 0.000000 4.028030 0.000000 
#    z 0.000000 0.000000 3.665570 
# 
# 
# High freq. dielectric constant tensor:
#      x y z
#    x 1.776340 0.000000 0.000000 
#    y 0.000000 1.800950 0.000000 
#    z 0.000000 0.000000 1.781480 
# 
# From -- ./inp_files/62607.got.cif
#   From: 2010.03.12/outbox.cif.g09.slc.cpg/sg65_32_cif.got.tgz:62607.got - 2010.04.10 20:52:16.
