data_PCOD8273887
_publ_section_title
;
Structure prediction by ZEFSAII (Michael W. Deem and Ramdas Pophale) SiO2 
 PCOD8273887
Probable space group: C M M M
;
_chemical_formula_sum "Si O2"
_cell_formula_units_Z 64
_cell_length_a 23.582963
_cell_length_b 15.443907
_cell_length_c 9.102708
_cell_angle_alpha 90.000000
_cell_angle_beta 90.000000
_cell_angle_gamma 90.000000
_cell_volume 3315.325384
_symmetry_space_group_name_H-M "C M M M"
_symmetry_group_IT_number 65
_symmetry_cell_setting 'orthorhombic'
loop_
_space_group_symop_operation_xyz
x,y,z
-x,-y,z
x,-y,-z
-x,y,-z
-x,-y,-z
x,y,-z
-x,y,z
x,-y,z
1/2+x,1/2+y,z
1/2-x,1/2-y,z
1/2+x,1/2-y,-z
1/2-x,1/2+y,-z
1/2-x,1/2-y,-z
1/2+x,1/2+y,-z
1/2-x,1/2+y,z
1/2+x,1/2-y,z
loop_
_atom_site_type_symbol
_atom_site_label
_atom_site_fract_x
_atom_site_fract_y
_atom_site_fract_z
Si Si1 0.000000 0.140633 0.167479
Si Si2 0.104359 0.600045 0.832877
Si Si3 0.771721 0.655798 0.829798
Si Si4 0.000000 0.319050 0.327188
Si Si5 0.906742 0.000000 0.832036
Si Si6 0.289871 0.500000 0.673736
O O1 0.000000 0.220745 0.275520
O O2 0.056003 0.084918 0.198140
O O3 0.000000 0.174014 0.000000
O O4 0.117967 0.500000 0.802992
O O5 0.161153 0.653760 0.799561
O O6 0.055478 0.631420 0.726308
O O7 0.084168 0.614906 0.000000
O O8 0.750000 0.750000 0.783307
O O9 0.740091 0.585627 0.732579
O O10 0.758532 0.635496 0.000000
O O11 0.000000 0.320561 0.500000
O O12 0.855074 0.000000 0.720828
O O13 0.884799 0.000000 0.000000
O O14 0.285993 0.500000 0.500000
#
# Coordination Sequence:
#
# PCOD8273887 Si02
#       6
#     8  16  16   8   8   8
#     4   9  20  41  65  89 114 154 209 258 297 342
#     4  10  21  41  65  88 116 154 206 258 300 350
#     4  10  22  42  68  94 120 160 215 263 301 355
#     4  12  26  38  57  90 128 159 192 241 308 379
#     4   9  20  40  66  88 115 157 209 256 293 347
#     4  12  25  39  61  95 135 168 195 244 316 386
#
# _framework density 19.304288
#
# number of rings (size 3 to 8) (size 9 to 14) (size 15 to 20)
#    0.000    1.750    1.250    3.375    3.500    4.500 
#    0.000    1.250    0.000    0.000    0.000    0.000 
#    0.000    0.000    0.000    0.000    0.000    0.000 
#
# Total GULP energy -396957.553624 kJ/mol
# GULP energy per Si atom -12404.923551 kJ/mol
# Density = 1.926035 g / cm^3
# Si number density = 19.304288 Si / 1000 Ang^3
#
#
#
# Elastic Constant Matrix: (Units=GPa)
#
#
# Indices 1 2 3 4 5 6 
#
# 1 131.3324 70.8532 78.8493 0.0000 0.0000 0.0000
# 2 70.8532 131.3637 75.0638 0.0000 0.0000 0.0000
# 3 78.8493 75.0638 137.0589 0.0000 0.0000 0.0000
# 4 0.0000 0.0000 0.0000 2.6613 0.0000 0.0000
# 5 0.0000 0.0000 0.0000 0.0000 0.4780 0.0000
# 6 0.0000 0.0000 0.0000 0.0000 0.0000 29.3664
#
#
#
# Elastic Compliance Matrix: (Units=1/GPa)
#
#
# Indices 1 2 3 4 5 6 
#
# 1 0.012905 -0.003956 -0.005257 0.000000 0.000000 0.000000
# 2 -0.003956 0.012293 -0.004456 0.000000 0.000000 0.000000
# 3 -0.005257 -0.004456 0.012761 0.000000 0.000000 0.000000
# 4 0.000000 0.000000 0.000000 0.375750 0.000000 0.000000
# 5 0.000000 0.000000 0.000000 0.000000 2.092015 0.000000
# 6 0.000000 0.000000 0.000000 0.000000 0.000000 0.034052
#
#
# Mechanical properties :
#
#
# Convention : Reuss Voigt Hill
#
# Bulk Modulus (GPa) = 94.17166 94.36528 94.26847
# Shear Modulus (GPa) = 1.94503 18.16707 10.05605
#
# Velocity S-wave (km/s) = 1.00486 3.07105 2.28485
# Velocity P-wave (km/s) = 7.08767 7.84629 7.47661
#
# Compressibility (1/GPa) = 0.01061891
#
# Stress axis : x y z
#
# Youngs Moduli (GPa) = 77.48807 81.34782 78.36137
#
# Poissons Ratio (x) = 0.32185 0.41198
# Poissons Ratio (y) = 0.30658 0.34921
# Poissons Ratio (z) = 0.40739 0.36252
#
# Static dielectric constant tensor:
#      x y z
#    x 3.614260 0.000000 0.000000 
#    y 0.000000 3.602110 0.000000 
#    z 0.000000 0.000000 3.385240 
# 
# 
# High freq. dielectric constant tensor:
#      x y z
#    x 1.765350 0.000000 0.000000 
#    y 0.000000 1.763090 0.000000 
#    z 0.000000 0.000000 1.736600 
# 
# From -- ./inp_files/6834.got.cif
#   From: 2010.03.12/outbox.cif.g09.slc.cpg/sg65_4_cif.got.tgz:6834.got - 2010.04.10 20:52:16.
