data_PCOD8273358
_publ_section_title
;
Structure prediction by ZEFSAII (Michael W. Deem and Ramdas Pophale) SiO2 
 PCOD8273358
Probable space group: C M M M
;
_chemical_formula_sum "Si O2"
_cell_formula_units_Z 72
_cell_length_a 15.207998
_cell_length_b 8.719931
_cell_length_c 26.339922
_cell_angle_alpha 90.000000
_cell_angle_beta 90.000000
_cell_angle_gamma 90.000000
_cell_volume 3493.007995
_symmetry_space_group_name_H-M "C M M M"
_symmetry_group_IT_number 65
_symmetry_cell_setting 'orthorhombic'
loop_
_space_group_symop_operation_xyz
x,y,z
-x,-y,z
x,-y,-z
-x,y,-z
-x,-y,-z
x,y,-z
-x,y,z
x,-y,z
1/2+x,1/2+y,z
1/2-x,1/2-y,z
1/2+x,1/2-y,-z
1/2-x,1/2+y,-z
1/2-x,1/2-y,-z
1/2+x,1/2+y,-z
1/2-x,1/2+y,z
1/2+x,1/2-y,z
loop_
_atom_site_type_symbol
_atom_site_label
_atom_site_fract_x
_atom_site_fract_y
_atom_site_fract_z
Si Si1 0.344923 0.819971 0.056352
Si Si2 0.162687 0.320565 0.252069
Si Si3 0.000000 0.817530 0.429527
Si Si4 0.000000 0.680961 0.320349
Si Si5 0.901789 0.829601 0.845860
Si Si6 0.648196 0.185336 0.500000
O O1 0.250000 0.750000 0.065019
O O2 0.407095 0.750373 0.099227
O O3 0.339617 0.000000 0.063483
O O4 0.380970 0.778192 0.000000
O O5 0.170518 0.500000 0.249941
O O6 0.250000 0.250000 0.276942
O O7 0.155586 0.262966 0.194314
O O8 0.083448 0.268439 0.287575
O O9 0.909564 0.744488 0.452026
O O10 0.000000 0.782296 0.370419
O O11 0.000000 0.000000 0.439680
O O12 0.000000 0.500000 0.333199
O O13 0.000000 0.835435 0.824287
O O14 0.862048 0.000000 0.851383
O O15 0.750000 0.250000 0.500000
O O16 0.652942 0.000000 0.500000
#
# Coordination Sequence:
#
# PCOD8273358 Si02
#       6
#    16  16   8   8  16   8
#     4  10  21  37  57  80 108 143 185 235 293 360
#     4  11  23  41  64  89 120 160 206 256 310 370
#     4  11  23  40  65  98 136 177 219 269 324 377
#     4  10  23  43  64  90 128 171 214 263 316 370
#     4  11  23  38  58  83 113 149 192 244 300 364
#     4  11  22  41  68  98 136 179 226 273 318 376
#
# _framework density 20.612608000000002
#
# number of rings (size 3 to 8) (size 9 to 14) (size 15 to 20)
#    0.000    1.333    1.111    5.333    0.000    5.778 
#    0.000    4.444    0.000    0.000    0.000    0.000 
#    0.000    0.000    0.000    0.000    0.000    0.000 
#
# Total GULP energy -446319.580373 kJ/mol
# GULP energy per Si atom -12397.766121 kJ/mol
# Density = 2.056569 g / cm^3
# Si number density = 20.612608 Si / 1000 Ang^3
#
#
#
# Elastic Constant Matrix: (Units=GPa)
#
#
# Indices 1 2 3 4 5 6 
#
# 1 146.2006 58.7207 57.9195 0.0000 0.0000 0.0000
# 2 58.7207 121.3810 62.7651 0.0000 0.0000 0.0000
# 3 57.9195 62.7651 139.5907 0.0000 0.0000 0.0000
# 4 0.0000 0.0000 0.0000 33.2126 0.0000 0.0000
# 5 0.0000 0.0000 0.0000 0.0000 -12.1059 0.0000
# 6 0.0000 0.0000 0.0000 0.0000 0.0000 32.7996
#
#
#
# Elastic Compliance Matrix: (Units=1/GPa)
#
#
# Indices 1 2 3 4 5 6 
#
# 1 0.009033 -0.003169 -0.002323 0.000000 0.000000 0.000000
# 2 -0.003169 0.011846 -0.004012 0.000000 0.000000 0.000000
# 3 -0.002323 -0.004012 0.009932 0.000000 0.000000 0.000000
# 4 0.000000 0.000000 0.000000 0.030109 0.000000 0.000000
# 5 0.000000 0.000000 0.000000 0.000000 -0.082605 0.000000
# 6 0.000000 0.000000 0.000000 0.000000 0.000000 0.030488
#
#
# Mechanical properties :
#
#
# Convention : Reuss Voigt Hill
#
# Bulk Modulus (GPa) = 84.72127 85.10922 84.91524
# Shear Modulus (GPa) = 157.51005 25.96574 91.73790
#
# Velocity S-wave (km/s) = 8.75102 3.55308 6.67850
# Velocity P-wave (km/s) = 11.97071 7.62968 10.03768
#
# Compressibility (1/GPa) = 0.01180341
#
# Stress axis : x y z
#
# Youngs Moduli (GPa) = 110.70588 84.41878 100.68930
#
# Poissons Ratio (x) = 0.26748 0.23393
# Poissons Ratio (y) = 0.35077 0.40392
# Poissons Ratio (z) = 0.25720 0.33865
#
# Static dielectric constant tensor:
#      x y z
#    x 3.838270 0.000000 0.000000 
#    y 0.000000 3.848540 0.000000 
#    z 0.000000 0.000000 3.754300 
# 
# 
# High freq. dielectric constant tensor:
#      x y z
#    x 1.811450 0.000000 0.000000 
#    y 0.000000 1.819070 0.000000 
#    z 0.000000 0.000000 1.804270 
# 
# From -- ./inp_files/74628.got.cif
#   From: 2010.03.12/outbox.cif.g09.slc.cpg/sg65_38_cif.got.tgz:74628.got - 2010.04.10 20:52:16.
