data_PCOD8273188
_publ_section_title
;
Structure prediction by ZEFSAII (Michael W. Deem and Ramdas Pophale) SiO2 
 PCOD8273188
Probable space group: C M M M
;
_chemical_formula_sum "Si O2"
_cell_formula_units_Z 96
_cell_length_a 20.021838
_cell_length_b 24.434887
_cell_length_c 9.365717
_cell_angle_alpha 90.000000
_cell_angle_beta 90.000000
_cell_angle_gamma 90.000000
_cell_volume 4582.002363
_symmetry_space_group_name_H-M "C M M M"
_symmetry_group_IT_number 65
_symmetry_cell_setting 'orthorhombic'
loop_
_space_group_symop_operation_xyz
x,y,z
-x,-y,z
x,-y,-z
-x,y,-z
-x,-y,-z
x,y,-z
-x,y,z
x,-y,z
1/2+x,1/2+y,z
1/2-x,1/2-y,z
1/2+x,1/2-y,-z
1/2-x,1/2+y,-z
1/2-x,1/2-y,-z
1/2+x,1/2+y,-z
1/2-x,1/2+y,z
1/2+x,1/2-y,z
loop_
_atom_site_type_symbol
_atom_site_label
_atom_site_fract_x
_atom_site_fract_y
_atom_site_fract_z
Si Si1 0.073267 0.674792 0.663228
Si Si2 0.672157 0.752556 0.168240
Si Si3 0.073605 0.843461 0.162139
Si Si4 0.749560 0.063951 0.843059
Si Si5 0.123373 0.560801 0.339415
Si Si6 0.124091 0.936643 0.667592
O O1 0.086265 0.692644 0.500000
O O2 0.134266 0.697183 0.757057
O O3 0.068831 0.608447 0.674689
O O4 0.000000 0.696093 0.713627
O O5 0.750000 0.750000 0.217811
O O6 0.631475 0.698132 0.213441
O O7 0.667978 0.762363 0.000000
O O8 0.069204 0.897077 0.262990
O O9 0.000000 0.815560 0.172588
O O10 0.088137 0.862270 0.000000
O O11 0.680293 0.078317 0.770424
O O12 0.807943 0.084703 0.740574
O O13 0.757484 0.000000 0.862722
O O14 0.753493 0.092495 0.000000
O O15 0.153335 0.559540 0.500000
O O16 0.094010 0.500000 0.302963
O O17 0.129119 0.926833 0.500000
O O18 0.107153 0.000000 0.701168
#
# Coordination Sequence:
#
# PCOD8273188 Si02
#       6
#    16  16  16  16  16  16
#     4  10  22  39  60  89 124 161 201 245 296 355
#     4  10  23  43  66  91 117 150 198 253 306 359
#     4  10  22  40  61  86 119 158 198 242 295 355
#     4   9  17  30  50  77 111 152 196 241 287 337
#     4   9  18  33  54  83 121 161 199 240 289 346
#     4  10  21  36  56  85 121 158 195 238 292 351
#
# _framework density 20.951539
#
# number of rings (size 3 to 8) (size 9 to 14) (size 15 to 20)
#    0.000    2.333    0.000    1.500    2.333    6.667 
#    0.000    3.333    0.000    0.000    0.000    3.500 
#    0.000    0.000    0.000    0.000    0.000    0.000 
#
# Total GULP energy -594827.179964 kJ/mol
# GULP energy per Si atom -12392.232916 kJ/mol
# Density = 2.090385 g / cm^3
# Si number density = 20.951539 Si / 1000 Ang^3
#
#
#
# Elastic Constant Matrix: (Units=GPa)
#
#
# Indices 1 2 3 4 5 6 
#
# 1 131.3826 48.4213 45.3234 0.0000 0.0000 0.0000
# 2 48.4213 103.7846 46.4334 0.0000 0.0000 0.0000
# 3 45.3234 46.4334 88.2060 0.0000 0.0000 0.0000
# 4 0.0000 0.0000 0.0000 28.5293 0.0000 0.0000
# 5 0.0000 0.0000 0.0000 0.0000 20.3333 0.0000
# 6 0.0000 0.0000 0.0000 0.0000 0.0000 25.7168
#
#
#
# Elastic Compliance Matrix: (Units=1/GPa)
#
#
# Indices 1 2 3 4 5 6 
#
# 1 0.009951 -0.003081 -0.003492 0.000000 0.000000 0.000000
# 2 -0.003081 0.013558 -0.005554 0.000000 0.000000 0.000000
# 3 -0.003492 -0.005554 0.016055 0.000000 0.000000 0.000000
# 4 0.000000 0.000000 0.000000 0.035052 0.000000 0.000000
# 5 0.000000 0.000000 0.000000 0.000000 0.049180 0.000000
# 6 0.000000 0.000000 0.000000 0.000000 0.000000 0.038885
#
#
# Mechanical properties :
#
#
# Convention : Reuss Voigt Hill
#
# Bulk Modulus (GPa) = 65.31163 67.08104 66.19633
# Shear Modulus (GPa) = 26.03664 27.12889 26.58276
#
# Velocity S-wave (km/s) = 3.52903 3.60229 3.56585
# Velocity P-wave (km/s) = 6.91707 7.02771 6.97261
#
# Compressibility (1/GPa) = 0.01531121
#
# Stress axis : x y z
#
# Youngs Moduli (GPa) = 100.49000 73.75984 62.28611
#
# Poissons Ratio (x) = 0.22723 0.21748
# Poissons Ratio (y) = 0.30958 0.34594
# Poissons Ratio (z) = 0.35087 0.40966
#
# Static dielectric constant tensor:
#      x y z
#    x 3.734930 0.000000 0.000000 
#    y 0.000000 3.677970 0.000000 
#    z 0.000000 0.000000 3.817100 
# 
# 
# High freq. dielectric constant tensor:
#      x y z
#    x 1.814780 0.000000 0.000000 
#    y 0.000000 1.814290 0.000000 
#    z 0.000000 0.000000 1.815700 
# 
# From -- ./inp_files/12281.got.cif
#   From: 2010.03.12/outbox.cif.g09.slc.cpg/sg65_7_cif.got.tgz:12281.got - 2010.04.10 20:52:16.
