data_PCOD8273994
_publ_section_title
;
Structure prediction by ZEFSAII (Michael W. Deem and Ramdas Pophale) SiO2 
 PCOD8273994
Probable space group: C M M M
;
_chemical_formula_sum "Si O2"
_cell_formula_units_Z 88
_cell_length_a 18.513970
_cell_length_b 22.119098
_cell_length_c 11.164313
_cell_angle_alpha 90.000000
_cell_angle_beta 90.000000
_cell_angle_gamma 90.000000
_cell_volume 4571.923682
_symmetry_space_group_name_H-M "C M M M"
_symmetry_group_IT_number 65
_symmetry_cell_setting 'orthorhombic'
loop_
_space_group_symop_operation_xyz
x,y,z
-x,-y,z
x,-y,-z
-x,y,-z
-x,-y,-z
x,y,-z
-x,y,z
x,-y,z
1/2+x,1/2+y,z
1/2-x,1/2-y,z
1/2+x,1/2-y,-z
1/2-x,1/2+y,-z
1/2-x,1/2-y,-z
1/2+x,1/2+y,-z
1/2-x,1/2+y,z
1/2+x,1/2-y,z
loop_
_atom_site_type_symbol
_atom_site_label
_atom_site_fract_x
_atom_site_fract_y
_atom_site_fract_z
Si Si1 0.171633 0.892986 0.261857
Si Si2 0.865941 0.284300 0.500000
Si Si3 0.585102 0.500000 0.637399
Si Si4 0.581988 0.290727 0.138725
Si Si5 0.685555 0.930262 0.861089
Si Si6 0.708412 0.334348 0.500000
Si Si7 0.417249 0.833405 0.250998
O O1 0.110760 0.942244 0.288038
O O2 0.135894 0.833162 0.209652
O O3 0.231049 0.918235 0.170443
O O4 0.209926 0.877098 0.385440
O O5 0.782768 0.299772 0.500000
O O6 0.862048 0.210533 0.500000
O O7 0.907296 0.310447 0.386032
O O8 0.500000 0.500000 0.636710
O O9 0.614297 0.500000 0.500000
O O10 0.500000 0.301810 0.182879
O O11 0.603932 0.221338 0.162471
O O12 0.590128 0.305369 0.000000
O O13 0.633074 0.890145 0.779059
O O14 0.667009 0.000000 0.834733
O O15 0.673117 0.914444 0.000000
O O16 0.500000 0.853504 0.232299
#
# Coordination Sequence:
#
# PCOD8273994 Si02
#       7
#    16   8   8  16  16   8  16
#     4  12  21  41  62  90 125 161 208 256 308 370
#     4  11  21  40  59  96 131 155 197 249 317 384
#     4  11  24  38  59  91 126 167 205 246 306 376
#     4  10  22  39  60  89 125 163 203 252 310 371
#     4  11  25  43  65  91 122 166 217 263 313 371
#     4  11  22  35  65  92 124 165 195 253 315 365
#     4  11  23  41  65  92 126 163 205 260 318 375
#
# _framework density 19.247914999999999
#
# number of rings (size 3 to 8) (size 9 to 14) (size 15 to 20)
#    0.000    1.000    5.455    1.909    0.000    2.182 
#    0.000    4.091    0.000    3.273    0.000    0.000 
#    0.000    0.000    0.000    0.000    0.000    0.000 
#
# Total GULP energy -545739.747767 kJ/mol
# GULP energy per Si atom -12403.176086 kJ/mol
# Density = 1.920411 g / cm^3
# Si number density = 19.247915 Si / 1000 Ang^3
#
#
#
# Elastic Constant Matrix: (Units=GPa)
#
#
# Indices 1 2 3 4 5 6 
#
# 1 84.3203 38.5798 19.2838 0.0000 0.0000 0.0000
# 2 38.5798 85.8962 16.6858 0.0000 0.0000 0.0000
# 3 19.2838 16.6858 66.4331 0.0000 0.0000 0.0000
# 4 0.0000 0.0000 0.0000 27.9700 0.0000 0.0000
# 5 0.0000 0.0000 0.0000 0.0000 33.6447 0.0000
# 6 0.0000 0.0000 0.0000 0.0000 0.0000 36.5829
#
#
#
# Elastic Compliance Matrix: (Units=1/GPa)
#
#
# Indices 1 2 3 4 5 6 
#
# 1 0.015434 -0.006373 -0.002879 0.000000 0.000000 0.000000
# 2 -0.006373 0.014870 -0.001885 0.000000 0.000000 0.000000
# 3 -0.002879 -0.001885 0.016362 0.000000 0.000000 0.000000
# 4 0.000000 0.000000 0.000000 0.035753 0.000000 0.000000
# 5 0.000000 0.000000 0.000000 0.000000 0.029722 0.000000
# 6 0.000000 0.000000 0.000000 0.000000 0.000000 0.027335
#
#
# Mechanical properties :
#
#
# Convention : Reuss Voigt Hill
#
# Bulk Modulus (GPa) = 40.99740 42.86094 41.92917
# Shear Modulus (GPa) = 29.43231 30.44621 29.93926
#
# Velocity S-wave (km/s) = 3.91463 3.98149 3.94820
# Velocity P-wave (km/s) = 6.46362 6.59185 6.52805
#
# Compressibility (1/GPa) = 0.02439179
#
# Stress axis : x y z
#
# Youngs Moduli (GPa) = 64.79297 67.24774 61.11707
#
# Poissons Ratio (x) = 0.42855 0.17598
# Poissons Ratio (y) = 0.41290 0.11521
# Poissons Ratio (z) = 0.18657 0.12677
#
# Static dielectric constant tensor:
#      x y z
#    x 3.433390 0.000000 0.000000 
#    y 0.000000 3.571810 0.000000 
#    z 0.000000 0.000000 3.575570 
# 
# 
# High freq. dielectric constant tensor:
#      x y z
#    x 1.748630 0.000000 0.000000 
#    y 0.000000 1.753170 0.000000 
#    z 0.000000 0.000000 1.758630 
# 
# From -- ./inp_files/26861.got.cif
#   From: 2010.03.12/outbox.cif.g09.slc.cpg/sg65_14_cif.got.tgz:26861.got - 2010.04.10 20:52:16.
