data_PCOD8273974
_publ_section_title
;
Structure prediction by ZEFSAII (Michael W. Deem and Ramdas Pophale) SiO2 
 PCOD8273974
Probable space group: C M M M
;
_chemical_formula_sum "Si O2"
_cell_formula_units_Z 96
_cell_length_a 13.923608
_cell_length_b 22.053307
_cell_length_c 16.376851
_cell_angle_alpha 90.000000
_cell_angle_beta 90.000000
_cell_angle_gamma 90.000000
_cell_volume 5028.702100
_symmetry_space_group_name_H-M "C M M M"
_symmetry_group_IT_number 65
_symmetry_cell_setting 'orthorhombic'
loop_
_space_group_symop_operation_xyz
x,y,z
-x,-y,z
x,-y,-z
-x,y,-z
-x,-y,-z
x,y,-z
-x,y,z
x,-y,z
1/2+x,1/2+y,z
1/2-x,1/2-y,z
1/2+x,1/2-y,-z
1/2-x,1/2+y,-z
1/2-x,1/2-y,-z
1/2+x,1/2+y,-z
1/2-x,1/2+y,z
1/2+x,1/2-y,z
loop_
_atom_site_type_symbol
_atom_site_label
_atom_site_fract_x
_atom_site_fract_y
_atom_site_fract_z
Si Si1 0.111580 0.783399 0.668313
Si Si2 0.891002 0.569710 0.684649
Si Si3 0.707041 0.169158 0.594096
Si Si4 0.894335 0.623187 0.000000
Si Si5 0.139058 0.239393 0.000000
Si Si6 0.393471 0.661225 0.840606
Si Si7 0.221838 0.570917 0.149745
O O1 0.179458 0.828585 0.615850
O O2 0.145824 0.715237 0.649929
O O3 0.129864 0.795608 0.763856
O O4 0.000000 0.792750 0.643618
O O5 0.888807 0.500000 0.660332
O O6 0.834648 0.602975 0.611936
O O7 0.838192 0.582341 0.769142
O O8 0.000000 0.593405 0.692285
O O9 0.692346 0.186152 0.500000
O O10 0.837618 0.601433 0.078410
O O11 0.910500 0.695320 0.000000
O O12 0.000000 0.592984 0.000000
O O13 0.250000 0.250000 0.000000
O O14 0.109567 0.202136 0.920723
O O15 0.500000 0.633692 0.831254
O O16 0.323990 0.603637 0.844082
O O17 0.239086 0.500000 0.132429
#
# Coordination Sequence:
#
# PCOD8273974 Si02
#       7
#    16  16  16   8   8  16  16
#     4  10  22  38  61  90 123 159 194 239 299 360
#     4  10  22  40  61  85 119 160 199 245 299 356
#     4  11  23  38  61  90 121 153 196 252 301 360
#     4  12  25  38  61  92 123 162 199 239 293 348
#     4  12  24  39  60  90 127 162 194 238 290 345
#     4  11  23  41  63  90 122 157 199 245 292 350
#     4  11  23  41  62  87 120 158 202 248 291 345
#
# _framework density 19.090412000000001
#
# number of rings (size 3 to 8) (size 9 to 14) (size 15 to 20)
#    0.000    1.167    3.333    3.000    4.667    4.333 
#    0.000    0.833    0.000    2.500    0.000    1.167 
#    0.000    0.000    0.000    0.000    0.000    0.000 
#
# Total GULP energy -595265.947731 kJ/mol
# GULP energy per Si atom -12401.373911 kJ/mol
# Density = 1.904696 g / cm^3
# Si number density = 19.090412 Si / 1000 Ang^3
#
#
#
# Elastic Constant Matrix: (Units=GPa)
#
#
# Indices 1 2 3 4 5 6 
#
# 1 159.7020 58.5352 44.6500 0.0000 0.0000 0.0000
# 2 58.5352 98.0776 51.0600 0.0000 0.0000 0.0000
# 3 44.6500 51.0600 102.4287 0.0000 0.0000 0.0000
# 4 0.0000 0.0000 0.0000 20.3653 0.0000 0.0000
# 5 0.0000 0.0000 0.0000 0.0000 34.3769 0.0000
# 6 0.0000 0.0000 0.0000 0.0000 0.0000 9.3960
#
#
#
# Elastic Compliance Matrix: (Units=1/GPa)
#
#
# Indices 1 2 3 4 5 6 
#
# 1 0.008189 -0.004091 -0.001531 0.000000 0.000000 0.000000
# 2 -0.004091 0.015813 -0.006099 0.000000 0.000000 0.000000
# 3 -0.001531 -0.006099 0.013471 0.000000 0.000000 0.000000
# 4 0.000000 0.000000 0.000000 0.049103 0.000000 0.000000
# 5 0.000000 0.000000 0.000000 0.000000 0.029089 0.000000
# 6 0.000000 0.000000 0.000000 0.000000 0.000000 0.106428
#
#
# Mechanical properties :
#
#
# Convention : Reuss Voigt Hill
#
# Bulk Modulus (GPa) = 71.26957 74.29985 72.78471
# Shear Modulus (GPa) = 19.98313 26.55852 23.27083
#
# Velocity S-wave (km/s) = 3.23888 3.73392 3.49518
# Velocity P-wave (km/s) = 7.16944 7.58907 7.38224
#
# Compressibility (1/GPa) = 0.01403123
#
# Stress axis : x y z
#
# Youngs Moduli (GPa) = 122.11717 63.24017 74.23575
#
# Poissons Ratio (x) = 0.25868 0.11362
# Poissons Ratio (y) = 0.49952 0.45280
# Poissons Ratio (z) = 0.18691 0.38573
#
# Static dielectric constant tensor:
#      x y z
#    x 3.823240 0.000000 0.000000 
#    y 0.000000 3.119900 0.000000 
#    z 0.000000 0.000000 3.269820 
# 
# 
# High freq. dielectric constant tensor:
#      x y z
#    x 1.761790 0.000000 0.000000 
#    y 0.000000 1.733880 0.000000 
#    z 0.000000 0.000000 1.748610 
# 
# From -- ./inp_files/40434.got.cif
#   From: 2010.03.12/outbox.cif.g09.slc.cpg/sg65_21_cif.got.tgz:40434.got - 2010.04.10 20:52:16.
