data_PCOD8273832
_publ_section_title
;
Structure prediction by ZEFSAII (Michael W. Deem and Ramdas Pophale) SiO2 
 PCOD8273832
Probable space group: C M M M
;
_chemical_formula_sum "Si O2"
_cell_formula_units_Z 88
_cell_length_a 26.859132
_cell_length_b 19.007033
_cell_length_c 8.970638
_cell_angle_alpha 90.000000
_cell_angle_beta 90.000000
_cell_angle_gamma 90.000000
_cell_volume 4579.622009
_symmetry_space_group_name_H-M "C M M M"
_symmetry_group_IT_number 65
_symmetry_cell_setting 'orthorhombic'
loop_
_space_group_symop_operation_xyz
x,y,z
-x,-y,z
x,-y,-z
-x,y,-z
-x,-y,-z
x,y,-z
-x,y,z
x,-y,z
1/2+x,1/2+y,z
1/2-x,1/2-y,z
1/2+x,1/2-y,-z
1/2-x,1/2+y,-z
1/2-x,1/2-y,-z
1/2+x,1/2+y,-z
1/2-x,1/2+y,z
1/2+x,1/2-y,z
loop_
_atom_site_type_symbol
_atom_site_label
_atom_site_fract_x
_atom_site_fract_y
_atom_site_fract_z
Si Si1 0.804047 0.581785 0.326719
Si Si2 0.593889 0.153250 0.325530
Si Si3 0.941461 0.920724 0.831988
Si Si4 0.621904 0.310242 0.327178
Si Si5 0.226237 0.822387 0.823880
Si Si6 0.500000 0.081059 0.823496
O O1 0.795570 0.597466 0.500000
O O2 0.807455 0.500000 0.290877
O O3 0.855166 0.616975 0.271497
O O4 0.757408 0.612490 0.238439
O O5 0.584594 0.140258 0.500000
O O6 0.597641 0.235448 0.285905
O O7 0.548678 0.119736 0.236439
O O8 0.917934 0.869848 0.709937
O O9 0.000000 0.917325 0.810429
O O10 0.922330 0.000000 0.803167
O O11 0.926927 0.897280 0.000000
O O12 0.636527 0.312667 0.500000
O O13 0.670213 0.326702 0.231243
O O14 0.250000 0.750000 0.764512
O O15 0.226860 0.826609 0.000000
O O16 0.500000 0.000000 0.769851
O O17 0.500000 0.086310 0.000000
#
# Coordination Sequence:
#
# PCOD8273832 Si02
#       6
#    16  16  16  16  16   8
#     4  10  21  39  64  90 117 154 198 243 292 345
#     4  10  22  40  62  88 120 158 198 242 294 351
#     4   9  20  40  63  87 119 158 196 239 295 353
#     4  11  23  38  62  91 120 154 197 247 293 345
#     4  11  23  39  60  86 118 156 195 238 294 349
#     4  11  25  41  59  87 122 159 200 247 293 344
#
# _framework density 19.215561000000001
#
# number of rings (size 3 to 8) (size 9 to 14) (size 15 to 20)
#    0.000    1.727    1.818    2.455    1.273    6.182 
#    0.000    0.909    0.000    0.000    0.000    0.000 
#    0.000    0.000    0.000    0.000    0.000    0.000 
#
# Total GULP energy -545819.047073 kJ/mol
# GULP energy per Si atom -12404.978343 kJ/mol
# Density = 1.917183 g / cm^3
# Si number density = 19.215561 Si / 1000 Ang^3
#
#
#
# Elastic Constant Matrix: (Units=GPa)
#
#
# Indices 1 2 3 4 5 6 
#
# 1 91.3301 56.4679 32.5330 0.0000 0.0000 0.0000
# 2 56.4679 126.1665 46.3827 0.0000 0.0000 0.0000
# 3 32.5330 46.3827 52.4992 0.0000 0.0000 0.0000
# 4 0.0000 0.0000 0.0000 33.9379 0.0000 0.0000
# 5 0.0000 0.0000 0.0000 0.0000 -59.6030 0.0000
# 6 0.0000 0.0000 0.0000 0.0000 0.0000 36.4284
#
#
#
# Elastic Compliance Matrix: (Units=1/GPa)
#
#
# Indices 1 2 3 4 5 6 
#
# 1 0.016091 -0.005237 -0.005345 0.000000 0.000000 0.000000
# 2 -0.005237 0.013443 -0.008632 0.000000 0.000000 0.000000
# 3 -0.005345 -0.008632 0.029986 0.000000 0.000000 0.000000
# 4 0.000000 0.000000 0.000000 0.029466 0.000000 0.000000
# 5 0.000000 0.000000 0.000000 0.000000 -0.016778 0.000000
# 6 0.000000 0.000000 0.000000 0.000000 0.000000 0.027451
#
#
# Mechanical properties :
#
#
# Convention : Reuss Voigt Hill
#
# Bulk Modulus (GPa) = 47.40758 60.08480 53.74619
# Shear Modulus (GPa) = 34.45497 11.12679 22.79088
#
# Velocity S-wave (km/s) = 4.23907 2.40896 3.44766
# Velocity P-wave (km/s) = 6.97744 6.25093 6.62415
#
# Compressibility (1/GPa) = 0.02109367
#
# Stress axis : x y z
#
# Youngs Moduli (GPa) = 62.14637 74.38696 33.34902
#
# Poissons Ratio (x) = 0.38956 0.17824
# Poissons Ratio (y) = 0.32546 0.28786
# Poissons Ratio (z) = 0.33214 0.64209
#
# Static dielectric constant tensor:
#      x y z
#    x 3.498500 0.000000 0.000000 
#    y 0.000000 3.730280 0.000000 
#    z 0.000000 0.000000 3.451750 
# 
# 
# High freq. dielectric constant tensor:
#      x y z
#    x 1.754730 0.000000 0.000000 
#    y 0.000000 1.759910 0.000000 
#    z 0.000000 0.000000 1.745530 
# 
# From -- ./inp_files/13974.got.cif
#   From: 2010.03.12/outbox.cif.g09.slc.cpg/sg65_7_cif.got.tgz:13974.got - 2010.04.10 20:52:16.
