data_PCOD8273783
_publ_section_title
;
Structure prediction by ZEFSAII (Michael W. Deem and Ramdas Pophale) SiO2 
 PCOD8273783
Probable space group: C M M M
;
_chemical_formula_sum "Si O2"
_cell_formula_units_Z 48
_cell_length_a 7.764839
_cell_length_b 38.088091
_cell_length_c 7.889882
_cell_angle_alpha 90.000000
_cell_angle_beta 90.000000
_cell_angle_gamma 90.000000
_cell_volume 2333.415989
_symmetry_space_group_name_H-M "C M M M"
_symmetry_group_IT_number 65
_symmetry_cell_setting 'orthorhombic'
loop_
_space_group_symop_operation_xyz
x,y,z
-x,-y,z
x,-y,-z
-x,y,-z
-x,-y,-z
x,y,-z
-x,y,z
x,-y,z
1/2+x,1/2+y,z
1/2-x,1/2-y,z
1/2+x,1/2-y,-z
1/2-x,1/2+y,-z
1/2-x,1/2-y,-z
1/2+x,1/2+y,-z
1/2-x,1/2+y,z
1/2+x,1/2-y,z
loop_
_atom_site_type_symbol
_atom_site_label
_atom_site_fract_x
_atom_site_fract_y
_atom_site_fract_z
Si Si1 0.000000 0.038462 0.695885
Si Si2 0.690807 0.087246 0.800424
Si Si3 0.703946 0.663957 0.809060
Si Si4 0.297677 0.709688 0.500000
O O1 0.172647 0.058940 0.740761
O O2 0.000000 0.032125 0.500000
O O3 0.000000 0.000000 0.786096
O O4 0.500000 0.077263 0.732076
O O5 0.739678 0.126094 0.737442
O O6 0.693797 0.087706 0.000000
O O7 0.500000 0.665263 0.818001
O O8 0.777119 0.692092 0.672692
O O9 0.777965 0.671413 0.000000
O O10 0.500000 0.704112 0.500000
O O11 0.250000 0.750000 0.500000
#
# Coordination Sequence:
#
# PCOD8273783 Si02
#       4
#     8  16  16   8
#     4  11  25  41  59  87 127 167 201 251 313 367
#     4  10  21  38  63  92 117 153 208 257 304 364
#     4   9  18  35  58  83 114 154 200 250 301 360
#     4  10  22  36  54  82 116 155 198 241 301 369
#
# _framework density 20.570701
#
# number of rings (size 3 to 8) (size 9 to 14) (size 15 to 20)
#    0.000    2.167    1.667    0.500    2.333    4.667 
#    0.000    3.333    0.000    0.000    0.000    0.000 
#    0.000    0.000    0.000    0.000    0.000    0.000 
#
# Total GULP energy -297463.878961 kJ/mol
# GULP energy per Si atom -12394.328290 kJ/mol
# Density = 2.052388 g / cm^3
# Si number density = 20.570701 Si / 1000 Ang^3
#
#
#
# Elastic Constant Matrix: (Units=GPa)
#
#
# Indices 1 2 3 4 5 6 
#
# 1 78.3838 57.7104 29.8111 0.0000 0.0000 0.0000
# 2 57.7104 196.9620 74.1008 0.0000 0.0000 0.0000
# 3 29.8111 74.1008 92.8653 0.0000 0.0000 0.0000
# 4 0.0000 0.0000 0.0000 14.1846 0.0000 0.0000
# 5 0.0000 0.0000 0.0000 0.0000 3.6841 0.0000
# 6 0.0000 0.0000 0.0000 0.0000 0.0000 25.2653
#
#
#
# Elastic Compliance Matrix: (Units=1/GPa)
#
#
# Indices 1 2 3 4 5 6 
#
# 1 0.016538 -0.004070 -0.002061 0.000000 0.000000 0.000000
# 2 -0.004070 0.008257 -0.005282 0.000000 0.000000 0.000000
# 3 -0.002061 -0.005282 0.015645 0.000000 0.000000 0.000000
# 4 0.000000 0.000000 0.000000 0.070499 0.000000 0.000000
# 5 0.000000 0.000000 0.000000 0.000000 0.271440 0.000000
# 6 0.000000 0.000000 0.000000 0.000000 0.000000 0.039580
#
#
# Mechanical properties :
#
#
# Convention : Reuss Voigt Hill
#
# Bulk Modulus (GPa) = 56.77588 76.82840 66.80214
# Shear Modulus (GPa) = 11.09491 22.39937 16.74714
#
# Velocity S-wave (km/s) = 2.32492 3.30342 2.85638
# Velocity P-wave (km/s) = 5.90485 7.20969 6.58965
#
# Compressibility (1/GPa) = 0.01761311
#
# Stress axis : x y z
#
# Youngs Moduli (GPa) = 60.46507 121.11126 63.92005
#
# Poissons Ratio (x) = 0.49297 0.13175
# Poissons Ratio (y) = 0.24611 0.33761
# Poissons Ratio (z) = 0.12463 0.63969
#
# Static dielectric constant tensor:
#      x y z
#    x 4.215230 0.000000 0.000000 
#    y 0.000000 4.824260 0.000000 
#    z 0.000000 0.000000 4.082500 
# 
# 
# High freq. dielectric constant tensor:
#      x y z
#    x 1.801170 0.000000 0.000000 
#    y 0.000000 1.798870 0.000000 
#    z 0.000000 0.000000 1.808810 
# 
# From -- ./inp_files/3098.got.cif
#   From: 2010.03.12/outbox.cif.g09.slc.cpg/sg65_2_cif.got.tgz:3098.got - 2010.04.10 20:52:16.
