data_PCOD8273070
_publ_section_title
;
Structure prediction by ZEFSAII (Michael W. Deem and Ramdas Pophale) SiO2 
 PCOD8273070
Probable space group: C M M M
;
_chemical_formula_sum "Si O2"
_cell_formula_units_Z 96
_cell_length_a 8.844934
_cell_length_b 23.574810
_cell_length_c 25.116405
_cell_angle_alpha 90.000000
_cell_angle_beta 90.000000
_cell_angle_gamma 90.000000
_cell_volume 5237.213459
_symmetry_space_group_name_H-M "C M M M"
_symmetry_group_IT_number 65
_symmetry_cell_setting 'orthorhombic'
loop_
_space_group_symop_operation_xyz
x,y,z
-x,-y,z
x,-y,-z
-x,y,-z
-x,-y,-z
x,y,-z
-x,y,z
x,-y,z
1/2+x,1/2+y,z
1/2-x,1/2-y,z
1/2+x,1/2-y,-z
1/2-x,1/2+y,-z
1/2-x,1/2-y,-z
1/2+x,1/2+y,-z
1/2-x,1/2+y,z
1/2+x,1/2-y,z
loop_
_atom_site_type_symbol
_atom_site_label
_atom_site_fract_x
_atom_site_fract_y
_atom_site_fract_z
Si Si1 0.676272 0.190790 0.061934
Si Si2 0.678166 0.500000 0.310768
Si Si3 0.820152 0.120651 0.850169
Si Si4 0.823525 0.387767 0.345759
Si Si5 0.677674 0.808903 0.440112
Si Si6 0.177990 0.310551 0.245175
Si Si7 0.679102 0.500000 0.808875
O O1 0.500000 0.193202 0.075896
O O2 0.750000 0.250000 0.080149
O O3 0.755726 0.139166 0.092712
O O4 0.705656 0.179479 0.000000
O O5 0.500000 0.500000 0.307816
O O6 0.732266 0.445600 0.342904
O O7 0.747124 0.500000 0.250906
O O8 0.753395 0.162527 0.806435
O O9 0.764491 0.056238 0.839491
O O10 0.000000 0.125068 0.849669
O O11 0.768019 0.357426 0.399768
O O12 0.782770 0.349000 0.295618
O O13 0.000000 0.401875 0.347546
O O14 0.728055 0.825711 0.500000
O O15 0.500000 0.800511 0.436010
O O16 0.750000 0.750000 0.422092
O O17 0.250000 0.250000 0.256481
O O18 0.000000 0.304441 0.235678
O O19 0.500000 0.500000 0.805471
#
# Coordination Sequence:
#
# PCOD8273070 Si02
#       7
#    16   8  16  16  16  16   8
#     4  10  21  38  59  84 113 145 182 223 270 322
#     4  11  21  37  58  79 106 144 187 227 273 322
#     4  11  21  37  58  80 109 142 182 225 269 322
#     4  10  21  36  54  79 109 142 183 225 272 328
#     4   9  18  34  56  81 110 144 182 226 276 329
#     4  11  22  34  51  78 110 141 175 219 272 326
#     4   9  20  37  56  79 106 142 183 223 268 319
#
# _framework density 18.330358
#
# number of rings (size 3 to 8) (size 9 to 14) (size 15 to 20)
#    0.000    1.833    1.667    2.750    0.000    2.333 
#    0.000    2.500    0.000    5.000    0.000    0.000 
#    0.000    0.000    0.000    0.000    0.000    0.000 
#
# Total GULP energy -595380.751510 kJ/mol
# GULP energy per Si atom -12403.765656 kJ/mol
# Density = 1.828864 g / cm^3
# Si number density = 18.330358 Si / 1000 Ang^3
#
#
#
# Elastic Constant Matrix: (Units=GPa)
#
#
# Indices 1 2 3 4 5 6 
#
# 1 69.3366 54.0557 41.0846 0.0000 0.0000 0.0000
# 2 54.0557 156.3064 73.0039 0.0000 0.0000 0.0000
# 3 41.0846 73.0039 107.4103 0.0000 0.0000 0.0000
# 4 0.0000 0.0000 0.0000 31.2961 0.0000 0.0000
# 5 0.0000 0.0000 0.0000 0.0000 19.9812 0.0000
# 6 0.0000 0.0000 0.0000 0.0000 0.0000 26.0376
#
#
#
# Elastic Compliance Matrix: (Units=1/GPa)
#
#
# Indices 1 2 3 4 5 6 
#
# 1 0.021177 -0.005187 -0.004575 0.000000 0.000000 0.000000
# 2 -0.005187 0.010644 -0.005250 0.000000 0.000000 0.000000
# 3 -0.004575 -0.005250 0.014628 0.000000 0.000000 0.000000
# 4 0.000000 0.000000 0.000000 0.031953 0.000000 0.000000
# 5 0.000000 0.000000 0.000000 0.000000 0.050047 0.000000
# 6 0.000000 0.000000 0.000000 0.000000 0.000000 0.038406
#
#
# Mechanical properties :
#
#
# Convention : Reuss Voigt Hill
#
# Bulk Modulus (GPa) = 60.88235 74.37128 67.62682
# Shear Modulus (GPa) = 24.70922 26.45693 25.58307
#
# Velocity S-wave (km/s) = 3.67549 3.80325 3.73992
# Velocity P-wave (km/s) = 7.16228 7.74255 7.45806
#
# Compressibility (1/GPa) = 0.01642512
#
# Stress axis : x y z
#
# Youngs Moduli (GPa) = 47.22109 93.95278 68.36048
#
# Poissons Ratio (x) = 0.48733 0.31273
# Poissons Ratio (y) = 0.24494 0.35890
# Poissons Ratio (z) = 0.21602 0.49327
#
# Static dielectric constant tensor:
#      x y z
#    x 3.354240 0.000000 0.000000 
#    y 0.000000 3.466650 0.000000 
#    z 0.000000 0.000000 3.530560 
# 
# 
# High freq. dielectric constant tensor:
#      x y z
#    x 1.710890 0.000000 0.000000 
#    y 0.000000 1.712450 0.000000 
#    z 0.000000 0.000000 1.714310 
# 
# From -- ./inp_files/67877.got.cif
#   From: 2010.03.12/outbox.cif.g09.slc.cpg/sg65_34_cif.got.tgz:67877.got - 2010.04.10 20:52:16.
