data_PCOD8273394
_publ_section_title
;
Structure prediction by ZEFSAII (Michael W. Deem and Ramdas Pophale) SiO2 
 PCOD8273394
Probable space group: C M M M
;
_chemical_formula_sum "Si O2"
_cell_formula_units_Z 64
_cell_length_a 18.540775
_cell_length_b 8.937663
_cell_length_c 20.086557
_cell_angle_alpha 90.000000
_cell_angle_beta 90.000000
_cell_angle_gamma 90.000000
_cell_volume 3328.567438
_symmetry_space_group_name_H-M "C M M M"
_symmetry_group_IT_number 65
_symmetry_cell_setting 'orthorhombic'
loop_
_space_group_symop_operation_xyz
x,y,z
-x,-y,z
x,-y,-z
-x,y,-z
-x,-y,-z
x,y,-z
-x,y,z
x,-y,z
1/2+x,1/2+y,z
1/2-x,1/2-y,z
1/2+x,1/2-y,-z
1/2-x,1/2+y,-z
1/2-x,1/2-y,-z
1/2+x,1/2+y,-z
1/2-x,1/2+y,z
1/2+x,1/2-y,z
loop_
_atom_site_type_symbol
_atom_site_label
_atom_site_fract_x
_atom_site_fract_y
_atom_site_fract_z
Si Si1 0.582552 0.172446 0.577282
Si Si2 0.672570 0.676304 0.687429
Si Si3 0.176728 0.674795 0.925645
Si Si4 0.583544 0.825928 0.197722
O O1 0.597802 0.201744 0.500000
O O2 0.500000 0.213115 0.594959
O O3 0.636249 0.276762 0.618072
O O4 0.597363 0.000000 0.595659
O O5 0.682356 0.500000 0.688643
O O6 0.750000 0.750000 0.695291
O O7 0.622378 0.726125 0.747783
O O8 0.191288 0.500000 0.926113
O O9 0.250000 0.750000 0.899993
O O10 0.112689 0.716871 0.875427
O O11 0.155963 0.731366 0.000000
O O12 0.500000 0.785506 0.198839
O O13 0.597241 0.000000 0.214023
#
# Coordination Sequence:
#
# PCOD8273394 Si02
#       4
#    16  16  16  16
#     4   9  19  38  63  88 115 147 181 220 270 327
#     4  12  25  39  57  81 111 147 187 231 276 325
#     4   9  18  33  54  80 109 143 183 225 271 324
#     4  10  21  37  57  81 111 146 183 227 278 330
#
# _framework density 19.22749
#
# number of rings (size 3 to 8) (size 9 to 14) (size 15 to 20)
#    0.000    2.000    0.000    4.500    0.000    8.500 
#    0.000    3.750    0.000    0.000    0.000    5.250 
#    0.000    0.000    0.000    0.000    0.000    0.000 
#
# Total GULP energy -396895.905402 kJ/mol
# GULP energy per Si atom -12402.997044 kJ/mol
# Density = 1.918373 g / cm^3
# Si number density = 19.227490 Si / 1000 Ang^3
#
#
#
# Elastic Constant Matrix: (Units=GPa)
#
#
# Indices 1 2 3 4 5 6 
#
# 1 145.0836 68.5178 75.5633 0.0000 0.0000 0.0000
# 2 68.5178 99.2130 56.7198 0.0000 0.0000 0.0000
# 3 75.5633 56.7198 112.7437 0.0000 0.0000 0.0000
# 4 0.0000 0.0000 0.0000 12.6282 0.0000 0.0000
# 5 0.0000 0.0000 0.0000 0.0000 33.1361 0.0000
# 6 0.0000 0.0000 0.0000 0.0000 0.0000 32.4260
#
#
#
# Elastic Compliance Matrix: (Units=1/GPa)
#
#
# Indices 1 2 3 4 5 6 
#
# 1 0.012304 -0.005310 -0.005575 0.000000 0.000000 0.000000
# 2 -0.005310 0.016440 -0.004712 0.000000 0.000000 0.000000
# 3 -0.005575 -0.004712 0.014977 0.000000 0.000000 0.000000
# 4 0.000000 0.000000 0.000000 0.079188 0.000000 0.000000
# 5 0.000000 0.000000 0.000000 0.000000 0.030179 0.000000
# 6 0.000000 0.000000 0.000000 0.000000 0.000000 0.030839
#
#
# Mechanical properties :
#
#
# Convention : Reuss Voigt Hill
#
# Bulk Modulus (GPa) = 79.82794 84.29356 82.06075
# Shear Modulus (GPa) = 22.80017 26.05402 24.42709
#
# Velocity S-wave (km/s) = 3.44730 3.68508 3.56817
# Velocity P-wave (km/s) = 7.57977 7.87666 7.72964
#
# Compressibility (1/GPa) = 0.01252694
#
# Stress axis : x y z
#
# Youngs Moduli (GPa) = 81.27507 60.82593 66.77063
#
# Poissons Ratio (x) = 0.32299 0.37224
# Poissons Ratio (y) = 0.43158 0.31462
# Poissons Ratio (z) = 0.45310 0.28661
#
# Static dielectric constant tensor:
#      x y z
#    x 3.596230 0.000000 0.000000 
#    y 0.000000 3.427740 0.000000 
#    z 0.000000 0.000000 3.767320 
# 
# 
# High freq. dielectric constant tensor:
#      x y z
#    x 1.751170 0.000000 0.000000 
#    y 0.000000 1.737550 0.000000 
#    z 0.000000 0.000000 1.763550 
# 
# From -- ./inp_files/49035.got.cif
#   From: 2010.03.12/outbox.cif.g09.slc.cpg/sg65_25_cif.got.tgz:49035.got - 2010.04.10 20:52:16.
