data_PCOD8273153
_publ_section_title
;
Structure prediction by ZEFSAII (Michael W. Deem and Ramdas Pophale) SiO2 
 PCOD8273153
Probable space group: C M M M
;
_chemical_formula_sum "Si O2"
_cell_formula_units_Z 88
_cell_length_a 22.204059
_cell_length_b 22.708188
_cell_length_c 8.847294
_cell_angle_alpha 90.000000
_cell_angle_beta 90.000000
_cell_angle_gamma 90.000000
_cell_volume 4460.929020
_symmetry_space_group_name_H-M "C M M M"
_symmetry_group_IT_number 65
_symmetry_cell_setting 'orthorhombic'
loop_
_space_group_symop_operation_xyz
x,y,z
-x,-y,z
x,-y,-z
-x,y,-z
-x,-y,-z
x,y,-z
-x,y,z
x,-y,z
1/2+x,1/2+y,z
1/2-x,1/2-y,z
1/2+x,1/2-y,-z
1/2-x,1/2+y,-z
1/2-x,1/2-y,-z
1/2+x,1/2+y,-z
1/2-x,1/2+y,z
1/2+x,1/2-y,z
loop_
_atom_site_type_symbol
_atom_site_label
_atom_site_fract_x
_atom_site_fract_y
_atom_site_fract_z
Si Si1 0.067861 0.431596 0.668592
Si Si2 0.000000 0.931261 0.820309
Si Si3 0.228628 0.934012 0.174324
Si Si4 0.160334 0.356047 0.825130
Si Si5 0.379950 0.620111 0.678548
Si Si6 0.682445 0.740235 0.678315
O O1 0.093701 0.419089 0.500000
O O2 0.070158 0.500000 0.705251
O O3 0.105415 0.399591 0.797265
O O4 0.000000 0.408093 0.678134
O O5 0.057763 0.896293 0.758644
O O6 0.000000 0.000000 0.766981
O O7 0.000000 0.928095 0.000000
O O8 0.278470 0.887681 0.231423
O O9 0.169289 0.928575 0.276723
O O10 0.254364 0.000000 0.194922
O O11 0.211496 0.922365 0.000000
O O12 0.145848 0.297376 0.730856
O O13 0.164609 0.340201 0.000000
O O14 0.390914 0.620646 0.500000
O O15 0.352794 0.682563 0.738872
O O16 0.685684 0.736105 0.500000
O O17 0.750000 0.750000 0.745878
#
# Coordination Sequence:
#
# PCOD8273153 Si02
#       6
#    16   8  16  16  16  16
#     4   9  19  37  59  82 112 153 197 240 291 348
#     4  11  25  45  67  91 125 165 200 247 314 377
#     4  10  21  36  55  84 122 157 189 234 297 360
#     4  11  22  35  57  87 119 154 196 242 292 354
#     4  11  23  40  64  91 118 154 204 254 297 351
#     4  10  21  40  62  85 118 155 193 240 295 351
#
# _framework density 19.726832000000002
#
# number of rings (size 3 to 8) (size 9 to 14) (size 15 to 20)
#    0.000    1.727    1.818    3.000    0.000    7.273 
#    1.636    0.909    0.000    0.000    0.000    0.000 
#    0.000    0.000    0.000    0.000    0.000    0.000 
#
# Total GULP energy -545608.418590 kJ/mol
# GULP energy per Si atom -12400.191332 kJ/mol
# Density = 1.968193 g / cm^3
# Si number density = 19.726832 Si / 1000 Ang^3
#
#
#
# Elastic Constant Matrix: (Units=GPa)
#
#
# Indices 1 2 3 4 5 6 
#
# 1 112.9827 59.4205 31.5064 0.0000 0.0000 0.0000
# 2 59.4205 114.1845 34.7163 0.0000 0.0000 0.0000
# 3 31.5064 34.7163 37.1211 0.0000 0.0000 0.0000
# 4 0.0000 0.0000 0.0000 29.6858 0.0000 0.0000
# 5 0.0000 0.0000 0.0000 0.0000 35.4930 0.0000
# 6 0.0000 0.0000 0.0000 0.0000 0.0000 30.9513
#
#
#
# Elastic Compliance Matrix: (Units=1/GPa)
#
#
# Indices 1 2 3 4 5 6 
#
# 1 0.013287 -0.004871 -0.006722 0.000000 0.000000 0.000000
# 2 -0.004871 0.014023 -0.008980 0.000000 0.000000 0.000000
# 3 -0.006722 -0.008980 0.041043 0.000000 0.000000 0.000000
# 4 0.000000 0.000000 0.000000 0.033686 0.000000 0.000000
# 5 0.000000 0.000000 0.000000 0.000000 0.028175 0.000000
# 6 0.000000 0.000000 0.000000 0.000000 0.000000 0.032309
#
#
# Mechanical properties :
#
#
# Convention : Reuss Voigt Hill
#
# Bulk Modulus (GPa) = 36.75630 57.28608 47.02119
# Shear Modulus (GPa) = 23.50314 28.46902 25.98608
#
# Velocity S-wave (km/s) = 3.45545 3.80302 3.63339
# Velocity P-wave (km/s) = 5.88161 6.95605 6.44127
#
# Compressibility (1/GPa) = 0.02720622
#
# Stress axis : x y z
#
# Youngs Moduli (GPa) = 75.26114 71.31255 24.36475
#
# Poissons Ratio (x) = 0.34734 0.16378
# Poissons Ratio (y) = 0.36657 0.21881
# Poissons Ratio (z) = 0.50592 0.64042
#
# Static dielectric constant tensor:
#      x y z
#    x 3.571350 0.000000 0.000000 
#    y 0.000000 3.677050 0.000000 
#    z 0.000000 0.000000 3.448080 
# 
# 
# High freq. dielectric constant tensor:
#      x y z
#    x 1.763760 0.000000 0.000000 
#    y 0.000000 1.775800 0.000000 
#    z 0.000000 0.000000 1.762610 
# 
# From -- ./inp_files/11808.got.cif
#   From: 2010.03.12/outbox.cif.g09.slc.cpg/sg65_6_cif.got.tgz:11808.got - 2010.04.10 20:52:16.
