data_PCOD8273353
_publ_section_title
;
Structure prediction by ZEFSAII (Michael W. Deem and Ramdas Pophale) SiO2 
 PCOD8273353
Probable space group: C M M M
;
_chemical_formula_sum "Si O2"
_cell_formula_units_Z 96
_cell_length_a 18.831922
_cell_length_b 9.038861
_cell_length_c 30.895113
_cell_angle_alpha 90.000000
_cell_angle_beta 90.000000
_cell_angle_gamma 90.000000
_cell_volume 5258.939112
_symmetry_space_group_name_H-M "C M M M"
_symmetry_group_IT_number 65
_symmetry_cell_setting 'orthorhombic'
loop_
_space_group_symop_operation_xyz
x,y,z
-x,-y,z
x,-y,-z
-x,y,-z
-x,-y,-z
x,y,-z
-x,y,z
x,-y,z
1/2+x,1/2+y,z
1/2-x,1/2-y,z
1/2+x,1/2-y,-z
1/2-x,1/2+y,-z
1/2-x,1/2-y,-z
1/2+x,1/2+y,-z
1/2-x,1/2+y,z
1/2+x,1/2-y,z
loop_
_atom_site_type_symbol
_atom_site_label
_atom_site_fract_x
_atom_site_fract_y
_atom_site_fract_z
Si Si1 0.915666 0.833107 0.452810
Si Si2 0.580491 0.825809 0.368430
Si Si3 0.082856 0.827334 0.786102
Si Si4 0.822656 0.326274 0.048285
Si Si5 0.582354 0.168554 0.873205
Si Si6 0.826655 0.676179 0.287252
O O1 0.888241 0.775594 0.500000
O O2 0.886433 0.734666 0.413389
O O3 0.000000 0.826431 0.452772
O O4 0.889081 0.000000 0.445498
O O5 0.500000 0.766473 0.360508
O O6 0.630519 0.771482 0.329699
O O7 0.579712 0.000000 0.371691
O O8 0.104577 0.775395 0.834038
O O9 0.129496 0.731915 0.753635
O O10 0.000000 0.794221 0.777162
O O11 0.100457 0.000000 0.780981
O O12 0.810531 0.500000 0.049991
O O13 0.750000 0.250000 0.061699
O O14 0.880589 0.274887 0.083078
O O15 0.847077 0.277189 0.000000
O O16 0.500000 0.180452 0.883035
O O17 0.603969 0.000000 0.861447
O O18 0.818824 0.500000 0.284834
O O19 0.750000 0.750000 0.288203
#
# Coordination Sequence:
#
# PCOD8273353 Si02
#       6
#    16  16  16  16  16  16
#     4   8  14  25  43  70 102 132 163 202 247 294
#     4   9  18  32  51  75 101 131 166 205 252 303
#     4  10  21  37  57  80 105 134 170 211 256 309
#     4   9  18  32  50  73 101 134 171 209 250 298
#     4   9  18  33  53  76 102 133 168 208 254 300
#     4  11  23  38  55  76 104 136 172 214 259 308
#
# _framework density 18.254632999999998
#
# number of rings (size 3 to 8) (size 9 to 14) (size 15 to 20)
#    0.000    2.667    0.000    2.000    0.000    5.000 
#    0.000    6.667    0.000    0.500    0.000    4.667 
#    0.000    0.000    0.000    0.000    0.000    0.000 
#
# Total GULP energy -595080.040098 kJ/mol
# GULP energy per Si atom -12397.500835 kJ/mol
# Density = 1.821308 g / cm^3
# Si number density = 18.254633 Si / 1000 Ang^3
#
#
#
# Elastic Constant Matrix: (Units=GPa)
#
#
# Indices 1 2 3 4 5 6 
#
# 1 75.0629 36.8645 73.3242 0.0000 0.0000 0.0000
# 2 36.8645 49.8442 46.9019 0.0000 0.0000 0.0000
# 3 73.3242 46.9019 155.2166 0.0000 0.0000 0.0000
# 4 0.0000 0.0000 0.0000 29.9504 0.0000 0.0000
# 5 0.0000 0.0000 0.0000 0.0000 1.6245 0.0000
# 6 0.0000 0.0000 0.0000 0.0000 0.0000 23.8012
#
#
#
# Elastic Compliance Matrix: (Units=1/GPa)
#
#
# Indices 1 2 3 4 5 6 
#
# 1 0.029103 -0.012000 -0.010122 0.000000 0.000000 0.000000
# 2 -0.012000 0.032981 -0.004297 0.000000 0.000000 0.000000
# 3 -0.010122 -0.004297 0.012523 0.000000 0.000000 0.000000
# 4 0.000000 0.000000 0.000000 0.033389 0.000000 0.000000
# 5 0.000000 0.000000 0.000000 0.000000 0.615592 0.000000
# 6 0.000000 0.000000 0.000000 0.000000 0.000000 0.042015
#
#
# Mechanical properties :
#
#
# Convention : Reuss Voigt Hill
#
# Bulk Modulus (GPa) = 45.93795 66.03386 55.98591
# Shear Modulus (GPa) = 6.05549 19.27742 12.66646
#
# Velocity S-wave (km/s) = 1.82330 3.25319 2.63701
# Velocity P-wave (km/s) = 5.44539 7.09671 6.32517
#
# Compressibility (1/GPa) = 0.02176849
#
# Stress axis : x y z
#
# Youngs Moduli (GPa) = 34.36026 30.32047 79.85354
#
# Poissons Ratio (x) = 0.36384 0.80831
# Poissons Ratio (y) = 0.41232 0.34315
# Poissons Ratio (z) = 0.34781 0.13029
#
# Static dielectric constant tensor:
#      x y z
#    x 3.020030 0.000000 0.000000 
#    y 0.000000 3.347660 0.000000 
#    z 0.000000 0.000000 3.771670 
# 
# 
# High freq. dielectric constant tensor:
#      x y z
#    x 1.681290 0.000000 0.000000 
#    y 0.000000 1.703720 0.000000 
#    z 0.000000 0.000000 1.724330 
# 
# From -- ./inp_files/75355.got.cif
#   From: 2010.03.12/outbox.cif.g09.slc.cpg/sg65_38_cif.got.tgz:75355.got - 2010.04.10 20:52:16.
