data_PCOD8273584
_publ_section_title
;
Structure prediction by ZEFSAII (Michael W. Deem and Ramdas Pophale) SiO2 
 PCOD8273584
Probable space group: C M M M
;
_chemical_formula_sum "Si O2"
_cell_formula_units_Z 52
_cell_length_a 13.197859
_cell_length_b 26.157971
_cell_length_c 7.350802
_cell_angle_alpha 90.000000
_cell_angle_beta 90.000000
_cell_angle_gamma 90.000000
_cell_volume 2537.711589
_symmetry_space_group_name_H-M "C M M M"
_symmetry_group_IT_number 65
_symmetry_cell_setting 'orthorhombic'
loop_
_space_group_symop_operation_xyz
x,y,z
-x,-y,z
x,-y,-z
-x,y,-z
-x,-y,-z
x,y,-z
-x,y,z
x,-y,z
1/2+x,1/2+y,z
1/2-x,1/2-y,z
1/2+x,1/2-y,-z
1/2-x,1/2+y,-z
1/2-x,1/2-y,-z
1/2+x,1/2+y,-z
1/2-x,1/2+y,z
1/2+x,1/2-y,z
loop_
_atom_site_type_symbol
_atom_site_label
_atom_site_fract_x
_atom_site_fract_y
_atom_site_fract_z
Si Si1 0.713025 0.443254 0.284951
Si Si2 0.000000 0.809139 0.000000
Si Si3 0.500000 0.395225 0.285237
Si Si4 0.850544 0.720303 0.000000
Si Si5 0.615162 0.865287 0.288650
O O1 0.718065 0.444871 0.500000
O O2 0.731354 0.500000 0.204837
O O3 0.601325 0.425255 0.222920
O O4 0.803204 0.406460 0.213055
O O5 0.907831 0.772459 0.000000
O O6 0.000000 0.841777 0.184178
O O7 0.500000 0.385126 0.500000
O O8 0.750000 0.750000 0.000000
O O9 0.870464 0.687052 0.179625
O O10 0.635184 0.853174 0.500000
O O11 0.500000 0.885964 0.259320
#
# Coordination Sequence:
#
# PCOD8273584 Si02
#       5
#    16   4   8   8  16
#     4   9  18  35  61  89 118 156 193 234 295 354
#     4  12  24  38  57  84 109 150 200 236 294 352
#     4  10  21  38  58  86 122 151 192 247 290 348
#     4  12  24  40  60  82 114 152 199 253 295 341
#     4  10  21  39  60  85 120 154 192 242 292 352
#
# _framework density 20.490901000000001
#
# number of rings (size 3 to 8) (size 9 to 14) (size 15 to 20)
#    0.000    1.846    1.538    2.308    0.000    4.308 
#    0.000    6.923    0.000    1.846    0.000    0.000 
#    0.000    0.000    0.000    0.000    0.000    0.000 
#
# Total GULP energy -322143.940690 kJ/mol
# GULP energy per Si atom -12390.151565 kJ/mol
# Density = 2.044426 g / cm^3
# Si number density = 20.490901 Si / 1000 Ang^3
#
#
#
# Elastic Constant Matrix: (Units=GPa)
#
#
# Indices 1 2 3 4 5 6 
#
# 1 187.2671 76.6508 30.2187 0.0000 0.0000 0.0000
# 2 76.6508 162.2379 46.4028 0.0000 0.0000 0.0000
# 3 30.2187 46.4028 78.9692 0.0000 0.0000 0.0000
# 4 0.0000 0.0000 0.0000 -33.1925 0.0000 0.0000
# 5 0.0000 0.0000 0.0000 0.0000 14.6386 0.0000
# 6 0.0000 0.0000 0.0000 0.0000 0.0000 49.5572
#
#
#
# Elastic Compliance Matrix: (Units=1/GPa)
#
#
# Indices 1 2 3 4 5 6 
#
# 1 0.006666 -0.002909 -0.000842 0.000000 0.000000 0.000000
# 2 -0.002909 0.008678 -0.003986 0.000000 0.000000 0.000000
# 3 -0.000842 -0.003986 0.015328 0.000000 0.000000 0.000000
# 4 0.000000 0.000000 0.000000 -0.030127 0.000000 0.000000
# 5 0.000000 0.000000 0.000000 0.000000 0.068312 0.000000
# 6 0.000000 0.000000 0.000000 0.000000 0.000000 0.020179
#
#
# Mechanical properties :
#
#
# Convention : Reuss Voigt Hill
#
# Bulk Modulus (GPa) = 65.79571 81.66873 73.73222
# Shear Modulus (GPa) = 45.63036 24.54746 35.08891
#
# Velocity S-wave (km/s) = 4.72408 3.46492 4.14262
# Velocity P-wave (km/s) = 7.86990 7.47999 7.67742
#
# Compressibility (1/GPa) = 0.01519856
#
# Stress axis : x y z
#
# Youngs Moduli (GPa) = 150.00532 115.23060 65.24165
#
# Poissons Ratio (x) = 0.33519 0.05492
# Poissons Ratio (y) = 0.43635 0.26007
# Poissons Ratio (z) = 0.12627 0.45934
#
# Static dielectric constant tensor:
#      x y z
#    x 4.178160 0.000000 0.000000 
#    y 0.000000 3.663830 0.000000 
#    z 0.000000 0.000000 3.592160 
# 
# 
# High freq. dielectric constant tensor:
#      x y z
#    x 1.826080 0.000000 0.000000 
#    y 0.000000 1.799440 0.000000 
#    z 0.000000 0.000000 1.797440 
# 
# From -- ./inp_files/6113.got.cif
#   From: 2010.03.12/outbox.cif.g09.slc.cpg/sg65_4_cif.got.tgz:6113.got - 2010.04.10 20:52:16.
