data_PCOD8273552
_publ_section_title
;
Structure prediction by ZEFSAII (Michael W. Deem and Ramdas Pophale) SiO2 
 PCOD8273552
Probable space group: C M M M
;
_chemical_formula_sum "Si O2"
_cell_formula_units_Z 88
_cell_length_a 16.981278
_cell_length_b 15.102855
_cell_length_c 17.639570
_cell_angle_alpha 90.000000
_cell_angle_beta 90.000000
_cell_angle_gamma 90.000000
_cell_volume 4523.946067
_symmetry_space_group_name_H-M "C M M M"
_symmetry_group_IT_number 65
_symmetry_cell_setting 'orthorhombic'
loop_
_space_group_symop_operation_xyz
x,y,z
-x,-y,z
x,-y,-z
-x,y,-z
-x,-y,-z
x,y,-z
-x,y,z
x,-y,z
1/2+x,1/2+y,z
1/2-x,1/2-y,z
1/2+x,1/2-y,-z
1/2-x,1/2+y,-z
1/2-x,1/2-y,-z
1/2+x,1/2+y,-z
1/2-x,1/2+y,z
1/2+x,1/2-y,z
loop_
_atom_site_type_symbol
_atom_site_label
_atom_site_fract_x
_atom_site_fract_y
_atom_site_fract_z
Si Si1 0.500000 0.762659 0.087581
Si Si2 0.089148 0.329361 0.412672
Si Si3 0.085801 0.599067 0.828410
Si Si4 0.000000 0.104090 0.796015
Si Si5 0.795740 0.600104 0.301499
Si Si6 0.369722 0.657788 0.321507
Si Si7 0.086447 0.000000 0.587921
O O1 0.577403 0.824164 0.107097
O O2 0.500000 0.668895 0.131313
O O3 0.500000 0.738080 0.000000
O O4 0.110126 0.306731 0.500000
O O5 0.153559 0.397464 0.379634
O O6 0.094754 0.244919 0.358093
O O7 0.000000 0.367060 0.408007
O O8 0.106097 0.500000 0.861192
O O9 0.149263 0.631135 0.767763
O O10 0.000000 0.594084 0.787024
O O11 0.078554 0.125552 0.748936
O O12 0.000000 0.000000 0.820402
O O13 0.766088 0.500000 0.289564
O O14 0.721915 0.667199 0.298547
O O15 0.366491 0.585990 0.388060
O O16 0.074923 0.000000 0.500000
O O17 0.000000 0.000000 0.627997
#
# Coordination Sequence:
#
# PCOD8273552 Si02
#       7
#     8  16  16   8  16  16   8
#     4  10  21  37  62  93 120 153 186 234 293 355
#     4  11  24  39  55  77 112 158 201 248 304 354
#     4   8  17  35  61  90 117 148 187 236 285 356
#     4  12  22  38  61  84 117 154 204 242 286 355
#     4  11  22  37  58  86 117 151 194 246 297 352
#     4  12  21  39  58  83 111 151 205 251 291 340
#     4  11  20  34  56  80 111 151 196 255 302 330
#
# _framework density 19.452044000000001
#
# number of rings (size 3 to 8) (size 9 to 14) (size 15 to 20)
#    0.545    0.818    3.636    2.727    0.000    6.000 
#    0.000    0.909    0.000    2.182    0.000    2.545 
#    0.000    0.000    0.000    0.000    0.000    0.000 
#
# Total GULP energy -545187.080980 kJ/mol
# GULP energy per Si atom -12390.615477 kJ/mol
# Density = 1.940777 g / cm^3
# Si number density = 19.452044 Si / 1000 Ang^3
#
#
#
# Elastic Constant Matrix: (Units=GPa)
#
#
# Indices 1 2 3 4 5 6 
#
# 1 115.3983 13.5131 43.7263 0.0000 0.0000 0.0000
# 2 13.5131 84.0977 43.4840 0.0000 0.0000 0.0000
# 3 43.7263 43.4840 112.8049 0.0000 0.0000 0.0000
# 4 0.0000 0.0000 0.0000 12.0548 0.0000 0.0000
# 5 0.0000 0.0000 0.0000 0.0000 9.7620 0.0000
# 6 0.0000 0.0000 0.0000 0.0000 0.0000 16.5726
#
#
#
# Elastic Compliance Matrix: (Units=1/GPa)
#
#
# Indices 1 2 3 4 5 6 
#
# 1 0.010175 0.000505 -0.004139 0.000000 0.000000 0.000000
# 2 0.000505 0.014876 -0.005930 0.000000 0.000000 0.000000
# 3 -0.004139 -0.005930 0.012755 0.000000 0.000000 0.000000
# 4 0.000000 0.000000 0.000000 0.082954 0.000000 0.000000
# 5 0.000000 0.000000 0.000000 0.000000 0.102438 0.000000
# 6 0.000000 0.000000 0.000000 0.000000 0.000000 0.060341
#
#
# Mechanical properties :
#
#
# Convention : Reuss Voigt Hill
#
# Bulk Modulus (GPa) = 53.53821 57.08306 55.31064
# Shear Modulus (GPa) = 16.18684 21.78305 18.98494
#
# Velocity S-wave (km/s) = 2.88781 3.35002 3.12747
# Velocity P-wave (km/s) = 6.22111 6.66129 6.44496
#
# Compressibility (1/GPa) = 0.01867825
#
# Stress axis : x y z
#
# Youngs Moduli (GPa) = 98.28285 67.22204 78.40000
#
# Poissons Ratio (x) = -0.03395 0.32447
# Poissons Ratio (y) = -0.04964 0.46493
# Poissons Ratio (z) = 0.40676 0.39864
#
# Static dielectric constant tensor:
#      x y z
#    x 3.698880 0.000000 0.000000 
#    y 0.000000 3.397290 0.000000 
#    z 0.000000 0.000000 3.164450 
# 
# 
# High freq. dielectric constant tensor:
#      x y z
#    x 1.754180 0.000000 0.000000 
#    y 0.000000 1.768150 0.000000 
#    z 0.000000 0.000000 1.716760 
# 
# From -- ./inp_files/54357.got.cif
#   From: 2010.03.12/outbox.cif.g09.slc.cpg/sg65_28_cif.got.tgz:54357.got - 2010.04.10 20:52:16.
