data_PCOD8273248
_publ_section_title
;
Structure prediction by ZEFSAII (Michael W. Deem and Ramdas Pophale) SiO2 
 PCOD8273248
Probable space group: C M M M
;
_chemical_formula_sum "Si O2"
_cell_formula_units_Z 80
_cell_length_a 9.033097
_cell_length_b 25.523142
_cell_length_c 21.946530
_cell_angle_alpha 90.000000
_cell_angle_beta 90.000000
_cell_angle_gamma 90.000000
_cell_volume 5059.838714
_symmetry_space_group_name_H-M "C M M M"
_symmetry_group_IT_number 65
_symmetry_cell_setting 'orthorhombic'
loop_
_space_group_symop_operation_xyz
x,y,z
-x,-y,z
x,-y,-z
-x,y,-z
-x,-y,-z
x,y,-z
-x,y,z
x,-y,z
1/2+x,1/2+y,z
1/2-x,1/2-y,z
1/2+x,1/2-y,-z
1/2-x,1/2+y,-z
1/2-x,1/2-y,-z
1/2+x,1/2+y,-z
1/2-x,1/2+y,z
1/2+x,1/2-y,z
loop_
_atom_site_type_symbol
_atom_site_label
_atom_site_fract_x
_atom_site_fract_y
_atom_site_fract_z
Si Si1 0.673748 0.598618 0.130797
Si Si2 0.170327 0.940299 0.737481
Si Si3 0.833121 0.562431 0.618676
Si Si4 0.833198 0.937495 0.500000
Si Si5 0.172205 0.304464 0.070594
Si Si6 0.830690 0.500000 0.927840
O O1 0.500000 0.598612 0.115320
O O2 0.701924 0.593851 0.202872
O O3 0.748117 0.652262 0.110862
O O4 0.748232 0.551137 0.095496
O O5 0.262211 0.916290 0.681255
O O6 0.000000 0.938332 0.718039
O O7 0.218116 0.000000 0.751990
O O8 0.824495 0.500000 0.618608
O O9 0.746806 0.584867 0.560162
O O10 0.000000 0.582914 0.614740
O O11 0.000000 0.916530 0.500000
O O12 0.827804 0.000000 0.500000
O O13 0.250000 0.250000 0.086102
O O14 0.000000 0.300942 0.088040
O O15 0.192807 0.319280 0.000000
O O16 0.000000 0.500000 0.904317
O O17 0.825796 0.500000 0.000000
#
# Coordination Sequence:
#
# PCOD8273248 Si02
#       6
#    16  16  16   8  16   8
#     4  11  21  34  51  71  94 123 156 193 235 282
#     4   9  17  30  43  59  86 119 153 185 223 274
#     4   9  16  24  36  55  78 107 146 189 226 261
#     4   9  15  23  35  51  73 107 146 185 226 263
#     4  10  21  37  55  74  94 118 151 192 238 287
#     4  11  23  35  47  67  95 124 155 192 233 279
#
# _framework density 15.810779999999999
#
# number of rings (size 3 to 8) (size 9 to 14) (size 15 to 20)
#    0.000    2.200    1.000    3.000    0.000    9.600 
#    0.000    0.000    0.000    0.000    0.000    0.000 
#    0.000    0.000    0.000    0.900    0.000   12.100 
#
# Total GULP energy -496046.424281 kJ/mol
# GULP energy per Si atom -12401.160607 kJ/mol
# Density = 1.577479 g / cm^3
# Si number density = 15.810780 Si / 1000 Ang^3
#
#
#
# Elastic Constant Matrix: (Units=GPa)
#
#
# Indices 1 2 3 4 5 6 
#
# 1 144.5343 51.3634 80.6248 0.0000 0.0000 0.0000
# 2 51.3634 68.7408 49.0977 0.0000 0.0000 0.0000
# 3 80.6248 49.0977 114.3808 0.0000 0.0000 0.0000
# 4 0.0000 0.0000 0.0000 -88.7202 0.0000 0.0000
# 5 0.0000 0.0000 0.0000 0.0000 30.3636 0.0000
# 6 0.0000 0.0000 0.0000 0.0000 0.0000 25.2510
#
#
#
# Elastic Compliance Matrix: (Units=1/GPa)
#
#
# Indices 1 2 3 4 5 6 
#
# 1 0.012223 -0.004297 -0.006771 0.000000 0.000000 0.000000
# 2 -0.004297 0.022490 -0.006625 0.000000 0.000000 0.000000
# 3 -0.006771 -0.006625 0.016360 0.000000 0.000000 0.000000
# 4 0.000000 0.000000 0.000000 -0.011271 0.000000 0.000000
# 5 0.000000 0.000000 0.000000 0.000000 0.032934 0.000000
# 6 0.000000 0.000000 0.000000 0.000000 0.000000 0.039602
#
#
# Mechanical properties :
#
#
# Convention : Reuss Voigt Hill
#
# Bulk Modulus (GPa) = 63.75079 76.64752 70.19916
# Shear Modulus (GPa) = 32.68991 3.15019 17.92005
#
# Velocity S-wave (km/s) = 4.55199 1.41307 3.37026
# Velocity P-wave (km/s) = 8.24840 7.15860 7.72275
#
# Compressibility (1/GPa) = 0.01568608
#
# Stress axis : x y z
#
# Youngs Moduli (GPa) = 81.81353 44.46463 61.12631
#
# Poissons Ratio (x) = 0.19105 0.41391
# Poissons Ratio (y) = 0.35152 0.40497
# Poissons Ratio (z) = 0.55399 0.29458
#
# Static dielectric constant tensor:
#      x y z
#    x 3.242070 0.000000 0.000000 
#    y 0.000000 2.532080 0.000000 
#    z 0.000000 0.000000 3.125980 
# 
# 
# High freq. dielectric constant tensor:
#      x y z
#    x 1.628050 0.000000 0.000000 
#    y 0.000000 1.548240 0.000000 
#    z 0.000000 0.000000 1.614770 
# 
# From -- ./inp_files/59659.got.cif
#   From: 2010.03.12/outbox.cif.g09.slc.cpg/sg65_30_cif.got.tgz:59659.got - 2010.04.10 20:52:16.
