data_PCOD8273934
_publ_section_title
;
Structure prediction by ZEFSAII (Michael W. Deem and Ramdas Pophale) SiO2 
 PCOD8273934
Probable space group: C M M M
;
_chemical_formula_sum "Si O2"
_cell_formula_units_Z 72
_cell_length_a 8.963828
_cell_length_b 21.003327
_cell_length_c 19.893287
_cell_angle_alpha 90.000000
_cell_angle_beta 90.000000
_cell_angle_gamma 90.000000
_cell_volume 3745.313334
_symmetry_space_group_name_H-M "C M M M"
_symmetry_group_IT_number 65
_symmetry_cell_setting 'orthorhombic'
loop_
_space_group_symop_operation_xyz
x,y,z
-x,-y,z
x,-y,-z
-x,y,-z
-x,-y,-z
x,y,-z
-x,y,z
x,-y,z
1/2+x,1/2+y,z
1/2-x,1/2-y,z
1/2+x,1/2-y,-z
1/2-x,1/2+y,-z
1/2-x,1/2-y,-z
1/2+x,1/2+y,-z
1/2-x,1/2+y,z
1/2+x,1/2-y,z
loop_
_atom_site_type_symbol
_atom_site_label
_atom_site_fract_x
_atom_site_fract_y
_atom_site_fract_z
Si Si1 0.822236 0.683246 0.739198
Si Si2 0.175193 0.880600 0.136255
Si Si3 0.834517 0.812970 0.000000
Si Si4 0.665968 0.424682 0.500000
Si Si5 0.822895 0.500000 0.921075
Si Si6 0.674814 0.072847 0.634808
O O1 0.750000 0.750000 0.713537
O O2 0.750502 0.666528 0.810538
O O3 0.779083 0.623658 0.691497
O O4 0.000000 0.691696 0.744853
O O5 0.205934 0.852749 0.064070
O O6 0.000000 0.890546 0.152745
O O7 0.263738 0.945437 0.128184
O O8 0.750000 0.750000 0.000000
O O9 0.000000 0.789410 0.000000
O O10 0.660886 0.500000 0.500000
O O11 0.500000 0.395450 0.500000
O O12 0.749919 0.401628 0.566714
O O13 0.000000 0.500000 0.923097
O O14 0.763465 0.500000 0.000000
O O15 0.500000 0.073250 0.622226
O O16 0.726190 0.000000 0.653732
#
# Coordination Sequence:
#
# PCOD8273934 Si02
#       6
#    16  16   8   8   8  16
#     4  11  24  41  61  87 121 160 203 249 300 360
#     4  11  23  40  60  84 116 154 195 245 301 356
#     4  10  22  37  56  79 107 144 192 240 291 354
#     4   9  17  31  56  91 124 151 189 241 292 347
#     4  11  23  39  61  89 117 150 191 242 301 361
#     4   9  19  37  61  87 118 157 198 241 292 352
#
# _framework density 19.224025999999999
#
# number of rings (size 3 to 8) (size 9 to 14) (size 15 to 20)
#    0.000    1.778    1.111    2.667    1.556    7.111 
#    0.000    0.556    0.000    0.000    0.000    0.000 
#    0.000    0.000    0.000    0.000    0.000    0.000 
#
# Total GULP energy -446115.801065 kJ/mol
# GULP energy per Si atom -12392.105585 kJ/mol
# Density = 1.918027 g / cm^3
# Si number density = 19.224026 Si / 1000 Ang^3
#
#
#
# Elastic Constant Matrix: (Units=GPa)
#
#
# Indices 1 2 3 4 5 6 
#
# 1 70.4039 60.5590 59.9916 0.0000 0.0000 0.0000
# 2 60.5590 120.4245 41.0257 0.0000 0.0000 0.0000
# 3 59.9916 41.0257 104.6249 0.0000 0.0000 0.0000
# 4 0.0000 0.0000 0.0000 8.2769 0.0000 0.0000
# 5 0.0000 0.0000 0.0000 0.0000 4.1021 0.0000
# 6 0.0000 0.0000 0.0000 0.0000 0.0000 35.4675
#
#
#
# Elastic Compliance Matrix: (Units=1/GPa)
#
#
# Indices 1 2 3 4 5 6 
#
# 1 0.043746 -0.015528 -0.018995 0.000000 0.000000 0.000000
# 2 -0.015528 0.015096 0.002984 0.000000 0.000000 0.000000
# 3 -0.018995 0.002984 0.019280 0.000000 0.000000 0.000000
# 4 0.000000 0.000000 0.000000 0.120818 0.000000 0.000000
# 5 0.000000 0.000000 0.000000 0.000000 0.243778 0.000000
# 6 0.000000 0.000000 0.000000 0.000000 0.000000 0.028195
#
#
# Mechanical properties :
#
#
# Convention : Reuss Voigt Hill
#
# Bulk Modulus (GPa) = 66.47140 68.73400 67.60270
# Shear Modulus (GPa) = 9.27636 18.49444 13.88540
#
# Velocity S-wave (km/s) = 2.19906 3.10506 2.69047
# Velocity P-wave (km/s) = 6.41094 6.97761 6.70027
#
# Compressibility (1/GPa) = 0.01504406
#
# Stress axis : x y z
#
# Youngs Moduli (GPa) = 22.85909 66.24272 51.86847
#
# Poissons Ratio (x) = 1.02861 0.98525
# Poissons Ratio (y) = 0.35495 -0.15479
# Poissons Ratio (z) = 0.43421 -0.19768
#
# Static dielectric constant tensor:
#      x y z
#    x 3.617430 0.000000 0.000000 
#    y 0.000000 2.757290 0.000000 
#    z 0.000000 0.000000 3.598250 
# 
# 
# High freq. dielectric constant tensor:
#      x y z
#    x 1.755770 0.000000 0.000000 
#    y 0.000000 1.748300 0.000000 
#    z 0.000000 0.000000 1.748330 
# 
# From -- ./inp_files/59394.got.cif
#   From: 2010.03.12/outbox.cif.g09.slc.cpg/sg65_30_cif.got.tgz:59394.got - 2010.04.10 20:52:16.
