data_PCOD8273081
_publ_section_title
;
Structure prediction by ZEFSAII (Michael W. Deem and Ramdas Pophale) SiO2 
 PCOD8273081
Probable space group: C M M M
;
_chemical_formula_sum "Si O2"
_cell_formula_units_Z 104
_cell_length_a 18.866352
_cell_length_b 28.367143
_cell_length_c 9.275550
_cell_angle_alpha 90.000000
_cell_angle_beta 90.000000
_cell_angle_gamma 90.000000
_cell_volume 4964.130636
_symmetry_space_group_name_H-M "C M M M"
_symmetry_group_IT_number 65
_symmetry_cell_setting 'orthorhombic'
loop_
_space_group_symop_operation_xyz
x,y,z
-x,-y,z
x,-y,-z
-x,y,-z
-x,-y,-z
x,y,-z
-x,y,z
x,-y,z
1/2+x,1/2+y,z
1/2-x,1/2-y,z
1/2+x,1/2-y,-z
1/2-x,1/2+y,-z
1/2-x,1/2-y,-z
1/2+x,1/2+y,-z
1/2-x,1/2+y,z
1/2+x,1/2-y,z
loop_
_atom_site_type_symbol
_atom_site_label
_atom_site_fract_x
_atom_site_fract_y
_atom_site_fract_z
Si Si1 0.634087 0.609794 0.329902
Si Si2 0.242956 0.052328 0.836754
Si Si3 0.580216 0.307534 0.161323
Si Si4 0.000000 0.947686 0.328409
Si Si5 0.421365 0.844952 0.333122
Si Si6 0.880792 0.551299 0.661834
Si Si7 0.179327 0.722111 0.837090
O O1 0.637354 0.611360 0.500000
O O2 0.705218 0.587995 0.270173
O O3 0.627244 0.662222 0.270228
O O4 0.568489 0.579336 0.270348
O O5 0.323000 0.050725 0.786405
O O6 0.209087 0.000000 0.825595
O O7 0.238634 0.071213 0.000000
O O8 0.500000 0.305179 0.218602
O O9 0.611890 0.255832 0.162697
O O10 0.583379 0.328999 0.000000
O O11 0.000000 0.949194 0.500000
O O12 0.000000 0.000000 0.263005
O O13 0.410256 0.832091 0.500000
O O14 0.500000 0.826440 0.282305
O O15 0.426721 0.901776 0.311051
O O16 0.351900 0.822594 0.252432
O O17 0.847611 0.554477 0.500000
O O18 0.921676 0.500000 0.674029
O O19 0.250000 0.750000 0.775568
O O20 0.197875 0.705163 0.000000
#
# Coordination Sequence:
#
# PCOD8273081 Si02
#       7
#    16  16  16   8  16  16  16
#     4  11  21  34  54  80 110 148 193 242 298 354
#     4  10  21  36  54  79 113 153 196 244 297 350
#     4  10  21  38  58  81 115 154 194 243 298 358
#     4   9  18  32  49  73 107 145 189 237 284 341
#     4  10  22  40  63  94 129 163 202 252 307 362
#     4   9  19  37  61  90 124 161 200 241 293 359
#     4  10  23  42  64  91 120 158 204 250 304 364
#
# _framework density 20.950294
#
# number of rings (size 3 to 8) (size 9 to 14) (size 15 to 20)
#    0.000    2.077    0.769    1.846    2.154    4.308 
#    0.000    1.538    0.000    1.846    0.000    3.231 
#    0.000    0.000    0.000    0.000    0.000    0.000 
#
# Total GULP energy -644291.409884 kJ/mol
# GULP energy per Si atom -12390.219421 kJ/mol
# Density = 2.090261 g / cm^3
# Si number density = 20.950294 Si / 1000 Ang^3
#
#
#
# Elastic Constant Matrix: (Units=GPa)
#
#
# Indices 1 2 3 4 5 6 
#
# 1 80.8704 29.9625 27.6428 0.0000 0.0000 0.0000
# 2 29.9625 94.9180 35.1969 0.0000 0.0000 0.0000
# 3 27.6428 35.1969 81.8653 0.0000 0.0000 0.0000
# 4 0.0000 0.0000 0.0000 26.7545 0.0000 0.0000
# 5 0.0000 0.0000 0.0000 0.0000 25.0717 0.0000
# 6 0.0000 0.0000 0.0000 0.0000 0.0000 29.8731
#
#
#
# Elastic Compliance Matrix: (Units=1/GPa)
#
#
# Indices 1 2 3 4 5 6 
#
# 1 0.014828 -0.003360 -0.003562 0.000000 0.000000 0.000000
# 2 -0.003360 0.013295 -0.004582 0.000000 0.000000 0.000000
# 3 -0.003562 -0.004582 0.015388 0.000000 0.000000 0.000000
# 4 0.000000 0.000000 0.000000 0.037377 0.000000 0.000000
# 5 0.000000 0.000000 0.000000 0.000000 0.039886 0.000000
# 6 0.000000 0.000000 0.000000 0.000000 0.000000 0.033475
#
#
# Mechanical properties :
#
#
# Convention : Reuss Voigt Hill
#
# Bulk Modulus (GPa) = 48.77230 49.25089 49.01159
# Shear Modulus (GPa) = 27.16068 27.32996 27.24532
#
# Velocity S-wave (km/s) = 3.60451 3.61572 3.61012
# Velocity P-wave (km/s) = 6.37604 6.40240 6.38923
#
# Compressibility (1/GPa) = 0.02050344
#
# Stress axis : x y z
#
# Youngs Moduli (GPa) = 67.44046 75.21711 64.98647
#
# Poissons Ratio (x) = 0.25271 0.23150
# Poissons Ratio (y) = 0.22658 0.29774
# Poissons Ratio (z) = 0.24025 0.34461
#
# Static dielectric constant tensor:
#      x y z
#    x 3.660690 0.000000 0.000000 
#    y 0.000000 3.901520 0.000000 
#    z 0.000000 0.000000 3.665190 
# 
# 
# High freq. dielectric constant tensor:
#      x y z
#    x 1.812820 0.000000 0.000000 
#    y 0.000000 1.826400 0.000000 
#    z 0.000000 0.000000 1.804690 
# 
# From -- ./inp_files/12408.got.cif
#   From: 2010.03.12/outbox.cif.g09.slc.cpg/sg65_7_cif.got.tgz:12408.got - 2010.04.10 20:52:16.
