data_PCOD8273208
_publ_section_title
;
Structure prediction by ZEFSAII (Michael W. Deem and Ramdas Pophale) SiO2 
 PCOD8273208
Probable space group: C M M M
;
_chemical_formula_sum "Si O2"
_cell_formula_units_Z 72
_cell_length_a 19.768747
_cell_length_b 18.453558
_cell_length_c 9.671678
_cell_angle_alpha 90.000000
_cell_angle_beta 90.000000
_cell_angle_gamma 90.000000
_cell_volume 3528.264107
_symmetry_space_group_name_H-M "C M M M"
_symmetry_group_IT_number 65
_symmetry_cell_setting 'orthorhombic'
loop_
_space_group_symop_operation_xyz
x,y,z
-x,-y,z
x,-y,-z
-x,y,-z
-x,-y,-z
x,y,-z
-x,y,z
x,-y,z
1/2+x,1/2+y,z
1/2-x,1/2-y,z
1/2+x,1/2-y,-z
1/2-x,1/2+y,-z
1/2-x,1/2-y,-z
1/2+x,1/2+y,-z
1/2-x,1/2+y,z
1/2+x,1/2-y,z
loop_
_atom_site_type_symbol
_atom_site_label
_atom_site_fract_x
_atom_site_fract_y
_atom_site_fract_z
Si Si1 0.200214 0.918598 0.850265
Si Si2 0.921144 0.919482 0.500000
Si Si3 0.922398 0.327798 0.159118
Si Si4 0.819541 0.413995 0.659416
Si Si5 0.077352 0.162763 0.225537
O O1 0.250759 0.886600 0.733973
O O2 0.132224 0.871988 0.875561
O O3 0.178877 0.000000 0.808679
O O4 0.237491 0.917922 0.000000
O O5 0.899743 0.871223 0.370860
O O6 0.000000 0.932495 0.500000
O O7 0.886079 0.000000 0.500000
O O8 0.882567 0.382383 0.257061
O O9 0.914178 0.248611 0.225267
O O10 0.000000 0.352468 0.163083
O O11 0.896288 0.328396 0.000000
O O12 0.819681 0.387699 0.500000
O O13 0.825059 0.500000 0.669321
O O14 0.000000 0.141946 0.184063
#
# Coordination Sequence:
#
# PCOD8273208 Si02
#       5
#    16   8  16  16  16
#     4  10  21  37  59  86 119 160 201 245 295 347
#     4   9  18  32  52  81 117 159 200 241 289 335
#     4  10  22  40  63  90 122 158 194 242 304 362
#     4  10  23  42  63  87 117 154 199 252 303 358
#     4  10  21  36  57  87 123 160 199 244 292 351
#
# _framework density 20.406635999999999
#
# number of rings (size 3 to 8) (size 9 to 14) (size 15 to 20)
#    0.000    2.111    0.000    2.000    3.111    5.778 
#    0.000    6.667    0.000    0.000    0.000    0.000 
#    0.000    0.000    0.000    0.000    0.000    0.000 
#
# Total GULP energy -446176.058224 kJ/mol
# GULP energy per Si atom -12393.779395 kJ/mol
# Density = 2.036019 g / cm^3
# Si number density = 20.406636 Si / 1000 Ang^3
#
#
#
# Elastic Constant Matrix: (Units=GPa)
#
#
# Indices 1 2 3 4 5 6 
#
# 1 104.8361 43.0832 52.2163 0.0000 0.0000 0.0000
# 2 43.0832 57.4530 44.7078 0.0000 0.0000 0.0000
# 3 52.2163 44.7078 151.9753 0.0000 0.0000 0.0000
# 4 0.0000 0.0000 0.0000 13.3915 0.0000 0.0000
# 5 0.0000 0.0000 0.0000 0.0000 31.2891 0.0000
# 6 0.0000 0.0000 0.0000 0.0000 0.0000 33.4456
#
#
#
# Elastic Compliance Matrix: (Units=1/GPa)
#
#
# Indices 1 2 3 4 5 6 
#
# 1 0.014379 -0.008998 -0.002293 0.000000 0.000000 0.000000
# 2 -0.008998 0.028203 -0.005205 0.000000 0.000000 0.000000
# 3 -0.002293 -0.005205 0.008899 0.000000 0.000000 0.000000
# 4 0.000000 0.000000 0.000000 0.074674 0.000000 0.000000
# 5 0.000000 0.000000 0.000000 0.000000 0.031960 0.000000
# 6 0.000000 0.000000 0.000000 0.000000 0.000000 0.029899
#
#
# Mechanical properties :
#
#
# Convention : Reuss Voigt Hill
#
# Bulk Modulus (GPa) = 54.08773 66.03099 60.05936
# Shear Modulus (GPa) = 22.00989 27.24236 24.62613
#
# Velocity S-wave (km/s) = 3.28771 3.65770 3.47763
# Velocity P-wave (km/s) = 6.40114 7.08986 6.75429
#
# Compressibility (1/GPa) = 0.01848848
#
# Stress axis : x y z
#
# Youngs Moduli (GPa) = 69.54753 35.45667 112.36879
#
# Poissons Ratio (x) = 0.31903 0.25770
# Poissons Ratio (y) = 0.62577 0.58492
# Poissons Ratio (z) = 0.15950 0.18456
#
# Static dielectric constant tensor:
#      x y z
#    x 3.590080 0.000000 0.000000 
#    y 0.000000 3.516640 0.000000 
#    z 0.000000 0.000000 3.941740 
# 
# 
# High freq. dielectric constant tensor:
#      x y z
#    x 1.790680 0.000000 0.000000 
#    y 0.000000 1.784300 0.000000 
#    z 0.000000 0.000000 1.813550 
# 
# From -- ./inp_files/11252.got.cif
#   From: 2010.03.12/outbox.cif.g09.slc.cpg/sg65_6_cif.got.tgz:11252.got - 2010.04.10 20:52:16.
