data_PCOD8273267
_publ_section_title
;
Structure prediction by ZEFSAII (Michael W. Deem and Ramdas Pophale) SiO2 
 PCOD8273267
Probable space group: C M M M
;
_chemical_formula_sum "Si O2"
_cell_formula_units_Z 72
_cell_length_a 29.021984
_cell_length_b 8.732289
_cell_length_c 15.022775
_cell_angle_alpha 90.000000
_cell_angle_beta 90.000000
_cell_angle_gamma 90.000000
_cell_volume 3807.197105
_symmetry_space_group_name_H-M "C M M M"
_symmetry_group_IT_number 65
_symmetry_cell_setting 'orthorhombic'
loop_
_space_group_symop_operation_xyz
x,y,z
-x,-y,z
x,-y,-z
-x,y,-z
-x,-y,-z
x,y,-z
-x,y,z
x,-y,z
1/2+x,1/2+y,z
1/2-x,1/2-y,z
1/2+x,1/2-y,-z
1/2-x,1/2+y,-z
1/2-x,1/2-y,-z
1/2+x,1/2+y,-z
1/2-x,1/2+y,z
1/2+x,1/2-y,z
loop_
_atom_site_type_symbol
_atom_site_label
_atom_site_fract_x
_atom_site_fract_y
_atom_site_fract_z
Si Si1 0.052794 0.680494 0.817179
Si Si2 0.700973 0.819847 0.102011
Si Si3 0.945664 0.829284 0.000000
Si Si4 0.701644 0.821502 0.396715
Si Si5 0.361309 0.319207 0.252392
O O1 0.059099 0.500000 0.811034
O O2 0.085503 0.763483 0.745496
O O3 0.000000 0.728842 0.798295
O O4 0.070082 0.735180 0.913930
O O5 0.750000 0.750000 0.128889
O O6 0.662515 0.748669 0.164875
O O7 0.703274 0.000000 0.117853
O O8 0.688485 0.778973 0.000000
O O9 0.000000 0.844314 0.000000
O O10 0.923537 0.000000 0.000000
O O11 0.691971 0.789480 0.500000
O O12 0.750000 0.750000 0.366589
O O13 0.661261 0.741206 0.342602
O O14 0.702901 0.000000 0.374133
O O15 0.358607 0.500000 0.249761
#
# Coordination Sequence:
#
# PCOD8273267 Si02
#       5
#    16  16   8  16  16
#     4  10  21  37  56  78 108 147 191 238 285 333
#     4  10  21  37  55  76 108 148 189 231 275 329
#     4   9  17  31  51  75 104 139 182 231 281 329
#     4  10  21  39  63  89 117 147 183 229 281 338
#     4  12  24  36  56  83 114 149 187 232 280 338
#
# _framework density 18.911549999999998
#
# number of rings (size 3 to 8) (size 9 to 14) (size 15 to 20)
#    0.000    1.667    0.000    5.000    1.556    5.333 
#    0.000    0.000    0.000    0.667    0.000    4.667 
#    0.000    0.000    0.000    0.000    0.000    0.000 
#
# Total GULP energy -446537.382625 kJ/mol
# GULP energy per Si atom -12403.816184 kJ/mol
# Density = 1.886851 g / cm^3
# Si number density = 18.911550 Si / 1000 Ang^3
#
#
#
# Elastic Constant Matrix: (Units=GPa)
#
#
# Indices 1 2 3 4 5 6 
#
# 1 115.6446 56.1733 57.9890 0.0000 0.0000 0.0000
# 2 56.1733 130.0049 45.4861 0.0000 0.0000 0.0000
# 3 57.9890 45.4861 77.7110 0.0000 0.0000 0.0000
# 4 0.0000 0.0000 0.0000 29.2624 0.0000 0.0000
# 5 0.0000 0.0000 0.0000 0.0000 -45.0601 0.0000
# 6 0.0000 0.0000 0.0000 0.0000 0.0000 34.8579
#
#
#
# Elastic Compliance Matrix: (Units=1/GPa)
#
#
# Indices 1 2 3 4 5 6 
#
# 1 0.014795 -0.003181 -0.009178 0.000000 0.000000 0.000000
# 2 -0.003181 0.010357 -0.003688 0.000000 0.000000 0.000000
# 3 -0.009178 -0.003688 0.021876 0.000000 0.000000 0.000000
# 4 0.000000 0.000000 0.000000 0.034174 0.000000 0.000000
# 5 0.000000 0.000000 0.000000 0.000000 -0.022193 0.000000
# 6 0.000000 0.000000 0.000000 0.000000 0.000000 0.028688
#
#
# Mechanical properties :
#
#
# Convention : Reuss Voigt Hill
#
# Bulk Modulus (GPa) = 66.96837 71.40636 69.18737
# Shear Modulus (GPa) = 40.07414 14.72616 27.40015
#
# Velocity S-wave (km/s) = 4.60829 2.79352 3.81052
# Velocity P-wave (km/s) = 7.98770 6.94587 7.48493
#
# Compressibility (1/GPa) = 0.01493242
#
# Stress axis : x y z
#
# Youngs Moduli (GPa) = 67.59195 96.55200 45.71304
#
# Poissons Ratio (x) = 0.30717 0.41955
# Poissons Ratio (y) = 0.21504 0.16860
# Poissons Ratio (z) = 0.62035 0.35611
#
# Static dielectric constant tensor:
#      x y z
#    x 3.541240 0.000000 0.000000 
#    y 0.000000 3.627180 0.000000 
#    z 0.000000 0.000000 3.375400 
# 
# 
# High freq. dielectric constant tensor:
#      x y z
#    x 1.735220 0.000000 0.000000 
#    y 0.000000 1.754670 0.000000 
#    z 0.000000 0.000000 1.715120 
# 
# From -- ./inp_files/36608.got.cif
#   From: 2010.03.12/outbox.cif.g09.slc.cpg/sg65_19_cif.got.tgz:36608.got - 2010.04.10 20:52:16.
