data_PCOD8273548
_publ_section_title
;
Structure prediction by ZEFSAII (Michael W. Deem and Ramdas Pophale) SiO2 
 PCOD8273548
Probable space group: C M M M
;
_chemical_formula_sum "Si O2"
_cell_formula_units_Z 64
_cell_length_a 7.763334
_cell_length_b 16.371997
_cell_length_c 23.556925
_cell_angle_alpha 90.000000
_cell_angle_beta 90.000000
_cell_angle_gamma 90.000000
_cell_volume 2994.115343
_symmetry_space_group_name_H-M "C M M M"
_symmetry_group_IT_number 65
_symmetry_cell_setting 'orthorhombic'
loop_
_space_group_symop_operation_xyz
x,y,z
-x,-y,z
x,-y,-z
-x,y,-z
-x,-y,-z
x,y,-z
-x,y,z
x,-y,z
1/2+x,1/2+y,z
1/2-x,1/2-y,z
1/2+x,1/2-y,-z
1/2-x,1/2+y,-z
1/2-x,1/2-y,-z
1/2+x,1/2+y,-z
1/2-x,1/2+y,z
1/2+x,1/2-y,z
loop_
_atom_site_type_symbol
_atom_site_label
_atom_site_fract_x
_atom_site_fract_y
_atom_site_fract_z
Si Si1 0.000000 0.096171 0.935801
Si Si2 0.205569 0.000000 0.564961
Si Si3 0.797332 0.342097 0.142711
Si Si4 0.701526 0.908368 0.263673
Si Si5 0.692734 0.339655 0.375922
O O1 0.822868 0.127122 0.907988
O O2 0.000000 0.000000 0.933560
O O3 0.000000 0.129344 0.000000
O O4 0.286701 0.082334 0.594224
O O5 0.264615 0.000000 0.500000
O O6 0.000000 0.000000 0.571665
O O7 0.750000 0.250000 0.156033
O O8 0.745156 0.391091 0.199112
O O9 0.000000 0.353246 0.126893
O O10 0.500000 0.895939 0.270935
O O11 0.791667 0.846910 0.307622
O O12 0.761070 0.000000 0.278398
O O13 0.500000 0.345866 0.396347
O O14 0.750000 0.250000 0.396354
#
# Coordination Sequence:
#
# PCOD8273548 Si02
#       5
#     8   8  16  16  16
#     4  11  26  46  68  96 129 173 221 273 325 388
#     4   9  20  40  61  85 123 165 213 260 309 376
#     4  11  23  42  65  98 131 170 216 269 331 391
#     4  10  21  37  61  92 128 163 200 260 322 380
#     4  11  22  37  60  91 121 164 211 257 319 377
#
# _framework density 21.375260999999998
#
# number of rings (size 3 to 8) (size 9 to 14) (size 15 to 20)
#    0.000    1.500    2.500    2.250    1.750    5.000 
#    0.000    1.250    0.000    5.250    0.000    0.000 
#    0.000    0.000    0.000    0.000    0.000    0.000 
#
# Total GULP energy -396689.930628 kJ/mol
# GULP energy per Si atom -12396.560332 kJ/mol
# Density = 2.132661 g / cm^3
# Si number density = 21.375261 Si / 1000 Ang^3
#
#
#
# Elastic Constant Matrix: (Units=GPa)
#
#
# Indices 1 2 3 4 5 6 
#
# 1 78.2836 29.0353 38.7523 0.0000 0.0000 0.0000
# 2 29.0353 160.0227 55.6510 0.0000 0.0000 0.0000
# 3 38.7523 55.6510 121.3108 0.0000 0.0000 0.0000
# 4 0.0000 0.0000 0.0000 25.4880 0.0000 0.0000
# 5 0.0000 0.0000 0.0000 0.0000 18.2218 0.0000
# 6 0.0000 0.0000 0.0000 0.0000 0.0000 10.2849
#
#
#
# Elastic Compliance Matrix: (Units=1/GPa)
#
#
# Indices 1 2 3 4 5 6 
#
# 1 0.015394 -0.001289 -0.004326 0.000000 0.000000 0.000000
# 2 -0.001289 0.007543 -0.003049 0.000000 0.000000 0.000000
# 3 -0.004326 -0.003049 0.011024 0.000000 0.000000 0.000000
# 4 0.000000 0.000000 0.000000 0.039234 0.000000 0.000000
# 5 0.000000 0.000000 0.000000 0.000000 0.054879 0.000000
# 6 0.000000 0.000000 0.000000 0.000000 0.000000 0.097230
#
#
# Mechanical properties :
#
#
# Convention : Reuss Voigt Hill
#
# Bulk Modulus (GPa) = 60.11987 67.38827 63.75407
# Shear Modulus (GPa) = 20.14701 26.54418 23.34560
#
# Velocity S-wave (km/s) = 3.07341 3.52777 3.30840
# Velocity P-wave (km/s) = 6.38603 6.94178 6.66970
#
# Compressibility (1/GPa) = 0.01663343
#
# Stress axis : x y z
#
# Youngs Moduli (GPa) = 64.96200 132.56990 90.71163
#
# Poissons Ratio (x) = 0.17082 0.39245
# Poissons Ratio (y) = 0.08371 0.27656
# Poissons Ratio (z) = 0.28105 0.40418
#
# Static dielectric constant tensor:
#      x y z
#    x 3.671920 0.000000 0.000000 
#    y 0.000000 4.360800 0.000000 
#    z 0.000000 0.000000 3.822040 
# 
# 
# High freq. dielectric constant tensor:
#      x y z
#    x 1.828010 0.000000 0.000000 
#    y 0.000000 1.856690 0.000000 
#    z 0.000000 0.000000 1.830200 
# 
# From -- ./inp_files/66814.got.cif
#   From: 2010.03.12/outbox.cif.g09.slc.cpg/sg65_34_cif.got.tgz:66814.got - 2010.04.10 20:52:16.
