data_PCOD8273262
_publ_section_title
;
Structure prediction by ZEFSAII (Michael W. Deem and Ramdas Pophale) SiO2 
 PCOD8273262
Probable space group: C M M M
;
_chemical_formula_sum "Si O2"
_cell_formula_units_Z 104
_cell_length_a 8.692022
_cell_length_b 17.862586
_cell_length_c 33.958648
_cell_angle_alpha 90.000000
_cell_angle_beta 90.000000
_cell_angle_gamma 90.000000
_cell_volume 5272.487283
_symmetry_space_group_name_H-M "C M M M"
_symmetry_group_IT_number 65
_symmetry_cell_setting 'orthorhombic'
loop_
_space_group_symop_operation_xyz
x,y,z
-x,-y,z
x,-y,-z
-x,y,-z
-x,-y,-z
x,y,-z
-x,y,z
x,-y,z
1/2+x,1/2+y,z
1/2-x,1/2-y,z
1/2+x,1/2-y,-z
1/2-x,1/2+y,-z
1/2-x,1/2-y,-z
1/2+x,1/2+y,-z
1/2-x,1/2+y,z
1/2+x,1/2-y,z
loop_
_atom_site_type_symbol
_atom_site_label
_atom_site_fract_x
_atom_site_fract_y
_atom_site_fract_z
Si Si1 0.318474 0.831677 0.958460
Si Si2 0.183275 0.915841 0.500000
Si Si3 0.318927 0.913808 0.203942
Si Si4 0.681780 0.331711 0.276445
Si Si5 0.681473 0.331673 0.422856
Si Si6 0.824376 0.588319 0.349345
Si Si7 0.318868 0.168421 0.126413
O O1 0.500000 0.824933 0.958257
O O2 0.250000 0.750000 0.959480
O O3 0.266169 0.867063 0.916336
O O4 0.267827 0.873255 0.000000
O O5 0.246638 0.873649 0.461426
O O6 0.000000 0.917491 0.500000
O O7 0.249518 0.000000 0.500000
O O8 0.500000 0.901522 0.211020
O O9 0.224746 0.862099 0.233598
O O10 0.267557 0.889290 0.160146
O O11 0.273000 0.000000 0.209955
O O12 0.500000 0.328033 0.281335
O O13 0.750000 0.250000 0.283347
O O14 0.752513 0.387911 0.308079
O O15 0.500000 0.325406 0.424852
O O16 0.750000 0.250000 0.420856
O O17 0.727173 0.377055 0.384450
O O18 0.813798 0.500000 0.352645
O O19 0.000000 0.616407 0.351857
O O20 0.500000 0.179092 0.127366
O O21 0.250000 0.250000 0.134345
#
# Coordination Sequence:
#
# PCOD8273262 Si02
#       7
#    16   8  16  16  16  16  16
#     4   8  13  22  38  62  92 124 161 207 256 306
#     4   9  19  36  59  87 118 155 198 243 290 338
#     4  10  21  37  55  76 106 142 178 219 269 323
#     4  12  25  41  62  86 112 142 180 224 271 325
#     4  11  22  38  61  88 121 158 198 241 284 333
#     4  11  24  42  63  88 119 152 187 229 278 330
#     4   9  17  29  47  71  98 131 170 213 263 315
#
# _framework density 19.725035999999999
#
# number of rings (size 3 to 8) (size 9 to 14) (size 15 to 20)
#    0.000    1.923    0.000    4.385    0.000    5.846 
#    0.000    1.154    0.000    3.231    0.000    3.231 
#    0.000    0.000    0.000   26.308    0.000   13.231 
#
# Total GULP energy -644505.771934 kJ/mol
# GULP energy per Si atom -12394.341768 kJ/mol
# Density = 1.968014 g / cm^3
# Si number density = 19.725036 Si / 1000 Ang^3
#
#
#
# Elastic Constant Matrix: (Units=GPa)
#
#
# Indices 1 2 3 4 5 6 
#
# 1 51.4210 28.0167 20.9470 0.0000 0.0000 0.0000
# 2 28.0167 77.4307 34.5943 0.0000 0.0000 0.0000
# 3 20.9470 34.5943 142.6658 0.0000 0.0000 0.0000
# 4 0.0000 0.0000 0.0000 20.8329 0.0000 0.0000
# 5 0.0000 0.0000 0.0000 0.0000 25.3364 0.0000
# 6 0.0000 0.0000 0.0000 0.0000 0.0000 4.5364
#
#
#
# Elastic Compliance Matrix: (Units=1/GPa)
#
#
# Indices 1 2 3 4 5 6 
#
# 1 0.024555 -0.008158 -0.001627 0.000000 0.000000 0.000000
# 2 -0.008158 0.017194 -0.002972 0.000000 0.000000 0.000000
# 3 -0.001627 -0.002972 0.007969 0.000000 0.000000 0.000000
# 4 0.000000 0.000000 0.000000 0.048001 0.000000 0.000000
# 5 0.000000 0.000000 0.000000 0.000000 0.039469 0.000000
# 6 0.000000 0.000000 0.000000 0.000000 0.000000 0.220438
#
#
# Mechanical properties :
#
#
# Convention : Reuss Voigt Hill
#
# Bulk Modulus (GPa) = 41.31378 48.73705 45.02541
# Shear Modulus (GPa) = 12.78097 22.67177 17.72637
#
# Velocity S-wave (km/s) = 2.54826 3.39394 3.00104
# Velocity P-wave (km/s) = 5.44504 6.33406 5.90630
#
# Compressibility (1/GPa) = 0.02420500
#
# Stress axis : x y z
#
# Youngs Moduli (GPa) = 40.72511 58.15949 125.48852
#
# Poissons Ratio (x) = 0.47445 0.20419
# Poissons Ratio (y) = 0.33222 0.37290
# Poissons Ratio (z) = 0.06627 0.17282
#
# Static dielectric constant tensor:
#      x y z
#    x 3.576970 0.000000 0.000000 
#    y 0.000000 3.457580 0.000000 
#    z 0.000000 0.000000 4.529840 
# 
# 
# High freq. dielectric constant tensor:
#      x y z
#    x 1.759950 0.000000 0.000000 
#    y 0.000000 1.750770 0.000000 
#    z 0.000000 0.000000 1.800990 
# 
# From -- ./inp_files/76943.got.cif
#   From: 2010.03.12/outbox.cif.g09.slc.cpg/sg65_39_cif.got.tgz:76943.got - 2010.04.10 20:52:16.
