data_PCOD8273809
_publ_section_title
;
Structure prediction by ZEFSAII (Michael W. Deem and Ramdas Pophale) SiO2 
 PCOD8273809
Probable space group: C M M M
;
_chemical_formula_sum "Si O2"
_cell_formula_units_Z 88
_cell_length_a 24.296279
_cell_length_b 8.741449
_cell_length_c 21.526389
_cell_angle_alpha 90.000000
_cell_angle_beta 90.000000
_cell_angle_gamma 90.000000
_cell_volume 4571.875320
_symmetry_space_group_name_H-M "C M M M"
_symmetry_group_IT_number 65
_symmetry_cell_setting 'orthorhombic'
loop_
_space_group_symop_operation_xyz
x,y,z
-x,-y,z
x,-y,-z
-x,y,-z
-x,-y,-z
x,y,-z
-x,y,z
x,-y,z
1/2+x,1/2+y,z
1/2-x,1/2-y,z
1/2+x,1/2-y,-z
1/2-x,1/2+y,-z
1/2-x,1/2-y,-z
1/2+x,1/2+y,-z
1/2-x,1/2+y,z
1/2+x,1/2-y,z
loop_
_atom_site_type_symbol
_atom_site_label
_atom_site_fract_x
_atom_site_fract_y
_atom_site_fract_z
Si Si1 0.189367 0.819025 0.500000
Si Si2 0.903346 0.178883 0.855029
Si Si3 0.063763 0.676185 0.270931
Si Si4 0.110803 0.323531 0.599198
Si Si5 0.000000 0.164069 0.568832
Si Si6 0.309541 0.177921 0.069940
Si Si7 0.500000 0.819727 0.931346
O O1 0.250000 0.750000 0.500000
O O2 0.158375 0.769296 0.436519
O O3 0.193549 0.000000 0.500000
O O4 0.913961 0.216887 0.783386
O O5 0.844036 0.233649 0.877967
O O6 0.946374 0.267448 0.896388
O O7 0.910053 0.000000 0.865123
O O8 0.064673 0.500000 0.249318
O O9 0.107829 0.702628 0.326423
O O10 0.000000 0.719865 0.289594
O O11 0.119914 0.500000 0.582376
O O12 0.051891 0.270853 0.577243
O O13 0.000000 0.104873 0.500000
O O14 0.000000 0.000000 0.607414
O O15 0.250000 0.250000 0.072893
O O16 0.306996 0.000000 0.087380
O O17 0.333935 0.199666 0.000000
O O18 0.500000 0.000000 0.934312
O O19 0.500000 0.748198 0.000000
#
# Coordination Sequence:
#
# PCOD8273809 Si02
#       7
#     8  16  16  16   8  16   8
#     4  12  26  45  66  93 126 164 202 248 304 362
#     4  12  24  37  57  87 122 160 201 250 305 363
#     4  10  21  39  61  87 122 164 205 246 298 361
#     4  11  22  39  64  92 121 159 203 251 300 354
#     4  11  21  32  53  90 126 155 189 237 293 348
#     4  10  21  39  63  88 115 151 196 249 304 357
#     4  11  23  38  57  82 117 163 209 253 307 369
#
# _framework density 19.24812
#
# number of rings (size 3 to 8) (size 9 to 14) (size 15 to 20)
#    0.000    1.091    2.727    4.636    0.000    5.818 
#    0.000    0.909    0.000    4.364    0.000    0.000 
#    0.000    0.000    0.000    0.000    0.000    0.000 
#
# Total GULP energy -545433.954062 kJ/mol
# GULP energy per Si atom -12396.226229 kJ/mol
# Density = 1.920431 g / cm^3
# Si number density = 19.248120 Si / 1000 Ang^3
#
#
#
# Elastic Constant Matrix: (Units=GPa)
#
#
# Indices 1 2 3 4 5 6 
#
# 1 104.1656 34.9061 45.7694 0.0000 0.0000 0.0000
# 2 34.9061 102.7581 43.4988 0.0000 0.0000 0.0000
# 3 45.7694 43.4988 104.6193 0.0000 0.0000 0.0000
# 4 0.0000 0.0000 0.0000 17.1304 0.0000 0.0000
# 5 0.0000 0.0000 0.0000 0.0000 13.3103 0.0000
# 6 0.0000 0.0000 0.0000 0.0000 0.0000 36.7963
#
#
#
# Elastic Compliance Matrix: (Units=1/GPa)
#
#
# Indices 1 2 3 4 5 6 
#
# 1 0.012321 -0.002310 -0.004430 0.000000 0.000000 0.000000
# 2 -0.002310 0.012243 -0.004080 0.000000 0.000000 0.000000
# 3 -0.004430 -0.004080 0.013193 0.000000 0.000000 0.000000
# 4 0.000000 0.000000 0.000000 0.058376 0.000000 0.000000
# 5 0.000000 0.000000 0.000000 0.000000 0.075130 0.000000
# 6 0.000000 0.000000 0.000000 0.000000 0.000000 0.027177
#
#
# Mechanical properties :
#
#
# Convention : Reuss Voigt Hill
#
# Bulk Modulus (GPa) = 62.04463 62.21018 62.12741
# Shear Modulus (GPa) = 22.17781 25.93864 24.05822
#
# Velocity S-wave (km/s) = 3.39810 3.67494 3.53923
# Velocity P-wave (km/s) = 6.90653 7.09910 7.00348
#
# Compressibility (1/GPa) = 0.01611743
#
# Stress axis : x y z
#
# Youngs Moduli (GPa) = 81.16541 81.67652 75.79952
#
# Poissons Ratio (x) = 0.18868 0.33576
# Poissons Ratio (y) = 0.18750 0.30926
# Poissons Ratio (z) = 0.35953 0.33324
#
# Static dielectric constant tensor:
#      x y z
#    x 3.312640 0.000000 0.000000 
#    y 0.000000 3.614510 0.000000 
#    z 0.000000 0.000000 3.803260 
# 
# 
# High freq. dielectric constant tensor:
#      x y z
#    x 1.736310 0.000000 0.000000 
#    y 0.000000 1.766940 0.000000 
#    z 0.000000 0.000000 1.753830 
# 
# From -- ./inp_files/65221.got.cif
#   From: 2010.03.12/outbox.cif.g09.slc.cpg/sg65_33_cif.got.tgz:65221.got - 2010.04.10 20:52:16.
