data_PCOD8273504
_publ_section_title
;
Structure prediction by ZEFSAII (Michael W. Deem and Ramdas Pophale) SiO2 
 PCOD8273504
Probable space group: C M M M
;
_chemical_formula_sum "Si O2"
_cell_formula_units_Z 80
_cell_length_a 9.932803
_cell_length_b 26.471709
_cell_length_c 17.161308
_cell_angle_alpha 90.000000
_cell_angle_beta 90.000000
_cell_angle_gamma 90.000000
_cell_volume 4512.364646
_symmetry_space_group_name_H-M "C M M M"
_symmetry_group_IT_number 65
_symmetry_cell_setting 'orthorhombic'
loop_
_space_group_symop_operation_xyz
x,y,z
-x,-y,z
x,-y,-z
-x,y,-z
-x,-y,-z
x,y,-z
-x,y,z
x,-y,z
1/2+x,1/2+y,z
1/2-x,1/2-y,z
1/2+x,1/2-y,-z
1/2-x,1/2+y,-z
1/2-x,1/2-y,-z
1/2+x,1/2+y,-z
1/2-x,1/2+y,z
1/2+x,1/2-y,z
loop_
_atom_site_type_symbol
_atom_site_label
_atom_site_fract_x
_atom_site_fract_y
_atom_site_fract_z
Si Si1 0.500000 0.444422 0.909061
Si Si2 0.500000 0.940126 0.907291
Si Si3 0.656301 0.443803 0.669038
Si Si4 0.341469 0.346340 0.415464
Si Si5 0.241773 0.099629 0.176348
Si Si6 0.337993 0.702183 0.255811
O O1 0.500000 0.500000 0.869129
O O2 0.629171 0.413449 0.885440
O O3 0.500000 0.451393 0.000000
O O4 0.378028 0.909968 0.869184
O O5 0.500000 0.000000 0.886968
O O6 0.500000 0.932742 0.000000
O O7 0.500000 0.433578 0.690262
O O8 0.679582 0.500000 0.635639
O O9 0.705571 0.403554 0.604812
O O10 0.738790 0.436693 0.748453
O O11 0.277478 0.331208 0.500000
O O12 0.500000 0.345655 0.423522
O O13 0.299209 0.308665 0.346305
O O14 0.217015 0.157143 0.202424
O O15 0.500000 0.709913 0.245572
O O16 0.250000 0.750000 0.229480
#
# Coordination Sequence:
#
# PCOD8273504 Si02
#       6
#     8   8  16  16  16  16
#     4  11  20  32  57  85 108 139 173 209 263 327
#     4  11  24  38  55  85 120 147 173 213 269 327
#     4   9  15  25  46  74 104 143 184 218 259 317
#     4   8  15  28  45  73 111 141 173 220 269 318
#     4  11  20  36  54  79 112 144 180 226 267 319
#     4  10  21  37  59  83 105 141 189 233 277 320
#
# _framework density 17.729064000000001
#
# number of rings (size 3 to 8) (size 9 to 14) (size 15 to 20)
#    0.000    2.200    2.000    3.600    1.400    2.400 
#    0.000    2.000    0.000    3.600    0.000    0.000 
#    0.000    7.600    0.000    0.000    0.000    0.000 
#
# Total GULP energy -495687.294081 kJ/mol
# GULP energy per Si atom -12392.182352 kJ/mol
# Density = 1.768871 g / cm^3
# Si number density = 17.729064 Si / 1000 Ang^3
#
#
#
# Elastic Constant Matrix: (Units=GPa)
#
#
# Indices 1 2 3 4 5 6 
#
# 1 105.7189 49.2996 44.4971 0.0000 0.0000 0.0000
# 2 49.2996 118.3134 41.1405 0.0000 0.0000 0.0000
# 3 44.4971 41.1405 92.9141 0.0000 0.0000 0.0000
# 4 0.0000 0.0000 0.0000 18.0043 0.0000 0.0000
# 5 0.0000 0.0000 0.0000 0.0000 19.0960 0.0000
# 6 0.0000 0.0000 0.0000 0.0000 0.0000 26.0251
#
#
#
# Elastic Compliance Matrix: (Units=1/GPa)
#
#
# Indices 1 2 3 4 5 6 
#
# 1 0.013217 -0.003908 -0.004599 0.000000 0.000000 0.000000
# 2 -0.003908 0.011146 -0.003064 0.000000 0.000000 0.000000
# 3 -0.004599 -0.003064 0.014322 0.000000 0.000000 0.000000
# 4 0.000000 0.000000 0.000000 0.055542 0.000000 0.000000
# 5 0.000000 0.000000 0.000000 0.000000 0.052367 0.000000
# 6 0.000000 0.000000 0.000000 0.000000 0.000000 0.038424
#
#
# Mechanical properties :
#
#
# Convention : Reuss Voigt Hill
#
# Bulk Modulus (GPa) = 64.33840 65.20231 64.77035
# Shear Modulus (GPa) = 23.43654 24.75903 24.09779
#
# Velocity S-wave (km/s) = 3.63978 3.74106 3.69077
# Velocity P-wave (km/s) = 7.35068 7.45102 7.40102
#
# Compressibility (1/GPa) = 0.01554282
#
# Stress axis : x y z
#
# Youngs Moduli (GPa) = 75.65758 89.71925 69.82367
#
# Poissons Ratio (x) = 0.35064 0.32115
# Poissons Ratio (y) = 0.29568 0.21391
# Poissons Ratio (z) = 0.34798 0.27486
#
# Static dielectric constant tensor:
#      x y z
#    x 3.038440 0.000000 0.000000 
#    y 0.000000 3.282620 0.000000 
#    z 0.000000 0.000000 3.668120 
# 
# 
# High freq. dielectric constant tensor:
#      x y z
#    x 1.656620 0.000000 0.000000 
#    y 0.000000 1.684620 0.000000 
#    z 0.000000 0.000000 1.687010 
# 
# From -- ./inp_files/49960.got.cif
#   From: 2010.03.12/outbox.cif.g09.slc.cpg/sg65_25_cif.got.tgz:49960.got - 2010.04.10 20:52:16.
