data_PCOD8273741
_publ_section_title
;
Structure prediction by ZEFSAII (Michael W. Deem and Ramdas Pophale) SiO2 
 PCOD8273741
Probable space group: C M M M
;
_chemical_formula_sum "Si O2"
_cell_formula_units_Z 96
_cell_length_a 24.996086
_cell_length_b 23.416253
_cell_length_c 8.755744
_cell_angle_alpha 90.000000
_cell_angle_beta 90.000000
_cell_angle_gamma 90.000000
_cell_volume 5124.865443
_symmetry_space_group_name_H-M "C M M M"
_symmetry_group_IT_number 65
_symmetry_cell_setting 'orthorhombic'
loop_
_space_group_symop_operation_xyz
x,y,z
-x,-y,z
x,-y,-z
-x,y,-z
-x,-y,-z
x,y,-z
-x,y,z
x,-y,z
1/2+x,1/2+y,z
1/2-x,1/2-y,z
1/2+x,1/2-y,-z
1/2-x,1/2+y,-z
1/2-x,1/2-y,-z
1/2+x,1/2+y,-z
1/2-x,1/2+y,z
1/2+x,1/2-y,z
loop_
_atom_site_type_symbol
_atom_site_label
_atom_site_fract_x
_atom_site_fract_y
_atom_site_fract_z
Si Si1 0.346885 0.884939 0.679343
Si Si2 0.155139 0.882852 0.321057
Si Si3 0.437906 0.182166 0.823375
Si Si4 0.817282 0.000000 0.819097
Si Si5 0.246825 0.317247 0.175828
Si Si6 0.060687 0.800203 0.675759
Si Si7 0.694006 0.000000 0.180295
O O1 0.342654 0.892779 0.500000
O O2 0.405853 0.864149 0.725242
O O3 0.305063 0.837640 0.734278
O O4 0.335904 0.945064 0.757136
O O5 0.166882 0.887677 0.500000
O O6 0.200825 0.845312 0.244976
O O7 0.098275 0.853667 0.285647
O O8 0.152852 0.945211 0.248038
O O9 0.500000 0.171327 0.789012
O O10 0.421638 0.246325 0.776866
O O11 0.423481 0.174060 0.000000
O O12 0.755573 0.000000 0.765200
O O13 0.822123 0.000000 0.000000
O O14 0.250000 0.250000 0.194785
O O15 0.241832 0.336227 0.000000
O O16 0.066789 0.781550 0.500000
O O17 0.000000 0.818894 0.713454
O O18 0.690458 0.000000 0.000000
#
# Coordination Sequence:
#
# PCOD8273741 Si02
#       7
#    16  16  16   8  16  16   8
#     4  12  24  38  60  87 116 150 192 239 287 341
#     4  11  22  36  58  85 114 149 193 240 287 342
#     4  10  21  38  61  88 119 156 194 234 284 341
#     4  11  23  39  60  81 111 155 195 237 291 345
#     4  11  23  37  55  82 117 152 187 233 287 344
#     4   9  19  37  60  87 119 154 192 237 290 344
#     4  11  23  41  62  83 113 154 195 236 288 346
#
# _framework density 18.732199000000001
#
# number of rings (size 3 to 8) (size 9 to 14) (size 15 to 20)
#    0.000    1.333    1.667    4.500    0.000    7.000 
#    0.000    0.833    0.000    5.000    0.000    0.000 
#    0.000    0.000    0.000    0.000    0.000    0.000 
#
# Total GULP energy -595499.319773 kJ/mol
# GULP energy per Si atom -12406.235829 kJ/mol
# Density = 1.868956 g / cm^3
# Si number density = 18.732199 Si / 1000 Ang^3
#
#
#
# Elastic Constant Matrix: (Units=GPa)
#
#
# Indices 1 2 3 4 5 6 
#
# 1 89.3117 61.8179 32.5448 0.0000 0.0000 0.0000
# 2 61.8179 120.9044 53.0125 0.0000 0.0000 0.0000
# 3 32.5448 53.0125 80.5451 0.0000 0.0000 0.0000
# 4 0.0000 0.0000 0.0000 36.1082 0.0000 0.0000
# 5 0.0000 0.0000 0.0000 0.0000 29.7309 0.0000
# 6 0.0000 0.0000 0.0000 0.0000 0.0000 21.3366
#
#
#
# Elastic Compliance Matrix: (Units=1/GPa)
#
#
# Indices 1 2 3 4 5 6 
#
# 1 0.017486 -0.008213 -0.001660 0.000000 0.000000 0.000000
# 2 -0.008213 0.015483 -0.006872 0.000000 0.000000 0.000000
# 3 -0.001660 -0.006872 0.017609 0.000000 0.000000 0.000000
# 4 0.000000 0.000000 0.000000 0.027695 0.000000 0.000000
# 5 0.000000 0.000000 0.000000 0.000000 0.033635 0.000000
# 6 0.000000 0.000000 0.000000 0.000000 0.000000 0.046868
#
#
# Mechanical properties :
#
#
# Convention : Reuss Voigt Hill
#
# Bulk Modulus (GPa) = 58.51812 65.05683 61.78748
# Shear Modulus (GPa) = 25.25729 26.99421 26.12575
#
# Velocity S-wave (km/s) = 3.67595 3.80025 3.73862
# Velocity P-wave (km/s) = 7.02310 7.35263 7.18976
#
# Compressibility (1/GPa) = 0.01708872
#
# Stress axis : x y z
#
# Youngs Moduli (GPa) = 57.18809 64.58527 56.78814
#
# Poissons Ratio (x) = 0.53042 0.09427
# Poissons Ratio (y) = 0.46967 0.39027
# Poissons Ratio (z) = 0.09493 0.44385
#
# Static dielectric constant tensor:
#      x y z
#    x 3.643830 0.000000 0.000000 
#    y 0.000000 3.421820 0.000000 
#    z 0.000000 0.000000 3.627250 
# 
# 
# High freq. dielectric constant tensor:
#      x y z
#    x 1.728740 0.000000 0.000000 
#    y 0.000000 1.730390 0.000000 
#    z 0.000000 0.000000 1.742920 
# 
# From -- ./inp_files/14400.got.cif
#   From: 2010.03.12/outbox.cif.g09.slc.cpg/sg65_8_cif.got.tgz:14400.got - 2010.04.10 20:52:16.
