data_PCOD8273352
_publ_section_title
;
Structure prediction by ZEFSAII (Michael W. Deem and Ramdas Pophale) SiO2 
 PCOD8273352
Probable space group: C M M M
;
_chemical_formula_sum "Si O2"
_cell_formula_units_Z 104
_cell_length_a 23.703334
_cell_length_b 25.791364
_cell_length_c 8.894643
_cell_angle_alpha 90.000000
_cell_angle_beta 90.000000
_cell_angle_gamma 90.000000
_cell_volume 5437.662750
_symmetry_space_group_name_H-M "C M M M"
_symmetry_group_IT_number 65
_symmetry_cell_setting 'orthorhombic'
loop_
_space_group_symop_operation_xyz
x,y,z
-x,-y,z
x,-y,-z
-x,y,-z
-x,-y,-z
x,y,-z
-x,y,z
x,-y,z
1/2+x,1/2+y,z
1/2-x,1/2-y,z
1/2+x,1/2-y,-z
1/2-x,1/2+y,-z
1/2-x,1/2-y,-z
1/2+x,1/2+y,-z
1/2-x,1/2+y,z
1/2+x,1/2-y,z
loop_
_atom_site_type_symbol
_atom_site_label
_atom_site_fract_x
_atom_site_fract_y
_atom_site_fract_z
Si Si1 0.066168 0.895654 0.825417
Si Si2 0.435509 0.145817 0.675443
Si Si3 0.932964 0.000000 0.669360
Si Si4 0.154817 0.827351 0.677748
Si Si5 0.347911 0.059112 0.325366
Si Si6 0.648670 0.218598 0.826028
Si Si7 0.261843 0.870785 0.826252
O O1 0.089144 0.949286 0.755460
O O2 0.095842 0.847780 0.743323
O O3 0.000000 0.888904 0.797716
O O4 0.081579 0.895501 0.000000
O O5 0.430323 0.158874 0.500000
O O6 0.500000 0.138631 0.725664
O O7 0.403173 0.092638 0.715841
O O8 0.409410 0.193912 0.766242
O O9 0.908876 0.000000 0.500000
O O10 0.000000 0.000000 0.668851
O O11 0.152270 0.827675 0.500000
O O12 0.165026 0.769476 0.734944
O O13 0.204698 0.864714 0.733103
O O14 0.332718 0.065071 0.500000
O O15 0.294206 0.078222 0.230816
O O16 0.361369 0.000000 0.281754
O O17 0.699555 0.179197 0.798494
O O18 0.641209 0.232897 0.000000
O O19 0.246443 0.877799 0.000000
#
# Coordination Sequence:
#
# PCOD8273352 Si02
#       7
#    16  16   8  16  16  16  16
#     4  10  21  38  59  82 110 144 181 221 267 321
#     4   9  18  33  54  82 115 151 191 232 277 331
#     4   9  17  33  57  81 107 139 173 211 258 311
#     4  12  24  37  57  84 111 141 181 229 278 332
#     4   9  18  34  56  82 114 150 188 233 283 332
#     4  10  21  37  57  79 108 146 184 227 278 332
#     4  10  21  38  58  80 108 143 185 229 277 335
#
# _framework density 19.125865000000001
#
# number of rings (size 3 to 8) (size 9 to 14) (size 15 to 20)
#    0.000    2.077    0.000    3.462    0.000    7.077 
#    1.385    1.538    0.000    0.000    0.000    4.308 
#    0.000    0.000    0.000    0.000    0.000    0.000 
#
# Total GULP energy -645048.700847 kJ/mol
# GULP energy per Si atom -12404.782709 kJ/mol
# Density = 1.908233 g / cm^3
# Si number density = 19.125865 Si / 1000 Ang^3
#
#
#
# Elastic Constant Matrix: (Units=GPa)
#
#
# Indices 1 2 3 4 5 6 
#
# 1 87.0826 29.1597 46.4294 0.0000 0.0000 0.0000
# 2 29.1597 56.8729 29.4388 0.0000 0.0000 0.0000
# 3 46.4294 29.4388 117.8763 0.0000 0.0000 0.0000
# 4 0.0000 0.0000 0.0000 33.7863 0.0000 0.0000
# 5 0.0000 0.0000 0.0000 0.0000 27.8172 0.0000
# 6 0.0000 0.0000 0.0000 0.0000 0.0000 16.8461
#
#
#
# Elastic Compliance Matrix: (Units=1/GPa)
#
#
# Indices 1 2 3 4 5 6 
#
# 1 0.015983 -0.005669 -0.004880 0.000000 0.000000 0.000000
# 2 -0.005669 0.022204 -0.003312 0.000000 0.000000 0.000000
# 3 -0.004880 -0.003312 0.011233 0.000000 0.000000 0.000000
# 4 0.000000 0.000000 0.000000 0.029598 0.000000 0.000000
# 5 0.000000 0.000000 0.000000 0.000000 0.035949 0.000000
# 6 0.000000 0.000000 0.000000 0.000000 0.000000 0.059361
#
#
# Mechanical properties :
#
#
# Convention : Reuss Voigt Hill
#
# Bulk Modulus (GPa) = 46.08733 52.43195 49.25964
# Shear Modulus (GPa) = 23.89109 26.14354 25.01732
#
# Velocity S-wave (km/s) = 3.53817 3.70120 3.62060
# Velocity P-wave (km/s) = 6.39067 6.76305 6.57950
#
# Compressibility (1/GPa) = 0.02169794
#
# Stress axis : x y z
#
# Youngs Moduli (GPa) = 62.56513 45.03640 89.02522
#
# Poissons Ratio (x) = 0.25531 0.43442
# Poissons Ratio (y) = 0.35468 0.29489
# Poissons Ratio (z) = 0.30530 0.14918
#
# Static dielectric constant tensor:
#      x y z
#    x 3.436990 0.000000 0.000000 
#    y 0.000000 3.527620 0.000000 
#    z 0.000000 0.000000 3.582570 
# 
# 
# High freq. dielectric constant tensor:
#      x y z
#    x 1.737130 0.000000 0.000000 
#    y 0.000000 1.743930 0.000000 
#    z 0.000000 0.000000 1.751960 
# 
# From -- ./inp_files/16804.got.cif
#   From: 2010.03.12/outbox.cif.g09.slc.cpg/sg65_9_cif.got.tgz:16804.got - 2010.04.10 20:52:16.
