data_PCOD8273450
_publ_section_title
;
Structure prediction by ZEFSAII (Michael W. Deem and Ramdas Pophale) SiO2 
 PCOD8273450
Probable space group: C M M M
;
_chemical_formula_sum "Si O2"
_cell_formula_units_Z 104
_cell_length_a 8.729769
_cell_length_b 31.655595
_cell_length_c 19.401157
_cell_angle_alpha 90.000000
_cell_angle_beta 90.000000
_cell_angle_gamma 90.000000
_cell_volume 5361.432751
_symmetry_space_group_name_H-M "C M M M"
_symmetry_group_IT_number 65
_symmetry_cell_setting 'orthorhombic'
loop_
_space_group_symop_operation_xyz
x,y,z
-x,-y,z
x,-y,-z
-x,y,-z
-x,-y,-z
x,y,-z
-x,y,z
x,-y,z
1/2+x,1/2+y,z
1/2-x,1/2-y,z
1/2+x,1/2-y,-z
1/2-x,1/2+y,-z
1/2-x,1/2-y,-z
1/2+x,1/2+y,-z
1/2-x,1/2+y,z
1/2+x,1/2-y,z
loop_
_atom_site_type_symbol
_atom_site_label
_atom_site_fract_x
_atom_site_fract_y
_atom_site_fract_z
Si Si1 0.317860 0.206209 0.281644
Si Si2 0.180123 0.045964 0.284187
Si Si3 0.681844 0.372678 0.797110
Si Si4 0.176032 0.915774 0.576089
Si Si5 0.180375 0.413270 0.920466
Si Si6 0.171792 0.000000 0.918364
Si Si7 0.319696 0.826554 0.574921
O O1 0.500000 0.206739 0.277264
O O2 0.250000 0.250000 0.253287
O O3 0.256223 0.168859 0.234250
O O4 0.257226 0.200543 0.360618
O O5 0.247912 0.085774 0.242406
O O6 0.219797 0.050406 0.365481
O O7 0.000000 0.046056 0.272577
O O8 0.245933 0.000000 0.259784
O O9 0.500000 0.368764 0.792244
O O10 0.736399 0.376789 0.876400
O O11 0.204923 0.935531 0.500000
O O12 0.278753 0.874935 0.587978
O O13 0.000000 0.901371 0.584328
O O14 0.240367 0.458462 0.892616
O O15 0.000000 0.411207 0.909751
O O16 0.225776 0.406191 0.000000
O O17 0.000000 0.000000 0.887094
O O18 0.166471 0.000000 0.000000
O O19 0.252252 0.811382 0.500000
O O20 0.500000 0.822671 0.572980
#
# Coordination Sequence:
#
# PCOD8273450 Si02
#       7
#    16  16  16  16  16   8  16
#     4  11  23  39  60  84 113 146 187 235 289 348
#     4   9  18  31  48  76 112 147 187 234 279 325
#     4  11  22  37  59  84 115 151 190 234 285 342
#     4   9  16  28  49  74 102 141 189 237 280 325
#     4  10  21  37  57  83 117 155 193 235 284 337
#     4   9  17  31  53  83 117 153 194 235 276 327
#     4   9  18  33  53  77 107 143 181 228 285 340
#
# _framework density 19.3978
#
# number of rings (size 3 to 8) (size 9 to 14) (size 15 to 20)
#    0.000    2.231    1.538    1.615    1.077    3.077 
#    0.000    1.538    0.000    2.769    0.000    2.154 
#    0.000    0.000    0.000    0.000    0.000    0.000 
#
# Total GULP energy -644547.120499 kJ/mol
# GULP energy per Si atom -12395.136933 kJ/mol
# Density = 1.935365 g / cm^3
# Si number density = 19.397800 Si / 1000 Ang^3
#
#
#
# Elastic Constant Matrix: (Units=GPa)
#
#
# Indices 1 2 3 4 5 6 
#
# 1 48.8287 31.6521 35.2041 0.0000 0.0000 0.0000
# 2 31.6521 136.8559 66.1771 0.0000 0.0000 0.0000
# 3 35.2041 66.1771 99.6475 0.0000 0.0000 0.0000
# 4 0.0000 0.0000 0.0000 17.6865 0.0000 0.0000
# 5 0.0000 0.0000 0.0000 0.0000 21.9795 0.0000
# 6 0.0000 0.0000 0.0000 0.0000 0.0000 27.7805
#
#
#
# Elastic Compliance Matrix: (Units=1/GPa)
#
#
# Indices 1 2 3 4 5 6 
#
# 1 0.028047 -0.002497 -0.008250 0.000000 0.000000 0.000000
# 2 -0.002497 0.010986 -0.006414 0.000000 0.000000 0.000000
# 3 -0.008250 -0.006414 0.017209 0.000000 0.000000 0.000000
# 4 0.000000 0.000000 0.000000 0.056540 0.000000 0.000000
# 5 0.000000 0.000000 0.000000 0.000000 0.045497 0.000000
# 6 0.000000 0.000000 0.000000 0.000000 0.000000 0.035996
#
#
# Mechanical properties :
#
#
# Convention : Reuss Voigt Hill
#
# Bulk Modulus (GPa) = 45.62041 61.26653 53.44347
# Shear Modulus (GPa) = 21.19510 23.64256 22.41883
#
# Velocity S-wave (km/s) = 3.30912 3.49496 3.40331
# Velocity P-wave (km/s) = 6.17817 6.92381 6.56159
#
# Compressibility (1/GPa) = 0.02192001
#
# Stress axis : x y z
#
# Youngs Moduli (GPa) = 35.65497 91.02637 58.10824
#
# Poissons Ratio (x) = 0.22732 0.47939
# Poissons Ratio (y) = 0.08904 0.37268
# Poissons Ratio (z) = 0.29415 0.58380
#
# Static dielectric constant tensor:
#      x y z
#    x 3.368350 0.000000 0.000000 
#    y 0.000000 3.442010 0.000000 
#    z 0.000000 0.000000 3.811940 
# 
# 
# High freq. dielectric constant tensor:
#      x y z
#    x 1.738640 0.000000 0.000000 
#    y 0.000000 1.733490 0.000000 
#    z 0.000000 0.000000 1.763180 
# 
# From -- ./inp_files/60380.got.cif
#   From: 2010.03.12/outbox.cif.g09.slc.cpg/sg65_31_cif.got.tgz:60380.got - 2010.04.10 20:52:16.
