data_PCOD8273929
_publ_section_title
;
Structure prediction by ZEFSAII (Michael W. Deem and Ramdas Pophale) SiO2 
 PCOD8273929
Probable space group: C M M M
;
_chemical_formula_sum "Si O2"
_cell_formula_units_Z 88
_cell_length_a 27.734920
_cell_length_b 17.627882
_cell_length_c 9.354050
_cell_angle_alpha 90.000000
_cell_angle_beta 90.000000
_cell_angle_gamma 90.000000
_cell_volume 4573.268914
_symmetry_space_group_name_H-M "C M M M"
_symmetry_group_IT_number 65
_symmetry_cell_setting 'orthorhombic'
loop_
_space_group_symop_operation_xyz
x,y,z
-x,-y,z
x,-y,-z
-x,y,-z
-x,-y,-z
x,y,-z
-x,y,z
x,-y,z
1/2+x,1/2+y,z
1/2-x,1/2-y,z
1/2+x,1/2-y,-z
1/2-x,1/2+y,-z
1/2-x,1/2-y,-z
1/2+x,1/2+y,-z
1/2-x,1/2+y,z
1/2+x,1/2-y,z
loop_
_atom_site_type_symbol
_atom_site_label
_atom_site_fract_x
_atom_site_fract_y
_atom_site_fract_z
Si Si1 0.629081 0.329184 0.168255
Si Si2 0.599227 0.838761 0.168694
Si Si3 0.318741 0.088930 0.343975
Si Si4 0.500000 0.087183 0.829908
Si Si5 0.289062 0.412562 0.331853
Si Si6 0.553275 0.589341 0.657308
O O1 0.610802 0.246538 0.217511
O O2 0.677945 0.353385 0.246640
O O3 0.587158 0.385795 0.214280
O O4 0.637673 0.333937 0.000000
O O5 0.641703 0.890520 0.228070
O O6 0.547446 0.868292 0.227642
O O7 0.599865 0.846929 0.000000
O O8 0.331117 0.124834 0.500000
O O9 0.265264 0.114235 0.295045
O O10 0.317143 0.000000 0.361522
O O11 0.500000 0.000000 0.773289
O O12 0.500000 0.087097 0.000000
O O13 0.299488 0.405425 0.500000
O O14 0.298737 0.500000 0.283572
O O15 0.572176 0.616020 0.500000
O O16 0.500000 0.623172 0.683992
O O17 0.550904 0.500000 0.659721
#
# Coordination Sequence:
#
# PCOD8273929 Si02
#       6
#    16  16  16   8  16  16
#     4  11  23  34  50  80 116 148 180 226 274 322
#     4  10  22  37  55  81 112 147 181 221 275 332
#     4   9  19  37  60  84 108 137 180 232 280 326
#     4   9  18  36  61  81 100 137 186 222 259 323
#     4   9  19  37  59  80 107 147 188 225 270 327
#     4   9  19  36  56  76 101 140 189 233 273 326
#
# _framework density 19.242255
#
# number of rings (size 3 to 8) (size 9 to 14) (size 15 to 20)
#    0.000    2.455    0.000    3.273    1.273    7.273 
#    0.000    6.818    0.000    1.636    0.000    0.000 
#    0.000    0.000    0.000    0.000    0.000    0.000 
#
# Total GULP energy -545416.849739 kJ/mol
# GULP energy per Si atom -12395.837494 kJ/mol
# Density = 1.919846 g / cm^3
# Si number density = 19.242255 Si / 1000 Ang^3
#
#
#
# Elastic Constant Matrix: (Units=GPa)
#
#
# Indices 1 2 3 4 5 6 
#
# 1 161.2313 64.1069 46.2044 0.0000 0.0000 0.0000
# 2 64.1069 66.4986 31.3025 0.0000 0.0000 0.0000
# 3 46.2044 31.3025 41.1007 0.0000 0.0000 0.0000
# 4 0.0000 0.0000 0.0000 23.5558 0.0000 0.0000
# 5 0.0000 0.0000 0.0000 0.0000 527.5657 0.0000
# 6 0.0000 0.0000 0.0000 0.0000 0.0000 -17.0725
#
#
#
# Elastic Compliance Matrix: (Units=1/GPa)
#
#
# Indices 1 2 3 4 5 6 
#
# 1 0.011150 -0.007558 -0.006778 0.000000 0.000000 0.000000
# 2 -0.007558 0.028566 -0.013259 0.000000 0.000000 0.000000
# 3 -0.006778 -0.013259 0.042048 0.000000 0.000000 0.000000
# 4 0.000000 0.000000 0.000000 0.042452 0.000000 0.000000
# 5 0.000000 0.000000 0.000000 0.000000 0.001895 0.000000
# 6 0.000000 0.000000 0.000000 0.000000 0.000000 -0.058574
#
#
# Mechanical properties :
#
#
# Convention : Reuss Voigt Hill
#
# Bulk Modulus (GPa) = 37.63165 61.33979 49.48572
# Shear Modulus (GPa) = 37.99795 115.29093 76.64444
#
# Velocity S-wave (km/s) = 4.44860 7.74891 6.31805
# Velocity P-wave (km/s) = 6.78129 10.58337 8.88801
#
# Compressibility (1/GPa) = 0.02657338
#
# Stress axis : x y z
#
# Youngs Moduli (GPa) = 89.68690 35.00708 23.78224
#
# Poissons Ratio (x) = 0.26459 0.16120
# Poissons Ratio (y) = 0.67788 0.31533
# Poissons Ratio (z) = 0.60790 0.46415
#
# Static dielectric constant tensor:
#      x y z
#    x 4.062950 0.000000 0.000000 
#    y 0.000000 3.495390 0.000000 
#    z 0.000000 0.000000 3.325670 
# 
# 
# High freq. dielectric constant tensor:
#      x y z
#    x 1.763810 0.000000 0.000000 
#    y 0.000000 1.740070 0.000000 
#    z 0.000000 0.000000 1.731370 
# 
# From -- ./inp_files/18300.got.cif
#   From: 2010.03.12/outbox.cif.g09.slc.cpg/sg65_10_cif.got.tgz:18300.got - 2010.04.10 20:52:16.
