data_PCOD8273516
_publ_section_title
;
Structure prediction by ZEFSAII (Michael W. Deem and Ramdas Pophale) SiO2 
 PCOD8273516
Probable space group: C M M M
;
_chemical_formula_sum "Si O2"
_cell_formula_units_Z 80
_cell_length_a 8.786196
_cell_length_b 22.128444
_cell_length_c 21.921335
_cell_angle_alpha 90.000000
_cell_angle_beta 90.000000
_cell_angle_gamma 90.000000
_cell_volume 4262.052185
_symmetry_space_group_name_H-M "C M M M"
_symmetry_group_IT_number 65
_symmetry_cell_setting 'orthorhombic'
loop_
_space_group_symop_operation_xyz
x,y,z
-x,-y,z
x,-y,-z
-x,y,-z
-x,-y,-z
x,y,-z
-x,y,z
x,-y,z
1/2+x,1/2+y,z
1/2-x,1/2-y,z
1/2+x,1/2-y,-z
1/2-x,1/2+y,-z
1/2-x,1/2-y,-z
1/2+x,1/2+y,-z
1/2-x,1/2+y,z
1/2+x,1/2-y,z
loop_
_atom_site_type_symbol
_atom_site_label
_atom_site_fract_x
_atom_site_fract_y
_atom_site_fract_z
Si Si1 0.678870 0.624433 0.116876
Si Si2 0.320069 0.185738 0.000000
Si Si3 0.178781 0.687792 0.774566
Si Si4 0.324081 0.431734 0.428230
Si Si5 0.823041 0.000000 0.066736
Si Si6 0.178840 0.314367 0.634148
O O1 0.500000 0.638677 0.114289
O O2 0.745442 0.637560 0.183418
O O3 0.722993 0.555433 0.108280
O O4 0.761904 0.656877 0.061894
O O5 0.250000 0.250000 0.000000
O O6 0.500000 0.186526 0.000000
O O7 0.250000 0.750000 0.797663
O O8 0.222591 0.675636 0.704582
O O9 0.000000 0.689428 0.784745
O O10 0.299631 0.426900 0.500000
O O11 0.500000 0.424197 0.410592
O O12 0.269541 0.500000 0.407131
O O13 0.234719 0.375188 0.399288
O O14 0.000000 0.000000 0.052705
O O15 0.740621 0.000000 0.000000
O O16 0.250000 0.250000 0.610793
O O17 0.000000 0.308423 0.623639
#
# Coordination Sequence:
#
# PCOD8273516 Si02
#       6
#    16   8  16  16   8  16
#     4  11  21  37  59  80 105 139 179 222 268 324
#     4  12  24  37  54  79 107 136 174 220 273 326
#     4  10  21  38  57  81 111 144 181 225 275 326
#     4   9  19  37  60  86 118 155 195 239 285 336
#     4   9  18  36  58  78 104 136 173 216 263 320
#     4  10  21  37  59  85 117 154 194 238 286 339
#
# _framework density 18.770299999999999
#
# number of rings (size 3 to 8) (size 9 to 14) (size 15 to 20)
#    0.000    1.900    1.000    3.900    0.000    3.600 
#    1.800    3.500    0.000    0.000    0.000    0.000 
#    0.000    0.000    0.000    0.000    0.000    0.000 
#
# Total GULP energy -495701.387963 kJ/mol
# GULP energy per Si atom -12392.534699 kJ/mol
# Density = 1.872758 g / cm^3
# Si number density = 18.770300 Si / 1000 Ang^3
#
#
#
# Elastic Constant Matrix: (Units=GPa)
#
#
# Indices 1 2 3 4 5 6 
#
# 1 100.6604 59.5023 39.9436 0.0000 0.0000 0.0000
# 2 59.5023 174.1655 61.9958 0.0000 0.0000 0.0000
# 3 39.9436 61.9958 74.4487 0.0000 0.0000 0.0000
# 4 0.0000 0.0000 0.0000 23.0297 0.0000 0.0000
# 5 0.0000 0.0000 0.0000 0.0000 33.4566 0.0000
# 6 0.0000 0.0000 0.0000 0.0000 0.0000 30.2024
#
#
#
# Elastic Compliance Matrix: (Units=1/GPa)
#
#
# Indices 1 2 3 4 5 6 
#
# 1 0.013585 -0.002909 -0.004866 0.000000 0.000000 0.000000
# 2 -0.002909 0.008784 -0.005754 0.000000 0.000000 0.000000
# 3 -0.004866 -0.005754 0.020834 0.000000 0.000000 0.000000
# 4 0.000000 0.000000 0.000000 0.043422 0.000000 0.000000
# 5 0.000000 0.000000 0.000000 0.000000 0.029889 0.000000
# 6 0.000000 0.000000 0.000000 0.000000 0.000000 0.033110
#
#
# Mechanical properties :
#
#
# Convention : Reuss Voigt Hill
#
# Bulk Modulus (GPa) = 61.93886 74.68424 68.31155
# Shear Modulus (GPa) = 27.46291 29.85992 28.66142
#
# Velocity S-wave (km/s) = 3.82920 3.99282 3.91187
# Velocity P-wave (km/s) = 7.25399 7.81868 7.54162
#
# Compressibility (1/GPa) = 0.01614495
#
# Stress axis : x y z
#
# Youngs Moduli (GPa) = 73.61072 113.84908 47.99810
#
# Poissons Ratio (x) = 0.33119 0.23357
# Poissons Ratio (y) = 0.21413 0.27616
# Poissons Ratio (z) = 0.35821 0.65504
#
# Static dielectric constant tensor:
#      x y z
#    x 3.486450 0.000000 0.000000 
#    y 0.000000 3.565720 0.000000 
#    z 0.000000 0.000000 3.427490 
# 
# 
# High freq. dielectric constant tensor:
#      x y z
#    x 1.729480 0.000000 0.000000 
#    y 0.000000 1.742390 0.000000 
#    z 0.000000 0.000000 1.726770 
# 
# From -- ./inp_files/67339.got.cif
#   From: 2010.03.12/outbox.cif.g09.slc.cpg/sg65_34_cif.got.tgz:67339.got - 2010.04.10 20:52:16.
