data_PCOD8273765
_publ_section_title
;
Structure prediction by ZEFSAII (Michael W. Deem and Ramdas Pophale) SiO2 
 PCOD8273765
Probable space group: C M M M
;
_chemical_formula_sum "Si O2"
_cell_formula_units_Z 96
_cell_length_a 14.353339
_cell_length_b 14.463388
_cell_length_c 22.936745
_cell_angle_alpha 90.000000
_cell_angle_beta 90.000000
_cell_angle_gamma 90.000000
_cell_volume 4761.620348
_symmetry_space_group_name_H-M "C M M M"
_symmetry_group_IT_number 65
_symmetry_cell_setting 'orthorhombic'
loop_
_space_group_symop_operation_xyz
x,y,z
-x,-y,z
x,-y,-z
-x,y,-z
-x,-y,-z
x,y,-z
-x,y,z
x,-y,z
1/2+x,1/2+y,z
1/2-x,1/2-y,z
1/2+x,1/2-y,-z
1/2-x,1/2+y,-z
1/2-x,1/2-y,-z
1/2+x,1/2+y,-z
1/2-x,1/2+y,z
1/2+x,1/2-y,z
loop_
_atom_site_type_symbol
_atom_site_label
_atom_site_fract_x
_atom_site_fract_y
_atom_site_fract_z
Si Si1 0.746275 0.606238 0.568985
Si Si2 0.392424 0.758349 0.750638
Si Si3 0.387589 0.245695 0.619018
Si Si4 0.107034 0.104420 0.838799
Si Si5 0.394181 0.106341 0.153511
Si Si6 0.258219 0.392144 0.064114
O O1 0.739759 0.608870 0.500000
O O2 0.746660 0.500000 0.591602
O O3 0.655325 0.659548 0.593457
O O4 0.842657 0.656715 0.587381
O O5 0.500000 0.781990 0.745264
O O6 0.351878 0.760251 0.685843
O O7 0.373880 0.658482 0.779009
O O8 0.347837 0.836273 0.793082
O O9 0.500000 0.246209 0.611543
O O10 0.163163 0.149656 0.892886
O O11 0.000000 0.109123 0.857101
O O12 0.141099 0.000000 0.827082
O O13 0.500000 0.138200 0.142662
O O14 0.341909 0.126764 0.093040
O O15 0.386533 0.000000 0.171705
O O16 0.277384 0.500000 0.057028
O O17 0.261964 0.345086 0.000000
#
# Coordination Sequence:
#
# PCOD8273765 Si02
#       6
#    16  16  16  16  16  16
#     4  10  23  41  59  86 123 157 193 236 280 332
#     4   9  19  35  54  79 107 134 174 222 265 321
#     4  10  21  38  62  89 117 153 195 239 285 334
#     4   9  18  33  51  70  98 134 166 208 268 322
#     4   9  18  33  51  70  98 134 166 208 268 322
#     4   9  18  31  48  72  96 124 171 217 255 314
#
# _framework density 20.161204999999999
#
# number of rings (size 3 to 8) (size 9 to 14) (size 15 to 20)
#    0.000    2.667    0.000    1.000    0.000    7.333 
#    0.000   11.667    0.000    3.000    0.000    0.000 
#    0.000    0.000    0.000    0.000    0.000    0.000 
#
# Total GULP energy -594905.187748 kJ/mol
# GULP energy per Si atom -12393.858078 kJ/mol
# Density = 2.011532 g / cm^3
# Si number density = 20.161205 Si / 1000 Ang^3
#
#
#
# Elastic Constant Matrix: (Units=GPa)
#
#
# Indices 1 2 3 4 5 6 
#
# 1 92.7875 16.6366 18.3190 0.0000 0.0000 0.0000
# 2 16.6366 100.3328 27.1823 0.0000 0.0000 0.0000
# 3 18.3190 27.1823 115.4167 0.0000 0.0000 0.0000
# 4 0.0000 0.0000 0.0000 -1.5795 0.0000 0.0000
# 5 0.0000 0.0000 0.0000 0.0000 16.9068 0.0000
# 6 0.0000 0.0000 0.0000 0.0000 0.0000 8.2326
#
#
#
# Elastic Compliance Matrix: (Units=1/GPa)
#
#
# Indices 1 2 3 4 5 6 
#
# 1 0.011330 -0.001486 -0.001448 0.000000 0.000000 0.000000
# 2 -0.001486 0.010841 -0.002317 0.000000 0.000000 0.000000
# 3 -0.001448 -0.002317 0.009440 0.000000 0.000000 0.000000
# 4 0.000000 0.000000 0.000000 -0.633124 0.000000 0.000000
# 5 0.000000 0.000000 0.000000 0.000000 0.059148 0.000000
# 6 0.000000 0.000000 0.000000 0.000000 0.000000 0.121468
#
#
# Mechanical properties :
#
#
# Convention : Reuss Voigt Hill
#
# Bulk Modulus (GPa) = 47.37756 48.09033 47.73395
# Shear Modulus (GPa) = -12.39593 21.13859 4.37133
#
# Velocity S-wave (km/s) = -2.48229 3.24153 1.47407
# Velocity P-wave (km/s) = 3.91596 6.15750 5.15992
#
# Compressibility (1/GPa) = 0.02110704
#
# Stress axis : x y z
#
# Youngs Moduli (GPa) = 88.26347 92.24166 105.93354
#
# Poissons Ratio (x) = 0.13710 0.15341
# Poissons Ratio (y) = 0.13118 0.24548
# Poissons Ratio (z) = 0.12782 0.21375
#
# Static dielectric constant tensor:
#      x y z
#    x 3.646990 0.000000 0.000000 
#    y 0.000000 3.759460 0.000000 
#    z 0.000000 0.000000 3.959290 
# 
# 
# High freq. dielectric constant tensor:
#      x y z
#    x 1.787970 0.000000 0.000000 
#    y 0.000000 1.785440 0.000000 
#    z 0.000000 0.000000 1.788380 
# 
# From -- ./inp_files/62635.got.cif
#   From: 2010.03.12/outbox.cif.g09.slc.cpg/sg65_32_cif.got.tgz:62635.got - 2010.04.10 20:52:16.
