data_PCOD8273655
_publ_section_title
;
Structure prediction by ZEFSAII (Michael W. Deem and Ramdas Pophale) SiO2 
 PCOD8273655
Probable space group: C M M M
;
_chemical_formula_sum "Si O2"
_cell_formula_units_Z 96
_cell_length_a 23.681159
_cell_length_b 8.665860
_cell_length_c 25.023966
_cell_angle_alpha 90.000000
_cell_angle_beta 90.000000
_cell_angle_gamma 90.000000
_cell_volume 5135.358458
_symmetry_space_group_name_H-M "C M M M"
_symmetry_group_IT_number 65
_symmetry_cell_setting 'orthorhombic'
loop_
_space_group_symop_operation_xyz
x,y,z
-x,-y,z
x,-y,-z
-x,y,-z
-x,-y,-z
x,y,-z
-x,y,z
x,-y,z
1/2+x,1/2+y,z
1/2-x,1/2-y,z
1/2+x,1/2-y,-z
1/2-x,1/2+y,-z
1/2-x,1/2-y,-z
1/2+x,1/2+y,-z
1/2-x,1/2+y,z
1/2+x,1/2-y,z
loop_
_atom_site_type_symbol
_atom_site_label
_atom_site_fract_x
_atom_site_fract_y
_atom_site_fract_z
Si Si1 0.000000 0.321445 0.292747
Si Si2 0.123036 0.823239 0.153381
Si Si3 0.688289 0.817254 0.252237
Si Si4 0.500000 0.672373 0.814552
Si Si5 0.190742 0.318355 0.939203
Si Si6 0.935197 0.319281 0.439374
Si Si7 0.887614 0.818668 0.660434
O O1 0.945137 0.236856 0.313578
O O2 0.000000 0.500000 0.310362
O O3 0.000000 0.306613 0.229241
O O4 0.146881 0.735682 0.205048
O O5 0.142726 0.749163 0.098259
O O6 0.055551 0.807667 0.149707
O O7 0.142873 0.000000 0.157367
O O8 0.750000 0.750000 0.241983
O O9 0.664884 0.760571 0.309541
O O10 0.691504 0.000000 0.252456
O O11 0.500000 0.500000 0.788140
O O12 0.193358 0.500000 0.932887
O O13 0.250000 0.250000 0.919724
O O14 0.177638 0.268210 0.000000
O O15 0.924905 0.264257 0.500000
O O16 0.923825 0.500000 0.433869
O O17 0.890668 0.229235 0.401978
O O18 0.000000 0.282291 0.422326
O O19 0.880315 0.000000 0.666285
#
# Coordination Sequence:
#
# PCOD8273655 Si02
#       7
#     8  16  16   8  16  16  16
#     4  12  22  34  55  82 113 154 194 231 281 340
#     4  11  22  38  60  86 117 151 188 234 285 339
#     4  12  25  41  60  84 114 150 191 235 286 341
#     4  10  22  38  57  82 117 153 190 231 279 339
#     4  10  21  38  60  85 113 148 192 240 287 337
#     4   9  18  33  54  81 114 151 191 234 281 335
#     4  12  23  36  56  84 118 152 189 236 285 341
#
# _framework density 18.693923000000002
#
# number of rings (size 3 to 8) (size 9 to 14) (size 15 to 20)
#    0.000    1.167    2.500    5.750    0.000    2.000 
#    0.000    1.250    0.000    3.000    0.000    0.000 
#    0.000    0.000    0.000    0.000    0.000    0.000 
#
# Total GULP energy -595321.687494 kJ/mol
# GULP energy per Si atom -12402.535156 kJ/mol
# Density = 1.865138 g / cm^3
# Si number density = 18.693923 Si / 1000 Ang^3
#
#
#
# Elastic Constant Matrix: (Units=GPa)
#
#
# Indices 1 2 3 4 5 6 
#
# 1 105.6142 40.8369 48.2525 0.0000 0.0000 0.0000
# 2 40.8369 119.4974 43.1922 0.0000 0.0000 0.0000
# 3 48.2525 43.1922 105.2831 0.0000 0.0000 0.0000
# 4 0.0000 0.0000 0.0000 33.3075 0.0000 0.0000
# 5 0.0000 0.0000 0.0000 0.0000 23.6648 0.0000
# 6 0.0000 0.0000 0.0000 0.0000 0.0000 24.4303
#
#
#
# Elastic Compliance Matrix: (Units=1/GPa)
#
#
# Indices 1 2 3 4 5 6 
#
# 1 0.012634 -0.002612 -0.004719 0.000000 0.000000 0.000000
# 2 -0.002612 0.010365 -0.003055 0.000000 0.000000 0.000000
# 3 -0.004719 -0.003055 0.012914 0.000000 0.000000 0.000000
# 4 0.000000 0.000000 0.000000 0.030023 0.000000 0.000000
# 5 0.000000 0.000000 0.000000 0.000000 0.042257 0.000000
# 6 0.000000 0.000000 0.000000 0.000000 0.000000 0.040933
#
#
# Mechanical properties :
#
#
# Convention : Reuss Voigt Hill
#
# Bulk Modulus (GPa) = 66.04275 66.10642 66.07458
# Shear Modulus (GPa) = 28.58019 29.48807 29.03413
#
# Velocity S-wave (km/s) = 3.91429 3.97598 3.94525
# Velocity P-wave (km/s) = 7.47222 7.51779 7.49504
#
# Compressibility (1/GPa) = 0.01514171
#
# Stress axis : x y z
#
# Youngs Moduli (GPa) = 79.14940 96.47559 77.43333
#
# Poissons Ratio (x) = 0.25199 0.36540
# Poissons Ratio (y) = 0.20674 0.23658
# Poissons Ratio (z) = 0.37350 0.29476
#
# Static dielectric constant tensor:
#      x y z
#    x 3.428120 0.000000 0.000000 
#    y 0.000000 3.578330 0.000000 
#    z 0.000000 0.000000 3.618810 
# 
# 
# High freq. dielectric constant tensor:
#      x y z
#    x 1.710580 0.000000 0.000000 
#    y 0.000000 1.738570 0.000000 
#    z 0.000000 0.000000 1.728170 
# 
# From -- ./inp_files/71473.got.cif
#   From: 2010.03.12/outbox.cif.g09.slc.cpg/sg65_36_cif.got.tgz:71473.got - 2010.04.10 20:52:16.
