data_PCOD8273837
_publ_section_title
;
Structure prediction by ZEFSAII (Michael W. Deem and Ramdas Pophale) SiO2 
 PCOD8273837
Probable space group: C M M M
;
_chemical_formula_sum "Si O2"
_cell_formula_units_Z 72
_cell_length_a 14.761175
_cell_length_b 28.405721
_cell_length_c 8.823940
_cell_angle_alpha 90.000000
_cell_angle_beta 90.000000
_cell_angle_gamma 90.000000
_cell_volume 3699.894090
_symmetry_space_group_name_H-M "C M M M"
_symmetry_group_IT_number 65
_symmetry_cell_setting 'orthorhombic'
loop_
_space_group_symop_operation_xyz
x,y,z
-x,-y,z
x,-y,-z
-x,y,-z
-x,-y,-z
x,y,-z
-x,y,z
x,-y,z
1/2+x,1/2+y,z
1/2-x,1/2-y,z
1/2+x,1/2-y,-z
1/2-x,1/2+y,-z
1/2-x,1/2-y,-z
1/2+x,1/2+y,-z
1/2-x,1/2+y,z
1/2+x,1/2-y,z
loop_
_atom_site_type_symbol
_atom_site_label
_atom_site_fract_x
_atom_site_fract_y
_atom_site_fract_z
Si Si1 0.500000 0.944567 0.820142
Si Si2 0.500000 0.792673 0.671802
Si Si3 0.172347 0.136684 0.825225
Si Si4 0.393520 0.551551 0.333173
Si Si5 0.637356 0.873229 0.675877
Si Si6 0.500000 0.694177 0.821888
O O1 0.590209 0.917634 0.760014
O O2 0.500000 0.000000 0.769585
O O3 0.500000 0.941118 0.000000
O O4 0.500000 0.773599 0.500000
O O5 0.586191 0.824643 0.705944
O O6 0.500000 0.748904 0.784314
O O7 0.140672 0.083179 0.804365
O O8 0.263732 0.141069 0.731372
O O9 0.092329 0.170197 0.757843
O O10 0.191930 0.147752 0.000000
O O11 0.363928 0.571044 0.500000
O O12 0.500000 0.547939 0.325817
O O13 0.350512 0.500000 0.309639
O O14 0.637379 0.886961 0.500000
O O15 0.500000 0.685945 0.000000
#
# Coordination Sequence:
#
# PCOD8273837 Si02
#       6
#     8   8  16  16  16   8
#     4  10  21  39  64  93 121 152 191 234 284 341
#     4   9  21  41  62  83 108 142 188 239 292 347
#     4  11  22  37  56  84 118 153 194 237 285 342
#     4   9  18  33  53  77 107 146 189 230 276 330
#     4  10  22  40  61  87 117 151 192 237 287 341
#     4  10  23  39  57  83 116 151 190 236 290 347
#
# _framework density 19.460017000000001
#
# number of rings (size 3 to 8) (size 9 to 14) (size 15 to 20)
#    0.000    2.111    1.111    3.000    0.000    7.556 
#    0.000    5.556    0.000    0.000    0.000    0.000 
#    0.000    0.000    0.000    0.000    0.000    0.000 
#
# Total GULP energy -446174.125730 kJ/mol
# GULP energy per Si atom -12393.725715 kJ/mol
# Density = 1.941572 g / cm^3
# Si number density = 19.460017 Si / 1000 Ang^3
#
#
#
# Elastic Constant Matrix: (Units=GPa)
#
#
# Indices 1 2 3 4 5 6 
#
# 1 135.1961 69.0593 39.6634 0.0000 0.0000 0.0000
# 2 69.0593 115.8233 44.0785 0.0000 0.0000 0.0000
# 3 39.6634 44.0785 65.5213 0.0000 0.0000 0.0000
# 4 0.0000 0.0000 0.0000 31.3592 0.0000 0.0000
# 5 0.0000 0.0000 0.0000 0.0000 28.2489 0.0000
# 6 0.0000 0.0000 0.0000 0.0000 0.0000 8.6522
#
#
#
# Elastic Compliance Matrix: (Units=1/GPa)
#
#
# Indices 1 2 3 4 5 6 
#
# 1 0.011069 -0.005443 -0.003039 0.000000 0.000000 0.000000
# 2 -0.005443 0.014282 -0.006313 0.000000 0.000000 0.000000
# 3 -0.003039 -0.006313 0.021348 0.000000 0.000000 0.000000
# 4 0.000000 0.000000 0.000000 0.031889 0.000000 0.000000
# 5 0.000000 0.000000 0.000000 0.000000 0.035400 0.000000
# 6 0.000000 0.000000 0.000000 0.000000 0.000000 0.115577
#
#
# Mechanical properties :
#
#
# Convention : Reuss Voigt Hill
#
# Bulk Modulus (GPa) = 58.44643 69.12701 63.78672
# Shear Modulus (GPa) = 18.87815 24.56804 21.72310
#
# Velocity S-wave (km/s) = 3.11802 3.55701 3.34472
# Velocity P-wave (km/s) = 6.56217 7.24358 6.91128
#
# Compressibility (1/GPa) = 0.01710968
#
# Stress axis : x y z
#
# Youngs Moduli (GPa) = 90.34621 70.01926 46.84191
#
# Poissons Ratio (x) = 0.38113 0.14233
# Poissons Ratio (y) = 0.49177 0.29570
# Poissons Ratio (z) = 0.27452 0.44202
#
# Static dielectric constant tensor:
#      x y z
#    x 3.793450 0.000000 0.000000 
#    y 0.000000 3.779680 0.000000 
#    z 0.000000 0.000000 3.540710 
# 
# 
# High freq. dielectric constant tensor:
#      x y z
#    x 1.761700 0.000000 0.000000 
#    y 0.000000 1.755940 0.000000 
#    z 0.000000 0.000000 1.754960 
# 
# From -- ./inp_files/7766.got.cif
#   From: 2010.03.12/outbox.cif.g09.slc.cpg/sg65_4_cif.got.tgz:7766.got - 2010.04.10 20:52:16.
