data_PCOD8273318
_publ_section_title
;
Structure prediction by ZEFSAII (Michael W. Deem and Ramdas Pophale) SiO2 
 PCOD8273318
Probable space group: C M M M
;
_chemical_formula_sum "Si O2"
_cell_formula_units_Z 96
_cell_length_a 19.830726
_cell_length_b 8.712724
_cell_length_c 29.874446
_cell_angle_alpha 90.000000
_cell_angle_beta 90.000000
_cell_angle_gamma 90.000000
_cell_volume 5161.696096
_symmetry_space_group_name_H-M "C M M M"
_symmetry_group_IT_number 65
_symmetry_cell_setting 'orthorhombic'
loop_
_space_group_symop_operation_xyz
x,y,z
-x,-y,z
x,-y,-z
-x,y,-z
-x,-y,-z
x,y,-z
-x,y,z
x,-y,z
1/2+x,1/2+y,z
1/2-x,1/2-y,z
1/2+x,1/2-y,-z
1/2-x,1/2+y,-z
1/2-x,1/2-y,-z
1/2+x,1/2+y,-z
1/2-x,1/2+y,z
1/2+x,1/2-y,z
loop_
_atom_site_type_symbol
_atom_site_label
_atom_site_fract_x
_atom_site_fract_y
_atom_site_fract_z
Si Si1 0.578349 0.822127 0.718321
Si Si2 0.321176 0.680794 0.212701
Si Si3 0.820452 0.320184 0.117659
Si Si4 0.422254 0.676086 0.948333
Si Si5 0.820118 0.181314 0.449756
Si Si6 0.922724 0.821719 0.624973
O O1 0.500000 0.785476 0.726918
O O2 0.620809 0.721229 0.752476
O O3 0.598666 0.775753 0.668125
O O4 0.594945 0.000000 0.725701
O O5 0.313378 0.500000 0.208927
O O6 0.250000 0.750000 0.228898
O O7 0.342441 0.746749 0.164625
O O8 0.811378 0.500000 0.124460
O O9 0.750000 0.250000 0.100638
O O10 0.877500 0.288641 0.081198
O O11 0.500000 0.709669 0.937309
O O12 0.404521 0.500000 0.937134
O O13 0.407011 0.711403 0.000000
O O14 0.836337 0.240689 0.500000
O O15 0.750000 0.250000 0.432290
O O16 0.879022 0.237683 0.416842
O O17 0.814194 0.000000 0.449202
O O18 0.000000 0.792014 0.611930
O O19 0.909389 0.000000 0.635589
#
# Coordination Sequence:
#
# PCOD8273318 Si02
#       6
#    16  16  16  16  16  16
#     4  10  21  37  56  79 108 140 176 218 263 313
#     4  11  22  38  59  81 108 140 177 220 266 317
#     4  11  22  37  57  81 111 144 180 222 267 317
#     4   9  19  37  59  82 110 144 182 224 269 317
#     4   9  18  32  50  73 101 133 169 211 258 308
#     4   9  18  33  52  74 101 134 173 215 259 308
#
# _framework density 18.598538000000001
#
# number of rings (size 3 to 8) (size 9 to 14) (size 15 to 20)
#    0.000    2.167    0.000    5.000    0.000    4.333 
#    0.000    4.167    0.000    0.000    0.000    4.667 
#    0.000    0.000    0.000    0.000    0.000    0.000 
#
# Total GULP energy -595363.639956 kJ/mol
# GULP energy per Si atom -12403.409166 kJ/mol
# Density = 1.855621 g / cm^3
# Si number density = 18.598538 Si / 1000 Ang^3
#
#
#
# Elastic Constant Matrix: (Units=GPa)
#
#
# Indices 1 2 3 4 5 6 
#
# 1 103.4447 47.5656 78.8982 0.0000 0.0000 0.0000
# 2 47.5656 107.6658 48.6814 0.0000 0.0000 0.0000
# 3 78.8982 48.6814 106.2395 0.0000 0.0000 0.0000
# 4 0.0000 0.0000 0.0000 30.1847 0.0000 0.0000
# 5 0.0000 0.0000 0.0000 0.0000 64.0224 0.0000
# 6 0.0000 0.0000 0.0000 0.0000 0.0000 31.5206
#
#
#
# Elastic Compliance Matrix: (Units=1/GPa)
#
#
# Indices 1 2 3 4 5 6 
#
# 1 0.023081 -0.003086 -0.015727 0.000000 0.000000 0.000000
# 2 -0.003086 0.012128 -0.003265 0.000000 0.000000 0.000000
# 3 -0.015727 -0.003265 0.022589 0.000000 0.000000 0.000000
# 4 0.000000 0.000000 0.000000 0.033129 0.000000 0.000000
# 5 0.000000 0.000000 0.000000 0.000000 0.015620 0.000000
# 6 0.000000 0.000000 0.000000 0.000000 0.000000 0.031725
#
#
# Mechanical properties :
#
#
# Convention : Reuss Voigt Hill
#
# Bulk Modulus (GPa) = 73.31037 74.18228 73.74632
# Shear Modulus (GPa) = 26.74149 34.62586 30.68368
#
# Velocity S-wave (km/s) = 3.79598 4.31948 4.06617
# Velocity P-wave (km/s) = 7.66260 8.05294 7.86020
#
# Compressibility (1/GPa) = 0.01364064
#
# Stress axis : x y z
#
# Youngs Moduli (GPa) = 43.32555 82.45479 44.27023
#
# Poissons Ratio (x) = 0.25445 0.69624
# Poissons Ratio (y) = 0.13370 0.14456
# Poissons Ratio (z) = 0.68138 0.26925
#
# Static dielectric constant tensor:
#      x y z
#    x 3.428220 0.000000 0.000000 
#    y 0.000000 3.392440 0.000000 
#    z 0.000000 0.000000 3.464360 
# 
# 
# High freq. dielectric constant tensor:
#      x y z
#    x 1.723080 0.000000 0.000000 
#    y 0.000000 1.725050 0.000000 
#    z 0.000000 0.000000 1.723940 
# 
# From -- ./inp_files/73065.got.cif
#   From: 2010.03.12/outbox.cif.g09.slc.cpg/sg65_37_cif.got.tgz:73065.got - 2010.04.10 20:52:16.
