data_PCOD8273172
_publ_section_title
;
Structure prediction by ZEFSAII (Michael W. Deem and Ramdas Pophale) SiO2 
 PCOD8273172
Probable space group: C M M M
;
_chemical_formula_sum "Si O2"
_cell_formula_units_Z 88
_cell_length_a 9.037618
_cell_length_b 18.119819
_cell_length_c 27.999391
_cell_angle_alpha 90.000000
_cell_angle_beta 90.000000
_cell_angle_gamma 90.000000
_cell_volume 4585.180336
_symmetry_space_group_name_H-M "C M M M"
_symmetry_group_IT_number 65
_symmetry_cell_setting 'orthorhombic'
loop_
_space_group_symop_operation_xyz
x,y,z
-x,-y,z
x,-y,-z
-x,y,-z
-x,-y,-z
x,y,-z
-x,y,z
x,-y,z
1/2+x,1/2+y,z
1/2-x,1/2-y,z
1/2+x,1/2-y,-z
1/2-x,1/2+y,-z
1/2-x,1/2-y,-z
1/2+x,1/2+y,-z
1/2-x,1/2+y,z
1/2+x,1/2-y,z
loop_
_atom_site_type_symbol
_atom_site_label
_atom_site_fract_x
_atom_site_fract_y
_atom_site_fract_z
Si Si1 0.173448 0.171590 0.500000
Si Si2 0.327476 0.084937 0.227321
Si Si3 0.825352 0.671191 0.321913
Si Si4 0.166011 0.087180 0.132869
Si Si5 0.328325 0.413806 0.405299
Si Si6 0.173075 0.674298 0.945243
O O1 0.250000 0.250000 0.500000
O O2 0.222777 0.125878 0.453715
O O3 0.000000 0.185086 0.500000
O O4 0.500000 0.092273 0.215857
O O5 0.279563 0.134993 0.271729
O O6 0.239216 0.116265 0.181741
O O7 0.285754 0.000000 0.238627
O O8 0.750000 0.750000 0.327554
O O9 0.771120 0.616565 0.362813
O O10 0.000000 0.681132 0.326356
O O11 0.261487 0.110144 0.087276
O O12 0.000000 0.119216 0.129101
O O13 0.164872 0.000000 0.133516
O O14 0.500000 0.398113 0.393969
O O15 0.297456 0.500000 0.411518
O O16 0.250000 0.750000 0.930027
O O17 0.000000 0.682222 0.936212
O O18 0.208822 0.654141 0.000000
#
# Coordination Sequence:
#
# PCOD8273172 Si02
#       6
#     8  16  16  16  16  16
#     4  10  21  37  57  83 115 150 187 228 276 328
#     4   9  19  37  58  78 105 143 184 227 275 326
#     4  11  23  38  57  83 114 147 185 229 277 328
#     4  10  21  36  56  83 113 145 182 225 272 324
#     4  10  21  38  60  84 112 148 188 230 277 330
#     4  10  21  37  57  80 108 144 184 226 274 328
#
# _framework density 19.192264999999999
#
# number of rings (size 3 to 8) (size 9 to 14) (size 15 to 20)
#    0.000    2.000    0.000    3.000    0.000    9.091 
#    0.000    5.455    0.000    1.636    0.000    0.000 
#    0.000    0.000    0.000    0.000    0.000    0.000 
#
# Total GULP energy -545794.399979 kJ/mol
# GULP energy per Si atom -12404.418181 kJ/mol
# Density = 1.914858 g / cm^3
# Si number density = 19.192265 Si / 1000 Ang^3
#
#
#
# Elastic Constant Matrix: (Units=GPa)
#
#
# Indices 1 2 3 4 5 6 
#
# 1 85.4673 39.2361 64.2317 0.0000 0.0000 0.0000
# 2 39.2361 88.0326 55.0662 0.0000 0.0000 0.0000
# 3 64.2317 55.0662 139.5068 0.0000 0.0000 0.0000
# 4 0.0000 0.0000 0.0000 26.0179 0.0000 0.0000
# 5 0.0000 0.0000 0.0000 0.0000 35.9517 0.0000
# 6 0.0000 0.0000 0.0000 0.0000 0.0000 31.7191
#
#
#
# Elastic Compliance Matrix: (Units=1/GPa)
#
#
# Indices 1 2 3 4 5 6 
#
# 1 0.018873 -0.003952 -0.007129 0.000000 0.000000 0.000000
# 2 -0.003952 0.015911 -0.004461 0.000000 0.000000 0.000000
# 3 -0.007129 -0.004461 0.012211 0.000000 0.000000 0.000000
# 4 0.000000 0.000000 0.000000 0.038435 0.000000 0.000000
# 5 0.000000 0.000000 0.000000 0.000000 0.027815 0.000000
# 6 0.000000 0.000000 0.000000 0.000000 0.000000 0.031527
#
#
# Mechanical properties :
#
#
# Convention : Reuss Voigt Hill
#
# Bulk Modulus (GPa) = 62.85068 70.00831 66.42950
# Shear Modulus (GPa) = 27.59985 29.03591 28.31788
#
# Velocity S-wave (km/s) = 3.79631 3.89382 3.84537
# Velocity P-wave (km/s) = 7.21352 7.53474 7.37588
#
# Compressibility (1/GPa) = 0.01591073
#
# Stress axis : x y z
#
# Youngs Moduli (GPa) = 52.98678 62.84879 81.89022
#
# Poissons Ratio (x) = 0.24837 0.58383
# Poissons Ratio (y) = 0.20940 0.36531
# Poissons Ratio (z) = 0.37777 0.28037
#
# Static dielectric constant tensor:
#      x y z
#    x 3.653790 0.000000 0.000000 
#    y 0.000000 3.438770 0.000000 
#    z 0.000000 0.000000 3.647280 
# 
# 
# High freq. dielectric constant tensor:
#      x y z
#    x 1.751610 0.000000 0.000000 
#    y 0.000000 1.746420 0.000000 
#    z 0.000000 0.000000 1.759450 
# 
# From -- ./inp_files/67463.got.cif
#   From: 2010.03.12/outbox.cif.g09.slc.cpg/sg65_34_cif.got.tgz:67463.got - 2010.04.10 20:52:16.
