data_PCOD8273245
_publ_section_title
;
Structure prediction by ZEFSAII (Michael W. Deem and Ramdas Pophale) SiO2 
 PCOD8273245
Probable space group: C M M M
;
_chemical_formula_sum "Si O2"
_cell_formula_units_Z 80
_cell_length_a 25.494614
_cell_length_b 9.044783
_cell_length_c 22.367108
_cell_angle_alpha 90.000000
_cell_angle_beta 90.000000
_cell_angle_gamma 90.000000
_cell_volume 5157.704156
_symmetry_space_group_name_H-M "C M M M"
_symmetry_group_IT_number 65
_symmetry_cell_setting 'orthorhombic'
loop_
_space_group_symop_operation_xyz
x,y,z
-x,-y,z
x,-y,-z
-x,y,-z
-x,-y,-z
x,y,-z
-x,y,z
x,-y,z
1/2+x,1/2+y,z
1/2-x,1/2-y,z
1/2+x,1/2-y,-z
1/2-x,1/2+y,-z
1/2-x,1/2-y,-z
1/2+x,1/2+y,-z
1/2-x,1/2+y,z
1/2+x,1/2-y,z
loop_
_atom_site_type_symbol
_atom_site_label
_atom_site_fract_x
_atom_site_fract_y
_atom_site_fract_z
Si Si1 0.437240 0.833630 0.872290
Si Si2 0.098517 0.175052 0.370875
Si Si3 0.942064 0.676504 0.000000
Si Si4 0.000000 0.330773 0.570795
Si Si5 0.058969 0.172264 0.242988
Si Si6 0.304531 0.171911 0.430698
O O1 0.500000 0.823232 0.875043
O O2 0.414922 0.740552 0.816638
O O3 0.418434 0.000000 0.861267
O O4 0.414486 0.775216 0.936997
O O5 0.093378 0.212128 0.300674
O O6 0.152383 0.246413 0.391537
O O7 0.051102 0.246844 0.406728
O O8 0.098221 0.000000 0.382962
O O9 0.946557 0.500000 0.000000
O O10 0.000000 0.746490 0.000000
O O11 0.000000 0.500000 0.594026
O O12 0.000000 0.327166 0.500000
O O13 0.000000 0.234544 0.253351
O O14 0.056527 0.000000 0.232310
O O15 0.319432 0.190810 0.500000
O O16 0.250000 0.250000 0.415870
O O17 0.301220 0.000000 0.413035
#
# Coordination Sequence:
#
# PCOD8273245 Si02
#       6
#    16  16   8   8  16  16
#     4   8  13  21  35  53  73 104 144 182 218 255
#     4  11  21  34  50  68  92 123 153 185 228 274
#     4   7  10  18  31  49  73  99 136 183 220 251
#     4  11  23  35  47  67  93 118 149 190 229 269
#     4   9  17  29  40  56  85 117 148 182 219 262
#     4  10  21  37  55  74  93 114 145 186 230 276
#
# _framework density 15.510776999999999
#
# number of rings (size 3 to 8) (size 9 to 14) (size 15 to 20)
#    0.000    2.600    1.000    3.300    0.000    6.000 
#    0.000    0.500    0.000    3.000    0.000    0.000 
#    0.000    0.000    0.000    0.900    0.000   11.700 
#
# Total GULP energy -495686.261024 kJ/mol
# GULP energy per Si atom -12392.156526 kJ/mol
# Density = 1.547547 g / cm^3
# Si number density = 15.510777 Si / 1000 Ang^3
#
#
#
# Elastic Constant Matrix: (Units=GPa)
#
#
# Indices 1 2 3 4 5 6 
#
# 1 67.3869 41.3678 54.5965 0.0000 0.0000 0.0000
# 2 41.3678 82.5170 65.7700 0.0000 0.0000 0.0000
# 3 54.5965 65.7700 137.5875 0.0000 0.0000 0.0000
# 4 0.0000 0.0000 0.0000 25.4532 0.0000 0.0000
# 5 0.0000 0.0000 0.0000 0.0000 -22.8322 0.0000
# 6 0.0000 0.0000 0.0000 0.0000 0.0000 26.2325
#
#
#
# Elastic Compliance Matrix: (Units=1/GPa)
#
#
# Indices 1 2 3 4 5 6 
#
# 1 0.024297 -0.007263 -0.006169 0.000000 0.000000 0.000000
# 2 -0.007263 0.021750 -0.007515 0.000000 0.000000 0.000000
# 3 -0.006169 -0.007515 0.013308 0.000000 0.000000 0.000000
# 4 0.000000 0.000000 0.000000 0.039288 0.000000 0.000000
# 5 0.000000 0.000000 0.000000 0.000000 -0.043798 0.000000
# 6 0.000000 0.000000 0.000000 0.000000 0.000000 0.038121
#
#
# Mechanical properties :
#
#
# Convention : Reuss Voigt Hill
#
# Bulk Modulus (GPa) = 57.27304 67.88444 62.57874
# Shear Modulus (GPa) = 35.54174 14.15452 24.84813
#
# Velocity S-wave (km/s) = 4.79207 3.02414 4.00683
# Velocity P-wave (km/s) = 8.22335 7.48698 7.86379
#
# Compressibility (1/GPa) = 0.01746022
#
# Stress axis : x y z
#
# Youngs Moduli (GPa) = 41.15759 45.97806 75.14136
#
# Poissons Ratio (x) = 0.33396 0.46356
# Poissons Ratio (y) = 0.29895 0.56465
# Poissons Ratio (z) = 0.25391 0.34550
#
# Static dielectric constant tensor:
#      x y z
#    x 2.497460 0.000000 0.000000 
#    y 0.000000 3.036380 0.000000 
#    z 0.000000 0.000000 3.360310 
# 
# 
# High freq. dielectric constant tensor:
#      x y z
#    x 1.536270 0.000000 0.000000 
#    y 0.000000 1.597580 0.000000 
#    z 0.000000 0.000000 1.610070 
# 
# From -- ./inp_files/71354.got.cif
#   From: 2010.03.12/outbox.cif.g09.slc.cpg/sg65_36_cif.got.tgz:71354.got - 2010.04.10 20:52:16.
