data_PCOD8273080
_publ_section_title
;
Structure prediction by ZEFSAII (Michael W. Deem and Ramdas Pophale) SiO2 
 PCOD8273080
Probable space group: C M M M
;
_chemical_formula_sum "Si O2"
_cell_formula_units_Z 104
_cell_length_a 28.380674
_cell_length_b 8.048121
_cell_length_c 22.866028
_cell_angle_alpha 90.000000
_cell_angle_beta 90.000000
_cell_angle_gamma 90.000000
_cell_volume 5222.854572
_symmetry_space_group_name_H-M "C M M M"
_symmetry_group_IT_number 65
_symmetry_cell_setting 'orthorhombic'
loop_
_space_group_symop_operation_xyz
x,y,z
-x,-y,z
x,-y,-z
-x,y,-z
-x,-y,-z
x,y,-z
-x,y,z
x,-y,z
1/2+x,1/2+y,z
1/2-x,1/2-y,z
1/2+x,1/2-y,-z
1/2-x,1/2+y,-z
1/2-x,1/2-y,-z
1/2+x,1/2+y,-z
1/2-x,1/2+y,z
1/2+x,1/2-y,z
loop_
_atom_site_type_symbol
_atom_site_label
_atom_site_fract_x
_atom_site_fract_y
_atom_site_fract_z
Si Si1 0.605743 0.807159 0.125305
Si Si2 0.700482 0.805486 0.935041
Si Si3 0.053109 0.193234 0.637510
Si Si4 0.555574 0.500000 0.933613
Si Si5 0.361744 0.808433 0.434805
Si Si6 0.197278 0.191373 0.669175
Si Si7 0.386109 0.694019 0.747541
O O1 0.657767 0.747878 0.105784
O O2 0.570674 0.672363 0.097415
O O3 0.603058 0.800002 0.195117
O O4 0.594538 0.000000 0.106056
O O5 0.750000 0.750000 0.906238
O O6 0.699764 0.000000 0.940951
O O7 0.695203 0.725111 0.000000
O O8 0.086138 0.286664 0.591454
O O9 0.070421 0.223048 0.703613
O O10 0.000000 0.261853 0.631655
O O11 0.055866 0.000000 0.621982
O O12 0.500000 0.500000 0.932186
O O13 0.574845 0.500000 0.000000
O O14 0.360211 0.731199 0.500000
O O15 0.321120 0.723682 0.396231
O O16 0.349045 0.000000 0.437094
O O17 0.250000 0.250000 0.679039
O O18 0.161202 0.268724 0.716812
O O19 0.195648 0.000000 0.681313
O O20 0.381131 0.500000 0.763908
#
# Coordination Sequence:
#
# PCOD8273080 Si02
#       7
#    16  16  16   8  16  16  16
#     4  11  23  40  64  93 125 162 206 256 310 372
#     4   9  19  34  54  84 118 152 192 237 289 354
#     4   9  19  36  58  82 110 147 188 237 299 360
#     4  11  26  46  68  92 122 166 211 259 318 370
#     4  10  21  36  54  79 113 151 196 247 295 351
#     4  10  21  37  59  84 116 158 198 244 297 349
#     4   9  19  37  57  85 118 154 193 240 296 358
#
# _framework density 19.912483999999999
#
# number of rings (size 3 to 8) (size 9 to 14) (size 15 to 20)
#    0.000    2.231    0.769    2.308    1.077    7.692 
#    0.000    5.385    0.000    0.000    0.000    0.000 
#    0.000    0.000    0.000    0.000    0.000    0.000 
#
# Total GULP energy -644632.512262 kJ/mol
# GULP energy per Si atom -12396.779082 kJ/mol
# Density = 1.986716 g / cm^3
# Si number density = 19.912484 Si / 1000 Ang^3
#
#
#
# Elastic Constant Matrix: (Units=GPa)
#
#
# Indices 1 2 3 4 5 6 
#
# 1 93.5295 25.4604 22.3074 0.0000 0.0000 0.0000
# 2 25.4604 61.6638 27.8797 0.0000 0.0000 0.0000
# 3 22.3074 27.8797 106.8463 0.0000 0.0000 0.0000
# 4 0.0000 0.0000 0.0000 26.1301 0.0000 0.0000
# 5 0.0000 0.0000 0.0000 0.0000 16.9474 0.0000
# 6 0.0000 0.0000 0.0000 0.0000 0.0000 32.7103
#
#
#
# Elastic Compliance Matrix: (Units=1/GPa)
#
#
# Indices 1 2 3 4 5 6 
#
# 1 0.012228 -0.004415 -0.001401 0.000000 0.000000 0.000000
# 2 -0.004415 0.019980 -0.004292 0.000000 0.000000 0.000000
# 3 -0.001401 -0.004292 0.010772 0.000000 0.000000 0.000000
# 4 0.000000 0.000000 0.000000 0.038270 0.000000 0.000000
# 5 0.000000 0.000000 0.000000 0.000000 0.059006 0.000000
# 6 0.000000 0.000000 0.000000 0.000000 0.000000 0.030571
#
#
# Mechanical properties :
#
#
# Convention : Reuss Voigt Hill
#
# Bulk Modulus (GPa) = 43.92904 45.92606 44.92755
# Shear Modulus (GPa) = 25.17227 27.58370 26.37799
#
# Velocity S-wave (km/s) = 3.55934 3.72593 3.64359
# Velocity P-wave (km/s) = 6.24506 6.45167 6.34921
#
# Compressibility (1/GPa) = 0.02276398
#
# Stress axis : x y z
#
# Youngs Moduli (GPa) = 81.78038 50.04900 92.83724
#
# Poissons Ratio (x) = 0.22099 0.13005
# Poissons Ratio (y) = 0.36110 0.39843
# Poissons Ratio (z) = 0.11456 0.21479
#
# Static dielectric constant tensor:
#      x y z
#    x 3.750500 0.000000 0.000000 
#    y 0.000000 3.543510 0.000000 
#    z 0.000000 0.000000 3.754860 
# 
# 
# High freq. dielectric constant tensor:
#      x y z
#    x 1.776240 0.000000 0.000000 
#    y 0.000000 1.772720 0.000000 
#    z 0.000000 0.000000 1.774250 
# 
# From -- ./inp_files/65859.got.cif
#   From: 2010.03.12/outbox.cif.g09.slc.cpg/sg65_33_cif.got.tgz:65859.got - 2010.04.10 20:52:16.
