data_PCOD8273549
_publ_section_title
;
Structure prediction by ZEFSAII (Michael W. Deem and Ramdas Pophale) SiO2 
 PCOD8273549
Probable space group: C M M M
;
_chemical_formula_sum "Si O2"
_cell_formula_units_Z 72
_cell_length_a 18.258581
_cell_length_b 9.401145
_cell_length_c 21.091787
_cell_angle_alpha 90.000000
_cell_angle_beta 90.000000
_cell_angle_gamma 90.000000
_cell_volume 3620.438299
_symmetry_space_group_name_H-M "C M M M"
_symmetry_group_IT_number 65
_symmetry_cell_setting 'orthorhombic'
loop_
_space_group_symop_operation_xyz
x,y,z
-x,-y,z
x,-y,-z
-x,y,-z
-x,-y,-z
x,y,-z
-x,y,z
x,-y,z
1/2+x,1/2+y,z
1/2-x,1/2-y,z
1/2+x,1/2-y,-z
1/2-x,1/2+y,-z
1/2-x,1/2-y,-z
1/2+x,1/2+y,-z
1/2-x,1/2+y,z
1/2+x,1/2-y,z
loop_
_atom_site_type_symbol
_atom_site_label
_atom_site_fract_x
_atom_site_fract_y
_atom_site_fract_z
Si Si1 0.412677 0.500000 0.074169
Si Si2 0.921011 0.500000 0.928038
Si Si3 0.413091 0.663750 0.378000
Si Si4 0.174783 0.331381 0.276958
Si Si5 0.087136 0.663211 0.500000
Si Si6 0.164652 0.261109 0.132867
O O1 0.500000 0.500000 0.077325
O O2 0.379410 0.377914 0.116783
O O3 0.387445 0.500000 0.000000
O O4 0.870657 0.368145 0.915154
O O5 0.000000 0.500000 0.890942
O O6 0.942678 0.500000 0.000000
O O7 0.500000 0.661308 0.377218
O O8 0.383629 0.500000 0.377757
O O9 0.387193 0.754026 0.317763
O O10 0.383653 0.748756 0.439474
O O11 0.181335 0.500000 0.292614
O O12 0.250000 0.250000 0.291919
O O13 0.151549 0.311446 0.204468
O O14 0.117479 0.500000 0.500000
O O15 0.000000 0.658521 0.500000
O O16 0.250000 0.250000 0.117694
#
# Coordination Sequence:
#
# PCOD8273549 Si02
#       6
#     8   8  16  16   8  16
#     4  11  25  43  63  91 127 162 201 258 323 379
#     4  11  23  41  63  91 125 158 199 258 321 373
#     4  10  21  37  61  93 127 166 210 255 306 367
#     4  11  24  42  63  88 122 162 204 257 314 368
#     4   9  17  33  58  89 128 167 208 259 307 357
#     4  11  24  41  64  90 120 164 211 257 309 379
#
# _framework density 19.887094999999999
#
# number of rings (size 3 to 8) (size 9 to 14) (size 15 to 20)
#    0.000    1.444    1.111    3.667    6.222    8.889 
#    0.000    0.556    0.000    0.000    0.000    0.000 
#    0.000    0.000    0.000    0.000    0.000    0.000 
#
# Total GULP energy -446166.402788 kJ/mol
# GULP energy per Si atom -12393.511189 kJ/mol
# Density = 1.984183 g / cm^3
# Si number density = 19.887095 Si / 1000 Ang^3
#
#
#
# Elastic Constant Matrix: (Units=GPa)
#
#
# Indices 1 2 3 4 5 6 
#
# 1 75.7636 46.4752 47.1538 0.0000 0.0000 0.0000
# 2 46.4752 198.9364 49.4284 0.0000 0.0000 0.0000
# 3 47.1538 49.4284 76.2331 0.0000 0.0000 0.0000
# 4 0.0000 0.0000 0.0000 46.1225 0.0000 0.0000
# 5 0.0000 0.0000 0.0000 0.0000 23.5004 0.0000
# 6 0.0000 0.0000 0.0000 0.0000 0.0000 124.3365
#
#
#
# Elastic Compliance Matrix: (Units=1/GPa)
#
#
# Indices 1 2 3 4 5 6 
#
# 1 0.022182 -0.002114 -0.012350 0.000000 0.000000 0.000000
# 2 -0.002114 0.006193 -0.002708 0.000000 0.000000 0.000000
# 3 -0.012350 -0.002708 0.022513 0.000000 0.000000 0.000000
# 4 0.000000 0.000000 0.000000 0.021681 0.000000 0.000000
# 5 0.000000 0.000000 0.000000 0.000000 0.042552 0.000000
# 6 0.000000 0.000000 0.000000 0.000000 0.000000 0.008043
#
#
# Mechanical properties :
#
#
# Convention : Reuss Voigt Hill
#
# Bulk Modulus (GPa) = 60.44473 70.78308 65.61390
# Shear Modulus (GPa) = 30.67035 52.65026 41.66031
#
# Velocity S-wave (km/s) = 3.93138 5.15093 4.58191
# Velocity P-wave (km/s) = 7.14616 8.42887 7.81388
#
# Compressibility (1/GPa) = 0.01654404
#
# Stress axis : x y z
#
# Youngs Moduli (GPa) = 45.08167 161.46131 44.41887
#
# Poissons Ratio (x) = 0.34125 0.54858
# Poissons Ratio (y) = 0.09528 0.12030
# Poissons Ratio (z) = 0.55677 0.43730
#
# Static dielectric constant tensor:
#      x y z
#    x 3.525270 0.000000 0.000000 
#    y 0.000000 3.837860 0.000000 
#    z 0.000000 0.000000 3.708070 
# 
# 
# High freq. dielectric constant tensor:
#      x y z
#    x 1.767510 0.000000 0.000000 
#    y 0.000000 1.801560 0.000000 
#    z 0.000000 0.000000 1.780600 
# 
# From -- ./inp_files/64388.got.cif
#   From: 2010.03.12/outbox.cif.g09.slc.cpg/sg65_33_cif.got.tgz:64388.got - 2010.04.10 20:52:16.
