data_PCOD8273277
_publ_section_title
;
Structure prediction by ZEFSAII (Michael W. Deem and Ramdas Pophale) SiO2 
 PCOD8273277
Probable space group: C M M M
;
_chemical_formula_sum "Si O2"
_cell_formula_units_Z 104
_cell_length_a 21.162505
_cell_length_b 28.175732
_cell_length_c 8.904677
_cell_angle_alpha 90.000000
_cell_angle_beta 90.000000
_cell_angle_gamma 90.000000
_cell_volume 5309.583467
_symmetry_space_group_name_H-M "C M M M"
_symmetry_group_IT_number 65
_symmetry_cell_setting 'orthorhombic'
loop_
_space_group_symop_operation_xyz
x,y,z
-x,-y,z
x,-y,-z
-x,y,-z
-x,-y,-z
x,y,-z
-x,y,z
x,-y,z
1/2+x,1/2+y,z
1/2-x,1/2-y,z
1/2+x,1/2-y,-z
1/2-x,1/2+y,-z
1/2-x,1/2-y,-z
1/2+x,1/2+y,-z
1/2-x,1/2+y,z
1/2+x,1/2-y,z
loop_
_atom_site_type_symbol
_atom_site_label
_atom_site_fract_x
_atom_site_fract_y
_atom_site_fract_z
Si Si1 0.500000 0.555865 0.822055
Si Si2 0.668877 0.947356 0.827236
Si Si3 0.397937 0.622605 0.322066
Si Si4 0.568593 0.727713 0.322572
Si Si5 0.430295 0.891674 0.675703
Si Si6 0.736824 0.634873 0.823065
Si Si7 0.838982 0.693577 0.322989
O O1 0.500000 0.500000 0.779673
O O2 0.562787 0.580260 0.754669
O O3 0.500000 0.562870 0.000000
O O4 0.604146 0.938237 0.738490
O O5 0.722669 0.910946 0.778086
O O6 0.693742 0.000000 0.790526
O O7 0.652328 0.940670 0.000000
O O8 0.398922 0.614399 0.500000
O O9 0.428094 0.672869 0.276500
O O10 0.327234 0.624639 0.263023
O O11 0.570739 0.734014 0.500000
O O12 0.500000 0.746767 0.264311
O O13 0.628910 0.757588 0.261045
O O14 0.435527 0.897143 0.500000
O O15 0.500000 0.887281 0.747046
O O16 0.390476 0.845632 0.720485
O O17 0.773072 0.682097 0.762118
O O18 0.724873 0.640258 0.000000
O O19 0.824011 0.695428 0.500000
#
# Coordination Sequence:
#
# PCOD8273277 Si02
#       7
#     8  16  16  16  16  16  16
#     4  11  25  45  67  91 121 155 189 229 288 357
#     4   9  19  35  52  69  94 135 183 226 271 329
#     4  11  22  39  63  90 117 145 186 235 283 336
#     4   9  17  32  57  86 114 147 188 235 282 334
#     4   9  17  29  47  74 105 136 174 224 274 319
#     4  10  21  37  55  78 113 150 187 235 289 343
#     4   9  17  32  55  80 108 148 194 231 271 329
#
# _framework density 19.587223000000002
#
# number of rings (size 3 to 8) (size 9 to 14) (size 15 to 20)
#    0.000    2.385    0.769    1.615    0.000    5.231 
#    0.000    7.692    0.000    0.923    0.000    0.000 
#    0.000    0.000    0.000    0.000    0.000    0.000 
#
# Total GULP energy -644557.388290 kJ/mol
# GULP energy per Si atom -12395.334390 kJ/mol
# Density = 1.954264 g / cm^3
# Si number density = 19.587223 Si / 1000 Ang^3
#
#
#
# Elastic Constant Matrix: (Units=GPa)
#
#
# Indices 1 2 3 4 5 6 
#
# 1 144.2857 59.5332 39.3019 0.0000 0.0000 0.0000
# 2 59.5332 111.9616 45.3959 0.0000 0.0000 0.0000
# 3 39.3019 45.3959 40.4372 0.0000 0.0000 0.0000
# 4 0.0000 0.0000 0.0000 23.4855 0.0000 0.0000
# 5 0.0000 0.0000 0.0000 0.0000 28.1988 0.0000
# 6 0.0000 0.0000 0.0000 0.0000 0.0000 22.6214
#
#
#
# Elastic Compliance Matrix: (Units=1/GPa)
#
#
# Indices 1 2 3 4 5 6 
#
# 1 0.009785 -0.002472 -0.006735 0.000000 0.000000 0.000000
# 2 -0.002472 0.017018 -0.016702 0.000000 0.000000 0.000000
# 3 -0.006735 -0.016702 0.050026 0.000000 0.000000 0.000000
# 4 0.000000 0.000000 0.000000 0.042580 0.000000 0.000000
# 5 0.000000 0.000000 0.000000 0.000000 0.035463 0.000000
# 6 0.000000 0.000000 0.000000 0.000000 0.000000 0.044206
#
#
# Mechanical properties :
#
#
# Convention : Reuss Voigt Hill
#
# Bulk Modulus (GPa) = 39.98348 65.01629 52.49988
# Shear Modulus (GPa) = 19.28756 25.02470 22.15613
#
# Velocity S-wave (km/s) = 3.14140 3.57824 3.36691
# Velocity P-wave (km/s) = 5.79786 7.09485 6.47890
#
# Compressibility (1/GPa) = 0.02501033
#
# Stress axis : x y z
#
# Youngs Moduli (GPa) = 102.19337 58.75991 19.98950
#
# Poissons Ratio (x) = 0.14527 0.13463
# Poissons Ratio (y) = 0.25266 0.33387
# Poissons Ratio (z) = 0.68828 0.98143
#
# Static dielectric constant tensor:
#      x y z
#    x 3.954640 0.000000 0.000000 
#    y 0.000000 3.853910 0.000000 
#    z 0.000000 0.000000 3.390360 
# 
# 
# High freq. dielectric constant tensor:
#      x y z
#    x 1.774180 0.000000 0.000000 
#    y 0.000000 1.762010 0.000000 
#    z 0.000000 0.000000 1.741740 
# 
# From -- ./inp_files/12455.got.cif
#   From: 2010.03.12/outbox.cif.g09.slc.cpg/sg65_7_cif.got.tgz:12455.got - 2010.04.10 20:52:16.
