data_PCOD8273210
_publ_section_title
;
Structure prediction by ZEFSAII (Michael W. Deem and Ramdas Pophale) SiO2 
 PCOD8273210
Probable space group: C M M M
;
_chemical_formula_sum "Si O2"
_cell_formula_units_Z 72
_cell_length_a 18.743644
_cell_length_b 23.612331
_cell_length_c 7.877445
_cell_angle_alpha 90.000000
_cell_angle_beta 90.000000
_cell_angle_gamma 90.000000
_cell_volume 3486.408480
_symmetry_space_group_name_H-M "C M M M"
_symmetry_group_IT_number 65
_symmetry_cell_setting 'orthorhombic'
loop_
_space_group_symop_operation_xyz
x,y,z
-x,-y,z
x,-y,-z
-x,y,-z
-x,-y,-z
x,y,-z
-x,y,z
x,-y,z
1/2+x,1/2+y,z
1/2-x,1/2-y,z
1/2+x,1/2-y,-z
1/2-x,1/2+y,-z
1/2-x,1/2-y,-z
1/2+x,1/2+y,-z
1/2-x,1/2+y,z
1/2+x,1/2-y,z
loop_
_atom_site_type_symbol
_atom_site_label
_atom_site_fract_x
_atom_site_fract_y
_atom_site_fract_z
Si Si1 0.418259 0.658405 0.298784
Si Si2 0.688787 0.563681 0.700618
Si Si3 0.416677 0.061595 0.000000
Si Si4 0.829283 0.265614 0.195031
Si Si5 0.659589 0.113788 0.308854
O O1 0.412480 0.662611 0.500000
O O2 0.500000 0.653388 0.237950
O O3 0.375928 0.602918 0.231048
O O4 0.384144 0.714605 0.220751
O O5 0.684097 0.559553 0.500000
O O6 0.683351 0.500000 0.778392
O O7 0.762470 0.593625 0.754451
O O8 0.396966 0.091837 0.174650
O O9 0.500000 0.056556 0.000000
O O10 0.380147 0.000000 0.000000
O O11 0.750000 0.250000 0.251841
O O12 0.849088 0.318586 0.312361
O O13 0.831207 0.285169 0.000000
O O14 0.643896 0.091106 0.500000
#
# Coordination Sequence:
#
# PCOD8273210 Si02
#       5
#    16  16   8  16  16
#     4  10  21  36  57  88 124 162 203 251 311 373
#     4   9  18  34  59  90 122 160 206 253 303 366
#     4  11  26  46  65  92 131 165 203 264 326 380
#     4  11  22  38  62  89 120 162 209 260 319 376
#     4  11  22  40  68  95 124 164 213 262 313 379
#
# _framework density 20.651624000000002
#
# number of rings (size 3 to 8) (size 9 to 14) (size 15 to 20)
#    0.000    1.667    3.333    1.333    0.000    4.444 
#    0.000    3.333    0.000    0.000    0.000    1.556 
#    0.000    0.000    0.000    0.000    0.000    0.000 
#
# Total GULP energy -446376.556612 kJ/mol
# GULP energy per Si atom -12399.348795 kJ/mol
# Density = 2.060462 g / cm^3
# Si number density = 20.651624 Si / 1000 Ang^3
#
#
#
# Elastic Constant Matrix: (Units=GPa)
#
#
# Indices 1 2 3 4 5 6 
#
# 1 107.5385 55.8661 26.3944 0.0000 0.0000 0.0000
# 2 55.8661 163.8550 23.2389 0.0000 0.0000 0.0000
# 3 26.3944 23.2389 76.2200 0.0000 0.0000 0.0000
# 4 0.0000 0.0000 0.0000 -4.4223 0.0000 0.0000
# 5 0.0000 0.0000 0.0000 0.0000 92.3445 0.0000
# 6 0.0000 0.0000 0.0000 0.0000 0.0000 29.3147
#
#
#
# Elastic Compliance Matrix: (Units=1/GPa)
#
#
# Indices 1 2 3 4 5 6 
#
# 1 0.011931 -0.003639 -0.003022 0.000000 0.000000 0.000000
# 2 -0.003639 0.007489 -0.001023 0.000000 0.000000 0.000000
# 3 -0.003022 -0.001023 0.014478 0.000000 0.000000 0.000000
# 4 0.000000 0.000000 0.000000 -0.226129 0.000000 0.000000
# 5 0.000000 0.000000 0.000000 0.000000 0.010829 0.000000
# 6 0.000000 0.000000 0.000000 0.000000 0.000000 0.034113
#
#
# Mechanical properties :
#
#
# Convention : Reuss Voigt Hill
#
# Bulk Modulus (GPa) = 53.96770 62.06804 58.01787
# Shear Modulus (GPa) = -39.76363 39.58833 -0.08765
#
# Velocity S-wave (km/s) = -4.39275 4.38306 -0.20623
# Velocity P-wave (km/s) = 0.67881 7.46559 5.30074
#
# Compressibility (1/GPa) = 0.01852960
#
# Stress axis : x y z
#
# Youngs Moduli (GPa) = 83.81240 133.53116 69.06859
#
# Poissons Ratio (x) = 0.48597 0.20873
# Poissons Ratio (y) = 0.30503 0.07066
# Poissons Ratio (z) = 0.25329 0.13660
#
# Static dielectric constant tensor:
#      x y z
#    x 3.701400 0.000000 0.000000 
#    y 0.000000 4.173470 0.000000 
#    z 0.000000 0.000000 3.520710 
# 
# 
# High freq. dielectric constant tensor:
#      x y z
#    x 1.798370 0.000000 0.000000 
#    y 0.000000 1.820800 0.000000 
#    z 0.000000 0.000000 1.796510 
# 
# From -- ./inp_files/7219.got.cif
#   From: 2010.03.12/outbox.cif.g09.slc.cpg/sg65_4_cif.got.tgz:7219.got - 2010.04.10 20:52:16.
