data_PCOD8273818
_publ_section_title
;
Structure prediction by ZEFSAII (Michael W. Deem and Ramdas Pophale) SiO2 
 PCOD8273818
Probable space group: C M M M
;
_chemical_formula_sum "Si O2"
_cell_formula_units_Z 64
_cell_length_a 8.014998
_cell_length_b 25.564598
_cell_length_c 14.669152
_cell_angle_alpha 90.000000
_cell_angle_beta 90.000000
_cell_angle_gamma 90.000000
_cell_volume 3005.712206
_symmetry_space_group_name_H-M "C M M M"
_symmetry_group_IT_number 65
_symmetry_cell_setting 'orthorhombic'
loop_
_space_group_symop_operation_xyz
x,y,z
-x,-y,z
x,-y,-z
-x,y,-z
-x,-y,-z
x,y,-z
-x,y,z
x,-y,z
1/2+x,1/2+y,z
1/2-x,1/2-y,z
1/2+x,1/2-y,-z
1/2-x,1/2+y,-z
1/2-x,1/2-y,-z
1/2+x,1/2+y,-z
1/2-x,1/2+y,z
1/2+x,1/2-y,z
loop_
_atom_site_type_symbol
_atom_site_label
_atom_site_fract_x
_atom_site_fract_y
_atom_site_fract_z
Si Si1 0.692549 0.388862 0.604509
Si Si2 0.812662 0.126318 0.895454
Si Si3 0.500000 0.942233 0.892186
Si Si4 0.688257 0.000000 0.391824
Si Si5 0.810390 0.306258 0.256130
O O1 0.753204 0.385286 0.500000
O O2 0.500000 0.374481 0.614503
O O3 0.721740 0.447410 0.643840
O O4 0.796783 0.347178 0.661463
O O5 0.670424 0.086161 0.860302
O O6 0.799879 0.177150 0.831446
O O7 0.000000 0.102188 0.885388
O O8 0.779699 0.142818 0.000000
O O9 0.500000 0.000000 0.848144
O O10 0.500000 0.946439 0.000000
O O11 0.500000 0.000000 0.355434
O O12 0.697339 0.000000 0.500000
O O13 0.750000 0.250000 0.291391
O O14 0.000000 0.303410 0.223730
#
# Coordination Sequence:
#
# PCOD8273818 Si02
#       5
#    16  16   8   8  16
#     4  10  21  39  62  89 122 159 201 249 303 364
#     4  10  21  40  64  91 126 164 207 255 306 364
#     4   9  18  36  62  92 127 165 205 250 304 365
#     4   9  17  33  59  89 120 155 196 245 301 361
#     4  12  25  42  63  88 121 158 204 258 309 367
#
# _framework density 21.29279
#
# number of rings (size 3 to 8) (size 9 to 14) (size 15 to 20)
#    0.000    1.750    1.250    3.375    0.000    4.500 
#    2.250    2.500    0.000    0.000    0.000    0.000 
#    0.000    0.000    0.000    0.000    0.000    0.000 
#
# Total GULP energy -396807.375581 kJ/mol
# GULP energy per Si atom -12400.230487 kJ/mol
# Density = 2.124433 g / cm^3
# Si number density = 21.292790 Si / 1000 Ang^3
#
#
#
# Elastic Constant Matrix: (Units=GPa)
#
#
# Indices 1 2 3 4 5 6 
#
# 1 135.4898 42.9366 25.0864 0.0000 0.0000 0.0000
# 2 42.9366 152.8454 49.2219 0.0000 0.0000 0.0000
# 3 25.0864 49.2219 79.1860 0.0000 0.0000 0.0000
# 4 0.0000 0.0000 0.0000 23.1054 0.0000 0.0000
# 5 0.0000 0.0000 0.0000 0.0000 27.6047 0.0000
# 6 0.0000 0.0000 0.0000 0.0000 0.0000 29.7349
#
#
#
# Elastic Compliance Matrix: (Units=1/GPa)
#
#
# Indices 1 2 3 4 5 6 
#
# 1 0.008235 -0.001842 -0.001464 0.000000 0.000000 0.000000
# 2 -0.001842 0.008592 -0.004757 0.000000 0.000000 0.000000
# 3 -0.001464 -0.004757 0.016049 0.000000 0.000000 0.000000
# 4 0.000000 0.000000 0.000000 0.043280 0.000000 0.000000
# 5 0.000000 0.000000 0.000000 0.000000 0.036226 0.000000
# 6 0.000000 0.000000 0.000000 0.000000 0.000000 0.033630
#
#
# Mechanical properties :
#
#
# Convention : Reuss Voigt Hill
#
# Bulk Modulus (GPa) = 59.70036 66.89013 63.29524
# Shear Modulus (GPa) = 29.81106 32.77408 31.29257
#
# Velocity S-wave (km/s) = 3.74579 3.92753 3.83774
# Velocity P-wave (km/s) = 6.84154 7.21457 7.03053
#
# Compressibility (1/GPa) = 0.01675032
#
# Stress axis : x y z
#
# Youngs Moduli (GPa) = 121.42664 116.38725 62.30767
#
# Poissons Ratio (x) = 0.21438 0.09122
# Poissons Ratio (y) = 0.22367 0.29641
# Poissons Ratio (z) = 0.17777 0.55368
#
# Static dielectric constant tensor:
#      x y z
#    x 3.944610 0.000000 0.000000 
#    y 0.000000 3.904430 0.000000 
#    z 0.000000 0.000000 3.646430 
# 
# 
# High freq. dielectric constant tensor:
#      x y z
#    x 1.848840 0.000000 0.000000 
#    y 0.000000 1.823490 0.000000 
#    z 0.000000 0.000000 1.825920 
# 
# From -- ./inp_files/36031.got.cif
#   From: 2010.03.12/outbox.cif.g09.slc.cpg/sg65_19_cif.got.tgz:36031.got - 2010.04.10 20:52:16.
