data_PCOD8273865
_publ_section_title
;
Structure prediction by ZEFSAII (Michael W. Deem and Ramdas Pophale) SiO2 
 PCOD8273865
Probable space group: C M M M
;
_chemical_formula_sum "Si O2"
_cell_formula_units_Z 64
_cell_length_a 23.755821
_cell_length_b 15.544716
_cell_length_c 8.714877
_cell_angle_alpha 90.000000
_cell_angle_beta 90.000000
_cell_angle_gamma 90.000000
_cell_volume 3218.207911
_symmetry_space_group_name_H-M "C M M M"
_symmetry_group_IT_number 65
_symmetry_cell_setting 'orthorhombic'
loop_
_space_group_symop_operation_xyz
x,y,z
-x,-y,z
x,-y,-z
-x,y,-z
-x,-y,-z
x,y,-z
-x,y,z
x,-y,z
1/2+x,1/2+y,z
1/2-x,1/2-y,z
1/2+x,1/2-y,-z
1/2-x,1/2+y,-z
1/2-x,1/2-y,-z
1/2+x,1/2+y,-z
1/2-x,1/2+y,z
1/2+x,1/2-y,z
loop_
_atom_site_type_symbol
_atom_site_label
_atom_site_fract_x
_atom_site_fract_y
_atom_site_fract_z
Si Si1 0.706225 0.500000 0.820770
Si Si2 0.000000 0.871217 0.816806
Si Si3 0.084834 0.000000 0.318564
Si Si4 0.500000 0.820741 0.821546
Si Si5 0.393183 0.098456 0.325000
Si Si6 0.728553 0.156025 0.321467
O O1 0.650032 0.500000 0.721153
O O2 0.741038 0.585301 0.781538
O O3 0.691511 0.500000 0.000000
O O4 0.056102 0.915592 0.752434
O O5 0.000000 0.774611 0.749886
O O6 0.000000 0.877326 0.000000
O O7 0.076272 0.000000 0.500000
O O8 0.444636 0.872645 0.778165
O O9 0.500000 0.808628 0.000000
O O10 0.412129 0.110474 0.500000
O O11 0.338084 0.154532 0.287563
O O12 0.378001 0.000000 0.288864
O O13 0.740631 0.135490 0.500000
O O14 0.750000 0.250000 0.274147
#
# Coordination Sequence:
#
# PCOD8273865 Si02
#       6
#     8   8   8   8  16  16
#     4  12  25  41  64  95 132 170 203 254 318 382
#     4  10  22  42  61  89 127 160 196 256 317 364
#     4  11  23  40  65  90 119 163 211 254 299 365
#     4  11  25  39  59  90 125 158 199 249 304 373
#     4  10  21  40  63  88 121 158 203 256 306 358
#     4  10  22  42  67  95 125 163 212 263 310 370
#
# _framework density 19.886844
#
# number of rings (size 3 to 8) (size 9 to 14) (size 15 to 20)
#    0.000    1.500    1.250    4.125    3.500    5.500 
#    0.000    0.000    0.000    0.000    0.000    0.000 
#    0.000    0.000    0.000    0.000    0.000    0.000 
#
# Total GULP energy -396955.128265 kJ/mol
# GULP energy per Si atom -12404.847758 kJ/mol
# Density = 1.984158 g / cm^3
# Si number density = 19.886844 Si / 1000 Ang^3
#
#
#
# Elastic Constant Matrix: (Units=GPa)
#
#
# Indices 1 2 3 4 5 6 
#
# 1 118.6500 48.6092 27.6138 0.0000 0.0000 0.0000
# 2 48.6092 116.3022 30.6653 0.0000 0.0000 0.0000
# 3 27.6138 30.6653 79.3853 0.0000 0.0000 0.0000
# 4 0.0000 0.0000 0.0000 11.0188 0.0000 0.0000
# 5 0.0000 0.0000 0.0000 0.0000 23.7589 0.0000
# 6 0.0000 0.0000 0.0000 0.0000 0.0000 53.4347
#
#
#
# Elastic Compliance Matrix: (Units=1/GPa)
#
#
# Indices 1 2 3 4 5 6 
#
# 1 0.010497 -0.003813 -0.002179 0.000000 0.000000 0.000000
# 2 -0.003813 0.010958 -0.002907 0.000000 0.000000 0.000000
# 3 -0.002179 -0.002907 0.014477 0.000000 0.000000 0.000000
# 4 0.000000 0.000000 0.000000 0.090754 0.000000 0.000000
# 5 0.000000 0.000000 0.000000 0.000000 0.042090 0.000000
# 6 0.000000 0.000000 0.000000 0.000000 0.000000 0.018714
#
#
# Mechanical properties :
#
#
# Convention : Reuss Voigt Hill
#
# Bulk Modulus (GPa) = 55.13722 58.67936 56.90829
# Shear Modulus (GPa) = 23.65933 31.47241 27.56587
#
# Velocity S-wave (km/s) = 3.45294 3.98247 3.72712
# Velocity P-wave (km/s) = 6.60929 7.12162 6.87023
#
# Compressibility (1/GPa) = 0.01813657
#
# Stress axis : x y z
#
# Youngs Moduli (GPa) = 95.26260 91.25447 69.07317
#
# Poissons Ratio (x) = 0.34795 0.15048
# Poissons Ratio (y) = 0.36324 0.20078
# Poissons Ratio (z) = 0.20753 0.26525
#
# Static dielectric constant tensor:
#      x y z
#    x 3.622360 0.000000 0.000000 
#    y 0.000000 3.785700 0.000000 
#    z 0.000000 0.000000 3.541130 
# 
# 
# High freq. dielectric constant tensor:
#      x y z
#    x 1.787170 0.000000 0.000000 
#    y 0.000000 1.785400 0.000000 
#    z 0.000000 0.000000 1.771910 
# 
# From -- ./inp_files/13415.got.cif
#   From: 2010.03.12/outbox.cif.g09.slc.cpg/sg65_7_cif.got.tgz:13415.got - 2010.04.10 20:52:16.
