data_PCOD8273251
_publ_section_title
;
Structure prediction by ZEFSAII (Michael W. Deem and Ramdas Pophale) SiO2 
 PCOD8273251
Probable space group: C M M M
;
_chemical_formula_sum "Si O2"
_cell_formula_units_Z 64
_cell_length_a 8.766709
_cell_length_b 25.750852
_cell_length_c 17.121036
_cell_angle_alpha 90.000000
_cell_angle_beta 90.000000
_cell_angle_gamma 90.000000
_cell_volume 3865.077746
_symmetry_space_group_name_H-M "C M M M"
_symmetry_group_IT_number 65
_symmetry_cell_setting 'orthorhombic'
loop_
_space_group_symop_operation_xyz
x,y,z
-x,-y,z
x,-y,-z
-x,y,-z
-x,-y,-z
x,y,-z
-x,y,z
x,-y,z
1/2+x,1/2+y,z
1/2-x,1/2-y,z
1/2+x,1/2-y,-z
1/2-x,1/2+y,-z
1/2-x,1/2-y,-z
1/2+x,1/2+y,-z
1/2-x,1/2+y,z
1/2+x,1/2-y,z
loop_
_atom_site_type_symbol
_atom_site_label
_atom_site_fract_x
_atom_site_fract_y
_atom_site_fract_z
Si Si1 0.818585 0.500000 0.912110
Si Si2 0.679338 0.304582 0.910394
Si Si3 0.819249 0.600513 0.819865
Si Si4 0.166684 0.061469 0.500000
Si Si5 0.681997 0.440488 0.668639
O O1 0.756980 0.551061 0.868306
O O2 0.000000 0.500000 0.912859
O O3 0.753104 0.500000 0.000000
O O4 0.500000 0.302375 0.897452
O O5 0.750000 0.250000 0.884485
O O6 0.750902 0.348001 0.856161
O O7 0.721998 0.317059 0.000000
O O8 0.762741 0.596462 0.730985
O O9 0.000000 0.603577 0.822382
O O10 0.246647 0.076869 0.417605
O O11 0.000000 0.087606 0.500000
O O12 0.146070 0.000000 0.500000
O O13 0.500000 0.434089 0.671890
O O14 0.728480 0.500000 0.686085
#
# Coordination Sequence:
#
# PCOD8273251 Si02
#       5
#     8  16  16   8  16
#     4   9  18  30  43  62  93 132 166 193 231 285
#     4  10  21  37  55  74  95 123 163 209 252 291
#     4  11  20  31  48  71 101 133 165 200 244 292
#     4   7  12  24  43  65  90 127 166 199 239 286
#     4   9  16  28  46  68  97 130 166 204 242 287
#
# _framework density 16.558530000000001
#
# number of rings (size 3 to 8) (size 9 to 14) (size 15 to 20)
#    0.000    2.500    1.250    3.750    0.000    2.500 
#    0.000    0.625    0.000    5.250    0.000    0.875 
#    0.000    0.000    0.000    0.000    0.000    0.000 
#
# Total GULP energy -396639.072048 kJ/mol
# GULP energy per Si atom -12394.971001 kJ/mol
# Density = 1.652084 g / cm^3
# Si number density = 16.558530 Si / 1000 Ang^3
#
#
#
# Elastic Constant Matrix: (Units=GPa)
#
#
# Indices 1 2 3 4 5 6 
#
# 1 50.1810 39.0531 40.3192 0.0000 0.0000 0.0000
# 2 39.0531 111.6415 79.0013 0.0000 0.0000 0.0000
# 3 40.3192 79.0013 155.4087 0.0000 0.0000 0.0000
# 4 0.0000 0.0000 0.0000 20.6358 0.0000 0.0000
# 5 0.0000 0.0000 0.0000 0.0000 19.2198 0.0000
# 6 0.0000 0.0000 0.0000 0.0000 0.0000 21.2532
#
#
#
# Elastic Compliance Matrix: (Units=1/GPa)
#
#
# Indices 1 2 3 4 5 6 
#
# 1 0.028651 -0.007438 -0.003652 0.000000 0.000000 0.000000
# 2 -0.007438 0.015921 -0.006163 0.000000 0.000000 0.000000
# 3 -0.003652 -0.006163 0.010515 0.000000 0.000000 0.000000
# 4 0.000000 0.000000 0.000000 0.048459 0.000000 0.000000
# 5 0.000000 0.000000 0.000000 0.000000 0.052030 0.000000
# 6 0.000000 0.000000 0.000000 0.000000 0.000000 0.047052
#
#
# Mechanical properties :
#
#
# Convention : Reuss Voigt Hill
#
# Bulk Modulus (GPa) = 48.59163 70.44205 59.51684
# Shear Modulus (GPa) = 20.49229 22.81228 21.65229
#
# Velocity S-wave (km/s) = 3.52172 3.71573 3.62003
# Velocity P-wave (km/s) = 6.77833 7.81297 7.31397
#
# Compressibility (1/GPa) = 0.02057968
#
# Stress axis : x y z
#
# Youngs Moduli (GPa) = 34.90309 62.81201 95.09946
#
# Poissons Ratio (x) = 0.46719 0.34732
# Poissons Ratio (y) = 0.25961 0.58614
# Poissons Ratio (z) = 0.12747 0.38714
#
# Static dielectric constant tensor:
#      x y z
#    x 2.911610 0.000000 0.000000 
#    y 0.000000 2.902760 0.000000 
#    z 0.000000 0.000000 3.450730 
# 
# 
# High freq. dielectric constant tensor:
#      x y z
#    x 1.622740 0.000000 0.000000 
#    y 0.000000 1.605140 0.000000 
#    z 0.000000 0.000000 1.649610 
# 
# From -- ./inp_files/49135.got.cif
#   From: 2010.03.12/outbox.cif.g09.slc.cpg/sg65_25_cif.got.tgz:49135.got - 2010.04.10 20:52:16.
