data_PCOD8273458
_publ_section_title
;
Structure prediction by ZEFSAII (Michael W. Deem and Ramdas Pophale) SiO2 
 PCOD8273458
Probable space group: C M M M
;
_chemical_formula_sum "Si O2"
_cell_formula_units_Z 100
_cell_length_a 30.836608
_cell_length_b 19.748243
_cell_length_c 7.862731
_cell_angle_alpha 90.000000
_cell_angle_beta 90.000000
_cell_angle_gamma 90.000000
_cell_volume 4788.158083
_symmetry_space_group_name_H-M "C M M M"
_symmetry_group_IT_number 65
_symmetry_cell_setting 'orthorhombic'
loop_
_space_group_symop_operation_xyz
x,y,z
-x,-y,z
x,-y,-z
-x,y,-z
-x,-y,-z
x,y,-z
-x,y,z
x,-y,z
1/2+x,1/2+y,z
1/2-x,1/2-y,z
1/2+x,1/2-y,-z
1/2-x,1/2+y,-z
1/2-x,1/2-y,-z
1/2+x,1/2+y,-z
1/2-x,1/2+y,z
1/2+x,1/2-y,z
loop_
_atom_site_type_symbol
_atom_site_label
_atom_site_fract_x
_atom_site_fract_y
_atom_site_fract_z
Si Si1 0.700460 0.759573 0.803037
Si Si2 0.196978 0.000000 0.500000
Si Si3 0.115915 0.923852 0.500000
Si Si4 0.758338 0.500000 0.184247
Si Si5 0.046857 0.715282 0.195369
Si Si6 0.882747 0.177029 0.799823
Si Si7 0.920230 0.574810 0.299972
Si Si8 0.324622 0.899797 0.691741
O O1 0.750000 0.750000 0.739788
O O2 0.668267 0.695729 0.772928
O O3 0.679854 0.819450 0.694401
O O4 0.700286 0.780145 0.000000
O O5 0.167916 0.932296 0.500000
O O6 0.223075 0.000000 0.327988
O O7 0.103858 0.884568 0.674868
O O8 0.094185 0.000000 0.500000
O O9 0.787577 0.566904 0.194332
O O10 0.735058 0.500000 0.000000
O O11 0.086901 0.760229 0.264127
O O12 0.052968 0.634678 0.214676
O O13 0.000000 0.734275 0.280485
O O14 0.043514 0.732650 0.000000
O O15 0.890531 0.158228 0.000000
O O16 0.921548 0.587479 0.500000
O O17 0.939133 0.500000 0.253556
O O18 0.870937 0.578407 0.233913
O O19 0.319425 0.926979 0.500000
#
# Coordination Sequence:
#
# PCOD8273458 Si02
#       8
#    16   4   8   8  16  16  16  16
#     4  10  22  35  53  84 117 156 210 260 312 373
#     4  10  26  46  56  96 129 152 219 270 306 402
#     4  10  26  44  67  95 125 159 203 251 329 405
#     4  12  24  38  60  84 125 180 223 268 322 368
#     4  10  22  40  63  93 128 168 215 265 322 386
#     4  10  22  42  66  93 129 166 209 265 322 389
#     4  10  21  37  57  86 126 170 216 272 322 367
#     4  11  21  36  56  82 121 165 215 271 316 367
#
# _framework density 20.884858000000001
#
# number of rings (size 3 to 8) (size 9 to 14) (size 15 to 20)
#    0.240    1.440    3.200    0.480    4.480    2.880 
#    0.000    1.600    0.000    0.960    0.000    2.240 
#    0.000    0.000    0.000    0.000    0.000    0.000 
#
# Total GULP energy -619612.700836 kJ/mol
# GULP energy per Si atom -12392.254017 kJ/mol
# Density = 2.083732 g / cm^3
# Si number density = 20.884858 Si / 1000 Ang^3
#
#
#
# Elastic Constant Matrix: (Units=GPa)
#
#
# Indices 1 2 3 4 5 6 
#
# 1 102.3769 31.0334 22.9300 0.0000 0.0000 0.0000
# 2 31.0334 122.4298 35.9370 0.0000 0.0000 0.0000
# 3 22.9300 35.9370 80.9343 0.0000 0.0000 0.0000
# 4 0.0000 0.0000 0.0000 34.0502 0.0000 0.0000
# 5 0.0000 0.0000 0.0000 0.0000 10.0620 0.0000
# 6 0.0000 0.0000 0.0000 0.0000 0.0000 145.0218
#
#
#
# Elastic Compliance Matrix: (Units=1/GPa)
#
#
# Indices 1 2 3 4 5 6 
#
# 1 0.010894 -0.002133 -0.002139 0.000000 0.000000 0.000000
# 2 -0.002133 0.009810 -0.003751 0.000000 0.000000 0.000000
# 3 -0.002139 -0.003751 0.014627 0.000000 0.000000 0.000000
# 4 0.000000 0.000000 0.000000 0.029368 0.000000 0.000000
# 5 0.000000 0.000000 0.000000 0.000000 0.099384 0.000000
# 6 0.000000 0.000000 0.000000 0.000000 0.000000 0.006896
#
#
# Mechanical properties :
#
#
# Convention : Reuss Voigt Hill
#
# Bulk Modulus (GPa) = 51.85864 53.94909 52.90387
# Shear Modulus (GPa) = 25.84588 52.21615 39.03101
#
# Velocity S-wave (km/s) = 3.52169 5.00562 4.32773
# Velocity P-wave (km/s) = 6.43592 7.70039 7.09637
#
# Compressibility (1/GPa) = 0.01928319
#
# Stress axis : x y z
#
# Youngs Moduli (GPa) = 91.79679 101.93793 68.36456
#
# Poissons Ratio (x) = 0.21748 0.14623
# Poissons Ratio (y) = 0.19584 0.25646
# Poissons Ratio (z) = 0.19636 0.38241
#
# Static dielectric constant tensor:
#      x y z
#    x 3.959070 0.000000 0.000000 
#    y 0.000000 3.788710 0.000000 
#    z 0.000000 0.000000 3.589900 
# 
# 
# High freq. dielectric constant tensor:
#      x y z
#    x 1.804030 0.000000 0.000000 
#    y 0.000000 1.806070 0.000000 
#    z 0.000000 0.000000 1.811510 
# 
# From -- ./inp_files/18750.got.cif
#   From: 2010.03.12/outbox.cif.g09.slc.cpg/sg65_10_cif.got.tgz:18750.got - 2010.04.10 20:52:16.
