data_PCOD8273600
_publ_section_title
;
Structure prediction by ZEFSAII (Michael W. Deem and Ramdas Pophale) SiO2 
 PCOD8273600
Probable space group: C M M M
;
_chemical_formula_sum "Si O2"
_cell_formula_units_Z 88
_cell_length_a 8.649199
_cell_length_b 18.541342
_cell_length_c 28.787629
_cell_angle_alpha 90.000000
_cell_angle_beta 90.000000
_cell_angle_gamma 90.000000
_cell_volume 4616.607483
_symmetry_space_group_name_H-M "C M M M"
_symmetry_group_IT_number 65
_symmetry_cell_setting 'orthorhombic'
loop_
_space_group_symop_operation_xyz
x,y,z
-x,-y,z
x,-y,-z
-x,y,-z
-x,-y,-z
x,y,-z
-x,y,z
x,-y,z
1/2+x,1/2+y,z
1/2-x,1/2-y,z
1/2+x,1/2-y,-z
1/2-x,1/2+y,-z
1/2-x,1/2-y,-z
1/2+x,1/2+y,-z
1/2-x,1/2+y,z
1/2+x,1/2-y,z
loop_
_atom_site_type_symbol
_atom_site_label
_atom_site_fract_x
_atom_site_fract_y
_atom_site_fract_z
Si Si1 0.177205 0.083649 0.763732
Si Si2 0.317624 0.671004 0.049064
Si Si3 0.319977 0.916546 0.667075
Si Si4 0.318222 0.329539 0.414964
Si Si5 0.683278 0.329077 0.148936
Si Si6 0.682814 0.083170 0.500000
O O1 0.280225 0.105707 0.719640
O O2 0.247367 0.122808 0.808988
O O3 0.000000 0.105749 0.753629
O O4 0.190992 0.000000 0.774552
O O5 0.500000 0.677879 0.049537
O O6 0.250000 0.750000 0.048147
O O7 0.265847 0.635713 0.098545
O O8 0.266708 0.631262 0.000000
O O9 0.500000 0.903308 0.657492
O O10 0.220566 0.865315 0.634213
O O11 0.274943 0.000000 0.658015
O O12 0.500000 0.324337 0.421722
O O13 0.250000 0.250000 0.418340
O O14 0.247933 0.379434 0.454506
O O15 0.500000 0.325254 0.152087
O O16 0.750000 0.250000 0.154838
O O17 0.500000 0.090463 0.500000
O O18 0.735069 0.000000 0.500000
#
# Coordination Sequence:
#
# PCOD8273600 Si02
#       6
#    16  16  16  16  16   8
#     4   9  18  33  51  70  96 133 173 209 250 306
#     4   8  13  22  37  58  85 116 151 193 242 296
#     4  10  21  38  59  82 108 139 178 222 267 317
#     4  12  25  41  62  88 119 151 185 225 270 317
#     4   9  17  28  44  67  93 122 158 203 252 301
#     4  11  24  43  66  91 121 155 190 227 266 311
#
# _framework density 19.061615
#
# number of rings (size 3 to 8) (size 9 to 14) (size 15 to 20)
#    0.000    2.273    0.000    3.273    0.000    5.455 
#    0.000    1.818    0.000    0.545    0.000    3.818 
#    0.000    0.000    0.000   34.000    0.000   18.545 
#
# Total GULP energy -545207.113676 kJ/mol
# GULP energy per Si atom -12391.070765 kJ/mol
# Density = 1.901823 g / cm^3
# Si number density = 19.061615 Si / 1000 Ang^3
#
#
#
# Elastic Constant Matrix: (Units=GPa)
#
#
# Indices 1 2 3 4 5 6 
#
# 1 48.9889 36.9108 33.9335 0.0000 0.0000 0.0000
# 2 36.9108 91.4418 74.8815 0.0000 0.0000 0.0000
# 3 33.9335 74.8815 166.6219 0.0000 0.0000 0.0000
# 4 0.0000 0.0000 0.0000 93.0695 0.0000 0.0000
# 5 0.0000 0.0000 0.0000 0.0000 22.3853 0.0000
# 6 0.0000 0.0000 0.0000 0.0000 0.0000 24.5233
#
#
#
# Elastic Compliance Matrix: (Units=1/GPa)
#
#
# Indices 1 2 3 4 5 6 
#
# 1 0.029447 -0.011037 -0.001037 0.000000 0.000000 0.000000
# 2 -0.011037 0.021441 -0.007388 0.000000 0.000000 0.000000
# 3 -0.001037 -0.007388 0.009533 0.000000 0.000000 0.000000
# 4 0.000000 0.000000 0.000000 0.010745 0.000000 0.000000
# 5 0.000000 0.000000 0.000000 0.000000 0.044672 0.000000
# 6 0.000000 0.000000 0.000000 0.000000 0.000000 0.040778
#
#
# Mechanical properties :
#
#
# Convention : Reuss Voigt Hill
#
# Bulk Modulus (GPa) = 46.51835 66.50046 56.50941
# Shear Modulus (GPa) = 24.66628 38.75075 31.70852
#
# Velocity S-wave (km/s) = 3.60116 4.51368 4.08300
# Velocity P-wave (km/s) = 6.46130 7.88209 7.20679
#
# Compressibility (1/GPa) = 0.02149689
#
# Stress axis : x y z
#
# Youngs Moduli (GPa) = 33.95926 46.63902 104.89853
#
# Poissons Ratio (x) = 0.51477 0.10875
# Poissons Ratio (y) = 0.37482 0.77500
# Poissons Ratio (z) = 0.03521 0.34457
#
# Static dielectric constant tensor:
#      x y z
#    x 3.642080 0.000000 0.000000 
#    y 0.000000 3.726120 0.000000 
#    z 0.000000 0.000000 4.263770 
# 
# 
# High freq. dielectric constant tensor:
#      x y z
#    x 1.738190 0.000000 0.000000 
#    y 0.000000 1.709020 0.000000 
#    z 0.000000 0.000000 1.773220 
# 
# From -- ./inp_files/76692.got.cif
#   From: 2010.03.12/outbox.cif.g09.slc.cpg/sg65_39_cif.got.tgz:76692.got - 2010.04.10 20:52:16.
