data_PCOD8273661
_publ_section_title
;
Structure prediction by ZEFSAII (Michael W. Deem and Ramdas Pophale) SiO2 
 PCOD8273661
Probable space group: C M M M
;
_chemical_formula_sum "Si O2"
_cell_formula_units_Z 104
_cell_length_a 8.816267
_cell_length_b 20.336516
_cell_length_c 29.606803
_cell_angle_alpha 90.000000
_cell_angle_beta 90.000000
_cell_angle_gamma 90.000000
_cell_volume 5308.267510
_symmetry_space_group_name_H-M "C M M M"
_symmetry_group_IT_number 65
_symmetry_cell_setting 'orthorhombic'
loop_
_space_group_symop_operation_xyz
x,y,z
-x,-y,z
x,-y,-z
-x,y,-z
-x,-y,-z
x,y,-z
-x,y,z
x,-y,z
1/2+x,1/2+y,z
1/2-x,1/2-y,z
1/2+x,1/2-y,-z
1/2-x,1/2+y,-z
1/2-x,1/2-y,-z
1/2+x,1/2+y,-z
1/2-x,1/2+y,z
1/2+x,1/2-y,z
loop_
_atom_site_type_symbol
_atom_site_label
_atom_site_fract_x
_atom_site_fract_y
_atom_site_fract_z
Si Si1 0.673455 0.574850 0.691764
Si Si2 0.677598 0.321159 0.951109
Si Si3 0.674881 0.425174 0.797303
Si Si4 0.821132 0.322244 0.138198
Si Si5 0.679238 0.366479 0.448569
Si Si6 0.169352 0.500000 0.553366
Si Si7 0.177459 0.314082 0.364320
O O1 0.500000 0.591494 0.679231
O O2 0.712005 0.500000 0.678492
O O3 0.701511 0.585934 0.744515
O O4 0.784035 0.621396 0.663998
O O5 0.500000 0.315257 0.940734
O O6 0.750000 0.250000 0.954483
O O7 0.759157 0.355741 0.908526
O O8 0.704177 0.357107 0.000000
O O9 0.500000 0.412697 0.810117
O O10 0.720556 0.500000 0.810540
O O11 0.779507 0.372424 0.822224
O O12 0.750000 0.250000 0.146652
O O13 0.000000 0.313894 0.135749
O O14 0.731674 0.351972 0.500000
O O15 0.500000 0.364568 0.444397
O O16 0.737476 0.436830 0.430730
O O17 0.754621 0.314436 0.415103
O O18 0.156930 0.500000 0.500000
O O19 0.000000 0.500000 0.574670
O O20 0.250000 0.250000 0.340127
O O21 0.000000 0.305602 0.367430
#
# Coordination Sequence:
#
# PCOD8273661 Si02
#       7
#    16  16  16  16  16   8  16
#     4   9  20  41  67  90 113 145 185 229 280 339
#     4   9  16  27  45  70 103 143 187 235 284 334
#     4   9  19  38  62  85 111 145 184 228 281 341
#     4  11  21  32  51  80 114 150 189 235 283 334
#     4  10  21  38  60  85 115 152 191 231 277 329
#     4   9  17  31  53  83 115 145 183 229 271 313
#     4  12  26  42  61  86 119 154 190 232 281 336
#
# _framework density 19.592081
#
# number of rings (size 3 to 8) (size 9 to 14) (size 15 to 20)
#    0.000    2.077    0.000    5.769    1.077    4.923 
#    0.000    1.538    0.000    0.462    0.000    3.231 
#    0.000    0.000    0.000    0.000    0.000    0.000 
#
# Total GULP energy -644621.072415 kJ/mol
# GULP energy per Si atom -12396.559085 kJ/mol
# Density = 1.954749 g / cm^3
# Si number density = 19.592081 Si / 1000 Ang^3
#
#
#
# Elastic Constant Matrix: (Units=GPa)
#
#
# Indices 1 2 3 4 5 6 
#
# 1 142.2625 50.6021 46.3800 0.0000 0.0000 0.0000
# 2 50.6021 91.4542 47.9453 0.0000 0.0000 0.0000
# 3 46.3800 47.9453 79.5030 0.0000 0.0000 0.0000
# 4 0.0000 0.0000 0.0000 22.9763 0.0000 0.0000
# 5 0.0000 0.0000 0.0000 0.0000 31.5017 0.0000
# 6 0.0000 0.0000 0.0000 0.0000 0.0000 32.0525
#
#
#
# Elastic Compliance Matrix: (Units=1/GPa)
#
#
# Indices 1 2 3 4 5 6 
#
# 1 0.009344 -0.003382 -0.003412 0.000000 0.000000 0.000000
# 2 -0.003382 0.017213 -0.008408 0.000000 0.000000 0.000000
# 3 -0.003412 -0.008408 0.019639 0.000000 0.000000 0.000000
# 4 0.000000 0.000000 0.000000 0.043523 0.000000 0.000000
# 5 0.000000 0.000000 0.000000 0.000000 0.031744 0.000000
# 6 0.000000 0.000000 0.000000 0.000000 0.000000 0.031199
#
#
# Mechanical properties :
#
#
# Convention : Reuss Voigt Hill
#
# Bulk Modulus (GPa) = 63.31595 67.00827 65.16211
# Shear Modulus (GPa) = 26.54898 28.52560 27.53729
#
# Velocity S-wave (km/s) = 3.68514 3.81986 3.75311
# Velocity P-wave (km/s) = 7.10594 7.33015 7.21891
#
# Compressibility (1/GPa) = 0.01579381
#
# Stress axis : x y z
#
# Youngs Moduli (GPa) = 107.01556 58.09414 50.91858
#
# Poissons Ratio (x) = 0.19645 0.17373
# Poissons Ratio (y) = 0.36188 0.42813
# Poissons Ratio (z) = 0.36514 0.48846
#
# Static dielectric constant tensor:
#      x y z
#    x 3.557230 0.000000 0.000000 
#    y 0.000000 3.420460 0.000000 
#    z 0.000000 0.000000 3.909360 
# 
# 
# High freq. dielectric constant tensor:
#      x y z
#    x 1.769380 0.000000 0.000000 
#    y 0.000000 1.742170 0.000000 
#    z 0.000000 0.000000 1.767960 
# 
# From -- ./inp_files/76898.got.cif
#   From: 2010.03.12/outbox.cif.g09.slc.cpg/sg65_39_cif.got.tgz:76898.got - 2010.04.10 20:52:16.
