data_PCOD8273139
_publ_section_title
;
Structure prediction by ZEFSAII (Michael W. Deem and Ramdas Pophale) SiO2 
 PCOD8273139
Probable space group: C M M M
;
_chemical_formula_sum "Si O2"
_cell_formula_units_Z 72
_cell_length_a 14.390881
_cell_length_b 20.458666
_cell_length_c 13.892558
_cell_angle_alpha 90.000000
_cell_angle_beta 90.000000
_cell_angle_gamma 90.000000
_cell_volume 4090.222306
_symmetry_space_group_name_H-M "C M M M"
_symmetry_group_IT_number 65
_symmetry_cell_setting 'orthorhombic'
loop_
_space_group_symop_operation_xyz
x,y,z
-x,-y,z
x,-y,-z
-x,y,-z
-x,-y,-z
x,y,-z
-x,y,z
x,-y,z
1/2+x,1/2+y,z
1/2-x,1/2-y,z
1/2+x,1/2-y,-z
1/2-x,1/2+y,-z
1/2-x,1/2-y,-z
1/2+x,1/2+y,-z
1/2-x,1/2+y,z
1/2+x,1/2-y,z
loop_
_atom_site_type_symbol
_atom_site_label
_atom_site_fract_x
_atom_site_fract_y
_atom_site_fract_z
Si Si1 0.890869 0.641993 0.111604
Si Si2 0.391136 0.000000 0.895864
Si Si3 0.000000 0.124470 0.386201
Si Si4 0.687402 0.188221 0.704016
Si Si5 0.803041 0.074781 0.387155
Si Si6 0.500000 0.228701 0.613684
O O1 0.865476 0.569015 0.153507
O O2 0.832480 0.689692 0.180838
O O3 0.000000 0.656810 0.122067
O O4 0.860758 0.650761 0.000000
O O5 0.500000 0.000000 0.913507
O O6 0.341901 0.000000 0.000000
O O7 0.091320 0.086073 0.351080
O O8 0.000000 0.128224 0.500000
O O9 0.000000 0.197823 0.343217
O O10 0.750000 0.250000 0.675602
O O11 0.736479 0.121655 0.672652
O O12 0.590428 0.190352 0.648390
O O13 0.793654 0.091265 0.500000
O O14 0.775054 0.000000 0.365862
O O15 0.500000 0.230166 0.500000
#
# Coordination Sequence:
#
# PCOD8273139 Si02
#       6
#    16   8   8  16  16   8
#     4   9  18  34  54  76 104 136 174 221 269 318
#     4   7  12  26  50  74  94 125 166 207 255 310
#     4   9  17  34  59  78 103 142 185 231 263 301
#     4  12  23  35  55  82 110 142 182 221 273 330
#     4  10  21  36  55  82 112 143 183 228 270 314
#     4  11  22  37  54  78 111 148 185 218 265 323
#
# _framework density 17.602955000000001
#
# number of rings (size 3 to 8) (size 9 to 14) (size 15 to 20)
#    0.000    2.111    3.333    2.333    1.556    2.667 
#    0.000    0.556    0.000    2.000    0.000    0.000 
#    0.000    1.778    0.000    0.000    0.000    0.000 
#
# Total GULP energy -446121.046305 kJ/mol
# GULP energy per Si atom -12392.251286 kJ/mol
# Density = 1.756289 g / cm^3
# Si number density = 17.602955 Si / 1000 Ang^3
#
#
#
# Elastic Constant Matrix: (Units=GPa)
#
#
# Indices 1 2 3 4 5 6 
#
# 1 102.3946 47.5336 41.6494 0.0000 0.0000 0.0000
# 2 47.5336 85.4673 35.3321 0.0000 0.0000 0.0000
# 3 41.6494 35.3321 78.8079 0.0000 0.0000 0.0000
# 4 0.0000 0.0000 0.0000 17.0809 0.0000 0.0000
# 5 0.0000 0.0000 0.0000 0.0000 16.6834 0.0000
# 6 0.0000 0.0000 0.0000 0.0000 0.0000 24.3282
#
#
#
# Elastic Compliance Matrix: (Units=1/GPa)
#
#
# Indices 1 2 3 4 5 6 
#
# 1 0.014616 -0.006058 -0.005008 0.000000 0.000000 0.000000
# 2 -0.006058 0.016873 -0.004363 0.000000 0.000000 0.000000
# 3 -0.005008 -0.004363 0.017292 0.000000 0.000000 0.000000
# 4 0.000000 0.000000 0.000000 0.058545 0.000000 0.000000
# 5 0.000000 0.000000 0.000000 0.000000 0.059940 0.000000
# 6 0.000000 0.000000 0.000000 0.000000 0.000000 0.041105
#
#
# Mechanical properties :
#
#
# Convention : Reuss Voigt Hill
#
# Bulk Modulus (GPa) = 55.79750 57.29999 56.54875
# Shear Modulus (GPa) = 20.39125 21.09549 20.74337
#
# Velocity S-wave (km/s) = 3.40722 3.46556 3.43651
# Velocity P-wave (km/s) = 6.87353 6.97391 6.92390
#
# Compressibility (1/GPa) = 0.01792195
#
# Stress axis : x y z
#
# Youngs Moduli (GPa) = 68.42018 59.26457 57.83026
#
# Poissons Ratio (x) = 0.35904 0.28962
# Poissons Ratio (y) = 0.41451 0.25232
# Poissons Ratio (z) = 0.34266 0.25858
#
# Static dielectric constant tensor:
#      x y z
#    x 3.166390 0.000000 0.000000 
#    y 0.000000 3.410280 0.000000 
#    z 0.000000 0.000000 3.051730 
# 
# 
# High freq. dielectric constant tensor:
#      x y z
#    x 1.668840 0.000000 0.000000 
#    y 0.000000 1.684980 0.000000 
#    z 0.000000 0.000000 1.656600 
# 
# From -- ./inp_files/39859.got.cif
#   From: 2010.03.12/outbox.cif.g09.slc.cpg/sg65_20_cif.got.tgz:39859.got - 2010.04.10 20:52:16.
