data_PCOD8273433
_publ_section_title
;
Structure prediction by ZEFSAII (Michael W. Deem and Ramdas Pophale) SiO2 
 PCOD8273433
Probable space group: C M M M
;
_chemical_formula_sum "Si O2"
_cell_formula_units_Z 88
_cell_length_a 20.583635
_cell_length_b 9.007913
_cell_length_c 24.419898
_cell_angle_alpha 90.000000
_cell_angle_beta 90.000000
_cell_angle_gamma 90.000000
_cell_volume 4527.829876
_symmetry_space_group_name_H-M "C M M M"
_symmetry_group_IT_number 65
_symmetry_cell_setting 'orthorhombic'
loop_
_space_group_symop_operation_xyz
x,y,z
-x,-y,z
x,-y,-z
-x,y,-z
-x,-y,-z
x,y,-z
-x,y,z
x,-y,z
1/2+x,1/2+y,z
1/2-x,1/2-y,z
1/2+x,1/2-y,-z
1/2-x,1/2+y,-z
1/2-x,1/2-y,-z
1/2+x,1/2+y,-z
1/2-x,1/2+y,z
1/2+x,1/2-y,z
loop_
_atom_site_type_symbol
_atom_site_label
_atom_site_fract_x
_atom_site_fract_y
_atom_site_fract_z
Si Si1 0.926397 0.172731 0.756734
Si Si2 0.573090 0.175369 0.644018
Si Si3 0.683959 0.825115 0.437464
Si Si4 0.686863 0.324581 0.838228
Si Si5 0.630386 0.174868 0.936783
Si Si6 0.000000 0.834834 0.064390
O O1 0.906230 0.258368 0.702091
O O2 0.877027 0.220919 0.804281
O O3 0.000000 0.213212 0.775235
O O4 0.919835 0.000000 0.743644
O O5 0.500000 0.226729 0.627911
O O6 0.623132 0.233233 0.598076
O O7 0.576531 0.000000 0.649098
O O8 0.670096 0.778246 0.500000
O O9 0.750000 0.750000 0.415802
O O10 0.692693 0.000000 0.431580
O O11 0.695765 0.500000 0.842503
O O12 0.750000 0.250000 0.809773
O O13 0.683646 0.253982 0.899056
O O14 0.562191 0.242812 0.917043
O O15 0.629299 0.000000 0.926660
O O16 0.645571 0.212706 0.000000
O O17 0.000000 0.000000 0.092038
O O18 0.000000 0.854754 0.000000
#
# Coordination Sequence:
#
# PCOD8273433 Si02
#       6
#    16  16  16  16  16   8
#     4   9  20  39  60  81 106 140 181 226 276 328
#     4   9  18  33  54  80 107 138 179 225 273 323
#     4   9  18  32  50  75 109 147 185 224 266 316
#     4  11  24  40  59  82 111 145 183 227 277 336
#     4  10  21  37  57  83 114 145 181 226 275 328
#     4   9  17  31  53  81 111 143 179 217 260 315
#
# _framework density 19.435358999999998
#
# number of rings (size 3 to 8) (size 9 to 14) (size 15 to 20)
#    0.000    2.455    0.000    1.364    1.273    5.818 
#    0.000    5.455    0.000    0.000    0.000    5.091 
#    0.000    0.000    0.000    0.000    0.000    0.000 
#
# Total GULP energy -545607.908763 kJ/mol
# GULP energy per Si atom -12400.179745 kJ/mol
# Density = 1.939112 g / cm^3
# Si number density = 19.435359 Si / 1000 Ang^3
#
#
#
# Elastic Constant Matrix: (Units=GPa)
#
#
# Indices 1 2 3 4 5 6 
#
# 1 137.1785 49.2494 78.2692 0.0000 0.0000 0.0000
# 2 49.2494 65.6526 43.4603 0.0000 0.0000 0.0000
# 3 78.2692 43.4603 102.4654 0.0000 0.0000 0.0000
# 4 0.0000 0.0000 0.0000 29.7562 0.0000 0.0000
# 5 0.0000 0.0000 0.0000 0.0000 26.8334 0.0000
# 6 0.0000 0.0000 0.0000 0.0000 0.0000 34.5729
#
#
#
# Elastic Compliance Matrix: (Units=1/GPa)
#
#
# Indices 1 2 3 4 5 6 
#
# 1 0.013901 -0.004726 -0.008614 0.000000 0.000000 0.000000
# 2 -0.004726 0.022784 -0.006054 0.000000 0.000000 0.000000
# 3 -0.008614 -0.006054 0.018907 0.000000 0.000000 0.000000
# 4 0.000000 0.000000 0.000000 0.033606 0.000000 0.000000
# 5 0.000000 0.000000 0.000000 0.000000 0.037267 0.000000
# 6 0.000000 0.000000 0.000000 0.000000 0.000000 0.028924
#
#
# Mechanical properties :
#
#
# Convention : Reuss Voigt Hill
#
# Bulk Modulus (GPa) = 59.50678 71.91714 65.71196
# Shear Modulus (GPa) = 25.02743 27.18702 26.10723
#
# Velocity S-wave (km/s) = 3.59238 3.74417 3.66906
# Velocity P-wave (km/s) = 6.92035 7.46829 7.19953
#
# Compressibility (1/GPa) = 0.01680481
#
# Stress axis : x y z
#
# Youngs Moduli (GPa) = 71.93506 43.88983 52.88942
#
# Poissons Ratio (x) = 0.20741 0.45561
# Poissons Ratio (y) = 0.33994 0.32020
# Poissons Ratio (z) = 0.61967 0.26571
#
# Static dielectric constant tensor:
#      x y z
#    x 3.822580 0.000000 0.000000 
#    y 0.000000 3.482850 0.000000 
#    z 0.000000 0.000000 3.499190 
# 
# 
# High freq. dielectric constant tensor:
#      x y z
#    x 1.764520 0.000000 0.000000 
#    y 0.000000 1.754330 0.000000 
#    z 0.000000 0.000000 1.745510 
# 
# From -- ./inp_files/67514.got.cif
#   From: 2010.03.12/outbox.cif.g09.slc.cpg/sg65_34_cif.got.tgz:67514.got - 2010.04.10 20:52:16.
