data_PCOD8273983
_publ_section_title
;
Structure prediction by ZEFSAII (Michael W. Deem and Ramdas Pophale) SiO2 
 PCOD8273983
Probable space group: C M M M
;
_chemical_formula_sum "Si O2"
_cell_formula_units_Z 64
_cell_length_a 8.616707
_cell_length_b 15.313136
_cell_length_c 24.274990
_cell_angle_alpha 90.000000
_cell_angle_beta 90.000000
_cell_angle_gamma 90.000000
_cell_volume 3203.055950
_symmetry_space_group_name_H-M "C M M M"
_symmetry_group_IT_number 65
_symmetry_cell_setting 'orthorhombic'
loop_
_space_group_symop_operation_xyz
x,y,z
-x,-y,z
x,-y,-z
-x,y,-z
-x,-y,-z
x,y,-z
-x,y,z
x,-y,z
1/2+x,1/2+y,z
1/2-x,1/2-y,z
1/2+x,1/2-y,-z
1/2-x,1/2+y,-z
1/2-x,1/2-y,-z
1/2+x,1/2+y,-z
1/2-x,1/2+y,z
1/2+x,1/2-y,z
loop_
_atom_site_type_symbol
_atom_site_label
_atom_site_fract_x
_atom_site_fract_y
_atom_site_fract_z
Si Si1 0.816567 0.845982 0.619012
Si Si2 0.182574 0.155328 0.500000
Si Si3 0.819103 0.602689 0.000000
Si Si4 0.682503 0.000000 0.182056
Si Si5 0.184528 0.000000 0.301986
Si Si6 0.316291 0.658779 0.114625
O O1 0.750000 0.750000 0.631276
O O2 0.763610 0.885887 0.558705
O O3 0.000000 0.837056 0.620505
O O4 0.760807 0.914035 0.664962
O O5 0.250000 0.250000 0.500000
O O6 0.000000 0.159430 0.500000
O O7 0.740111 0.644550 0.947266
O O8 0.789813 0.500000 0.000000
O O9 0.000000 0.625998 0.000000
O O10 0.721025 0.000000 0.246009
O O11 0.754469 0.915026 0.154771
O O12 0.500000 0.000000 0.171489
O O13 0.000000 0.000000 0.291418
O O14 0.500000 0.659427 0.116300
O O15 0.250000 0.750000 0.136989
#
# Coordination Sequence:
#
# PCOD8273983 Si02
#       6
#    16   8   8   8   8  16
#     4   9  18  33  55  81 113 148 188 235 290 351
#     4   8  14  27  49  79 110 144 182 229 285 347
#     4  11  22  39  66  98 135 169 201 243 296 356
#     4  12  26  45  64  87 119 158 206 258 307 358
#     4  10  22  39  57  81 112 152 197 244 296 354
#     4  12  25  43  68  96 127 163 204 249 302 360
#
# _framework density 19.980917999999999
#
# number of rings (size 3 to 8) (size 9 to 14) (size 15 to 20)
#    0.000    1.625    1.250    4.125    0.000    3.000 
#    0.000    5.000    0.000    0.000    0.000    9.625 
#    0.000    0.000    0.000    0.000    0.000    0.000 
#
# Total GULP energy -396639.461107 kJ/mol
# GULP energy per Si atom -12394.983160 kJ/mol
# Density = 1.993544 g / cm^3
# Si number density = 19.980918 Si / 1000 Ang^3
#
#
#
# Elastic Constant Matrix: (Units=GPa)
#
#
# Indices 1 2 3 4 5 6 
#
# 1 102.9235 59.8141 40.5368 0.0000 0.0000 0.0000
# 2 59.8141 154.8507 79.0239 0.0000 0.0000 0.0000
# 3 40.5368 79.0239 150.0923 0.0000 0.0000 0.0000
# 4 0.0000 0.0000 0.0000 -353.1765 0.0000 0.0000
# 5 0.0000 0.0000 0.0000 0.0000 38.6731 0.0000
# 6 0.0000 0.0000 0.0000 0.0000 0.0000 31.0478
#
#
#
# Elastic Compliance Matrix: (Units=1/GPa)
#
#
# Indices 1 2 3 4 5 6 
#
# 1 0.012673 -0.004305 -0.001156 0.000000 0.000000 0.000000
# 2 -0.004305 0.010293 -0.004257 0.000000 0.000000 0.000000
# 3 -0.001156 -0.004257 0.009216 0.000000 0.000000 0.000000
# 4 0.000000 0.000000 0.000000 -0.002831 0.000000 0.000000
# 5 0.000000 0.000000 0.000000 0.000000 0.025858 0.000000
# 6 0.000000 0.000000 0.000000 0.000000 0.000000 0.032208
#
#
# Mechanical properties :
#
#
# Convention : Reuss Voigt Hill
#
# Bulk Modulus (GPa) = 78.45341 85.17955 81.81648
# Shear Modulus (GPa) = 45.00382 -41.45836 1.77273
#
# Velocity S-wave (km/s) = 4.75103 -4.56005 0.94294
# Velocity P-wave (km/s) = 8.33341 3.87268 6.49782
#
# Compressibility (1/GPa) = 0.01274642
#
# Stress axis : x y z
#
# Youngs Moduli (GPa) = 78.90587 97.15268 108.50859
#
# Poissons Ratio (x) = 0.41828 0.12544
# Poissons Ratio (y) = 0.33972 0.46187
# Poissons Ratio (z) = 0.09122 0.41353
#
# Static dielectric constant tensor:
#      x y z
#    x 3.662440 0.000000 0.000000 
#    y 0.000000 3.856550 0.000000 
#    z 0.000000 0.000000 4.075680 
# 
# 
# High freq. dielectric constant tensor:
#      x y z
#    x 1.779260 0.000000 0.000000 
#    y 0.000000 1.783100 0.000000 
#    z 0.000000 0.000000 1.791620 
# 
# From -- ./inp_files/66902.got.cif
#   From: 2010.03.12/outbox.cif.g09.slc.cpg/sg65_34_cif.got.tgz:66902.got - 2010.04.10 20:52:16.
