data_PCOD8273459
_publ_section_title
;
Structure prediction by ZEFSAII (Michael W. Deem and Ramdas Pophale) SiO2 
 PCOD8273459
Probable space group: C M M M
;
_chemical_formula_sum "Si O2"
_cell_formula_units_Z 104
_cell_length_a 26.481156
_cell_length_b 8.777474
_cell_length_c 22.526464
_cell_angle_alpha 90.000000
_cell_angle_beta 90.000000
_cell_angle_gamma 90.000000
_cell_volume 5235.998541
_symmetry_space_group_name_H-M "C M M M"
_symmetry_group_IT_number 65
_symmetry_cell_setting 'orthorhombic'
loop_
_space_group_symop_operation_xyz
x,y,z
-x,-y,z
x,-y,-z
-x,y,-z
-x,-y,-z
x,y,-z
-x,y,z
x,-y,z
1/2+x,1/2+y,z
1/2-x,1/2-y,z
1/2+x,1/2-y,-z
1/2-x,1/2+y,-z
1/2-x,1/2-y,-z
1/2+x,1/2+y,-z
1/2-x,1/2+y,z
1/2+x,1/2-y,z
loop_
_atom_site_type_symbol
_atom_site_label
_atom_site_fract_x
_atom_site_fract_y
_atom_site_fract_z
Si Si1 0.696970 0.321525 0.569150
Si Si2 0.150853 0.320707 0.933546
Si Si3 0.500000 0.326780 0.429798
Si Si4 0.800296 0.177571 0.175715
Si Si5 0.444093 0.826077 0.860420
Si Si6 0.898854 0.822763 0.752514
Si Si7 0.598111 0.179812 0.626956
O O1 0.688609 0.286354 0.500000
O O2 0.698622 0.500000 0.582621
O O3 0.750000 0.250000 0.590965
O O4 0.650522 0.250021 0.604443
O O5 0.159568 0.500000 0.932408
O O6 0.190977 0.244375 0.889913
O O7 0.094541 0.276704 0.911858
O O8 0.158113 0.256042 0.000000
O O9 0.500000 0.500000 0.405587
O O10 0.500000 0.324763 0.500000
O O11 0.449517 0.243414 0.408697
O O12 0.750000 0.250000 0.203138
O O13 0.844191 0.220365 0.221478
O O14 0.793633 0.000000 0.168792
O O15 0.500000 0.806325 0.886991
O O16 0.439537 0.719498 0.802622
O O17 0.433574 0.000000 0.840683
O O18 0.909457 0.721078 0.695429
O O19 0.903305 0.000000 0.735866
O O20 0.600139 0.000000 0.618293
#
# Coordination Sequence:
#
# PCOD8273459 Si02
#       7
#    16  16   8  16  16  16  16
#     4  10  21  39  63  90 121 157 197 242 293 349
#     4   9  18  33  53  79 111 146 185 229 279 339
#     4  11  25  45  67  91 123 163 204 249 300 355
#     4  10  21  37  58  81 108 146 188 234 289 342
#     4   9  18  33  54  79 109 143 182 231 283 337
#     4  10  22  39  57  80 111 147 189 235 284 342
#     4  12  25  40  62  91 123 159 200 247 299 357
#
# _framework density 19.862494999999999
#
# number of rings (size 3 to 8) (size 9 to 14) (size 15 to 20)
#    0.000    1.923    0.000    3.462    1.077    7.077 
#    0.000    3.077    0.000    0.000    0.000    4.308 
#    0.000    0.000    0.000    0.000    0.000    0.000 
#
# Total GULP energy -644932.075386 kJ/mol
# GULP energy per Si atom -12402.539911 kJ/mol
# Density = 1.981729 g / cm^3
# Si number density = 19.862495 Si / 1000 Ang^3
#
#
#
# Elastic Constant Matrix: (Units=GPa)
#
#
# Indices 1 2 3 4 5 6 
#
# 1 92.8044 24.6851 6.5093 0.0000 0.0000 0.0000
# 2 24.6851 77.3848 24.3911 0.0000 0.0000 0.0000
# 3 6.5093 24.3911 66.4331 0.0000 0.0000 0.0000
# 4 0.0000 0.0000 0.0000 30.0707 0.0000 0.0000
# 5 0.0000 0.0000 0.0000 0.0000 12.2641 0.0000
# 6 0.0000 0.0000 0.0000 0.0000 0.0000 33.7072
#
#
#
# Elastic Compliance Matrix: (Units=1/GPa)
#
#
# Indices 1 2 3 4 5 6 
#
# 1 0.011778 -0.003837 0.000255 0.000000 0.000000 0.000000
# 2 -0.003837 0.015864 -0.005448 0.000000 0.000000 0.000000
# 3 0.000255 -0.005448 0.017028 0.000000 0.000000 0.000000
# 4 0.000000 0.000000 0.000000 0.033255 0.000000 0.000000
# 5 0.000000 0.000000 0.000000 0.000000 0.081539 0.000000
# 6 0.000000 0.000000 0.000000 0.000000 0.000000 0.029667
#
#
# Mechanical properties :
#
#
# Convention : Reuss Voigt Hill
#
# Bulk Modulus (GPa) = 37.58249 38.64370 38.11310
# Shear Modulus (GPa) = 23.14142 27.27752 25.20947
#
# Velocity S-wave (km/s) = 3.41703 3.70985 3.56645
# Velocity P-wave (km/s) = 5.87627 6.15211 6.01577
#
# Compressibility (1/GPa) = 0.02660813
#
# Stress axis : x y z
#
# Youngs Moduli (GPa) = 84.90249 63.03622 58.72612
#
# Poissons Ratio (x) = 0.24190 -0.01497
# Poissons Ratio (y) = 0.32581 0.31997
# Poissons Ratio (z) = -0.02164 0.34345
#
# Static dielectric constant tensor:
#      x y z
#    x 3.757630 0.000000 0.000000 
#    y 0.000000 3.697170 0.000000 
#    z 0.000000 0.000000 3.588150 
# 
# 
# High freq. dielectric constant tensor:
#      x y z
#    x 1.785920 0.000000 0.000000 
#    y 0.000000 1.779510 0.000000 
#    z 0.000000 0.000000 1.769270 
# 
# From -- ./inp_files/65929.got.cif
#   From: 2010.03.12/outbox.cif.g09.slc.cpg/sg65_33_cif.got.tgz:65929.got - 2010.04.10 20:52:16.
