data_PCOD8273664
_publ_section_title
;
Structure prediction by ZEFSAII (Michael W. Deem and Ramdas Pophale) SiO2 
 PCOD8273664
Probable space group: C M M M
;
_chemical_formula_sum "Si O2"
_cell_formula_units_Z 64
_cell_length_a 13.907639
_cell_length_b 30.472402
_cell_length_c 7.506325
_cell_angle_alpha 90.000000
_cell_angle_beta 90.000000
_cell_angle_gamma 90.000000
_cell_volume 3181.174278
_symmetry_space_group_name_H-M "C M M M"
_symmetry_group_IT_number 65
_symmetry_cell_setting 'orthorhombic'
loop_
_space_group_symop_operation_xyz
x,y,z
-x,-y,z
x,-y,-z
-x,y,-z
-x,-y,-z
x,y,-z
-x,y,z
x,-y,z
1/2+x,1/2+y,z
1/2-x,1/2-y,z
1/2+x,1/2-y,-z
1/2-x,1/2+y,-z
1/2-x,1/2-y,-z
1/2+x,1/2+y,-z
1/2-x,1/2+y,z
1/2+x,1/2-y,z
loop_
_atom_site_type_symbol
_atom_site_label
_atom_site_fract_x
_atom_site_fract_y
_atom_site_fract_z
Si Si1 0.394880 0.167136 0.500000
Si Si2 0.107352 0.435634 0.500000
Si Si3 0.242414 0.698950 0.794066
Si Si4 0.241944 0.048830 0.795677
Si Si5 0.892975 0.872866 0.209743
O O1 0.500000 0.188673 0.500000
O O2 0.400801 0.115748 0.500000
O O3 0.345328 0.181531 0.318753
O O4 0.162249 0.451073 0.677437
O O5 0.000000 0.456278 0.500000
O O6 0.250000 0.750000 0.750431
O O7 0.338745 0.672385 0.737491
O O8 0.218491 0.690422 0.000000
O O9 0.166165 0.084730 0.720076
O O10 0.195469 0.000000 0.784441
O O11 0.270173 0.060145 0.000000
O O12 0.000000 0.872256 0.295732
O O13 0.902961 0.876627 0.000000
#
# Coordination Sequence:
#
# PCOD8273664 Si02
#       5
#     8   8  16  16  16
#     4  11  23  38  59  86 117 155 196 239 290 347
#     4  11  23  39  60  84 115 156 197 240 293 348
#     4  10  21  39  62  87 119 155 193 240 291 347
#     4  10  21  38  60  85 116 154 195 243 297 351
#     4   9  18  35  59  86 116 151 192 237 290 349
#
# _framework density 20.118359000000002
#
# number of rings (size 3 to 8) (size 9 to 14) (size 15 to 20)
#    0.000    2.000    2.500    0.750    0.000    3.500 
#    0.000   11.250    0.000    1.500    0.000    0.000 
#    0.000    0.000    0.000    0.000    0.000    0.000 
#
# Total GULP energy -396694.211759 kJ/mol
# GULP energy per Si atom -12396.694117 kJ/mol
# Density = 2.007257 g / cm^3
# Si number density = 20.118359 Si / 1000 Ang^3
#
#
#
# Elastic Constant Matrix: (Units=GPa)
#
#
# Indices 1 2 3 4 5 6 
#
# 1 175.2059 73.1022 49.1048 0.0000 0.0000 0.0000
# 2 73.1022 153.3797 24.8545 0.0000 0.0000 0.0000
# 3 49.1048 24.8545 71.2895 0.0000 0.0000 0.0000
# 4 0.0000 0.0000 0.0000 23.0485 0.0000 0.0000
# 5 0.0000 0.0000 0.0000 0.0000 29.4507 0.0000
# 6 0.0000 0.0000 0.0000 0.0000 0.0000 4.3370
#
#
#
# Elastic Compliance Matrix: (Units=1/GPa)
#
#
# Indices 1 2 3 4 5 6 
#
# 1 0.008352 -0.003231 -0.004627 0.000000 0.000000 0.000000
# 2 -0.003231 0.008160 -0.000619 0.000000 0.000000 0.000000
# 3 -0.004627 -0.000619 0.017430 0.000000 0.000000 0.000000
# 4 0.000000 0.000000 0.000000 0.043387 0.000000 0.000000
# 5 0.000000 0.000000 0.000000 0.000000 0.033955 0.000000
# 6 0.000000 0.000000 0.000000 0.000000 0.000000 0.230575
#
#
# Mechanical properties :
#
#
# Convention : Reuss Voigt Hill
#
# Bulk Modulus (GPa) = 58.86384 77.11091 67.98737
# Shear Modulus (GPa) = 13.71831 28.22147 20.96989
#
# Velocity S-wave (km/s) = 2.61412 3.74942 3.23201
# Velocity P-wave (km/s) = 6.19950 7.56016 6.91339
#
# Compressibility (1/GPa) = 0.01698836
#
# Stress axis : x y z
#
# Youngs Moduli (GPa) = 119.72567 122.54742 57.37180
#
# Poissons Ratio (x) = 0.39596 0.26544
# Poissons Ratio (y) = 0.38685 0.03553
# Poissons Ratio (z) = 0.55394 0.07590
#
# Static dielectric constant tensor:
#      x y z
#    x 4.046230 0.000000 0.000000 
#    y 0.000000 4.042800 0.000000 
#    z 0.000000 0.000000 3.548060 
# 
# 
# High freq. dielectric constant tensor:
#      x y z
#    x 1.772520 0.000000 0.000000 
#    y 0.000000 1.802290 0.000000 
#    z 0.000000 0.000000 1.783590 
# 
# From -- ./inp_files/4972.got.cif
#   From: 2010.03.12/outbox.cif.g09.slc.cpg/sg65_3_cif.got.tgz:4972.got - 2010.04.10 20:52:16.
