data_PCOD8273185
_publ_section_title
;
Structure prediction by ZEFSAII (Michael W. Deem and Ramdas Pophale) SiO2 
 PCOD8273185
Probable space group: C M M M
;
_chemical_formula_sum "Si O2"
_cell_formula_units_Z 104
_cell_length_a 9.498671
_cell_length_b 21.777242
_cell_length_c 26.540498
_cell_angle_alpha 90.000000
_cell_angle_beta 90.000000
_cell_angle_gamma 90.000000
_cell_volume 5490.030920
_symmetry_space_group_name_H-M "C M M M"
_symmetry_group_IT_number 65
_symmetry_cell_setting 'orthorhombic'
loop_
_space_group_symop_operation_xyz
x,y,z
-x,-y,z
x,-y,-z
-x,y,-z
-x,-y,-z
x,y,-z
-x,y,z
x,-y,z
1/2+x,1/2+y,z
1/2-x,1/2-y,z
1/2+x,1/2-y,-z
1/2-x,1/2+y,-z
1/2-x,1/2-y,-z
1/2+x,1/2+y,-z
1/2-x,1/2+y,z
1/2+x,1/2-y,z
loop_
_atom_site_type_symbol
_atom_site_label
_atom_site_fract_x
_atom_site_fract_y
_atom_site_fract_z
Si Si1 0.657261 0.500000 0.778600
Si Si2 0.336109 0.428099 0.375759
Si Si3 0.837074 0.190595 0.558457
Si Si4 0.661557 0.885800 0.901777
Si Si5 0.341326 0.190404 0.805631
Si Si6 0.343875 0.807457 0.000000
Si Si7 0.155546 0.000000 0.896721
Si Si8 0.161985 0.596194 0.276541
O O1 0.500000 0.500000 0.753640
O O2 0.642014 0.500000 0.837304
O O3 0.747819 0.557700 0.762435
O O4 0.500000 0.422994 0.360357
O O5 0.304783 0.500000 0.392140
O O6 0.299592 0.376454 0.417830
O O7 0.236358 0.408092 0.330234
O O8 0.801128 0.182583 0.500000
O O9 0.750000 0.250000 0.580008
O O10 0.000000 0.206274 0.568006
O O11 0.500000 0.907635 0.896505
O O12 0.712412 0.855247 0.849382
O O13 0.686076 0.842956 0.948989
O O14 0.759986 0.941892 0.915513
O O15 0.500000 0.209421 0.818876
O O16 0.250000 0.250000 0.806459
O O17 0.333768 0.163209 0.748835
O O18 0.250000 0.750000 0.000000
O O19 0.500000 0.782316 0.000000
O O20 0.000000 0.000000 0.921013
O O21 0.000000 0.573236 0.281472
#
# Coordination Sequence:
#
# PCOD8273185 Si02
#       8
#     8  16  16  16  16   8   8  16
#     4  11  21  35  56  82 110 143 186 228 273 329
#     4  10  21  36  56  85 118 151 192 242 293 341
#     4   9  19  37  60  84 113 153 198 242 290 346
#     4  10  21  39  59  82 112 146 184 227 280 339
#     4  10  22  37  55  79 109 145 186 229 274 329
#     4  10  22  39  62  85 109 146 186 228 281 336
#     4  11  23  36  58  89 112 143 185 230 281 330
#     4  11  22  36  56  82 112 150 188 225 279 338
#
# _framework density 18.943427
#
# number of rings (size 3 to 8) (size 9 to 14) (size 15 to 20)
#    0.000    1.846    2.308    1.385    0.000    4.923 
#    0.000    6.154    0.000    0.000    0.000    3.231 
#    0.000    0.000    0.000    0.000    0.000    0.000 
#
# Total GULP energy -644383.380366 kJ/mol
# GULP energy per Si atom -12391.988084 kJ/mol
# Density = 1.890031 g / cm^3
# Si number density = 18.943427 Si / 1000 Ang^3
#
#
#
# Elastic Constant Matrix: (Units=GPa)
#
#
# Indices 1 2 3 4 5 6 
#
# 1 117.0866 84.1693 42.6151 0.0000 0.0000 0.0000
# 2 84.1693 144.6678 49.5988 0.0000 0.0000 0.0000
# 3 42.6151 49.5988 80.2138 0.0000 0.0000 0.0000
# 4 0.0000 0.0000 0.0000 11.6886 0.0000 0.0000
# 5 0.0000 0.0000 0.0000 0.0000 35.3333 0.0000
# 6 0.0000 0.0000 0.0000 0.0000 0.0000 34.4261
#
#
#
# Elastic Compliance Matrix: (Units=1/GPa)
#
#
# Indices 1 2 3 4 5 6 
#
# 1 0.015356 -0.007788 -0.003342 0.000000 0.000000 0.000000
# 2 -0.007788 0.012722 -0.003729 0.000000 0.000000 0.000000
# 3 -0.003342 -0.003729 0.016548 0.000000 0.000000 0.000000
# 4 0.000000 0.000000 0.000000 0.085554 0.000000 0.000000
# 5 0.000000 0.000000 0.000000 0.000000 0.028302 0.000000
# 6 0.000000 0.000000 0.000000 0.000000 0.000000 0.029048
#
#
# Mechanical properties :
#
#
# Convention : Reuss Voigt Hill
#
# Bulk Modulus (GPa) = 67.08217 77.19274 72.13745
# Shear Modulus (GPa) = 22.50049 27.32860 24.91454
#
# Velocity S-wave (km/s) = 3.45015 3.80233 3.63051
# Velocity P-wave (km/s) = 7.16659 7.75336 7.46574
#
# Compressibility (1/GPa) = 0.01490709
#
# Stress axis : x y z
#
# Youngs Moduli (GPa) = 65.12136 78.60315 60.43025
#
# Poissons Ratio (x) = 0.61219 0.20198
# Poissons Ratio (y) = 0.50719 0.22533
# Poissons Ratio (z) = 0.21766 0.29310
#
# Static dielectric constant tensor:
#      x y z
#    x 3.780560 0.000000 0.000000 
#    y 0.000000 3.470350 0.000000 
#    z 0.000000 0.000000 3.460660 
# 
# 
# High freq. dielectric constant tensor:
#      x y z
#    x 1.742900 0.000000 0.000000 
#    y 0.000000 1.738730 0.000000 
#    z 0.000000 0.000000 1.730960 
# 
# From -- ./inp_files/73418.got.cif
#   From: 2010.03.12/outbox.cif.g09.slc.cpg/sg65_37_cif.got.tgz:73418.got - 2010.04.10 20:52:16.
