data_PCOD8273633
_publ_section_title
;
Structure prediction by ZEFSAII (Michael W. Deem and Ramdas Pophale) SiO2 
 PCOD8273633
Probable space group: C M M M
;
_chemical_formula_sum "Si O2"
_cell_formula_units_Z 72
_cell_length_a 8.911259
_cell_length_b 15.857299
_cell_length_c 26.071735
_cell_angle_alpha 90.000000
_cell_angle_beta 90.000000
_cell_angle_gamma 90.000000
_cell_volume 3684.157724
_symmetry_space_group_name_H-M "C M M M"
_symmetry_group_IT_number 65
_symmetry_cell_setting 'orthorhombic'
loop_
_space_group_symop_operation_xyz
x,y,z
-x,-y,z
x,-y,-z
-x,y,-z
-x,-y,-z
x,y,-z
-x,y,z
x,-y,z
1/2+x,1/2+y,z
1/2-x,1/2-y,z
1/2+x,1/2-y,-z
1/2-x,1/2+y,-z
1/2-x,1/2-y,-z
1/2+x,1/2+y,-z
1/2-x,1/2+y,z
1/2+x,1/2-y,z
loop_
_atom_site_type_symbol
_atom_site_label
_atom_site_fract_x
_atom_site_fract_y
_atom_site_fract_z
Si Si1 0.677523 0.500000 0.764052
Si Si2 0.823725 0.000000 0.116895
Si Si3 0.659207 0.592782 0.500000
Si Si4 0.676334 0.336067 0.940785
Si Si5 0.174929 0.663085 0.407795
Si Si6 0.822495 0.659558 0.709326
O O1 0.500000 0.500000 0.753473
O O2 0.717143 0.500000 0.823735
O O3 0.749364 0.584915 0.741784
O O4 0.756956 0.915472 0.090741
O O5 0.000000 0.000000 0.106827
O O6 0.600585 0.500000 0.500000
O O7 0.500000 0.646310 0.500000
O O8 0.757529 0.599906 0.551262
O O9 0.500000 0.327227 0.932480
O O10 0.750000 0.250000 0.919854
O O11 0.718346 0.350734 0.000000
O O12 0.250000 0.750000 0.422233
O O13 0.212843 0.636318 0.349665
O O14 0.000000 0.670541 0.416021
O O15 0.750000 0.750000 0.724026
O O16 0.000000 0.664473 0.719952
#
# Coordination Sequence:
#
# PCOD8273633 Si02
#       6
#     8   8   8  16  16  16
#     4  11  23  38  59  85 117 154 192 241 293 344
#     4   9  19  35  54  80 111 149 192 229 278 338
#     4  11  24  37  52  81 115 145 176 215 266 329
#     4   9  17  32  55  81 111 148 189 232 277 330
#     4  10  21  38  60  81 106 140 178 223 273 330
#     4  10  22  41  63  87 113 148 194 241 290 345
#
# _framework density 19.543136000000001
#
# number of rings (size 3 to 8) (size 9 to 14) (size 15 to 20)
#    0.000    2.111    0.000    2.667    1.556    5.778 
#    0.000    5.000    0.000    2.667    0.000    0.000 
#    0.000    0.000    0.000    0.000    0.000    0.000 
#
# Total GULP energy -446230.498345 kJ/mol
# GULP energy per Si atom -12395.291621 kJ/mol
# Density = 1.949866 g / cm^3
# Si number density = 19.543136 Si / 1000 Ang^3
#
#
#
# Elastic Constant Matrix: (Units=GPa)
#
#
# Indices 1 2 3 4 5 6 
#
# 1 84.1041 62.2506 51.9143 0.0000 0.0000 0.0000
# 2 62.2506 172.0478 90.1126 0.0000 0.0000 0.0000
# 3 51.9143 90.1126 112.2016 0.0000 0.0000 0.0000
# 4 0.0000 0.0000 0.0000 34.3343 0.0000 0.0000
# 5 0.0000 0.0000 0.0000 0.0000 29.6515 0.0000
# 6 0.0000 0.0000 0.0000 0.0000 0.0000 32.3589
#
#
#
# Elastic Compliance Matrix: (Units=1/GPa)
#
#
# Indices 1 2 3 4 5 6 
#
# 1 0.017907 -0.003693 -0.005319 0.000000 0.000000 0.000000
# 2 -0.003693 0.010794 -0.006960 0.000000 0.000000 0.000000
# 3 -0.005319 -0.006960 0.016964 0.000000 0.000000 0.000000
# 4 0.000000 0.000000 0.000000 0.029125 0.000000 0.000000
# 5 0.000000 0.000000 0.000000 0.000000 0.033725 0.000000
# 6 0.000000 0.000000 0.000000 0.000000 0.000000 0.030903
#
#
# Mechanical properties :
#
#
# Convention : Reuss Voigt Hill
#
# Bulk Modulus (GPa) = 72.88958 86.32315 79.60637
# Shear Modulus (GPa) = 28.41921 30.20736 29.31328
#
# Velocity S-wave (km/s) = 3.81751 3.93577 3.87709
# Velocity P-wave (km/s) = 7.53717 8.05731 7.80157
#
# Compressibility (1/GPa) = 0.01371938
#
# Stress axis : x y z
#
# Youngs Moduli (GPa) = 55.84447 92.64249 58.94895
#
# Poissons Ratio (x) = 0.34213 0.31357
# Poissons Ratio (y) = 0.20624 0.41031
# Poissons Ratio (z) = 0.29705 0.64483
#
# Static dielectric constant tensor:
#      x y z
#    x 3.546280 0.000000 0.000000 
#    y 0.000000 3.648980 0.000000 
#    z 0.000000 0.000000 3.608180 
# 
# 
# High freq. dielectric constant tensor:
#      x y z
#    x 1.762750 0.000000 0.000000 
#    y 0.000000 1.768550 0.000000 
#    z 0.000000 0.000000 1.759120 
# 
# From -- ./inp_files/72610.got.cif
#   From: 2010.03.12/outbox.cif.g09.slc.cpg/sg65_37_cif.got.tgz:72610.got - 2010.04.10 20:52:16.
