data_PCOD8273103
_publ_section_title
;
Structure prediction by ZEFSAII (Michael W. Deem and Ramdas Pophale) SiO2 
 PCOD8273103
Probable space group: C M M M
;
_chemical_formula_sum "Si O2"
_cell_formula_units_Z 112
_cell_length_a 30.219922
_cell_length_b 13.414208
_cell_length_c 14.462654
_cell_angle_alpha 90.000000
_cell_angle_beta 90.000000
_cell_angle_gamma 90.000000
_cell_volume 5862.817448
_symmetry_space_group_name_H-M "C M M M"
_symmetry_group_IT_number 65
_symmetry_cell_setting 'orthorhombic'
loop_
_space_group_symop_operation_xyz
x,y,z
-x,-y,z
x,-y,-z
-x,y,-z
-x,-y,-z
x,y,-z
-x,y,z
x,-y,z
1/2+x,1/2+y,z
1/2-x,1/2-y,z
1/2+x,1/2-y,-z
1/2-x,1/2+y,-z
1/2-x,1/2-y,-z
1/2+x,1/2+y,-z
1/2-x,1/2+y,z
1/2+x,1/2-y,z
loop_
_atom_site_type_symbol
_atom_site_label
_atom_site_fract_x
_atom_site_fract_y
_atom_site_fract_z
Si Si1 0.807561 0.614004 0.894882
Si Si2 0.296497 0.114454 0.395885
Si Si3 0.948551 0.615917 0.259108
Si Si4 0.885725 0.268799 0.391186
Si Si5 0.866652 0.881698 0.758036
Si Si6 0.398281 0.771189 0.107726
Si Si7 0.233272 0.116664 0.761946
O O1 0.816438 0.500000 0.864224
O O2 0.852209 0.673157 0.876865
O O3 0.767082 0.662285 0.837383
O O4 0.792342 0.620445 0.000000
O O5 0.281043 0.131029 0.500000
O O6 0.339098 0.178948 0.371241
O O7 0.253720 0.146506 0.336995
O O8 0.309491 0.000000 0.375927
O O9 0.936748 0.500000 0.253019
O O10 0.923709 0.662792 0.347156
O O11 0.935508 0.666448 0.161509
O O12 0.000000 0.634323 0.275841
O O13 0.894908 0.253225 0.500000
O O14 0.885202 0.162311 0.338742
O O15 0.894004 0.838056 0.845319
O O16 0.816287 0.843217 0.770774
O O17 0.872176 0.000000 0.755356
O O18 0.411226 0.760777 0.000000
O O19 0.230596 0.000000 0.777395
#
# Coordination Sequence:
#
# PCOD8273103 Si02
#       7
#    16  16  16  16  16  16  16
#     4   9  17  29  47  73 105 140 176 214 261 321
#     4   9  17  29  47  73 105 140 176 214 261 321
#     4  10  21  37  60  91 121 142 161 194 248 320
#     4  10  21  36  55  79 108 144 182 219 263 318
#     4  10  22  37  52  73 102 141 191 241 279 307
#     4  10  21  36  55  79 108 144 182 219 263 318
#     4   9  17  30  47  68 100 140 180 226 273 310
#
# _framework density 19.103444
#
# number of rings (size 3 to 8) (size 9 to 14) (size 15 to 20)
#    0.000    2.429    0.000    2.571    0.000    7.429 
#    0.000    7.143    0.000    6.857    0.000    8.000 
#    0.000    0.000    0.000    0.000    0.000    0.000 
#
# Total GULP energy -694274.274437 kJ/mol
# GULP energy per Si atom -12397.754901 kJ/mol
# Density = 1.905996 g / cm^3
# Si number density = 19.103444 Si / 1000 Ang^3
#
#
#
# Elastic Constant Matrix: (Units=GPa)
#
#
# Indices 1 2 3 4 5 6 
#
# 1 51.2166 19.1109 4.5627 0.0000 0.0000 0.0000
# 2 19.1109 88.7134 15.2172 0.0000 0.0000 0.0000
# 3 4.5627 15.2172 72.7023 0.0000 0.0000 0.0000
# 4 0.0000 0.0000 0.0000 12.3487 0.0000 0.0000
# 5 0.0000 0.0000 0.0000 0.0000 75.2749 0.0000
# 6 0.0000 0.0000 0.0000 0.0000 0.0000 22.6366
#
#
#
# Elastic Compliance Matrix: (Units=1/GPa)
#
#
# Indices 1 2 3 4 5 6 
#
# 1 0.021242 -0.004509 -0.000389 0.000000 0.000000 0.000000
# 2 -0.004509 0.012649 -0.002365 0.000000 0.000000 0.000000
# 3 -0.000389 -0.002365 0.014274 0.000000 0.000000 0.000000
# 4 0.000000 0.000000 0.000000 0.080980 0.000000 0.000000
# 5 0.000000 0.000000 0.000000 0.000000 0.013285 0.000000
# 6 0.000000 0.000000 0.000000 0.000000 0.000000 0.044176
#
#
# Mechanical properties :
#
#
# Convention : Reuss Voigt Hill
#
# Bulk Modulus (GPa) = 29.72725 32.26820 30.99773
# Shear Modulus (GPa) = 23.54647 33.63481 28.59064
#
# Velocity S-wave (km/s) = 3.51462 4.20058 3.87282
# Velocity P-wave (km/s) = 5.66260 6.36039 6.02161
#
# Compressibility (1/GPa) = 0.03363917
#
# Stress axis : x y z
#
# Youngs Moduli (GPa) = 47.07616 79.05607 70.05706
#
# Poissons Ratio (x) = 0.35648 0.02727
# Poissons Ratio (y) = 0.21228 0.16566
# Poissons Ratio (z) = 0.01833 0.18694
#
# Static dielectric constant tensor:
#      x y z
#    x 3.347980 0.000000 0.000000 
#    y 0.000000 3.469220 0.000000 
#    z 0.000000 0.000000 3.644700 
# 
# 
# High freq. dielectric constant tensor:
#      x y z
#    x 1.719190 0.000000 0.000000 
#    y 0.000000 1.746220 0.000000 
#    z 0.000000 0.000000 1.751020 
# 
# From -- ./inp_files/45770.got.cif
#   From: 2010.03.12/outbox.cif.g09.slc.cpg/sg65_23_cif.got.tgz:45770.got - 2010.04.10 20:52:16.
