data_PCOD8273059
_publ_section_title
;
Structure prediction by ZEFSAII (Michael W. Deem and Ramdas Pophale) SiO2 
 PCOD8273059
Probable space group: C M M M
;
_chemical_formula_sum "Si O2"
_cell_formula_units_Z 88
_cell_length_a 18.448483
_cell_length_b 7.881338
_cell_length_c 29.664985
_cell_angle_alpha 90.000000
_cell_angle_beta 90.000000
_cell_angle_gamma 90.000000
_cell_volume 4313.251148
_symmetry_space_group_name_H-M "C M M M"
_symmetry_group_IT_number 65
_symmetry_cell_setting 'orthorhombic'
loop_
_space_group_symop_operation_xyz
x,y,z
-x,-y,z
x,-y,-z
-x,y,-z
-x,-y,-z
x,y,-z
-x,y,z
x,-y,z
1/2+x,1/2+y,z
1/2-x,1/2-y,z
1/2+x,1/2-y,-z
1/2-x,1/2+y,-z
1/2-x,1/2-y,-z
1/2+x,1/2+y,-z
1/2-x,1/2+y,z
1/2+x,1/2-y,z
loop_
_atom_site_type_symbol
_atom_site_label
_atom_site_fract_x
_atom_site_fract_y
_atom_site_fract_z
Si Si1 0.085380 0.191466 0.950776
Si Si2 0.334251 0.296417 0.396899
Si Si3 0.416362 0.000000 0.553270
Si Si4 0.325666 0.190128 0.870697
Si Si5 0.920488 0.195047 0.689724
Si Si6 0.669717 0.800521 0.772055
O O1 0.114198 0.298721 0.909171
O O2 0.000000 0.199019 0.948550
O O3 0.113535 0.000000 0.945058
O O4 0.110963 0.261536 0.000000
O O5 0.345473 0.500000 0.406879
O O6 0.250000 0.250000 0.398876
O O7 0.377152 0.175378 0.431588
O O8 0.364673 0.238352 0.347995
O O9 0.500000 0.000000 0.570220
O O10 0.412938 0.000000 0.500000
O O11 0.250000 0.250000 0.891982
O O12 0.344412 0.278399 0.822663
O O13 0.315407 0.000000 0.855755
O O14 0.888897 0.218485 0.739499
O O15 0.000000 0.284649 0.686255
O O16 0.932483 0.000000 0.680354
O O17 0.750000 0.750000 0.756056
O O18 0.658815 0.000000 0.769193
#
# Coordination Sequence:
#
# PCOD8273059 Si02
#       6
#    16  16   8  16  16  16
#     4   9  19  36  56  77 102 136 177 222 277 341
#     4  11  23  43  68 100 133 174 223 274 324 386
#     4  11  26  46  70 102 137 177 223 273 335 391
#     4  10  21  36  54  78 108 141 184 231 283 342
#     4  10  22  38  59  88 122 159 202 249 302 363
#     4  10  21  36  55  80 110 150 191 236 288 347
#
# _framework density 20.402242999999999
#
# number of rings (size 3 to 8) (size 9 to 14) (size 15 to 20)
#    0.000    1.909    0.909    2.727    1.273    7.636 
#    0.000    5.455    0.000    0.000    0.000    0.000 
#    0.000    0.000    0.000    0.000    0.000    0.000 
#
# Total GULP energy -545226.445600 kJ/mol
# GULP energy per Si atom -12391.510127 kJ/mol
# Density = 2.035581 g / cm^3
# Si number density = 20.402243 Si / 1000 Ang^3
#
#
#
# Elastic Constant Matrix: (Units=GPa)
#
#
# Indices 1 2 3 4 5 6 
#
# 1 131.1737 32.5606 64.9064 0.0000 0.0000 0.0000
# 2 32.5606 69.8163 30.5727 0.0000 0.0000 0.0000
# 3 64.9064 30.5727 121.2169 0.0000 0.0000 0.0000
# 4 0.0000 0.0000 0.0000 27.8245 0.0000 0.0000
# 5 0.0000 0.0000 0.0000 0.0000 81.4744 0.0000
# 6 0.0000 0.0000 0.0000 0.0000 0.0000 23.0858
#
#
#
# Elastic Compliance Matrix: (Units=1/GPa)
#
#
# Indices 1 2 3 4 5 6 
#
# 1 0.010846 -0.002827 -0.005095 0.000000 0.000000 0.000000
# 2 -0.002827 0.016839 -0.002733 0.000000 0.000000 0.000000
# 3 -0.005095 -0.002733 0.011667 0.000000 0.000000 0.000000
# 4 0.000000 0.000000 0.000000 0.035940 0.000000 0.000000
# 5 0.000000 0.000000 0.000000 0.000000 0.012274 0.000000
# 6 0.000000 0.000000 0.000000 0.000000 0.000000 0.043317
#
#
# Mechanical properties :
#
#
# Convention : Reuss Voigt Hill
#
# Bulk Modulus (GPa) = 55.42683 64.25404 59.84044
# Shear Modulus (GPa) = 31.60444 39.42143 35.51293
#
# Velocity S-wave (km/s) = 3.94009 4.40046 4.17662
# Velocity P-wave (km/s) = 6.92279 7.57501 7.25623
#
# Compressibility (1/GPa) = 0.01804180
#
# Stress axis : x y z
#
# Youngs Moduli (GPa) = 92.19846 59.38686 85.71280
#
# Poissons Ratio (x) = 0.16792 0.43667
# Poissons Ratio (y) = 0.26069 0.23425
# Poissons Ratio (z) = 0.46971 0.16230
#
# Static dielectric constant tensor:
#      x y z
#    x 3.727040 0.000000 0.000000 
#    y 0.000000 3.805980 0.000000 
#    z 0.000000 0.000000 3.756840 
# 
# 
# High freq. dielectric constant tensor:
#      x y z
#    x 1.796220 0.000000 0.000000 
#    y 0.000000 1.794040 0.000000 
#    z 0.000000 0.000000 1.803660 
# 
# From -- ./inp_files/77846.got.cif
#   From: 2010.03.12/outbox.cif.g09.slc.cpg/sg65_39_cif.got.tgz:77846.got - 2010.04.10 20:52:16.
