data_PCOD8273106
_publ_section_title
;
Structure prediction by ZEFSAII (Michael W. Deem and Ramdas Pophale) SiO2 
 PCOD8273106
Probable space group: C M M M
;
_chemical_formula_sum "Si O2"
_cell_formula_units_Z 96
_cell_length_a 9.488924
_cell_length_b 26.580514
_cell_length_c 19.030887
_cell_angle_alpha 90.000000
_cell_angle_beta 90.000000
_cell_angle_gamma 90.000000
_cell_volume 4799.979401
_symmetry_space_group_name_H-M "C M M M"
_symmetry_group_IT_number 65
_symmetry_cell_setting 'orthorhombic'
loop_
_space_group_symop_operation_xyz
x,y,z
-x,-y,z
x,-y,-z
-x,y,-z
-x,-y,-z
x,y,-z
-x,y,z
x,-y,z
1/2+x,1/2+y,z
1/2-x,1/2-y,z
1/2+x,1/2-y,-z
1/2-x,1/2+y,-z
1/2-x,1/2-y,-z
1/2+x,1/2+y,-z
1/2-x,1/2+y,z
1/2+x,1/2-y,z
loop_
_atom_site_type_symbol
_atom_site_label
_atom_site_fract_x
_atom_site_fract_y
_atom_site_fract_z
Si Si1 0.338605 0.298614 0.286877
Si Si2 0.162213 0.442634 0.649708
Si Si3 0.341386 0.612031 0.076272
Si Si4 0.653688 0.791980 0.080240
Si Si5 0.837162 0.140524 0.421085
Si Si6 0.839631 0.905636 0.227011
O O1 0.500000 0.282268 0.282583
O O2 0.250000 0.250000 0.264523
O O3 0.297874 0.315450 0.366422
O O4 0.306647 0.345726 0.235054
O O5 0.173362 0.500000 0.624204
O O6 0.242489 0.408489 0.593195
O O7 0.233270 0.437884 0.726445
O O8 0.000000 0.425434 0.655266
O O9 0.500000 0.634978 0.079426
O O10 0.226483 0.654624 0.083325
O O11 0.320537 0.577105 0.145230
O O12 0.321309 0.584076 0.000000
O O13 0.500000 0.794794 0.117220
O O14 0.750000 0.750000 0.119119
O O15 0.632113 0.775013 0.000000
O O16 0.807609 0.159901 0.500000
O O17 0.000000 0.124730 0.410856
O O18 0.000000 0.915846 0.252402
#
# Coordination Sequence:
#
# PCOD8273106 Si02
#       6
#    16  16  16  16  16  16
#     4   9  18  32  49  71 101 138 179 216 248 288
#     4  10  21  36  55  80 107 134 167 209 256 306
#     4   9  17  30  48  69  93 122 160 210 266 316
#     4   9  16  25  37  55  82 117 156 196 240 293
#     4   9  19  36  56  79 108 140 175 213 251 299
#     4   9  19  35  53  74 101 134 173 215 258 310
#
# _framework density 20.000084999999999
#
# number of rings (size 3 to 8) (size 9 to 14) (size 15 to 20)
#    0.000    2.833    0.000    2.000    0.000    8.333 
#    0.000    3.333    0.000    0.500    0.000    3.500 
#    0.000    0.000    0.000    0.000    0.000    0.000 
#
# Total GULP energy -594807.835696 kJ/mol
# GULP energy per Si atom -12391.829910 kJ/mol
# Density = 1.995456 g / cm^3
# Si number density = 20.000085 Si / 1000 Ang^3
#
#
#
# Elastic Constant Matrix: (Units=GPa)
#
#
# Indices 1 2 3 4 5 6 
#
# 1 96.9844 18.1132 6.8082 0.0000 0.0000 0.0000
# 2 18.1132 38.8941 -8.9781 0.0000 0.0000 0.0000
# 3 6.8082 -8.9781 105.0240 0.0000 0.0000 0.0000
# 4 0.0000 0.0000 0.0000 10.2886 0.0000 0.0000
# 5 0.0000 0.0000 0.0000 0.0000 14.9023 0.0000
# 6 0.0000 0.0000 0.0000 0.0000 0.0000 28.7205
#
#
#
# Elastic Compliance Matrix: (Units=1/GPa)
#
#
# Indices 1 2 3 4 5 6 
#
# 1 0.011445 -0.005612 -0.001222 0.000000 0.000000 0.000000
# 2 -0.005612 0.028980 0.002841 0.000000 0.000000 0.000000
# 3 -0.001222 0.002841 0.009844 0.000000 0.000000 0.000000
# 4 0.000000 0.000000 0.000000 0.097195 0.000000 0.000000
# 5 0.000000 0.000000 0.000000 0.000000 0.067104 0.000000
# 6 0.000000 0.000000 0.000000 0.000000 0.000000 0.034818
#
#
# Mechanical properties :
#
#
# Convention : Reuss Voigt Hill
#
# Bulk Modulus (GPa) = 23.64962 30.30989 26.97975
# Shear Modulus (GPa) = 18.41856 25.77956 22.09906
#
# Velocity S-wave (km/s) = 3.03797 3.59412 3.32768
# Velocity P-wave (km/s) = 4.91488 5.69310 5.31824
#
# Compressibility (1/GPa) = 0.04228398
#
# Stress axis : x y z
#
# Youngs Moduli (GPa) = 87.37597 34.50633 101.58777
#
# Poissons Ratio (x) = 0.19365 0.12410
# Poissons Ratio (y) = 0.49034 -0.28863
# Poissons Ratio (z) = 0.10674 -0.09804
#
# Static dielectric constant tensor:
#      x y z
#    x 3.476530 0.000000 0.000000 
#    y 0.000000 3.088500 0.000000 
#    z 0.000000 0.000000 3.878730 
# 
# 
# High freq. dielectric constant tensor:
#      x y z
#    x 1.785080 0.000000 0.000000 
#    y 0.000000 1.730410 0.000000 
#    z 0.000000 0.000000 1.786230 
# 
# From -- ./inp_files/60144.got.cif
#   From: 2010.03.12/outbox.cif.g09.slc.cpg/sg65_31_cif.got.tgz:60144.got - 2010.04.10 20:52:16.
