data_PCOD8273847
_publ_section_title
;
Structure prediction by ZEFSAII (Michael W. Deem and Ramdas Pophale) SiO2 
 PCOD8273847
Probable space group: C M M M
;
_chemical_formula_sum "Si O2"
_cell_formula_units_Z 72
_cell_length_a 15.679593
_cell_length_b 8.893162
_cell_length_c 25.018134
_cell_angle_alpha 90.000000
_cell_angle_beta 90.000000
_cell_angle_gamma 90.000000
_cell_volume 3488.557642
_symmetry_space_group_name_H-M "C M M M"
_symmetry_group_IT_number 65
_symmetry_cell_setting 'orthorhombic'
loop_
_space_group_symop_operation_xyz
x,y,z
-x,-y,z
x,-y,-z
-x,y,-z
-x,-y,-z
x,y,-z
-x,y,z
x,-y,z
1/2+x,1/2+y,z
1/2-x,1/2-y,z
1/2+x,1/2-y,-z
1/2-x,1/2+y,-z
1/2-x,1/2-y,-z
1/2+x,1/2+y,-z
1/2-x,1/2+y,z
1/2+x,1/2-y,z
loop_
_atom_site_type_symbol
_atom_site_label
_atom_site_fract_x
_atom_site_fract_y
_atom_site_fract_z
Si Si1 0.341754 0.175834 0.159616
Si Si2 0.843259 0.824208 0.379672
Si Si3 0.000000 0.328527 0.563209
Si Si4 0.158898 0.825975 0.260745
Si Si5 0.599270 0.335085 0.058284
O O1 0.250000 0.250000 0.158479
O O2 0.392075 0.246119 0.211421
O O3 0.384577 0.211218 0.103197
O O4 0.337015 0.000000 0.167501
O O5 0.750000 0.750000 0.387786
O O6 0.913458 0.751826 0.417890
O O7 0.881364 0.802652 0.319452
O O8 0.833172 0.000000 0.393097
O O9 0.000000 0.500000 0.584016
O O10 0.000000 0.321389 0.500000
O O11 0.250000 0.750000 0.263938
O O12 0.167672 0.000000 0.246432
O O13 0.500000 0.353271 0.052018
O O14 0.637876 0.500000 0.073910
O O15 0.636700 0.284741 0.000000
#
# Coordination Sequence:
#
# PCOD8273847 Si02
#       5
#    16  16   8  16  16
#     4  11  21  33  53  80 110 142 179 225 278 332
#     4  10  21  39  65  93 123 163 206 251 307 363
#     4  11  25  43  63  91 127 165 208 257 302 351
#     4   9  17  32  55  82 112 146 184 228 281 340
#     4   9  19  37  57  74  98 136 179 225 279 336
#
# _framework density 20.638902999999999
#
# number of rings (size 3 to 8) (size 9 to 14) (size 15 to 20)
#    0.000    2.111    0.000    5.667    0.000    5.333 
#    2.000    1.111    0.000    0.000    0.000    0.000 
#    0.000    0.000    0.000    0.000    0.000    0.000 
#
# Total GULP energy -445983.524746 kJ/mol
# GULP energy per Si atom -12388.431243 kJ/mol
# Density = 2.059193 g / cm^3
# Si number density = 20.638903 Si / 1000 Ang^3
#
#
#
# Elastic Constant Matrix: (Units=GPa)
#
#
# Indices 1 2 3 4 5 6 
#
# 1 68.9851 43.3055 38.0988 0.0000 0.0000 0.0000
# 2 43.3055 170.8618 71.2829 0.0000 0.0000 0.0000
# 3 38.0988 71.2829 127.6908 0.0000 0.0000 0.0000
# 4 0.0000 0.0000 0.0000 36.7101 0.0000 0.0000
# 5 0.0000 0.0000 0.0000 0.0000 32.3513 0.0000
# 6 0.0000 0.0000 0.0000 0.0000 0.0000 22.8103
#
#
#
# Elastic Compliance Matrix: (Units=1/GPa)
#
#
# Indices 1 2 3 4 5 6 
#
# 1 0.018549 -0.003119 -0.003793 0.000000 0.000000 0.000000
# 2 -0.003119 0.008154 -0.003621 0.000000 0.000000 0.000000
# 3 -0.003793 -0.003621 0.010985 0.000000 0.000000 0.000000
# 4 0.000000 0.000000 0.000000 0.027240 0.000000 0.000000
# 5 0.000000 0.000000 0.000000 0.000000 0.030911 0.000000
# 6 0.000000 0.000000 0.000000 0.000000 0.000000 0.043840
#
#
# Mechanical properties :
#
#
# Convention : Reuss Voigt Hill
#
# Bulk Modulus (GPa) = 60.16616 74.76800 67.46708
# Shear Modulus (GPa) = 30.06880 32.69770 31.38325
#
# Velocity S-wave (km/s) = 3.82108 3.98461 3.90370
# Velocity P-wave (km/s) = 6.97729 7.58122 7.28552
#
# Compressibility (1/GPa) = 0.01662064
#
# Stress axis : x y z
#
# Youngs Moduli (GPa) = 53.91248 122.63986 91.03433
#
# Poissons Ratio (x) = 0.38247 0.34532
# Poissons Ratio (y) = 0.16813 0.32967
# Poissons Ratio (z) = 0.20451 0.44413
#
# Static dielectric constant tensor:
#      x y z
#    x 3.355030 0.000000 0.000000 
#    y 0.000000 -1.422630 0.000000 
#    z 0.000000 0.000000 5.524630 
# 
# 
# High freq. dielectric constant tensor:
#      x y z
#    x 1.770230 0.000000 0.000000 
#    y 0.000000 1.818060 0.000000 
#    z 0.000000 0.000000 1.829520 
# 
# From -- ./inp_files/70325.got.cif
#   From: 2010.03.12/outbox.cif.g09.slc.cpg/sg65_36_cif.got.tgz:70325.got - 2010.04.10 20:52:16.
