data_PCOD8273886
_publ_section_title
;
Structure prediction by ZEFSAII (Michael W. Deem and Ramdas Pophale) SiO2 
 PCOD8273886
Probable space group: C M M M
;
_chemical_formula_sum "Si O2"
_cell_formula_units_Z 96
_cell_length_a 14.264699
_cell_length_b 20.949560
_cell_length_c 14.990451
_cell_angle_alpha 90.000000
_cell_angle_beta 90.000000
_cell_angle_gamma 90.000000
_cell_volume 4479.733899
_symmetry_space_group_name_H-M "C M M M"
_symmetry_group_IT_number 65
_symmetry_cell_setting 'orthorhombic'
loop_
_space_group_symop_operation_xyz
x,y,z
-x,-y,z
x,-y,-z
-x,y,-z
-x,-y,-z
x,y,-z
-x,y,z
x,-y,z
1/2+x,1/2+y,z
1/2-x,1/2-y,z
1/2+x,1/2-y,-z
1/2-x,1/2+y,-z
1/2-x,1/2-y,-z
1/2+x,1/2+y,-z
1/2-x,1/2+y,z
1/2+x,1/2-y,z
loop_
_atom_site_type_symbol
_atom_site_label
_atom_site_fract_x
_atom_site_fract_y
_atom_site_fract_z
Si Si1 0.107079 0.926750 0.646301
Si Si2 0.297216 0.069707 0.905805
Si Si3 0.102104 0.903286 0.146812
Si Si4 0.603742 0.151837 0.764675
Si Si5 0.639777 0.740556 0.898559
Si Si6 0.267052 0.175280 0.399515
O O1 0.111698 0.923718 0.751728
O O2 0.176409 0.871600 0.608629
O O3 0.000000 0.912553 0.613591
O O4 0.135460 0.000000 0.617143
O O5 0.184627 0.063026 0.907273
O O6 0.331099 0.104334 0.818812
O O7 0.342439 0.000000 0.905791
O O8 0.326294 0.104244 0.000000
O O9 0.112426 0.828135 0.135973
O O10 0.000000 0.924699 0.110297
O O11 0.500000 0.123785 0.749074
O O12 0.592694 0.214577 0.824888
O O13 0.650843 0.157570 0.668547
O O14 0.750000 0.750000 0.895272
O O15 0.602775 0.752156 0.000000
O O16 0.305456 0.167537 0.500000
O O17 0.250000 0.250000 0.379712
#
# Coordination Sequence:
#
# PCOD8273886 Si02
#       6
#    16  16  16  16  16  16
#     4  10  21  40  70 104 137 177 222 268 328 406
#     4  11  24  41  61  88 126 171 218 266 317 377
#     4  11  21  35  60  94 132 169 205 256 321 387
#     4  12  25  42  65  90 122 169 222 273 322 377
#     4  11  21  36  60  91 130 172 216 266 319 378
#     4  11  25  45  69 100 136 172 214 272 343 409
#
# _framework density 21.429845
#
# number of rings (size 3 to 8) (size 9 to 14) (size 15 to 20)
#    0.000    1.000    3.333    3.500    0.000    7.667 
#    0.000    4.167    0.000    0.000    0.000    2.333 
#    0.000    0.000    0.000    0.000    0.000    0.000 
#
# Total GULP energy -594663.192353 kJ/mol
# GULP energy per Si atom -12388.816507 kJ/mol
# Density = 2.138107 g / cm^3
# Si number density = 21.429845 Si / 1000 Ang^3
#
#
#
# Elastic Constant Matrix: (Units=GPa)
#
#
# Indices 1 2 3 4 5 6 
#
# 1 124.1807 38.8144 48.2264 0.0000 0.0000 0.0000
# 2 38.8144 115.1125 37.2847 0.0000 0.0000 0.0000
# 3 48.2264 37.2847 128.2417 0.0000 0.0000 0.0000
# 4 0.0000 0.0000 0.0000 16.6845 0.0000 0.0000
# 5 0.0000 0.0000 0.0000 0.0000 86.0763 0.0000
# 6 0.0000 0.0000 0.0000 0.0000 0.0000 7.8613
#
#
#
# Elastic Compliance Matrix: (Units=1/GPa)
#
#
# Indices 1 2 3 4 5 6 
#
# 1 0.009985 -0.002374 -0.003065 0.000000 0.000000 0.000000
# 2 -0.002374 0.010155 -0.002060 0.000000 0.000000 0.000000
# 3 -0.003065 -0.002060 0.009549 0.000000 0.000000 0.000000
# 4 0.000000 0.000000 0.000000 0.059936 0.000000 0.000000
# 5 0.000000 0.000000 0.000000 0.000000 0.011618 0.000000
# 6 0.000000 0.000000 0.000000 0.000000 0.000000 0.127205
#
#
# Mechanical properties :
#
#
# Convention : Reuss Voigt Hill
#
# Bulk Modulus (GPa) = 68.06400 68.46509 68.26455
# Shear Modulus (GPa) = 20.13358 38.33839 29.23598
#
# Velocity S-wave (km/s) = 3.06847 4.23427 3.69760
# Velocity P-wave (km/s) = 6.66215 7.47818 7.08193
#
# Compressibility (1/GPa) = 0.01469205
#
# Stress axis : x y z
#
# Youngs Moduli (GPa) = 100.14967 98.47580 104.72218
#
# Poissons Ratio (x) = 0.23380 0.32094
# Poissons Ratio (y) = 0.23777 0.21568
# Poissons Ratio (z) = 0.30693 0.20282
#
# Static dielectric constant tensor:
#      x y z
#    x 3.974530 0.000000 0.000000 
#    y 0.000000 4.112390 0.000000 
#    z 0.000000 0.000000 3.944500 
# 
# 
# High freq. dielectric constant tensor:
#      x y z
#    x 1.835510 0.000000 0.000000 
#    y 0.000000 1.847150 0.000000 
#    z 0.000000 0.000000 1.843570 
# 
# From -- ./inp_files/40327.got.cif
#   From: 2010.03.12/outbox.cif.g09.slc.cpg/sg65_21_cif.got.tgz:40327.got - 2010.04.10 20:52:16.
