data_PCOD8273089
_publ_section_title
;
Structure prediction by ZEFSAII (Michael W. Deem and Ramdas Pophale) SiO2 
 PCOD8273089
Probable space group: C M M M
;
_chemical_formula_sum "Si O2"
_cell_formula_units_Z 112
_cell_length_a 23.314772
_cell_length_b 15.769214
_cell_length_c 14.157459
_cell_angle_alpha 90.000000
_cell_angle_beta 90.000000
_cell_angle_gamma 90.000000
_cell_volume 5205.069494
_symmetry_space_group_name_H-M "C M M M"
_symmetry_group_IT_number 65
_symmetry_cell_setting 'orthorhombic'
loop_
_space_group_symop_operation_xyz
x,y,z
-x,-y,z
x,-y,-z
-x,y,-z
-x,-y,-z
x,y,-z
-x,y,z
x,-y,z
1/2+x,1/2+y,z
1/2-x,1/2-y,z
1/2+x,1/2-y,-z
1/2-x,1/2+y,-z
1/2-x,1/2-y,-z
1/2+x,1/2+y,-z
1/2-x,1/2+y,z
1/2+x,1/2-y,z
loop_
_atom_site_type_symbol
_atom_site_label
_atom_site_fract_x
_atom_site_fract_y
_atom_site_fract_z
Si Si1 0.065530 0.350092 0.892579
Si Si2 0.139423 0.094961 0.610256
Si Si3 0.561809 0.343769 0.888049
Si Si4 0.565124 0.752780 0.612080
Si Si5 0.817897 0.096763 0.892812
Si Si6 0.753992 0.846240 0.278219
Si Si7 0.126269 0.405859 0.714990
O O1 0.070514 0.253346 0.857455
O O2 0.105625 0.404010 0.823739
O O3 0.000000 0.381525 0.885109
O O4 0.087701 0.361088 0.000000
O O5 0.149203 0.109901 0.500000
O O6 0.095998 0.166963 0.649817
O O7 0.200915 0.102476 0.659187
O O8 0.114875 0.000000 0.629486
O O9 0.500000 0.377433 0.848092
O O10 0.616705 0.396869 0.852019
O O11 0.558684 0.349353 0.000000
O O12 0.568193 0.757458 0.500000
O O13 0.500000 0.748976 0.648486
O O14 0.594044 0.837160 0.651850
O O15 0.774937 0.152902 0.830701
O O16 0.798162 0.000000 0.886613
O O17 0.815077 0.131180 0.000000
O O18 0.750000 0.750000 0.313872
O O19 0.693770 0.891621 0.289161
O O20 0.113200 0.500000 0.675033
#
# Coordination Sequence:
#
# PCOD8273089 Si02
#       7
#    16  16  16  16  16  16  16
#     4   9  19  37  59  84 118 161 212 267 316 366
#     4  10  22  43  71 100 129 160 200 256 316 376
#     4   8  15  30  53  79 109 152 204 255 313 375
#     4  10  23  44  69  98 130 164 205 252 310 380
#     4  10  21  36  54  82 123 165 209 263 315 366
#     4  12  24  42  65  88 124 170 215 264 312 372
#     4  12  25  40  61  92 129 171 216 262 312 368
#
# _framework density 21.517484
#
# number of rings (size 3 to 8) (size 9 to 14) (size 15 to 20)
#    0.000    1.857    1.429    3.429    0.000    4.000 
#    0.000    4.286    0.000    1.714    0.000    0.000 
#    0.000    0.000    0.000    0.000    0.000    0.143 
#
# Total GULP energy -694374.761592 kJ/mol
# GULP energy per Si atom -12399.549314 kJ/mol
# Density = 2.146851 g / cm^3
# Si number density = 21.517484 Si / 1000 Ang^3
#
#
#
# Elastic Constant Matrix: (Units=GPa)
#
#
# Indices 1 2 3 4 5 6 
#
# 1 141.6012 57.4162 32.3343 0.0000 0.0000 0.0000
# 2 57.4162 136.0284 31.2274 0.0000 0.0000 0.0000
# 3 32.3343 31.2274 34.4488 0.0000 0.0000 0.0000
# 4 0.0000 0.0000 0.0000 24.6983 0.0000 0.0000
# 5 0.0000 0.0000 0.0000 0.0000 29.0303 0.0000
# 6 0.0000 0.0000 0.0000 0.0000 0.0000 21.5255
#
#
#
# Elastic Compliance Matrix: (Units=1/GPa)
#
#
# Indices 1 2 3 4 5 6 
#
# 1 0.009623 -0.002511 -0.006756 0.000000 0.000000 0.000000
# 2 -0.002511 0.009938 -0.006652 0.000000 0.000000 0.000000
# 3 -0.006756 -0.006652 0.041400 0.000000 0.000000 0.000000
# 4 0.000000 0.000000 0.000000 0.040489 0.000000 0.000000
# 5 0.000000 0.000000 0.000000 0.000000 0.034447 0.000000
# 6 0.000000 0.000000 0.000000 0.000000 0.000000 0.046456
#
#
# Mechanical properties :
#
#
# Convention : Reuss Voigt Hill
#
# Bulk Modulus (GPa) = 34.33720 61.55934 47.94827
# Shear Modulus (GPa) = 22.33141 27.79086 25.06113
#
# Velocity S-wave (km/s) = 3.22503 3.59771 3.41645
# Velocity P-wave (km/s) = 5.46445 6.77710 6.15586
#
# Compressibility (1/GPa) = 0.02912293
#
# Stress axis : x y z
#
# Youngs Moduli (GPa) = 103.91849 100.62085 24.15431
#
# Poissons Ratio (x) = 0.25263 0.16319
# Poissons Ratio (y) = 0.26091 0.16068
# Poissons Ratio (z) = 0.70211 0.66936
#
# Static dielectric constant tensor:
#      x y z
#    x 4.921150 0.000000 0.000000 
#    y 0.000000 3.887900 0.000000 
#    z 0.000000 0.000000 3.823450 
# 
# 
# High freq. dielectric constant tensor:
#      x y z
#    x 1.845650 0.000000 0.000000 
#    y 0.000000 1.840330 0.000000 
#    z 0.000000 0.000000 1.841880 
# 
# From -- ./inp_files/45774.got.cif
#   From: 2010.03.12/outbox.cif.g09.slc.cpg/sg65_23_cif.got.tgz:45774.got - 2010.04.10 20:52:16.
