data_PCOD8273366
_publ_section_title
;
Structure prediction by ZEFSAII (Michael W. Deem and Ramdas Pophale) SiO2 
 PCOD8273366
Probable space group: C M M M
;
_chemical_formula_sum "Si O2"
_cell_formula_units_Z 64
_cell_length_a 18.059839
_cell_length_b 8.964480
_cell_length_c 22.135194
_cell_angle_alpha 90.000000
_cell_angle_beta 90.000000
_cell_angle_gamma 90.000000
_cell_volume 3583.622953
_symmetry_space_group_name_H-M "C M M M"
_symmetry_group_IT_number 65
_symmetry_cell_setting 'orthorhombic'
loop_
_space_group_symop_operation_xyz
x,y,z
-x,-y,z
x,-y,-z
-x,y,-z
-x,-y,-z
x,y,-z
-x,y,z
x,-y,z
1/2+x,1/2+y,z
1/2-x,1/2-y,z
1/2+x,1/2-y,-z
1/2-x,1/2+y,-z
1/2-x,1/2-y,-z
1/2+x,1/2+y,-z
1/2-x,1/2+y,z
1/2+x,1/2-y,z
loop_
_atom_site_type_symbol
_atom_site_label
_atom_site_fract_x
_atom_site_fract_y
_atom_site_fract_z
Si Si1 0.329031 0.675531 0.500000
Si Si2 0.586253 0.327404 0.619568
Si Si3 0.500000 0.324104 0.933869
Si Si4 0.671624 0.824626 0.724758
Si Si5 0.417416 0.330827 0.822251
O O1 0.318443 0.500000 0.500000
O O2 0.250000 0.750000 0.500000
O O3 0.373417 0.727559 0.559006
O O4 0.500000 0.300446 0.609636
O O5 0.603749 0.500000 0.633830
O O6 0.613640 0.227961 0.674800
O O7 0.500000 0.500000 0.942836
O O8 0.426920 0.283467 0.893459
O O9 0.500000 0.244694 0.000000
O O10 0.750000 0.750000 0.711858
O O11 0.640116 0.779204 0.790388
O O12 0.681796 0.000000 0.722042
O O13 0.500000 0.321980 0.792173
O O14 0.387234 0.500000 0.816278
#
# Coordination Sequence:
#
# PCOD8273366 Si02
#       5
#     8  16   8  16  16
#     4  10  21  37  57  81 107 140 177 216 264 318
#     4  10  21  38  59  80 106 138 176 219 267 321
#     4   7  12  26  53  85 111 138 173 210 253 309
#     4  12  24  36  52  75 106 141 180 223 269 317
#     4   8  16  31  53  79 108 138 171 210 257 309
#
# _framework density 17.859022
#
# number of rings (size 3 to 8) (size 9 to 14) (size 15 to 20)
#    0.750    1.625    0.000    4.125    0.000    8.500 
#    0.000    0.000    0.000    4.500    0.000    0.000 
#    0.000    0.000    0.000    0.000    0.000    0.000 
#
# Total GULP energy -396572.629362 kJ/mol
# GULP energy per Si atom -12392.894668 kJ/mol
# Density = 1.781837 g / cm^3
# Si number density = 17.859022 Si / 1000 Ang^3
#
#
#
# Elastic Constant Matrix: (Units=GPa)
#
#
# Indices 1 2 3 4 5 6 
#
# 1 90.7045 39.3637 46.5112 0.0000 0.0000 0.0000
# 2 39.3637 85.3258 42.2654 0.0000 0.0000 0.0000
# 3 46.5112 42.2654 130.8982 0.0000 0.0000 0.0000
# 4 0.0000 0.0000 0.0000 7.0545 0.0000 0.0000
# 5 0.0000 0.0000 0.0000 0.0000 12.8296 0.0000
# 6 0.0000 0.0000 0.0000 0.0000 0.0000 29.7626
#
#
#
# Elastic Compliance Matrix: (Units=1/GPa)
#
#
# Indices 1 2 3 4 5 6 
#
# 1 0.015172 -0.005153 -0.003727 0.000000 0.000000 0.000000
# 2 -0.005153 0.015701 -0.003239 0.000000 0.000000 0.000000
# 3 -0.003727 -0.003239 0.010010 0.000000 0.000000 0.000000
# 4 0.000000 0.000000 0.000000 0.141754 0.000000 0.000000
# 5 0.000000 0.000000 0.000000 0.000000 0.077945 0.000000
# 6 0.000000 0.000000 0.000000 0.000000 0.000000 0.033599
#
#
# Mechanical properties :
#
#
# Convention : Reuss Voigt Hill
#
# Bulk Modulus (GPa) = 60.07780 62.57879 61.32829
# Shear Modulus (GPa) = 15.43362 21.84854 18.64108
#
# Velocity S-wave (km/s) = 2.94290 3.50149 3.23428
# Velocity P-wave (km/s) = 6.72760 7.17383 6.95429
#
# Compressibility (1/GPa) = 0.01664508
#
# Stress axis : x y z
#
# Youngs Moduli (GPa) = 65.90892 63.68830 99.90392
#
# Poissons Ratio (x) = 0.32821 0.37236
# Poissons Ratio (y) = 0.33965 0.32356
# Poissons Ratio (z) = 0.24565 0.20627
#
# Static dielectric constant tensor:
#      x y z
#    x 3.178960 0.000000 0.000000 
#    y 0.000000 3.107650 0.000000 
#    z 0.000000 0.000000 3.628080 
# 
# 
# High freq. dielectric constant tensor:
#      x y z
#    x 1.681710 0.000000 0.000000 
#    y 0.000000 1.671420 0.000000 
#    z 0.000000 0.000000 1.693730 
# 
# From -- ./inp_files/63263.got.cif
#   From: 2010.03.12/outbox.cif.g09.slc.cpg/sg65_32_cif.got.tgz:63263.got - 2010.04.10 20:52:16.
