data_PCOD8273435
_publ_section_title
;
Structure prediction by ZEFSAII (Michael W. Deem and Ramdas Pophale) SiO2 
 PCOD8273435
Probable space group: C M M M
;
_chemical_formula_sum "Si O2"
_cell_formula_units_Z 80
_cell_length_a 17.809161
_cell_length_b 9.259754
_cell_length_c 26.033457
_cell_angle_alpha 90.000000
_cell_angle_beta 90.000000
_cell_angle_gamma 90.000000
_cell_volume 4293.137037
_symmetry_space_group_name_H-M "C M M M"
_symmetry_group_IT_number 65
_symmetry_cell_setting 'orthorhombic'
loop_
_space_group_symop_operation_xyz
x,y,z
-x,-y,z
x,-y,-z
-x,y,-z
-x,-y,-z
x,y,-z
-x,y,z
x,-y,z
1/2+x,1/2+y,z
1/2-x,1/2-y,z
1/2+x,1/2-y,-z
1/2-x,1/2+y,-z
1/2-x,1/2-y,-z
1/2+x,1/2+y,-z
1/2-x,1/2+y,z
1/2+x,1/2-y,z
loop_
_atom_site_type_symbol
_atom_site_label
_atom_site_fract_x
_atom_site_fract_y
_atom_site_fract_z
Si Si1 0.171383 0.171471 0.690220
Si Si2 0.582579 0.828032 0.000000
Si Si3 0.172489 0.331775 0.500000
Si Si4 0.914670 0.830800 0.792279
Si Si5 0.412019 0.834590 0.396965
Si Si6 0.089777 0.662069 0.890185
O O1 0.250000 0.250000 0.682780
O O2 0.136743 0.216634 0.744876
O O3 0.114900 0.226276 0.646923
O O4 0.181581 0.000000 0.685182
O O5 0.622668 0.782797 0.945907
O O6 0.500000 0.757276 0.000000
O O7 0.574858 0.000000 0.000000
O O8 0.190225 0.500000 0.500000
O O9 0.250000 0.250000 0.500000
O O10 0.125799 0.286772 0.549961
O O11 0.880395 0.760768 0.843886
O O12 0.000000 0.777118 0.782129
O O13 0.913176 0.000000 0.800531
O O14 0.500000 0.815909 0.404136
O O15 0.391284 0.000000 0.382615
O O16 0.117480 0.500000 0.878757
O O17 0.000000 0.667601 0.893551
#
# Coordination Sequence:
#
# PCOD8273435 Si02
#       6
#    16   8   8  16  16  16
#     4  11  23  38  55  76 104 137 174 217 264 312
#     4   7  10  18  33  57  90 123 154 193 241 289
#     4  10  21  37  57  83 115 148 179 214 256 300
#     4   9  18  32  48  68  97 130 162 202 254 306
#     4  10  21  38  60  84 110 141 177 216 258 306
#     4   8  13  22  39  63  91 124 161 199 240 292
#
# _framework density 18.634391999999998
#
# number of rings (size 3 to 8) (size 9 to 14) (size 15 to 20)
#    0.000    2.700    0.000    3.300    0.000    6.400 
#    0.000    2.500    0.000    4.800    0.000    0.700 
#    0.000    0.000    0.000    0.000    0.000    0.000 
#
# Total GULP energy -495784.368285 kJ/mol
# GULP energy per Si atom -12394.609207 kJ/mol
# Density = 1.859198 g / cm^3
# Si number density = 18.634392 Si / 1000 Ang^3
#
#
#
# Elastic Constant Matrix: (Units=GPa)
#
#
# Indices 1 2 3 4 5 6 
#
# 1 69.5059 27.9920 44.2434 0.0000 0.0000 0.0000
# 2 27.9920 49.9138 56.5054 0.0000 0.0000 0.0000
# 3 44.2434 56.5054 171.8686 0.0000 0.0000 0.0000
# 4 0.0000 0.0000 0.0000 -95.8430 0.0000 0.0000
# 5 0.0000 0.0000 0.0000 0.0000 -0.9736 0.0000
# 6 0.0000 0.0000 0.0000 0.0000 0.0000 20.9167
#
#
#
# Elastic Compliance Matrix: (Units=1/GPa)
#
#
# Indices 1 2 3 4 5 6 
#
# 1 0.019103 -0.008197 -0.002223 0.000000 0.000000 0.000000
# 2 -0.008197 0.035429 -0.009538 0.000000 0.000000 0.000000
# 3 -0.002223 -0.009538 0.009526 0.000000 0.000000 0.000000
# 4 0.000000 0.000000 0.000000 -0.010434 0.000000 0.000000
# 5 0.000000 0.000000 0.000000 0.000000 -1.027126 0.000000
# 6 0.000000 0.000000 0.000000 0.000000 0.000000 0.047809
#
#
# Mechanical properties :
#
#
# Convention : Reuss Voigt Hill
#
# Bulk Modulus (GPa) = 41.41923 60.97443 51.19683
# Shear Modulus (GPa) = -5.69651 -4.34347 -5.01999
#
# Velocity S-wave (km/s) = -1.75032 -1.52838 -1.64310
# Velocity P-wave (km/s) = 4.26506 5.44774 4.89227
#
# Compressibility (1/GPa) = 0.02414337
#
# Stress axis : x y z
#
# Youngs Moduli (GPa) = 52.34702 28.22556 104.97176
#
# Poissons Ratio (x) = 0.23136 0.23333
# Poissons Ratio (y) = 0.42909 1.00121
# Poissons Ratio (z) = 0.11635 0.26921
#
# Static dielectric constant tensor:
#      x y z
#    x 3.145550 0.000000 0.000000 
#    y 0.000000 3.360270 0.000000 
#    z 0.000000 0.000000 3.884270 
# 
# 
# High freq. dielectric constant tensor:
#      x y z
#    x 1.689200 0.000000 0.000000 
#    y 0.000000 1.707630 0.000000 
#    z 0.000000 0.000000 1.748160 
# 
# From -- ./inp_files/75125.got.cif
#   From: 2010.03.12/outbox.cif.g09.slc.cpg/sg65_38_cif.got.tgz:75125.got - 2010.04.10 20:52:16.
