data_PCOD8273483
_publ_section_title
;
Structure prediction by ZEFSAII (Michael W. Deem and Ramdas Pophale) SiO2 
 PCOD8273483
Probable space group: C M M M
;
_chemical_formula_sum "Si O2"
_cell_formula_units_Z 96
_cell_length_a 24.957766
_cell_length_b 23.443128
_cell_length_c 8.782795
_cell_angle_alpha 90.000000
_cell_angle_beta 90.000000
_cell_angle_gamma 90.000000
_cell_volume 5138.708865
_symmetry_space_group_name_H-M "C M M M"
_symmetry_group_IT_number 65
_symmetry_cell_setting 'orthorhombic'
loop_
_space_group_symop_operation_xyz
x,y,z
-x,-y,z
x,-y,-z
-x,y,-z
-x,-y,-z
x,y,-z
-x,y,z
x,-y,z
1/2+x,1/2+y,z
1/2-x,1/2-y,z
1/2+x,1/2-y,-z
1/2-x,1/2+y,-z
1/2-x,1/2-y,-z
1/2+x,1/2+y,-z
1/2-x,1/2+y,z
1/2+x,1/2-y,z
loop_
_atom_site_type_symbol
_atom_site_label
_atom_site_fract_x
_atom_site_fract_y
_atom_site_fract_z
Si Si1 0.181599 0.500000 0.678797
Si Si2 0.438892 0.798258 0.823487
Si Si3 0.847084 0.616256 0.178322
Si Si4 0.796233 0.000000 0.825713
Si Si5 0.155537 0.120309 0.176681
Si Si6 0.250790 0.816118 0.677078
Si Si7 0.938239 0.179668 0.677204
O O1 0.177257 0.500000 0.500000
O O2 0.151346 0.555450 0.740521
O O3 0.243890 0.500000 0.722323
O O4 0.500000 0.816483 0.789178
O O5 0.401054 0.850514 0.774966
O O6 0.421850 0.743544 0.725498
O O7 0.430784 0.782420 0.000000
O O8 0.795578 0.652441 0.225292
O O9 0.843643 0.605263 0.000000
O O10 0.832715 0.054360 0.789078
O O11 0.776358 0.000000 0.000000
O O12 0.193221 0.159512 0.279457
O O13 0.094938 0.133317 0.227098
O O14 0.164045 0.135079 0.000000
O O15 0.262561 0.826713 0.500000
O O16 0.250000 0.750000 0.719157
O O17 0.925881 0.172333 0.500000
O O18 0.000000 0.168336 0.716536
#
# Coordination Sequence:
#
# PCOD8273483 Si02
#       7
#     8  16  16   8  16  16  16
#     4  12  24  38  59  82 111 153 194 234 287 342
#     4   9  19  37  61  87 114 149 192 235 284 340
#     4  11  22  37  58  83 114 149 190 237 284 339
#     4  10  22  40  59  82 111 147 190 238 287 336
#     4  11  22  37  59  83 111 147 190 237 285 339
#     4  11  23  36  53  82 118 149 183 231 285 345
#     4  10  21  37  58  85 118 153 188 232 286 341
#
# _framework density 18.681736000000001
#
# number of rings (size 3 to 8) (size 9 to 14) (size 15 to 20)
#    0.000    1.500    1.667    3.750    0.000    7.000 
#    0.000    0.833    0.000    5.000    0.000    0.000 
#    0.000    0.000    0.000    0.000    0.000    0.000 
#
# Total GULP energy -595484.009975 kJ/mol
# GULP energy per Si atom -12405.916874 kJ/mol
# Density = 1.863922 g / cm^3
# Si number density = 18.681736 Si / 1000 Ang^3
#
#
#
# Elastic Constant Matrix: (Units=GPa)
#
#
# Indices 1 2 3 4 5 6 
#
# 1 91.8826 53.2155 26.2757 0.0000 0.0000 0.0000
# 2 53.2155 127.7733 44.7023 0.0000 0.0000 0.0000
# 3 26.2757 44.7023 64.4214 0.0000 0.0000 0.0000
# 4 0.0000 0.0000 0.0000 26.1491 0.0000 0.0000
# 5 0.0000 0.0000 0.0000 0.0000 27.3287 0.0000
# 6 0.0000 0.0000 0.0000 0.0000 0.0000 22.2049
#
#
#
# Elastic Compliance Matrix: (Units=1/GPa)
#
#
# Indices 1 2 3 4 5 6 
#
# 1 0.014595 -0.005277 -0.002291 0.000000 0.000000 0.000000
# 2 -0.005277 0.012243 -0.006343 0.000000 0.000000 0.000000
# 3 -0.002291 -0.006343 0.020859 0.000000 0.000000 0.000000
# 4 0.000000 0.000000 0.000000 0.038242 0.000000 0.000000
# 5 0.000000 0.000000 0.000000 0.000000 0.036592 0.000000
# 6 0.000000 0.000000 0.000000 0.000000 0.000000 0.045035
#
#
# Mechanical properties :
#
#
# Convention : Reuss Voigt Hill
#
# Bulk Modulus (GPa) = 50.31638 59.16270 54.73954
# Shear Modulus (GPa) = 24.75076 25.79548 25.27312
#
# Velocity S-wave (km/s) = 3.64382 3.71992 3.68207
# Velocity P-wave (km/s) = 6.68544 7.08434 6.88778
#
# Compressibility (1/GPa) = 0.01987424
#
# Stress axis : x y z
#
# Youngs Moduli (GPa) = 68.51705 81.67658 47.94091
#
# Poissons Ratio (x) = 0.43100 0.10984
# Poissons Ratio (y) = 0.36156 0.30411
# Poissons Ratio (z) = 0.15698 0.51811
#
# Static dielectric constant tensor:
#      x y z
#    x 3.497660 0.000000 0.000000 
#    y 0.000000 3.579180 0.000000 
#    z 0.000000 0.000000 3.487930 
# 
# 
# High freq. dielectric constant tensor:
#      x y z
#    x 1.724900 0.000000 0.000000 
#    y 0.000000 1.726940 0.000000 
#    z 0.000000 0.000000 1.735530 
# 
# From -- ./inp_files/14437.got.cif
#   From: 2010.03.12/outbox.cif.g09.slc.cpg/sg65_8_cif.got.tgz:14437.got - 2010.04.10 20:52:16.
