data_PCOD8273651
_publ_section_title
;
Structure prediction by ZEFSAII (Michael W. Deem and Ramdas Pophale) SiO2 
 PCOD8273651
Probable space group: C M M M
;
_chemical_formula_sum "Si O2"
_cell_formula_units_Z 88
_cell_length_a 28.292901
_cell_length_b 15.390745
_cell_length_c 10.311095
_cell_angle_alpha 90.000000
_cell_angle_beta 90.000000
_cell_angle_gamma 90.000000
_cell_volume 4489.954198
_symmetry_space_group_name_H-M "C M M M"
_symmetry_group_IT_number 65
_symmetry_cell_setting 'orthorhombic'
loop_
_space_group_symop_operation_xyz
x,y,z
-x,-y,z
x,-y,-z
-x,y,-z
-x,-y,-z
x,y,-z
-x,y,z
x,-y,z
1/2+x,1/2+y,z
1/2-x,1/2-y,z
1/2+x,1/2-y,-z
1/2-x,1/2+y,-z
1/2-x,1/2-y,-z
1/2+x,1/2+y,-z
1/2-x,1/2+y,z
1/2+x,1/2-y,z
loop_
_atom_site_type_symbol
_atom_site_label
_atom_site_fract_x
_atom_site_fract_y
_atom_site_fract_z
Si Si1 0.447606 0.897217 0.500000
Si Si2 0.195572 0.650148 0.646221
Si Si3 0.948005 0.757004 0.854122
Si Si4 0.697455 0.354998 0.647742
Si Si5 0.621171 0.597079 0.850314
Si Si6 0.602644 0.098935 0.241591
O O1 0.500000 0.856504 0.500000
O O2 0.419591 0.865173 0.374966
O O3 0.450334 0.000000 0.500000
O O4 0.182770 0.620754 0.500000
O O5 0.248422 0.619339 0.679172
O O6 0.190752 0.752672 0.660215
O O7 0.159424 0.604930 0.746777
O O8 0.916635 0.834161 0.791211
O O9 0.919699 0.665355 0.860776
O O10 0.000000 0.748445 0.786321
O O11 0.956591 0.786378 0.000000
O O12 0.684617 0.384367 0.500000
O O13 0.666435 0.402110 0.756194
O O14 0.599518 0.500000 0.845391
O O15 0.635514 0.620314 0.000000
O O16 0.588121 0.000000 0.206373
#
# Coordination Sequence:
#
# PCOD8273651 Si02
#       6
#     8  16  16  16  16  16
#     4   9  18  30  46  73 105 139 179 220 265 314
#     4   9  17  32  54  83 115 149 188 226 268 326
#     4  10  22  40  59  78 104 142 185 227 278 336
#     4   9  18  34  58  85 114 149 189 230 276 330
#     4  10  21  38  60  85 111 141 184 236 284 332
#     4  11  20  32  53  80 111 144 180 223 267 321
#
# _framework density 19.599309000000002
#
# number of rings (size 3 to 8) (size 9 to 14) (size 15 to 20)
#    0.000    2.273    2.727    1.636    0.000    2.909 
#    0.000    7.273    0.000    0.000    0.000    1.273 
#    0.000    0.000    0.000    0.000    0.000    0.000 
#
# Total GULP energy -545322.592373 kJ/mol
# GULP energy per Si atom -12393.695281 kJ/mol
# Density = 1.955470 g / cm^3
# Si number density = 19.599309 Si / 1000 Ang^3
#
#
#
# Elastic Constant Matrix: (Units=GPa)
#
#
# Indices 1 2 3 4 5 6 
#
# 1 133.3846 46.7623 34.6863 0.0000 0.0000 0.0000
# 2 46.7623 101.9616 18.5553 0.0000 0.0000 0.0000
# 3 34.6863 18.5553 54.6173 0.0000 0.0000 0.0000
# 4 0.0000 0.0000 0.0000 19.9363 0.0000 0.0000
# 5 0.0000 0.0000 0.0000 0.0000 26.2500 0.0000
# 6 0.0000 0.0000 0.0000 0.0000 0.0000 20.0842
#
#
#
# Elastic Compliance Matrix: (Units=1/GPa)
#
#
# Indices 1 2 3 4 5 6 
#
# 1 0.010145 -0.003710 -0.005183 0.000000 0.000000 0.000000
# 2 -0.003710 0.011810 -0.001656 0.000000 0.000000 0.000000
# 3 -0.005183 -0.001656 0.022163 0.000000 0.000000 0.000000
# 4 0.000000 0.000000 0.000000 0.050160 0.000000 0.000000
# 5 0.000000 0.000000 0.000000 0.000000 0.038095 0.000000
# 6 0.000000 0.000000 0.000000 0.000000 0.000000 0.049790
#
#
# Mechanical properties :
#
#
# Convention : Reuss Voigt Hill
#
# Bulk Modulus (GPa) = 43.43792 54.44125 48.93959
# Shear Modulus (GPa) = 23.70379 25.91807 24.81093
#
# Velocity S-wave (km/s) = 3.48144 3.64042 3.56182
# Velocity P-wave (km/s) = 6.19449 6.74594 6.47609
#
# Compressibility (1/GPa) = 0.02302136
#
# Stress axis : x y z
#
# Youngs Moduli (GPa) = 98.56593 84.67070 45.11924
#
# Poissons Ratio (x) = 0.31411 0.23385
# Poissons Ratio (y) = 0.36566 0.07473
# Poissons Ratio (z) = 0.51085 0.14025
#
# Static dielectric constant tensor:
#      x y z
#    x 3.852270 0.000000 0.000000 
#    y 0.000000 3.380080 0.000000 
#    z 0.000000 0.000000 3.402190 
# 
# 
# High freq. dielectric constant tensor:
#      x y z
#    x 1.767850 0.000000 0.000000 
#    y 0.000000 1.757470 0.000000 
#    z 0.000000 0.000000 1.733230 
# 
# From -- ./inp_files/32233.got.cif
#   From: 2010.03.12/outbox.cif.g09.slc.cpg/sg65_17_cif.got.tgz:32233.got - 2010.04.10 20:52:16.
