data_PCOD8273566
_publ_section_title
;
Structure prediction by ZEFSAII (Michael W. Deem and Ramdas Pophale) SiO2 
 PCOD8273566
Probable space group: C M M M
;
_chemical_formula_sum "Si O2"
_cell_formula_units_Z 88
_cell_length_a 22.041436
_cell_length_b 8.819327
_cell_length_c 23.993442
_cell_angle_alpha 90.000000
_cell_angle_beta 90.000000
_cell_angle_gamma 90.000000
_cell_volume 4664.100345
_symmetry_space_group_name_H-M "C M M M"
_symmetry_group_IT_number 65
_symmetry_cell_setting 'orthorhombic'
loop_
_space_group_symop_operation_xyz
x,y,z
-x,-y,z
x,-y,-z
-x,y,-z
-x,-y,-z
x,y,-z
-x,y,z
x,-y,z
1/2+x,1/2+y,z
1/2-x,1/2-y,z
1/2+x,1/2-y,-z
1/2-x,1/2+y,-z
1/2-x,1/2-y,-z
1/2+x,1/2+y,-z
1/2-x,1/2+y,z
1/2+x,1/2-y,z
loop_
_atom_site_type_symbol
_atom_site_label
_atom_site_fract_x
_atom_site_fract_y
_atom_site_fract_z
Si Si1 0.070421 0.669692 0.755413
Si Si2 0.601235 0.675183 0.864169
Si Si3 0.686901 0.821583 0.435531
Si Si4 0.687662 0.825926 0.060029
Si Si5 0.931907 0.319511 0.370013
Si Si6 0.500000 0.821676 0.937695
O O1 0.097543 0.500000 0.760171
O O2 0.102718 0.779289 0.799289
O O3 0.080311 0.734559 0.693216
O O4 0.000000 0.666090 0.770503
O O5 0.584255 0.500000 0.868915
O O6 0.665093 0.716608 0.890656
O O7 0.557390 0.773681 0.902208
O O8 0.680185 0.777942 0.500000
O O9 0.750000 0.750000 0.411788
O O10 0.625009 0.757398 0.406498
O O11 0.691703 0.000000 0.425836
O O12 0.750000 0.750000 0.045387
O O13 0.691889 0.000000 0.080877
O O14 0.651236 0.821652 0.000000
O O15 0.933388 0.500000 0.372580
O O16 0.000000 0.261986 0.389451
O O17 0.500000 0.000000 0.942752
O O18 0.500000 0.749220 0.000000
#
# Coordination Sequence:
#
# PCOD8273566 Si02
#       6
#    16  16  16  16  16   8
#     4   9  17  32  53  72  97 135 175 215 262 314
#     4  12  23  34  52  78 106 134 168 212 259 313
#     4   9  17  30  50  77 110 144 177 217 267 323
#     4  10  21  38  58  77  99 130 168 210 258 314
#     4   8  15  29  51  78 102 133 182 230 270 313
#     4  11  23  37  53  75 103 135 170 209 258 313
#
# _framework density 18.867518
#
# number of rings (size 3 to 8) (size 9 to 14) (size 15 to 20)
#    0.000    2.273    0.909    4.091    0.000    4.364 
#    0.000    3.636    0.000    3.818    0.000    2.545 
#    0.000    0.000    0.000    0.000    0.000    0.000 
#
# Total GULP energy -545098.304111 kJ/mol
# GULP energy per Si atom -12388.597821 kJ/mol
# Density = 1.882457 g / cm^3
# Si number density = 18.867518 Si / 1000 Ang^3
#
#
#
# Elastic Constant Matrix: (Units=GPa)
#
#
# Indices 1 2 3 4 5 6 
#
# 1 110.8984 20.9887 63.1987 0.0000 0.0000 0.0000
# 2 20.9887 58.9245 27.8611 0.0000 0.0000 0.0000
# 3 63.1987 27.8611 105.5445 0.0000 0.0000 0.0000
# 4 0.0000 0.0000 0.0000 15.5706 0.0000 0.0000
# 5 0.0000 0.0000 0.0000 0.0000 45.0807 0.0000
# 6 0.0000 0.0000 0.0000 0.0000 0.0000 20.1066
#
#
#
# Elastic Compliance Matrix: (Units=1/GPa)
#
#
# Indices 1 2 3 4 5 6 
#
# 1 0.013756 -0.001149 -0.007934 0.000000 0.000000 0.000000
# 2 -0.001149 0.019487 -0.004456 0.000000 0.000000 0.000000
# 3 -0.007934 -0.004456 0.015402 0.000000 0.000000 0.000000
# 4 0.000000 0.000000 0.000000 0.064224 0.000000 0.000000
# 5 0.000000 0.000000 0.000000 0.000000 0.022182 0.000000
# 6 0.000000 0.000000 0.000000 0.000000 0.000000 0.049735
#
#
# Mechanical properties :
#
#
# Convention : Reuss Voigt Hill
#
# Bulk Modulus (GPa) = 46.36623 55.49605 50.93114
# Shear Modulus (GPa) = 22.82564 27.03951 24.93257
#
# Velocity S-wave (km/s) = 3.48197 3.78977 3.63913
# Velocity P-wave (km/s) = 6.38698 6.97332 6.68658
#
# Compressibility (1/GPa) = 0.02156742
#
# Stress axis : x y z
#
# Youngs Moduli (GPa) = 72.69633 51.31614 64.92826
#
# Poissons Ratio (x) = 0.05894 0.51512
# Poissons Ratio (y) = 0.08350 0.28934
# Poissons Ratio (z) = 0.57675 0.22868
#
# Static dielectric constant tensor:
#      x y z
#    x 3.678590 0.000000 0.000000 
#    y 0.000000 3.183950 0.000000 
#    z 0.000000 0.000000 3.560890 
# 
# 
# High freq. dielectric constant tensor:
#      x y z
#    x 1.724960 0.000000 0.000000 
#    y 0.000000 1.708630 0.000000 
#    z 0.000000 0.000000 1.732170 
# 
# From -- ./inp_files/70976.got.cif
#   From: 2010.03.12/outbox.cif.g09.slc.cpg/sg65_36_cif.got.tgz:70976.got - 2010.04.10 20:52:16.
