data_PCOD8273424
_publ_section_title
;
Structure prediction by ZEFSAII (Michael W. Deem and Ramdas Pophale) SiO2 
 PCOD8273424
Probable space group: C M M M
;
_chemical_formula_sum "Si O2"
_cell_formula_units_Z 104
_cell_length_a 7.636142
_cell_length_b 30.518598
_cell_length_c 20.984157
_cell_angle_alpha 90.000000
_cell_angle_beta 90.000000
_cell_angle_gamma 90.000000
_cell_volume 4890.239186
_symmetry_space_group_name_H-M "C M M M"
_symmetry_group_IT_number 65
_symmetry_cell_setting 'orthorhombic'
loop_
_space_group_symop_operation_xyz
x,y,z
-x,-y,z
x,-y,-z
-x,y,-z
-x,-y,-z
x,y,-z
-x,y,z
x,-y,z
1/2+x,1/2+y,z
1/2-x,1/2-y,z
1/2+x,1/2-y,-z
1/2-x,1/2+y,-z
1/2-x,1/2-y,-z
1/2+x,1/2+y,-z
1/2-x,1/2+y,z
1/2+x,1/2-y,z
loop_
_atom_site_type_symbol
_atom_site_label
_atom_site_fract_x
_atom_site_fract_y
_atom_site_fract_z
Si Si1 0.211741 0.385998 0.363967
Si Si2 0.295368 0.796947 0.570585
Si Si3 0.701076 0.122357 0.220490
Si Si4 0.702972 0.953225 0.863832
Si Si5 0.703684 0.702012 0.136256
Si Si6 0.206050 0.924242 0.000000
Si Si7 0.500000 0.552027 0.575836
Si Si8 0.791689 0.826043 0.000000
O O1 0.274964 0.339335 0.392330
O O2 0.277750 0.381761 0.291158
O O3 0.322173 0.425294 0.396673
O O4 0.000000 0.394133 0.371736
O O5 0.209730 0.797126 0.500000
O O6 0.500000 0.802149 0.566029
O O7 0.250000 0.750000 0.604081
O O8 0.500000 0.110917 0.226808
O O9 0.795512 0.086311 0.174841
O O10 0.718160 0.169816 0.188896
O O11 0.500000 0.953080 0.847441
O O12 0.725200 0.949142 0.938895
O O13 0.785064 0.000000 0.842662
O O14 0.500000 0.692853 0.133182
O O15 0.750000 0.750000 0.161174
O O16 0.783917 0.696103 0.064745
O O17 0.280564 0.875180 0.000000
O O18 0.000000 0.923424 0.000000
O O19 0.500000 0.500000 0.593647
O O20 0.500000 0.558083 0.500000
O O21 0.000000 0.823449 0.000000
#
# Coordination Sequence:
#
# PCOD8273424 Si02
#       8
#    16  16  16  16  16   8   8   8
#     4  10  23  43  67  96 137 178 217 269 328 390
#     4   9  18  33  57  91 126 163 205 250 309 375
#     4  10  22  40  61  87 119 161 208 253 310 378
#     4  10  21  37  57  82 113 150 194 247 309 373
#     4  11  22  38  59  84 119 162 210 267 320 378
#     4  11  20  35  56  82 112 144 192 254 313 367
#     4  11  26  46  72 106 136 173 229 277 324 389
#     4   9  19  35  55  79 112 153 203 263 327 375
#
# _framework density 21.266855
#
# number of rings (size 3 to 8) (size 9 to 14) (size 15 to 20)
#    0.000    1.923    1.538    1.615    2.154    3.692 
#    0.000    5.000    0.000    0.000    0.000    0.000 
#    0.000    0.000    0.000    0.000    0.000    0.000 
#
# Total GULP energy -644415.003455 kJ/mol
# GULP energy per Si atom -12392.596220 kJ/mol
# Density = 2.121845 g / cm^3
# Si number density = 21.266855 Si / 1000 Ang^3
#
#
#
# Elastic Constant Matrix: (Units=GPa)
#
#
# Indices 1 2 3 4 5 6 
#
# 1 47.4727 23.1961 21.1709 0.0000 0.0000 0.0000
# 2 23.1961 200.2350 82.4026 0.0000 0.0000 0.0000
# 3 21.1709 82.4026 151.2874 0.0000 0.0000 0.0000
# 4 0.0000 0.0000 0.0000 22.0376 0.0000 0.0000
# 5 0.0000 0.0000 0.0000 0.0000 9.0911 0.0000
# 6 0.0000 0.0000 0.0000 0.0000 0.0000 26.4035
#
#
#
# Elastic Compliance Matrix: (Units=1/GPa)
#
#
# Indices 1 2 3 4 5 6 
#
# 1 0.022918 -0.001721 -0.002270 0.000000 0.000000 0.000000
# 2 -0.001721 0.006566 -0.003336 0.000000 0.000000 0.000000
# 3 -0.002270 -0.003336 0.008744 0.000000 0.000000 0.000000
# 4 0.000000 0.000000 0.000000 0.045377 0.000000 0.000000
# 5 0.000000 0.000000 0.000000 0.000000 0.109997 0.000000
# 6 0.000000 0.000000 0.000000 0.000000 0.000000 0.037874
#
#
# Mechanical properties :
#
#
# Convention : Reuss Voigt Hill
#
# Bulk Modulus (GPa) = 42.41616 72.50381 57.45998
# Shear Modulus (GPa) = 19.68600 29.65481 24.67040
#
# Velocity S-wave (km/s) = 3.04578 3.73824 3.40963
# Velocity P-wave (km/s) = 5.68832 7.26629 6.52518
#
# Compressibility (1/GPa) = 0.02357592
#
# Stress axis : x y z
#
# Youngs Moduli (GPa) = 43.63418 152.29530 114.35875
#
# Poissons Ratio (x) = 0.26207 0.25957
# Poissons Ratio (y) = 0.07509 0.38146
# Poissons Ratio (z) = 0.09904 0.50800
#
# Static dielectric constant tensor:
#      x y z
#    x 3.614960 0.000000 0.000000 
#    y 0.000000 4.208940 0.000000 
#    z 0.000000 0.000000 4.098910 
# 
# 
# High freq. dielectric constant tensor:
#      x y z
#    x 1.819170 0.000000 0.000000 
#    y 0.000000 1.847010 0.000000 
#    z 0.000000 0.000000 1.828170 
# 
# From -- ./inp_files/60478.got.cif
#   From: 2010.03.12/outbox.cif.g09.slc.cpg/sg65_31_cif.got.tgz:60478.got - 2010.04.10 20:52:16.
