data_PCOD8273298
_publ_section_title
;
Structure prediction by ZEFSAII (Michael W. Deem and Ramdas Pophale) SiO2 
 PCOD8273298
Probable space group: C M M M
;
_chemical_formula_sum "Si O2"
_cell_formula_units_Z 120
_cell_length_a 9.047228
_cell_length_b 29.161409
_cell_length_c 25.208351
_cell_angle_alpha 90.000000
_cell_angle_beta 90.000000
_cell_angle_gamma 90.000000
_cell_volume 6650.717127
_symmetry_space_group_name_H-M "C M M M"
_symmetry_group_IT_number 65
_symmetry_cell_setting 'orthorhombic'
loop_
_space_group_symop_operation_xyz
x,y,z
-x,-y,z
x,-y,-z
-x,y,-z
-x,-y,-z
x,y,-z
-x,y,z
x,-y,z
1/2+x,1/2+y,z
1/2-x,1/2-y,z
1/2+x,1/2-y,-z
1/2-x,1/2+y,-z
1/2-x,1/2-y,-z
1/2+x,1/2+y,-z
1/2-x,1/2+y,z
1/2+x,1/2-y,z
loop_
_atom_site_type_symbol
_atom_site_label
_atom_site_fract_x
_atom_site_fract_y
_atom_site_fract_z
Si Si1 0.169131 0.637103 0.059529
Si Si2 0.326520 0.947507 0.604978
Si Si3 0.333837 0.445539 0.500000
Si Si4 0.173798 0.613796 0.704369
Si Si5 0.331298 0.551820 0.909268
Si Si6 0.173604 0.797473 0.260716
Si Si7 0.327844 0.703414 0.861710
Si Si8 0.667690 0.552278 0.785085
O O1 0.220105 0.584301 0.058999
O O2 0.271623 0.663223 0.100930
O O3 0.000000 0.640759 0.078086
O O4 0.187690 0.656951 0.000000
O O5 0.500000 0.945007 0.595032
O O6 0.247885 0.927661 0.552600
O O7 0.276768 0.915298 0.653237
O O8 0.278166 0.000000 0.617305
O O9 0.329673 0.500000 0.500000
O O10 0.500000 0.426368 0.500000
O O11 0.258079 0.662270 0.703482
O O12 0.217251 0.584977 0.756029
O O13 0.000000 0.623144 0.705398
O O14 0.500000 0.564459 0.923546
O O15 0.296655 0.500000 0.926757
O O16 0.304545 0.557924 0.846998
O O17 0.250000 0.750000 0.277458
O O18 0.207894 0.808827 0.199202
O O19 0.000000 0.793447 0.271551
O O20 0.500000 0.710131 0.870935
O O21 0.250000 0.750000 0.879405
O O22 0.500000 0.567072 0.770730
O O23 0.695536 0.500000 0.767346
#
# Coordination Sequence:
#
# PCOD8273298 Si02
#       8
#    16  16   8  16  16  16  16  16
#     4  11  24  38  52  74 102 129 160 201 248 297
#     4   9  18  32  48  69 103 145 182 214 251 296
#     4   9  17  29  47  71  98 133 180 227 263 295
#     4  11  21  31  48  76 107 138 172 209 251 300
#     4   9  19  36  55  73  95 128 169 207 246 295
#     4  10  21  37  56  78 103 131 165 205 250 300
#     4  10  21  38  60  81 101 128 161 198 245 302
#     4   9  18  32  49  71 101 134 166 203 248 297
#
# _framework density 18.043168000000001
#
# number of rings (size 3 to 8) (size 9 to 14) (size 15 to 20)
#    0.000    2.200    0.000    3.800    0.000    9.867 
#    0.000    4.000    0.000    0.000    0.000    0.467 
#    0.000    0.000    0.000    0.000    0.000    0.000 
#
# Total GULP energy -744157.591009 kJ/mol
# GULP energy per Si atom -12402.626517 kJ/mol
# Density = 1.800210 g / cm^3
# Si number density = 18.043168 Si / 1000 Ang^3
#
#
#
# Elastic Constant Matrix: (Units=GPa)
#
#
# Indices 1 2 3 4 5 6 
#
# 1 80.5308 47.4234 38.1869 0.0000 0.0000 0.0000
# 2 47.4234 98.4717 44.5403 0.0000 0.0000 0.0000
# 3 38.1869 44.5403 65.9288 0.0000 0.0000 0.0000
# 4 0.0000 0.0000 0.0000 17.4750 0.0000 0.0000
# 5 0.0000 0.0000 0.0000 0.0000 24.6686 0.0000
# 6 0.0000 0.0000 0.0000 0.0000 0.0000 34.3513
#
#
#
# Elastic Compliance Matrix: (Units=1/GPa)
#
#
# Indices 1 2 3 4 5 6 
#
# 1 0.019390 -0.006132 -0.007088 0.000000 0.000000 0.000000
# 2 -0.006132 0.016563 -0.007638 0.000000 0.000000 0.000000
# 3 -0.007088 -0.007638 0.024434 0.000000 0.000000 0.000000
# 4 0.000000 0.000000 0.000000 0.057225 0.000000 0.000000
# 5 0.000000 0.000000 0.000000 0.000000 0.040537 0.000000
# 6 0.000000 0.000000 0.000000 0.000000 0.000000 0.029111
#
#
# Mechanical properties :
#
#
# Convention : Reuss Voigt Hill
#
# Bulk Modulus (GPa) = 53.56148 56.13693 54.84921
# Shear Modulus (GPa) = 21.25858 22.95103 22.10480
#
# Velocity S-wave (km/s) = 3.43623 3.57039 3.50395
# Velocity P-wave (km/s) = 6.74486 6.94097 6.84362
#
# Compressibility (1/GPa) = 0.01867013
#
# Stress axis : x y z
#
# Youngs Moduli (GPa) = 51.57366 60.37518 40.92724
#
# Poissons Ratio (x) = 0.37021 0.29010
# Poissons Ratio (y) = 0.31624 0.31261
# Poissons Ratio (z) = 0.36557 0.46115
#
# Static dielectric constant tensor:
#      x y z
#    x 3.354910 0.000000 0.000000 
#    y 0.000000 3.333550 0.000000 
#    z 0.000000 0.000000 3.217080 
# 
# 
# High freq. dielectric constant tensor:
#      x y z
#    x 1.705720 0.000000 0.000000 
#    y 0.000000 1.690360 0.000000 
#    z 0.000000 0.000000 1.681610 
# 
# From -- ./inp_files/73874.got.cif
#   From: 2010.03.12/outbox.cif.g09.slc.cpg/sg65_37_cif.got.tgz:73874.got - 2010.04.10 20:52:16.
