data_PCOD8273753
_publ_section_title
;
Structure prediction by ZEFSAII (Michael W. Deem and Ramdas Pophale) SiO2 
 PCOD8273753
Probable space group: C M M M
;
_chemical_formula_sum "Si O2"
_cell_formula_units_Z 64
_cell_length_a 16.363310
_cell_length_b 22.063230
_cell_length_c 8.918682
_cell_angle_alpha 90.000000
_cell_angle_beta 90.000000
_cell_angle_gamma 90.000000
_cell_volume 3219.889217
_symmetry_space_group_name_H-M "C M M M"
_symmetry_group_IT_number 65
_symmetry_cell_setting 'orthorhombic'
loop_
_space_group_symop_operation_xyz
x,y,z
-x,-y,z
x,-y,-z
-x,y,-z
-x,-y,-z
x,y,-z
-x,y,z
x,-y,z
1/2+x,1/2+y,z
1/2-x,1/2-y,z
1/2+x,1/2-y,-z
1/2-x,1/2+y,-z
1/2-x,1/2-y,-z
1/2+x,1/2+y,-z
1/2-x,1/2+y,z
1/2+x,1/2-y,z
loop_
_atom_site_type_symbol
_atom_site_label
_atom_site_fract_x
_atom_site_fract_y
_atom_site_fract_z
Si Si1 0.000000 0.428906 0.832712
Si Si2 0.638148 0.140442 0.324956
Si Si3 0.326395 0.382616 0.675731
Si Si4 0.595386 0.500000 0.176578
Si Si5 0.654048 0.738703 0.830845
O O1 0.919097 0.410330 0.744399
O O2 0.000000 0.500000 0.842769
O O3 0.000000 0.400625 0.000000
O O4 0.622294 0.146324 0.500000
O O5 0.730217 0.120077 0.289887
O O6 0.612908 0.204658 0.252368
O O7 0.344842 0.385213 0.500000
O O8 0.363223 0.441099 0.753938
O O9 0.369110 0.322810 0.743801
O O10 0.500000 0.500000 0.216726
O O11 0.610756 0.500000 0.000000
O O12 0.750000 0.750000 0.828738
O O13 0.620485 0.733912 0.000000
#
# Coordination Sequence:
#
# PCOD8273753 Si02
#       5
#     8  16  16   8  16
#     4  11  25  41  57  85 123 162 203 248 293 345
#     4  10  21  38  61  89 121 157 198 244 295 352
#     4  10  21  38  63  91 119 155 197 243 298 358
#     4  11  25  43  61  86 119 154 197 247 298 355
#     4   9  17  33  59  89 119 152 193 241 291 347
#
# _framework density 19.876460000000002
#
# number of rings (size 3 to 8) (size 9 to 14) (size 15 to 20)
#    0.000    2.000    0.000    3.000    1.750    8.000 
#    2.250    0.000    0.000    0.000    0.000    0.000 
#    0.000    0.000    0.000    0.000    0.000    0.000 
#
# Total GULP energy -396890.782809 kJ/mol
# GULP energy per Si atom -12402.836963 kJ/mol
# Density = 1.983122 g / cm^3
# Si number density = 19.876460 Si / 1000 Ang^3
#
#
#
# Elastic Constant Matrix: (Units=GPa)
#
#
# Indices 1 2 3 4 5 6 
#
# 1 67.3576 53.0218 62.5315 0.0000 0.0000 0.0000
# 2 53.0218 162.0365 81.3416 0.0000 0.0000 0.0000
# 3 62.5315 81.3416 150.0389 0.0000 0.0000 0.0000
# 4 0.0000 0.0000 0.0000 39.9840 0.0000 0.0000
# 5 0.0000 0.0000 0.0000 0.0000 23.7421 0.0000
# 6 0.0000 0.0000 0.0000 0.0000 0.0000 26.1239
#
#
#
# Elastic Compliance Matrix: (Units=1/GPa)
#
#
# Indices 1 2 3 4 5 6 
#
# 1 0.026180 -0.004245 -0.008610 0.000000 0.000000 0.000000
# 2 -0.004245 0.009167 -0.003201 0.000000 0.000000 0.000000
# 3 -0.008610 -0.003201 0.011989 0.000000 0.000000 0.000000
# 4 0.000000 0.000000 0.000000 0.025010 0.000000 0.000000
# 5 0.000000 0.000000 0.000000 0.000000 0.042119 0.000000
# 6 0.000000 0.000000 0.000000 0.000000 0.000000 0.038279
#
#
# Mechanical properties :
#
#
# Convention : Reuss Voigt Hill
#
# Bulk Modulus (GPa) = 65.68015 85.91365 75.79690
# Shear Modulus (GPa) = 26.32536 30.13919 28.23228
#
# Velocity S-wave (km/s) = 3.64325 3.89823 3.77289
# Velocity P-wave (km/s) = 7.12836 7.97366 7.56283
#
# Compressibility (1/GPa) = 0.01522530
#
# Stress axis : x y z
#
# Youngs Moduli (GPa) = 38.19639 109.08465 83.41233
#
# Poissons Ratio (x) = 0.46302 0.71818
# Poissons Ratio (y) = 0.16213 0.26699
# Poissons Ratio (z) = 0.32887 0.34916
#
# Static dielectric constant tensor:
#      x y z
#    x 3.436260 0.000000 0.000000 
#    y 0.000000 3.750790 0.000000 
#    z 0.000000 0.000000 3.859000 
# 
# 
# High freq. dielectric constant tensor:
#      x y z
#    x 1.756080 0.000000 0.000000 
#    y 0.000000 1.787520 0.000000 
#    z 0.000000 0.000000 1.795190 
# 
# From -- ./inp_files/8830.got.cif
#   From: 2010.03.12/outbox.cif.g09.slc.cpg/sg65_5_cif.got.tgz:8830.got - 2010.04.10 20:52:16.
