data_PCOD8273008
_publ_section_title
;
Structure prediction by ZEFSAII (Michael W. Deem and Ramdas Pophale) SiO2 
 PCOD8273008
Probable space group: C M M M
;
_chemical_formula_sum "Si O2"
_cell_formula_units_Z 80
_cell_length_a 17.717946
_cell_length_b 27.150740
_cell_length_c 9.082444
_cell_angle_alpha 90.000000
_cell_angle_beta 90.000000
_cell_angle_gamma 90.000000
_cell_volume 4369.158233
_symmetry_space_group_name_H-M "C M M M"
_symmetry_group_IT_number 65
_symmetry_cell_setting 'orthorhombic'
loop_
_space_group_symop_operation_xyz
x,y,z
-x,-y,z
x,-y,-z
-x,y,-z
-x,-y,-z
x,y,-z
-x,y,z
x,-y,z
1/2+x,1/2+y,z
1/2-x,1/2-y,z
1/2+x,1/2-y,-z
1/2-x,1/2+y,-z
1/2-x,1/2-y,-z
1/2+x,1/2+y,-z
1/2-x,1/2+y,z
1/2+x,1/2-y,z
loop_
_atom_site_type_symbol
_atom_site_label
_atom_site_fract_x
_atom_site_fract_y
_atom_site_fract_z
Si Si1 0.150590 0.303118 0.333010
Si Si2 0.587058 0.288879 0.827340
Si Si3 0.695744 0.357765 0.670692
Si Si4 0.774300 0.556155 0.830935
Si Si5 0.585492 0.907176 0.669592
O O1 0.140115 0.283802 0.500000
O O2 0.129999 0.260281 0.221221
O O3 0.236749 0.318930 0.305624
O O4 0.096084 0.349156 0.301311
O O5 0.500000 0.284879 0.781688
O O6 0.621338 0.336588 0.747528
O O7 0.597815 0.295619 0.000000
O O8 0.679360 0.366732 0.500000
O O9 0.716347 0.410194 0.741064
O O10 0.747531 0.500000 0.813699
O O11 0.859467 0.560975 0.770746
O O12 0.774040 0.573058 0.000000
O O13 0.605300 0.918818 0.500000
O O14 0.500000 0.922017 0.707999
#
# Coordination Sequence:
#
# PCOD8273008 Si02
#       5
#    16  16  16  16  16
#     4   9  18  33  52  75 104 139 178 213 247 293
#     4  11  23  35  50  77 110 140 170 207 254 306
#     4  10  21  37  57  78 101 134 175 216 256 301
#     4  10  21  36  54  76 102 133 169 213 266 316
#     4   9  18  32  50  74 106 143 180 217 254 294
#
# _framework density 18.310162999999999
#
# number of rings (size 3 to 8) (size 9 to 14) (size 15 to 20)
#    0.000    2.200    0.000    4.200    0.000   11.200 
#    0.000    2.000    0.000    0.600    0.000    4.200 
#    0.000    0.000    0.000    0.000    0.000    0.000 
#
# Total GULP energy -496152.851924 kJ/mol
# GULP energy per Si atom -12403.821298 kJ/mol
# Density = 1.826849 g / cm^3
# Si number density = 18.310163 Si / 1000 Ang^3
#
#
#
# Elastic Constant Matrix: (Units=GPa)
#
#
# Indices 1 2 3 4 5 6 
#
# 1 52.9365 36.3742 43.1087 0.0000 0.0000 0.0000
# 2 36.3742 86.0458 55.6987 0.0000 0.0000 0.0000
# 3 43.1087 55.6987 112.3644 0.0000 0.0000 0.0000
# 4 0.0000 0.0000 0.0000 29.1133 0.0000 0.0000
# 5 0.0000 0.0000 0.0000 0.0000 30.4938 0.0000
# 6 0.0000 0.0000 0.0000 0.0000 0.0000 12.5757
#
#
#
# Elastic Compliance Matrix: (Units=1/GPa)
#
#
# Indices 1 2 3 4 5 6 
#
# 1 0.030727 -0.007890 -0.007877 0.000000 0.000000 0.000000
# 2 -0.007890 0.019139 -0.006460 0.000000 0.000000 0.000000
# 3 -0.007877 -0.006460 0.015124 0.000000 0.000000 0.000000
# 4 0.000000 0.000000 0.000000 0.034349 0.000000 0.000000
# 5 0.000000 0.000000 0.000000 0.000000 0.032794 0.000000
# 6 0.000000 0.000000 0.000000 0.000000 0.000000 0.079519
#
#
# Mechanical properties :
#
#
# Convention : Reuss Voigt Hill
#
# Bulk Modulus (GPa) = 48.69777 57.96779 53.33278
# Shear Modulus (GPa) = 19.01501 22.18090 20.59795
#
# Velocity S-wave (km/s) = 3.22606 3.48429 3.35766
# Velocity P-wave (km/s) = 6.36635 6.92204 6.65000
#
# Compressibility (1/GPa) = 0.02053482
#
# Stress axis : x y z
#
# Youngs Moduli (GPa) = 32.54473 52.25007 66.12029
#
# Poissons Ratio (x) = 0.41226 0.52085
# Poissons Ratio (y) = 0.25678 0.42713
# Poissons Ratio (z) = 0.25637 0.33753
#
# Static dielectric constant tensor:
#      x y z
#    x 3.378430 0.000000 0.000000 
#    y 0.000000 3.222780 0.000000 
#    z 0.000000 0.000000 3.418220 
# 
# 
# High freq. dielectric constant tensor:
#      x y z
#    x 1.696230 0.000000 0.000000 
#    y 0.000000 1.701290 0.000000 
#    z 0.000000 0.000000 1.717660 
# 
# From -- ./inp_files/9578.got.cif
#   From: 2010.03.12/outbox.cif.g09.slc.cpg/sg65_5_cif.got.tgz:9578.got - 2010.04.10 20:52:16.
