data_PCOD8273738
_publ_section_title
;
Structure prediction by ZEFSAII (Michael W. Deem and Ramdas Pophale) SiO2 
 PCOD8273738
Probable space group: C M M M
;
_chemical_formula_sum "Si O2"
_cell_formula_units_Z 72
_cell_length_a 15.285166
_cell_length_b 9.564598
_cell_length_c 23.585953
_cell_angle_alpha 90.000000
_cell_angle_beta 90.000000
_cell_angle_gamma 90.000000
_cell_volume 3448.183027
_symmetry_space_group_name_H-M "C M M M"
_symmetry_group_IT_number 65
_symmetry_cell_setting 'orthorhombic'
loop_
_space_group_symop_operation_xyz
x,y,z
-x,-y,z
x,-y,-z
-x,y,-z
-x,-y,-z
x,y,-z
-x,y,z
x,-y,z
1/2+x,1/2+y,z
1/2-x,1/2-y,z
1/2+x,1/2-y,-z
1/2-x,1/2+y,-z
1/2-x,1/2-y,-z
1/2+x,1/2+y,-z
1/2-x,1/2+y,z
1/2+x,1/2-y,z
loop_
_atom_site_type_symbol
_atom_site_label
_atom_site_fract_x
_atom_site_fract_y
_atom_site_fract_z
Si Si1 0.332128 0.833386 0.365820
Si Si2 0.902410 0.500000 0.099531
Si Si3 0.345956 0.724427 0.152959
Si Si4 0.500000 0.165166 0.563183
Si Si5 0.706878 0.500000 0.935765
Si Si6 0.099201 0.152921 0.727987
O O1 0.250000 0.750000 0.392244
O O2 0.413744 0.785842 0.403885
O O3 0.345639 0.776389 0.301548
O O4 0.317656 0.000000 0.364637
O O5 0.898719 0.364188 0.138854
O O6 0.813919 0.500000 0.061144
O O7 0.000000 0.500000 0.069056
O O8 0.250000 0.750000 0.178223
O O9 0.333813 0.633765 0.095712
O O10 0.397390 0.651650 0.203652
O O11 0.500000 0.230626 0.500000
O O12 0.500000 0.000000 0.559279
O O13 0.672156 0.500000 0.000000
O O14 0.000000 0.174933 0.709233
O O15 0.132726 0.000000 0.707200
#
# Coordination Sequence:
#
# PCOD8273738 Si02
#       6
#    16   8  16   8   8  16
#     4  11  23  40  65  99 134 175 226 268 326 386
#     4  10  22  37  58  91 123 150 196 254 312 381
#     4  10  21  38  61  88 118 159 203 250 315 381
#     4   9  20  42  67  95 139 185 225 270 318 377
#     4  10  22  43  65  82 114 161 211 253 309 389
#     4  11  22  37  61  90 128 166 206 270 323 385
#
# _framework density 20.880562999999999
#
# number of rings (size 3 to 8) (size 9 to 14) (size 15 to 20)
#    0.000    1.667    2.222    2.000    1.556    4.667 
#    0.000    0.000    0.000    9.333    0.000    0.000 
#    0.000    0.000    0.000    0.000    0.000    0.000 
#
# Total GULP energy -446135.192917 kJ/mol
# GULP energy per Si atom -12392.644248 kJ/mol
# Density = 2.083304 g / cm^3
# Si number density = 20.880563 Si / 1000 Ang^3
#
#
#
# Elastic Constant Matrix: (Units=GPa)
#
#
# Indices 1 2 3 4 5 6 
#
# 1 115.9938 59.6300 49.4728 0.0000 0.0000 0.0000
# 2 59.6300 134.5927 41.9896 0.0000 0.0000 0.0000
# 3 49.4728 41.9896 123.5202 0.0000 0.0000 0.0000
# 4 0.0000 0.0000 0.0000 11.6707 0.0000 0.0000
# 5 0.0000 0.0000 0.0000 0.0000 19.4472 0.0000
# 6 0.0000 0.0000 0.0000 0.0000 0.0000 12.0057
#
#
#
# Elastic Compliance Matrix: (Units=1/GPa)
#
#
# Indices 1 2 3 4 5 6 
#
# 1 0.012354 -0.004396 -0.003454 0.000000 0.000000 0.000000
# 2 -0.004396 0.009875 -0.001596 0.000000 0.000000 0.000000
# 3 -0.003454 -0.001596 0.010022 0.000000 0.000000 0.000000
# 4 0.000000 0.000000 0.000000 0.085684 0.000000 0.000000
# 5 0.000000 0.000000 0.000000 0.000000 0.051421 0.000000
# 6 0.000000 0.000000 0.000000 0.000000 0.000000 0.083294
#
#
# Mechanical properties :
#
#
# Convention : Reuss Voigt Hill
#
# Bulk Modulus (GPa) = 74.85454 75.14349 74.99902
# Shear Modulus (GPa) = 18.11621 23.49235 20.80428
#
# Velocity S-wave (km/s) = 2.94872 3.35786 3.15992
# Velocity P-wave (km/s) = 6.89348 7.14836 7.02208
#
# Compressibility (1/GPa) = 0.01335924
#
# Stress axis : x y z
#
# Youngs Moduli (GPa) = 80.94518 101.26161 99.78213
#
# Poissons Ratio (x) = 0.44513 0.34462
# Poissons Ratio (y) = 0.35582 0.15929
# Poissons Ratio (z) = 0.27956 0.16166
#
# Static dielectric constant tensor:
#      x y z
#    x 3.921080 0.000000 0.000000 
#    y 0.000000 3.774100 0.000000 
#    z 0.000000 0.000000 3.487610 
# 
# 
# High freq. dielectric constant tensor:
#      x y z
#    x 1.826870 0.000000 0.000000 
#    y 0.000000 1.818980 0.000000 
#    z 0.000000 0.000000 1.793550 
# 
# From -- ./inp_files/74660.got.cif
#   From: 2010.03.12/outbox.cif.g09.slc.cpg/sg65_38_cif.got.tgz:74660.got - 2010.04.10 20:52:16.
