data_PCOD8273606
_publ_section_title
;
Structure prediction by ZEFSAII (Michael W. Deem and Ramdas Pophale) SiO2 
 PCOD8273606
Probable space group: C M M M
;
_chemical_formula_sum "Si O2"
_cell_formula_units_Z 64
_cell_length_a 17.538124
_cell_length_b 24.814162
_cell_length_c 7.383811
_cell_angle_alpha 90.000000
_cell_angle_beta 90.000000
_cell_angle_gamma 90.000000
_cell_volume 3213.389138
_symmetry_space_group_name_H-M "C M M M"
_symmetry_group_IT_number 65
_symmetry_cell_setting 'orthorhombic'
loop_
_space_group_symop_operation_xyz
x,y,z
-x,-y,z
x,-y,-z
-x,y,-z
-x,-y,-z
x,y,-z
-x,y,z
x,-y,z
1/2+x,1/2+y,z
1/2-x,1/2-y,z
1/2+x,1/2-y,-z
1/2-x,1/2+y,-z
1/2-x,1/2-y,-z
1/2+x,1/2+y,-z
1/2-x,1/2+y,z
1/2+x,1/2-y,z
loop_
_atom_site_type_symbol
_atom_site_label
_atom_site_fract_x
_atom_site_fract_y
_atom_site_fract_z
Si Si1 0.584659 0.147611 0.214661
Si Si2 0.704363 0.938813 0.207805
Si Si3 0.661336 0.257667 0.788890
Si Si4 0.410925 0.331887 0.500000
Si Si5 0.169443 0.060805 0.500000
O O1 0.500000 0.140605 0.296662
O O2 0.637657 0.099210 0.285780
O O3 0.618575 0.204272 0.280286
O O4 0.581645 0.146030 0.000000
O O5 0.780427 0.929404 0.321284
O O6 0.675082 0.000000 0.227708
O O7 0.723955 0.924344 0.000000
O O8 0.750000 0.250000 0.746867
O O9 0.628293 0.307892 0.679096
O O10 0.646788 0.269171 0.000000
O O11 0.500000 0.318974 0.500000
O O12 0.399019 0.396413 0.500000
O O13 0.135796 0.000000 0.500000
#
# Coordination Sequence:
#
# PCOD8273606 Si02
#       5
#    16  16  16   8   8
#     4   9  17  30  50  78 112 145 176 217 270 320
#     4   9  18  34  56  79 105 142 184 222 263 315
#     4  10  21  38  59  82 112 149 188 229 270 321
#     4  12  25  38  58  86 112 143 182 225 280 339
#     4  10  22  40  59  79 104 135 179 230 273 323
#
# _framework density 19.916667
#
# number of rings (size 3 to 8) (size 9 to 14) (size 15 to 20)
#    0.000    2.250    0.000    2.625    0.000    6.250 
#    0.000    4.375    0.000    2.250    0.000    5.250 
#    0.000    0.000    0.000    0.000    0.000    0.000 
#
# Total GULP energy -396842.907934 kJ/mol
# GULP energy per Si atom -12401.340873 kJ/mol
# Density = 1.987134 g / cm^3
# Si number density = 19.916667 Si / 1000 Ang^3
#
#
#
# Elastic Constant Matrix: (Units=GPa)
#
#
# Indices 1 2 3 4 5 6 
#
# 1 95.3849 45.7750 35.9501 0.0000 0.0000 0.0000
# 2 45.7750 124.8392 35.3782 0.0000 0.0000 0.0000
# 3 35.9501 35.3782 83.6222 0.0000 0.0000 0.0000
# 4 0.0000 0.0000 0.0000 19.5926 0.0000 0.0000
# 5 0.0000 0.0000 0.0000 0.0000 -554.5925 0.0000
# 6 0.0000 0.0000 0.0000 0.0000 0.0000 32.5129
#
#
#
# Elastic Compliance Matrix: (Units=1/GPa)
#
#
# Indices 1 2 3 4 5 6 
#
# 1 0.014000 -0.003895 -0.004371 0.000000 0.000000 0.000000
# 2 -0.003895 0.010185 -0.002635 0.000000 0.000000 0.000000
# 3 -0.004371 -0.002635 0.014952 0.000000 0.000000 0.000000
# 4 0.000000 0.000000 0.000000 0.051040 0.000000 0.000000
# 5 0.000000 0.000000 0.000000 0.000000 -0.001803 0.000000
# 6 0.000000 0.000000 0.000000 0.000000 0.000000 0.030757
#
#
# Mechanical properties :
#
#
# Convention : Reuss Voigt Hill
#
# Bulk Modulus (GPa) = 57.68096 59.78365 58.73230
# Shear Modulus (GPa) = 34.08053 -88.04787 -26.98367
#
# Velocity S-wave (km/s) = 4.14110 -6.65613 -3.68479
# Velocity P-wave (km/s) = 7.20340 5.38424 3.38370
#
# Compressibility (1/GPa) = 0.01733674
#
# Stress axis : x y z
#
# Youngs Moduli (GPa) = 71.42652 98.18322 66.87906
#
# Poissons Ratio (x) = 0.38241 0.29234
# Poissons Ratio (y) = 0.27819 0.17620
# Poissons Ratio (z) = 0.31221 0.25867
#
# Static dielectric constant tensor:
#      x y z
#    x 3.565590 0.000000 0.000000 
#    y 0.000000 3.740160 0.000000 
#    z 0.000000 0.000000 3.563410 
# 
# 
# High freq. dielectric constant tensor:
#      x y z
#    x 1.761820 0.000000 0.000000 
#    y 0.000000 1.783370 0.000000 
#    z 0.000000 0.000000 1.779030 
# 
# From -- ./inp_files/6776.got.cif
#   From: 2010.03.12/outbox.cif.g09.slc.cpg/sg65_4_cif.got.tgz:6776.got - 2010.04.10 20:52:16.
