data_PCOD8273410
_publ_section_title
;
Structure prediction by ZEFSAII (Michael W. Deem and Ramdas Pophale) SiO2 
 PCOD8273410
Probable space group: C M M M
;
_chemical_formula_sum "Si O2"
_cell_formula_units_Z 72
_cell_length_a 20.665803
_cell_length_b 9.037583
_cell_length_c 19.976696
_cell_angle_alpha 90.000000
_cell_angle_beta 90.000000
_cell_angle_gamma 90.000000
_cell_volume 3731.025735
_symmetry_space_group_name_H-M "C M M M"
_symmetry_group_IT_number 65
_symmetry_cell_setting 'orthorhombic'
loop_
_space_group_symop_operation_xyz
x,y,z
-x,-y,z
x,-y,-z
-x,y,-z
-x,-y,-z
x,y,-z
-x,y,z
x,-y,z
1/2+x,1/2+y,z
1/2-x,1/2-y,z
1/2+x,1/2-y,-z
1/2-x,1/2+y,-z
1/2-x,1/2-y,-z
1/2+x,1/2+y,-z
1/2-x,1/2+y,z
1/2+x,1/2-y,z
loop_
_atom_site_type_symbol
_atom_site_label
_atom_site_fract_x
_atom_site_fract_y
_atom_site_fract_z
Si Si1 0.426739 0.673888 0.795819
Si Si2 0.923220 0.333943 0.927048
Si Si3 0.870304 0.325783 0.577535
Si Si4 0.000000 0.164790 0.578624
Si Si5 0.186607 0.824287 0.302667
O O1 0.500000 0.732658 0.780119
O O2 0.427964 0.500000 0.802276
O O3 0.398447 0.733558 0.866166
O O4 0.377368 0.724364 0.738084
O O5 0.897487 0.500000 0.915577
O O6 0.000000 0.332385 0.927289
O O7 0.898480 0.275458 0.000000
O O8 0.855503 0.290783 0.500000
O O9 0.871223 0.500000 0.591149
O O10 0.816987 0.244632 0.622647
O O11 0.938184 0.257002 0.601353
O O12 0.000000 0.144176 0.500000
O O13 0.000000 0.000000 0.612503
O O14 0.250000 0.750000 0.268774
O O15 0.194619 0.000000 0.306340
#
# Coordination Sequence:
#
# PCOD8273410 Si02
#       5
#    16  16  16   8  16
#     4   9  19  35  55  81 110 142 181 224 271 324
#     4   8  14  26  47  78 113 144 175 215 264 317
#     4  10  21  37  57  82 110 140 181 231 280 334
#     4   9  17  31  53  81 111 141 172 213 270 327
#     4  11  24  40  58  79 109 147 186 230 282 338
#
# _framework density 19.297640999999999
#
# number of rings (size 3 to 8) (size 9 to 14) (size 15 to 20)
#    0.000    2.556    0.000    2.333    1.556    5.333 
#    0.000    2.222    0.000    0.667    0.000    0.000 
#    0.000    0.000    0.000    0.000    0.000    0.000 
#
# Total GULP energy -446211.674694 kJ/mol
# GULP energy per Si atom -12394.768742 kJ/mol
# Density = 1.925372 g / cm^3
# Si number density = 19.297641 Si / 1000 Ang^3
#
#
#
# Elastic Constant Matrix: (Units=GPa)
#
#
# Indices 1 2 3 4 5 6 
#
# 1 91.3701 43.2486 52.9758 0.0000 0.0000 0.0000
# 2 43.2486 74.4221 49.9143 0.0000 0.0000 0.0000
# 3 52.9758 49.9143 114.8048 0.0000 0.0000 0.0000
# 4 0.0000 0.0000 0.0000 32.3157 0.0000 0.0000
# 5 0.0000 0.0000 0.0000 0.0000 9.7761 0.0000
# 6 0.0000 0.0000 0.0000 0.0000 0.0000 28.9785
#
#
#
# Elastic Compliance Matrix: (Units=1/GPa)
#
#
# Indices 1 2 3 4 5 6 
#
# 1 0.016900 -0.006480 -0.004981 0.000000 0.000000 0.000000
# 2 -0.006480 0.021453 -0.006337 0.000000 0.000000 0.000000
# 3 -0.004981 -0.006337 0.013764 0.000000 0.000000 0.000000
# 4 0.000000 0.000000 0.000000 0.030945 0.000000 0.000000
# 5 0.000000 0.000000 0.000000 0.000000 0.102290 0.000000
# 6 0.000000 0.000000 0.000000 0.000000 0.000000 0.034508
#
#
# Mechanical properties :
#
#
# Convention : Reuss Voigt Hill
#
# Bulk Modulus (GPa) = 60.53072 63.65272 62.09172
# Shear Modulus (GPa) = 19.15988 23.17795 21.16891
#
# Velocity S-wave (km/s) = 3.15439 3.46942 3.31565
# Velocity P-wave (km/s) = 6.68595 7.00753 6.84862
#
# Compressibility (1/GPa) = 0.01652054
#
# Stress axis : x y z
#
# Youngs Moduli (GPa) = 59.17286 46.61395 72.65387
#
# Poissons Ratio (x) = 0.30207 0.36187
# Poissons Ratio (y) = 0.38346 0.46040
# Poissons Ratio (z) = 0.29473 0.29539
#
# Static dielectric constant tensor:
#      x y z
#    x 3.494780 0.000000 0.000000 
#    y 0.000000 3.535710 0.000000 
#    z 0.000000 0.000000 3.828050 
# 
# 
# High freq. dielectric constant tensor:
#      x y z
#    x 1.721760 0.000000 0.000000 
#    y 0.000000 1.751040 0.000000 
#    z 0.000000 0.000000 1.750200 
# 
# From -- ./inp_files/64300.got.cif
#   From: 2010.03.12/outbox.cif.g09.slc.cpg/sg65_33_cif.got.tgz:64300.got - 2010.04.10 20:52:16.
