data_PCOD8273612
_publ_section_title
;
Structure prediction by ZEFSAII (Michael W. Deem and Ramdas Pophale) SiO2 
 PCOD8273612
Probable space group: C M M M
;
_chemical_formula_sum "Si O2"
_cell_formula_units_Z 96
_cell_length_a 18.748529
_cell_length_b 8.721001
_cell_length_c 30.361587
_cell_angle_alpha 90.000000
_cell_angle_beta 90.000000
_cell_angle_gamma 90.000000
_cell_volume 4964.299827
_symmetry_space_group_name_H-M "C M M M"
_symmetry_group_IT_number 65
_symmetry_cell_setting 'orthorhombic'
loop_
_space_group_symop_operation_xyz
x,y,z
-x,-y,z
x,-y,-z
-x,y,-z
-x,-y,-z
x,y,-z
-x,y,z
x,-y,z
1/2+x,1/2+y,z
1/2-x,1/2-y,z
1/2+x,1/2-y,-z
1/2-x,1/2+y,-z
1/2-x,1/2-y,-z
1/2+x,1/2+y,-z
1/2-x,1/2+y,z
1/2+x,1/2-y,z
loop_
_atom_site_type_symbol
_atom_site_label
_atom_site_fract_x
_atom_site_fract_y
_atom_site_fract_z
Si Si1 0.917186 0.824706 0.870413
Si Si2 0.828351 0.180545 0.297304
Si Si3 0.824880 0.179081 0.551225
Si Si4 0.582446 0.180738 0.623522
Si Si5 0.825416 0.818671 0.048859
Si Si6 0.582750 0.821471 0.220367
O O1 0.880464 0.759784 0.914458
O O2 0.894192 0.720831 0.829156
O O3 0.000000 0.810730 0.879778
O O4 0.894958 0.000000 0.860398
O O5 0.750000 0.250000 0.297704
O O6 0.873160 0.240387 0.338254
O O7 0.868700 0.223811 0.252726
O O8 0.821280 0.000000 0.300814
O O9 0.837819 0.212135 0.500000
O O10 0.750000 0.250000 0.567074
O O11 0.889279 0.260408 0.576618
O O12 0.823778 0.000000 0.562145
O O13 0.500000 0.227834 0.628158
O O14 0.592508 0.000000 0.626993
O O15 0.750000 0.750000 0.061935
O O16 0.819937 0.000000 0.049539
O O17 0.849302 0.762355 0.000000
O O18 0.500000 0.778636 0.228449
O O19 0.596472 0.000000 0.228867
#
# Coordination Sequence:
#
# PCOD8273612 Si02
#       6
#    16  16  16  16  16  16
#     4   9  18  33  53  77 105 139 180 223 268 321
#     4  12  25  41  62  86 114 147 186 231 278 331
#     4  10  21  38  61  88 119 155 195 239 285 334
#     4  11  24  41  61  86 118 154 191 233 282 335
#     4   9  18  32  50  73 102 137 176 220 270 322
#     4  10  21  38  59  83 113 146 181 224 275 330
#
# _framework density 19.338073999999999
#
# number of rings (size 3 to 8) (size 9 to 14) (size 15 to 20)
#    0.000    1.833    0.000    4.000    0.000    7.333 
#    0.000    5.000    0.000    0.000    0.000    4.667 
#    0.000    0.000    0.000    0.000    0.000    0.000 
#
# Total GULP energy -595359.335541 kJ/mol
# GULP energy per Si atom -12403.319490 kJ/mol
# Density = 1.929406 g / cm^3
# Si number density = 19.338074 Si / 1000 Ang^3
#
#
#
# Elastic Constant Matrix: (Units=GPa)
#
#
# Indices 1 2 3 4 5 6 
#
# 1 120.7857 59.4218 80.7976 0.0000 0.0000 0.0000
# 2 59.4218 90.5108 48.3320 0.0000 0.0000 0.0000
# 3 80.7976 48.3320 124.1652 0.0000 0.0000 0.0000
# 4 0.0000 0.0000 0.0000 30.7227 0.0000 0.0000
# 5 0.0000 0.0000 0.0000 0.0000 55.2682 0.0000
# 6 0.0000 0.0000 0.0000 0.0000 0.0000 33.3479
#
#
#
# Elastic Compliance Matrix: (Units=1/GPa)
#
#
# Indices 1 2 3 4 5 6 
#
# 1 0.017453 -0.006809 -0.008707 0.000000 0.000000 0.000000
# 2 -0.006809 0.016604 -0.002032 0.000000 0.000000 0.000000
# 3 -0.008707 -0.002032 0.014511 0.000000 0.000000 0.000000
# 4 0.000000 0.000000 0.000000 0.032549 0.000000 0.000000
# 5 0.000000 0.000000 0.000000 0.000000 0.018094 0.000000
# 6 0.000000 0.000000 0.000000 0.000000 0.000000 0.029987
#
#
# Mechanical properties :
#
#
# Convention : Reuss Voigt Hill
#
# Bulk Modulus (GPa) = 74.23134 79.17384 76.70259
# Shear Modulus (GPa) = 29.62367 33.66178 31.64273
#
# Velocity S-wave (km/s) = 3.91817 4.17670 4.04950
# Velocity P-wave (km/s) = 7.67717 8.01814 7.84950
#
# Compressibility (1/GPa) = 0.01347140
#
# Stress axis : x y z
#
# Youngs Moduli (GPa) = 57.29646 60.22703 68.91494
#
# Poissons Ratio (x) = 0.41008 0.60003
# Poissons Ratio (y) = 0.39013 0.14006
# Poissons Ratio (z) = 0.49887 0.12241
#
# Static dielectric constant tensor:
#      x y z
#    x 3.596810 0.000000 0.000000 
#    y 0.000000 3.593760 0.000000 
#    z 0.000000 0.000000 3.804150 
# 
# 
# High freq. dielectric constant tensor:
#      x y z
#    x 1.752160 0.000000 0.000000 
#    y 0.000000 1.757940 0.000000 
#    z 0.000000 0.000000 1.767510 
# 
# From -- ./inp_files/75397.got.cif
#   From: 2010.03.12/outbox.cif.g09.slc.cpg/sg65_38_cif.got.tgz:75397.got - 2010.04.10 20:52:16.
