data_PCOD8273137
_publ_section_title
;
Structure prediction by ZEFSAII (Michael W. Deem and Ramdas Pophale) SiO2 
 PCOD8273137
Probable space group: C M M M
;
_chemical_formula_sum "Si O2"
_cell_formula_units_Z 72
_cell_length_a 28.350135
_cell_length_b 9.726456
_cell_length_c 13.722110
_cell_angle_alpha 90.000000
_cell_angle_beta 90.000000
_cell_angle_gamma 90.000000
_cell_volume 3783.821619
_symmetry_space_group_name_H-M "C M M M"
_symmetry_group_IT_number 65
_symmetry_cell_setting 'orthorhombic'
loop_
_space_group_symop_operation_xyz
x,y,z
-x,-y,z
x,-y,-z
-x,y,-z
-x,-y,-z
x,y,-z
-x,y,z
x,-y,z
1/2+x,1/2+y,z
1/2-x,1/2-y,z
1/2+x,1/2-y,-z
1/2-x,1/2+y,-z
1/2-x,1/2-y,-z
1/2+x,1/2+y,-z
1/2-x,1/2+y,z
1/2+x,1/2-y,z
loop_
_atom_site_type_symbol
_atom_site_label
_atom_site_fract_x
_atom_site_fract_y
_atom_site_fract_z
Si Si1 0.291294 0.654837 0.114176
Si Si2 0.500000 0.153815 0.386779
Si Si3 0.111475 0.758149 0.193196
Si Si4 0.411217 0.337929 0.610229
Si Si5 0.055568 0.000000 0.108837
Si Si6 0.556291 0.000000 0.883793
O O1 0.290435 0.500000 0.159687
O O2 0.250000 0.750000 0.160243
O O3 0.340637 0.730410 0.132748
O O4 0.283226 0.642248 0.000000
O O5 0.500000 0.126968 0.500000
O O6 0.544243 0.246494 0.358277
O O7 0.500000 0.000000 0.336368
O O8 0.125813 0.785539 0.307642
O O9 0.083530 0.621928 0.168453
O O10 0.073114 0.869817 0.165954
O O11 0.393666 0.304128 0.500000
O O12 0.422800 0.500000 0.618151
O O13 0.000000 0.000000 0.104439
O O14 0.077089 0.000000 0.000000
O O15 0.500000 0.000000 0.861940
O O16 0.564639 0.000000 0.000000
#
# Coordination Sequence:
#
# PCOD8273137 Si02
#       6
#    16   8  16  16   8   8
#     4  10  21  38  61  88 115 146 191 247 304 358
#     4   9  19  33  51  75 108 149 194 245 292 335
#     4  12  23  38  61  85 115 160 199 241 294 355
#     4  10  21  36  55  81 113 151 198 248 292 342
#     4  11  22  36  56  82 114 153 198 238 280 348
#     4  11  26  42  56  84 126 163 200 242 292 356
#
# _framework density 19.028382000000001
#
# number of rings (size 3 to 8) (size 9 to 14) (size 15 to 20)
#    0.000    1.444    2.222    3.000    6.222    3.111 
#    0.000    0.000    0.000    0.667    0.000    0.000 
#    0.000    0.000    0.000    0.000    0.000    0.000 
#
# Total GULP energy -446029.147135 kJ/mol
# GULP energy per Si atom -12389.698532 kJ/mol
# Density = 1.898507 g / cm^3
# Si number density = 19.028382 Si / 1000 Ang^3
#
#
#
# Elastic Constant Matrix: (Units=GPa)
#
#
# Indices 1 2 3 4 5 6 
#
# 1 87.6180 52.9706 12.9563 0.0000 0.0000 0.0000
# 2 52.9706 154.8285 36.6640 0.0000 0.0000 0.0000
# 3 12.9563 36.6640 97.2305 0.0000 0.0000 0.0000
# 4 0.0000 0.0000 0.0000 33.9231 0.0000 0.0000
# 5 0.0000 0.0000 0.0000 0.0000 11.0818 0.0000
# 6 0.0000 0.0000 0.0000 0.0000 0.0000 5.8673
#
#
#
# Elastic Compliance Matrix: (Units=1/GPa)
#
#
# Indices 1 2 3 4 5 6 
#
# 1 0.014390 -0.004907 -0.000067 0.000000 0.000000 0.000000
# 2 -0.004907 0.008766 -0.002651 0.000000 0.000000 0.000000
# 3 -0.000067 -0.002651 0.011294 0.000000 0.000000 0.000000
# 4 0.000000 0.000000 0.000000 0.029478 0.000000 0.000000
# 5 0.000000 0.000000 0.000000 0.000000 0.090238 0.000000
# 6 0.000000 0.000000 0.000000 0.000000 0.000000 0.170435
#
#
# Mechanical properties :
#
#
# Convention : Reuss Voigt Hill
#
# Bulk Modulus (GPa) = 52.09013 60.53986 56.31500
# Shear Modulus (GPa) = 14.44039 25.98017 20.21028
#
# Velocity S-wave (km/s) = 2.75778 3.69906 3.26254
# Velocity P-wave (km/s) = 6.12983 7.08016 6.62207
#
# Compressibility (1/GPa) = 0.01919750
#
# Stress axis : x y z
#
# Youngs Moduli (GPa) = 69.49348 114.08348 88.54583
#
# Poissons Ratio (x) = 0.55983 0.00594
# Poissons Ratio (y) = 0.34102 0.23477
# Poissons Ratio (z) = 0.00466 0.30248
#
# Static dielectric constant tensor:
#      x y z
#    x 3.286100 0.000000 0.000000 
#    y 0.000000 3.644100 0.000000 
#    z 0.000000 0.000000 3.888750 
# 
# 
# High freq. dielectric constant tensor:
#      x y z
#    x 1.705190 0.000000 0.000000 
#    y 0.000000 1.759800 0.000000 
#    z 0.000000 0.000000 1.742650 
# 
# From -- ./inp_files/36668.got.cif
#   From: 2010.03.12/outbox.cif.g09.slc.cpg/sg65_19_cif.got.tgz:36668.got - 2010.04.10 20:52:16.
