data_PCOD8273043
_publ_section_title
;
Structure prediction by ZEFSAII (Michael W. Deem and Ramdas Pophale) SiO2 
 PCOD8273043
Probable space group: C M M M
;
_chemical_formula_sum "Si O2"
_cell_formula_units_Z 104
_cell_length_a 8.796510
_cell_length_b 19.663958
_cell_length_c 32.611178
_cell_angle_alpha 90.000000
_cell_angle_beta 90.000000
_cell_angle_gamma 90.000000
_cell_volume 5640.892530
_symmetry_space_group_name_H-M "C M M M"
_symmetry_group_IT_number 65
_symmetry_cell_setting 'orthorhombic'
loop_
_space_group_symop_operation_xyz
x,y,z
-x,-y,z
x,-y,-z
-x,y,-z
-x,-y,-z
x,y,-z
-x,y,z
x,-y,z
1/2+x,1/2+y,z
1/2-x,1/2-y,z
1/2+x,1/2-y,-z
1/2-x,1/2+y,-z
1/2-x,1/2-y,-z
1/2+x,1/2+y,-z
1/2-x,1/2+y,z
1/2+x,1/2-y,z
loop_
_atom_site_type_symbol
_atom_site_label
_atom_site_fract_x
_atom_site_fract_y
_atom_site_fract_z
Si Si1 0.820529 0.821268 0.847752
Si Si2 0.673675 0.421162 0.394251
Si Si3 0.320757 0.073983 0.000000
Si Si4 0.174639 0.079067 0.300498
Si Si5 0.820998 0.320723 0.239174
Si Si6 0.177647 0.319117 0.453915
Si Si7 0.324274 0.919115 0.911133
O O1 0.750000 0.750000 0.863142
O O2 0.752081 0.842098 0.803971
O O3 0.782627 0.881261 0.879138
O O4 0.000000 0.812955 0.843759
O O5 0.500000 0.402382 0.404044
O O6 0.704123 0.500000 0.402111
O O7 0.712278 0.402406 0.347421
O O8 0.782230 0.380963 0.424513
O O9 0.276905 0.109629 0.043254
O O10 0.500000 0.063388 0.000000
O O11 0.242388 0.000000 0.000000
O O12 0.287319 0.121311 0.272114
O O13 0.000000 0.097203 0.290384
O O14 0.205101 0.000000 0.292231
O O15 0.750000 0.250000 0.254889
O O16 0.000000 0.312051 0.233545
O O17 0.238031 0.334244 0.500000
O O18 0.250000 0.250000 0.436515
O O19 0.000000 0.308740 0.454037
O O20 0.500000 0.902160 0.901609
O O21 0.296586 0.000000 0.908409
#
# Coordination Sequence:
#
# PCOD8273043 Si02
#       7
#    16  16   8  16  16  16  16
#     4  11  22  37  55  75 104 139 175 216 263 310
#     4   9  19  36  57  80 107 140 175 212 258 311
#     4   7  12  26  50  77 104 135 169 209 256 303
#     4   9  19  37  58  80 108 139 172 213 259 306
#     4  11  22  37  57  79 104 136 175 215 259 311
#     4  10  21  36  54  77 106 140 178 221 265 308
#     4   9  17  32  55  81 107 136 173 214 257 308
#
# _framework density 18.436800000000002
#
# number of rings (size 3 to 8) (size 9 to 14) (size 15 to 20)
#    0.000    2.385    0.000    6.000    0.000    4.000 
#    0.000    3.846    0.000    1.385    0.000    0.000 
#    0.000    0.000    0.000    0.000    0.000    0.000 
#
# Total GULP energy -644692.575862 kJ/mol
# GULP energy per Si atom -12397.934151 kJ/mol
# Density = 1.839484 g / cm^3
# Si number density = 18.436800 Si / 1000 Ang^3
#
#
#
# Elastic Constant Matrix: (Units=GPa)
#
#
# Indices 1 2 3 4 5 6 
#
# 1 109.4095 43.0076 50.4653 0.0000 0.0000 0.0000
# 2 43.0076 75.4689 62.8983 0.0000 0.0000 0.0000
# 3 50.4653 62.8983 105.4424 0.0000 0.0000 0.0000
# 4 0.0000 0.0000 0.0000 74.9127 0.0000 0.0000
# 5 0.0000 0.0000 0.0000 0.0000 27.2408 0.0000
# 6 0.0000 0.0000 0.0000 0.0000 0.0000 31.0737
#
#
#
# Elastic Compliance Matrix: (Units=1/GPa)
#
#
# Indices 1 2 3 4 5 6 
#
# 1 0.012366 -0.004205 -0.003410 0.000000 0.000000 0.000000
# 2 -0.004205 0.027781 -0.014559 0.000000 0.000000 0.000000
# 3 -0.003410 -0.014559 0.019801 0.000000 0.000000 0.000000
# 4 0.000000 0.000000 0.000000 0.013349 0.000000 0.000000
# 5 0.000000 0.000000 0.000000 0.000000 0.036710 0.000000
# 6 0.000000 0.000000 0.000000 0.000000 0.000000 0.032182
#
#
# Mechanical properties :
#
#
# Convention : Reuss Voigt Hill
#
# Bulk Modulus (GPa) = 64.10659 67.00702 65.55681
# Shear Modulus (GPa) = 26.07752 35.57541 30.82646
#
# Velocity S-wave (km/s) = 3.76497 4.39747 4.09345
# Velocity P-wave (km/s) = 7.33120 7.88713 7.61424
#
# Compressibility (1/GPa) = 0.01559902
#
# Stress axis : x y z
#
# Youngs Moduli (GPa) = 80.86858 35.99579 50.50280
#
# Poissons Ratio (x) = 0.15136 0.17222
# Poissons Ratio (y) = 0.34004 0.73529
# Poissons Ratio (z) = 0.27577 0.52408
#
# Static dielectric constant tensor:
#      x y z
#    x 3.266510 0.000000 0.000000 
#    y 0.000000 3.222410 0.000000 
#    z 0.000000 0.000000 3.522550 
# 
# 
# High freq. dielectric constant tensor:
#      x y z
#    x 1.709970 0.000000 0.000000 
#    y 0.000000 1.704070 0.000000 
#    z 0.000000 0.000000 1.723260 
# 
# From -- ./inp_files/76899.got.cif
#   From: 2010.03.12/outbox.cif.g09.slc.cpg/sg65_39_cif.got.tgz:76899.got - 2010.04.10 20:52:16.
