data_PCOD8273316
_publ_section_title
;
Structure prediction by ZEFSAII (Michael W. Deem and Ramdas Pophale) SiO2 
 PCOD8273316
Probable space group: C M M M
;
_chemical_formula_sum "Si O2"
_cell_formula_units_Z 88
_cell_length_a 20.872220
_cell_length_b 9.132367
_cell_length_c 25.263689
_cell_angle_alpha 90.000000
_cell_angle_beta 90.000000
_cell_angle_gamma 90.000000
_cell_volume 4815.581820
_symmetry_space_group_name_H-M "C M M M"
_symmetry_group_IT_number 65
_symmetry_cell_setting 'orthorhombic'
loop_
_space_group_symop_operation_xyz
x,y,z
-x,-y,z
x,-y,-z
-x,y,-z
-x,-y,-z
x,y,-z
-x,y,z
x,-y,z
1/2+x,1/2+y,z
1/2-x,1/2-y,z
1/2+x,1/2-y,-z
1/2-x,1/2+y,-z
1/2-x,1/2-y,-z
1/2+x,1/2+y,-z
1/2-x,1/2+y,z
1/2+x,1/2-y,z
loop_
_atom_site_type_symbol
_atom_site_label
_atom_site_fract_x
_atom_site_fract_y
_atom_site_fract_z
Si Si1 0.071370 0.674081 0.728250
Si Si2 0.424364 0.839156 0.155733
Si Si3 0.923907 0.836351 0.942376
Si Si4 0.872404 0.827902 0.438313
Si Si5 0.500000 0.163980 0.562297
Si Si6 0.187235 0.674959 0.653952
O O1 0.070041 0.500000 0.732310
O O2 0.089273 0.735341 0.786894
O O3 0.125219 0.726390 0.687215
O O4 0.000000 0.729155 0.710625
O O5 0.500000 0.850752 0.147892
O O6 0.393086 0.750522 0.106948
O O7 0.393167 0.000000 0.153750
O O8 0.000000 0.838312 0.936968
O O9 0.896744 0.000000 0.939155
O O10 0.905010 0.767924 0.000000
O O11 0.858683 0.799434 0.500000
O O12 0.938721 0.755047 0.419444
O O13 0.818146 0.744846 0.404790
O O14 0.874018 0.000000 0.425594
O O15 0.500000 0.145744 0.500000
O O16 0.500000 0.000000 0.588425
O O17 0.194387 0.500000 0.651013
O O18 0.250000 0.750000 0.680024
#
# Coordination Sequence:
#
# PCOD8273316 Si02
#       6
#    16  16  16  16   8  16
#     4   8  16  32  53  75  97 127 168 211 254 299
#     4   8  13  23  40  61  85 114 155 202 241 283
#     4   8  13  20  30  49  83 124 158 188 230 285
#     4  10  21  37  56  79 108 137 167 209 257 302
#     4   9  17  31  53  81 109 137 169 201 240 295
#     4  11  23  38  57  78 105 136 170 212 258 314
#
# _framework density 18.274011999999999
#
# number of rings (size 3 to 8) (size 9 to 14) (size 15 to 20)
#    0.000    3.000    0.000    3.000    1.273    2.909 
#    0.000    3.636    0.000    2.182    0.000    0.000 
#    0.000    0.727    0.000    1.636    0.000    4.364 
#
# Total GULP energy -545192.892734 kJ/mol
# GULP energy per Si atom -12390.747562 kJ/mol
# Density = 1.823242 g / cm^3
# Si number density = 18.274012 Si / 1000 Ang^3
#
#
#
# Elastic Constant Matrix: (Units=GPa)
#
#
# Indices 1 2 3 4 5 6 
#
# 1 78.9719 32.8204 50.2880 0.0000 0.0000 0.0000
# 2 32.8204 84.8345 48.3237 0.0000 0.0000 0.0000
# 3 50.2880 48.3237 113.8625 0.0000 0.0000 0.0000
# 4 0.0000 0.0000 0.0000 18.3920 0.0000 0.0000
# 5 0.0000 0.0000 0.0000 0.0000 6.1213 0.0000
# 6 0.0000 0.0000 0.0000 0.0000 0.0000 22.2539
#
#
#
# Elastic Compliance Matrix: (Units=1/GPa)
#
#
# Indices 1 2 3 4 5 6 
#
# 1 0.018277 -0.003261 -0.006688 0.000000 0.000000 0.000000
# 2 -0.003261 0.016128 -0.005404 0.000000 0.000000 0.000000
# 3 -0.006688 -0.005404 0.014030 0.000000 0.000000 0.000000
# 4 0.000000 0.000000 0.000000 0.054372 0.000000 0.000000
# 5 0.000000 0.000000 0.000000 0.000000 0.163363 0.000000
# 6 0.000000 0.000000 0.000000 0.000000 0.000000 0.044936
#
#
# Mechanical properties :
#
#
# Convention : Reuss Voigt Hill
#
# Bulk Modulus (GPa) = 56.40973 60.05922 58.23448
# Shear Modulus (GPa) = 14.37931 19.10256 16.74093
#
# Velocity S-wave (km/s) = 2.80817 3.23668 3.03001
# Velocity P-wave (km/s) = 6.43819 6.84875 6.64664
#
# Compressibility (1/GPa) = 0.01772744
#
# Stress axis : x y z
#
# Youngs Moduli (GPa) = 54.71391 62.00471 71.27610
#
# Poissons Ratio (x) = 0.20221 0.47669
# Poissons Ratio (y) = 0.17843 0.38520
# Poissons Ratio (z) = 0.36593 0.33510
#
# Static dielectric constant tensor:
#      x y z
#    x 3.086080 0.000000 0.000000 
#    y 0.000000 3.370320 0.000000 
#    z 0.000000 0.000000 3.652770 
# 
# 
# High freq. dielectric constant tensor:
#      x y z
#    x 1.655960 0.000000 0.000000 
#    y 0.000000 1.692800 0.000000 
#    z 0.000000 0.000000 1.716850 
# 
# From -- ./inp_files/78133.got.cif
#   From: 2010.03.12/outbox.cif.g09.slc.cpg/sg65_40_cif.got.tgz:78133.got - 2010.04.10 20:52:16.
