data_PCOD8273614
_publ_section_title
;
Structure prediction by ZEFSAII (Michael W. Deem and Ramdas Pophale) SiO2 
 PCOD8273614
Probable space group: C M M M
;
_chemical_formula_sum "Si O2"
_cell_formula_units_Z 88
_cell_length_a 8.581662
_cell_length_b 18.382681
_cell_length_c 28.170117
_cell_angle_alpha 90.000000
_cell_angle_beta 90.000000
_cell_angle_gamma 90.000000
_cell_volume 4443.947369
_symmetry_space_group_name_H-M "C M M M"
_symmetry_group_IT_number 65
_symmetry_cell_setting 'orthorhombic'
loop_
_space_group_symop_operation_xyz
x,y,z
-x,-y,z
x,-y,-z
-x,y,-z
-x,-y,-z
x,y,-z
-x,y,z
x,-y,z
1/2+x,1/2+y,z
1/2-x,1/2-y,z
1/2+x,1/2-y,-z
1/2-x,1/2+y,-z
1/2-x,1/2-y,-z
1/2+x,1/2+y,-z
1/2-x,1/2+y,z
1/2+x,1/2-y,z
loop_
_atom_site_type_symbol
_atom_site_label
_atom_site_fract_x
_atom_site_fract_y
_atom_site_fract_z
Si Si1 0.315392 0.828322 0.447680
Si Si2 0.180880 0.915631 0.259948
Si Si3 0.683337 0.583961 0.088058
Si Si4 0.676959 0.915215 0.641588
Si Si5 0.817446 0.330318 0.000000
Si Si6 0.682976 0.830654 0.175300
O O1 0.257434 0.854523 0.500000
O O2 0.500000 0.825981 0.447020
O O3 0.250000 0.750000 0.435671
O O4 0.252485 0.880761 0.406359
O O5 0.217245 0.892281 0.313837
O O6 0.284491 0.864455 0.226746
O O7 0.000000 0.902164 0.249003
O O8 0.226418 0.000000 0.251534
O O9 0.500000 0.591708 0.081202
O O10 0.735440 0.500000 0.086755
O O11 0.732550 0.617576 0.137884
O O12 0.766691 0.626561 0.046288
O O13 0.500000 0.889206 0.651342
O O14 0.683510 0.000000 0.632963
O O15 0.750000 0.250000 0.000000
O O16 0.000000 0.322385 0.000000
O O17 0.500000 0.828351 0.165110
O O18 0.750000 0.750000 0.171510
#
# Coordination Sequence:
#
# PCOD8273614 Si02
#       6
#    16  16  16  16   8  16
#     4   9  18  32  50  73 102 137 176 220 272 329
#     4  10  21  38  59  83 113 148 186 230 282 339
#     4  11  24  43  66  92 124 160 198 241 291 345
#     4   9  18  33  53  77 105 139 181 227 274 327
#     4  12  25  42  65  93 127 163 203 248 293 342
#     4  12  25  41  62  88 119 153 193 239 287 340
#
# _framework density 19.802216000000001
#
# number of rings (size 3 to 8) (size 9 to 14) (size 15 to 20)
#    0.000    1.636    0.000    4.909    0.000    7.636 
#    0.000    3.636    0.000    0.000    0.000    5.091 
#    0.000    0.000    0.000    0.000    0.000    0.000 
#
# Total GULP energy -545710.838722 kJ/mol
# GULP energy per Si atom -12402.519062 kJ/mol
# Density = 1.975714 g / cm^3
# Si number density = 19.802216 Si / 1000 Ang^3
#
#
#
# Elastic Constant Matrix: (Units=GPa)
#
#
# Indices 1 2 3 4 5 6 
#
# 1 69.6748 46.6651 29.3938 0.0000 0.0000 0.0000
# 2 46.6651 121.7280 70.8342 0.0000 0.0000 0.0000
# 3 29.3938 70.8342 131.9661 0.0000 0.0000 0.0000
# 4 0.0000 0.0000 0.0000 -0.8195 0.0000 0.0000
# 5 0.0000 0.0000 0.0000 0.0000 33.3491 0.0000
# 6 0.0000 0.0000 0.0000 0.0000 0.0000 31.4014
#
#
#
# Elastic Compliance Matrix: (Units=1/GPa)
#
#
# Indices 1 2 3 4 5 6 
#
# 1 0.019331 -0.007133 -0.000477 0.000000 0.000000 0.000000
# 2 -0.007133 0.014579 -0.006236 0.000000 0.000000 0.000000
# 3 -0.000477 -0.006236 0.011031 0.000000 0.000000 0.000000
# 4 0.000000 0.000000 0.000000 -1.220308 0.000000 0.000000
# 5 0.000000 0.000000 0.000000 0.000000 0.029986 0.000000
# 6 0.000000 0.000000 0.000000 0.000000 0.000000 0.031846
#
#
# Mechanical properties :
#
#
# Convention : Reuss Voigt Hill
#
# Bulk Modulus (GPa) = 57.97754 68.57279 63.27516
# Shear Modulus (GPa) = -4.62923 24.55126 9.96101
#
# Velocity S-wave (km/s) = -1.53062 3.52493 2.24526
# Velocity P-wave (km/s) = 5.12036 7.16037 6.22451
#
# Compressibility (1/GPa) = 0.01724806
#
# Stress axis : x y z
#
# Youngs Moduli (GPa) = 51.73015 68.59396 90.65047
#
# Poissons Ratio (x) = 0.48929 0.04324
# Poissons Ratio (y) = 0.36900 0.56533
# Poissons Ratio (z) = 0.02467 0.42778
#
# Static dielectric constant tensor:
#      x y z
#    x 3.643180 0.000000 0.000000 
#    y 0.000000 3.670430 0.000000 
#    z 0.000000 0.000000 3.990220 
# 
# 
# High freq. dielectric constant tensor:
#      x y z
#    x 1.773710 0.000000 0.000000 
#    y 0.000000 1.773440 0.000000 
#    z 0.000000 0.000000 1.790620 
# 
# From -- ./inp_files/76570.got.cif
#   From: 2010.03.12/outbox.cif.g09.slc.cpg/sg65_39_cif.got.tgz:76570.got - 2010.04.10 20:52:16.
