data_PCOD8273290
_publ_section_title
;
Structure prediction by ZEFSAII (Michael W. Deem and Ramdas Pophale) SiO2 
 PCOD8273290
Probable space group: C M M M
;
_chemical_formula_sum "Si O2"
_cell_formula_units_Z 48
_cell_length_a 19.481547
_cell_length_b 17.703888
_cell_length_c 7.265505
_cell_angle_alpha 90.000000
_cell_angle_beta 90.000000
_cell_angle_gamma 90.000000
_cell_volume 2505.866326
_symmetry_space_group_name_H-M "C M M M"
_symmetry_group_IT_number 65
_symmetry_cell_setting 'orthorhombic'
loop_
_space_group_symop_operation_xyz
x,y,z
-x,-y,z
x,-y,-z
-x,y,-z
-x,-y,-z
x,y,-z
-x,y,z
x,-y,z
1/2+x,1/2+y,z
1/2-x,1/2-y,z
1/2+x,1/2-y,-z
1/2-x,1/2+y,-z
1/2-x,1/2-y,-z
1/2+x,1/2+y,-z
1/2-x,1/2+y,z
1/2+x,1/2-y,z
loop_
_atom_site_type_symbol
_atom_site_label
_atom_site_fract_x
_atom_site_fract_y
_atom_site_fract_z
Si Si1 0.500000 0.329186 0.785681
Si Si2 0.000000 0.652809 0.217893
Si Si3 0.133660 0.088457 0.788755
Si Si4 0.396404 0.089809 0.500000
Si Si5 0.256799 0.588971 0.500000
O O1 0.500000 0.241328 0.740437
O O2 0.431562 0.367403 0.703510
O O3 0.500000 0.347091 0.000000
O O4 0.932843 0.617852 0.313357
O O5 0.000000 0.634616 0.000000
O O6 0.201553 0.114952 0.680634
O O7 0.119260 0.000000 0.761311
O O8 0.146826 0.109730 0.000000
O O9 0.319433 0.124170 0.500000
O O10 0.397897 0.000000 0.500000
O O11 0.248120 0.500000 0.500000
#
# Coordination Sequence:
#
# PCOD8273290 Si02
#       5
#     8   8  16   8   8
#     4   9  18  33  52  77 108 137 171 210 241 289
#     4  10  21  37  56  77 101 131 166 209 263 307
#     4   9  17  31  52  77 106 140 172 202 241 289
#     4  10  22  39  56  77 100 123 168 222 258 306
#     4   9  19  33  50  76 104 129 166 213 254 298
#
# _framework density 19.155052999999999
#
# number of rings (size 3 to 8) (size 9 to 14) (size 15 to 20)
#    0.000    2.667    0.000    1.500    0.000    8.000 
#    0.000    9.167    0.000    6.000    0.000    0.000 
#    0.000    0.000    0.000    0.000    0.000    0.000 
#
# Total GULP energy -297540.350598 kJ/mol
# GULP energy per Si atom -12397.514608 kJ/mol
# Density = 1.911146 g / cm^3
# Si number density = 19.155053 Si / 1000 Ang^3
#
#
#
# Elastic Constant Matrix: (Units=GPa)
#
#
# Indices 1 2 3 4 5 6 
#
# 1 211.9461 56.1652 79.8557 0.0000 0.0000 0.0000
# 2 56.1652 71.7896 37.1485 0.0000 0.0000 0.0000
# 3 79.8557 37.1485 128.4452 0.0000 0.0000 0.0000
# 4 0.0000 0.0000 0.0000 18.6789 0.0000 0.0000
# 5 0.0000 0.0000 0.0000 0.0000 23.4026 0.0000
# 6 0.0000 0.0000 0.0000 0.0000 0.0000 41.8720
#
#
#
# Elastic Compliance Matrix: (Units=1/GPa)
#
#
# Indices 1 2 3 4 5 6 
#
# 1 0.006926 -0.003752 -0.003221 0.000000 0.000000 0.000000
# 2 -0.003752 0.018414 -0.002993 0.000000 0.000000 0.000000
# 3 -0.003221 -0.002993 0.010653 0.000000 0.000000 0.000000
# 4 0.000000 0.000000 0.000000 0.053536 0.000000 0.000000
# 5 0.000000 0.000000 0.000000 0.000000 0.042730 0.000000
# 6 0.000000 0.000000 0.000000 0.000000 0.000000 0.023882
#
#
# Mechanical properties :
#
#
# Convention : Reuss Voigt Hill
#
# Bulk Modulus (GPa) = 62.25981 84.27997 73.26989
# Shear Modulus (GPa) = 27.55925 32.72480 30.14202
#
# Velocity S-wave (km/s) = 3.79719 4.13778 3.97114
# Velocity P-wave (km/s) = 7.19712 8.18063 7.70458
#
# Compressibility (1/GPa) = 0.01606173
#
# Stress axis : x y z
#
# Youngs Moduli (GPa) = 144.38453 54.30742 93.86641
#
# Poissons Ratio (x) = 0.20376 0.30233
# Poissons Ratio (y) = 0.54172 0.28094
# Poissons Ratio (z) = 0.46504 0.16254
#
# Static dielectric constant tensor:
#      x y z
#    x 3.832910 0.000000 0.000000 
#    y 0.000000 3.295180 0.000000 
#    z 0.000000 0.000000 3.524310 
# 
# 
# High freq. dielectric constant tensor:
#      x y z
#    x 1.749710 0.000000 0.000000 
#    y 0.000000 1.726280 0.000000 
#    z 0.000000 0.000000 1.749290 
# 
# From -- ./inp_files/8219.got.cif
#   From: 2010.03.12/outbox.cif.g09.slc.cpg/sg65_5_cif.got.tgz:8219.got - 2010.04.10 20:52:16.
