data_PCOD8273281
_publ_section_title
;
Structure prediction by ZEFSAII (Michael W. Deem and Ramdas Pophale) SiO2 
 PCOD8273281
Probable space group: C M M M
;
_chemical_formula_sum "Si O2"
_cell_formula_units_Z 64
_cell_length_a 9.398555
_cell_length_b 26.132262
_cell_length_c 13.549603
_cell_angle_alpha 90.000000
_cell_angle_beta 90.000000
_cell_angle_gamma 90.000000
_cell_volume 3327.857042
_symmetry_space_group_name_H-M "C M M M"
_symmetry_group_IT_number 65
_symmetry_cell_setting 'orthorhombic'
loop_
_space_group_symop_operation_xyz
x,y,z
-x,-y,z
x,-y,-z
-x,y,-z
-x,-y,-z
x,y,-z
-x,y,z
x,-y,z
1/2+x,1/2+y,z
1/2-x,1/2-y,z
1/2+x,1/2-y,-z
1/2-x,1/2+y,-z
1/2-x,1/2-y,-z
1/2+x,1/2+y,-z
1/2-x,1/2+y,z
1/2+x,1/2-y,z
loop_
_atom_site_type_symbol
_atom_site_label
_atom_site_fract_x
_atom_site_fract_y
_atom_site_fract_z
Si Si1 0.500000 0.560327 0.883789
Si Si2 0.500000 0.715941 0.118729
Si Si3 0.340146 0.500000 0.615094
Si Si4 0.500000 0.829982 0.887559
Si Si5 0.280733 0.362438 0.195949
Si Si6 0.169142 0.399398 0.386894
O O1 0.500000 0.500000 0.863422
O O2 0.362833 0.585724 0.832901
O O3 0.500000 0.572884 0.000000
O O4 0.500000 0.773467 0.162077
O O5 0.637801 0.688436 0.163360
O O6 0.500000 0.711177 0.000000
O O7 0.500000 0.500000 0.665092
O O8 0.366245 0.500000 0.500000
O O9 0.244849 0.548164 0.644738
O O10 0.366291 0.864618 0.861835
O O11 0.500000 0.815862 0.000000
O O12 0.242505 0.358642 0.313009
O O13 0.202145 0.383824 0.500000
O O14 0.000000 0.403892 0.369788
#
# Coordination Sequence:
#
# PCOD8273281 Si02
#       6
#     8   8   8   8  16  16
#     4  10  23  41  57  81 125 164 188 226 290 358
#     4  10  22  39  61  87 118 145 183 248 314 349
#     4   9  19  33  55  83 108 145 200 247 280 325
#     4  11  21  38  63  89 112 142 193 254 298 343
#     4  11  21  36  60  88 112 154 195 237 284 355
#     4  10  21  37  55  80 119 159 194 240 290 336
#
# _framework density 19.231596
#
# number of rings (size 3 to 8) (size 9 to 14) (size 15 to 20)
#    0.000    1.750    1.250    4.125    5.250    3.500 
#    0.000    0.625    0.000    6.750    0.000    0.000 
#    0.000    0.000    0.000    0.000    0.000    0.000 
#
# Total GULP energy -396618.858996 kJ/mol
# GULP energy per Si atom -12394.339344 kJ/mol
# Density = 1.918782 g / cm^3
# Si number density = 19.231596 Si / 1000 Ang^3
#
#
#
# Elastic Constant Matrix: (Units=GPa)
#
#
# Indices 1 2 3 4 5 6 
#
# 1 158.3821 53.1809 56.0025 0.0000 0.0000 0.0000
# 2 53.1809 87.0776 39.2445 0.0000 0.0000 0.0000
# 3 56.0025 39.2445 121.9081 0.0000 0.0000 0.0000
# 4 0.0000 0.0000 0.0000 9.5812 0.0000 0.0000
# 5 0.0000 0.0000 0.0000 0.0000 37.3077 0.0000
# 6 0.0000 0.0000 0.0000 0.0000 0.0000 47.8332
#
#
#
# Elastic Compliance Matrix: (Units=1/GPa)
#
#
# Indices 1 2 3 4 5 6 
#
# 1 0.008617 -0.004069 -0.002648 0.000000 0.000000 0.000000
# 2 -0.004069 0.015354 -0.003074 0.000000 0.000000 0.000000
# 3 -0.002648 -0.003074 0.010409 0.000000 0.000000 0.000000
# 4 0.000000 0.000000 0.000000 0.104371 0.000000 0.000000
# 5 0.000000 0.000000 0.000000 0.000000 0.026804 0.000000
# 6 0.000000 0.000000 0.000000 0.000000 0.000000 0.020906
#
#
# Mechanical properties :
#
#
# Convention : Reuss Voigt Hill
#
# Bulk Modulus (GPa) = 67.57706 73.80263 70.68984
# Shear Modulus (GPa) = 23.69942 33.54040 28.61991
#
# Velocity S-wave (km/s) = 3.51425 4.18068 3.86187
# Velocity P-wave (km/s) = 7.18898 7.85896 7.53142
#
# Compressibility (1/GPa) = 0.01479792
#
# Stress axis : x y z
#
# Youngs Moduli (GPa) = 116.05633 65.12892 96.07034
#
# Poissons Ratio (x) = 0.26499 0.25444
# Poissons Ratio (y) = 0.47220 0.29529
# Poissons Ratio (z) = 0.30737 0.20019
#
# Static dielectric constant tensor:
#      x y z
#    x 3.654700 0.000000 0.000000 
#    y 0.000000 3.407830 0.000000 
#    z 0.000000 0.000000 3.636570 
# 
# 
# High freq. dielectric constant tensor:
#      x y z
#    x 1.766130 0.000000 0.000000 
#    y 0.000000 1.727750 0.000000 
#    z 0.000000 0.000000 1.752080 
# 
# From -- ./inp_files/21119.got.cif
#   From: 2010.03.12/outbox.cif.g09.slc.cpg/sg65_11_cif.got.tgz:21119.got - 2010.04.10 20:52:16.
