data_PCOD8273486
_publ_section_title
;
Structure prediction by ZEFSAII (Michael W. Deem and Ramdas Pophale) SiO2 
 PCOD8273486
Probable space group: C M M M
;
_chemical_formula_sum "Si O2"
_cell_formula_units_Z 96
_cell_length_a 14.856020
_cell_length_b 20.867371
_cell_length_c 15.506033
_cell_angle_alpha 90.000000
_cell_angle_beta 90.000000
_cell_angle_gamma 90.000000
_cell_volume 4806.964521
_symmetry_space_group_name_H-M "C M M M"
_symmetry_group_IT_number 65
_symmetry_cell_setting 'orthorhombic'
loop_
_space_group_symop_operation_xyz
x,y,z
-x,-y,z
x,-y,-z
-x,y,-z
-x,-y,-z
x,y,-z
-x,y,z
x,-y,z
1/2+x,1/2+y,z
1/2-x,1/2-y,z
1/2+x,1/2-y,-z
1/2-x,1/2+y,-z
1/2-x,1/2-y,-z
1/2+x,1/2+y,-z
1/2-x,1/2+y,z
1/2+x,1/2-y,z
loop_
_atom_site_type_symbol
_atom_site_label
_atom_site_fract_x
_atom_site_fract_y
_atom_site_fract_z
Si Si1 0.255135 0.928108 0.126252
Si Si2 0.899191 0.232005 0.251026
Si Si3 0.394061 0.500000 0.402834
Si Si4 0.792346 0.108862 0.307744
Si Si5 0.896651 0.679788 0.095855
Si Si6 0.827441 0.302419 0.404881
Si Si7 0.601343 0.424786 0.000000
O O1 0.249397 0.930556 0.229340
O O2 0.337156 0.883930 0.097219
O O3 0.159977 0.904239 0.084255
O O4 0.275608 0.000000 0.093153
O O5 0.837042 0.171483 0.266567
O O6 0.861485 0.269680 0.167181
O O7 0.899674 0.278808 0.334513
O O8 0.000000 0.208146 0.234140
O O9 0.500000 0.500000 0.400564
O O10 0.356977 0.500000 0.500000
O O11 0.363017 0.564789 0.356947
O O12 0.714511 0.129866 0.374308
O O13 0.000000 0.660952 0.116841
O O14 0.889282 0.710669 0.000000
O O15 0.871807 0.311351 0.500000
O O16 0.750000 0.250000 0.411353
O O17 0.585701 0.500000 0.000000
O O18 0.500000 0.392743 0.000000
#
# Coordination Sequence:
#
# PCOD8273486 Si02
#       7
#    16  16   8  16  16  16   8
#     4  11  21  37  60  87 118 158 201 247 302 361
#     4  10  21  37  58  85 119 156 200 249 300 359
#     4  11  24  40  60  89 122 157 200 249 304 367
#     4  11  21  38  58  84 117 157 197 242 297 360
#     4  10  21  39  63  90 121 156 201 257 310 363
#     4   9  18  33  56  82 110 146 192 241 294 353
#     4   9  20  36  53  80 119 157 200 243 283 350
#
# _framework density 19.971022999999999
#
# number of rings (size 3 to 8) (size 9 to 14) (size 15 to 20)
#    0.000    1.833    3.333    1.000    0.000    2.667 
#    1.500    1.667    0.000    0.000    0.000    0.000 
#    0.000    5.333    0.000    0.000    0.000    0.000 
#
# Total GULP energy -595063.678806 kJ/mol
# GULP energy per Si atom -12397.159975 kJ/mol
# Density = 1.992557 g / cm^3
# Si number density = 19.971023 Si / 1000 Ang^3
#
#
#
# Elastic Constant Matrix: (Units=GPa)
#
#
# Indices 1 2 3 4 5 6 
#
# 1 66.5855 33.6182 22.4800 0.0000 0.0000 0.0000
# 2 33.6182 92.3386 42.9318 0.0000 0.0000 0.0000
# 3 22.4800 42.9318 156.6248 0.0000 0.0000 0.0000
# 4 0.0000 0.0000 0.0000 -16.9554 0.0000 0.0000
# 5 0.0000 0.0000 0.0000 0.0000 28.2852 0.0000
# 6 0.0000 0.0000 0.0000 0.0000 0.0000 26.4240
#
#
#
# Elastic Compliance Matrix: (Units=1/GPa)
#
#
# Indices 1 2 3 4 5 6 
#
# 1 0.018518 -0.006310 -0.000928 0.000000 0.000000 0.000000
# 2 -0.006310 0.014562 -0.003086 0.000000 0.000000 0.000000
# 3 -0.000928 -0.003086 0.007364 0.000000 0.000000 0.000000
# 4 0.000000 0.000000 0.000000 -0.058978 0.000000 0.000000
# 5 0.000000 0.000000 0.000000 0.000000 0.035354 0.000000
# 6 0.000000 0.000000 0.000000 0.000000 0.000000 0.037844
#
#
# Mechanical properties :
#
#
# Convention : Reuss Voigt Hill
#
# Bulk Modulus (GPa) = 50.51827 57.06765 53.79296
# Shear Modulus (GPa) = 61.04255 21.98536 41.51396
#
# Velocity S-wave (km/s) = 5.53461 3.32152 4.56423
# Velocity P-wave (km/s) = 8.13592 6.58387 7.40069
#
# Compressibility (1/GPa) = 0.01979482
#
# Stress axis : x y z
#
# Youngs Moduli (GPa) = 54.00264 68.67272 135.80083
#
# Poissons Ratio (x) = 0.43334 0.12604
# Poissons Ratio (y) = 0.34077 0.41905
# Poissons Ratio (z) = 0.05012 0.21191
#
# Static dielectric constant tensor:
#      x y z
#    x 3.478640 0.000000 0.000000 
#    y 0.000000 3.452220 0.000000 
#    z 0.000000 0.000000 4.145500 
# 
# 
# High freq. dielectric constant tensor:
#      x y z
#    x 1.761350 0.000000 0.000000 
#    y 0.000000 1.763200 0.000000 
#    z 0.000000 0.000000 1.801120 
# 
# From -- ./inp_files/40421.got.cif
#   From: 2010.03.12/outbox.cif.g09.slc.cpg/sg65_21_cif.got.tgz:40421.got - 2010.04.10 20:52:16.
