data_PCOD8273197
_publ_section_title
;
Structure prediction by ZEFSAII (Michael W. Deem and Ramdas Pophale) SiO2 
 PCOD8273197
Probable space group: C M M M
;
_chemical_formula_sum "Si O2"
_cell_formula_units_Z 72
_cell_length_a 7.868328
_cell_length_b 28.800590
_cell_length_c 16.172356
_cell_angle_alpha 90.000000
_cell_angle_beta 90.000000
_cell_angle_gamma 90.000000
_cell_volume 3664.857842
_symmetry_space_group_name_H-M "C M M M"
_symmetry_group_IT_number 65
_symmetry_cell_setting 'orthorhombic'
loop_
_space_group_symop_operation_xyz
x,y,z
-x,-y,z
x,-y,-z
-x,y,-z
-x,-y,-z
x,y,-z
-x,y,z
x,-y,z
1/2+x,1/2+y,z
1/2-x,1/2-y,z
1/2+x,1/2-y,-z
1/2-x,1/2+y,-z
1/2-x,1/2-y,-z
1/2+x,1/2+y,-z
1/2-x,1/2+y,z
1/2+x,1/2-y,z
loop_
_atom_site_type_symbol
_atom_site_label
_atom_site_fract_x
_atom_site_fract_y
_atom_site_fract_z
Si Si1 0.705866 0.110091 0.684211
Si Si2 0.500000 0.554879 0.403584
Si Si3 0.805799 0.623725 0.868191
Si Si4 0.804247 0.803306 0.000000
Si Si5 0.698581 0.201274 0.591197
Si Si6 0.299304 0.552682 0.000000
O O1 0.500000 0.099186 0.675599
O O2 0.823573 0.071995 0.639055
O O3 0.773750 0.115079 0.778251
O O4 0.762103 0.158935 0.645705
O O5 0.500000 0.500000 0.393878
O O6 0.500000 0.569783 0.500000
O O7 0.772761 0.577171 0.919181
O O8 0.000000 0.631613 0.851254
O O9 0.749365 0.669889 0.916779
O O10 0.750000 0.750000 0.000000
O O11 0.000000 0.804050 0.000000
O O12 0.783945 0.198375 0.500000
O O13 0.500000 0.197934 0.582243
O O14 0.750000 0.250000 0.634109
O O15 0.235358 0.500000 0.000000
O O16 0.500000 0.556932 0.000000
#
# Coordination Sequence:
#
# PCOD8273197 Si02
#       6
#    16   8  16   8  16   8
#     4  10  23  41  63  91 126 164 207 265 319 374
#     4  11  26  44  66  93 121 165 219 268 331 399
#     4  10  21  38  59  86 119 155 203 252 302 365
#     4  11  22  37  60  87 125 173 210 252 303 363
#     4   9  18  33  54  83 117 153 194 241 299 362
#     4  10  21  36  57  84 114 150 189 236 299 365
#
# _framework density 19.646055
#
# number of rings (size 3 to 8) (size 9 to 14) (size 15 to 20)
#    0.000    2.000    0.000    4.000    4.667    4.444 
#    0.000    5.556    0.000    0.000    0.000    0.000 
#    0.000    0.000    0.000    0.000    0.000    0.000 
#
# Total GULP energy -446087.426514 kJ/mol
# GULP energy per Si atom -12391.317403 kJ/mol
# Density = 1.960134 g / cm^3
# Si number density = 19.646055 Si / 1000 Ang^3
#
#
#
# Elastic Constant Matrix: (Units=GPa)
#
#
# Indices 1 2 3 4 5 6 
#
# 1 57.5321 28.0306 39.6626 0.0000 0.0000 0.0000
# 2 28.0306 148.2294 75.5356 0.0000 0.0000 0.0000
# 3 39.6626 75.5356 161.4238 0.0000 0.0000 0.0000
# 4 0.0000 0.0000 0.0000 11.3991 0.0000 0.0000
# 5 0.0000 0.0000 0.0000 0.0000 -24.0501 0.0000
# 6 0.0000 0.0000 0.0000 0.0000 0.0000 36.0273
#
#
#
# Elastic Compliance Matrix: (Units=1/GPa)
#
#
# Indices 1 2 3 4 5 6 
#
# 1 0.021280 -0.001785 -0.004393 0.000000 0.000000 0.000000
# 2 -0.001785 0.009008 -0.003777 0.000000 0.000000 0.000000
# 3 -0.004393 -0.003777 0.009042 0.000000 0.000000 0.000000
# 4 0.000000 0.000000 0.000000 0.087726 0.000000 0.000000
# 5 0.000000 0.000000 0.000000 0.000000 -0.041580 0.000000
# 6 0.000000 0.000000 0.000000 0.000000 0.000000 0.027757
#
#
# Mechanical properties :
#
#
# Convention : Reuss Voigt Hill
#
# Bulk Modulus (GPa) = 51.49443 72.62700 62.06071
# Shear Modulus (GPa) = 35.81228 19.60571 27.70899
#
# Velocity S-wave (km/s) = 4.27414 3.16246 3.75962
# Velocity P-wave (km/s) = 7.11518 7.09809 7.10664
#
# Compressibility (1/GPa) = 0.01941958
#
# Stress axis : x y z
#
# Youngs Moduli (GPa) = 46.99220 111.00659 110.60077
#
# Poissons Ratio (x) = 0.19820 0.48589
# Poissons Ratio (y) = 0.08390 0.41770
# Poissons Ratio (z) = 0.20644 0.41924
#
# Static dielectric constant tensor:
#      x y z
#    x 3.668670 0.000000 0.000000 
#    y 0.000000 3.761990 0.000000 
#    z 0.000000 0.000000 3.616760 
# 
# 
# High freq. dielectric constant tensor:
#      x y z
#    x 1.772680 0.000000 0.000000 
#    y 0.000000 1.767800 0.000000 
#    z 0.000000 0.000000 1.770470 
# 
# From -- ./inp_files/36666.got.cif
#   From: 2010.03.12/outbox.cif.g09.slc.cpg/sg65_19_cif.got.tgz:36666.got - 2010.04.10 20:52:16.
