data_PCOD8273460
_publ_section_title
;
Structure prediction by ZEFSAII (Michael W. Deem and Ramdas Pophale) SiO2 
 PCOD8273460
Probable space group: C M M M
;
_chemical_formula_sum "Si O2"
_cell_formula_units_Z 104
_cell_length_a 9.162128
_cell_length_b 23.490677
_cell_length_c 24.931648
_cell_angle_alpha 90.000000
_cell_angle_beta 90.000000
_cell_angle_gamma 90.000000
_cell_volume 5365.903706
_symmetry_space_group_name_H-M "C M M M"
_symmetry_group_IT_number 65
_symmetry_cell_setting 'orthorhombic'
loop_
_space_group_symop_operation_xyz
x,y,z
-x,-y,z
x,-y,-z
-x,y,-z
-x,-y,-z
x,y,-z
-x,y,z
x,-y,z
1/2+x,1/2+y,z
1/2-x,1/2-y,z
1/2+x,1/2-y,-z
1/2-x,1/2+y,-z
1/2-x,1/2-y,-z
1/2+x,1/2+y,-z
1/2-x,1/2+y,z
1/2+x,1/2-y,z
loop_
_atom_site_type_symbol
_atom_site_label
_atom_site_fract_x
_atom_site_fract_y
_atom_site_fract_z
Si Si1 0.330583 0.612107 0.247406
Si Si2 0.332684 0.391324 0.438976
Si Si3 0.830356 0.807384 0.852011
Si Si4 0.827641 0.500000 0.397330
Si Si5 0.672760 0.000000 0.273862
Si Si6 0.827485 0.500000 0.941430
Si Si7 0.170296 0.190664 0.345167
Si Si8 0.168382 0.376896 0.936348
O O1 0.500000 0.595968 0.253965
O O2 0.300076 0.646173 0.193287
O O3 0.236253 0.555095 0.244386
O O4 0.276429 0.649466 0.297658
O O5 0.309271 0.371423 0.500000
O O6 0.500000 0.409248 0.427908
O O7 0.232159 0.444899 0.427109
O O8 0.288203 0.338414 0.401603
O O9 0.750000 0.750000 0.834529
O O10 0.768064 0.829849 0.908376
O O11 0.000000 0.794059 0.859059
O O12 0.776604 0.500000 0.335703
O O13 0.000000 0.500000 0.402361
O O14 0.500000 0.000000 0.267665
O O15 0.783662 0.559989 0.913516
O O16 0.000000 0.500000 0.948957
O O17 0.753781 0.500000 0.000000
O O18 0.250000 0.250000 0.340169
O O19 0.000000 0.203059 0.339860
O O20 0.000000 0.364573 0.922183
O O21 0.193399 0.373685 0.000000
#
# Coordination Sequence:
#
# PCOD8273460 Si02
#       8
#    16  16  16   8   8   8  16  16
#     4  10  22  41  62  84 113 151 189 230 287 346
#     4  10  21  37  58  83 112 152 196 233 281 347
#     4  11  24  40  59  84 114 151 195 240 287 340
#     4  11  22  36  56  87 119 147 184 235 291 339
#     4  11  23  37  61  93 118 145 186 234 284 341
#     4   7  12  27  53  82 109 141 182 224 269 324
#     4  10  21  37  58  81 109 148 191 236 284 336
#     4   9  18  35  60  88 119 156 195 236 285 340
#
# _framework density 19.381636
#
# number of rings (size 3 to 8) (size 9 to 14) (size 15 to 20)
#    0.000    2.077    1.538    2.538    0.000    5.846 
#    0.000    1.923    0.000    1.385    0.000    0.000 
#    0.000    0.000    0.000    0.000    0.000    0.000 
#
# Total GULP energy -644828.026638 kJ/mol
# GULP energy per Si atom -12400.538974 kJ/mol
# Density = 1.933752 g / cm^3
# Si number density = 19.381636 Si / 1000 Ang^3
#
#
#
# Elastic Constant Matrix: (Units=GPa)
#
#
# Indices 1 2 3 4 5 6 
#
# 1 79.8202 64.7854 45.3251 0.0000 0.0000 0.0000
# 2 64.7854 140.3575 46.5507 0.0000 0.0000 0.0000
# 3 45.3251 46.5507 89.0261 0.0000 0.0000 0.0000
# 4 0.0000 0.0000 0.0000 23.6916 0.0000 0.0000
# 5 0.0000 0.0000 0.0000 0.0000 25.7099 0.0000
# 6 0.0000 0.0000 0.0000 0.0000 0.0000 35.2062
#
#
#
# Elastic Compliance Matrix: (Units=1/GPa)
#
#
# Indices 1 2 3 4 5 6 
#
# 1 0.023700 -0.008393 -0.007678 0.000000 0.000000 0.000000
# 2 -0.008393 0.011592 -0.001788 0.000000 0.000000 0.000000
# 3 -0.007678 -0.001788 0.016076 0.000000 0.000000 0.000000
# 4 0.000000 0.000000 0.000000 0.042209 0.000000 0.000000
# 5 0.000000 0.000000 0.000000 0.000000 0.038896 0.000000
# 6 0.000000 0.000000 0.000000 0.000000 0.000000 0.028404
#
#
# Mechanical properties :
#
#
# Convention : Reuss Voigt Hill
#
# Bulk Modulus (GPa) = 63.89457 69.16958 66.53208
# Shear Modulus (GPa) = 24.77569 27.09103 25.93336
#
# Velocity S-wave (km/s) = 3.57922 3.74273 3.66189
# Velocity P-wave (km/s) = 7.07949 7.37855 7.23057
#
# Compressibility (1/GPa) = 0.01565078
#
# Stress axis : x y z
#
# Youngs Moduli (GPa) = 42.19447 86.26888 62.20280
#
# Poissons Ratio (x) = 0.72405 0.47756
# Poissons Ratio (y) = 0.35413 0.11123
# Poissons Ratio (z) = 0.32395 0.15426
#
# Static dielectric constant tensor:
#      x y z
#    x 3.388820 0.000000 0.000000 
#    y 0.000000 3.638620 0.000000 
#    z 0.000000 0.000000 3.533840 
# 
# 
# High freq. dielectric constant tensor:
#      x y z
#    x 1.741960 0.000000 0.000000 
#    y 0.000000 1.762680 0.000000 
#    z 0.000000 0.000000 1.755200 
# 
# From -- ./inp_files/73392.got.cif
#   From: 2010.03.12/outbox.cif.g09.slc.cpg/sg65_37_cif.got.tgz:73392.got - 2010.04.10 20:52:16.
