data_PCOD8273013
_publ_section_title
;
Structure prediction by ZEFSAII (Michael W. Deem and Ramdas Pophale) SiO2 
 PCOD8273013
Probable space group: C M M M
;
_chemical_formula_sum "Si O2"
_cell_formula_units_Z 96
_cell_length_a 14.139926
_cell_length_b 15.085887
_cell_length_c 22.381712
_cell_angle_alpha 90.000000
_cell_angle_beta 90.000000
_cell_angle_gamma 90.000000
_cell_volume 4774.317424
_symmetry_space_group_name_H-M "C M M M"
_symmetry_group_IT_number 65
_symmetry_cell_setting 'orthorhombic'
loop_
_space_group_symop_operation_xyz
x,y,z
-x,-y,z
x,-y,-z
-x,y,-z
-x,-y,-z
x,y,-z
-x,y,z
x,-y,z
1/2+x,1/2+y,z
1/2-x,1/2-y,z
1/2+x,1/2-y,-z
1/2-x,1/2+y,-z
1/2-x,1/2-y,-z
1/2+x,1/2+y,-z
1/2-x,1/2+y,z
1/2+x,1/2-y,z
loop_
_atom_site_type_symbol
_atom_site_label
_atom_site_fract_x
_atom_site_fract_y
_atom_site_fract_z
Si Si1 0.750000 0.145655 0.566691
Si Si2 0.750000 0.653743 0.759640
Si Si3 0.395465 0.601984 0.663667
Si Si4 0.890590 0.250000 0.070677
Si Si5 0.250000 0.601934 0.113074
Si Si6 0.395465 0.101984 0.336333
O O1 0.750000 0.105065 0.500000
O O2 0.750000 0.250000 0.564278
O O3 0.843530 0.113522 0.600556
O O4 0.656470 0.113522 0.600556
O O5 0.750000 0.750000 0.790211
O O6 0.658203 0.647798 0.718020
O O7 0.750000 0.586855 0.815099
O O8 0.841797 0.647799 0.718020
O O9 0.500000 0.643465 0.658101
O O10 0.400145 0.500000 0.680272
O O11 0.842268 0.341242 0.093839
O O12 0.842268 0.158758 0.093839
O O13 0.000000 0.250000 0.091448
O O14 0.880934 0.250000 0.000000
O O15 0.250000 0.500000 0.086550
O O16 0.500000 0.143465 0.341900
O O17 0.400145 0.000000 0.319728
#
# Coordination Sequence:
#
# PCOD8273013 Si02
#       6
#    16  16  16  16  16  16
#     4  10  21  36  54  76 104 140 184 233 283 342
#     4  11  21  37  58  83 117 152 189 237 291 347
#     4  10  21  36  55  80 109 143 184 232 289 349
#     4  10  23  43  64  93 131 166 207 257 306 360
#     4  11  22  40  65  93 126 166 211 257 306 363
#     4  10  21  36  55  80 109 143 184 232 289 349
#
# _framework density 20.107586000000001
#
# number of rings (size 3 to 8) (size 9 to 14) (size 15 to 20)
#    0.000    1.667    1.667    6.000    0.000    8.000 
#    0.000    5.000    0.000    0.000    0.000    0.000 
#    0.000    0.000    0.000    0.000    0.000    0.000 
#
# Total GULP energy -594993.774408 kJ/mol
# GULP energy per Si atom -12395.703634 kJ/mol
# Density = 2.006182 g / cm^3
# Si number density = 20.107586 Si / 1000 Ang^3
#
#
#
# Elastic Constant Matrix: (Units=GPa)
#
#
# Indices 1 2 3 4 5 6 
#
# 1 192.1539 39.8621 55.4820 0.0000 0.0000 0.0000
# 2 39.8621 122.5373 16.4020 0.0000 0.0000 0.0000
# 3 55.4820 16.4020 120.2304 0.0000 0.0000 0.0000
# 4 0.0000 0.0000 0.0000 19.9179 0.0000 0.0000
# 5 0.0000 0.0000 0.0000 0.0000 7.4444 0.0000
# 6 0.0000 0.0000 0.0000 0.0000 0.0000 20.1524
#
#
#
# Elastic Compliance Matrix: (Units=1/GPa)
#
#
# Indices 1 2 3 4 5 6 
#
# 1 0.006334 -0.001700 -0.002691 0.000000 0.000000 0.000000
# 2 -0.001700 0.008769 -0.000412 0.000000 0.000000 0.000000
# 3 -0.002691 -0.000412 0.009615 0.000000 0.000000 0.000000
# 4 0.000000 0.000000 0.000000 0.050206 0.000000 0.000000
# 5 0.000000 0.000000 0.000000 0.000000 0.134329 0.000000
# 6 0.000000 0.000000 0.000000 0.000000 0.000000 0.049622
#
#
# Mechanical properties :
#
#
# Convention : Reuss Voigt Hill
#
# Bulk Modulus (GPa) = 66.17050 73.15708 69.66379
# Shear Modulus (GPa) = 18.28031 31.04797 24.66414
#
# Velocity S-wave (km/s) = 3.01844 3.93376 3.50610
# Velocity P-wave (km/s) = 6.71771 7.55608 7.14920
#
# Compressibility (1/GPa) = 0.01511247
#
# Stress axis : x y z
#
# Youngs Moduli (GPa) = 157.88217 114.03823 104.00123
#
# Poissons Ratio (x) = 0.19389 0.27986
# Poissons Ratio (y) = 0.26844 0.04281
# Poissons Ratio (z) = 0.42484 0.04695
#
# Static dielectric constant tensor:
#      x y z
#    x 4.086920 0.000000 0.000000 
#    y 0.000000 3.716390 0.000000 
#    z 0.000000 0.000000 3.733090 
# 
# 
# High freq. dielectric constant tensor:
#      x y z
#    x 1.783560 0.000000 0.000000 
#    y 0.000000 1.795010 0.000000 
#    z 0.000000 0.000000 1.787270 
# 
# From -- ./inp_files/62638.got.cif
#   From: 2010.03.12/outbox.cif.g09.slc.cpg/sg65_32_cif.got.tgz:62638.got - 2010.04.10 20:52:16.
