data_PCOD8273037
_publ_section_title
;
Structure prediction by ZEFSAII (Michael W. Deem and Ramdas Pophale) SiO2 
 PCOD8273037
Probable space group: C M M M
;
_chemical_formula_sum "Si O2"
_cell_formula_units_Z 88
_cell_length_a 19.342921
_cell_length_b 9.061072
_cell_length_c 27.139591
_cell_angle_alpha 90.000000
_cell_angle_beta 90.000000
_cell_angle_gamma 90.000000
_cell_volume 4756.690976
_symmetry_space_group_name_H-M "C M M M"
_symmetry_group_IT_number 65
_symmetry_cell_setting 'orthorhombic'
loop_
_space_group_symop_operation_xyz
x,y,z
-x,-y,z
x,-y,-z
-x,y,-z
-x,-y,-z
x,y,-z
-x,y,z
x,-y,z
1/2+x,1/2+y,z
1/2-x,1/2-y,z
1/2+x,1/2-y,-z
1/2-x,1/2+y,-z
1/2-x,1/2-y,-z
1/2+x,1/2+y,-z
1/2-x,1/2+y,z
1/2+x,1/2-y,z
loop_
_atom_site_type_symbol
_atom_site_label
_atom_site_fract_x
_atom_site_fract_y
_atom_site_fract_z
Si Si1 0.579613 0.328379 0.077984
Si Si2 0.680694 0.172374 0.261006
Si Si3 0.919699 0.165915 0.191548
Si Si4 0.680473 0.172659 0.373221
Si Si5 0.580911 0.332068 0.555832
Si Si6 0.325377 0.176177 0.000000
O O1 0.500000 0.289147 0.065003
O O2 0.593208 0.500000 0.065663
O O3 0.594953 0.294736 0.134904
O O4 0.631822 0.226520 0.047783
O O5 0.750000 0.250000 0.241965
O O6 0.617987 0.219128 0.226532
O O7 0.663918 0.219452 0.317081
O O8 0.692253 0.000000 0.256368
O O9 0.000000 0.179657 0.203266
O O10 0.893908 0.000000 0.202809
O O11 0.750000 0.250000 0.392154
O O12 0.617440 0.221236 0.407109
O O13 0.691458 0.000000 0.378261
O O14 0.604193 0.297155 0.500000
O O15 0.500000 0.305908 0.561575
O O16 0.600310 0.500000 0.569412
O O17 0.250000 0.250000 0.000000
O O18 0.317135 0.000000 0.000000
#
# Coordination Sequence:
#
# PCOD8273037 Si02
#       6
#    16  16  16  16  16   8
#     4   9  19  38  61  82 108 142 177 216 264 316
#     4  10  21  36  54  77 107 142 178 219 265 312
#     4   9  19  36  58  83 109 140 178 216 259 315
#     4  10  21  36  54  77 105 139 179 219 262 313
#     4   9  19  36  56  78 105 137 173 214 262 315
#     4  12  25  38  55  81 111 143 181 222 265 314
#
# _framework density 18.500254999999999
#
# number of rings (size 3 to 8) (size 9 to 14) (size 15 to 20)
#    0.000    2.364    0.000    3.818    0.000    7.273 
#    0.000    6.364    0.000    0.000    0.000    0.000 
#    0.000    0.000    0.000    0.000    0.000    0.000 
#
# Total GULP energy -545694.840390 kJ/mol
# GULP energy per Si atom -12402.155463 kJ/mol
# Density = 1.845815 g / cm^3
# Si number density = 18.500255 Si / 1000 Ang^3
#
#
#
# Elastic Constant Matrix: (Units=GPa)
#
#
# Indices 1 2 3 4 5 6 
#
# 1 92.8582 54.3193 60.0915 0.0000 0.0000 0.0000
# 2 54.3193 93.5172 50.0262 0.0000 0.0000 0.0000
# 3 60.0915 50.0262 91.3140 0.0000 0.0000 0.0000
# 4 0.0000 0.0000 0.0000 35.7435 0.0000 0.0000
# 5 0.0000 0.0000 0.0000 0.0000 53.0778 0.0000
# 6 0.0000 0.0000 0.0000 0.0000 0.0000 38.8571
#
#
#
# Elastic Compliance Matrix: (Units=1/GPa)
#
#
# Indices 1 2 3 4 5 6 
#
# 1 0.021558 -0.006978 -0.010364 0.000000 0.000000 0.000000
# 2 -0.006978 0.017385 -0.004932 0.000000 0.000000 0.000000
# 3 -0.010364 -0.004932 0.020474 0.000000 0.000000 0.000000
# 4 0.000000 0.000000 0.000000 0.027977 0.000000 0.000000
# 5 0.000000 0.000000 0.000000 0.000000 0.018840 0.000000
# 6 0.000000 0.000000 0.000000 0.000000 0.000000 0.025735
#
#
# Mechanical properties :
#
#
# Convention : Reuss Voigt Hill
#
# Bulk Modulus (GPa) = 67.25758 67.39591 67.32675
# Shear Modulus (GPa) = 27.55241 33.08584 30.31913
#
# Velocity S-wave (km/s) = 3.86333 4.23353 4.05266
# Velocity P-wave (km/s) = 7.50562 7.77212 7.64003
#
# Compressibility (1/GPa) = 0.01486821
#
# Stress axis : x y z
#
# Youngs Moduli (GPa) = 46.38735 57.52193 48.84337
#
# Poissons Ratio (x) = 0.40137 0.50621
# Poissons Ratio (y) = 0.32367 0.24091
# Poissons Ratio (z) = 0.48075 0.28372
#
# Static dielectric constant tensor:
#      x y z
#    x 3.326970 0.000000 0.000000 
#    y 0.000000 3.355550 0.000000 
#    z 0.000000 0.000000 3.434410 
# 
# 
# High freq. dielectric constant tensor:
#      x y z
#    x 1.717170 0.000000 0.000000 
#    y 0.000000 1.717810 0.000000 
#    z 0.000000 0.000000 1.722750 
# 
# From -- ./inp_files/67466.got.cif
#   From: 2010.03.12/outbox.cif.g09.slc.cpg/sg65_34_cif.got.tgz:67466.got - 2010.04.10 20:52:16.
