data_PCOD8273804
_publ_section_title
;
Structure prediction by ZEFSAII (Michael W. Deem and Ramdas Pophale) SiO2 
 PCOD8273804
Probable space group: C M M M
;
_chemical_formula_sum "Si O2"
_cell_formula_units_Z 80
_cell_length_a 8.752632
_cell_length_b 31.438451
_cell_length_c 14.493494
_cell_angle_alpha 90.000000
_cell_angle_beta 90.000000
_cell_angle_gamma 90.000000
_cell_volume 3988.163037
_symmetry_space_group_name_H-M "C M M M"
_symmetry_group_IT_number 65
_symmetry_cell_setting 'orthorhombic'
loop_
_space_group_symop_operation_xyz
x,y,z
-x,-y,z
x,-y,-z
-x,y,-z
-x,-y,-z
x,y,-z
-x,y,z
x,-y,z
1/2+x,1/2+y,z
1/2-x,1/2-y,z
1/2+x,1/2-y,-z
1/2-x,1/2+y,-z
1/2-x,1/2-y,-z
1/2+x,1/2+y,-z
1/2-x,1/2+y,z
1/2+x,1/2-y,z
loop_
_atom_site_type_symbol
_atom_site_label
_atom_site_fract_x
_atom_site_fract_y
_atom_site_fract_z
Si Si1 0.180934 0.081641 0.099611
Si Si2 0.681957 0.453302 0.711285
Si Si3 0.679085 0.793061 0.284060
Si Si4 0.818925 0.129069 0.605347
Si Si5 0.822446 0.179339 0.895905
O O1 0.246927 0.054573 0.185037
O O2 0.226943 0.130451 0.114165
O O3 0.000000 0.077944 0.097230
O O4 0.245519 0.065436 0.000000
O O5 0.500000 0.452079 0.713571
O O6 0.738960 0.500000 0.678082
O O7 0.741316 0.416595 0.642649
O O8 0.500000 0.791929 0.298497
O O9 0.750000 0.750000 0.327105
O O10 0.746213 0.833560 0.335892
O O11 0.720393 0.794236 0.175507
O O12 0.765895 0.133326 0.500000
O O13 0.000000 0.132168 0.615750
O O14 0.000000 0.185298 0.870234
O O15 0.789948 0.195438 0.000000
#
# Coordination Sequence:
#
# PCOD8273804 Si02
#       5
#    16  16  16  16  16
#     4   8  13  23  44  75 112 151 186 225 273 323
#     4   9  16  27  49  83 119 151 187 232 282 337
#     4  12  25  40  61  86 115 149 189 237 287 348
#     4  10  21  39  61  83 113 150 190 241 296 346
#     4   9  17  33  58  85 117 156 194 233 278 331
#
# _framework density 20.059360999999999
#
# number of rings (size 3 to 8) (size 9 to 14) (size 15 to 20)
#    0.000    2.400    2.000    3.000    0.000    2.400 
#    0.000    4.000    0.000    0.600    0.000    1.400 
#    0.000    3.200    0.000    0.000    0.000    0.000 
#
# Total GULP energy -495794.828966 kJ/mol
# GULP energy per Si atom -12394.870724 kJ/mol
# Density = 2.001371 g / cm^3
# Si number density = 20.059361 Si / 1000 Ang^3
#
#
#
# Elastic Constant Matrix: (Units=GPa)
#
#
# Indices 1 2 3 4 5 6 
#
# 1 28.5945 25.4826 27.2231 0.0000 0.0000 0.0000
# 2 25.4826 137.8369 58.8646 0.0000 0.0000 0.0000
# 3 27.2231 58.8646 122.1939 0.0000 0.0000 0.0000
# 4 0.0000 0.0000 0.0000 8.9913 0.0000 0.0000
# 5 0.0000 0.0000 0.0000 0.0000 16.3197 0.0000
# 6 0.0000 0.0000 0.0000 0.0000 0.0000 16.6863
#
#
#
# Elastic Compliance Matrix: (Units=1/GPa)
#
#
# Indices 1 2 3 4 5 6 
#
# 1 0.047321 -0.005346 -0.007967 0.000000 0.000000 0.000000
# 2 -0.005346 0.009738 -0.003500 0.000000 0.000000 0.000000
# 3 -0.007967 -0.003500 0.011645 0.000000 0.000000 0.000000
# 4 0.000000 0.000000 0.000000 0.111219 0.000000 0.000000
# 5 0.000000 0.000000 0.000000 0.000000 0.061276 0.000000
# 6 0.000000 0.000000 0.000000 0.000000 0.000000 0.059929
#
#
# Mechanical properties :
#
#
# Convention : Reuss Voigt Hill
#
# Bulk Modulus (GPa) = 28.50845 56.86287 42.68566
# Shear Modulus (GPa) = 14.43223 20.20312 17.31767
#
# Velocity S-wave (km/s) = 2.68522 3.17703 2.94142
# Velocity P-wave (km/s) = 4.88434 6.47046 5.73252
#
# Compressibility (1/GPa) = 0.03507732
#
# Stress axis : x y z
#
# Youngs Moduli (GPa) = 21.13229 102.68998 85.87538
#
# Poissons Ratio (x) = 0.54898 0.68418
# Poissons Ratio (y) = 0.11297 0.30057
# Poissons Ratio (z) = 0.16836 0.35943
#
# Static dielectric constant tensor:
#      x y z
#    x 3.077520 0.000000 0.000000 
#    y 0.000000 3.832520 0.000000 
#    z 0.000000 0.000000 4.067600 
# 
# 
# High freq. dielectric constant tensor:
#      x y z
#    x 1.721740 0.000000 0.000000 
#    y 0.000000 1.788480 0.000000 
#    z 0.000000 0.000000 1.788760 
# 
# From -- ./inp_files/50146.got.cif
#   From: 2010.03.12/outbox.cif.g09.slc.cpg/sg65_26_cif.got.tgz:50146.got - 2010.04.10 20:52:16.
