data_PCOD8273001
_publ_section_title
;
Structure prediction by ZEFSAII (Michael W. Deem and Ramdas Pophale) SiO2 
 PCOD8273001
Probable space group: C M M M
;
_chemical_formula_sum "Si O2"
_cell_formula_units_Z 72
_cell_length_a 19.302868
_cell_length_b 8.905772
_cell_length_c 23.081038
_cell_angle_alpha 90.000000
_cell_angle_beta 90.000000
_cell_angle_gamma 90.000000
_cell_volume 3967.790646
_symmetry_space_group_name_H-M "C M M M"
_symmetry_group_IT_number 65
_symmetry_cell_setting 'orthorhombic'
loop_
_space_group_symop_operation_xyz
x,y,z
-x,-y,z
x,-y,-z
-x,y,-z
-x,-y,-z
x,y,-z
-x,y,z
x,-y,z
1/2+x,1/2+y,z
1/2-x,1/2-y,z
1/2+x,1/2-y,-z
1/2-x,1/2+y,-z
1/2-x,1/2-y,-z
1/2+x,1/2+y,-z
1/2-x,1/2+y,z
1/2+x,1/2-y,z
loop_
_atom_site_type_symbol
_atom_site_label
_atom_site_fract_x
_atom_site_fract_y
_atom_site_fract_z
Si Si1 0.580858 0.324011 0.686129
Si Si2 0.322163 0.822956 0.908412
Si Si3 0.918772 0.823030 0.000000
Si Si4 0.917729 0.170010 0.438785
Si Si5 0.179506 0.674826 0.774889
O O1 0.500000 0.293818 0.693417
O O2 0.597734 0.500000 0.691317
O O3 0.607554 0.260630 0.622777
O O4 0.616647 0.234001 0.737052
O O5 0.250000 0.750000 0.929299
O O6 0.385342 0.750132 0.943073
O O7 0.335934 0.784638 0.841444
O O8 0.318818 0.000000 0.920444
O O9 0.000000 0.785494 0.000000
O O10 0.904947 0.000000 0.000000
O O11 0.892870 0.249515 0.500000
O O12 0.000000 0.170957 0.436895
O O13 0.890948 0.000000 0.440834
O O14 0.187975 0.500000 0.765607
O O15 0.250000 0.750000 0.753192
#
# Coordination Sequence:
#
# PCOD8273001 Si02
#       5
#    16  16   8  16  16
#     4   9  17  29  48  75 104 133 165 205 254 303
#     4  10  21  38  59  79 101 133 172 210 248 295
#     4  11  24  39  56  81 111 139 166 201 246 291
#     4   7  10  19  38  65  95 126 162 202 243 292
#     4  10  21  36  54  75 100 133 171 210 251 296
#
# _framework density 18.146118999999999
#
# number of rings (size 3 to 8) (size 9 to 14) (size 15 to 20)
#    0.000    2.778    0.000    4.000    0.000    4.889 
#    0.000    4.444    0.000    1.333    0.000    3.111 
#    0.000    0.000    0.000    0.000    0.000    0.000 
#
# Total GULP energy -446022.260177 kJ/mol
# GULP energy per Si atom -12389.507227 kJ/mol
# Density = 1.810482 g / cm^3
# Si number density = 18.146119 Si / 1000 Ang^3
#
#
#
# Elastic Constant Matrix: (Units=GPa)
#
#
# Indices 1 2 3 4 5 6 
#
# 1 71.3918 44.2072 59.2553 0.0000 0.0000 0.0000
# 2 44.2072 71.2547 50.9961 0.0000 0.0000 0.0000
# 3 59.2553 50.9961 131.0224 0.0000 0.0000 0.0000
# 4 0.0000 0.0000 0.0000 15.8977 0.0000 0.0000
# 5 0.0000 0.0000 0.0000 0.0000 3.8075 0.0000
# 6 0.0000 0.0000 0.0000 0.0000 0.0000 29.0025
#
#
#
# Elastic Compliance Matrix: (Units=1/GPa)
#
#
# Indices 1 2 3 4 5 6 
#
# 1 0.027858 -0.011458 -0.008139 0.000000 0.000000 0.000000
# 2 -0.011458 0.024166 -0.004224 0.000000 0.000000 0.000000
# 3 -0.008139 -0.004224 0.012957 0.000000 0.000000 0.000000
# 4 0.000000 0.000000 0.000000 0.062902 0.000000 0.000000
# 5 0.000000 0.000000 0.000000 0.000000 0.262641 0.000000
# 6 0.000000 0.000000 0.000000 0.000000 0.000000 0.034480
#
#
# Mechanical properties :
#
#
# Convention : Reuss Voigt Hill
#
# Bulk Modulus (GPa) = 57.67429 64.73178 61.20304
# Shear Modulus (GPa) = 10.45095 17.68890 14.06992
#
# Velocity S-wave (km/s) = 2.40246 3.12557 2.78756
# Velocity P-wave (km/s) = 6.28872 6.98395 6.64543
#
# Compressibility (1/GPa) = 0.01733875
#
# Stress axis : x y z
#
# Youngs Moduli (GPa) = 35.89656 41.38069 77.17771
#
# Poissons Ratio (x) = 0.47415 0.62815
# Poissons Ratio (y) = 0.41131 0.32598
# Poissons Ratio (z) = 0.29216 0.17478
#
# Static dielectric constant tensor:
#      x y z
#    x 3.064860 0.000000 0.000000 
#    y 0.000000 3.166870 0.000000 
#    z 0.000000 0.000000 3.871450 
# 
# 
# High freq. dielectric constant tensor:
#      x y z
#    x 1.671600 0.000000 0.000000 
#    y 0.000000 1.682630 0.000000 
#    z 0.000000 0.000000 1.729560 
# 
# From -- ./inp_files/70327.got.cif
#   From: 2010.03.12/outbox.cif.g09.slc.cpg/sg65_36_cif.got.tgz:70327.got - 2010.04.10 20:52:16.
