data_PCOD8273313
_publ_section_title
;
Structure prediction by ZEFSAII (Michael W. Deem and Ramdas Pophale) SiO2 
 PCOD8273313
Probable space group: C M M M
;
_chemical_formula_sum "Si O2"
_cell_formula_units_Z 80
_cell_length_a 8.861790
_cell_length_b 18.953423
_cell_length_c 25.870161
_cell_angle_alpha 90.000000
_cell_angle_beta 90.000000
_cell_angle_gamma 90.000000
_cell_volume 4345.184693
_symmetry_space_group_name_H-M "C M M M"
_symmetry_group_IT_number 65
_symmetry_cell_setting 'orthorhombic'
loop_
_space_group_symop_operation_xyz
x,y,z
-x,-y,z
x,-y,-z
-x,y,-z
-x,-y,-z
x,y,-z
-x,y,z
x,-y,z
1/2+x,1/2+y,z
1/2-x,1/2-y,z
1/2+x,1/2-y,-z
1/2-x,1/2+y,-z
1/2-x,1/2-y,-z
1/2+x,1/2+y,-z
1/2-x,1/2+y,z
1/2+x,1/2-y,z
loop_
_atom_site_type_symbol
_atom_site_label
_atom_site_fract_x
_atom_site_fract_y
_atom_site_fract_z
Si Si1 0.680831 0.921360 0.610456
Si Si2 0.678741 0.176902 0.299484
Si Si3 0.823103 0.418156 0.089590
Si Si4 0.324198 0.822803 0.816184
Si Si5 0.178893 0.827831 0.000000
Si Si6 0.666383 0.915752 0.500000
O O1 0.500000 0.919761 0.608402
O O2 0.744143 0.877677 0.658784
O O3 0.744995 0.892669 0.554531
O O4 0.740108 0.000000 0.619866
O O5 0.500000 0.181646 0.302635
O O6 0.750000 0.250000 0.315900
O O7 0.731053 0.155842 0.241416
O O8 0.773220 0.500000 0.087238
O O9 0.784302 0.387737 0.146257
O O10 0.000000 0.410774 0.076735
O O11 0.729169 0.372021 0.049620
O O12 0.500000 0.807179 0.816214
O O13 0.250000 0.750000 0.835568
O O14 0.250000 0.750000 0.000000
O O15 0.000000 0.819139 0.000000
O O16 0.500000 0.882224 0.500000
O O17 0.654278 0.000000 0.500000
#
# Coordination Sequence:
#
# PCOD8273313 Si02
#       6
#    16  16  16  16   8   8
#     4   8  13  22  39  62  86 114 151 194 235 276
#     4   9  17  29  45  66  93 123 155 193 236 281
#     4  10  21  37  56  79 107 134 161 200 248 291
#     4   9  18  32  50  71  95 127 163 196 234 283
#     4  12  25  40  59  81 105 135 171 204 237 284
#     4   7  10  18  33  56  85 113 144 187 236 278
#
# _framework density 18.411183999999999
#
# number of rings (size 3 to 8) (size 9 to 14) (size 15 to 20)
#    0.000    2.900    0.000    3.000    0.000    4.800 
#    0.000    4.500    0.000    0.600    0.000    5.600 
#    0.000    2.400    0.000    0.000    0.000    0.000 
#
# Total GULP energy -495621.462705 kJ/mol
# GULP energy per Si atom -12390.536568 kJ/mol
# Density = 1.836928 g / cm^3
# Si number density = 18.411184 Si / 1000 Ang^3
#
#
#
# Elastic Constant Matrix: (Units=GPa)
#
#
# Indices 1 2 3 4 5 6 
#
# 1 33.5165 35.5673 34.8538 0.0000 0.0000 0.0000
# 2 35.5673 135.7821 93.9617 0.0000 0.0000 0.0000
# 3 34.8538 93.9617 153.4583 0.0000 0.0000 0.0000
# 4 0.0000 0.0000 0.0000 41.3853 0.0000 0.0000
# 5 0.0000 0.0000 0.0000 0.0000 8.7638 0.0000
# 6 0.0000 0.0000 0.0000 0.0000 0.0000 23.7518
#
#
#
# Elastic Compliance Matrix: (Units=1/GPa)
#
#
# Indices 1 2 3 4 5 6 
#
# 1 0.043452 -0.007900 -0.005032 0.000000 0.000000 0.000000
# 2 -0.007900 0.014216 -0.006910 0.000000 0.000000 0.000000
# 3 -0.005032 -0.006910 0.011890 0.000000 0.000000 0.000000
# 4 0.000000 0.000000 0.000000 0.024163 0.000000 0.000000
# 5 0.000000 0.000000 0.000000 0.000000 0.114106 0.000000
# 6 0.000000 0.000000 0.000000 0.000000 0.000000 0.042102
#
#
# Mechanical properties :
#
#
# Convention : Reuss Voigt Hill
#
# Bulk Modulus (GPa) = 33.47339 72.39137 52.93238
# Shear Modulus (GPa) = 16.69052 25.33845 21.01448
#
# Velocity S-wave (km/s) = 3.01415 3.71381 3.38212
# Velocity P-wave (km/s) = 5.50763 7.60227 6.63809
#
# Compressibility (1/GPa) = 0.02987448
#
# Stress axis : x y z
#
# Youngs Moduli (GPa) = 23.01392 70.34403 84.10257
#
# Poissons Ratio (x) = 0.55571 0.42319
# Poissons Ratio (y) = 0.18181 0.58115
# Poissons Ratio (z) = 0.11580 0.48608
#
# Static dielectric constant tensor:
#      x y z
#    x 3.007110 0.000000 0.000000 
#    y 0.000000 3.285800 0.000000 
#    z 0.000000 0.000000 4.003290 
# 
# 
# High freq. dielectric constant tensor:
#      x y z
#    x 1.670680 0.000000 0.000000 
#    y 0.000000 1.699940 0.000000 
#    z 0.000000 0.000000 1.738850 
# 
# From -- ./inp_files/72962.got.cif
#   From: 2010.03.12/outbox.cif.g09.slc.cpg/sg65_37_cif.got.tgz:72962.got - 2010.04.10 20:52:16.
