data_PCOD8273973
_publ_section_title
;
Structure prediction by ZEFSAII (Michael W. Deem and Ramdas Pophale) SiO2 
 PCOD8273973
Probable space group: C M M M
;
_chemical_formula_sum "Si O2"
_cell_formula_units_Z 56
_cell_length_a 18.309590
_cell_length_b 9.786786
_cell_length_c 14.306830
_cell_angle_alpha 90.000000
_cell_angle_beta 90.000000
_cell_angle_gamma 90.000000
_cell_volume 2563.670040
_symmetry_space_group_name_H-M "C M M M"
_symmetry_group_IT_number 65
_symmetry_cell_setting 'orthorhombic'
loop_
_space_group_symop_operation_xyz
x,y,z
-x,-y,z
x,-y,-z
-x,y,-z
-x,-y,-z
x,y,-z
-x,y,z
x,-y,z
1/2+x,1/2+y,z
1/2-x,1/2-y,z
1/2+x,1/2-y,-z
1/2-x,1/2+y,-z
1/2-x,1/2-y,-z
1/2+x,1/2+y,-z
1/2-x,1/2+y,z
1/2+x,1/2-y,z
loop_
_atom_site_type_symbol
_atom_site_label
_atom_site_fract_x
_atom_site_fract_y
_atom_site_fract_z
Si Si1 0.319439 0.341270 0.890142
Si Si2 0.835717 0.732466 0.393004
Si Si3 0.919455 0.000000 0.389957
Si Si4 0.583442 0.148770 0.224944
O O1 0.309841 0.500000 0.858416
O O2 0.250000 0.250000 0.860205
O O3 0.388469 0.271183 0.840644
O O4 0.332877 0.334205 0.000000
O O5 0.854487 0.691357 0.500000
O O6 0.750000 0.750000 0.380461
O O7 0.873500 0.870867 0.358027
O O8 0.869420 0.626056 0.320286
O O9 0.927454 0.000000 0.500000
O O10 0.000000 0.000000 0.343519
O O11 0.500000 0.182974 0.251367
O O12 0.588471 0.000000 0.173841
#
# Coordination Sequence:
#
# PCOD8273973 Si02
#       4
#    16  16   8  16
#     4  10  22  42  70 100 128 162 206 260 321 386
#     4  10  22  38  61  89 121 164 217 272 326 387
#     4   9  18  34  56  84 116 154 206 265 324 384
#     4  11  25  41  60  91 130 172 216 265 321 379
#
# _framework density 21.843684
#
# number of rings (size 3 to 8) (size 9 to 14) (size 15 to 20)
#    0.000    1.857    0.000    2.571    4.000    5.143 
#    0.000    4.286    0.000    0.000    0.000    0.000 
#    0.000    0.000    0.000    0.000    0.000    0.000 
#
# Total GULP energy -347047.698004 kJ/mol
# GULP energy per Si atom -12394.560643 kJ/mol
# Density = 2.179397 g / cm^3
# Si number density = 21.843684 Si / 1000 Ang^3
#
#
#
# Elastic Constant Matrix: (Units=GPa)
#
#
# Indices 1 2 3 4 5 6 
#
# 1 148.4660 61.3951 35.5935 0.0000 0.0000 0.0000
# 2 61.3951 154.6997 37.2860 0.0000 0.0000 0.0000
# 3 35.5935 37.2860 64.2816 0.0000 0.0000 0.0000
# 4 0.0000 0.0000 0.0000 29.0872 0.0000 0.0000
# 5 0.0000 0.0000 0.0000 0.0000 71.4409 0.0000
# 6 0.0000 0.0000 0.0000 0.0000 0.0000 34.1289
#
#
#
# Elastic Compliance Matrix: (Units=1/GPa)
#
#
# Indices 1 2 3 4 5 6 
#
# 1 0.008600 -0.002633 -0.003234 0.000000 0.000000 0.000000
# 2 -0.002633 0.008321 -0.003368 0.000000 0.000000 0.000000
# 3 -0.003234 -0.003368 0.019301 0.000000 0.000000 0.000000
# 4 0.000000 0.000000 0.000000 0.034379 0.000000 0.000000
# 5 0.000000 0.000000 0.000000 0.000000 0.013998 0.000000
# 6 0.000000 0.000000 0.000000 0.000000 0.000000 0.029301
#
#
# Mechanical properties :
#
#
# Convention : Reuss Voigt Hill
#
# Bulk Modulus (GPa) = 56.33851 70.66626 63.50239
# Shear Modulus (GPa) = 36.15610 42.47625 39.31618
#
# Velocity S-wave (km/s) = 4.07285 4.41450 4.24711
# Velocity P-wave (km/s) = 6.92569 7.64230 7.29280
#
# Compressibility (1/GPa) = 0.01774985
#
# Stress axis : x y z
#
# Youngs Moduli (GPa) = 116.27916 120.17593 51.81004
#
# Poissons Ratio (x) = 0.31648 0.16757
# Poissons Ratio (y) = 0.30622 0.17452
# Poissons Ratio (z) = 0.37609 0.40480
#
# Static dielectric constant tensor:
#      x y z
#    x 3.951640 0.000000 0.000000 
#    y 0.000000 4.109390 0.000000 
#    z 0.000000 0.000000 3.773920 
# 
# 
# High freq. dielectric constant tensor:
#      x y z
#    x 1.863310 0.000000 0.000000 
#    y 0.000000 1.869830 0.000000 
#    z 0.000000 0.000000 1.847980 
# 
# From -- ./inp_files/43557.got.cif
#   From: 2010.03.12/outbox.cif.g09.slc.cpg/sg65_22_cif.got.tgz:43557.got - 2010.04.10 20:52:16.
