data_PCOD8273735
_publ_section_title
;
Structure prediction by ZEFSAII (Michael W. Deem and Ramdas Pophale) SiO2 
 PCOD8273735
Probable space group: C M M M
;
_chemical_formula_sum "Si O2"
_cell_formula_units_Z 104
_cell_length_a 28.838142
_cell_length_b 8.521825
_cell_length_c 20.412326
_cell_angle_alpha 90.000000
_cell_angle_beta 90.000000
_cell_angle_gamma 90.000000
_cell_volume 5016.402588
_symmetry_space_group_name_H-M "C M M M"
_symmetry_group_IT_number 65
_symmetry_cell_setting 'orthorhombic'
loop_
_space_group_symop_operation_xyz
x,y,z
-x,-y,z
x,-y,-z
-x,y,-z
-x,-y,-z
x,y,-z
-x,y,z
x,-y,z
1/2+x,1/2+y,z
1/2-x,1/2-y,z
1/2+x,1/2-y,-z
1/2-x,1/2+y,-z
1/2-x,1/2-y,-z
1/2+x,1/2+y,-z
1/2-x,1/2+y,z
1/2+x,1/2-y,z
loop_
_atom_site_type_symbol
_atom_site_label
_atom_site_fract_x
_atom_site_fract_y
_atom_site_fract_z
Si Si1 0.109648 0.319864 0.073318
Si Si2 0.947213 0.316931 0.673734
Si Si3 0.301943 0.684915 0.500000
Si Si4 0.299713 0.684706 0.881098
Si Si5 0.447262 0.679576 0.188884
Si Si6 0.857720 0.184127 0.627384
Si Si7 0.201599 0.316024 0.739846
O O1 0.105054 0.500000 0.094582
O O2 0.163096 0.268136 0.072644
O O3 0.082333 0.214946 0.124827
O O4 0.089777 0.294063 0.000000
O O5 0.943132 0.500000 0.659452
O O6 0.932502 0.284022 0.748954
O O7 0.912589 0.225212 0.624307
O O8 0.000000 0.257443 0.661393
O O9 0.297997 0.500000 0.500000
O O10 0.250000 0.750000 0.500000
O O11 0.331067 0.743019 0.562693
O O12 0.301421 0.500000 0.891595
O O13 0.250000 0.750000 0.902031
O O14 0.311352 0.725475 0.805958
O O15 0.500000 0.714929 0.169521
O O16 0.439431 0.500000 0.209480
O O17 0.838094 0.283614 0.687624
O O18 0.850267 0.000000 0.638405
O O19 0.206053 0.500000 0.754738
O O20 0.250000 0.250000 0.711334
#
# Coordination Sequence:
#
# PCOD8273735 Si02
#       7
#    16  16   8  16  16  16  16
#     4  11  24  40  57  79 110 149 191 233 281 340
#     4  10  21  38  61  89 118 149 189 236 286 338
#     4  10  24  42  61  86 119 159 198 237 279 332
#     4  11  22  38  59  82 110 144 185 235 288 341
#     4  10  21  38  61  88 117 149 186 233 288 341
#     4  11  22  38  59  85 117 154 195 235 283 337
#     4  11  21  35  56  84 115 146 185 233 286 340
#
# _framework density 20.731988999999999
#
# number of rings (size 3 to 8) (size 9 to 14) (size 15 to 20)
#    0.000    1.385    0.000    6.923    0.000    6.154 
#    0.000    1.923    0.000    2.308    0.000    0.000 
#    0.000    0.000    0.000    0.000    0.000    0.000 
#
# Total GULP energy -645020.332326 kJ/mol
# GULP energy per Si atom -12404.237160 kJ/mol
# Density = 2.068480 g / cm^3
# Si number density = 20.731989 Si / 1000 Ang^3
#
#
#
# Elastic Constant Matrix: (Units=GPa)
#
#
# Indices 1 2 3 4 5 6 
#
# 1 110.1989 15.2888 52.2586 0.0000 0.0000 0.0000
# 2 15.2888 54.1401 12.8570 0.0000 0.0000 0.0000
# 3 52.2586 12.8570 67.9832 0.0000 0.0000 0.0000
# 4 0.0000 0.0000 0.0000 23.9108 0.0000 0.0000
# 5 0.0000 0.0000 0.0000 0.0000 29.0732 0.0000
# 6 0.0000 0.0000 0.0000 0.0000 0.0000 37.4056
#
#
#
# Elastic Compliance Matrix: (Units=1/GPa)
#
#
# Indices 1 2 3 4 5 6 
#
# 1 0.014396 -0.001505 -0.010782 0.000000 0.000000 0.000000
# 2 -0.001505 0.019496 -0.002530 0.000000 0.000000 0.000000
# 3 -0.010782 -0.002530 0.023476 0.000000 0.000000 0.000000
# 4 0.000000 0.000000 0.000000 0.041822 0.000000 0.000000
# 5 0.000000 0.000000 0.000000 0.000000 0.034396 0.000000
# 6 0.000000 0.000000 0.000000 0.000000 0.000000 0.026734
#
#
# Mechanical properties :
#
#
# Convention : Reuss Voigt Hill
#
# Bulk Modulus (GPa) = 36.05603 43.68123 39.86863
# Shear Modulus (GPa) = 25.10046 28.20578 26.65312
#
# Velocity S-wave (km/s) = 3.48330 3.69249 3.58942
# Velocity P-wave (km/s) = 5.79716 6.26854 6.03745
#
# Compressibility (1/GPa) = 0.02773461
#
# Stress axis : x y z
#
# Youngs Moduli (GPa) = 69.46270 51.29127 42.59679
#
# Poissons Ratio (x) = 0.07719 0.45927
# Poissons Ratio (y) = 0.10454 0.10778
# Poissons Ratio (z) = 0.74893 0.12978
#
# Static dielectric constant tensor:
#      x y z
#    x 4.051450 0.000000 0.000000 
#    y 0.000000 3.704780 0.000000 
#    z 0.000000 0.000000 3.613080 
# 
# 
# High freq. dielectric constant tensor:
#      x y z
#    x 1.823500 0.000000 0.000000 
#    y 0.000000 1.819600 0.000000 
#    z 0.000000 0.000000 1.793620 
# 
# From -- ./inp_files/65933.got.cif
#   From: 2010.03.12/outbox.cif.g09.slc.cpg/sg65_33_cif.got.tgz:65933.got - 2010.04.10 20:52:16.
