data_PCOD8273426
_publ_section_title
;
Structure prediction by ZEFSAII (Michael W. Deem and Ramdas Pophale) SiO2 
 PCOD8273426
Probable space group: C M M M
;
_chemical_formula_sum "Si O2"
_cell_formula_units_Z 88
_cell_length_a 21.086075
_cell_length_b 8.934419
_cell_length_c 25.070785
_cell_angle_alpha 90.000000
_cell_angle_beta 90.000000
_cell_angle_gamma 90.000000
_cell_volume 4723.131044
_symmetry_space_group_name_H-M "C M M M"
_symmetry_group_IT_number 65
_symmetry_cell_setting 'orthorhombic'
loop_
_space_group_symop_operation_xyz
x,y,z
-x,-y,z
x,-y,-z
-x,y,-z
-x,-y,-z
x,y,-z
-x,y,z
x,-y,z
1/2+x,1/2+y,z
1/2-x,1/2-y,z
1/2+x,1/2-y,-z
1/2-x,1/2+y,-z
1/2-x,1/2-y,-z
1/2+x,1/2+y,-z
1/2-x,1/2+y,z
1/2+x,1/2-y,z
loop_
_atom_site_type_symbol
_atom_site_label
_atom_site_fract_x
_atom_site_fract_y
_atom_site_fract_z
Si Si1 0.573571 0.822864 0.214199
Si Si2 0.075787 0.669207 0.000000
Si Si3 0.814690 0.671560 0.500000
Si Si4 0.425257 0.667409 0.104760
Si Si5 0.000000 0.828945 0.559881
Si Si6 0.682251 0.677029 0.285425
Si Si7 0.631998 0.672003 0.400979
O O1 0.500000 0.778747 0.227553
O O2 0.592592 0.767864 0.155412
O O3 0.622923 0.744371 0.253610
O O4 0.582432 0.000000 0.217281
O O5 0.102917 0.753809 0.052060
O O6 0.101757 0.500000 0.000000
O O7 0.000000 0.668464 0.000000
O O8 0.802064 0.500000 0.500000
O O9 0.750000 0.750000 0.500000
O O10 0.849280 0.715630 0.446681
O O11 0.500000 0.655847 0.098535
O O12 0.396495 0.500000 0.110808
O O13 0.942673 0.793974 0.600288
O O14 0.000000 0.748035 0.500000
O O15 0.000000 0.000000 0.543814
O O16 0.685677 0.500000 0.274821
O O17 0.750000 0.750000 0.269434
O O18 0.667537 0.714661 0.346805
O O19 0.646714 0.500000 0.416329
#
# Coordination Sequence:
#
# PCOD8273426 Si02
#       7
#    16   8   8  16   8  16  16
#     4  10  21  37  57  82 115 151 188 235 290 343
#     4   9  15  23  39  67 106 149 188 229 284 339
#     4  12  24  37  56  79 107 140 178 222 273 330
#     4   9  16  27  45  72 107 146 190 235 280 334
#     4   9  16  32  60  86 112 142 174 211 262 329
#     4  11  24  40  61  84 112 147 191 238 283 339
#     4  10  21  38  60  84 111 143 180 222 271 329
#
# _framework density 18.631708
#
# number of rings (size 3 to 8) (size 9 to 14) (size 15 to 20)
#    0.000    2.000    0.909    3.273    1.273    7.273 
#    0.000    0.909    0.000    0.000    0.000    0.636 
#    0.000    0.000    0.000    0.000    0.000    0.000 
#
# Total GULP energy -545235.401812 kJ/mol
# GULP energy per Si atom -12391.713678 kJ/mol
# Density = 1.858930 g / cm^3
# Si number density = 18.631708 Si / 1000 Ang^3
#
#
#
# Elastic Constant Matrix: (Units=GPa)
#
#
# Indices 1 2 3 4 5 6 
#
# 1 98.1647 50.6563 45.5089 0.0000 0.0000 0.0000
# 2 50.6563 128.0758 64.1612 0.0000 0.0000 0.0000
# 3 45.5089 64.1612 112.0229 0.0000 0.0000 0.0000
# 4 0.0000 0.0000 0.0000 40.1543 0.0000 0.0000
# 5 0.0000 0.0000 0.0000 0.0000 18.9389 0.0000
# 6 0.0000 0.0000 0.0000 0.0000 0.0000 23.9579
#
#
#
# Elastic Compliance Matrix: (Units=1/GPa)
#
#
# Indices 1 2 3 4 5 6 
#
# 1 0.013688 -0.003686 -0.003450 0.000000 0.000000 0.000000
# 2 -0.003686 0.011942 -0.005343 0.000000 0.000000 0.000000
# 3 -0.003450 -0.005343 0.013388 0.000000 0.000000 0.000000
# 4 0.000000 0.000000 0.000000 0.024904 0.000000 0.000000
# 5 0.000000 0.000000 0.000000 0.000000 0.052801 0.000000
# 6 0.000000 0.000000 0.000000 0.000000 0.000000 0.041740
#
#
# Mechanical properties :
#
#
# Convention : Reuss Voigt Hill
#
# Bulk Modulus (GPa) = 71.11179 73.21293 72.16236
# Shear Modulus (GPa) = 26.58059 28.47268 27.52663
#
# Velocity S-wave (km/s) = 3.78118 3.91344 3.84788
# Velocity P-wave (km/s) = 7.57053 7.73305 7.65223
#
# Compressibility (1/GPa) = 0.01406237
#
# Stress axis : x y z
#
# Youngs Moduli (GPa) = 73.05544 83.73777 74.69302
#
# Poissons Ratio (x) = 0.30863 0.25768
# Poissons Ratio (y) = 0.26926 0.39905
# Poissons Ratio (z) = 0.25203 0.44737
#
# Static dielectric constant tensor:
#      x y z
#    x 3.598500 0.000000 0.000000 
#    y 0.000000 3.429160 0.000000 
#    z 0.000000 0.000000 3.526290 
# 
# 
# High freq. dielectric constant tensor:
#      x y z
#    x 1.695260 0.000000 0.000000 
#    y 0.000000 1.727590 0.000000 
#    z 0.000000 0.000000 1.727090 
# 
# From -- ./inp_files/71059.got.cif
#   From: 2010.03.12/outbox.cif.g09.slc.cpg/sg65_36_cif.got.tgz:71059.got - 2010.04.10 20:52:16.
