data_PCOD8273590
_publ_section_title
;
Structure prediction by ZEFSAII (Michael W. Deem and Ramdas Pophale) SiO2 
 PCOD8273590
Probable space group: C M M M
;
_chemical_formula_sum "Si O2"
_cell_formula_units_Z 96
_cell_length_a 14.800612
_cell_length_b 14.305970
_cell_length_c 22.711372
_cell_angle_alpha 90.000000
_cell_angle_beta 90.000000
_cell_angle_gamma 90.000000
_cell_volume 4808.840300
_symmetry_space_group_name_H-M "C M M M"
_symmetry_group_IT_number 65
_symmetry_cell_setting 'orthorhombic'
loop_
_space_group_symop_operation_xyz
x,y,z
-x,-y,z
x,-y,-z
-x,y,-z
-x,-y,-z
x,y,-z
-x,y,z
x,-y,z
1/2+x,1/2+y,z
1/2-x,1/2-y,z
1/2+x,1/2-y,-z
1/2-x,1/2+y,-z
1/2-x,1/2-y,-z
1/2+x,1/2+y,-z
1/2-x,1/2+y,z
1/2+x,1/2-y,z
loop_
_atom_site_type_symbol
_atom_site_label
_atom_site_fract_x
_atom_site_fract_y
_atom_site_fract_z
Si Si1 0.750000 0.887174 0.118182
Si Si2 0.604889 0.750000 0.930290
Si Si3 0.143607 0.750000 0.565745
Si Si4 0.750000 0.889643 0.252006
Si Si5 0.399010 0.605661 0.660893
Si Si6 0.899010 0.394339 0.339106
O O1 0.658820 0.843306 0.090230
O O2 0.841180 0.843306 0.090230
O O3 0.750001 0.852671 0.185825
O O4 0.750000 0.000000 0.109874
O O5 0.500000 0.750000 0.907096
O O6 0.604143 0.750001 0.000000
O O7 0.102471 0.749999 0.500000
O O8 0.250000 0.750000 0.563180
O O9 0.109350 0.841217 0.599437
O O10 0.109350 0.658783 0.599437
O O11 0.836825 0.851455 0.287611
O O12 0.663175 0.851455 0.287611
O O13 0.750001 0.000000 0.249034
O O14 0.500000 0.612810 0.685478
O O15 0.369982 0.500000 0.647049
O O16 0.869982 0.500000 0.352951
O O17 0.000000 0.387189 0.314521
#
# Coordination Sequence:
#
# PCOD8273590 Si02
#       6
#    16  16  16  16  16  16
#     4  10  21  38  64  91 119 159 203 247 293 348
#     4  10  23  41  59  87 127 163 200 247 294 344
#     4  11  23  37  56  80 107 142 185 233 281 335
#     4   9  19  37  58  85 117 144 184 234 279 337
#     4  10  21  38  59  80 108 146 182 225 284 342
#     4  10  21  38  59  80 108 146 182 225 284 342
#
# _framework density 19.963232000000001
#
# number of rings (size 3 to 8) (size 9 to 14) (size 15 to 20)
#    0.000    2.000    1.667    1.500    0.000    8.000 
#    0.000    8.333    0.000    0.000    0.000    0.000 
#    0.000    0.000    0.000    0.000    0.000    0.000 
#
# Total GULP energy -594988.461011 kJ/mol
# GULP energy per Si atom -12395.592938 kJ/mol
# Density = 1.991780 g / cm^3
# Si number density = 19.963232 Si / 1000 Ang^3
#
#
#
# Elastic Constant Matrix: (Units=GPa)
#
#
# Indices 1 2 3 4 5 6 
#
# 1 155.6813 44.0339 58.5748 0.0000 0.0000 0.0000
# 2 44.0339 118.7093 41.7451 0.0000 0.0000 0.0000
# 3 58.5748 41.7451 142.7738 0.0000 0.0000 0.0000
# 4 0.0000 0.0000 0.0000 47.2139 0.0000 0.0000
# 5 0.0000 0.0000 0.0000 0.0000 2.9159 0.0000
# 6 0.0000 0.0000 0.0000 0.0000 0.0000 17.2837
#
#
#
# Elastic Compliance Matrix: (Units=1/GPa)
#
#
# Indices 1 2 3 4 5 6 
#
# 1 0.008009 -0.002024 -0.002694 0.000000 0.000000 0.000000
# 2 -0.002024 0.009901 -0.002065 0.000000 0.000000 0.000000
# 3 -0.002694 -0.002065 0.008713 0.000000 0.000000 0.000000
# 4 0.000000 0.000000 0.000000 0.021180 0.000000 0.000000
# 5 0.000000 0.000000 0.000000 0.000000 0.342947 0.000000
# 6 0.000000 0.000000 0.000000 0.000000 0.000000 0.057858
#
#
# Mechanical properties :
#
#
# Convention : Reuss Voigt Hill
#
# Bulk Modulus (GPa) = 76.58012 78.43024 77.50518
# Shear Modulus (GPa) = 10.71751 31.67008 21.19380
#
# Velocity S-wave (km/s) = 2.31954 3.98731 3.26182
# Velocity P-wave (km/s) = 6.75408 7.78273 7.28658
#
# Compressibility (1/GPa) = 0.01305822
#
# Stress axis : x y z
#
# Youngs Moduli (GPa) = 124.85222 101.00415 114.76924
#
# Poissons Ratio (x) = 0.20439 0.30923
# Poissons Ratio (y) = 0.25264 0.23695
# Poissons Ratio (z) = 0.33639 0.20853
#
# Static dielectric constant tensor:
#      x y z
#    x 3.933510 0.000000 0.000000 
#    y 0.000000 -3.034070 0.000000 
#    z 0.000000 0.000000 3.890750 
# 
# 
# High freq. dielectric constant tensor:
#      x y z
#    x 1.790860 0.000000 0.000000 
#    y 0.000000 1.783030 0.000000 
#    z 0.000000 0.000000 1.776240 
# 
# From -- ./inp_files/62572.got.cif
#   From: 2010.03.12/outbox.cif.g09.slc.cpg/sg65_32_cif.got.tgz:62572.got - 2010.04.10 20:52:16.
