data_PCOD8273444
_publ_section_title
;
Structure prediction by ZEFSAII (Michael W. Deem and Ramdas Pophale) SiO2 
 PCOD8273444
Probable space group: C M M M
;
_chemical_formula_sum "Si O2"
_cell_formula_units_Z 64
_cell_length_a 11.242532
_cell_length_b 34.579202
_cell_length_c 8.847681
_cell_angle_alpha 90.000000
_cell_angle_beta 90.000000
_cell_angle_gamma 90.000000
_cell_volume 3439.604868
_symmetry_space_group_name_H-M "C M M M"
_symmetry_group_IT_number 65
_symmetry_cell_setting 'orthorhombic'
loop_
_space_group_symop_operation_xyz
x,y,z
-x,-y,z
x,-y,-z
-x,y,-z
-x,-y,-z
x,y,-z
-x,y,z
x,-y,z
1/2+x,1/2+y,z
1/2-x,1/2-y,z
1/2+x,1/2-y,-z
1/2-x,1/2+y,-z
1/2-x,1/2-y,-z
1/2+x,1/2+y,-z
1/2-x,1/2+y,z
1/2+x,1/2-y,z
loop_
_atom_site_type_symbol
_atom_site_label
_atom_site_fract_x
_atom_site_fract_y
_atom_site_fract_z
Si Si1 0.864128 0.276631 0.175218
Si Si2 0.000000 0.956045 0.678165
Si Si3 0.729246 0.425949 0.821869
Si Si4 0.629686 0.000000 0.820571
Si Si5 0.863748 0.358016 0.327277
O O1 0.750000 0.250000 0.218475
O O2 0.845875 0.314209 0.276153
O O3 0.000000 0.259419 0.206158
O O4 0.855381 0.288061 0.000000
O O5 0.892698 0.930319 0.735465
O O6 0.000000 0.958512 0.500000
O O7 0.000000 0.000000 0.745917
O O8 0.807972 0.461438 0.761442
O O9 0.786920 0.385277 0.780033
O O10 0.708328 0.427853 0.000000
O O11 0.500000 0.000000 0.747754
O O12 0.624563 0.000000 0.000000
O O13 0.821124 0.361927 0.500000
O O14 0.000000 0.370701 0.309368
#
# Coordination Sequence:
#
# PCOD8273444 Si02
#       5
#    16   8  16   8  16
#     4   9  18  35  59  85 113 147 188 235 285 340
#     4  11  23  39  57  77 111 151 187 231 287 343
#     4  11  21  36  58  81 109 145 191 236 278 331
#     4   9  18  31  51  80 108 135 176 231 280 323
#     4  10  21  37  57  83 116 151 186 228 283 342
#
# _framework density 18.606788000000002
#
# number of rings (size 3 to 8) (size 9 to 14) (size 15 to 20)
#    0.000    2.000    1.250    2.625    0.000    3.500 
#    2.250    0.000    0.000    3.000    0.000    0.000 
#    0.000    0.000    0.000    0.000    0.000    0.000 
#
# Total GULP energy -396665.561801 kJ/mol
# GULP energy per Si atom -12395.798806 kJ/mol
# Density = 1.856444 g / cm^3
# Si number density = 18.606788 Si / 1000 Ang^3
#
#
#
# Elastic Constant Matrix: (Units=GPa)
#
#
# Indices 1 2 3 4 5 6 
#
# 1 143.5780 57.7272 33.7366 0.0000 0.0000 0.0000
# 2 57.7272 81.8128 27.1862 0.0000 0.0000 0.0000
# 3 33.7366 27.1862 66.0887 0.0000 0.0000 0.0000
# 4 0.0000 0.0000 0.0000 27.3601 0.0000 0.0000
# 5 0.0000 0.0000 0.0000 0.0000 21.0433 0.0000
# 6 0.0000 0.0000 0.0000 0.0000 0.0000 37.5545
#
#
#
# Elastic Compliance Matrix: (Units=1/GPa)
#
#
# Indices 1 2 3 4 5 6 
#
# 1 0.010087 -0.006263 -0.002573 0.000000 0.000000 0.000000
# 2 -0.006263 0.018046 -0.004227 0.000000 0.000000 0.000000
# 3 -0.002573 -0.004227 0.018183 0.000000 0.000000 0.000000
# 4 0.000000 0.000000 0.000000 0.036550 0.000000 0.000000
# 5 0.000000 0.000000 0.000000 0.000000 0.047521 0.000000
# 6 0.000000 0.000000 0.000000 0.000000 0.000000 0.026628
#
#
# Mechanical properties :
#
#
# Convention : Reuss Voigt Hill
#
# Bulk Modulus (GPa) = 49.52377 58.75329 54.13853
# Shear Modulus (GPa) = 26.33358 28.71356 27.52357
#
# Velocity S-wave (km/s) = 3.76609 3.93259 3.85024
# Velocity P-wave (km/s) = 6.75166 7.22947 6.99465
#
# Compressibility (1/GPa) = 0.02019232
#
# Stress axis : x y z
#
# Youngs Moduli (GPa) = 99.13303 55.41248 54.99521
#
# Poissons Ratio (x) = 0.34703 0.14151
# Poissons Ratio (y) = 0.62084 0.23245
# Poissons Ratio (z) = 0.25509 0.23421
#
# Static dielectric constant tensor:
#      x y z
#    x 3.323020 0.000000 0.000000 
#    y 0.000000 3.272090 0.000000 
#    z 0.000000 0.000000 3.315410 
# 
# 
# High freq. dielectric constant tensor:
#      x y z
#    x 1.733120 0.000000 0.000000 
#    y 0.000000 1.713050 0.000000 
#    z 0.000000 0.000000 1.718340 
# 
# From -- ./inp_files/4912.got.cif
#   From: 2010.03.12/outbox.cif.g09.slc.cpg/sg65_3_cif.got.tgz:4912.got - 2010.04.10 20:52:16.
