data_PCOD8273134
_publ_section_title
;
Structure prediction by ZEFSAII (Michael W. Deem and Ramdas Pophale) SiO2 
 PCOD8273134
Probable space group: C M M M
;
_chemical_formula_sum "Si O2"
_cell_formula_units_Z 72
_cell_length_a 18.014643
_cell_length_b 9.019389
_cell_length_c 22.732913
_cell_angle_alpha 90.000000
_cell_angle_beta 90.000000
_cell_angle_gamma 90.000000
_cell_volume 3693.668095
_symmetry_space_group_name_H-M "C M M M"
_symmetry_group_IT_number 65
_symmetry_cell_setting 'orthorhombic'
loop_
_space_group_symop_operation_xyz
x,y,z
-x,-y,z
x,-y,-z
-x,y,-z
-x,-y,-z
x,y,-z
-x,y,z
x,-y,z
1/2+x,1/2+y,z
1/2-x,1/2-y,z
1/2+x,1/2-y,-z
1/2-x,1/2+y,-z
1/2-x,1/2-y,-z
1/2+x,1/2+y,-z
1/2-x,1/2+y,z
1/2+x,1/2-y,z
loop_
_atom_site_type_symbol
_atom_site_label
_atom_site_fract_x
_atom_site_fract_y
_atom_site_fract_z
Si Si1 0.670499 0.175036 0.500000
Si Si2 0.415525 0.173527 0.177032
Si Si3 0.413552 0.670290 0.603157
Si Si4 0.827258 0.827465 0.278867
Si Si5 0.324957 0.827391 0.065647
O O1 0.750000 0.250000 0.500000
O O2 0.626110 0.221962 0.557724
O O3 0.681149 0.000000 0.500000
O O4 0.500000 0.226598 0.184882
O O5 0.362812 0.262994 0.220219
O O6 0.391371 0.210747 0.110293
O O7 0.407108 0.000000 0.190740
O O8 0.500000 0.708176 0.603131
O O9 0.399014 0.500000 0.584659
O O10 0.383136 0.703024 0.667825
O O11 0.750000 0.750000 0.293773
O O12 0.812174 0.000000 0.269212
O O13 0.250000 0.750000 0.087605
O O14 0.307735 0.000000 0.065575
O O15 0.347728 0.773109 0.000000
#
# Coordination Sequence:
#
# PCOD8273134 Si02
#       5
#     8  16  16  16  16
#     4  12  25  40  61  89 119 153 193 234 277 326
#     4  10  21  36  55  81 112 146 185 231 282 333
#     4  10  22  41  63  87 117 151 186 228 280 334
#     4  11  23  39  60  85 113 148 189 231 278 332
#     4   9  18  33  53  77 106 142 184 228 275 330
#
# _framework density 19.492816999999999
#
# number of rings (size 3 to 8) (size 9 to 14) (size 15 to 20)
#    0.000    1.778    0.000    4.000    0.000    9.778 
#    0.000    2.222    0.000    0.000    0.000    4.667 
#    0.000    0.000    0.000    0.000    0.000    0.000 
#
# Total GULP energy -446551.828270 kJ/mol
# GULP energy per Si atom -12404.217452 kJ/mol
# Density = 1.944845 g / cm^3
# Si number density = 19.492817 Si / 1000 Ang^3
#
#
#
# Elastic Constant Matrix: (Units=GPa)
#
#
# Indices 1 2 3 4 5 6 
#
# 1 133.1807 58.4321 50.0181 0.0000 0.0000 0.0000
# 2 58.4321 92.1237 53.5734 0.0000 0.0000 0.0000
# 3 50.0181 53.5734 104.3800 0.0000 0.0000 0.0000
# 4 0.0000 0.0000 0.0000 31.6730 0.0000 0.0000
# 5 0.0000 0.0000 0.0000 0.0000 37.3254 0.0000
# 6 0.0000 0.0000 0.0000 0.0000 0.0000 30.7451
#
#
#
# Elastic Compliance Matrix: (Units=1/GPa)
#
#
# Indices 1 2 3 4 5 6 
#
# 1 0.010798 -0.005474 -0.002365 0.000000 0.000000 0.000000
# 2 -0.005474 0.018248 -0.006743 0.000000 0.000000 0.000000
# 3 -0.002365 -0.006743 0.014175 0.000000 0.000000 0.000000
# 4 0.000000 0.000000 0.000000 0.031573 0.000000 0.000000
# 5 0.000000 0.000000 0.000000 0.000000 0.026791 0.000000
# 6 0.000000 0.000000 0.000000 0.000000 0.000000 0.032526
#
#
# Mechanical properties :
#
#
# Convention : Reuss Voigt Hill
#
# Bulk Modulus (GPa) = 71.13643 72.63684 71.88664
# Shear Modulus (GPa) = 29.76896 31.12609 30.44753
#
# Velocity S-wave (km/s) = 3.91215 4.00033 3.95649
# Velocity P-wave (km/s) = 7.54847 7.66036 7.60462
#
# Compressibility (1/GPa) = 0.01405749
#
# Stress axis : x y z
#
# Youngs Moduli (GPa) = 92.60594 54.79997 70.54912
#
# Poissons Ratio (x) = 0.29997 0.16685
# Poissons Ratio (y) = 0.50691 0.47571
# Poissons Ratio (z) = 0.21902 0.36951
#
# Static dielectric constant tensor:
#      x y z
#    x 3.731820 0.000000 0.000000 
#    y 0.000000 4.007970 0.000000 
#    z 0.000000 0.000000 3.747280 
# 
# 
# High freq. dielectric constant tensor:
#      x y z
#    x 1.767760 0.000000 0.000000 
#    y 0.000000 1.755430 0.000000 
#    z 0.000000 0.000000 1.773630 
# 
# From -- ./inp_files/67097.got.cif
#   From: 2010.03.12/outbox.cif.g09.slc.cpg/sg65_34_cif.got.tgz:67097.got - 2010.04.10 20:52:16.
