data_PCOD8273049
_publ_section_title
;
Structure prediction by ZEFSAII (Michael W. Deem and Ramdas Pophale) SiO2 
 PCOD8273049
Probable space group: C M M M
;
_chemical_formula_sum "Si O2"
_cell_formula_units_Z 88
_cell_length_a 9.161071
_cell_length_b 18.822919
_cell_length_c 27.657403
_cell_angle_alpha 90.000000
_cell_angle_beta 90.000000
_cell_angle_gamma 90.000000
_cell_volume 4769.189952
_symmetry_space_group_name_H-M "C M M M"
_symmetry_group_IT_number 65
_symmetry_cell_setting 'orthorhombic'
loop_
_space_group_symop_operation_xyz
x,y,z
-x,-y,z
x,-y,-z
-x,y,-z
-x,-y,-z
x,y,-z
-x,y,z
x,-y,z
1/2+x,1/2+y,z
1/2-x,1/2-y,z
1/2+x,1/2-y,-z
1/2-x,1/2+y,-z
1/2-x,1/2-y,-z
1/2+x,1/2+y,-z
1/2-x,1/2+y,z
1/2+x,1/2-y,z
loop_
_atom_site_type_symbol
_atom_site_label
_atom_site_fract_x
_atom_site_fract_y
_atom_site_fract_z
Si Si1 0.169342 0.918014 0.736156
Si Si2 0.664455 0.584454 0.000000
Si Si3 0.837480 0.916704 0.625543
Si Si4 0.327465 0.174667 0.813639
Si Si5 0.329732 0.821101 0.444944
Si Si6 0.829947 0.581536 0.094227
O O1 0.200606 0.897593 0.680702
O O2 0.272050 0.867174 0.766955
O O3 0.000000 0.905003 0.749090
O O4 0.210797 0.000000 0.746071
O O5 0.744661 0.612572 0.952042
O O6 0.669928 0.500000 0.000000
O O7 0.500000 0.613741 0.000000
O O8 0.719455 0.884073 0.589751
O O9 0.000000 0.888587 0.612951
O O10 0.831318 0.000000 0.618030
O O11 0.500000 0.185833 0.809221
O O12 0.250000 0.250000 0.817724
O O13 0.284293 0.128684 0.860295
O O14 0.287736 0.840742 0.500000
O O15 0.500000 0.808676 0.439031
O O16 0.250000 0.750000 0.427972
O O17 0.785844 0.500000 0.105349
O O18 0.000000 0.587360 0.082467
#
# Coordination Sequence:
#
# PCOD8273049 Si02
#       6
#    16   8  16  16  16  16
#     4   9  19  37  59  81 106 137 174 217 264 314
#     4   9  17  29  50  81 108 131 167 213 258 307
#     4   9  19  36  57  81 108 138 173 214 263 317
#     4  11  23  37  54  78 108 142 180 219 263 315
#     4  10  21  36  54  77 106 141 180 220 262 310
#     4   9  18  34  55  77 103 136 173 214 260 310
#
# _framework density 18.45177
#
# number of rings (size 3 to 8) (size 9 to 14) (size 15 to 20)
#    0.000    2.455    0.000    3.000    0.000    6.909 
#    0.000    5.909    0.000    0.000    0.000    0.000 
#    0.000    0.000    0.000    0.000    0.000    0.000 
#
# Total GULP energy -545686.792665 kJ/mol
# GULP energy per Si atom -12401.972561 kJ/mol
# Density = 1.840977 g / cm^3
# Si number density = 18.451770 Si / 1000 Ang^3
#
#
#
# Elastic Constant Matrix: (Units=GPa)
#
#
# Indices 1 2 3 4 5 6 
#
# 1 88.7499 51.5658 64.8777 0.0000 0.0000 0.0000
# 2 51.5658 83.8569 66.0730 0.0000 0.0000 0.0000
# 3 64.8777 66.0730 121.2142 0.0000 0.0000 0.0000
# 4 0.0000 0.0000 0.0000 -3.1677 0.0000 0.0000
# 5 0.0000 0.0000 0.0000 0.0000 16.0190 0.0000
# 6 0.0000 0.0000 0.0000 0.0000 0.0000 28.3786
#
#
#
# Elastic Compliance Matrix: (Units=1/GPa)
#
#
# Indices 1 2 3 4 5 6 
#
# 1 0.020602 -0.006977 -0.007224 0.000000 0.000000 0.000000
# 2 -0.006977 0.023265 -0.008947 0.000000 0.000000 0.000000
# 3 -0.007224 -0.008947 0.016993 0.000000 0.000000 0.000000
# 4 0.000000 0.000000 0.000000 -0.315690 0.000000 0.000000
# 5 0.000000 0.000000 0.000000 0.000000 0.062426 0.000000
# 6 0.000000 0.000000 0.000000 0.000000 0.000000 0.035238
#
#
# Mechanical properties :
#
#
# Convention : Reuss Voigt Hill
#
# Bulk Modulus (GPa) = 68.66044 73.20603 70.93323
# Shear Modulus (GPa) = -47.16378 15.66628 -15.74875
#
# Velocity S-wave (km/s) = -5.06123 2.91699 -2.92466
# Velocity P-wave (km/s) = 1.77110 7.14881 5.20780
#
# Compressibility (1/GPa) = 0.01456443
#
# Stress axis : x y z
#
# Youngs Moduli (GPa) = 48.53862 42.98239 58.84606
#
# Poissons Ratio (x) = 0.29989 0.42509
# Poissons Ratio (y) = 0.33865 0.52652
# Poissons Ratio (z) = 0.35064 0.38458
#
# Static dielectric constant tensor:
#      x y z
#    x 3.491280 0.000000 0.000000 
#    y 0.000000 3.241970 0.000000 
#    z 0.000000 0.000000 3.468550 
# 
# 
# High freq. dielectric constant tensor:
#      x y z
#    x 1.719650 0.000000 0.000000 
#    y 0.000000 1.701870 0.000000 
#    z 0.000000 0.000000 1.724460 
# 
# From -- ./inp_files/76689.got.cif
#   From: 2010.03.12/outbox.cif.g09.slc.cpg/sg65_39_cif.got.tgz:76689.got - 2010.04.10 20:52:16.
