data_PCOD8273790
_publ_section_title
;
Structure prediction by ZEFSAII (Michael W. Deem and Ramdas Pophale) SiO2 
 PCOD8273790
Probable space group: C M M M
;
_chemical_formula_sum "Si O2"
_cell_formula_units_Z 64
_cell_length_a 23.698142
_cell_length_b 16.382381
_cell_length_c 7.902233
_cell_angle_alpha 90.000000
_cell_angle_beta 90.000000
_cell_angle_gamma 90.000000
_cell_volume 3067.899653
_symmetry_space_group_name_H-M "C M M M"
_symmetry_group_IT_number 65
_symmetry_cell_setting 'orthorhombic'
loop_
_space_group_symop_operation_xyz
x,y,z
-x,-y,z
x,-y,-z
-x,y,-z
-x,-y,-z
x,y,-z
-x,y,z
x,-y,z
1/2+x,1/2+y,z
1/2-x,1/2-y,z
1/2+x,1/2-y,-z
1/2-x,1/2+y,-z
1/2-x,1/2-y,-z
1/2+x,1/2+y,-z
1/2-x,1/2+y,z
1/2+x,1/2-y,z
loop_
_atom_site_type_symbol
_atom_site_label
_atom_site_fract_x
_atom_site_fract_y
_atom_site_fract_z
Si Si1 0.870384 0.326730 0.691475
Si Si2 0.566528 0.093416 0.000000
Si Si3 0.136630 0.847785 0.189060
Si Si4 0.564690 0.500000 0.301049
Si Si5 0.753806 0.592866 0.695256
O O1 0.884569 0.357734 0.500000
O O2 0.874665 0.228747 0.689205
O O3 0.806910 0.351312 0.742933
O O4 0.912523 0.365025 0.827186
O O5 0.500000 0.101391 0.000000
O O6 0.586795 0.000000 0.000000
O O7 0.200505 0.879259 0.197330
O O8 0.093759 0.919674 0.230201
O O9 0.125134 0.816874 0.000000
O O10 0.500000 0.500000 0.242286
O O11 0.571398 0.500000 0.500000
O O12 0.736931 0.602246 0.500000
O O13 0.769678 0.500000 0.740076
#
# Coordination Sequence:
#
# PCOD8273790 Si02
#       5
#    16   8  16   8  16
#     4  11  24  44  70 100 134 178 225 277 337 399
#     4  11  26  48  71  99 135 171 216 281 340 403
#     4  12  24  40  64  99 137 177 223 279 337 396
#     4  11  25  45  67  91 129 185 235 277 331 396
#     4  10  21  38  64  97 135 174 219 273 336 405
#
# _framework density 20.861177000000001
#
# number of rings (size 3 to 8) (size 9 to 14) (size 15 to 20)
#    0.000    1.000    2.500    4.125    1.750    7.000 
#    0.000    1.250    0.000    0.000    0.000    0.000 
#    0.000    0.000    0.000    0.000    0.000    0.000 
#
# Total GULP energy -396955.403022 kJ/mol
# GULP energy per Si atom -12404.856344 kJ/mol
# Density = 2.081370 g / cm^3
# Si number density = 20.861177 Si / 1000 Ang^3
#
#
#
# Elastic Constant Matrix: (Units=GPa)
#
#
# Indices 1 2 3 4 5 6 
#
# 1 106.5798 47.7153 49.0748 0.0000 0.0000 0.0000
# 2 47.7153 132.7729 37.6487 0.0000 0.0000 0.0000
# 3 49.0748 37.6487 105.7460 0.0000 0.0000 0.0000
# 4 0.0000 0.0000 0.0000 26.2863 0.0000 0.0000
# 5 0.0000 0.0000 0.0000 0.0000 30.9119 0.0000
# 6 0.0000 0.0000 0.0000 0.0000 0.0000 -16.2788
#
#
#
# Elastic Compliance Matrix: (Units=1/GPa)
#
#
# Indices 1 2 3 4 5 6 
#
# 1 0.013133 -0.003327 -0.004910 0.000000 0.000000 0.000000
# 2 -0.003327 0.009220 -0.001739 0.000000 0.000000 0.000000
# 3 -0.004910 -0.001739 0.012354 0.000000 0.000000 0.000000
# 4 0.000000 0.000000 0.000000 0.038043 0.000000 0.000000
# 5 0.000000 0.000000 0.000000 0.000000 0.032350 0.000000
# 6 0.000000 0.000000 0.000000 0.000000 0.000000 -0.061429
#
#
# Mechanical properties :
#
#
# Convention : Reuss Voigt Hill
#
# Bulk Modulus (GPa) = 67.77090 68.21959 67.99524
# Shear Modulus (GPa) = 72.94793 22.22788 47.58790
#
# Velocity S-wave (km/s) = 5.91981 3.26776 4.78134
# Velocity P-wave (km/s) = 8.90408 6.85641 7.94648
#
# Compressibility (1/GPa) = 0.01475560
#
# Stress axis : x y z
#
# Youngs Moduli (GPa) = 76.14266 108.45479 80.94321
#
# Poissons Ratio (x) = 0.36088 0.39745
# Poissons Ratio (y) = 0.25336 0.14072
# Poissons Ratio (z) = 0.37388 0.18855
#
# Static dielectric constant tensor:
#      x y z
#    x 3.695880 0.000000 0.000000 
#    y 0.000000 3.890610 0.000000 
#    z 0.000000 0.000000 3.834940 
# 
# 
# High freq. dielectric constant tensor:
#      x y z
#    x 1.809630 0.000000 0.000000 
#    y 0.000000 1.830760 0.000000 
#    z 0.000000 0.000000 1.827020 
# 
# From -- ./inp_files/13347.got.cif
#   From: 2010.03.12/outbox.cif.g09.slc.cpg/sg65_7_cif.got.tgz:13347.got - 2010.04.10 20:52:16.
