data_PCOD8273448
_publ_section_title
;
Structure prediction by ZEFSAII (Michael W. Deem and Ramdas Pophale) SiO2 
 PCOD8273448
Probable space group: C M M M
;
_chemical_formula_sum "Si O2"
_cell_formula_units_Z 64
_cell_length_a 25.757490
_cell_length_b 8.522693
_cell_length_c 14.675440
_cell_angle_alpha 90.000000
_cell_angle_beta 90.000000
_cell_angle_gamma 90.000000
_cell_volume 3221.599253
_symmetry_space_group_name_H-M "C M M M"
_symmetry_group_IT_number 65
_symmetry_cell_setting 'orthorhombic'
loop_
_space_group_symop_operation_xyz
x,y,z
-x,-y,z
x,-y,-z
-x,y,-z
-x,-y,-z
x,y,-z
-x,y,z
x,-y,z
1/2+x,1/2+y,z
1/2-x,1/2-y,z
1/2+x,1/2-y,-z
1/2-x,1/2+y,-z
1/2-x,1/2-y,-z
1/2+x,1/2+y,-z
1/2-x,1/2+y,z
1/2+x,1/2-y,z
loop_
_atom_site_type_symbol
_atom_site_label
_atom_site_fract_x
_atom_site_fract_y
_atom_site_fract_z
Si Si1 0.387152 0.315427 0.349433
Si Si2 0.809590 0.314207 0.500000
Si Si3 0.194718 0.683090 0.000000
Si Si4 0.500000 0.672633 0.606522
Si Si5 0.440735 0.328517 0.000000
Si Si6 0.619568 0.184150 0.846209
O O1 0.387540 0.500000 0.371707
O O2 0.342371 0.238449 0.411385
O O3 0.445524 0.242745 0.365792
O O4 0.374204 0.283614 0.245033
O O5 0.805065 0.500000 0.500000
O O6 0.750000 0.250000 0.500000
O O7 0.250000 0.750000 0.000000
O O8 0.167507 0.740346 0.091938
O O9 0.193970 0.500000 0.000000
O O10 0.500000 0.500000 0.652670
O O11 0.500000 0.657111 0.500000
O O12 0.429817 0.230042 0.092303
O O13 0.412143 0.500000 0.000000
O O14 0.500000 0.364285 0.000000
O O15 0.618376 0.000000 0.822834
#
# Coordination Sequence:
#
# PCOD8273448 Si02
#       6
#    16   8   8   8   8  16
#     4  11  22  40  65  93 125 165 208 253 305 370
#     4  12  26  45  66  91 123 162 208 260 315 373
#     4   9  20  38  60  82 113 152 196 246 301 354
#     4   9  18  36  62  89 122 161 200 248 303 359
#     4  10  21  37  57  83 116 158 204 248 300 361
#     4  10  22  39  57  86 123 157 196 249 305 362
#
# _framework density 19.865908999999998
#
# number of rings (size 3 to 8) (size 9 to 14) (size 15 to 20)
#    0.000    1.750    1.250    3.750    1.750    5.000 
#    0.000    5.000    0.000    0.000    0.000    0.000 
#    0.000    0.000    0.000    0.000    0.000    0.000 
#
# Total GULP energy -396495.547295 kJ/mol
# GULP energy per Si atom -12390.485853 kJ/mol
# Density = 1.982069 g / cm^3
# Si number density = 19.865909 Si / 1000 Ang^3
#
#
#
# Elastic Constant Matrix: (Units=GPa)
#
#
# Indices 1 2 3 4 5 6 
#
# 1 173.4842 41.2194 64.6930 0.0000 0.0000 0.0000
# 2 41.2194 65.8667 28.2083 0.0000 0.0000 0.0000
# 3 64.6930 28.2083 150.8157 0.0000 0.0000 0.0000
# 4 0.0000 0.0000 0.0000 32.4538 0.0000 0.0000
# 5 0.0000 0.0000 0.0000 0.0000 9.3423 0.0000
# 6 0.0000 0.0000 0.0000 0.0000 0.0000 27.1225
#
#
#
# Elastic Compliance Matrix: (Units=1/GPa)
#
#
# Indices 1 2 3 4 5 6 
#
# 1 0.007591 -0.003648 -0.002574 0.000000 0.000000 0.000000
# 2 -0.003648 0.018257 -0.001850 0.000000 0.000000 0.000000
# 3 -0.002574 -0.001850 0.008081 0.000000 0.000000 0.000000
# 4 0.000000 0.000000 0.000000 0.030813 0.000000 0.000000
# 5 0.000000 0.000000 0.000000 0.000000 0.107040 0.000000
# 6 0.000000 0.000000 0.000000 0.000000 0.000000 0.036870
#
#
# Mechanical properties :
#
#
# Convention : Reuss Voigt Hill
#
# Bulk Modulus (GPa) = 56.22646 73.15644 64.69145
# Shear Modulus (GPa) = 21.67096 30.85346 26.26221
#
# Velocity S-wave (km/s) = 3.30640 3.94520 3.63984
# Velocity P-wave (km/s) = 6.55293 7.59327 7.09220
#
# Compressibility (1/GPa) = 0.01778522
#
# Stress axis : x y z
#
# Youngs Moduli (GPa) = 131.73947 54.77234 123.75245
#
# Poissons Ratio (x) = 0.19981 0.31851
# Poissons Ratio (y) = 0.48059 0.22894
# Poissons Ratio (z) = 0.33907 0.10133
#
# Static dielectric constant tensor:
#      x y z
#    x 3.849980 0.000000 0.000000 
#    y 0.000000 5.454100 0.000000 
#    z 0.000000 0.000000 3.607310 
# 
# 
# High freq. dielectric constant tensor:
#      x y z
#    x 1.779050 0.000000 0.000000 
#    y 0.000000 1.770040 0.000000 
#    z 0.000000 0.000000 1.782110 
# 
# From -- ./inp_files/45153.got.cif
#   From: 2010.03.12/outbox.cif.g09.slc.cpg/sg65_23_cif.got.tgz:45153.got - 2010.04.10 20:52:16.
