data_PCOD8273299
_publ_section_title
;
Structure prediction by ZEFSAII (Michael W. Deem and Ramdas Pophale) SiO2 
 PCOD8273299
Probable space group: C M M M
;
_chemical_formula_sum "Si O2"
_cell_formula_units_Z 88
_cell_length_a 18.592528
_cell_length_b 8.807293
_cell_length_c 28.851386
_cell_angle_alpha 90.000000
_cell_angle_beta 90.000000
_cell_angle_gamma 90.000000
_cell_volume 4724.409891
_symmetry_space_group_name_H-M "C M M M"
_symmetry_group_IT_number 65
_symmetry_cell_setting 'orthorhombic'
loop_
_space_group_symop_operation_xyz
x,y,z
-x,-y,z
x,-y,-z
-x,y,-z
-x,-y,-z
x,y,-z
-x,y,z
x,-y,z
1/2+x,1/2+y,z
1/2-x,1/2-y,z
1/2+x,1/2-y,-z
1/2-x,1/2+y,-z
1/2-x,1/2-y,-z
1/2+x,1/2+y,-z
1/2-x,1/2+y,z
1/2+x,1/2-y,z
loop_
_atom_site_type_symbol
_atom_site_label
_atom_site_fract_x
_atom_site_fract_y
_atom_site_fract_z
Si Si1 0.171546 0.320252 0.912209
Si Si2 0.327697 0.178467 0.548954
Si Si3 0.081141 0.319622 0.000000
Si Si4 0.416786 0.322614 0.169072
Si Si5 0.172034 0.320357 0.351307
Si Si6 0.416583 0.174261 0.264481
O O1 0.179162 0.500000 0.912999
O O2 0.250000 0.250000 0.916481
O O3 0.123156 0.260237 0.954816
O O4 0.133357 0.270655 0.865205
O O5 0.368225 0.225395 0.500000
O O6 0.250000 0.250000 0.547975
O O7 0.363714 0.226497 0.598320
O O8 0.317363 0.000000 0.549475
O O9 0.077791 0.500000 0.000000
O O10 0.000000 0.252553 0.000000
O O11 0.500000 0.279145 0.159943
O O12 0.403051 0.500000 0.162074
O O13 0.393818 0.275954 0.220792
O O14 0.178852 0.500000 0.347638
O O15 0.250000 0.250000 0.345408
O O16 0.122712 0.259016 0.309797
O O17 0.500000 0.189877 0.275174
O O18 0.395455 0.000000 0.254043
#
# Coordination Sequence:
#
# PCOD8273299 Si02
#       6
#    16  16   8  16  16  16
#     4  11  22  37  58  83 113 144 174 211 255 300
#     4   8  13  22  37  58  85 115 147 186 233 284
#     4   9  19  36  59  85 110 141 180 215 248 294
#     4  10  21  37  56  78 103 132 171 215 256 303
#     4   9  17  28  44  67  92 119 154 197 242 289
#     4   9  18  33  51  69  93 129 168 202 242 296
#
# _framework density 18.626664000000002
#
# number of rings (size 3 to 8) (size 9 to 14) (size 15 to 20)
#    0.000    2.636    0.000    1.909    0.000    3.273 
#    0.000    3.182    0.000    3.818    0.000    3.818 
#    0.000    0.000    0.000   34.000    0.000   18.545 
#
# Total GULP energy -545170.037124 kJ/mol
# GULP energy per Si atom -12390.228116 kJ/mol
# Density = 1.858427 g / cm^3
# Si number density = 18.626664 Si / 1000 Ang^3
#
#
#
# Elastic Constant Matrix: (Units=GPa)
#
#
# Indices 1 2 3 4 5 6 
#
# 1 92.0371 27.9916 80.0525 0.0000 0.0000 0.0000
# 2 27.9916 38.8152 32.6774 0.0000 0.0000 0.0000
# 3 80.0525 32.6774 176.8541 0.0000 0.0000 0.0000
# 4 0.0000 0.0000 0.0000 19.0356 0.0000 0.0000
# 5 0.0000 0.0000 0.0000 0.0000 24.8361 0.0000
# 6 0.0000 0.0000 0.0000 0.0000 0.0000 21.7434
#
#
#
# Elastic Compliance Matrix: (Units=1/GPa)
#
#
# Indices 1 2 3 4 5 6 
#
# 1 0.019808 -0.007977 -0.007492 0.000000 0.000000 0.000000
# 2 -0.007977 0.033721 -0.002620 0.000000 0.000000 0.000000
# 3 -0.007492 -0.002620 0.009530 0.000000 0.000000 0.000000
# 4 0.000000 0.000000 0.000000 0.052533 0.000000 0.000000
# 5 0.000000 0.000000 0.000000 0.000000 0.040264 0.000000
# 6 0.000000 0.000000 0.000000 0.000000 0.000000 0.045991
#
#
# Mechanical properties :
#
#
# Convention : Reuss Voigt Hill
#
# Bulk Modulus (GPa) = 37.20119 65.46106 51.33112
# Shear Modulus (GPa) = 20.24415 24.25535 22.24975
#
# Velocity S-wave (km/s) = 3.30030 3.61249 3.45992
# Velocity P-wave (km/s) = 5.87690 7.25398 6.60145
#
# Compressibility (1/GPa) = 0.02688086
#
# Stress axis : x y z
#
# Youngs Moduli (GPa) = 50.48549 29.65479 104.93531
#
# Poissons Ratio (x) = 0.23656 0.78617
# Poissons Ratio (y) = 0.40272 0.27492
# Poissons Ratio (z) = 0.37824 0.07769
#
# Static dielectric constant tensor:
#      x y z
#    x 3.257190 0.000000 0.000000 
#    y 0.000000 3.832610 0.000000 
#    z 0.000000 0.000000 4.127150 
# 
# 
# High freq. dielectric constant tensor:
#      x y z
#    x 1.691170 0.000000 0.000000 
#    y 0.000000 1.711140 0.000000 
#    z 0.000000 0.000000 1.753480 
# 
# From -- ./inp_files/76632.got.cif
#   From: 2010.03.12/outbox.cif.g09.slc.cpg/sg65_39_cif.got.tgz:76632.got - 2010.04.10 20:52:16.
