data_PCOD8273218
_publ_section_title
;
Structure prediction by ZEFSAII (Michael W. Deem and Ramdas Pophale) SiO2 
 PCOD8273218
Probable space group: C M M M
;
_chemical_formula_sum "Si O2"
_cell_formula_units_Z 80
_cell_length_a 9.040671
_cell_length_b 27.878952
_cell_length_c 16.583992
_cell_angle_alpha 90.000000
_cell_angle_beta 90.000000
_cell_angle_gamma 90.000000
_cell_volume 4179.902858
_symmetry_space_group_name_H-M "C M M M"
_symmetry_group_IT_number 65
_symmetry_cell_setting 'orthorhombic'
loop_
_space_group_symop_operation_xyz
x,y,z
-x,-y,z
x,-y,-z
-x,y,-z
-x,-y,-z
x,y,-z
-x,y,z
x,-y,z
1/2+x,1/2+y,z
1/2-x,1/2-y,z
1/2+x,1/2-y,-z
1/2-x,1/2+y,-z
1/2-x,1/2-y,-z
1/2+x,1/2+y,-z
1/2-x,1/2+y,z
1/2+x,1/2-y,z
loop_
_atom_site_type_symbol
_atom_site_label
_atom_site_fract_x
_atom_site_fract_y
_atom_site_fract_z
Si Si1 0.171342 0.701659 0.909629
Si Si2 0.840343 0.348548 0.500000
Si Si3 0.827337 0.358339 0.760692
Si Si4 0.675774 0.700986 0.364291
Si Si5 0.666837 0.554089 0.679206
Si Si6 0.265458 0.947785 0.500000
O O1 0.250000 0.750000 0.877140
O O2 0.198593 0.653693 0.855229
O O3 0.000000 0.714699 0.908606
O O4 0.226692 0.689006 0.000000
O O5 0.737961 0.339267 0.576474
O O6 0.883168 0.404865 0.500000
O O7 0.000000 0.321180 0.500000
O O8 0.733740 0.314713 0.722410
O O9 0.770784 0.410011 0.730432
O O10 0.000000 0.354411 0.736738
O O11 0.500000 0.704701 0.367885
O O12 0.750000 0.750000 0.392898
O O13 0.500000 0.566064 0.705633
O O14 0.712010 0.500000 0.704954
O O15 0.670545 0.558160 0.581975
O O16 0.344646 0.000000 0.500000
#
# Coordination Sequence:
#
# PCOD8273218 Si02
#       6
#    16   8  16  16  16   8
#     4   9  19  36  58  85 116 148 183 225 276 334
#     4  12  24  39  57  80 111 145 189 235 281 333
#     4  11  22  36  57  85 115 146 184 231 281 337
#     4  12  25  40  57  77 109 149 189 231 279 333
#     4  10  21  37  58  83 113 149 191 238 287 337
#     4  10  21  36  59  85 112 146 189 238 284 331
#
# _framework density 19.139199999999999
#
# number of rings (size 3 to 8) (size 9 to 14) (size 15 to 20)
#    0.000    1.400    2.000    3.900    0.000    5.800 
#    0.000    2.000    0.000    0.600    0.000    4.200 
#    0.000    0.000    0.000    0.000    0.000    0.000 
#
# Total GULP energy -495575.449127 kJ/mol
# GULP energy per Si atom -12389.386228 kJ/mol
# Density = 1.909564 g / cm^3
# Si number density = 19.139200 Si / 1000 Ang^3
#
#
#
# Elastic Constant Matrix: (Units=GPa)
#
#
# Indices 1 2 3 4 5 6 
#
# 1 135.3692 52.7926 42.7439 0.0000 0.0000 0.0000
# 2 52.7926 130.7046 53.8222 0.0000 0.0000 0.0000
# 3 42.7439 53.8222 98.9207 0.0000 0.0000 0.0000
# 4 0.0000 0.0000 0.0000 11.6203 0.0000 0.0000
# 5 0.0000 0.0000 0.0000 0.0000 6.1193 0.0000
# 6 0.0000 0.0000 0.0000 0.0000 0.0000 28.6141
#
#
#
# Elastic Compliance Matrix: (Units=1/GPa)
#
#
# Indices 1 2 3 4 5 6 
#
# 1 0.009234 -0.002689 -0.002527 0.000000 0.000000 0.000000
# 2 -0.002689 0.010643 -0.004629 0.000000 0.000000 0.000000
# 3 -0.002527 -0.004629 0.013720 0.000000 0.000000 0.000000
# 4 0.000000 0.000000 0.000000 0.086056 0.000000 0.000000
# 5 0.000000 0.000000 0.000000 0.000000 0.163417 0.000000
# 6 0.000000 0.000000 0.000000 0.000000 0.000000 0.034948
#
#
# Mechanical properties :
#
#
# Convention : Reuss Voigt Hill
#
# Bulk Modulus (GPa) = 71.90735 73.74578 72.82656
# Shear Modulus (GPa) = 14.60528 23.64648 19.12588
#
# Velocity S-wave (km/s) = 2.76544 3.51878 3.16461
# Velocity P-wave (km/s) = 6.91731 7.42455 7.17542
#
# Compressibility (1/GPa) = 0.01390678
#
# Stress axis : x y z
#
# Youngs Moduli (GPa) = 108.29797 93.95763 72.88893
#
# Poissons Ratio (x) = 0.25266 0.18418
# Poissons Ratio (y) = 0.29122 0.33739
# Poissons Ratio (z) = 0.27365 0.43492
#
# Static dielectric constant tensor:
#      x y z
#    x 3.443850 0.000000 0.000000 
#    y 0.000000 3.624120 0.000000 
#    z 0.000000 0.000000 3.633570 
# 
# 
# High freq. dielectric constant tensor:
#      x y z
#    x 1.749040 0.000000 0.000000 
#    y 0.000000 1.746440 0.000000 
#    z 0.000000 0.000000 1.726630 
# 
# From -- ./inp_files/49921.got.cif
#   From: 2010.03.12/outbox.cif.g09.slc.cpg/sg65_25_cif.got.tgz:49921.got - 2010.04.10 20:52:16.
