data_PCOD8273869
_publ_section_title
;
Structure prediction by ZEFSAII (Michael W. Deem and Ramdas Pophale) SiO2 
 PCOD8273869
Probable space group: C M M M
;
_chemical_formula_sum "Si O2"
_cell_formula_units_Z 72
_cell_length_a 8.962190
_cell_length_b 16.018254
_cell_length_c 23.965135
_cell_angle_alpha 90.000000
_cell_angle_beta 90.000000
_cell_angle_gamma 90.000000
_cell_volume 3440.402088
_symmetry_space_group_name_H-M "C M M M"
_symmetry_group_IT_number 65
_symmetry_cell_setting 'orthorhombic'
loop_
_space_group_symop_operation_xyz
x,y,z
-x,-y,z
x,-y,-z
-x,y,-z
-x,-y,-z
x,y,-z
-x,y,z
x,-y,z
1/2+x,1/2+y,z
1/2-x,1/2-y,z
1/2+x,1/2-y,-z
1/2-x,1/2+y,-z
1/2-x,1/2-y,-z
1/2+x,1/2+y,-z
1/2-x,1/2+y,z
1/2+x,1/2-y,z
loop_
_atom_site_type_symbol
_atom_site_label
_atom_site_fract_x
_atom_site_fract_y
_atom_site_fract_z
Si Si1 0.329323 0.000000 0.933989
Si Si2 0.676635 0.337032 0.883063
Si Si3 0.332793 0.593294 0.233485
Si Si4 0.325839 0.834309 0.332079
Si Si5 0.330046 0.401992 0.437211
O O1 0.247631 0.915788 0.914311
O O2 0.500000 0.000000 0.911651
O O3 0.326001 0.000000 0.000000
O O4 0.500000 0.335538 0.895254
O O5 0.750000 0.250000 0.903806
O O6 0.709824 0.345118 0.816880
O O7 0.500000 0.612023 0.255142
O O8 0.321500 0.500000 0.208936
O O9 0.222823 0.597909 0.286395
O O10 0.500000 0.823534 0.331800
O O11 0.250000 0.750000 0.311486
O O12 0.277945 0.855912 0.394754
O O13 0.286040 0.375167 0.500000
O O14 0.500000 0.376012 0.424413
O O15 0.309790 0.500000 0.429833
#
# Coordination Sequence:
#
# PCOD8273869 Si02
#       5
#     8  16  16  16  16
#     4  11  25  45  69  99 135 177 224 273 324 381
#     4  11  23  42  68 100 134 175 221 270 328 386
#     4  10  21  40  64  91 124 161 203 253 312 375
#     4  12  25  38  55  83 117 156 199 247 304 364
#     4   9  19  38  62  84 109 146 190 239 300 367
#
# _framework density 20.927786999999999
#
# number of rings (size 3 to 8) (size 9 to 14) (size 15 to 20)
#    0.000    1.444    1.111    5.000    0.000    9.333 
#    0.000    1.111    0.000    0.000    0.000    0.000 
#    0.000    0.000    0.000    0.000    0.000    0.000 
#
# Total GULP energy -446457.791987 kJ/mol
# GULP energy per Si atom -12401.605333 kJ/mol
# Density = 2.088015 g / cm^3
# Si number density = 20.927787 Si / 1000 Ang^3
#
#
#
# Elastic Constant Matrix: (Units=GPa)
#
#
# Indices 1 2 3 4 5 6 
#
# 1 157.5511 61.4814 56.3262 0.0000 0.0000 0.0000
# 2 61.4814 119.3418 39.2259 0.0000 0.0000 0.0000
# 3 56.3262 39.2259 86.3774 0.0000 0.0000 0.0000
# 4 0.0000 0.0000 0.0000 22.7727 0.0000 0.0000
# 5 0.0000 0.0000 0.0000 0.0000 32.2333 0.0000
# 6 0.0000 0.0000 0.0000 0.0000 0.0000 35.9427
#
#
#
# Elastic Compliance Matrix: (Units=1/GPa)
#
#
# Indices 1 2 3 4 5 6 
#
# 1 0.009249 -0.003270 -0.004546 0.000000 0.000000 0.000000
# 2 -0.003270 0.011006 -0.002865 0.000000 0.000000 0.000000
# 3 -0.004546 -0.002865 0.015843 0.000000 0.000000 0.000000
# 4 0.000000 0.000000 0.000000 0.043912 0.000000 0.000000
# 5 0.000000 0.000000 0.000000 0.000000 0.031024 0.000000
# 6 0.000000 0.000000 0.000000 0.000000 0.000000 0.027822
#
#
# Mechanical properties :
#
#
# Convention : Reuss Voigt Hill
#
# Bulk Modulus (GPa) = 67.87068 75.25969 71.56518
# Shear Modulus (GPa) = 30.27925 31.93886 31.10905
#
# Velocity S-wave (km/s) = 3.80787 3.91083 3.85969
# Velocity P-wave (km/s) = 7.19961 7.51215 7.35754
#
# Compressibility (1/GPa) = 0.01473390
#
# Stress axis : x y z
#
# Youngs Moduli (GPa) = 108.12527 90.85988 63.12103
#
# Poissons Ratio (x) = 0.29715 0.28693
# Poissons Ratio (y) = 0.35362 0.18087
# Poissons Ratio (z) = 0.49151 0.26035
#
# Static dielectric constant tensor:
#      x y z
#    x 3.799020 0.000000 0.000000 
#    y 0.000000 3.798090 0.000000 
#    z 0.000000 0.000000 3.749270 
# 
# 
# High freq. dielectric constant tensor:
#      x y z
#    x 1.819260 0.000000 0.000000 
#    y 0.000000 1.825740 0.000000 
#    z 0.000000 0.000000 1.821770 
# 
# From -- ./inp_files/66999.got.cif
#   From: 2010.03.12/outbox.cif.g09.slc.cpg/sg65_34_cif.got.tgz:66999.got - 2010.04.10 20:52:16.
