data_PCOD8273069
_publ_section_title
;
Structure prediction by ZEFSAII (Michael W. Deem and Ramdas Pophale) SiO2 
 PCOD8273069
Probable space group: C M M M
;
_chemical_formula_sum "Si O2"
_cell_formula_units_Z 72
_cell_length_a 23.435665
_cell_length_b 18.073040
_cell_length_c 8.938764
_cell_angle_alpha 90.000000
_cell_angle_beta 90.000000
_cell_angle_gamma 90.000000
_cell_volume 3786.046664
_symmetry_space_group_name_H-M "C M M M"
_symmetry_group_IT_number 65
_symmetry_cell_setting 'orthorhombic'
loop_
_space_group_symop_operation_xyz
x,y,z
-x,-y,z
x,-y,-z
-x,y,-z
-x,-y,-z
x,y,-z
-x,y,z
x,-y,z
1/2+x,1/2+y,z
1/2-x,1/2-y,z
1/2+x,1/2-y,-z
1/2-x,1/2+y,-z
1/2-x,1/2-y,-z
1/2+x,1/2+y,-z
1/2-x,1/2+y,z
1/2+x,1/2-y,z
loop_
_atom_site_type_symbol
_atom_site_label
_atom_site_fract_x
_atom_site_fract_y
_atom_site_fract_z
Si Si1 0.065398 0.220874 0.822711
Si Si2 0.865066 0.081374 0.177542
Si Si3 0.369986 0.144078 0.677074
Si Si4 0.063994 0.500000 0.677885
Si Si5 0.736992 0.085846 0.826635
O O1 0.089862 0.142061 0.765809
O O2 0.101742 0.283979 0.745689
O O3 0.000000 0.226508 0.770849
O O4 0.071418 0.228555 0.000000
O O5 0.801154 0.103061 0.229269
O O6 0.881892 0.000000 0.241509
O O7 0.864985 0.076875 0.000000
O O8 0.372146 0.149967 0.500000
O O9 0.304763 0.137410 0.730281
O O10 0.404356 0.072871 0.737896
O O11 0.063532 0.500000 0.500000
O O12 0.000000 0.500000 0.742707
O O13 0.722549 0.000000 0.798269
O O14 0.729323 0.106363 0.000000
#
# Coordination Sequence:
#
# PCOD8273069 Si02
#       5
#    16  16  16   8  16
#     4  10  21  36  54  79 109 138 176 224 266 309
#     4   8  16  33  57  82 106 137 174 215 268 322
#     4  11  21  34  53  76 107 144 180 218 260 313
#     4   9  18  32  49  69  95 135 180 213 248 300
#     4   9  17  32  55  80 107 137 174 219 264 313
#
# _framework density 19.017196999999999
#
# number of rings (size 3 to 8) (size 9 to 14) (size 15 to 20)
#    0.000    2.556    1.111    2.667    0.000    2.667 
#    0.000    7.778    0.000    4.667    0.000    1.556 
#    0.000    0.000    0.000    0.000    0.000    0.000 
#
# Total GULP energy -446364.960561 kJ/mol
# GULP energy per Si atom -12399.026682 kJ/mol
# Density = 1.897391 g / cm^3
# Si number density = 19.017197 Si / 1000 Ang^3
#
#
#
# Elastic Constant Matrix: (Units=GPa)
#
#
# Indices 1 2 3 4 5 6 
#
# 1 83.3174 50.6948 21.9779 0.0000 0.0000 0.0000
# 2 50.6948 126.7869 28.0466 0.0000 0.0000 0.0000
# 3 21.9779 28.0466 25.1912 0.0000 0.0000 0.0000
# 4 0.0000 0.0000 0.0000 16.7509 0.0000 0.0000
# 5 0.0000 0.0000 0.0000 0.0000 11.4899 0.0000
# 6 0.0000 0.0000 0.0000 0.0000 0.0000 33.6505
#
#
#
# Elastic Compliance Matrix: (Units=1/GPa)
#
#
# Indices 1 2 3 4 5 6 
#
# 1 0.017561 -0.004819 -0.009955 0.000000 0.000000 0.000000
# 2 -0.004819 0.011787 -0.008919 0.000000 0.000000 0.000000
# 3 -0.009955 -0.008919 0.058311 0.000000 0.000000 0.000000
# 4 0.000000 0.000000 0.000000 0.059698 0.000000 0.000000
# 5 0.000000 0.000000 0.000000 0.000000 0.087033 0.000000
# 6 0.000000 0.000000 0.000000 0.000000 0.000000 0.029717
#
#
# Mechanical properties :
#
#
# Convention : Reuss Voigt Hill
#
# Bulk Modulus (GPa) = 24.83055 48.52599 36.67827
# Shear Modulus (GPa) = 15.38851 21.35001 18.36926
#
# Velocity S-wave (km/s) = 2.84771 3.35426 3.11131
# Velocity P-wave (km/s) = 4.88854 6.36975 5.67766
#
# Compressibility (1/GPa) = 0.04027296
#
# Stress axis : x y z
#
# Youngs Moduli (GPa) = 56.94554 84.83847 17.14937
#
# Poissons Ratio (x) = 0.40886 0.17072
# Poissons Ratio (y) = 0.27444 0.15295
# Poissons Ratio (z) = 0.56690 0.75664
#
# Static dielectric constant tensor:
#      x y z
#    x 3.666120 0.000000 0.000000 
#    y 0.000000 3.725040 0.000000 
#    z 0.000000 0.000000 3.057600 
# 
# 
# High freq. dielectric constant tensor:
#      x y z
#    x 1.749310 0.000000 0.000000 
#    y 0.000000 1.742170 0.000000 
#    z 0.000000 0.000000 1.698470 
# 
# From -- ./inp_files/9228.got.cif
#   From: 2010.03.12/outbox.cif.g09.slc.cpg/sg65_5_cif.got.tgz:9228.got - 2010.04.10 20:52:16.
