data_PCOD8273125
_publ_section_title
;
Structure prediction by ZEFSAII (Michael W. Deem and Ramdas Pophale) SiO2 
 PCOD8273125
Probable space group: C M M M
;
_chemical_formula_sum "Si O2"
_cell_formula_units_Z 96
_cell_length_a 27.129951
_cell_length_b 18.756373
_cell_length_c 9.319429
_cell_angle_alpha 90.000000
_cell_angle_beta 90.000000
_cell_angle_gamma 90.000000
_cell_volume 4742.279799
_symmetry_space_group_name_H-M "C M M M"
_symmetry_group_IT_number 65
_symmetry_cell_setting 'orthorhombic'
loop_
_space_group_symop_operation_xyz
x,y,z
-x,-y,z
x,-y,-z
-x,y,-z
-x,-y,-z
x,y,-z
-x,y,z
x,-y,z
1/2+x,1/2+y,z
1/2-x,1/2-y,z
1/2+x,1/2-y,-z
1/2-x,1/2+y,-z
1/2-x,1/2-y,-z
1/2+x,1/2+y,-z
1/2-x,1/2+y,z
1/2+x,1/2-y,z
loop_
_atom_site_type_symbol
_atom_site_label
_atom_site_fract_x
_atom_site_fract_y
_atom_site_fract_z
Si Si1 0.696073 0.080770 0.342956
Si Si2 0.055714 0.288628 0.843209
Si Si3 0.858939 0.918063 0.167460
Si Si4 0.765253 0.172522 0.830954
Si Si5 0.419624 0.080061 0.662060
Si Si6 0.058055 0.154566 0.331719
O O1 0.710973 0.111533 0.500000
O O2 0.720855 0.122324 0.214448
O O3 0.638314 0.086776 0.321923
O O4 0.713799 0.000000 0.332909
O O5 0.056025 0.366384 0.773200
O O6 0.077796 0.229007 0.736914
O O7 0.000000 0.266559 0.869814
O O8 0.082751 0.288669 0.000000
O O9 0.816839 0.862394 0.223726
O O10 0.909249 0.906692 0.257309
O O11 0.841567 0.000000 0.191930
O O12 0.870255 0.904607 0.000000
O O13 0.750000 0.250000 0.767310
O O14 0.767227 0.175917 0.000000
O O15 0.436259 0.099003 0.500000
O O16 0.437004 0.000000 0.700139
O O17 0.069293 0.157249 0.500000
O O18 0.000000 0.139707 0.304088
#
# Coordination Sequence:
#
# PCOD8273125 Si02
#       6
#    16  16  16  16  16  16
#     4   9  19  36  56  79 110 147 188 234 281 333
#     4  10  21  36  55  80 112 149 190 239 292 349
#     4  10  22  40  61  87 122 160 195 237 292 350
#     4  10  22  38  57  86 120 153 191 236 284 337
#     4   9  19  35  54  79 112 150 192 238 289 343
#     4  10  22  40  62  88 117 151 193 242 297 354
#
# _framework density 20.243428000000002
#
# number of rings (size 3 to 8) (size 9 to 14) (size 15 to 20)
#    0.000    2.333    0.000    2.500    2.333    6.000 
#    0.000    5.000    0.000    0.000    0.000    0.000 
#    0.000    0.000    0.000    0.000    0.000    0.000 
#
# Total GULP energy -594927.386201 kJ/mol
# GULP energy per Si atom -12394.320546 kJ/mol
# Density = 2.019735 g / cm^3
# Si number density = 20.243428 Si / 1000 Ang^3
#
#
#
# Elastic Constant Matrix: (Units=GPa)
#
#
# Indices 1 2 3 4 5 6 
#
# 1 61.1552 50.8312 36.3890 0.0000 0.0000 0.0000
# 2 50.8312 103.8549 49.8096 0.0000 0.0000 0.0000
# 3 36.3890 49.8096 82.0682 0.0000 0.0000 0.0000
# 4 0.0000 0.0000 0.0000 33.2855 0.0000 0.0000
# 5 0.0000 0.0000 0.0000 0.0000 12.1773 0.0000
# 6 0.0000 0.0000 0.0000 0.0000 0.0000 34.7135
#
#
#
# Elastic Compliance Matrix: (Units=1/GPa)
#
#
# Indices 1 2 3 4 5 6 
#
# 1 0.029588 -0.011552 -0.006108 0.000000 0.000000 0.000000
# 2 -0.011552 0.018093 -0.005859 0.000000 0.000000 0.000000
# 3 -0.006108 -0.005859 0.018449 0.000000 0.000000 0.000000
# 4 0.000000 0.000000 0.000000 0.030043 0.000000 0.000000
# 5 0.000000 0.000000 0.000000 0.000000 0.082120 0.000000
# 6 0.000000 0.000000 0.000000 0.000000 0.000000 0.028807
#
#
# Mechanical properties :
#
#
# Convention : Reuss Voigt Hill
#
# Bulk Modulus (GPa) = 52.37768 57.90420 55.14094
# Shear Modulus (GPa) = 19.19358 23.37184 21.28271
#
# Velocity S-wave (km/s) = 3.08253 3.40154 3.24595
# Velocity P-wave (km/s) = 6.21284 6.64028 6.43011
#
# Compressibility (1/GPa) = 0.01909210
#
# Stress axis : x y z
#
# Youngs Moduli (GPa) = 33.79692 55.26987 54.20297
#
# Poissons Ratio (x) = 0.63850 0.33107
# Poissons Ratio (y) = 0.39044 0.31757
# Poissons Ratio (z) = 0.20643 0.32382
#
# Static dielectric constant tensor:
#      x y z
#    x 3.518320 0.000000 0.000000 
#    y 0.000000 3.857400 0.000000 
#    z 0.000000 0.000000 3.771030 
# 
# 
# High freq. dielectric constant tensor:
#      x y z
#    x 1.780610 0.000000 0.000000 
#    y 0.000000 1.792330 0.000000 
#    z 0.000000 0.000000 1.787530 
# 
# From -- ./inp_files/16338.got.cif
#   From: 2010.03.12/outbox.cif.g09.slc.cpg/sg65_9_cif.got.tgz:16338.got - 2010.04.10 20:52:16.
