data_PCOD8273844
_publ_section_title
;
Structure prediction by ZEFSAII (Michael W. Deem and Ramdas Pophale) SiO2 
 PCOD8273844
Probable space group: C M M M
;
_chemical_formula_sum "Si O2"
_cell_formula_units_Z 56
_cell_length_a 17.867721
_cell_length_b 18.259783
_cell_length_c 7.969742
_cell_angle_alpha 90.000000
_cell_angle_beta 90.000000
_cell_angle_gamma 90.000000
_cell_volume 2600.213669
_symmetry_space_group_name_H-M "C M M M"
_symmetry_group_IT_number 65
_symmetry_cell_setting 'orthorhombic'
loop_
_space_group_symop_operation_xyz
x,y,z
-x,-y,z
x,-y,-z
-x,y,-z
-x,-y,-z
x,y,-z
-x,y,z
x,-y,z
1/2+x,1/2+y,z
1/2-x,1/2-y,z
1/2+x,1/2-y,-z
1/2-x,1/2+y,-z
1/2-x,1/2-y,-z
1/2+x,1/2+y,-z
1/2-x,1/2+y,z
1/2+x,1/2-y,z
loop_
_atom_site_type_symbol
_atom_site_label
_atom_site_fract_x
_atom_site_fract_y
_atom_site_fract_z
Si Si1 0.413742 0.578601 0.000000
Si Si2 0.585348 0.800683 0.194626
Si Si3 0.296608 0.916404 0.805656
Si Si4 0.651932 0.657206 0.313507
O O1 0.396724 0.619305 0.171693
O O2 0.371087 0.500000 0.000000
O O3 0.500000 0.564346 0.000000
O O4 0.500000 0.801519 0.263072
O O5 0.621110 0.881341 0.219517
O O6 0.637980 0.744024 0.294832
O O7 0.585965 0.777831 0.000000
O O8 0.238293 0.865861 0.705654
O O9 0.298179 0.000000 0.738568
O O10 0.272293 0.914253 0.000000
O O11 0.625700 0.633414 0.500000
#
# Coordination Sequence:
#
# PCOD8273844 Si02
#       4
#     8  16  16  16
#     4  11  24  42  63  90 128 168 209 265 326 380
#     4  10  21  39  64  94 130 170 213 264 320 378
#     4  10  21  39  64  94 130 170 213 264 320 378
#     4  12  24  40  66  95 125 167 216 263 314 377
#
# _framework density 21.536691999999999
#
# number of rings (size 3 to 8) (size 9 to 14) (size 15 to 20)
#    0.000    1.286    2.857    2.571    0.000    9.714 
#    0.000    4.286    0.000    0.000    0.000    4.000 
#    0.000    0.000    0.000    0.000    0.000    0.000 
#
# Total GULP energy -347128.646773 kJ/mol
# GULP energy per Si atom -12397.451670 kJ/mol
# Density = 2.148767 g / cm^3
# Si number density = 21.536692 Si / 1000 Ang^3
#
#
#
# Elastic Constant Matrix: (Units=GPa)
#
#
# Indices 1 2 3 4 5 6 
#
# 1 122.1855 77.6671 34.6360 0.0000 0.0000 0.0000
# 2 77.6671 140.7971 42.5468 0.0000 0.0000 0.0000
# 3 34.6360 42.5468 124.0908 0.0000 0.0000 0.0000
# 4 0.0000 0.0000 0.0000 -13.2963 0.0000 0.0000
# 5 0.0000 0.0000 0.0000 0.0000 2.1280 0.0000
# 6 0.0000 0.0000 0.0000 0.0000 0.0000 34.8289
#
#
#
# Elastic Compliance Matrix: (Units=1/GPa)
#
#
# Indices 1 2 3 4 5 6 
#
# 1 0.012784 -0.006664 -0.001283 0.000000 0.000000 0.000000
# 2 -0.006664 0.011397 -0.002048 0.000000 0.000000 0.000000
# 3 -0.001283 -0.002048 0.009119 0.000000 0.000000 0.000000
# 4 0.000000 0.000000 0.000000 -0.075209 0.000000 0.000000
# 5 0.000000 0.000000 0.000000 0.000000 0.469923 0.000000
# 6 0.000000 0.000000 0.000000 0.000000 0.000000 0.028712
#
#
# Mechanical properties :
#
#
# Convention : Reuss Voigt Hill
#
# Bulk Modulus (GPa) = 75.13202 77.41923 76.27563
# Shear Modulus (GPa) = 10.39170 20.21368 15.30269
#
# Velocity S-wave (km/s) = 2.19900 3.06693 2.66849
# Velocity P-wave (km/s) = 6.43496 6.96901 6.70730
#
# Compressibility (1/GPa) = 0.01330990
#
# Stress axis : x y z
#
# Youngs Moduli (GPa) = 78.22154 87.73960 109.66234
#
# Poissons Ratio (x) = 0.58472 0.14073
# Poissons Ratio (y) = 0.52129 0.22455
# Poissons Ratio (z) = 0.10039 0.17966
#
# Static dielectric constant tensor:
#      x y z
#    x 3.801440 0.000000 0.000000 
#    y 0.000000 3.994280 0.000000 
#    z 0.000000 0.000000 3.809230 
# 
# 
# High freq. dielectric constant tensor:
#      x y z
#    x 1.843950 0.000000 0.000000 
#    y 0.000000 1.849520 0.000000 
#    z 0.000000 0.000000 1.831020 
# 
# From -- ./inp_files/10660.got.cif
#   From: 2010.03.12/outbox.cif.g09.slc.cpg/sg65_6_cif.got.tgz:10660.got - 2010.04.10 20:52:16.
