data_PCOD8273854
_publ_section_title
;
Structure prediction by ZEFSAII (Michael W. Deem and Ramdas Pophale) SiO2 
 PCOD8273854
Probable space group: C M M M
;
_chemical_formula_sum "Si O2"
_cell_formula_units_Z 60
_cell_length_a 14.973643
_cell_length_b 21.744530
_cell_length_c 9.709975
_cell_angle_alpha 90.000000
_cell_angle_beta 90.000000
_cell_angle_gamma 90.000000
_cell_volume 3161.517654
_symmetry_space_group_name_H-M "C M M M"
_symmetry_group_IT_number 65
_symmetry_cell_setting 'orthorhombic'
loop_
_space_group_symop_operation_xyz
x,y,z
-x,-y,z
x,-y,-z
-x,y,-z
-x,-y,-z
x,y,-z
-x,y,z
x,-y,z
1/2+x,1/2+y,z
1/2-x,1/2-y,z
1/2+x,1/2-y,-z
1/2-x,1/2+y,-z
1/2-x,1/2-y,-z
1/2+x,1/2+y,-z
1/2-x,1/2+y,z
1/2+x,1/2-y,z
loop_
_atom_site_type_symbol
_atom_site_label
_atom_site_fract_x
_atom_site_fract_y
_atom_site_fract_z
Si Si1 0.357281 0.249221 0.500000
Si Si2 0.101443 0.158823 0.270010
Si Si3 0.214647 0.820149 0.000000
Si Si4 0.500000 0.068995 0.228811
Si Si5 0.606705 0.568559 0.500000
Si Si6 0.355879 0.070719 0.000000
Si Si7 0.500000 0.148477 0.500000
O O1 0.250000 0.250000 0.500000
O O2 0.394026 0.280805 0.362873
O O3 0.405042 0.183605 0.500000
O O4 0.156895 0.169314 0.134408
O O5 0.140981 0.102408 0.361534
O O6 0.000000 0.145438 0.226079
O O7 0.250000 0.750000 0.000000
O O8 0.285800 0.874394 0.000000
O O9 0.586827 0.081236 0.136796
O O10 0.500000 0.110394 0.361598
O O11 0.500000 0.000000 0.283683
O O12 0.645706 0.500000 0.500000
O O13 0.500000 0.570372 0.500000
O O14 0.316891 0.000000 0.000000
#
# Coordination Sequence:
#
# PCOD8273854 Si02
#       7
#     8  16   8   8   8   8   4
#     4  11  23  38  58  85 127 163 199 252 315 383
#     4  10  21  40  57  83 124 159 199 252 304 364
#     4  12  26  36  60  95 126 159 211 260 301 374
#     4   9  21  43  67  91 119 156 210 259 312 382
#     4   8  16  35  63  83 105 151 199 237 293 356
#     4   9  22  45  64  85 127 171 198 254 331 383
#     4  12  23  36  72  94 119 164 206 262 320 360
#
# _framework density 18.978224999999998
#
# number of rings (size 3 to 8) (size 9 to 14) (size 15 to 20)
#    0.000    2.000    1.333    3.000    7.467    1.067 
#    2.400    0.000    0.000    4.000    0.000    0.000 
#    0.000    0.000    0.000    0.000    0.000    0.000 
#
# Total GULP energy -371820.611513 kJ/mol
# GULP energy per Si atom -12394.020384 kJ/mol
# Density = 1.893503 g / cm^3
# Si number density = 18.978225 Si / 1000 Ang^3
#
#
#
# Elastic Constant Matrix: (Units=GPa)
#
#
# Indices 1 2 3 4 5 6 
#
# 1 103.6318 66.5160 59.8733 0.0000 0.0000 0.0000
# 2 66.5160 166.1222 98.5743 0.0000 0.0000 0.0000
# 3 59.8733 98.5743 179.6370 0.0000 0.0000 0.0000
# 4 0.0000 0.0000 0.0000 5.6481 0.0000 0.0000
# 5 0.0000 0.0000 0.0000 0.0000 27.8447 0.0000
# 6 0.0000 0.0000 0.0000 0.0000 0.0000 32.6206
#
#
#
# Elastic Compliance Matrix: (Units=1/GPa)
#
#
# Indices 1 2 3 4 5 6 
#
# 1 0.013594 -0.004084 -0.002290 0.000000 0.000000 0.000000
# 2 -0.004084 0.010153 -0.004210 0.000000 0.000000 0.000000
# 3 -0.002290 -0.004210 0.008640 0.000000 0.000000 0.000000
# 4 0.000000 0.000000 0.000000 0.177051 0.000000 0.000000
# 5 0.000000 0.000000 0.000000 0.000000 0.035914 0.000000
# 6 0.000000 0.000000 0.000000 0.000000 0.000000 0.030655
#
#
# Mechanical properties :
#
#
# Convention : Reuss Voigt Hill
#
# Bulk Modulus (GPa) = 89.13423 99.92425 94.52924
# Shear Modulus (GPa) = 16.61596 28.18450 22.40023
#
# Velocity S-wave (km/s) = 2.96214 3.85788 3.43929
# Velocity P-wave (km/s) = 7.66600 8.52119 8.10488
#
# Compressibility (1/GPa) = 0.01121904
#
# Stress axis : x y z
#
# Youngs Moduli (GPa) = 73.56196 98.48932 115.73787
#
# Poissons Ratio (x) = 0.40228 0.26499
# Poissons Ratio (y) = 0.30046 0.48728
# Poissons Ratio (z) = 0.16843 0.41466
#
# Static dielectric constant tensor:
#      x y z
#    x 3.472390 0.000000 0.000000 
#    y 0.000000 3.710310 0.000000 
#    z 0.000000 0.000000 3.429150 
# 
# 
# High freq. dielectric constant tensor:
#      x y z
#    x 1.726910 0.000000 0.000000 
#    y 0.000000 1.744350 0.000000 
#    z 0.000000 0.000000 1.750470 
# 
# From -- ./inp_files/6660.got.cif
#   From: 2010.03.12/outbox.cif.g09.slc.cpg/sg65_4_cif.got.tgz:6660.got - 2010.04.10 20:52:16.
