data_PCOD8273842
_publ_section_title
;
Structure prediction by ZEFSAII (Michael W. Deem and Ramdas Pophale) SiO2 
 PCOD8273842
Probable space group: C M M M
;
_chemical_formula_sum "Si O2"
_cell_formula_units_Z 72
_cell_length_a 7.907086
_cell_length_b 28.590713
_cell_length_c 14.832591
_cell_angle_alpha 90.000000
_cell_angle_beta 90.000000
_cell_angle_gamma 90.000000
_cell_volume 3353.192374
_symmetry_space_group_name_H-M "C M M M"
_symmetry_group_IT_number 65
_symmetry_cell_setting 'orthorhombic'
loop_
_space_group_symop_operation_xyz
x,y,z
-x,-y,z
x,-y,-z
-x,y,-z
-x,-y,-z
x,y,-z
-x,y,z
x,-y,z
1/2+x,1/2+y,z
1/2-x,1/2-y,z
1/2+x,1/2-y,-z
1/2-x,1/2+y,-z
1/2-x,1/2-y,-z
1/2+x,1/2+y,-z
1/2-x,1/2+y,z
1/2+x,1/2-y,z
loop_
_atom_site_type_symbol
_atom_site_label
_atom_site_fract_x
_atom_site_fract_y
_atom_site_fract_z
Si Si1 0.000000 0.947469 0.107257
Si Si2 0.690487 0.884482 0.104901
Si Si3 0.806971 0.148523 0.400961
Si Si4 0.800074 0.802562 0.773452
Si Si5 0.690635 0.050189 0.606889
O O1 0.829607 0.921392 0.141888
O O2 0.000000 0.000000 0.146876
O O3 0.000000 0.949227 0.000000
O O4 0.500000 0.904018 0.121761
O O5 0.710270 0.834844 0.153321
O O6 0.722083 0.875019 0.000000
O O7 0.716344 0.153694 0.500000
O O8 0.729825 0.183629 0.326562
O O9 0.794364 0.095556 0.361040
O O10 0.000000 0.161280 0.414694
O O11 0.750000 0.750000 0.795540
O O12 0.000000 0.810246 0.779031
O O13 0.694558 0.048818 0.500000
O O14 0.500000 0.056101 0.642364
O O15 0.764633 0.000000 0.642582
#
# Coordination Sequence:
#
# PCOD8273842 Si02
#       5
#     8  16  16  16  16
#     4   9  18  36  64  96 131 169 205 247 301 362
#     4  10  21  39  64  94 128 163 202 251 304 364
#     4   9  19  35  54  78 110 149 193 244 302 361
#     4  11  23  39  59  83 115 157 204 259 314 368
#     4   8  14  26  46  72 101 135 177 226 281 340
#
# _framework density 21.472075
#
# number of rings (size 3 to 8) (size 9 to 14) (size 15 to 20)
#    0.000    2.556    1.111    1.333    0.000    3.556 
#    0.000    5.556    0.000    0.000    0.000    0.000 
#    0.000    0.000    0.000    0.000    0.000    0.000 
#
# Total GULP energy -446093.681259 kJ/mol
# GULP energy per Si atom -12391.491146 kJ/mol
# Density = 2.142320 g / cm^3
# Si number density = 21.472075 Si / 1000 Ang^3
#
#
#
# Elastic Constant Matrix: (Units=GPa)
#
#
# Indices 1 2 3 4 5 6 
#
# 1 97.9275 45.3176 32.7473 0.0000 0.0000 0.0000
# 2 45.3176 149.4361 43.1258 0.0000 0.0000 0.0000
# 3 32.7473 43.1258 59.2149 0.0000 0.0000 0.0000
# 4 0.0000 0.0000 0.0000 28.1796 0.0000 0.0000
# 5 0.0000 0.0000 0.0000 0.0000 11.6913 0.0000
# 6 0.0000 0.0000 0.0000 0.0000 0.0000 32.0481
#
#
#
# Elastic Compliance Matrix: (Units=1/GPa)
#
#
# Indices 1 2 3 4 5 6 
#
# 1 0.013173 -0.002396 -0.005540 0.000000 0.000000 0.000000
# 2 -0.002396 0.008908 -0.005163 0.000000 0.000000 0.000000
# 3 -0.005540 -0.005163 0.023711 0.000000 0.000000 0.000000
# 4 0.000000 0.000000 0.000000 0.035487 0.000000 0.000000
# 5 0.000000 0.000000 0.000000 0.000000 0.085533 0.000000
# 6 0.000000 0.000000 0.000000 0.000000 0.000000 0.031203
#
#
# Mechanical properties :
#
#
# Convention : Reuss Voigt Hill
#
# Bulk Modulus (GPa) = 51.03312 60.99554 56.01433
# Shear Modulus (GPa) = 21.66888 26.74298 24.20593
#
# Velocity S-wave (km/s) = 3.18018 3.53296 3.36120
# Velocity P-wave (km/s) = 6.10766 6.71647 6.41929
#
# Compressibility (1/GPa) = 0.01959512
#
# Stress axis : x y z
#
# Youngs Moduli (GPa) = 75.91265 112.25376 42.17368
#
# Poissons Ratio (x) = 0.26896 0.23364
# Poissons Ratio (y) = 0.18189 0.21774
# Poissons Ratio (z) = 0.42056 0.57955
#
# Static dielectric constant tensor:
#      x y z
#    x 3.859640 0.000000 0.000000 
#    y 0.000000 4.671750 0.000000 
#    z 0.000000 0.000000 3.857580 
# 
# 
# High freq. dielectric constant tensor:
#      x y z
#    x 1.831640 0.000000 0.000000 
#    y 0.000000 1.839010 0.000000 
#    z 0.000000 0.000000 1.826000 
# 
# From -- ./inp_files/36598.got.cif
#   From: 2010.03.12/outbox.cif.g09.slc.cpg/sg65_19_cif.got.tgz:36598.got - 2010.04.10 20:52:16.
