data_PCOD8274124
_publ_section_title
;
Structure prediction by ZEFSAII (Michael W. Deem and Ramdas Pophale) SiO2 
 PCOD8274124
Probable space group: C M M M
;
_chemical_formula_sum "Si O2"
_cell_formula_units_Z 96
_cell_length_a 14.741737
_cell_length_b 14.218127
_cell_length_c 22.599084
_cell_angle_alpha 90.000000
_cell_angle_beta 90.000000
_cell_angle_gamma 90.000000
_cell_volume 4736.765495
_symmetry_space_group_name_H-M "C M M M"
_symmetry_group_IT_number 65
_symmetry_cell_setting 'orthorhombic'
loop_
_space_group_symop_operation_xyz
x,y,z
-x,-y,z
x,-y,-z
-x,y,-z
-x,-y,-z
x,y,-z
-x,y,z
x,-y,z
1/2+x,1/2+y,z
1/2-x,1/2-y,z
1/2+x,1/2-y,-z
1/2-x,1/2+y,-z
1/2-x,1/2-y,-z
1/2+x,1/2+y,-z
1/2-x,1/2+y,z
1/2+x,1/2-y,z
loop_
_atom_site_type_symbol
_atom_site_label
_atom_site_fract_x
_atom_site_fract_y
_atom_site_fract_z
Si Si1 0.749982 0.608684 0.570004
Si Si2 0.351504 0.750016 0.742331
Si Si3 0.397480 0.249980 0.613520
Si Si4 0.106827 0.103691 0.840517
Si Si5 0.393169 0.103694 0.159461
Si Si6 0.391867 0.250022 0.065984
O O1 0.749957 0.618858 0.500000
O O2 0.749979 0.500000 0.590319
O O3 0.658265 0.657385 0.594062
O O4 0.841723 0.657368 0.594037
O O5 0.250000 0.750000 0.718018
O O6 0.413100 0.750045 0.684277
O O7 0.368172 0.656971 0.780618
O O8 0.368119 0.843050 0.780639
O O9 0.500000 0.249982 0.586020
O O10 0.143844 0.158782 0.898235
O O11 0.000000 0.097000 0.845110
O O12 0.150886 0.000000 0.839419
O O13 0.500000 0.097027 0.154903
O O14 0.356175 0.158794 0.101741
O O15 0.349121 0.000000 0.160535
O O16 0.500000 0.250033 0.063392
O O17 0.350300 0.250037 0.000000
#
# Coordination Sequence:
#
# PCOD8274124 Si02
#       6
#    16  16  16  16  16  16
#     4  10  23  43  64  93 131 164 201 249 296 348
#     4  11  21  36  54  77 111 145 184 235 288 342
#     4  11  22  40  65  92 123 163 207 250 299 354
#     4   9  18  32  50  74 104 138 178 226 283 345
#     4   9  18  32  50  74 104 138 178 226 283 345
#     4   8  14  26  46  73 103 133 171 224 283 342
#
# _framework density 20.266995000000001
#
# number of rings (size 3 to 8) (size 9 to 14) (size 15 to 20)
#    0.000    2.333    1.667    3.500    0.000    4.667 
#    0.000    5.000    0.000    8.000    0.000    9.333 
#    0.000    0.000    0.000    0.000    0.000    0.000 
#
# Total GULP energy -594974.560419 kJ/mol
# GULP energy per Si atom -12395.303342 kJ/mol
# Density = 2.022087 g / cm^3
# Si number density = 20.266995 Si / 1000 Ang^3
#
#
#
# Elastic Constant Matrix: (Units=GPa)
#
#
# Indices 1 2 3 4 5 6 
#
# 1 101.4191 42.4300 19.8232 0.0000 0.0000 0.0000
# 2 42.4300 196.4451 63.4086 0.0000 0.0000 0.0000
# 3 19.8232 63.4086 134.4612 0.0000 0.0000 0.0000
# 4 0.0000 0.0000 0.0000 15.4178 0.0000 0.0000
# 5 0.0000 0.0000 0.0000 0.0000 76.2965 0.0000
# 6 0.0000 0.0000 0.0000 0.0000 0.0000 -13.1302
#
#
#
# Elastic Compliance Matrix: (Units=1/GPa)
#
#
# Indices 1 2 3 4 5 6 
#
# 1 0.010878 -0.002161 -0.000585 0.000000 0.000000 0.000000
# 2 -0.002161 0.006434 -0.002715 0.000000 0.000000 0.000000
# 3 -0.000585 -0.002715 0.008804 0.000000 0.000000 0.000000
# 4 0.000000 0.000000 0.000000 0.064860 0.000000 0.000000
# 5 0.000000 0.000000 0.000000 0.000000 0.013107 0.000000
# 6 0.000000 0.000000 0.000000 0.000000 0.000000 -0.076161
#
#
# Mechanical properties :
#
#
# Convention : Reuss Voigt Hill
#
# Bulk Modulus (GPa) = 65.81610 75.96100 70.88855
# Shear Modulus (GPa) = 113.87258 36.16107 75.01682
#
# Velocity S-wave (km/s) = 7.50388 4.22860 6.09054
# Velocity P-wave (km/s) = 10.37413 7.83600 9.19308
#
# Compressibility (1/GPa) = 0.01519385
#
# Stress axis : x y z
#
# Youngs Moduli (GPa) = 91.92534 155.43198 113.58718
#
# Poissons Ratio (x) = 0.33587 0.06642
# Poissons Ratio (y) = 0.19864 0.30843
# Poissons Ratio (z) = 0.05375 0.42206
#
# Static dielectric constant tensor:
#      x y z
#    x 3.552860 0.000000 0.000000 
#    y 0.000000 4.053430 0.000000 
#    z 0.000000 0.000000 3.725480 
# 
# 
# High freq. dielectric constant tensor:
#      x y z
#    x 1.787050 0.000000 0.000000 
#    y 0.000000 1.790980 0.000000 
#    z 0.000000 0.000000 1.793150 
# 
# From -- ./inp_files/62583.got.cif
#   From: 2010.03.12/outbox.cif.g09.slc.cpg/sg65_32_cif.got.tgz:62583.got - 2010.04.10 20:52:16.
