data_PCOD8274673
_publ_section_title
;
Structure prediction by ZEFSAII (Michael W. Deem and Ramdas Pophale) SiO2 
 PCOD8274673
Probable space group: C M M M
;
_chemical_formula_sum "Si O2"
_cell_formula_units_Z 88
_cell_length_a 9.433867
_cell_length_b 18.190905
_cell_length_c 28.370241
_cell_angle_alpha 90.000000
_cell_angle_beta 90.000000
_cell_angle_gamma 90.000000
_cell_volume 4868.633467
_symmetry_space_group_name_H-M "C M M M"
_symmetry_group_IT_number 65
_symmetry_cell_setting 'orthorhombic'
loop_
_space_group_symop_operation_xyz
x,y,z
-x,-y,z
x,-y,-z
-x,y,-z
-x,-y,-z
x,y,-z
-x,y,z
x,-y,z
1/2+x,1/2+y,z
1/2-x,1/2-y,z
1/2+x,1/2-y,-z
1/2-x,1/2+y,-z
1/2-x,1/2-y,-z
1/2+x,1/2+y,-z
1/2-x,1/2+y,z
1/2+x,1/2-y,z
loop_
_atom_site_type_symbol
_atom_site_label
_atom_site_fract_x
_atom_site_fract_y
_atom_site_fract_z
Si Si1 0.667270 0.325428 0.682127
Si Si2 0.658542 0.412617 0.051585
Si Si3 0.664727 0.086023 0.241249
Si Si4 0.162679 0.084895 0.411544
Si Si5 0.160494 0.587513 0.500000
Si Si6 0.843791 0.587267 0.864378
O O1 0.500000 0.312184 0.689758
O O2 0.750000 0.250000 0.677153
O O3 0.729199 0.369675 0.725965
O O4 0.698868 0.371037 0.635255
O O5 0.500000 0.381951 0.056287
O O6 0.658022 0.500000 0.055922
O O7 0.747228 0.377526 0.094560
O O8 0.720910 0.390164 0.000000
O O9 0.500000 0.106467 0.250733
O O10 0.709300 0.108015 0.187956
O O11 0.688248 0.000000 0.250205
O O12 0.259933 0.116863 0.453492
O O13 0.000000 0.094789 0.426986
O O14 0.197833 0.000000 0.401322
O O15 0.165359 0.500000 0.500000
O O16 0.000000 0.617491 0.500000
O O17 0.847915 0.500000 0.868826
O O18 0.000000 0.619750 0.872183
#
# Coordination Sequence:
#
# PCOD8274673 Si02
#       6
#    16  16  16  16   8  16
#     4  11  23  37  53  74 101 133 169 207 250 299
#     4   8  13  20  30  48  78 115 151 187 230 279
#     4   9  18  33  52  73  98 128 163 206 253 297
#     4   9  18  34  55  77 102 132 165 201 241 287
#     4   9  17  29  50  81 108 129 159 199 240 283
#     4   8  14  24  38  58  84 115 152 192 235 284
#
# _framework density 18.074888000000001
#
# number of rings (size 3 to 8) (size 9 to 14) (size 15 to 20)
#    0.000    3.000    0.000    3.000    0.000    4.727 
#    0.000    5.909    0.000    0.000    0.000    0.000 
#    0.000    0.727    0.000    2.364    0.000    5.273 
#
# Total GULP energy -545368.349571 kJ/mol
# GULP energy per Si atom -12394.735218 kJ/mol
# Density = 1.803375 g / cm^3
# Si number density = 18.074888 Si / 1000 Ang^3
#
#
#
# Elastic Constant Matrix: (Units=GPa)
#
#
# Indices 1 2 3 4 5 6 
#
# 1 117.4859 41.7275 100.1409 0.0000 0.0000 0.0000
# 2 41.7275 45.6726 46.6728 0.0000 0.0000 0.0000
# 3 100.1409 46.6728 177.3722 0.0000 0.0000 0.0000
# 4 0.0000 0.0000 0.0000 -3.4784 0.0000 0.0000
# 5 0.0000 0.0000 0.0000 0.0000 37.6394 0.0000
# 6 0.0000 0.0000 0.0000 0.0000 0.0000 18.8505
#
#
#
# Elastic Compliance Matrix: (Units=1/GPa)
#
#
# Indices 1 2 3 4 5 6 
#
# 1 0.018564 -0.008549 -0.008231 0.000000 0.000000 0.000000
# 2 -0.008549 0.033885 -0.004090 0.000000 0.000000 0.000000
# 3 -0.008231 -0.004090 0.011361 0.000000 0.000000 0.000000
# 4 0.000000 0.000000 0.000000 -0.287488 0.000000 0.000000
# 5 0.000000 0.000000 0.000000 0.000000 0.026568 0.000000
# 6 0.000000 0.000000 0.000000 0.000000 0.000000 0.053049
#
#
# Mechanical properties :
#
#
# Convention : Reuss Voigt Hill
#
# Bulk Modulus (GPa) = 45.31025 79.73480 62.52252
# Shear Modulus (GPa) = -52.65158 20.73493 -15.95833
#
# Velocity S-wave (km/s) = -5.40305 3.39066 -2.97459
# Velocity P-wave (km/s) = 3.71503 7.71609 4.78209
#
# Compressibility (1/GPa) = 0.02207006
#
# Stress axis : x y z
#
# Youngs Moduli (GPa) = 53.86708 29.51185 88.01782
#
# Poissons Ratio (x) = 0.25229 0.72452
# Poissons Ratio (y) = 0.46051 0.35996
# Poissons Ratio (z) = 0.44341 0.12069
#
# Static dielectric constant tensor:
#      x y z
#    x 3.538440 0.000000 0.000000 
#    y 0.000000 2.854160 0.000000 
#    z 0.000000 0.000000 3.615400 
# 
# 
# High freq. dielectric constant tensor:
#      x y z
#    x 1.701940 0.000000 0.000000 
#    y 0.000000 1.643690 0.000000 
#    z 0.000000 0.000000 1.718120 
# 
# From -- ./inp_files/76598.got.cif
#   From: 2010.03.12/outbox.cif.g09.slc.cpg/sg65_39_cif.got.tgz:76598.got - 2010.04.10 20:52:16.
