data_PCOD8274472
_publ_section_title
;
Structure prediction by ZEFSAII (Michael W. Deem and Ramdas Pophale) SiO2 
 PCOD8274472
Probable space group: C M M M
;
_chemical_formula_sum "Si O2"
_cell_formula_units_Z 72
_cell_length_a 8.967182
_cell_length_b 31.634730
_cell_length_c 13.586847
_cell_angle_alpha 90.000000
_cell_angle_beta 90.000000
_cell_angle_gamma 90.000000
_cell_volume 3854.240418
_symmetry_space_group_name_H-M "C M M M"
_symmetry_group_IT_number 65
_symmetry_cell_setting 'orthorhombic'
loop_
_space_group_symop_operation_xyz
x,y,z
-x,-y,z
x,-y,-z
-x,y,-z
-x,-y,-z
x,y,-z
-x,y,z
x,-y,z
1/2+x,1/2+y,z
1/2-x,1/2-y,z
1/2+x,1/2-y,-z
1/2-x,1/2+y,-z
1/2-x,1/2-y,-z
1/2+x,1/2+y,-z
1/2-x,1/2+y,z
1/2+x,1/2-y,z
loop_
_atom_site_type_symbol
_atom_site_label
_atom_site_fract_x
_atom_site_fract_y
_atom_site_fract_z
Si Si1 0.824008 0.206775 0.207341
Si Si2 0.827580 0.331824 0.388312
Si Si3 0.828245 0.629665 0.111008
Si Si4 0.324428 0.500000 0.389227
Si Si5 0.329657 0.078943 0.702285
O O1 0.750000 0.250000 0.170242
O O2 0.773229 0.197149 0.318843
O O3 0.773533 0.169971 0.133531
O O4 0.000000 0.211355 0.203867
O O5 0.782335 0.321825 0.500000
O O6 0.798106 0.381109 0.367570
O O7 0.000000 0.321001 0.367374
O O8 0.790047 0.591292 0.184915
O O9 0.000000 0.643361 0.127389
O O10 0.798472 0.614013 0.000000
O O11 0.500000 0.500000 0.394526
O O12 0.256857 0.500000 0.500000
O O13 0.275100 0.541202 0.330320
O O14 0.500000 0.063835 0.692983
#
# Coordination Sequence:
#
# PCOD8274472 Si02
#       5
#    16  16  16   8  16
#     4  11  22  35  52  76 107 140 176 218 262 312
#     4   9  18  34  55  77 103 137 177 220 266 316
#     4   9  19  38  61  81 103 133 171 217 267 317
#     4  11  23  35  50  77 112 146 177 211 252 299
#     4   9  18  34  56  80 104 134 173 214 258 309
#
# _framework density 18.680724999999999
#
# number of rings (size 3 to 8) (size 9 to 14) (size 15 to 20)
#    0.000    2.333    0.000    4.333    0.000    7.111 
#    0.000    0.556    0.000    3.333    0.000    0.000 
#    0.000    0.000    0.000    0.000    0.000    0.000 
#
# Total GULP energy -446473.349026 kJ/mol
# GULP energy per Si atom -12402.037473 kJ/mol
# Density = 1.863821 g / cm^3
# Si number density = 18.680725 Si / 1000 Ang^3
#
#
#
# Elastic Constant Matrix: (Units=GPa)
#
#
# Indices 1 2 3 4 5 6 
#
# 1 100.2354 48.9154 38.2292 0.0000 0.0000 0.0000
# 2 48.9154 90.6234 36.1595 0.0000 0.0000 0.0000
# 3 38.2292 36.1595 127.4324 0.0000 0.0000 0.0000
# 4 0.0000 0.0000 0.0000 12.9267 0.0000 0.0000
# 5 0.0000 0.0000 0.0000 0.0000 25.6230 0.0000
# 6 0.0000 0.0000 0.0000 0.0000 0.0000 32.5343
#
#
#
# Elastic Compliance Matrix: (Units=1/GPa)
#
#
# Indices 1 2 3 4 5 6 
#
# 1 0.014137 -0.006697 -0.002341 0.000000 0.000000 0.000000
# 2 -0.006697 0.015616 -0.002422 0.000000 0.000000 0.000000
# 3 -0.002341 -0.002422 0.009237 0.000000 0.000000 0.000000
# 4 0.000000 0.000000 0.000000 0.077359 0.000000 0.000000
# 5 0.000000 0.000000 0.000000 0.000000 0.039027 0.000000
# 6 0.000000 0.000000 0.000000 0.000000 0.000000 0.030737
#
#
# Mechanical properties :
#
#
# Convention : Reuss Voigt Hill
#
# Bulk Modulus (GPa) = 62.22588 62.76660 62.49624
# Shear Modulus (GPa) = 23.32200 27.21595 25.26897
#
# Velocity S-wave (km/s) = 3.53718 3.82108 3.68186
# Velocity P-wave (km/s) = 7.07564 7.28973 7.18348
#
# Compressibility (1/GPa) = 0.01607048
#
# Stress axis : x y z
#
# Youngs Moduli (GPa) = 70.73417 64.03755 108.26230
#
# Poissons Ratio (x) = 0.42885 0.25343
# Poissons Ratio (y) = 0.47370 0.26221
# Poissons Ratio (z) = 0.16558 0.15510
#
# Static dielectric constant tensor:
#      x y z
#    x 3.307590 0.000000 0.000000 
#    y 0.000000 3.263230 0.000000 
#    z 0.000000 0.000000 3.586870 
# 
# 
# High freq. dielectric constant tensor:
#      x y z
#    x 1.718550 0.000000 0.000000 
#    y 0.000000 1.713180 0.000000 
#    z 0.000000 0.000000 1.731010 
# 
# From -- ./inp_files/36965.got.cif
#   From: 2010.03.12/outbox.cif.g09.slc.cpg/sg65_19_cif.got.tgz:36965.got - 2010.04.10 20:52:16.
