data_PCOD8274220
_publ_section_title
;
Structure prediction by ZEFSAII (Michael W. Deem and Ramdas Pophale) SiO2 
 PCOD8274220
Probable space group: C M M M
;
_chemical_formula_sum "Si O2"
_cell_formula_units_Z 72
_cell_length_a 10.227516
_cell_length_b 22.615169
_cell_length_c 19.356673
_cell_angle_alpha 90.000000
_cell_angle_beta 90.000000
_cell_angle_gamma 90.000000
_cell_volume 4477.140449
_symmetry_space_group_name_H-M "C M M M"
_symmetry_group_IT_number 65
_symmetry_cell_setting 'orthorhombic'
loop_
_space_group_symop_operation_xyz
x,y,z
-x,-y,z
x,-y,-z
-x,y,-z
-x,-y,-z
x,y,-z
-x,y,z
x,-y,z
1/2+x,1/2+y,z
1/2-x,1/2-y,z
1/2+x,1/2-y,-z
1/2-x,1/2+y,-z
1/2-x,1/2-y,-z
1/2+x,1/2+y,-z
1/2-x,1/2+y,z
1/2+x,1/2-y,z
loop_
_atom_site_type_symbol
_atom_site_label
_atom_site_fract_x
_atom_site_fract_y
_atom_site_fract_z
Si Si1 0.645403 0.000000 0.080772
Si Si2 0.646403 0.929866 0.426935
Si Si3 0.000000 0.829547 0.079897
Si Si4 0.762356 0.619940 0.140167
Si Si5 0.844069 0.431538 0.722218
Si Si6 0.500000 0.189539 0.079036
O O1 0.723742 0.057357 0.103077
O O2 0.500000 0.000000 0.115306
O O3 0.629827 0.000000 0.000000
O O4 0.717275 0.910037 0.500000
O O5 0.500000 0.904298 0.429314
O O6 0.710376 0.910241 0.353726
O O7 0.639519 0.000000 0.424280
O O8 0.123711 0.853761 0.120636
O O9 0.000000 0.759450 0.083469
O O10 0.000000 0.850683 0.000000
O O11 0.772929 0.610338 0.222493
O O12 0.871882 0.665554 0.116057
O O13 0.807963 0.500000 0.737153
O O14 0.000000 0.423381 0.726120
O O15 0.500000 0.167346 0.000000
#
# Coordination Sequence:
#
# PCOD8274220 Si02
#       6
#     8  16   8  16  16   8
#     4  11  20  31  51  75  96 124 161 198 243 304
#     4   7  10  17  33  60  96 130 154 182 226 279
#     4  11  26  41  51  69  96 128 168 214 259 290
#     4  12  21  35  54  75  99 126 162 204 252 302
#     4   9  15  26  44  70 100 129 159 194 237 287
#     4  11  22  39  59  71  88 124 170 214 251 296
#
# _framework density 16.081693000000001
#
# number of rings (size 3 to 8) (size 9 to 14) (size 15 to 20)
#    0.000    2.111    3.333    4.667    0.000    2.222 
#    0.000    1.111    0.000    0.000    0.000    0.778 
#    0.000    8.889    0.000    0.000    0.000    0.000 
#
# Total GULP energy -445985.738927 kJ/mol
# GULP energy per Si atom -12388.492748 kJ/mol
# Density = 1.604509 g / cm^3
# Si number density = 16.081693 Si / 1000 Ang^3
#
#
#
# Elastic Constant Matrix: (Units=GPa)
#
#
# Indices 1 2 3 4 5 6 
#
# 1 86.0361 28.4371 48.9390 0.0000 0.0000 0.0000
# 2 28.4371 54.0461 40.4418 0.0000 0.0000 0.0000
# 3 48.9390 40.4418 184.2916 0.0000 0.0000 0.0000
# 4 0.0000 0.0000 0.0000 -4.9688 0.0000 0.0000
# 5 0.0000 0.0000 0.0000 0.0000 13.6283 0.0000
# 6 0.0000 0.0000 0.0000 0.0000 0.0000 -49.2844
#
#
#
# Elastic Compliance Matrix: (Units=1/GPa)
#
#
# Indices 1 2 3 4 5 6 
#
# 1 0.015127 -0.005927 -0.002716 0.000000 0.000000 0.000000
# 2 -0.005927 0.024460 -0.003794 0.000000 0.000000 0.000000
# 3 -0.002716 -0.003794 0.006980 0.000000 0.000000 0.000000
# 4 0.000000 0.000000 0.000000 -0.201257 0.000000 0.000000
# 5 0.000000 0.000000 0.000000 0.000000 0.073377 0.000000
# 6 0.000000 0.000000 0.000000 0.000000 0.000000 -0.020290
#
#
# Mechanical properties :
#
#
# Convention : Reuss Voigt Hill
#
# Bulk Modulus (GPa) = 46.09713 62.22330 54.16022
# Shear Modulus (GPa) = -71.94434 5.64541 -33.14946
#
# Velocity S-wave (km/s) = -6.69581 1.87565 -4.54510
# Velocity P-wave (km/s) = 5.57243 6.59293 2.49147
#
# Compressibility (1/GPa) = 0.02169332
#
# Stress axis : x y z
#
# Youngs Moduli (GPa) = 66.10650 40.88320 143.26511
#
# Poissons Ratio (x) = 0.24230 0.38917
# Poissons Ratio (y) = 0.39179 0.54351
# Poissons Ratio (z) = 0.17958 0.15510
#
# Static dielectric constant tensor:
#      x y z
#    x 1.022840 0.000000 0.000000 
#    y 0.000000 2.761280 0.000000 
#    z 0.000000 0.000000 3.754350 
# 
# 
# High freq. dielectric constant tensor:
#      x y z
#    x 1.576730 0.000000 0.000000 
#    y 0.000000 1.584440 0.000000 
#    z 0.000000 0.000000 1.643060 
# 
# From -- ./inp_files/59545.got.cif
#   From: 2010.03.12/outbox.cif.g09.slc.cpg/sg65_30_cif.got.tgz:59545.got - 2010.04.10 20:52:16.
