data_PCOD8274737
_publ_section_title
;
Structure prediction by ZEFSAII (Michael W. Deem and Ramdas Pophale) SiO2 
 PCOD8274737
Probable space group: C M M M
;
_chemical_formula_sum "Si O2"
_cell_formula_units_Z 64
_cell_length_a 9.691127
_cell_length_b 18.204741
_cell_length_c 18.479016
_cell_angle_alpha 90.000000
_cell_angle_beta 90.000000
_cell_angle_gamma 90.000000
_cell_volume 3260.150364
_symmetry_space_group_name_H-M "C M M M"
_symmetry_group_IT_number 65
_symmetry_cell_setting 'orthorhombic'
loop_
_space_group_symop_operation_xyz
x,y,z
-x,-y,z
x,-y,-z
-x,y,-z
-x,-y,-z
x,y,-z
-x,y,z
x,-y,z
1/2+x,1/2+y,z
1/2-x,1/2-y,z
1/2+x,1/2-y,-z
1/2-x,1/2+y,-z
1/2-x,1/2-y,-z
1/2+x,1/2+y,-z
1/2-x,1/2+y,z
1/2+x,1/2-y,z
loop_
_atom_site_type_symbol
_atom_site_label
_atom_site_fract_x
_atom_site_fract_y
_atom_site_fract_z
Si Si1 0.000000 0.587572 0.584821
Si Si2 0.500000 0.420023 0.417253
Si Si3 0.239988 0.836474 0.651023
Si Si4 0.345706 0.913272 0.917991
Si Si5 0.335412 0.323551 0.187037
O O1 0.123080 0.621689 0.630023
O O2 0.000000 0.500000 0.591357
O O3 0.000000 0.610961 0.500000
O O4 0.500000 0.500000 0.376400
O O5 0.500000 0.439343 0.500000
O O6 0.370233 0.370458 0.401627
O O7 0.250000 0.750000 0.636943
O O8 0.196379 0.853449 0.733096
O O9 0.500000 0.888921 0.891635
O O10 0.222301 0.882088 0.869586
O O11 0.334267 0.000000 0.914375
O O12 0.323429 0.885608 0.000000
O O13 0.500000 0.311433 0.176803
O O14 0.250000 0.250000 0.172544
#
# Coordination Sequence:
#
# PCOD8274737 Si02
#       5
#     8   8  16  16  16
#     4  11  25  43  63  91 126 163 208 261 319 382
#     4  11  23  41  63  89 124 161 202 259 319 370
#     4  11  24  41  63  91 123 164 211 259 309 375
#     4   9  20  40  65  94 128 166 208 253 304 366
#     4  11  24  41  63  91 125 164 207 258 312 369
#
# _framework density 19.630997000000001
#
# number of rings (size 3 to 8) (size 9 to 14) (size 15 to 20)
#    0.000    1.500    1.250    3.750    7.000    8.500 
#    0.000    1.250    0.000    0.000    0.000    0.000 
#    0.000    0.000    0.000    0.000    0.000    0.000 
#
# Total GULP energy -396677.954760 kJ/mol
# GULP energy per Si atom -12396.186086 kJ/mol
# Density = 1.958632 g / cm^3
# Si number density = 19.630997 Si / 1000 Ang^3
#
#
#
# Elastic Constant Matrix: (Units=GPa)
#
#
# Indices 1 2 3 4 5 6 
#
# 1 191.2168 59.8688 62.8080 0.0000 0.0000 0.0000
# 2 59.8688 91.6280 54.3311 0.0000 0.0000 0.0000
# 3 62.8080 54.3311 91.4333 0.0000 0.0000 0.0000
# 4 0.0000 0.0000 0.0000 31.6978 0.0000 0.0000
# 5 0.0000 0.0000 0.0000 0.0000 155.3131 0.0000
# 6 0.0000 0.0000 0.0000 0.0000 0.0000 -160.3342
#
#
#
# Elastic Compliance Matrix: (Units=1/GPa)
#
#
# Indices 1 2 3 4 5 6 
#
# 1 0.007168 -0.002724 -0.003306 0.000000 0.000000 0.000000
# 2 -0.002724 0.017886 -0.008757 0.000000 0.000000 0.000000
# 3 -0.003306 -0.008757 0.018411 0.000000 0.000000 0.000000
# 4 0.000000 0.000000 0.000000 0.031548 0.000000 0.000000
# 5 0.000000 0.000000 0.000000 0.000000 0.006439 0.000000
# 6 0.000000 0.000000 0.000000 0.000000 0.000000 -0.006237
#
#
# Mechanical properties :
#
#
# Convention : Reuss Voigt Hill
#
# Bulk Modulus (GPa) = 71.98064 80.92154 76.45109
# Shear Modulus (GPa) = 45.69615 18.48668 32.09142
#
# Velocity S-wave (km/s) = 4.82992 3.07206 4.04757
# Velocity P-wave (km/s) = 8.23714 7.34126 7.80207
#
# Compressibility (1/GPa) = 0.01389262
#
# Stress axis : x y z
#
# Youngs Moduli (GPa) = 139.50559 55.91033 54.31439
#
# Poissons Ratio (x) = 0.15227 0.17954
# Poissons Ratio (y) = 0.37994 0.47564
# Poissons Ratio (z) = 0.46116 0.48962
#
# Static dielectric constant tensor:
#      x y z
#    x 3.750330 0.000000 0.000000 
#    y 0.000000 3.613070 0.000000 
#    z 0.000000 0.000000 3.698420 
# 
# 
# High freq. dielectric constant tensor:
#      x y z
#    x 1.780720 0.000000 0.000000 
#    y 0.000000 1.771910 0.000000 
#    z 0.000000 0.000000 1.768530 
# 
# From -- ./inp_files/49129.got.cif
#   From: 2010.03.12/outbox.cif.g09.slc.cpg/sg65_25_cif.got.tgz:49129.got - 2010.04.10 20:52:16.
