data_PCOD8274478
_publ_section_title
;
Structure prediction by ZEFSAII (Michael W. Deem and Ramdas Pophale) SiO2 
 PCOD8274478
Probable space group: C M M M
;
_chemical_formula_sum "Si O2"
_cell_formula_units_Z 88
_cell_length_a 9.013606
_cell_length_b 18.819182
_cell_length_c 27.863665
_cell_angle_alpha 90.000000
_cell_angle_beta 90.000000
_cell_angle_gamma 90.000000
_cell_volume 4726.477042
_symmetry_space_group_name_H-M "C M M M"
_symmetry_group_IT_number 65
_symmetry_cell_setting 'orthorhombic'
loop_
_space_group_symop_operation_xyz
x,y,z
-x,-y,z
x,-y,-z
-x,y,-z
-x,-y,-z
x,y,-z
-x,y,z
x,-y,z
1/2+x,1/2+y,z
1/2-x,1/2-y,z
1/2+x,1/2-y,-z
1/2-x,1/2+y,-z
1/2-x,1/2-y,-z
1/2+x,1/2+y,-z
1/2-x,1/2+y,z
1/2+x,1/2-y,z
loop_
_atom_site_type_symbol
_atom_site_label
_atom_site_fract_x
_atom_site_fract_y
_atom_site_fract_z
Si Si1 0.170667 0.581139 0.555892
Si Si2 0.676095 0.420579 0.721568
Si Si3 0.676475 0.578599 0.000000
Si Si4 0.674306 0.676587 0.806957
Si Si5 0.174385 0.823163 0.915153
Si Si6 0.824253 0.173675 0.367376
O O1 0.197493 0.595164 0.500000
O O2 0.212513 0.500000 0.568907
O O3 0.276699 0.634703 0.583951
O O4 0.000000 0.596191 0.569417
O O5 0.500000 0.424926 0.720497
O O6 0.743965 0.500000 0.718375
O O7 0.730653 0.384793 0.771175
O O8 0.733097 0.373921 0.677017
O O9 0.733242 0.617538 0.951933
O O10 0.745467 0.500000 0.000000
O O11 0.500000 0.575268 0.000000
O O12 0.500000 0.688546 0.801831
O O13 0.750000 0.750000 0.792016
O O14 0.718059 0.653820 0.861072
O O15 0.250000 0.750000 0.929786
O O16 0.000000 0.812039 0.920158
O O17 0.750000 0.250000 0.363435
O O18 0.000000 0.183402 0.367037
#
# Coordination Sequence:
#
# PCOD8274478 Si02
#       6
#    16  16   8  16  16  16
#     4   9  19  37  59  81 106 135 166 203 248 297
#     4   9  18  32  50  73  99 126 160 203 247 292
#     4   9  17  28  43  67  96 121 154 202 244 279
#     4   9  17  30  49  71  95 124 158 196 239 288
#     4   9  17  29  47  69  92 123 159 195 238 286
#     4  11  22  35  53  76 103 135 170 209 250 292
#
# _framework density 18.618518000000002
#
# number of rings (size 3 to 8) (size 9 to 14) (size 15 to 20)
#    0.000    2.636    0.000    2.455    0.000    2.545 
#    0.000    5.455    0.000    3.818    0.000    5.091 
#    0.000    0.000    0.000    0.000    0.000    0.000 
#
# Total GULP energy -545596.655320 kJ/mol
# GULP energy per Si atom -12399.923985 kJ/mol
# Density = 1.857614 g / cm^3
# Si number density = 18.618518 Si / 1000 Ang^3
#
#
#
# Elastic Constant Matrix: (Units=GPa)
#
#
# Indices 1 2 3 4 5 6 
#
# 1 36.5180 41.2491 31.8562 0.0000 0.0000 0.0000
# 2 41.2491 177.3739 98.8370 0.0000 0.0000 0.0000
# 3 31.8562 98.8370 127.5279 0.0000 0.0000 0.0000
# 4 0.0000 0.0000 0.0000 38.2200 0.0000 0.0000
# 5 0.0000 0.0000 0.0000 0.0000 18.4789 0.0000
# 6 0.0000 0.0000 0.0000 0.0000 0.0000 20.4691
#
#
#
# Elastic Compliance Matrix: (Units=1/GPa)
#
#
# Indices 1 2 3 4 5 6 
#
# 1 0.038701 -0.006360 -0.004739 0.000000 0.000000 0.000000
# 2 -0.006360 0.010968 -0.006912 0.000000 0.000000 0.000000
# 3 -0.004739 -0.006912 0.014382 0.000000 0.000000 0.000000
# 4 0.000000 0.000000 0.000000 0.026164 0.000000 0.000000
# 5 0.000000 0.000000 0.000000 0.000000 0.054116 0.000000
# 6 0.000000 0.000000 0.000000 0.000000 0.000000 0.048854
#
#
# Mechanical properties :
#
#
# Convention : Reuss Voigt Hill
#
# Bulk Modulus (GPa) = 35.67498 76.14493 55.90996
# Shear Modulus (GPa) = 20.95999 26.73212 23.84605
#
# Velocity S-wave (km/s) = 3.35888 3.79328 3.58267
# Velocity P-wave (km/s) = 5.85195 7.75703 6.87084
#
# Compressibility (1/GPa) = 0.02803085
#
# Stress axis : x y z
#
# Youngs Moduli (GPa) = 25.83916 91.17137 69.53071
#
# Poissons Ratio (x) = 0.57982 0.32948
# Poissons Ratio (y) = 0.16433 0.48060
# Poissons Ratio (z) = 0.12244 0.63019
#
# Static dielectric constant tensor:
#      x y z
#    x 3.107650 0.000000 0.000000 
#    y 0.000000 3.617120 0.000000 
#    z 0.000000 0.000000 3.624470 
# 
# 
# High freq. dielectric constant tensor:
#      x y z
#    x 1.690410 0.000000 0.000000 
#    y 0.000000 1.725390 0.000000 
#    z 0.000000 0.000000 1.736970 
# 
# From -- ./inp_files/76484.got.cif
#   From: 2010.03.12/outbox.cif.g09.slc.cpg/sg65_39_cif.got.tgz:76484.got - 2010.04.10 20:52:16.
