data_PCOD8274877
_publ_section_title
;
Structure prediction by ZEFSAII (Michael W. Deem and Ramdas Pophale) SiO2 
 PCOD8274877
Probable space group: C M M M
;
_chemical_formula_sum "Si O2"
_cell_formula_units_Z 72
_cell_length_a 28.989742
_cell_length_b 15.681457
_cell_length_c 9.213709
_cell_angle_alpha 90.000000
_cell_angle_beta 90.000000
_cell_angle_gamma 90.000000
_cell_volume 4188.564943
_symmetry_space_group_name_H-M "C M M M"
_symmetry_group_IT_number 65
_symmetry_cell_setting 'orthorhombic'
loop_
_space_group_symop_operation_xyz
x,y,z
-x,-y,z
x,-y,-z
-x,y,-z
-x,-y,-z
x,y,-z
-x,y,z
x,-y,z
1/2+x,1/2+y,z
1/2-x,1/2-y,z
1/2+x,1/2-y,-z
1/2-x,1/2+y,-z
1/2-x,1/2-y,-z
1/2+x,1/2+y,-z
1/2-x,1/2+y,z
1/2+x,1/2-y,z
loop_
_atom_site_type_symbol
_atom_site_label
_atom_site_fract_x
_atom_site_fract_y
_atom_site_fract_z
Si Si1 0.724581 0.500000 0.335978
Si Si2 0.277304 0.666607 0.830887
Si Si3 0.615649 0.334279 0.830299
Si Si4 0.051767 0.317431 0.826446
Si Si5 0.054610 0.500000 0.841621
Si Si6 0.614908 0.500000 0.663863
O O1 0.743527 0.500000 0.500000
O O2 0.742474 0.584888 0.255055
O O3 0.669763 0.500000 0.331798
O O4 0.250000 0.750000 0.778024
O O5 0.330887 0.682631 0.796653
O O6 0.268991 0.648603 0.000000
O O7 0.587098 0.253736 0.770164
O O8 0.596472 0.416605 0.746253
O O9 0.607083 0.349741 0.000000
O O10 0.067924 0.410508 0.762162
O O11 0.000000 0.294576 0.773263
O O12 0.052579 0.323268 0.000000
O O13 0.000000 0.500000 0.861771
O O14 0.078473 0.500000 0.000000
O O15 0.596021 0.500000 0.500000
#
# Coordination Sequence:
#
# PCOD8274877 Si02
#       6
#     8  16  16  16   8   8
#     4   9  17  29  46  65  83 110 148 181 208 247
#     4   9  17  29  44  63  88 115 141 172 212 256
#     4   9  16  27  44  64  84 109 141 174 208 247
#     4   8  13  22  38  61  86 109 136 172 210 245
#     4   7  10  18  33  54  81 107 126 153 199 247
#     4   9  17  29  44  61  82 111 144 175 209 250
#
# _framework density 17.189658999999999
#
# number of rings (size 3 to 8) (size 9 to 14) (size 15 to 20)
#    0.000    3.444    0.000    2.000    0.000    3.111 
#    0.000    1.667    0.000    9.333    0.000    0.778 
#    0.000    2.667    0.000    0.000    0.000    0.000 
#
# Total GULP energy -446097.202633 kJ/mol
# GULP energy per Si atom -12391.588962 kJ/mol
# Density = 1.715053 g / cm^3
# Si number density = 17.189659 Si / 1000 Ang^3
#
#
#
# Elastic Constant Matrix: (Units=GPa)
#
#
# Indices 1 2 3 4 5 6 
#
# 1 46.6848 62.4667 23.4004 0.0000 0.0000 0.0000
# 2 62.4667 210.2945 60.9757 0.0000 0.0000 0.0000
# 3 23.4004 60.9757 53.6228 0.0000 0.0000 0.0000
# 4 0.0000 0.0000 0.0000 7.9815 0.0000 0.0000
# 5 0.0000 0.0000 0.0000 0.0000 7.8251 0.0000
# 6 0.0000 0.0000 0.0000 0.0000 0.0000 32.4965
#
#
#
# Elastic Compliance Matrix: (Units=1/GPa)
#
#
# Indices 1 2 3 4 5 6 
#
# 1 0.036561 -0.009301 -0.005379 0.000000 0.000000 0.000000
# 2 -0.009301 0.009460 -0.006699 0.000000 0.000000 0.000000
# 3 -0.005379 -0.006699 0.028613 0.000000 0.000000 0.000000
# 4 0.000000 0.000000 0.000000 0.125290 0.000000 0.000000
# 5 0.000000 0.000000 0.000000 0.000000 0.127793 0.000000
# 6 0.000000 0.000000 0.000000 0.000000 0.000000 0.030773
#
#
# Mechanical properties :
#
#
# Convention : Reuss Voigt Hill
#
# Bulk Modulus (GPa) = 31.36946 67.14308 49.25627
# Shear Modulus (GPa) = 12.13966 20.57792 16.35879
#
# Velocity S-wave (km/s) = 2.66036 3.46368 3.08825
# Velocity P-wave (km/s) = 5.26549 7.42570 6.43686
#
# Compressibility (1/GPa) = 0.03187814
#
# Stress axis : x y z
#
# Youngs Moduli (GPa) = 27.35147 105.70528 34.94859
#
# Poissons Ratio (x) = 0.98312 0.18799
# Poissons Ratio (y) = 0.25439 0.23411
# Poissons Ratio (z) = 0.14712 0.70810
#
# Static dielectric constant tensor:
#      x y z
#    x 2.908340 0.000000 0.000000 
#    y 0.000000 3.696210 0.000000 
#    z 0.000000 0.000000 2.891190 
# 
# 
# High freq. dielectric constant tensor:
#      x y z
#    x 1.622390 0.000000 0.000000 
#    y 0.000000 1.686120 0.000000 
#    z 0.000000 0.000000 1.621750 
# 
# From -- ./inp_files/18072.got.cif
#   From: 2010.03.12/outbox.cif.g09.slc.cpg/sg65_10_cif.got.tgz:18072.got - 2010.04.10 20:52:16.
