data_PCOD8274149
_publ_section_title
;
Structure prediction by ZEFSAII (Michael W. Deem and Ramdas Pophale) SiO2 
 PCOD8274149
Probable space group: C M M M
;
_chemical_formula_sum "Si O2"
_cell_formula_units_Z 90
_cell_length_a 22.440437
_cell_length_b 24.272474
_cell_length_c 7.929740
_cell_angle_alpha 90.000000
_cell_angle_beta 90.000000
_cell_angle_gamma 90.000000
_cell_volume 4319.209826
_symmetry_space_group_name_H-M "C M M M"
_symmetry_group_IT_number 65
_symmetry_cell_setting 'orthorhombic'
loop_
_space_group_symop_operation_xyz
x,y,z
-x,-y,z
x,-y,-z
-x,y,-z
-x,-y,-z
x,y,-z
-x,y,z
x,-y,z
1/2+x,1/2+y,z
1/2-x,1/2-y,z
1/2+x,1/2-y,-z
1/2-x,1/2+y,-z
1/2-x,1/2-y,-z
1/2+x,1/2+y,-z
1/2-x,1/2+y,z
1/2+x,1/2-y,z
loop_
_atom_site_type_symbol
_atom_site_label
_atom_site_fract_x
_atom_site_fract_y
_atom_site_fract_z
Si Si1 0.379974 0.559839 0.500000
Si Si2 0.500000 0.084782 0.191929
Si Si3 0.500000 0.785136 0.191431
Si Si4 0.168427 0.868307 0.806508
Si Si5 0.699714 0.159118 0.189651
Si Si6 0.627306 0.938991 0.691398
Si Si7 0.000000 0.000000 0.500000
Si Si8 0.875808 0.758150 0.311858
O O1 0.346650 0.500000 0.500000
O O2 0.362898 0.590913 0.673941
O O3 0.451210 0.549857 0.500000
O O4 0.500000 0.149954 0.201866
O O5 0.556671 0.060690 0.286713
O O6 0.500000 0.064074 0.000000
O O7 0.558143 0.763683 0.284179
O O8 0.500000 0.764103 0.000000
O O9 0.235849 0.858711 0.741292
O O10 0.136307 0.809014 0.811869
O O11 0.166028 0.891922 0.000000
O O12 0.657344 0.105779 0.188557
O O13 0.671991 0.209080 0.294421
O O14 0.705407 0.180916 0.000000
O O15 0.643483 0.923408 0.500000
O O16 0.651686 0.000000 0.735867
O O17 0.870411 0.781479 0.500000
#
# Coordination Sequence:
#
# PCOD8274149 Si02
#       8
#     8   8   8  16  16  16   2  16
#     4  10  24  50  77 105 142 173 223 280 345 410
#     4  11  22  38  60  83 119 168 222 277 333 383
#     4  11  23  39  61  92 132 176 220 280 340 395
#     4  11  25  45  72 106 140 182 226 274 337 416
#     4  11  24  41  63  95 138 180 225 275 336 404
#     4  11  24  39  59  87 121 169 227 278 332 388
#     4   8  24  52  82 108 140 182 216 294 356 424
#     4  12  24  40  67 101 137 179 227 279 343 406
#
# _framework density 20.837146000000001
#
# number of rings (size 3 to 8) (size 9 to 14) (size 15 to 20)
#    0.267    0.711    2.667    4.000    2.489    7.111 
#    0.000    3.556    0.000    0.000    0.000    0.000 
#    0.000    0.000    0.000    0.000    0.000    0.000 
#
# Total GULP energy -557532.714156 kJ/mol
# GULP energy per Si atom -12389.615870 kJ/mol
# Density = 2.078972 g / cm^3
# Si number density = 20.837146 Si / 1000 Ang^3
#
#
#
# Elastic Constant Matrix: (Units=GPa)
#
#
# Indices 1 2 3 4 5 6 
#
# 1 124.3746 39.9553 35.3297 0.0000 0.0000 0.0000
# 2 39.9553 114.7539 37.7130 0.0000 0.0000 0.0000
# 3 35.3297 37.7130 96.4971 0.0000 0.0000 0.0000
# 4 0.0000 0.0000 0.0000 19.1589 0.0000 0.0000
# 5 0.0000 0.0000 0.0000 0.0000 26.9209 0.0000
# 6 0.0000 0.0000 0.0000 0.0000 0.0000 -19.9315
#
#
#
# Elastic Compliance Matrix: (Units=1/GPa)
#
#
# Indices 1 2 3 4 5 6 
#
# 1 0.009560 -0.002499 -0.002523 0.000000 0.000000 0.000000
# 2 -0.002499 0.010652 -0.003248 0.000000 0.000000 0.000000
# 3 -0.002523 -0.003248 0.012556 0.000000 0.000000 0.000000
# 4 0.000000 0.000000 0.000000 0.052195 0.000000 0.000000
# 5 0.000000 0.000000 0.000000 0.000000 0.037146 0.000000
# 6 0.000000 0.000000 0.000000 0.000000 0.000000 -0.050172
#
#
# Mechanical properties :
#
#
# Convention : Reuss Voigt Hill
#
# Bulk Modulus (GPa) = 61.62601 62.40239 62.01420
# Shear Modulus (GPa) = 53.25543 20.07151 36.66347
#
# Velocity S-wave (km/s) = 5.06097 3.10700 4.19922
# Velocity P-wave (km/s) = 7.98690 6.54859 7.30323
#
# Compressibility (1/GPa) = 0.01622691
#
# Stress axis : x y z
#
# Youngs Moduli (GPa) = 104.60360 93.87971 79.64196
#
# Poissons Ratio (x) = 0.23464 0.20096
# Poissons Ratio (y) = 0.26144 0.25867
# Poissons Ratio (z) = 0.26395 0.30491
#
# Static dielectric constant tensor:
#      x y z
#    x 3.812210 0.000000 0.000000 
#    y 0.000000 3.734160 0.000000 
#    z 0.000000 0.000000 3.732880 
# 
# 
# High freq. dielectric constant tensor:
#      x y z
#    x 1.819560 0.000000 0.000000 
#    y 0.000000 1.819810 0.000000 
#    z 0.000000 0.000000 1.816830 
# 
# From -- ./inp_files/11946.got.cif
#   From: 2010.03.12/outbox.cif.g09.slc.cpg/sg65_6_cif.got.tgz:11946.got - 2010.04.10 20:52:16.
