data_PCOD8274501
_publ_section_title
;
Structure prediction by ZEFSAII (Michael W. Deem and Ramdas Pophale) SiO2 
 PCOD8274501
Probable space group: C M M M
;
_chemical_formula_sum "Si O2"
_cell_formula_units_Z 80
_cell_length_a 27.584054
_cell_length_b 8.732879
_cell_length_c 18.951574
_cell_angle_alpha 90.000000
_cell_angle_beta 90.000000
_cell_angle_gamma 90.000000
_cell_volume 4565.210660
_symmetry_space_group_name_H-M "C M M M"
_symmetry_group_IT_number 65
_symmetry_cell_setting 'orthorhombic'
loop_
_space_group_symop_operation_xyz
x,y,z
-x,-y,z
x,-y,-z
-x,y,-z
-x,-y,-z
x,y,-z
-x,y,z
x,-y,z
1/2+x,1/2+y,z
1/2-x,1/2-y,z
1/2+x,1/2-y,-z
1/2-x,1/2+y,-z
1/2-x,1/2-y,-z
1/2+x,1/2+y,-z
1/2-x,1/2+y,z
1/2+x,1/2-y,z
loop_
_atom_site_type_symbol
_atom_site_label
_atom_site_fract_x
_atom_site_fract_y
_atom_site_fract_z
Si Si1 0.699068 0.319512 0.290201
Si Si2 0.388301 0.820515 0.211287
Si Si3 0.647833 0.181448 0.420114
Si Si4 0.947117 0.321089 0.347471
Si Si5 0.054218 0.681815 0.921734
O O1 0.702850 0.500000 0.292721
O O2 0.750000 0.250000 0.266330
O O3 0.660007 0.269911 0.231806
O O4 0.686159 0.259617 0.368396
O O5 0.430385 0.786897 0.267868
O O6 0.407858 0.756561 0.136379
O O7 0.375592 0.000000 0.209016
O O8 0.660556 0.227688 0.500000
O O9 0.593503 0.241708 0.401750
O O10 0.650754 0.000000 0.407886
O O11 0.952659 0.500000 0.359889
O O12 0.000000 0.243300 0.360476
O O13 0.052174 0.500000 0.916062
O O14 0.000000 0.746261 0.907505
O O15 0.071697 0.732385 0.000000
#
# Coordination Sequence:
#
# PCOD8274501 Si02
#       5
#    16  16  16  16  16
#     4  11  22  36  53  70  89 116 154 199 245 291
#     4   9  16  28  47  71  99 128 159 196 234 274
#     4   9  18  32  49  71  98 124 153 191 234 281
#     4   8  13  22  40  67  95 124 158 191 221 257
#     4   8  13  22  42  76 111 137 162 193 228 266
#
# _framework density 17.523834999999998
#
# number of rings (size 3 to 8) (size 9 to 14) (size 15 to 20)
#    0.000    3.000    0.000    4.200    0.000    3.600 
#    0.000    2.000    0.000   16.200    0.000    7.000 
#    0.000    0.000    0.000    0.000    0.000    0.000 
#
# Total GULP energy -495763.247014 kJ/mol
# GULP energy per Si atom -12394.081175 kJ/mol
# Density = 1.748395 g / cm^3
# Si number density = 17.523835 Si / 1000 Ang^3
#
#
#
# Elastic Constant Matrix: (Units=GPa)
#
#
# Indices 1 2 3 4 5 6 
#
# 1 107.2799 30.7451 47.8627 0.0000 0.0000 0.0000
# 2 30.7451 51.5526 31.7616 0.0000 0.0000 0.0000
# 3 47.8627 31.7616 125.7364 0.0000 0.0000 0.0000
# 4 0.0000 0.0000 0.0000 13.8644 0.0000 0.0000
# 5 0.0000 0.0000 0.0000 0.0000 30.7682 0.0000
# 6 0.0000 0.0000 0.0000 0.0000 0.0000 19.1146
#
#
#
# Elastic Compliance Matrix: (Units=1/GPa)
#
#
# Indices 1 2 3 4 5 6 
#
# 1 0.012336 -0.005287 -0.003360 0.000000 0.000000 0.000000
# 2 -0.005287 0.025239 -0.004363 0.000000 0.000000 0.000000
# 3 -0.003360 -0.004363 0.010334 0.000000 0.000000 0.000000
# 4 0.000000 0.000000 0.000000 0.072127 0.000000 0.000000
# 5 0.000000 0.000000 0.000000 0.000000 0.032501 0.000000
# 6 0.000000 0.000000 0.000000 0.000000 0.000000 0.052316
#
#
# Mechanical properties :
#
#
# Convention : Reuss Voigt Hill
#
# Bulk Modulus (GPa) = 45.68513 56.14529 50.91521
# Shear Modulus (GPa) = 20.99353 24.36274 22.67814
#
# Velocity S-wave (km/s) = 3.46497 3.73267 3.60131
# Velocity P-wave (km/s) = 6.49114 7.11941 6.81252
#
# Compressibility (1/GPa) = 0.02188896
#
# Stress axis : x y z
#
# Youngs Moduli (GPa) = 81.06589 39.62196 96.76440
#
# Poissons Ratio (x) = 0.20946 0.32515
# Poissons Ratio (y) = 0.42856 0.42218
# Poissons Ratio (z) = 0.27240 0.17287
#
# Static dielectric constant tensor:
#      x y z
#    x 3.747470 0.000000 0.000000 
#    y 0.000000 2.815900 0.000000 
#    z 0.000000 0.000000 3.385520 
# 
# 
# High freq. dielectric constant tensor:
#      x y z
#    x 1.675820 0.000000 0.000000 
#    y 0.000000 1.632010 0.000000 
#    z 0.000000 0.000000 1.671940 
# 
# From -- ./inp_files/57239.got.cif
#   From: 2010.03.12/outbox.cif.g09.slc.cpg/sg65_29_cif.got.tgz:57239.got - 2010.04.10 20:52:16.
