data_PCOD8274636
_publ_section_title
;
Structure prediction by ZEFSAII (Michael W. Deem and Ramdas Pophale) SiO2 
 PCOD8274636
Probable space group: C M M M
;
_chemical_formula_sum "Si O2"
_cell_formula_units_Z 56
_cell_length_a 15.016207
_cell_length_b 8.780957
_cell_length_c 21.464899
_cell_angle_alpha 90.000000
_cell_angle_beta 90.000000
_cell_angle_gamma 90.000000
_cell_volume 2830.290060
_symmetry_space_group_name_H-M "C M M M"
_symmetry_group_IT_number 65
_symmetry_cell_setting 'orthorhombic'
loop_
_space_group_symop_operation_xyz
x,y,z
-x,-y,z
x,-y,-z
-x,y,-z
-x,-y,-z
x,y,-z
-x,y,z
x,-y,z
1/2+x,1/2+y,z
1/2-x,1/2-y,z
1/2+x,1/2-y,-z
1/2-x,1/2+y,-z
1/2-x,1/2-y,-z
1/2+x,1/2+y,-z
1/2-x,1/2+y,z
1/2+x,1/2-y,z
loop_
_atom_site_type_symbol
_atom_site_label
_atom_site_fract_x
_atom_site_fract_y
_atom_site_fract_z
Si Si1 0.500000 0.180670 0.233778
Si Si2 0.849274 0.319688 0.000000
Si Si3 0.394891 0.173212 0.430100
Si Si4 0.159824 0.178395 0.691451
Si Si5 0.000000 0.319398 0.906676
O O1 0.584659 0.240597 0.269540
O O2 0.500000 0.244720 0.163389
O O3 0.500000 0.000000 0.235009
O O4 0.750000 0.250000 0.000000
O O5 0.908529 0.264892 0.059467
O O6 0.836738 0.500000 0.000000
O O7 0.364524 0.216890 0.500000
O O8 0.500000 0.190233 0.423758
O O9 0.348408 0.287571 0.382246
O O10 0.366569 0.000000 0.414310
O O11 0.250000 0.250000 0.717609
O O12 0.156854 0.000000 0.703071
O O13 0.000000 0.500000 0.908094
#
# Coordination Sequence:
#
# PCOD8274636 Si02
#       5
#     8   8  16  16   8
#     4  11  22  41  63  85 118 157 196 244 293 342
#     4   9  17  35  60  90 122 153 191 231 276 332
#     4   9  18  35  60  86 113 147 187 237 298 358
#     4  12  25  40  59  85 115 154 198 244 295 352
#     4   8  18  36  60  85 117 159 192 225 282 344
#
# _framework density 19.785958999999998
#
# number of rings (size 3 to 8) (size 9 to 14) (size 15 to 20)
#    0.000    2.000    1.429    4.714    0.000    2.286 
#    0.000    8.571    0.000    0.000    0.000    0.000 
#    0.000    0.000    0.000    0.000    0.000    0.000 
#
# Total GULP energy -347143.663562 kJ/mol
# GULP energy per Si atom -12397.987984 kJ/mol
# Density = 1.974092 g / cm^3
# Si number density = 19.785959 Si / 1000 Ang^3
#
#
#
# Elastic Constant Matrix: (Units=GPa)
#
#
# Indices 1 2 3 4 5 6 
#
# 1 156.4313 43.1422 67.0190 0.0000 0.0000 0.0000
# 2 43.1422 87.8897 38.0936 0.0000 0.0000 0.0000
# 3 67.0190 38.0936 138.7371 0.0000 0.0000 0.0000
# 4 0.0000 0.0000 0.0000 17.2401 0.0000 0.0000
# 5 0.0000 0.0000 0.0000 0.0000 222.3027 0.0000
# 6 0.0000 0.0000 0.0000 0.0000 0.0000 33.8858
#
#
#
# Elastic Compliance Matrix: (Units=1/GPa)
#
#
# Indices 1 2 3 4 5 6 
#
# 1 0.008609 -0.002751 -0.003404 0.000000 0.000000 0.000000
# 2 -0.002751 0.013794 -0.002459 0.000000 0.000000 0.000000
# 3 -0.003404 -0.002459 0.009527 0.000000 0.000000 0.000000
# 4 0.000000 0.000000 0.000000 0.058004 0.000000 0.000000
# 5 0.000000 0.000000 0.000000 0.000000 0.004498 0.000000
# 6 0.000000 0.000000 0.000000 0.000000 0.000000 0.029511
#
#
# Mechanical properties :
#
#
# Convention : Reuss Voigt Hill
#
# Bulk Modulus (GPa) = 68.00752 75.50753 71.75753
# Shear Modulus (GPa) = 34.22984 70.33928 52.28456
#
# Velocity S-wave (km/s) = 4.16385 5.96886 5.14611
# Velocity P-wave (km/s) = 7.58703 9.26002 8.46496
#
# Compressibility (1/GPa) = 0.01470426
#
# Stress axis : x y z
#
# Youngs Moduli (GPa) = 116.15168 72.49621 104.96385
#
# Poissons Ratio (x) = 0.19943 0.35725
# Poissons Ratio (y) = 0.31952 0.25806
# Poissons Ratio (z) = 0.39533 0.17824
#
# Static dielectric constant tensor:
#      x y z
#    x 2.821100 0.000000 0.000000 
#    y 0.000000 3.400580 0.000000 
#    z 0.000000 0.000000 3.973260 
# 
# 
# High freq. dielectric constant tensor:
#      x y z
#    x 1.781680 0.000000 0.000000 
#    y 0.000000 1.754030 0.000000 
#    z 0.000000 0.000000 1.771670 
# 
# From -- ./inp_files/62208.got.cif
#   From: 2010.03.12/outbox.cif.g09.slc.cpg/sg65_32_cif.got.tgz:62208.got - 2010.04.10 20:52:16.
