data_PCOD8274722
_publ_section_title
;
Structure prediction by ZEFSAII (Michael W. Deem and Ramdas Pophale) SiO2 
 PCOD8274722
Probable space group: C M M M
;
_chemical_formula_sum "Si O2"
_cell_formula_units_Z 104
_cell_length_a 29.427076
_cell_length_b 20.408310
_cell_length_c 8.732973
_cell_angle_alpha 90.000000
_cell_angle_beta 90.000000
_cell_angle_gamma 90.000000
_cell_volume 5244.647100
_symmetry_space_group_name_H-M "C M M M"
_symmetry_group_IT_number 65
_symmetry_cell_setting 'orthorhombic'
loop_
_space_group_symop_operation_xyz
x,y,z
-x,-y,z
x,-y,-z
-x,y,-z
-x,-y,-z
x,y,-z
-x,y,z
x,-y,z
1/2+x,1/2+y,z
1/2-x,1/2-y,z
1/2+x,1/2-y,-z
1/2-x,1/2+y,-z
1/2-x,1/2-y,-z
1/2+x,1/2+y,-z
1/2-x,1/2+y,z
1/2+x,1/2-y,z
loop_
_atom_site_type_symbol
_atom_site_label
_atom_site_fract_x
_atom_site_fract_y
_atom_site_fract_z
Si Si1 0.948621 0.133503 0.319770
Si Si2 0.448630 0.923951 0.325884
Si Si3 0.866523 0.636138 0.822764
Si Si4 0.053897 0.000000 0.170689
Si Si5 0.366516 0.275801 0.320180
Si Si6 0.722480 0.684809 0.820798
Si Si7 0.282838 0.075562 0.677246
O O1 0.949180 0.125382 0.500000
O O2 0.928985 0.065516 0.253902
O O3 0.914117 0.190845 0.270035
O O4 0.000000 0.149301 0.259869
O O5 0.433095 0.910207 0.500000
O O6 0.500000 0.899825 0.302766
O O7 0.418478 0.882695 0.209208
O O8 0.444353 0.000000 0.286445
O O9 0.858791 0.710662 0.776380
O O10 0.834986 0.587795 0.724342
O O11 0.854505 0.627980 0.000000
O O12 0.000000 0.000000 0.172017
O O13 0.073813 0.000000 0.000000
O O14 0.366633 0.260344 0.500000
O O15 0.323996 0.321556 0.276058
O O16 0.750000 0.750000 0.771935
O O17 0.751366 0.620630 0.782217
O O18 0.711196 0.685844 0.000000
O O19 0.276289 0.094085 0.500000
O O20 0.270469 0.000000 0.707303
#
# Coordination Sequence:
#
# PCOD8274722 Si02
#       7
#    16  16  16   8  16  16  16
#     4   9  19  37  60  86 116 152 196 243 289 342
#     4   9  19  37  59  82 112 153 200 247 293 345
#     4  12  24  37  57  87 121 157 196 242 299 358
#     4   9  17  31  55  85 115 151 191 233 289 349
#     4  11  23  39  62  88 116 157 201 243 289 348
#     4  11  23  41  65  92 122 158 196 245 305 363
#     4  11  24  42  66  93 119 154 202 250 294 352
#
# _framework density 19.829742
#
# number of rings (size 3 to 8) (size 9 to 14) (size 15 to 20)
#    0.000    1.615    1.538    3.923    0.000    7.077 
#    1.385    2.308    0.000    0.000    0.000    0.000 
#    0.000    0.000    0.000    0.000    0.000    0.000 
#
# Total GULP energy -644979.224673 kJ/mol
# GULP energy per Si atom -12403.446628 kJ/mol
# Density = 1.978461 g / cm^3
# Si number density = 19.829742 Si / 1000 Ang^3
#
#
#
# Elastic Constant Matrix: (Units=GPa)
#
#
# Indices 1 2 3 4 5 6 
#
# 1 97.8942 33.9230 26.6867 0.0000 0.0000 0.0000
# 2 33.9230 86.0788 33.5030 0.0000 0.0000 0.0000
# 3 26.6867 33.5030 59.2580 0.0000 0.0000 0.0000
# 4 0.0000 0.0000 0.0000 23.4387 0.0000 0.0000
# 5 0.0000 0.0000 0.0000 0.0000 27.6779 0.0000
# 6 0.0000 0.0000 0.0000 0.0000 0.0000 33.9049
#
#
#
# Elastic Compliance Matrix: (Units=1/GPa)
#
#
# Indices 1 2 3 4 5 6 
#
# 1 0.012408 -0.003481 -0.003620 0.000000 0.000000 0.000000
# 2 -0.003481 0.015872 -0.007406 0.000000 0.000000 0.000000
# 3 -0.003620 -0.007406 0.022693 0.000000 0.000000 0.000000
# 4 0.000000 0.000000 0.000000 0.042665 0.000000 0.000000
# 5 0.000000 0.000000 0.000000 0.000000 0.036130 0.000000
# 6 0.000000 0.000000 0.000000 0.000000 0.000000 0.029494
#
#
# Mechanical properties :
#
#
# Convention : Reuss Voigt Hill
#
# Bulk Modulus (GPa) = 45.53941 47.93960 46.73951
# Shear Modulus (GPa) = 25.56317 26.94551 26.25434
#
# Velocity S-wave (km/s) = 3.59434 3.69025 3.64261
# Velocity P-wave (km/s) = 6.34356 6.51040 6.42752
#
# Compressibility (1/GPa) = 0.02195900
#
# Stress axis : x y z
#
# Youngs Moduli (GPa) = 80.59177 63.00599 44.06733
#
# Poissons Ratio (x) = 0.21933 0.15952
# Poissons Ratio (y) = 0.28055 0.32635
# Poissons Ratio (z) = 0.29173 0.46660
#
# Static dielectric constant tensor:
#      x y z
#    x 3.765130 0.000000 0.000000 
#    y 0.000000 3.548260 0.000000 
#    z 0.000000 0.000000 3.536880 
# 
# 
# High freq. dielectric constant tensor:
#      x y z
#    x 1.773300 0.000000 0.000000 
#    y 0.000000 1.769930 0.000000 
#    z 0.000000 0.000000 1.773720 
# 
# From -- ./inp_files/18637.got.cif
#   From: 2010.03.12/outbox.cif.g09.slc.cpg/sg65_10_cif.got.tgz:18637.got - 2010.04.10 20:52:16.
