data_PCOD8274911
_publ_section_title
;
Structure prediction by ZEFSAII (Michael W. Deem and Ramdas Pophale) SiO2 
 PCOD8274911
Probable space group: C M M M
;
_chemical_formula_sum "Si O2"
_cell_formula_units_Z 104
_cell_length_a 24.303849
_cell_length_b 26.848289
_cell_length_c 9.300320
_cell_angle_alpha 90.000000
_cell_angle_beta 90.000000
_cell_angle_gamma 90.000000
_cell_volume 6068.614690
_symmetry_space_group_name_H-M "C M M M"
_symmetry_group_IT_number 65
_symmetry_cell_setting 'orthorhombic'
loop_
_space_group_symop_operation_xyz
x,y,z
-x,-y,z
x,-y,-z
-x,y,-z
-x,-y,-z
x,y,-z
-x,y,z
x,-y,z
1/2+x,1/2+y,z
1/2-x,1/2-y,z
1/2+x,1/2-y,-z
1/2-x,1/2+y,-z
1/2-x,1/2-y,-z
1/2+x,1/2+y,-z
1/2-x,1/2+y,z
1/2+x,1/2-y,z
loop_
_atom_site_type_symbol
_atom_site_label
_atom_site_fract_x
_atom_site_fract_y
_atom_site_fract_z
Si Si1 0.936650 0.095188 0.667277
Si Si2 0.561448 0.871896 0.328835
Si Si3 0.156183 0.555804 0.328698
Si Si4 0.350913 0.676350 0.329353
Si Si5 0.765356 0.359246 0.670845
Si Si6 0.434550 0.500000 0.838173
Si Si7 0.359730 0.212936 0.329180
O O1 0.928214 0.082807 0.500000
O O2 0.903022 0.143522 0.716254
O O3 0.912887 0.048642 0.755877
O O4 0.000000 0.106144 0.703392
O O5 0.559111 0.872481 0.500000
O O6 0.500000 0.877495 0.263847
O O7 0.599840 0.917575 0.275445
O O8 0.587635 0.819290 0.276492
O O9 0.156031 0.553686 0.500000
O O10 0.159560 0.500000 0.263697
O O11 0.208961 0.588087 0.274978
O O12 0.345615 0.680105 0.500000
O O13 0.295544 0.650655 0.266265
O O14 0.360428 0.731417 0.263402
O O15 0.763683 0.360341 0.500000
O O16 0.804120 0.314100 0.723155
O O17 0.500000 0.500000 0.835273
O O18 0.411486 0.500000 0.000000
O O19 0.360608 0.215838 0.500000
#
# Coordination Sequence:
#
# PCOD8274911 Si02
#       7
#    16  16  16  16  16   8  16
#     4   9  17  28  41  60  85 105 125 162 206 240
#     4   8  13  19  26  37  52  74 108 147 186 225
#     4   8  13  20  27  35  51  75 106 148 189 218
#     4   9  15  22  33  50  70  96 124 149 190 239
#     4   8  13  21  30  42  61  89 125 157 186 225
#     4   9  17  31  49  61  73 103 139 161 188 237
#     4   8  13  20  30  42  62  91 122 157 190 224
#
# _framework density 17.137353000000001
#
# number of rings (size 3 to 8) (size 9 to 14) (size 15 to 20)
#    0.000    3.615    0.000    2.538    0.000    3.692 
#    1.385    4.615    0.000    0.000    0.000    0.000 
#    0.000    2.462    0.000    0.000    0.000    0.000 
#
# Total GULP energy -644328.987045 kJ/mol
# GULP energy per Si atom -12390.942059 kJ/mol
# Density = 1.709835 g / cm^3
# Si number density = 17.137353 Si / 1000 Ang^3
#
#
#
# Elastic Constant Matrix: (Units=GPa)
#
#
# Indices 1 2 3 4 5 6 
#
# 1 109.1805 86.2079 11.1390 0.0000 0.0000 0.0000
# 2 86.2079 186.9932 18.7103 0.0000 0.0000 0.0000
# 3 11.1390 18.7103 14.3652 0.0000 0.0000 0.0000
# 4 0.0000 0.0000 0.0000 0.6117 0.0000 0.0000
# 5 0.0000 0.0000 0.0000 0.0000 2.4269 0.0000
# 6 0.0000 0.0000 0.0000 0.0000 0.0000 20.2788
#
#
#
# Elastic Compliance Matrix: (Units=1/GPa)
#
#
# Indices 1 2 3 4 5 6 
#
# 1 0.014507 -0.006396 -0.002918 0.000000 0.000000 0.000000
# 2 -0.006396 0.008969 -0.006722 0.000000 0.000000 0.000000
# 3 -0.002918 -0.006722 0.080631 0.000000 0.000000 0.000000
# 4 0.000000 0.000000 0.000000 1.634903 0.000000 0.000000
# 5 0.000000 0.000000 0.000000 0.000000 0.412055 0.000000
# 6 0.000000 0.000000 0.000000 0.000000 0.000000 0.049313
#
#
# Mechanical properties :
#
#
# Convention : Reuss Voigt Hill
#
# Bulk Modulus (GPa) = 13.88235 60.29482 37.08859
# Shear Modulus (GPa) = 2.21586 17.62891 9.92238
#
# Velocity S-wave (km/s) = 1.13833 3.21079 2.40883
# Velocity P-wave (km/s) = 3.13783 7.00037 5.42454
#
# Compressibility (1/GPa) = 0.07203391
#
# Stress axis : x y z
#
# Youngs Moduli (GPa) = 68.93131 111.49288 12.40212
#
# Poissons Ratio (x) = 0.71312 0.03619
# Poissons Ratio (y) = 0.44089 0.08337
# Poissons Ratio (z) = 0.20116 0.74951
#
# Static dielectric constant tensor:
#      x y z
#    x 3.392220 0.000000 0.000000 
#    y 0.000000 3.568940 0.000000 
#    z 0.000000 0.000000 2.401380 
# 
# 
# High freq. dielectric constant tensor:
#      x y z
#    x 1.660630 0.000000 0.000000 
#    y 0.000000 1.673450 0.000000 
#    z 0.000000 0.000000 1.566790 
# 
# From -- ./inp_files/16791.got.cif
#   From: 2010.03.12/outbox.cif.g09.slc.cpg/sg65_9_cif.got.tgz:16791.got - 2010.04.10 20:52:16.
