data_PCOD8274388
_publ_section_title
;
Structure prediction by ZEFSAII (Michael W. Deem and Ramdas Pophale) SiO2 
 PCOD8274388
Probable space group: C M M M
;
_chemical_formula_sum "Si O2"
_cell_formula_units_Z 72
_cell_length_a 14.622718
_cell_length_b 13.825909
_cell_length_c 17.738693
_cell_angle_alpha 90.000000
_cell_angle_beta 90.000000
_cell_angle_gamma 90.000000
_cell_volume 3586.273576
_symmetry_space_group_name_H-M "C M M M"
_symmetry_group_IT_number 65
_symmetry_cell_setting 'orthorhombic'
loop_
_space_group_symop_operation_xyz
x,y,z
-x,-y,z
x,-y,-z
-x,y,-z
-x,-y,-z
x,y,-z
-x,y,z
x,-y,z
1/2+x,1/2+y,z
1/2-x,1/2-y,z
1/2+x,1/2-y,-z
1/2-x,1/2+y,-z
1/2-x,1/2-y,-z
1/2+x,1/2+y,-z
1/2-x,1/2+y,z
1/2+x,1/2-y,z
loop_
_atom_site_type_symbol
_atom_site_label
_atom_site_fract_x
_atom_site_fract_y
_atom_site_fract_z
Si Si1 0.607211 0.718226 0.917428
Si Si2 0.000000 0.611496 0.589116
Si Si3 0.105186 0.894836 0.223161
Si Si4 0.347586 0.222241 0.676741
Si Si5 0.893598 0.390405 0.183051
O O1 0.500000 0.698869 0.923181
O O2 0.651639 0.648733 0.853292
O O3 0.625185 0.829051 0.892302
O O4 0.652303 0.700980 0.000000
O O5 0.089661 0.669430 0.615540
O O6 0.000000 0.500000 0.619744
O O7 0.000000 0.610486 0.500000
O O8 0.110668 0.823098 0.294066
O O9 0.000000 0.908889 0.204087
O O10 0.149574 0.000000 0.241514
O O11 0.250000 0.250000 0.640027
O O12 0.332954 0.149686 0.747604
O O13 0.866951 0.500000 0.165192
O O14 0.000000 0.379338 0.208485
#
# Coordination Sequence:
#
# PCOD8274388 Si02
#       5
#    16   8  16  16  16
#     4   8  14  24  40  70 109 145 190 247 299 345
#     4  11  24  44  69  95 124 155 187 229 285 349
#     4   9  17  31  51  75 107 151 197 239 289 345
#     4  11  21  36  61  89 119 152 193 239 285 340
#     4   9  16  29  51  77 109 151 198 246 296 348
#
# _framework density 20.076550000000001
#
# number of rings (size 3 to 8) (size 9 to 14) (size 15 to 20)
#    0.000    2.556    2.222    2.000    0.000    3.111 
#    0.000    4.444    0.000   12.000    0.000   12.444 
#    0.000    0.000    0.000    0.000    0.000    0.000 
#
# Total GULP energy -446118.295027 kJ/mol
# GULP energy per Si atom -12392.174862 kJ/mol
# Density = 2.003085 g / cm^3
# Si number density = 20.076550 Si / 1000 Ang^3
#
#
#
# Elastic Constant Matrix: (Units=GPa)
#
#
# Indices 1 2 3 4 5 6 
#
# 1 64.1238 25.9105 24.9815 0.0000 0.0000 0.0000
# 2 25.9105 184.7449 50.9756 0.0000 0.0000 0.0000
# 3 24.9815 50.9756 85.7105 0.0000 0.0000 0.0000
# 4 0.0000 0.0000 0.0000 22.7019 0.0000 0.0000
# 5 0.0000 0.0000 0.0000 0.0000 7.4399 0.0000
# 6 0.0000 0.0000 0.0000 0.0000 0.0000 12.1897
#
#
#
# Elastic Compliance Matrix: (Units=1/GPa)
#
#
# Indices 1 2 3 4 5 6 
#
# 1 0.017841 -0.001277 -0.004440 0.000000 0.000000 0.000000
# 2 -0.001277 0.006567 -0.003533 0.000000 0.000000 0.000000
# 3 -0.004440 -0.003533 0.015063 0.000000 0.000000 0.000000
# 4 0.000000 0.000000 0.000000 0.044049 0.000000 0.000000
# 5 0.000000 0.000000 0.000000 0.000000 0.134410 0.000000
# 6 0.000000 0.000000 0.000000 0.000000 0.000000 0.082037
#
#
# Mechanical properties :
#
#
# Convention : Reuss Voigt Hill
#
# Bulk Modulus (GPa) = 47.68979 59.81272 53.75126
# Shear Modulus (GPa) = 15.36298 23.98042 19.67170
#
# Velocity S-wave (km/s) = 2.76926 3.45983 3.13363
# Velocity P-wave (km/s) = 5.83358 6.76887 6.31855
#
# Compressibility (1/GPa) = 0.02096885
#
# Stress axis : x y z
#
# Youngs Moduli (GPa) = 56.05151 152.27841 66.38827
#
# Poissons Ratio (x) = 0.19445 0.29480
# Poissons Ratio (y) = 0.07157 0.23458
# Poissons Ratio (z) = 0.24890 0.53807
#
# Static dielectric constant tensor:
#      x y z
#    x 3.417020 0.000000 0.000000 
#    y 0.000000 4.016760 0.000000 
#    z 0.000000 0.000000 3.365770 
# 
# 
# High freq. dielectric constant tensor:
#      x y z
#    x 1.766480 0.000000 0.000000 
#    y 0.000000 1.794220 0.000000 
#    z 0.000000 0.000000 1.746190 
# 
# From -- ./inp_files/52751.got.cif
#   From: 2010.03.12/outbox.cif.g09.slc.cpg/sg65_27_cif.got.tgz:52751.got - 2010.04.10 20:52:16.
