data_PCOD8274327
_publ_section_title
;
Structure prediction by ZEFSAII (Michael W. Deem and Ramdas Pophale) SiO2 
 PCOD8274327
Probable space group: C M M M
;
_chemical_formula_sum "Si O2"
_cell_formula_units_Z 72
_cell_length_a 8.509801
_cell_length_b 23.411566
_cell_length_c 20.979178
_cell_angle_alpha 90.000000
_cell_angle_beta 90.000000
_cell_angle_gamma 90.000000
_cell_volume 4179.634802
_symmetry_space_group_name_H-M "C M M M"
_symmetry_group_IT_number 65
_symmetry_cell_setting 'orthorhombic'
loop_
_space_group_symop_operation_xyz
x,y,z
-x,-y,z
x,-y,-z
-x,y,-z
-x,-y,-z
x,y,-z
-x,y,z
x,-y,z
1/2+x,1/2+y,z
1/2-x,1/2-y,z
1/2+x,1/2-y,-z
1/2-x,1/2+y,-z
1/2-x,1/2-y,-z
1/2+x,1/2+y,-z
1/2-x,1/2+y,z
1/2+x,1/2-y,z
loop_
_atom_site_type_symbol
_atom_site_label
_atom_site_fract_x
_atom_site_fract_y
_atom_site_fract_z
Si Si1 0.815060 0.314288 0.233847
Si Si2 0.185899 0.813466 0.635981
Si Si3 0.315139 0.187228 0.000000
Si Si4 0.814909 0.117751 0.882942
Si Si5 0.313691 0.000000 0.926678
Si Si6 0.183597 0.812679 0.500000
O O1 0.750000 0.250000 0.226819
O O2 0.773713 0.341293 0.303438
O O3 0.732586 0.356109 0.184423
O O4 0.000000 0.313567 0.222108
O O5 0.250000 0.750000 0.630325
O O6 0.228727 0.844242 0.567383
O O7 0.000000 0.813581 0.649317
O O8 0.250000 0.250000 0.000000
O O9 0.258699 0.155886 0.062495
O O10 0.500000 0.188813 0.000000
O O11 0.750057 0.054070 0.888525
O O12 0.000000 0.117270 0.890684
O O13 0.500000 0.000000 0.925494
O O14 0.253061 0.000000 0.000000
O O15 0.250000 0.750000 0.500000
O O16 0.000000 0.803853 0.500000
#
# Coordination Sequence:
#
# PCOD8274327 Si02
#       6
#    16  16   8  16   8   8
#     4  11  21  34  50  72 103 138 173 212 258 306
#     4   9  15  25  40  62  92 129 169 207 248 296
#     4  12  24  39  56  79 106 134 166 206 250 300
#     4  12  24  39  58  79 102 132 169 209 252 303
#     4  11  23  41  63  83 104 129 162 207 256 302
#     4   8  14  22  36  58  88 125 166 207 244 288
#
# _framework density 17.226385000000001
#
# number of rings (size 3 to 8) (size 9 to 14) (size 15 to 20)
#    0.000    1.444    1.111    8.000    0.000    1.333 
#    0.000    0.000    0.000    0.000    0.000    0.000 
#    0.000    0.889    0.000    9.556    0.000    4.889 
#
# Total GULP energy -446090.576586 kJ/mol
# GULP energy per Si atom -12391.404905 kJ/mol
# Density = 1.718718 g / cm^3
# Si number density = 17.226385 Si / 1000 Ang^3
#
#
#
# Elastic Constant Matrix: (Units=GPa)
#
#
# Indices 1 2 3 4 5 6 
#
# 1 104.9383 31.8868 30.4749 0.0000 0.0000 0.0000
# 2 31.8868 91.7838 53.6455 0.0000 0.0000 0.0000
# 3 30.4749 53.6455 154.6830 0.0000 0.0000 0.0000
# 4 0.0000 0.0000 0.0000 -32.7158 0.0000 0.0000
# 5 0.0000 0.0000 0.0000 0.0000 39.6334 0.0000
# 6 0.0000 0.0000 0.0000 0.0000 0.0000 23.5092
#
#
#
# Elastic Compliance Matrix: (Units=1/GPa)
#
#
# Indices 1 2 3 4 5 6 
#
# 1 0.010785 -0.003142 -0.001035 0.000000 0.000000 0.000000
# 2 -0.003142 0.014580 -0.004438 0.000000 0.000000 0.000000
# 3 -0.001035 -0.004438 0.008208 0.000000 0.000000 0.000000
# 4 0.000000 0.000000 0.000000 -0.030566 0.000000 0.000000
# 5 0.000000 0.000000 0.000000 0.000000 0.025231 0.000000
# 6 0.000000 0.000000 0.000000 0.000000 0.000000 0.042537
#
#
# Mechanical properties :
#
#
# Convention : Reuss Voigt Hill
#
# Bulk Modulus (GPa) = 61.18533 64.82440 63.00486
# Shear Modulus (GPa) = 53.50384 21.77855 37.64120
#
# Velocity S-wave (km/s) = 5.57913 3.55949 4.67957
# Velocity P-wave (km/s) = 8.78053 7.38958 8.11491
#
# Compressibility (1/GPa) = 0.01634379
#
# Stress axis : x y z
#
# Youngs Moduli (GPa) = 92.72420 68.58551 121.83536
#
# Poissons Ratio (x) = 0.21547 0.12612
# Poissons Ratio (y) = 0.29131 0.54066
# Poissons Ratio (z) = 0.09599 0.30436
#
# Static dielectric constant tensor:
#      x y z
#    x 3.779730 0.000000 0.000000 
#    y 0.000000 2.905600 0.000000 
#    z 0.000000 0.000000 4.060580 
# 
# 
# High freq. dielectric constant tensor:
#      x y z
#    x 1.687840 0.000000 0.000000 
#    y 0.000000 1.605820 0.000000 
#    z 0.000000 0.000000 1.692890 
# 
# From -- ./inp_files/59329.got.cif
#   From: 2010.03.12/outbox.cif.g09.slc.cpg/sg65_30_cif.got.tgz:59329.got - 2010.04.10 20:52:16.
