data_PCOD8274983
_publ_section_title
;
Structure prediction by ZEFSAII (Michael W. Deem and Ramdas Pophale) SiO2 
 PCOD8274983
Probable space group: C M M M
;
_chemical_formula_sum "Si O2"
_cell_formula_units_Z 96
_cell_length_a 32.884505
_cell_length_b 18.676254
_cell_length_c 9.510831
_cell_angle_alpha 90.000000
_cell_angle_beta 90.000000
_cell_angle_gamma 90.000000
_cell_volume 5841.165957
_symmetry_space_group_name_H-M "C M M M"
_symmetry_group_IT_number 65
_symmetry_cell_setting 'orthorhombic'
loop_
_space_group_symop_operation_xyz
x,y,z
-x,-y,z
x,-y,-z
-x,y,-z
-x,-y,-z
x,y,-z
-x,y,z
x,-y,z
1/2+x,1/2+y,z
1/2-x,1/2-y,z
1/2+x,1/2-y,-z
1/2-x,1/2+y,-z
1/2-x,1/2-y,-z
1/2+x,1/2+y,-z
1/2-x,1/2+y,z
1/2+x,1/2-y,z
loop_
_atom_site_type_symbol
_atom_site_label
_atom_site_fract_x
_atom_site_fract_y
_atom_site_fract_z
Si Si1 0.257017 0.579927 0.833529
Si Si2 0.615044 0.789106 0.164525
Si Si3 0.906648 0.920135 0.661087
Si Si4 0.667300 0.080285 0.832812
Si Si5 0.838484 0.146842 0.836179
Si Si6 0.953657 0.780676 0.336007
O O1 0.268370 0.500000 0.781601
O O2 0.212318 0.601183 0.774454
O O3 0.292025 0.635067 0.783135
O O4 0.254215 0.580829 0.000000
O O5 0.634024 0.863211 0.222666
O O6 0.648513 0.728034 0.195660
O O7 0.573703 0.774666 0.248699
O O8 0.604254 0.792519 0.000000
O O9 0.893136 0.910586 0.500000
O O10 0.867099 0.908528 0.755412
O O11 0.941419 0.862574 0.699705
O O12 0.924011 0.000000 0.688599
O O13 0.655452 0.000000 0.782780
O O14 0.668038 0.084025 0.000000
O O15 0.842477 0.128356 0.000000
O O16 0.947730 0.764103 0.500000
O O17 0.000000 0.769693 0.288820
#
# Coordination Sequence:
#
# PCOD8274983 Si02
#       6
#    16  16  16  16  16  16
#     4   8  13  21  35  57  85 116 146 173 201 235
#     4   9  17  28  44  66  87 108 137 174 213 250
#     4   9  17  28  42  61  85 113 144 175 204 236
#     4   8  14  25  41  62  87 112 139 173 211 247
#     4   9  16  25  39  61  88 116 145 175 206 240
#     4   9  18  32  48  64  83 109 138 168 207 254
#
# _framework density 16.435074
#
# number of rings (size 3 to 8) (size 9 to 14) (size 15 to 20)
#    0.000    3.333    0.000    1.500    0.000    2.333 
#    0.000    5.000    0.000    2.000    0.000   15.167 
#    0.000    0.000    0.000    0.000    0.000    0.000 
#
# Total GULP energy -594878.843106 kJ/mol
# GULP energy per Si atom -12393.309231 kJ/mol
# Density = 1.639767 g / cm^3
# Si number density = 16.435074 Si / 1000 Ang^3
#
#
#
# Elastic Constant Matrix: (Units=GPa)
#
#
# Indices 1 2 3 4 5 6 
#
# 1 144.3391 83.3727 38.9139 0.0000 0.0000 0.0000
# 2 83.3727 101.2174 29.1245 0.0000 0.0000 0.0000
# 3 38.9139 29.1245 28.3482 0.0000 0.0000 0.0000
# 4 0.0000 0.0000 0.0000 14.9658 0.0000 0.0000
# 5 0.0000 0.0000 0.0000 0.0000 11.7218 0.0000
# 6 0.0000 0.0000 0.0000 0.0000 0.0000 19.3368
#
#
#
# Elastic Compliance Matrix: (Units=1/GPa)
#
#
# Indices 1 2 3 4 5 6 
#
# 1 0.015501 -0.009435 -0.011586 0.000000 0.000000 0.000000
# 2 -0.009435 0.019768 -0.007359 0.000000 0.000000 0.000000
# 3 -0.011586 -0.007359 0.058740 0.000000 0.000000 0.000000
# 4 0.000000 0.000000 0.000000 0.066819 0.000000 0.000000
# 5 0.000000 0.000000 0.000000 0.000000 0.085311 0.000000
# 6 0.000000 0.000000 0.000000 0.000000 0.000000 0.051715
#
#
# Mechanical properties :
#
#
# Convention : Reuss Voigt Hill
#
# Bulk Modulus (GPa) = 26.84484 64.08077 45.46281
# Shear Modulus (GPa) = 13.62286 17.37110 15.49698
#
# Velocity S-wave (km/s) = 2.88217 3.25461 3.07403
# Velocity P-wave (km/s) = 5.23882 7.29371 6.34994
#
# Compressibility (1/GPa) = 0.03725111
#
# Stress axis : x y z
#
# Youngs Moduli (GPa) = 64.51076 50.58554 17.02431
#
# Poissons Ratio (x) = 0.47726 0.19724
# Poissons Ratio (y) = 0.60864 0.12528
# Poissons Ratio (z) = 0.74740 0.37224
#
# Static dielectric constant tensor:
#      x y z
#    x 3.201350 0.000000 0.000000 
#    y 0.000000 3.188310 0.000000 
#    z 0.000000 0.000000 2.784920 
# 
# 
# High freq. dielectric constant tensor:
#      x y z
#    x 1.626240 0.000000 0.000000 
#    y 0.000000 1.625390 0.000000 
#    z 0.000000 0.000000 1.593710 
# 
# From -- ./inp_files/32417.got.cif
#   From: 2010.03.12/outbox.cif.g09.slc.cpg/sg65_17_cif.got.tgz:32417.got - 2010.04.10 20:52:16.
