data_PCOD8274761
_publ_section_title
;
Structure prediction by ZEFSAII (Michael W. Deem and Ramdas Pophale) SiO2 
 PCOD8274761
Probable space group: C M M M
;
_chemical_formula_sum "Si O2"
_cell_formula_units_Z 96
_cell_length_a 15.773263
_cell_length_b 22.403371
_cell_length_c 13.711842
_cell_angle_alpha 90.000000
_cell_angle_beta 90.000000
_cell_angle_gamma 90.000000
_cell_volume 4845.412059
_symmetry_space_group_name_H-M "C M M M"
_symmetry_group_IT_number 65
_symmetry_cell_setting 'orthorhombic'
loop_
_space_group_symop_operation_xyz
x,y,z
-x,-y,z
x,-y,-z
-x,y,-z
-x,-y,-z
x,y,-z
-x,y,z
x,-y,z
1/2+x,1/2+y,z
1/2-x,1/2-y,z
1/2+x,1/2-y,-z
1/2-x,1/2+y,-z
1/2-x,1/2-y,-z
1/2+x,1/2+y,-z
1/2-x,1/2+y,z
1/2+x,1/2-y,z
loop_
_atom_site_type_symbol
_atom_site_label
_atom_site_fract_x
_atom_site_fract_y
_atom_site_fract_z
Si Si1 0.750057 0.430997 0.895158
Si Si2 0.094817 0.127138 0.204873
Si Si3 0.650300 0.431815 0.389000
Si Si4 0.649315 0.749894 0.886750
Si Si5 0.650232 0.931825 0.388959
Si Si6 0.094792 0.627555 0.205074
O O1 0.750870 0.500000 0.912860
O O2 0.663717 0.416429 0.840836
O O3 0.836143 0.415679 0.840983
O O4 0.749705 0.397101 0.000000
O O5 0.101551 0.116151 0.321297
O O6 0.113693 0.194170 0.172682
O O7 0.000000 0.110429 0.169924
O O8 0.626050 0.416499 0.500000
O O9 0.622932 0.500000 0.364449
O O10 0.750032 0.424933 0.371744
O O11 0.750000 0.750000 0.882189
O O12 0.613344 0.805260 0.826641
O O13 0.618551 0.750074 0.000000
O O14 0.625945 0.916665 0.500000
O O15 0.601535 0.883751 0.321420
O O16 0.622905 0.000000 0.364164
O O17 0.000000 0.610787 0.170068
#
# Coordination Sequence:
#
# PCOD8274761 Si02
#       6
#    16  16  16  16  16  16
#     4  11  24  41  60  86 123 163 205 254 310 374
#     4  12  24  39  63  93 125 161 206 259 311 367
#     4   9  18  36  63  92 125 166 208 251 304 368
#     4  11  23  43  68  88 116 165 216 262 312 366
#     4   9  18  36  63  92 125 166 208 251 304 368
#     4  12  24  39  63  93 125 161 206 259 311 367
#
# _framework density 19.812556000000001
#
# number of rings (size 3 to 8) (size 9 to 14) (size 15 to 20)
#    0.000    1.333    3.333    3.500    0.000    6.667 
#    0.000    4.167    0.000    5.000    0.000    0.000 
#    0.000    0.000    0.000    0.000    0.000    0.000 
#
# Total GULP energy -595024.097308 kJ/mol
# GULP energy per Si atom -12396.335361 kJ/mol
# Density = 1.976746 g / cm^3
# Si number density = 19.812556 Si / 1000 Ang^3
#
#
#
# Elastic Constant Matrix: (Units=GPa)
#
#
# Indices 1 2 3 4 5 6 
#
# 1 141.4016 37.9188 55.8770 0.0000 0.0000 0.0000
# 2 37.9188 101.4406 73.0710 0.0000 0.0000 0.0000
# 3 55.8770 73.0710 145.5603 0.0000 0.0000 0.0000
# 4 0.0000 0.0000 0.0000 30.7527 0.0000 0.0000
# 5 0.0000 0.0000 0.0000 0.0000 4.3914 0.0000
# 6 0.0000 0.0000 0.0000 0.0000 0.0000 -16.8025
#
#
#
# Elastic Compliance Matrix: (Units=1/GPa)
#
#
# Indices 1 2 3 4 5 6 
#
# 1 0.008443 -0.001287 -0.002595 0.000000 0.000000 0.000000
# 2 -0.001287 0.015638 -0.007356 0.000000 0.000000 0.000000
# 3 -0.002595 -0.007356 0.011559 0.000000 0.000000 0.000000
# 4 0.000000 0.000000 0.000000 0.032518 0.000000 0.000000
# 5 0.000000 0.000000 0.000000 0.000000 0.227716 0.000000
# 6 0.000000 0.000000 0.000000 0.000000 0.000000 -0.059515
#
#
# Mechanical properties :
#
#
# Convention : Reuss Voigt Hill
#
# Bulk Modulus (GPa) = 75.96678 80.23735 78.10206
# Shear Modulus (GPa) = 18.99538 18.43735 18.71637
#
# Velocity S-wave (km/s) = 3.09974 3.05387 3.07689
# Velocity P-wave (km/s) = 7.15801 7.28155 7.22004
#
# Compressibility (1/GPa) = 0.01316365
#
# Stress axis : x y z
#
# Youngs Moduli (GPa) = 118.44791 63.94715 86.51239
#
# Poissons Ratio (x) = 0.08227 0.22450
# Poissons Ratio (y) = 0.15239 0.63641
# Poissons Ratio (z) = 0.30738 0.47042
#
# Static dielectric constant tensor:
#      x y z
#    x 3.743220 0.000000 0.000000 
#    y 0.000000 3.561290 0.000000 
#    z 0.000000 0.000000 3.985240 
# 
# 
# High freq. dielectric constant tensor:
#      x y z
#    x 1.776690 0.000000 0.000000 
#    y 0.000000 1.757040 0.000000 
#    z 0.000000 0.000000 1.785110 
# 
# From -- ./inp_files/40343.got.cif
#   From: 2010.03.12/outbox.cif.g09.slc.cpg/sg65_21_cif.got.tgz:40343.got - 2010.04.10 20:52:16.
