data_PCOD8274968
_publ_section_title
;
Structure prediction by ZEFSAII (Michael W. Deem and Ramdas Pophale) SiO2 
 PCOD8274968
Probable space group: C M M M
;
_chemical_formula_sum "Si O2"
_cell_formula_units_Z 80
_cell_length_a 9.358224
_cell_length_b 17.941105
_cell_length_c 27.745233
_cell_angle_alpha 90.000000
_cell_angle_beta 90.000000
_cell_angle_gamma 90.000000
_cell_volume 4658.338039
_symmetry_space_group_name_H-M "C M M M"
_symmetry_group_IT_number 65
_symmetry_cell_setting 'orthorhombic'
loop_
_space_group_symop_operation_xyz
x,y,z
-x,-y,z
x,-y,-z
-x,y,-z
-x,-y,-z
x,y,-z
-x,y,z
x,-y,z
1/2+x,1/2+y,z
1/2-x,1/2-y,z
1/2+x,1/2-y,-z
1/2-x,1/2+y,-z
1/2-x,1/2-y,-z
1/2+x,1/2+y,-z
1/2-x,1/2+y,z
1/2+x,1/2-y,z
loop_
_atom_site_type_symbol
_atom_site_label
_atom_site_fract_x
_atom_site_fract_y
_atom_site_fract_z
Si Si1 0.657707 0.819970 0.626433
Si Si2 0.670025 0.082968 0.287317
Si Si3 0.838621 0.088923 0.091578
Si Si4 0.340647 0.911189 0.819015
Si Si5 0.837829 0.411173 0.000000
Si Si6 0.000000 0.587670 0.444198
O O1 0.500000 0.791053 0.641841
O O2 0.750000 0.750000 0.609740
O O3 0.732009 0.861958 0.671769
O O4 0.641332 0.877235 0.581272
O O5 0.500000 0.078017 0.292468
O O6 0.711358 0.114220 0.234227
O O7 0.734467 0.000000 0.294843
O O8 0.768216 0.119833 0.140851
O O9 0.000000 0.119713 0.087542
O O10 0.839418 0.000000 0.091487
O O11 0.745490 0.118991 0.046874
O O12 0.500000 0.880514 0.830057
O O13 0.345485 0.000000 0.820092
O O14 0.840038 0.500000 0.000000
O O15 0.000000 0.380295 0.000000
O O16 0.000000 0.500000 0.435490
O O17 0.000000 0.609058 0.500000
#
# Coordination Sequence:
#
# PCOD8274968 Si02
#       6
#    16  16  16  16   8   8
#     4   9  18  30  48  73 101 129 162 204 251 295
#     4   8  13  24  44  64  83 115 158 197 231 281
#     4   9  15  21  28  41  65  93 127 171 226 285
#     4   8  13  21  34  51  68  92 133 181 221 264
#     4   9  15  21  29  39  55  89 134 179 224 273
#     4   9  18  32  54  78  99 133 179 212 239 293
#
# _framework density 17.173506
#
# number of rings (size 3 to 8) (size 9 to 14) (size 15 to 20)
#    0.600    2.800    0.000    2.700    0.000    4.000 
#    0.000    1.000    0.000    3.600    0.000    1.400 
#    0.000    0.000    0.000    0.900    0.000   11.800 
#
# Total GULP energy -495616.479956 kJ/mol
# GULP energy per Si atom -12390.411999 kJ/mol
# Density = 1.713442 g / cm^3
# Si number density = 17.173506 Si / 1000 Ang^3
#
#
#
# Elastic Constant Matrix: (Units=GPa)
#
#
# Indices 1 2 3 4 5 6 
#
# 1 86.4084 26.8407 59.4105 0.0000 0.0000 0.0000
# 2 26.8407 49.4092 45.6235 0.0000 0.0000 0.0000
# 3 59.4105 45.6235 164.7721 0.0000 0.0000 0.0000
# 4 0.0000 0.0000 0.0000 4.3338 0.0000 0.0000
# 5 0.0000 0.0000 0.0000 0.0000 9.7188 0.0000
# 6 0.0000 0.0000 0.0000 0.0000 0.0000 16.2530
#
#
#
# Elastic Compliance Matrix: (Units=1/GPa)
#
#
# Indices 1 2 3 4 5 6 
#
# 1 0.016116 -0.004553 -0.004550 0.000000 0.000000 0.000000
# 2 -0.004553 0.028478 -0.006243 0.000000 0.000000 0.000000
# 3 -0.004550 -0.006243 0.009438 0.000000 0.000000 0.000000
# 4 0.000000 0.000000 0.000000 0.230746 0.000000 0.000000
# 5 0.000000 0.000000 0.000000 0.000000 0.102893 0.000000
# 6 0.000000 0.000000 0.000000 0.000000 0.000000 0.061527
#
#
# Mechanical properties :
#
#
# Convention : Reuss Voigt Hill
#
# Bulk Modulus (GPa) = 42.84785 62.70434 52.77609
# Shear Modulus (GPa) = 10.25284 17.30879 13.78081
#
# Velocity S-wave (km/s) = 2.44604 3.17815 2.83582
# Velocity P-wave (km/s) = 5.74296 7.07524 6.44363
#
# Compressibility (1/GPa) = 0.02333840
#
# Stress axis : x y z
#
# Youngs Moduli (GPa) = 62.05160 35.11528 105.95171
#
# Poissons Ratio (x) = 0.15989 0.48208
# Poissons Ratio (y) = 0.28253 0.66150
# Poissons Ratio (z) = 0.28233 0.21924
#
# Static dielectric constant tensor:
#      x y z
#    x 3.006030 0.000000 0.000000 
#    y 0.000000 2.664550 0.000000 
#    z 0.000000 0.000000 3.448090 
# 
# 
# High freq. dielectric constant tensor:
#      x y z
#    x 1.630530 0.000000 0.000000 
#    y 0.000000 1.604400 0.000000 
#    z 0.000000 0.000000 1.675430 
# 
# From -- ./inp_files/72959.got.cif
#   From: 2010.03.12/outbox.cif.g09.slc.cpg/sg65_37_cif.got.tgz:72959.got - 2010.04.10 20:52:16.
