data_PCOD8274269
_publ_section_title
;
Structure prediction by ZEFSAII (Michael W. Deem and Ramdas Pophale) SiO2 
 PCOD8274269
Probable space group: C M M M
;
_chemical_formula_sum "Si O2"
_cell_formula_units_Z 80
_cell_length_a 17.504280
_cell_length_b 13.917597
_cell_length_c 18.659025
_cell_angle_alpha 90.000000
_cell_angle_beta 90.000000
_cell_angle_gamma 90.000000
_cell_volume 4545.665299
_symmetry_space_group_name_H-M "C M M M"
_symmetry_group_IT_number 65
_symmetry_cell_setting 'orthorhombic'
loop_
_space_group_symop_operation_xyz
x,y,z
-x,-y,z
x,-y,-z
-x,y,-z
-x,-y,-z
x,y,-z
-x,y,z
x,-y,z
1/2+x,1/2+y,z
1/2-x,1/2-y,z
1/2+x,1/2-y,-z
1/2-x,1/2+y,-z
1/2-x,1/2-y,-z
1/2+x,1/2+y,-z
1/2-x,1/2+y,z
1/2+x,1/2-y,z
loop_
_atom_site_type_symbol
_atom_site_label
_atom_site_fract_x
_atom_site_fract_y
_atom_site_fract_z
Si Si1 0.590669 0.107242 0.715026
Si Si2 0.088368 0.109496 0.916837
Si Si3 0.661746 0.725859 0.796009
Si Si4 0.088276 0.109131 0.326368
Si Si5 0.089240 0.717957 0.578466
O O1 0.500000 0.108766 0.713055
O O2 0.617165 0.175305 0.779629
O O3 0.623482 0.146150 0.638668
O O4 0.622320 0.000000 0.727693
O O5 0.139099 0.185688 0.873641
O O6 0.000000 0.125096 0.897085
O O7 0.111964 0.000000 0.897816
O O8 0.103047 0.130035 0.000000
O O9 0.750000 0.750000 0.794094
O O10 0.641365 0.644097 0.738327
O O11 0.104388 0.172414 0.396984
O O12 0.000000 0.120682 0.302026
O O13 0.108595 0.000000 0.345635
O O14 0.127571 0.701481 0.500000
O O15 0.000000 0.697889 0.571598
#
# Coordination Sequence:
#
# PCOD8274269 Si02
#       5
#    16  16  16  16  16
#     4   9  18  32  48  66  91 127 169 204 234 276
#     4   9  18  34  57  81 101 123 153 190 234 284
#     4  11  21  31  48  72 100 129 158 195 236 279
#     4   9  17  30  49  71  95 125 160 199 245 295
#     4   8  14  25  43  70  98 119 149 200 255 296
#
# _framework density 17.599184000000001
#
# number of rings (size 3 to 8) (size 9 to 14) (size 15 to 20)
#    0.000    2.800    0.000    4.200    0.000    4.400 
#    0.000    4.000    0.000   10.200    0.000   14.000 
#    0.000    0.000    0.000    0.000    0.000    0.000 
#
# Total GULP energy -495837.750383 kJ/mol
# GULP energy per Si atom -12395.943760 kJ/mol
# Density = 1.755913 g / cm^3
# Si number density = 17.599184 Si / 1000 Ang^3
#
#
#
# Elastic Constant Matrix: (Units=GPa)
#
#
# Indices 1 2 3 4 5 6 
#
# 1 50.3684 29.9848 31.6409 0.0000 0.0000 0.0000
# 2 29.9848 144.1659 55.1416 0.0000 0.0000 0.0000
# 3 31.6409 55.1416 99.6725 0.0000 0.0000 0.0000
# 4 0.0000 0.0000 0.0000 22.3227 0.0000 0.0000
# 5 0.0000 0.0000 0.0000 0.0000 5.3596 0.0000
# 6 0.0000 0.0000 0.0000 0.0000 0.0000 14.9263
#
#
#
# Elastic Compliance Matrix: (Units=1/GPa)
#
#
# Indices 1 2 3 4 5 6 
#
# 1 0.025671 -0.002819 -0.006590 0.000000 0.000000 0.000000
# 2 -0.002819 0.009108 -0.004144 0.000000 0.000000 0.000000
# 3 -0.006590 -0.004144 0.014417 0.000000 0.000000 0.000000
# 4 0.000000 0.000000 0.000000 0.044798 0.000000 0.000000
# 5 0.000000 0.000000 0.000000 0.000000 0.186580 0.000000
# 6 0.000000 0.000000 0.000000 0.000000 0.000000 0.066996
#
#
# Mechanical properties :
#
#
# Convention : Reuss Voigt Hill
#
# Bulk Modulus (GPa) = 45.26652 58.63794 51.95223
# Shear Modulus (GPa) = 13.08767 20.35101 16.71934
#
# Velocity S-wave (km/s) = 2.72996 3.40422 3.08556
# Velocity P-wave (km/s) = 5.97608 6.98874 6.50216
#
# Compressibility (1/GPa) = 0.02209138
#
# Stress axis : x y z
#
# Youngs Moduli (GPa) = 38.95372 109.79736 69.36113
#
# Poissons Ratio (x) = 0.30950 0.45709
# Poissons Ratio (y) = 0.10980 0.28742
# Poissons Ratio (z) = 0.25670 0.45498
#
# Static dielectric constant tensor:
#      x y z
#    x 2.924390 0.000000 0.000000 
#    y 0.000000 3.495970 0.000000 
#    z 0.000000 0.000000 3.311590 
# 
# 
# High freq. dielectric constant tensor:
#      x y z
#    x 1.642970 0.000000 0.000000 
#    y 0.000000 1.684860 0.000000 
#    z 0.000000 0.000000 1.673940 
# 
# From -- ./inp_files/52872.got.cif
#   From: 2010.03.12/outbox.cif.g09.slc.cpg/sg65_27_cif.got.tgz:52872.got - 2010.04.10 20:52:16.
