data_PCOD8274961
_publ_section_title
;
Structure prediction by ZEFSAII (Michael W. Deem and Ramdas Pophale) SiO2 
 PCOD8274961
Probable space group: C M M M
;
_chemical_formula_sum "Si O2"
_cell_formula_units_Z 96
_cell_length_a 9.439743
_cell_length_b 20.069478
_cell_length_c 30.358174
_cell_angle_alpha 90.000000
_cell_angle_beta 90.000000
_cell_angle_gamma 90.000000
_cell_volume 5751.377754
_symmetry_space_group_name_H-M "C M M M"
_symmetry_group_IT_number 65
_symmetry_cell_setting 'orthorhombic'
loop_
_space_group_symop_operation_xyz
x,y,z
-x,-y,z
x,-y,-z
-x,y,-z
-x,-y,-z
x,y,-z
-x,y,z
x,-y,z
1/2+x,1/2+y,z
1/2-x,1/2-y,z
1/2+x,1/2-y,-z
1/2-x,1/2+y,-z
1/2-x,1/2-y,-z
1/2+x,1/2+y,-z
1/2-x,1/2+y,z
1/2+x,1/2-y,z
loop_
_atom_site_type_symbol
_atom_site_label
_atom_site_fract_x
_atom_site_fract_y
_atom_site_fract_z
Si Si1 0.658977 0.079255 0.451173
Si Si2 0.833795 0.315228 0.115387
Si Si3 0.835381 0.423561 0.713271
Si Si4 0.159243 0.920728 0.370895
Si Si5 0.668171 0.073923 0.049072
Si Si6 0.663854 0.814555 0.216214
O O1 0.708551 0.102341 0.500000
O O2 0.500000 0.105339 0.441682
O O3 0.765208 0.108897 0.414556
O O4 0.659182 0.000000 0.448694
O O5 0.750000 0.250000 0.100527
O O6 0.773301 0.374906 0.085324
O O7 0.799977 0.333311 0.165938
O O8 0.000000 0.302878 0.107842
O O9 0.798243 0.500000 0.725205
O O10 0.745303 0.397340 0.671935
O O11 0.793629 0.378541 0.754948
O O12 0.000000 0.416550 0.700787
O O13 0.000000 0.892158 0.368573
O O14 0.157806 0.000000 0.373169
O O15 0.500000 0.072423 0.051250
O O16 0.727145 0.000000 0.059818
O O17 0.717292 0.095757 0.000000
O O18 0.500000 0.796507 0.221915
O O19 0.750000 0.750000 0.232097
#
# Coordination Sequence:
#
# PCOD8274961 Si02
#       6
#    16  16  16  16  16  16
#     4   8  13  21  33  49  72 106 144 176 209 252
#     4   9  17  29  45  65  88 113 143 179 218 260
#     4   9  17  29  44  61  82 109 142 178 215 257
#     4   9  16  24  35  54  80 108 138 174 216 258
#     4   8  14  25  42  65  91 117 146 181 218 254
#     4   9  18  31  46  64  86 113 143 178 220 261
#
# _framework density 16.691652000000001
#
# number of rings (size 3 to 8) (size 9 to 14) (size 15 to 20)
#    0.000    3.333    0.000    1.500    0.000    4.000 
#    0.000    5.000    0.000    0.500    0.000    5.833 
#    0.000    0.667    0.000    2.167    0.000    4.333 
#
# Total GULP energy -594990.942725 kJ/mol
# GULP energy per Si atom -12395.644640 kJ/mol
# Density = 1.665366 g / cm^3
# Si number density = 16.691652 Si / 1000 Ang^3
#
#
#
# Elastic Constant Matrix: (Units=GPa)
#
#
# Indices 1 2 3 4 5 6 
#
# 1 63.5889 38.1990 55.9816 0.0000 0.0000 0.0000
# 2 38.1990 79.2226 73.3876 0.0000 0.0000 0.0000
# 3 55.9816 73.3876 132.5653 0.0000 0.0000 0.0000
# 4 0.0000 0.0000 0.0000 6.8396 0.0000 0.0000
# 5 0.0000 0.0000 0.0000 0.0000 17.6805 0.0000
# 6 0.0000 0.0000 0.0000 0.0000 0.0000 18.2425
#
#
#
# Elastic Compliance Matrix: (Units=1/GPa)
#
#
# Indices 1 2 3 4 5 6 
#
# 1 0.025905 -0.004838 -0.008261 0.000000 0.000000 0.000000
# 2 -0.004838 0.026813 -0.012801 0.000000 0.000000 0.000000
# 3 -0.008261 -0.012801 0.018119 0.000000 0.000000 0.000000
# 4 0.000000 0.000000 0.000000 0.146207 0.000000 0.000000
# 5 0.000000 0.000000 0.000000 0.000000 0.056559 0.000000
# 6 0.000000 0.000000 0.000000 0.000000 0.000000 0.054817
#
#
# Mechanical properties :
#
#
# Convention : Reuss Voigt Hill
#
# Bulk Modulus (GPa) = 52.52885 67.83480 60.18183
# Shear Modulus (GPa) = 12.93437 15.73976 14.33706
#
# Velocity S-wave (km/s) = 2.78672 3.07412 2.93394
# Velocity P-wave (km/s) = 6.47247 7.30263 6.90005
#
# Compressibility (1/GPa) = 0.01903716
#
# Stress axis : x y z
#
# Youngs Moduli (GPa) = 38.60214 37.29500 55.19183
#
# Poissons Ratio (x) = 0.18043 0.45596
# Poissons Ratio (y) = 0.18675 0.70649
# Poissons Ratio (z) = 0.31891 0.47740
#
# Static dielectric constant tensor:
#      x y z
#    x 3.074350 0.000000 0.000000 
#    y 0.000000 2.904070 0.000000 
#    z 0.000000 0.000000 3.353800 
# 
# 
# High freq. dielectric constant tensor:
#      x y z
#    x 1.625900 0.000000 0.000000 
#    y 0.000000 1.601090 0.000000 
#    z 0.000000 0.000000 1.653030 
# 
# From -- ./inp_files/73124.got.cif
#   From: 2010.03.12/outbox.cif.g09.slc.cpg/sg65_37_cif.got.tgz:73124.got - 2010.04.10 20:52:16.
