data_PCOD8274830
_publ_section_title
;
Structure prediction by ZEFSAII (Michael W. Deem and Ramdas Pophale) SiO2 
 PCOD8274830
Probable space group: C M M M
;
_chemical_formula_sum "Si O2"
_cell_formula_units_Z 72
_cell_length_a 15.272382
_cell_length_b 18.263029
_cell_length_c 14.131867
_cell_angle_alpha 90.000000
_cell_angle_beta 90.000000
_cell_angle_gamma 90.000000
_cell_volume 3941.659713
_symmetry_space_group_name_H-M "C M M M"
_symmetry_group_IT_number 65
_symmetry_cell_setting 'orthorhombic'
loop_
_space_group_symop_operation_xyz
x,y,z
-x,-y,z
x,-y,-z
-x,y,-z
-x,-y,-z
x,y,-z
-x,y,z
x,-y,z
1/2+x,1/2+y,z
1/2-x,1/2-y,z
1/2+x,1/2-y,-z
1/2-x,1/2+y,-z
1/2-x,1/2-y,-z
1/2+x,1/2+y,-z
1/2-x,1/2+y,z
1/2+x,1/2-y,z
loop_
_atom_site_type_symbol
_atom_site_label
_atom_site_fract_x
_atom_site_fract_y
_atom_site_fract_z
Si Si1 0.000000 0.414075 0.102818
Si Si2 0.899662 0.916531 0.610033
Si Si3 0.252242 0.663668 0.281266
Si Si4 0.099311 0.583923 0.388512
Si Si5 0.689930 0.914521 0.889790
O O1 0.092292 0.393907 0.152207
O O2 0.000000 0.500000 0.085864
O O3 0.000000 0.375808 0.000000
O O4 0.886356 0.899685 0.500000
O O5 0.840849 0.860844 0.668230
O O6 0.000000 0.903704 0.639591
O O7 0.871589 0.000000 0.631933
O O8 0.250000 0.750000 0.276604
O O9 0.167307 0.636011 0.336804
O O10 0.256083 0.631872 0.174334
O O11 0.109179 0.595883 0.500000
O O12 0.120733 0.500000 0.361725
O O13 0.000000 0.602828 0.356374
O O14 0.710020 0.000000 0.876832
O O15 0.699261 0.892544 0.000000
#
# Coordination Sequence:
#
# PCOD8274830 Si02
#       5
#     8  16  16  16  16
#     4   7  12  26  50  78  99 119 160 213 257 301
#     4   9  19  38  61  78  96 134 191 242 266 287
#     4  12  24  33  49  81 116 149 172 209 268 336
#     4   9  19  36  57  81 109 141 179 223 269 320
#     4   9  18  34  56  79 103 136 180 225 264 309
#
# _framework density 18.266417000000001
#
# number of rings (size 3 to 8) (size 9 to 14) (size 15 to 20)
#    0.000    2.556    0.000    5.333    1.556    4.889 
#    0.000    2.222    0.000    0.667    0.000    3.111 
#    0.000    0.000    0.000    0.000    0.000    0.000 
#
# Total GULP energy -446186.298517 kJ/mol
# GULP energy per Si atom -12394.063848 kJ/mol
# Density = 1.822484 g / cm^3
# Si number density = 18.266417 Si / 1000 Ang^3
#
#
#
# Elastic Constant Matrix: (Units=GPa)
#
#
# Indices 1 2 3 4 5 6 
#
# 1 91.7238 55.2448 54.4690 0.0000 0.0000 0.0000
# 2 55.2448 111.4104 58.8187 0.0000 0.0000 0.0000
# 3 54.4690 58.8187 76.4114 0.0000 0.0000 0.0000
# 4 0.0000 0.0000 0.0000 5.1994 0.0000 0.0000
# 5 0.0000 0.0000 0.0000 0.0000 20.8620 0.0000
# 6 0.0000 0.0000 0.0000 0.0000 0.0000 15.8923
#
#
#
# Elastic Compliance Matrix: (Units=1/GPa)
#
#
# Indices 1 2 3 4 5 6 
#
# 1 0.019914 -0.004010 -0.011109 0.000000 0.000000 0.000000
# 2 -0.004010 0.015928 -0.009403 0.000000 0.000000 0.000000
# 3 -0.011109 -0.009403 0.028244 0.000000 0.000000 0.000000
# 4 0.000000 0.000000 0.000000 0.192332 0.000000 0.000000
# 5 0.000000 0.000000 0.000000 0.000000 0.047934 0.000000
# 6 0.000000 0.000000 0.000000 0.000000 0.000000 0.062924
#
#
# Mechanical properties :
#
#
# Convention : Reuss Voigt Hill
#
# Bulk Modulus (GPa) = 66.47459 68.51227 67.49343
# Shear Modulus (GPa) = 11.86709 15.79161 13.82935
#
# Velocity S-wave (km/s) = 2.55162 2.94345 2.75451
# Velocity P-wave (km/s) = 6.71950 7.01003 6.86631
#
# Compressibility (1/GPa) = 0.01504334
#
# Stress axis : x y z
#
# Youngs Moduli (GPa) = 50.21481 62.78147 35.40604
#
# Poissons Ratio (x) = 0.25175 0.39333
# Poissons Ratio (y) = 0.20136 0.33291
# Poissons Ratio (z) = 0.55784 0.59031
#
# Static dielectric constant tensor:
#      x y z
#    x 3.455710 0.000000 0.000000 
#    y 0.000000 3.031790 0.000000 
#    z 0.000000 0.000000 3.379950 
# 
# 
# High freq. dielectric constant tensor:
#      x y z
#    x 1.706640 0.000000 0.000000 
#    y 0.000000 1.673980 0.000000 
#    z 0.000000 0.000000 1.712200 
# 
# From -- ./inp_files/39758.got.cif
#   From: 2010.03.12/outbox.cif.g09.slc.cpg/sg65_20_cif.got.tgz:39758.got - 2010.04.10 20:52:16.
