data_PCOD8274320
_publ_section_title
;
Structure prediction by ZEFSAII (Michael W. Deem and Ramdas Pophale) SiO2 
 PCOD8274320
Probable space group: C M M M
;
_chemical_formula_sum "Si O2"
_cell_formula_units_Z 56
_cell_length_a 8.888036
_cell_length_b 28.620397
_cell_length_c 12.716665
_cell_angle_alpha 90.000000
_cell_angle_beta 90.000000
_cell_angle_gamma 90.000000
_cell_volume 3234.854038
_symmetry_space_group_name_H-M "C M M M"
_symmetry_group_IT_number 65
_symmetry_cell_setting 'orthorhombic'
loop_
_space_group_symop_operation_xyz
x,y,z
-x,-y,z
x,-y,-z
-x,y,-z
-x,-y,-z
x,y,-z
-x,y,z
x,-y,z
1/2+x,1/2+y,z
1/2-x,1/2-y,z
1/2+x,1/2-y,-z
1/2-x,1/2+y,-z
1/2-x,1/2-y,-z
1/2+x,1/2+y,-z
1/2-x,1/2+y,z
1/2+x,1/2-y,z
loop_
_atom_site_type_symbol
_atom_site_label
_atom_site_fract_x
_atom_site_fract_y
_atom_site_fract_z
Si Si1 0.678587 0.300932 0.500000
Si Si2 0.324373 0.797619 0.882718
Si Si3 0.324286 0.857460 0.313039
Si Si4 0.826910 0.947358 0.376833
O O1 0.500000 0.296259 0.500000
O O2 0.750000 0.250000 0.500000
O O3 0.728836 0.328841 0.397267
O O4 0.500000 0.788198 0.883991
O O5 0.250000 0.750000 0.841984
O O6 0.282962 0.839039 0.802990
O O7 0.266339 0.810971 0.000000
O O8 0.500000 0.851654 0.338996
O O9 0.279264 0.911865 0.313964
O O10 0.800082 0.939973 0.500000
O O11 0.000000 0.937398 0.348578
O O12 0.782503 0.000000 0.343940
#
# Coordination Sequence:
#
# PCOD8274320 Si02
#       4
#     8  16  16  16
#     4  12  24  36  49  70 105 140 168 203 251 303
#     4   9  19  35  53  74 101 133 170 211 251 295
#     4  11  21  33  52  78 104 132 169 209 253 304
#     4   9  18  33  52  74 102 136 170 207 253 301
#
# _framework density 17.311446
#
# number of rings (size 3 to 8) (size 9 to 14) (size 15 to 20)
#    0.000    2.000    1.429    3.857    0.000    5.143 
#    0.000    1.429    0.000    0.857    0.000    6.000 
#    0.000    0.000    0.000    0.000    0.000    0.000 
#
# Total GULP energy -347229.848650 kJ/mol
# GULP energy per Si atom -12401.066023 kJ/mol
# Density = 1.727204 g / cm^3
# Si number density = 17.311446 Si / 1000 Ang^3
#
#
#
# Elastic Constant Matrix: (Units=GPa)
#
#
# Indices 1 2 3 4 5 6 
#
# 1 79.1720 53.2645 45.1235 0.0000 0.0000 0.0000
# 2 53.2645 138.2860 61.7933 0.0000 0.0000 0.0000
# 3 45.1235 61.7933 89.6176 0.0000 0.0000 0.0000
# 4 0.0000 0.0000 0.0000 25.6507 0.0000 0.0000
# 5 0.0000 0.0000 0.0000 0.0000 14.9345 0.0000
# 6 0.0000 0.0000 0.0000 0.0000 0.0000 35.5646
#
#
#
# Elastic Compliance Matrix: (Units=1/GPa)
#
#
# Indices 1 2 3 4 5 6 
#
# 1 0.019484 -0.004511 -0.006700 0.000000 0.000000 0.000000
# 2 -0.004511 0.011496 -0.005656 0.000000 0.000000 0.000000
# 3 -0.006700 -0.005656 0.018432 0.000000 0.000000 0.000000
# 4 0.000000 0.000000 0.000000 0.038985 0.000000 0.000000
# 5 0.000000 0.000000 0.000000 0.000000 0.066959 0.000000
# 6 0.000000 0.000000 0.000000 0.000000 0.000000 0.028118
#
#
# Mechanical properties :
#
#
# Convention : Reuss Voigt Hill
#
# Bulk Modulus (GPa) = 63.78004 69.71536 66.74770
# Shear Modulus (GPa) = 22.47860 25.02289 23.75074
#
# Velocity S-wave (km/s) = 3.60735 3.80604 3.70803
# Velocity P-wave (km/s) = 7.36705 7.72484 7.54807
#
# Compressibility (1/GPa) = 0.01567889
#
# Stress axis : x y z
#
# Youngs Moduli (GPa) = 51.32358 86.98638 54.25424
#
# Poissons Ratio (x) = 0.39239 0.36351
# Poissons Ratio (y) = 0.23151 0.30684
# Poissons Ratio (z) = 0.34388 0.49195
#
# Static dielectric constant tensor:
#      x y z
#    x 3.238760 0.000000 0.000000 
#    y 0.000000 3.412730 0.000000 
#    z 0.000000 0.000000 3.355450 
# 
# 
# High freq. dielectric constant tensor:
#      x y z
#    x 1.673010 0.000000 0.000000 
#    y 0.000000 1.671230 0.000000 
#    z 0.000000 0.000000 1.650870 
# 
# From -- ./inp_files/20421.got.cif
#   From: 2010.03.12/outbox.cif.g09.slc.cpg/sg65_11_cif.got.tgz:20421.got - 2010.04.10 20:52:16.
