data_PCOD8274546
_publ_section_title
;
Structure prediction by ZEFSAII (Michael W. Deem and Ramdas Pophale) SiO2 
 PCOD8274546
Probable space group: C M M M
;
_chemical_formula_sum "Si O2"
_cell_formula_units_Z 96
_cell_length_a 20.036002
_cell_length_b 8.719659
_cell_length_c 29.829273
_cell_angle_alpha 90.000000
_cell_angle_beta 90.000000
_cell_angle_gamma 90.000000
_cell_volume 5211.385935
_symmetry_space_group_name_H-M "C M M M"
_symmetry_group_IT_number 65
_symmetry_cell_setting 'orthorhombic'
loop_
_space_group_symop_operation_xyz
x,y,z
-x,-y,z
x,-y,-z
-x,y,-z
-x,-y,-z
x,y,-z
-x,y,z
x,-y,z
1/2+x,1/2+y,z
1/2-x,1/2-y,z
1/2+x,1/2-y,-z
1/2-x,1/2+y,-z
1/2-x,1/2-y,-z
1/2+x,1/2+y,-z
1/2-x,1/2+y,z
1/2+x,1/2-y,z
loop_
_atom_site_type_symbol
_atom_site_label
_atom_site_fract_x
_atom_site_fract_y
_atom_site_fract_z
Si Si1 0.077836 0.677490 0.721699
Si Si2 0.926498 0.318062 0.620630
Si Si3 0.923347 0.176179 0.948074
Si Si4 0.679932 0.818467 0.449354
Si Si5 0.819633 0.320146 0.883716
Si Si6 0.179984 0.180281 0.211711
O O1 0.095758 0.500000 0.729931
O O2 0.095475 0.726881 0.670857
O O3 0.121400 0.783008 0.753764
O O4 0.000000 0.706852 0.731596
O O5 0.929332 0.500000 0.616815
O O6 0.875497 0.249588 0.584170
O O7 0.000000 0.250658 0.610240
O O8 0.877194 0.287346 0.919367
O O9 0.000000 0.212105 0.936172
O O10 0.906542 0.000000 0.936769
O O11 0.909574 0.210220 0.000000
O O12 0.662074 0.767200 0.500000
O O13 0.750000 0.750000 0.433944
O O14 0.684147 0.000000 0.445605
O O15 0.810598 0.500000 0.877645
O O16 0.750000 0.250000 0.901168
O O17 0.840289 0.248442 0.836268
O O18 0.250000 0.250000 0.228815
O O19 0.188553 0.000000 0.207047
#
# Coordination Sequence:
#
# PCOD8274546 Si02
#       6
#    16  16  16  16  16  16
#     4   9  18  34  54  75 102 134 168 208 255 307
#     4   8  15  29  49  72  97 126 162 205 249 292
#     4   9  19  37  59  82 110 143 178 217 260 305
#     4   9  17  29  46  69  97 128 163 203 246 294
#     4  11  22  37  57  80 108 140 176 217 260 308
#     4  11  22  37  56  77 104 135 171 214 258 307
#
# _framework density 18.421202999999998
#
# number of rings (size 3 to 8) (size 9 to 14) (size 15 to 20)
#    0.000    2.500    0.000    5.500    0.000    3.000 
#    0.000    5.000    0.000    1.500    0.000    2.333 
#    0.000    0.000    0.000    0.000    0.000    0.000 
#
# Total GULP energy -595215.624719 kJ/mol
# GULP energy per Si atom -12400.325515 kJ/mol
# Density = 1.837928 g / cm^3
# Si number density = 18.421203 Si / 1000 Ang^3
#
#
#
# Elastic Constant Matrix: (Units=GPa)
#
#
# Indices 1 2 3 4 5 6 
#
# 1 117.9067 46.7873 84.9230 0.0000 0.0000 0.0000
# 2 46.7873 93.5118 43.8635 0.0000 0.0000 0.0000
# 3 84.9230 43.8635 106.9965 0.0000 0.0000 0.0000
# 4 0.0000 0.0000 0.0000 21.3706 0.0000 0.0000
# 5 0.0000 0.0000 0.0000 0.0000 41.2300 0.0000
# 6 0.0000 0.0000 0.0000 0.0000 0.0000 28.8669
#
#
#
# Elastic Compliance Matrix: (Units=1/GPa)
#
#
# Indices 1 2 3 4 5 6 
#
# 1 0.020574 -0.003261 -0.014992 0.000000 0.000000 0.000000
# 2 -0.003261 0.013757 -0.003051 0.000000 0.000000 0.000000
# 3 -0.014992 -0.003051 0.022496 0.000000 0.000000 0.000000
# 4 0.000000 0.000000 0.000000 0.046793 0.000000 0.000000
# 5 0.000000 0.000000 0.000000 0.000000 0.024254 0.000000
# 6 0.000000 0.000000 0.000000 0.000000 0.000000 0.034642
#
#
# Mechanical properties :
#
#
# Convention : Reuss Voigt Hill
#
# Bulk Modulus (GPa) = 70.33712 74.39584 72.36648
# Shear Modulus (GPa) = 23.82485 27.81624 25.82055
#
# Velocity S-wave (km/s) = 3.60020 3.89010 3.74796
# Velocity P-wave (km/s) = 7.45302 7.78787 7.62228
#
# Compressibility (1/GPa) = 0.01421724
#
# Stress axis : x y z
#
# Youngs Moduli (GPa) = 48.60552 72.69135 44.45165
#
# Poissons Ratio (x) = 0.23707 0.66644
# Poissons Ratio (y) = 0.15852 0.13563
# Poissons Ratio (z) = 0.72871 0.22179
#
# Static dielectric constant tensor:
#      x y z
#    x 3.523930 0.000000 0.000000 
#    y 0.000000 3.162470 0.000000 
#    z 0.000000 0.000000 3.448890 
# 
# 
# High freq. dielectric constant tensor:
#      x y z
#    x 1.718960 0.000000 0.000000 
#    y 0.000000 1.697840 0.000000 
#    z 0.000000 0.000000 1.716850 
# 
# From -- ./inp_files/71416.got.cif
#   From: 2010.03.12/outbox.cif.g09.slc.cpg/sg65_36_cif.got.tgz:71416.got - 2010.04.10 20:52:16.
