data_PCOD8274851
_publ_section_title
;
Structure prediction by ZEFSAII (Michael W. Deem and Ramdas Pophale) SiO2 
 PCOD8274851
Probable space group: C M M M
;
_chemical_formula_sum "Si O2"
_cell_formula_units_Z 72
_cell_length_a 18.951933
_cell_length_b 9.158579
_cell_length_c 23.196835
_cell_angle_alpha 90.000000
_cell_angle_beta 90.000000
_cell_angle_gamma 90.000000
_cell_volume 4026.339036
_symmetry_space_group_name_H-M "C M M M"
_symmetry_group_IT_number 65
_symmetry_cell_setting 'orthorhombic'
loop_
_space_group_symop_operation_xyz
x,y,z
-x,-y,z
x,-y,-z
-x,y,-z
-x,-y,-z
x,y,-z
-x,y,z
x,-y,z
1/2+x,1/2+y,z
1/2-x,1/2-y,z
1/2+x,1/2-y,-z
1/2-x,1/2+y,-z
1/2-x,1/2-y,-z
1/2+x,1/2+y,-z
1/2-x,1/2+y,z
1/2+x,1/2-y,z
loop_
_atom_site_type_symbol
_atom_site_label
_atom_site_fract_x
_atom_site_fract_y
_atom_site_fract_z
Si Si1 0.173626 0.175301 0.500000
Si Si2 0.177911 0.828950 0.935318
Si Si3 0.083764 0.661140 0.724106
Si Si4 0.920097 0.828225 0.833453
Si Si5 0.917631 0.328327 0.404788
O O1 0.250000 0.250000 0.500000
O O2 0.130431 0.227307 0.555632
O O3 0.181159 0.000000 0.500000
O O4 0.250000 0.750000 0.920472
O O5 0.120551 0.771313 0.889852
O O6 0.190845 0.000000 0.928625
O O7 0.151721 0.790526 0.000000
O O8 0.114418 0.500000 0.735400
O O9 0.113865 0.764493 0.774620
O O10 0.105595 0.714131 0.660318
O O11 0.000000 0.657950 0.726098
O O12 0.000000 0.773693 0.840970
O O13 0.915637 0.000000 0.827998
O O14 0.903915 0.500000 0.416754
O O15 0.000000 0.292980 0.415930
#
# Coordination Sequence:
#
# PCOD8274851 Si02
#       5
#     8  16  16  16  16
#     4  12  25  38  53  75 105 137 169 208 253 296
#     4   9  18  32  48  66  91 125 163 200 240 288
#     4   8  15  29  50  75 101 129 159 193 237 288
#     4   9  17  29  47  72  99 125 156 198 244 285
#     4   9  18  35  58  80 103 133 168 204 245 296
#
# _framework density 17.882249000000002
#
# number of rings (size 3 to 8) (size 9 to 14) (size 15 to 20)
#    0.000    2.889    0.000    2.667    0.000    4.000 
#    0.000    5.556    0.000    2.667    0.000    6.222 
#    0.000    0.000    0.000    0.000    0.000    0.000 
#
# Total GULP energy -446212.566798 kJ/mol
# GULP energy per Si atom -12394.793522 kJ/mol
# Density = 1.784155 g / cm^3
# Si number density = 17.882249 Si / 1000 Ang^3
#
#
#
# Elastic Constant Matrix: (Units=GPa)
#
#
# Indices 1 2 3 4 5 6 
#
# 1 76.7222 45.0398 73.7739 0.0000 0.0000 0.0000
# 2 45.0398 62.2200 63.0874 0.0000 0.0000 0.0000
# 3 73.7739 63.0874 176.0933 0.0000 0.0000 0.0000
# 4 0.0000 0.0000 0.0000 33.4545 0.0000 0.0000
# 5 0.0000 0.0000 0.0000 0.0000 2.4942 0.0000
# 6 0.0000 0.0000 0.0000 0.0000 0.0000 24.9222
#
#
#
# Elastic Compliance Matrix: (Units=1/GPa)
#
#
# Indices 1 2 3 4 5 6 
#
# 1 0.026973 -0.012670 -0.006761 0.000000 0.000000 0.000000
# 2 -0.012670 0.031192 -0.005867 0.000000 0.000000 0.000000
# 3 -0.006761 -0.005867 0.010613 0.000000 0.000000 0.000000
# 4 0.000000 0.000000 0.000000 0.029891 0.000000 0.000000
# 5 0.000000 0.000000 0.000000 0.000000 0.400937 0.000000
# 6 0.000000 0.000000 0.000000 0.000000 0.000000 0.040125
#
#
# Mechanical properties :
#
#
# Convention : Reuss Voigt Hill
#
# Bulk Modulus (GPa) = 54.99748 75.42640 65.21194
# Shear Modulus (GPa) = 8.38379 21.04980 14.71679
#
# Velocity S-wave (km/s) = 2.16760 3.43466 2.87188
# Velocity P-wave (km/s) = 6.08989 7.61579 6.89518
#
# Compressibility (1/GPa) = 0.01818265
#
# Stress axis : x y z
#
# Youngs Moduli (GPa) = 37.07356 32.05925 94.22112
#
# Poissons Ratio (x) = 0.40619 0.63706
# Poissons Ratio (y) = 0.46972 0.55279
# Poissons Ratio (z) = 0.25067 0.18809
#
# Static dielectric constant tensor:
#      x y z
#    x 3.213810 0.000000 0.000000 
#    y 0.000000 3.308360 0.000000 
#    z 0.000000 0.000000 3.730820 
# 
# 
# High freq. dielectric constant tensor:
#      x y z
#    x 1.660920 0.000000 0.000000 
#    y 0.000000 1.682360 0.000000 
#    z 0.000000 0.000000 1.711620 
# 
# From -- ./inp_files/67005.got.cif
#   From: 2010.03.12/outbox.cif.g09.slc.cpg/sg65_34_cif.got.tgz:67005.got - 2010.04.10 20:52:16.
