data_PCOD8274206
_publ_section_title
;
Structure prediction by ZEFSAII (Michael W. Deem and Ramdas Pophale) SiO2 
 PCOD8274206
Probable space group: C M M M
;
_chemical_formula_sum "Si O2"
_cell_formula_units_Z 88
_cell_length_a 28.050877
_cell_length_b 24.110895
_cell_length_c 8.995941
_cell_angle_alpha 90.000000
_cell_angle_beta 90.000000
_cell_angle_gamma 90.000000
_cell_volume 6084.240519
_symmetry_space_group_name_H-M "C M M M"
_symmetry_group_IT_number 65
_symmetry_cell_setting 'orthorhombic'
loop_
_space_group_symop_operation_xyz
x,y,z
-x,-y,z
x,-y,-z
-x,y,-z
-x,-y,-z
x,y,-z
-x,y,z
x,-y,z
1/2+x,1/2+y,z
1/2-x,1/2-y,z
1/2+x,1/2-y,-z
1/2-x,1/2+y,-z
1/2-x,1/2-y,-z
1/2+x,1/2+y,-z
1/2-x,1/2+y,z
1/2+x,1/2-y,z
loop_
_atom_site_type_symbol
_atom_site_label
_atom_site_fract_x
_atom_site_fract_y
_atom_site_fract_z
Si Si1 0.078923 0.635004 0.176840
Si Si2 0.762566 0.185439 0.166552
Si Si3 0.327503 0.840100 0.667244
Si Si4 0.500000 0.065574 0.670534
Si Si5 0.552631 0.247178 0.327952
Si Si6 0.851157 0.789278 0.664909
O O1 0.132849 0.627857 0.236464
O O2 0.056671 0.693636 0.224447
O O3 0.047178 0.586563 0.246358
O O4 0.078836 0.630500 0.000000
O O5 0.750000 0.250000 0.173121
O O6 0.724705 0.150245 0.262012
O O7 0.816240 0.176380 0.227879
O O8 0.761072 0.162538 0.000000
O O9 0.327265 0.863762 0.500000
O O10 0.338750 0.775350 0.668304
O O11 0.500000 0.086894 0.500000
O O12 0.500000 0.000000 0.677915
O O13 0.560947 0.228898 0.500000
O O14 0.500000 0.273468 0.306471
O O15 0.593037 0.293026 0.285060
O O16 0.843828 0.813549 0.500000
#
# Coordination Sequence:
#
# PCOD8274206 Si02
#       6
#    16  16  16   8  16  16
#     4  11  20  29  42  59  73  84 104 138 175 212
#     4   9  15  22  32  48  68  87 107 135 167 199
#     4   9  16  26  39  51  66  88 109 131 160 203
#     4  11  23  37  49  57  69  91 115 139 173 219
#     4   9  16  26  39  51  68  93 119 144 171 208
#     4   8  14  22  32  47  65  89 115 137 164 200
#
# _framework density 14.463597
#
# number of rings (size 3 to 8) (size 9 to 14) (size 15 to 20)
#    0.000    2.636    0.909    4.091    0.000    7.273 
#    0.000    0.000    0.000    0.000    0.000    0.000 
#    0.000    0.000    0.000    0.000    0.000    0.000 
#
# Total GULP energy -545334.788862 kJ/mol
# GULP energy per Si atom -12393.972474 kJ/mol
# Density = 1.443068 g / cm^3
# Si number density = 14.463597 Si / 1000 Ang^3
#
#
#
# Elastic Constant Matrix: (Units=GPa)
#
#
# Indices 1 2 3 4 5 6 
#
# 1 149.4761 21.8008 64.6014 0.0000 0.0000 0.0000
# 2 21.8008 12.8605 17.7594 0.0000 0.0000 0.0000
# 3 64.6014 17.7594 122.1571 0.0000 0.0000 0.0000
# 4 0.0000 0.0000 0.0000 7.7744 0.0000 0.0000
# 5 0.0000 0.0000 0.0000 0.0000 22.9898 0.0000
# 6 0.0000 0.0000 0.0000 0.0000 0.0000 9.5624
#
#
#
# Elastic Compliance Matrix: (Units=1/GPa)
#
#
# Indices 1 2 3 4 5 6 
#
# 1 0.009967 -0.012033 -0.003522 0.000000 0.000000 0.000000
# 2 -0.012033 0.111816 -0.009893 0.000000 0.000000 0.000000
# 3 -0.003522 -0.009893 0.011487 0.000000 0.000000 0.000000
# 4 0.000000 0.000000 0.000000 0.128628 0.000000 0.000000
# 5 0.000000 0.000000 0.000000 0.000000 0.043498 0.000000
# 6 0.000000 0.000000 0.000000 0.000000 0.000000 0.104577
#
#
# Mechanical properties :
#
#
# Convention : Reuss Voigt Hill
#
# Bulk Modulus (GPa) = 12.13943 54.75742 33.44843
# Shear Modulus (GPa) = 10.23908 20.08745 15.16327
#
# Velocity S-wave (km/s) = 2.66356 3.73074 3.24137
# Velocity P-wave (km/s) = 4.22738 7.51657 6.09794
#
# Compressibility (1/GPa) = 0.08237616
#
# Stress axis : x y z
#
# Youngs Moduli (GPa) = 100.33163 8.94323 87.05693
#
# Poissons Ratio (x) = 0.10761 0.30658
# Poissons Ratio (y) = 1.20726 0.86123
# Poissons Ratio (z) = 0.35333 0.08847
#
# Static dielectric constant tensor:
#      x y z
#    x 3.273120 0.000000 0.000000 
#    y 0.000000 2.091890 0.000000 
#    z 0.000000 0.000000 2.982120 
# 
# 
# High freq. dielectric constant tensor:
#      x y z
#    x 1.574420 0.000000 0.000000 
#    y 0.000000 1.447620 0.000000 
#    z 0.000000 0.000000 1.567060 
# 
# From -- ./inp_files/18531.got.cif
#   From: 2010.03.12/outbox.cif.g09.slc.cpg/sg65_10_cif.got.tgz:18531.got - 2010.04.10 20:52:16.
