data_PCOD8274625
_publ_section_title
;
Structure prediction by ZEFSAII (Michael W. Deem and Ramdas Pophale) SiO2 
 PCOD8274625
Probable space group: C M M M
;
_chemical_formula_sum "Si O2"
_cell_formula_units_Z 64
_cell_length_a 21.262206
_cell_length_b 8.690942
_cell_length_c 17.143793
_cell_angle_alpha 90.000000
_cell_angle_beta 90.000000
_cell_angle_gamma 90.000000
_cell_volume 3167.977492
_symmetry_space_group_name_H-M "C M M M"
_symmetry_group_IT_number 65
_symmetry_cell_setting 'orthorhombic'
loop_
_space_group_symop_operation_xyz
x,y,z
-x,-y,z
x,-y,-z
-x,y,-z
-x,-y,-z
x,y,-z
-x,y,z
x,-y,z
1/2+x,1/2+y,z
1/2-x,1/2-y,z
1/2+x,1/2-y,-z
1/2-x,1/2+y,-z
1/2-x,1/2-y,-z
1/2+x,1/2+y,-z
1/2-x,1/2+y,z
1/2+x,1/2-y,z
loop_
_atom_site_type_symbol
_atom_site_label
_atom_site_fract_x
_atom_site_fract_y
_atom_site_fract_z
Si Si1 0.428956 0.823204 0.408254
Si Si2 0.500000 0.178766 0.911283
Si Si3 0.629403 0.819340 0.154390
Si Si4 0.317607 0.680945 0.689780
Si Si5 0.816967 0.817744 0.000000
O O1 0.419780 0.804823 0.500000
O O2 0.500000 0.767967 0.385089
O O3 0.374406 0.725914 0.367611
O O4 0.420871 0.000000 0.382393
O O5 0.556112 0.221899 0.852353
O O6 0.500000 0.000000 0.929798
O O7 0.500000 0.256738 0.000000
O O8 0.664385 0.734853 0.224171
O O9 0.651924 0.751888 0.074589
O O10 0.643224 0.000000 0.162121
O O11 0.309669 0.500000 0.688445
O O12 0.250000 0.750000 0.663786
O O13 0.750000 0.750000 0.000000
O O14 0.819429 0.000000 0.000000
#
# Coordination Sequence:
#
# PCOD8274625 Si02
#       5
#    16   8  16  16   8
#     4   9  20  42  71 100 130 167 209 252 307 377
#     4   9  18  36  62  90 115 152 203 248 306 375
#     4  11  22  40  63  88 120 161 207 257 309 372
#     4  12  26  43  63  93 130 169 213 263 317 374
#     4  12  24  39  58  83 115 158 204 256 313 371
#
# _framework density 20.202164
#
# number of rings (size 3 to 8) (size 9 to 14) (size 15 to 20)
#    0.000    1.375    1.250    5.625    1.750    1.500 
#    0.000    3.750    0.000    0.000    0.000    0.000 
#    0.000    0.000    0.000    0.000    0.000    0.000 
#
# Total GULP energy -396527.553256 kJ/mol
# GULP energy per Si atom -12391.486039 kJ/mol
# Density = 2.015618 g / cm^3
# Si number density = 20.202164 Si / 1000 Ang^3
#
#
#
# Elastic Constant Matrix: (Units=GPa)
#
#
# Indices 1 2 3 4 5 6 
#
# 1 168.1158 83.9902 51.2230 0.0000 0.0000 0.0000
# 2 83.9902 113.5139 49.5095 0.0000 0.0000 0.0000
# 3 51.2230 49.5095 81.5389 0.0000 0.0000 0.0000
# 4 0.0000 0.0000 0.0000 39.2102 0.0000 0.0000
# 5 0.0000 0.0000 0.0000 0.0000 19.8372 0.0000
# 6 0.0000 0.0000 0.0000 0.0000 0.0000 30.4434
#
#
#
# Elastic Compliance Matrix: (Units=1/GPa)
#
#
# Indices 1 2 3 4 5 6 
#
# 1 0.009764 -0.006188 -0.002376 0.000000 0.000000 0.000000
# 2 -0.006188 0.015904 -0.005770 0.000000 0.000000 0.000000
# 3 -0.002376 -0.005770 0.017260 0.000000 0.000000 0.000000
# 4 0.000000 0.000000 0.000000 0.025504 0.000000 0.000000
# 5 0.000000 0.000000 0.000000 0.000000 0.050410 0.000000
# 6 0.000000 0.000000 0.000000 0.000000 0.000000 0.032848
#
#
# Mechanical properties :
#
#
# Convention : Reuss Voigt Hill
#
# Bulk Modulus (GPa) = 70.12421 81.40157 75.76289
# Shear Modulus (GPa) = 27.01066 29.79454 28.40260
#
# Velocity S-wave (km/s) = 3.66049 3.84450 3.75363
# Velocity P-wave (km/s) = 7.25618 7.75164 7.50800
#
# Compressibility (1/GPa) = 0.01426041
#
# Stress axis : x y z
#
# Youngs Moduli (GPa) = 102.41927 62.87545 57.93634
#
# Poissons Ratio (x) = 0.38906 0.13768
# Poissons Ratio (y) = 0.63375 0.33428
# Poissons Ratio (z) = 0.24340 0.36278
#
# Static dielectric constant tensor:
#      x y z
#    x 3.282850 0.000000 0.000000 
#    y 0.000000 3.637490 0.000000 
#    z 0.000000 0.000000 3.684920 
# 
# 
# High freq. dielectric constant tensor:
#      x y z
#    x 1.814960 0.000000 0.000000 
#    y 0.000000 1.779120 0.000000 
#    z 0.000000 0.000000 1.792920 
# 
# From -- ./inp_files/55291.got.cif
#   From: 2010.03.12/outbox.cif.g09.slc.cpg/sg65_28_cif.got.tgz:55291.got - 2010.04.10 20:52:16.
