data_PCOD8274054
_publ_section_title
;
Structure prediction by ZEFSAII (Michael W. Deem and Ramdas Pophale) SiO2 
 PCOD8274054
Probable space group: C M M M
;
_chemical_formula_sum "Si O2"
_cell_formula_units_Z 80
_cell_length_a 18.311461
_cell_length_b 29.771098
_cell_length_c 7.383001
_cell_angle_alpha 90.000000
_cell_angle_beta 90.000000
_cell_angle_gamma 90.000000
_cell_volume 4024.859976
_symmetry_space_group_name_H-M "C M M M"
_symmetry_group_IT_number 65
_symmetry_cell_setting 'orthorhombic'
loop_
_space_group_symop_operation_xyz
x,y,z
-x,-y,z
x,-y,-z
-x,y,-z
-x,-y,-z
x,y,-z
-x,y,z
x,-y,z
1/2+x,1/2+y,z
1/2-x,1/2-y,z
1/2+x,1/2-y,-z
1/2-x,1/2+y,-z
1/2-x,1/2-y,-z
1/2+x,1/2+y,-z
1/2-x,1/2+y,z
1/2+x,1/2-y,z
loop_
_atom_site_type_symbol
_atom_site_label
_atom_site_fract_x
_atom_site_fract_y
_atom_site_fract_z
Si Si1 0.178533 0.448418 0.500000
Si Si2 0.913513 0.362608 0.500000
Si Si3 0.331239 0.296713 0.213876
Si Si4 0.666493 0.803764 0.785577
Si Si5 0.798299 0.051412 0.792897
Si Si6 0.580856 0.619823 0.784579
O O1 0.150277 0.500000 0.500000
O O2 0.110395 0.414802 0.500000
O O3 0.226357 0.438503 0.321946
O O4 0.884406 0.338487 0.319469
O O5 0.000000 0.361000 0.500000
O O6 0.354374 0.246941 0.276857
O O7 0.250218 0.311209 0.276632
O O8 0.388758 0.332735 0.290768
O O9 0.329648 0.296611 0.000000
O O10 0.655184 0.811047 0.000000
O O11 0.866150 0.080209 0.717901
O O12 0.822690 0.000000 0.772866
O O13 0.779532 0.064161 0.000000
O O14 0.500000 0.612036 0.703920
O O15 0.577848 0.620662 0.000000
#
# Coordination Sequence:
#
# PCOD8274054 Si02
#       6
#     8   8  16  16  16  16
#     4  10  22  41  62  80 101 131 170 220 269 315
#     4  12  26  38  55  85 110 136 174 213 271 337
#     4   8  15  30  54  80 105 144 190 221 257 306
#     4   9  19  37  58  79 107 142 182 227 263 301
#     4   9  18  34  57  81 103 135 180 221 259 308
#     4   9  16  26  45  76 112 146 177 213 260 312
#
# _framework density 19.876467999999999
#
# number of rings (size 3 to 8) (size 9 to 14) (size 15 to 20)
#    0.000    2.800    0.000    2.400    0.000    5.800 
#    0.000    5.500    0.000    1.800    0.000    4.200 
#    0.000    0.000    0.000    0.000    0.000    0.000 
#
# Total GULP energy -495866.319682 kJ/mol
# GULP energy per Si atom -12396.657992 kJ/mol
# Density = 1.983123 g / cm^3
# Si number density = 19.876468 Si / 1000 Ang^3
#
#
#
# Elastic Constant Matrix: (Units=GPa)
#
#
# Indices 1 2 3 4 5 6 
#
# 1 118.1026 72.2620 31.5595 0.0000 0.0000 0.0000
# 2 72.2620 124.0139 31.6311 0.0000 0.0000 0.0000
# 3 31.5595 31.6311 73.7521 0.0000 0.0000 0.0000
# 4 0.0000 0.0000 0.0000 17.0120 0.0000 0.0000
# 5 0.0000 0.0000 0.0000 0.0000 12.7181 0.0000
# 6 0.0000 0.0000 0.0000 0.0000 0.0000 22.7262
#
#
#
# Elastic Compliance Matrix: (Units=1/GPa)
#
#
# Indices 1 2 3 4 5 6 
#
# 1 0.013629 -0.007247 -0.002724 0.000000 0.000000 0.000000
# 2 -0.007247 0.012907 -0.002435 0.000000 0.000000 0.000000
# 3 -0.002724 -0.002435 0.015769 0.000000 0.000000 0.000000
# 4 0.000000 0.000000 0.000000 0.058782 0.000000 0.000000
# 5 0.000000 0.000000 0.000000 0.000000 0.078628 0.000000
# 6 0.000000 0.000000 0.000000 0.000000 0.000000 0.044002
#
#
# Mechanical properties :
#
#
# Convention : Reuss Voigt Hill
#
# Bulk Modulus (GPa) = 57.16222 65.19708 61.17965
# Shear Modulus (GPa) = 19.65720 22.51900 21.08810
#
# Velocity S-wave (km/s) = 3.14820 3.36958 3.26077
# Velocity P-wave (km/s) = 6.48352 6.92901 6.70996
#
# Compressibility (1/GPa) = 0.01749407
#
# Stress axis : x y z
#
# Youngs Moduli (GPa) = 73.37218 77.47568 63.41639
#
# Poissons Ratio (x) = 0.56145 0.17275
# Poissons Ratio (y) = 0.53171 0.15440
# Poissons Ratio (z) = 0.19987 0.18863
#
# Static dielectric constant tensor:
#      x y z
#    x 3.595210 0.000000 0.000000 
#    y 0.000000 3.917500 0.000000 
#    z 0.000000 0.000000 3.457270 
# 
# 
# High freq. dielectric constant tensor:
#      x y z
#    x 1.747630 0.000000 0.000000 
#    y 0.000000 1.784020 0.000000 
#    z 0.000000 0.000000 1.768900 
# 
# From -- ./inp_files/9957.got.cif
#   From: 2010.03.12/outbox.cif.g09.slc.cpg/sg65_5_cif.got.tgz:9957.got - 2010.04.10 20:52:16.
