data_PCOD8274035
_publ_section_title
;
Structure prediction by ZEFSAII (Michael W. Deem and Ramdas Pophale) SiO2 
 PCOD8274035
Probable space group: C M M M
;
_chemical_formula_sum "Si O2"
_cell_formula_units_Z 56
_cell_length_a 14.208135
_cell_length_b 18.340178
_cell_length_c 10.242388
_cell_angle_alpha 90.000000
_cell_angle_beta 90.000000
_cell_angle_gamma 90.000000
_cell_volume 2668.958648
_symmetry_space_group_name_H-M "C M M M"
_symmetry_group_IT_number 65
_symmetry_cell_setting 'orthorhombic'
loop_
_space_group_symop_operation_xyz
x,y,z
-x,-y,z
x,-y,-z
-x,y,-z
-x,-y,-z
x,y,-z
-x,y,z
x,-y,z
1/2+x,1/2+y,z
1/2-x,1/2-y,z
1/2+x,1/2-y,-z
1/2-x,1/2+y,-z
1/2-x,1/2-y,-z
1/2+x,1/2+y,-z
1/2-x,1/2+y,z
1/2+x,1/2-y,z
loop_
_atom_site_type_symbol
_atom_site_label
_atom_site_fract_x
_atom_site_fract_y
_atom_site_fract_z
Si Si1 0.891346 0.322791 0.151526
Si Si2 0.272923 0.414697 0.242211
Si Si3 0.393131 0.301304 0.644262
Si Si4 0.602639 0.585651 0.000000
O O1 0.832582 0.392523 0.201594
O O2 0.862719 0.255394 0.243565
O O3 0.000000 0.344014 0.170238
O O4 0.869397 0.303687 0.000000
O O5 0.274080 0.500000 0.275691
O O6 0.318852 0.368621 0.359744
O O7 0.341209 0.389947 0.125890
O O8 0.386887 0.264706 0.500000
O O9 0.500000 0.329151 0.669375
O O10 0.589996 0.500000 0.000000
O O11 0.500000 0.624353 0.000000
#
# Coordination Sequence:
#
# PCOD8274035 Si02
#       4
#    16  16  16   8
#     4  10  22  40  62  88 120 160 206 252 297 352
#     4  11  22  36  59  90 121 157 197 243 301 362
#     4  10  23  42  63  88 120 159 202 250 304 361
#     4   9  18  32  50  79 117 151 183 228 288 350
#
# _framework density 20.981967000000001
#
# number of rings (size 3 to 8) (size 9 to 14) (size 15 to 20)
#    0.000    1.857    1.429    1.714    2.000    6.286 
#    0.000    2.857    0.000    0.000    0.000    6.000 
#    0.000    0.000    0.000    0.000    0.000    0.000 
#
# Total GULP energy -347101.547655 kJ/mol
# GULP energy per Si atom -12396.483845 kJ/mol
# Density = 2.093421 g / cm^3
# Si number density = 20.981967 Si / 1000 Ang^3
#
#
#
# Elastic Constant Matrix: (Units=GPa)
#
#
# Indices 1 2 3 4 5 6 
#
# 1 116.0354 54.4886 32.8420 0.0000 0.0000 0.0000
# 2 54.4886 97.3029 33.8955 0.0000 0.0000 0.0000
# 3 32.8420 33.8955 94.1836 0.0000 0.0000 0.0000
# 4 0.0000 0.0000 0.0000 20.4333 0.0000 0.0000
# 5 0.0000 0.0000 0.0000 0.0000 28.0869 0.0000
# 6 0.0000 0.0000 0.0000 0.0000 0.0000 36.6787
#
#
#
# Elastic Compliance Matrix: (Units=1/GPa)
#
#
# Indices 1 2 3 4 5 6 
#
# 1 0.012021 -0.006027 -0.002023 0.000000 0.000000 0.000000
# 2 -0.006027 0.014772 -0.003215 0.000000 0.000000 0.000000
# 3 -0.002023 -0.003215 0.012480 0.000000 0.000000 0.000000
# 4 0.000000 0.000000 0.000000 0.048940 0.000000 0.000000
# 5 0.000000 0.000000 0.000000 0.000000 0.035604 0.000000
# 6 0.000000 0.000000 0.000000 0.000000 0.000000 0.027264
#
#
# Mechanical properties :
#
#
# Convention : Reuss Voigt Hill
#
# Bulk Modulus (GPa) = 59.72254 61.10821 60.41538
# Shear Modulus (GPa) = 27.90344 29.45951 28.68148
#
# Velocity S-wave (km/s) = 3.65070 3.75112 3.70125
# Velocity P-wave (km/s) = 6.80410 6.92449 6.86456
#
# Compressibility (1/GPa) = 0.01674410
#
# Stress axis : x y z
#
# Youngs Moduli (GPa) = 83.19009 67.69567 80.12960
#
# Poissons Ratio (x) = 0.40799 0.16207
# Poissons Ratio (y) = 0.50137 0.25759
# Poissons Ratio (z) = 0.16826 0.21762
#
# Static dielectric constant tensor:
#      x y z
#    x 3.996850 0.000000 0.000000 
#    y 0.000000 3.414190 0.000000 
#    z 0.000000 0.000000 3.860060 
# 
# 
# High freq. dielectric constant tensor:
#      x y z
#    x 1.836780 0.000000 0.000000 
#    y 0.000000 1.795400 0.000000 
#    z 0.000000 0.000000 1.823230 
# 
# From -- ./inp_files/8507.got.cif
#   From: 2010.03.12/outbox.cif.g09.slc.cpg/sg65_5_cif.got.tgz:8507.got - 2010.04.10 20:52:16.
