data_PCOD8274485
_publ_section_title
;
Structure prediction by ZEFSAII (Michael W. Deem and Ramdas Pophale) SiO2 
 PCOD8274485
Probable space group: C M M M
;
_chemical_formula_sum "Si O2"
_cell_formula_units_Z 72
_cell_length_a 18.798337
_cell_length_b 8.895891
_cell_length_c 22.799667
_cell_angle_alpha 90.000000
_cell_angle_beta 90.000000
_cell_angle_gamma 90.000000
_cell_volume 3812.741731
_symmetry_space_group_name_H-M "C M M M"
_symmetry_group_IT_number 65
_symmetry_cell_setting 'orthorhombic'
loop_
_space_group_symop_operation_xyz
x,y,z
-x,-y,z
x,-y,-z
-x,y,-z
-x,-y,-z
x,y,-z
-x,y,z
x,-y,z
1/2+x,1/2+y,z
1/2-x,1/2-y,z
1/2+x,1/2-y,-z
1/2-x,1/2+y,-z
1/2-x,1/2-y,-z
1/2+x,1/2+y,-z
1/2-x,1/2+y,z
1/2+x,1/2-y,z
loop_
_atom_site_type_symbol
_atom_site_label
_atom_site_fract_x
_atom_site_fract_y
_atom_site_fract_z
Si Si1 0.326294 0.677143 0.836447
Si Si2 0.916927 0.174208 0.599265
Si Si3 0.078602 0.821884 0.731158
Si Si4 0.173093 0.676713 0.500000
Si Si5 0.417886 0.172364 0.932421
O O1 0.317448 0.500000 0.832654
O O2 0.250000 0.750000 0.840130
O O3 0.366335 0.742423 0.778863
O O4 0.370403 0.716948 0.894212
O O5 0.897050 0.222335 0.665633
O O6 0.869930 0.276217 0.557510
O O7 0.000000 0.203390 0.586939
O O8 0.898713 0.000000 0.587810
O O9 0.000000 0.754801 0.744075
O O10 0.074096 0.000000 0.735920
O O11 0.183010 0.500000 0.500000
O O12 0.250000 0.750000 0.500000
O O13 0.500000 0.209612 0.920267
O O14 0.401211 0.000000 0.915941
O O15 0.399041 0.202324 0.000000
#
# Coordination Sequence:
#
# PCOD8274485 Si02
#       5
#    16  16  16   8  16
#     4  11  22  35  53  79 112 146 180 219 264 315
#     4   9  18  36  61  84 108 140 176 215 265 322
#     4   8  16  33  57  82 106 136 176 220 264 314
#     4  12  25  38  53  77 111 145 181 224 267 314
#     4   9  19  37  59  81 106 137 175 221 271 321
#
# _framework density 18.884049000000001
#
# number of rings (size 3 to 8) (size 9 to 14) (size 15 to 20)
#    0.000    2.444    0.000    4.667    0.000    4.889 
#    0.000    5.556    0.000    2.667    0.000    0.000 
#    0.000    0.000    0.000    0.000    0.000    0.000 
#
# Total GULP energy -446407.258279 kJ/mol
# GULP energy per Si atom -12400.201619 kJ/mol
# Density = 1.884107 g / cm^3
# Si number density = 18.884049 Si / 1000 Ang^3
#
#
#
# Elastic Constant Matrix: (Units=GPa)
#
#
# Indices 1 2 3 4 5 6 
#
# 1 115.2975 51.8486 81.3473 0.0000 0.0000 0.0000
# 2 51.8486 78.3656 48.5755 0.0000 0.0000 0.0000
# 3 81.3473 48.5755 135.0280 0.0000 0.0000 0.0000
# 4 0.0000 0.0000 0.0000 22.5746 0.0000 0.0000
# 5 0.0000 0.0000 0.0000 0.0000 2.5706 0.0000
# 6 0.0000 0.0000 0.0000 0.0000 0.0000 16.1586
#
#
#
# Elastic Compliance Matrix: (Units=1/GPa)
#
#
# Indices 1 2 3 4 5 6 
#
# 1 0.017267 -0.006404 -0.008099 0.000000 0.000000 0.000000
# 2 -0.006404 0.018798 -0.002904 0.000000 0.000000 0.000000
# 3 -0.008099 -0.002904 0.013330 0.000000 0.000000 0.000000
# 4 0.000000 0.000000 0.000000 0.044298 0.000000 0.000000
# 5 0.000000 0.000000 0.000000 0.000000 0.389011 0.000000
# 6 0.000000 0.000000 0.000000 0.000000 0.000000 0.061886
#
#
# Mechanical properties :
#
#
# Convention : Reuss Voigt Hill
#
# Bulk Modulus (GPa) = 68.58458 76.91488 72.74973
# Shear Modulus (GPa) = 8.55777 18.05542 13.30660
#
# Velocity S-wave (km/s) = 2.13110 3.09547 2.65740
# Velocity P-wave (km/s) = 6.51560 7.32082 6.92992
#
# Compressibility (1/GPa) = 0.01458054
#
# Stress axis : x y z
#
# Youngs Moduli (GPa) = 57.91334 53.19654 75.02075
#
# Poissons Ratio (x) = 0.34069 0.60757
# Poissons Ratio (y) = 0.37090 0.21788
# Poissons Ratio (z) = 0.46902 0.15449
#
# Static dielectric constant tensor:
#      x y z
#    x 3.528650 0.000000 0.000000 
#    y 0.000000 3.186690 0.000000 
#    z 0.000000 0.000000 3.676250 
# 
# 
# High freq. dielectric constant tensor:
#      x y z
#    x 1.734440 0.000000 0.000000 
#    y 0.000000 1.709790 0.000000 
#    z 0.000000 0.000000 1.748450 
# 
# From -- ./inp_files/64375.got.cif
#   From: 2010.03.12/outbox.cif.g09.slc.cpg/sg65_33_cif.got.tgz:64375.got - 2010.04.10 20:52:16.
