data_PCOD8274796
_publ_section_title
;
Structure prediction by ZEFSAII (Michael W. Deem and Ramdas Pophale) SiO2 
 PCOD8274796
Probable space group: C M M M
;
_chemical_formula_sum "Si O2"
_cell_formula_units_Z 64
_cell_length_a 8.836728
_cell_length_b 18.288011
_cell_length_c 20.124442
_cell_angle_alpha 90.000000
_cell_angle_beta 90.000000
_cell_angle_gamma 90.000000
_cell_volume 3252.234173
_symmetry_space_group_name_H-M "C M M M"
_symmetry_group_IT_number 65
_symmetry_cell_setting 'orthorhombic'
loop_
_space_group_symop_operation_xyz
x,y,z
-x,-y,z
x,-y,-z
-x,y,-z
-x,-y,-z
x,y,-z
-x,y,z
x,-y,z
1/2+x,1/2+y,z
1/2-x,1/2-y,z
1/2+x,1/2-y,-z
1/2-x,1/2+y,-z
1/2-x,1/2-y,-z
1/2+x,1/2+y,-z
1/2-x,1/2+y,z
1/2+x,1/2-y,z
loop_
_atom_site_type_symbol
_atom_site_label
_atom_site_fract_x
_atom_site_fract_y
_atom_site_fract_z
Si Si1 0.327651 0.084766 0.886731
Si Si2 0.675314 0.327727 0.000000
Si Si3 0.825132 0.586533 0.500000
Si Si4 0.821120 0.829281 0.619956
Si Si5 0.175419 0.415771 0.265865
O O1 0.500000 0.104593 0.904693
O O2 0.293560 0.104524 0.810490
O O3 0.297382 0.000000 0.899647
O O4 0.217634 0.129593 0.933426
O O5 0.750000 0.250000 0.000000
O O6 0.500000 0.314824 0.000000
O O7 0.808206 0.500000 0.500000
O O8 0.744080 0.616765 0.564941
O O9 0.000000 0.610636 0.500000
O O10 0.750000 0.750000 0.610370
O O11 0.779715 0.862165 0.691570
O O12 0.000000 0.822956 0.612575
O O13 0.218898 0.500000 0.279819
O O14 0.000000 0.402973 0.284155
#
# Coordination Sequence:
#
# PCOD8274796 Si02
#       5
#    16   8   8  16  16
#     4   9  19  38  63  87 114 150 190 234 286 345
#     4  12  25  38  55  81 115 153 193 240 291 344
#     4  11  24  43  66  89 117 153 192 237 288 343
#     4  12  25  40  60  87 121 157 194 238 287 340
#     4   9  19  38  63  89 117 151 191 234 284 343
#
# _framework density 19.678781000000001
#
# number of rings (size 3 to 8) (size 9 to 14) (size 15 to 20)
#    0.000    1.625    0.000    6.750    0.000    8.500 
#    0.000    2.500    0.000    0.000    0.000    0.000 
#    0.000    0.000    0.000    0.000    0.000    0.000 
#
# Total GULP energy -396946.039133 kJ/mol
# GULP energy per Si atom -12404.563723 kJ/mol
# Density = 1.963399 g / cm^3
# Si number density = 19.678781 Si / 1000 Ang^3
#
#
#
# Elastic Constant Matrix: (Units=GPa)
#
#
# Indices 1 2 3 4 5 6 
#
# 1 160.5826 69.6661 65.8363 0.0000 0.0000 0.0000
# 2 69.6661 91.9627 57.8400 0.0000 0.0000 0.0000
# 3 65.8363 57.8400 113.6489 0.0000 0.0000 0.0000
# 4 0.0000 0.0000 0.0000 -0.4315 0.0000 0.0000
# 5 0.0000 0.0000 0.0000 0.0000 2.5301 0.0000
# 6 0.0000 0.0000 0.0000 0.0000 0.0000 35.3360
#
#
#
# Elastic Compliance Matrix: (Units=1/GPa)
#
#
# Indices 1 2 3 4 5 6 
#
# 1 0.009849 -0.005696 -0.002807 0.000000 0.000000 0.000000
# 2 -0.005696 0.019287 -0.006516 0.000000 0.000000 0.000000
# 3 -0.002807 -0.006516 0.013741 0.000000 0.000000 0.000000
# 4 0.000000 0.000000 0.000000 -2.317442 0.000000 0.000000
# 5 0.000000 0.000000 0.000000 0.000000 0.395243 0.000000
# 6 0.000000 0.000000 0.000000 0.000000 0.000000 0.028300
#
#
# Mechanical properties :
#
#
# Convention : Reuss Voigt Hill
#
# Bulk Modulus (GPa) = 77.88269 83.65323 80.76796
# Shear Modulus (GPa) = -2.75224 19.01035 8.12906
#
# Velocity S-wave (km/s) = -1.18390 3.11148 2.03466
# Velocity P-wave (km/s) = 6.14769 7.45051 6.83023
#
# Compressibility (1/GPa) = 0.01283982
#
# Stress axis : x y z
#
# Youngs Moduli (GPa) = 101.53220 51.84736 72.77277
#
# Poissons Ratio (x) = 0.29532 0.20425
# Poissons Ratio (y) = 0.57831 0.47422
# Poissons Ratio (z) = 0.28497 0.33786
#
# Static dielectric constant tensor:
#      x y z
#    x 3.582150 0.000000 0.000000 
#    y 0.000000 3.639020 0.000000 
#    z 0.000000 0.000000 3.732980 
# 
# 
# High freq. dielectric constant tensor:
#      x y z
#    x 1.766330 0.000000 0.000000 
#    y 0.000000 1.771930 0.000000 
#    z 0.000000 0.000000 1.783220 
# 
# From -- ./inp_files/58836.got.cif
#   From: 2010.03.12/outbox.cif.g09.slc.cpg/sg65_30_cif.got.tgz:58836.got - 2010.04.10 20:52:16.
