data_PCOD8274236
_publ_section_title
;
Structure prediction by ZEFSAII (Michael W. Deem and Ramdas Pophale) SiO2 
 PCOD8274236
Probable space group: C M M M
;
_chemical_formula_sum "Si O2"
_cell_formula_units_Z 88
_cell_length_a 19.151927
_cell_length_b 28.917633
_cell_length_c 7.937194
_cell_angle_alpha 90.000000
_cell_angle_beta 90.000000
_cell_angle_gamma 90.000000
_cell_volume 4395.843424
_symmetry_space_group_name_H-M "C M M M"
_symmetry_group_IT_number 65
_symmetry_cell_setting 'orthorhombic'
loop_
_space_group_symop_operation_xyz
x,y,z
-x,-y,z
x,-y,-z
-x,y,-z
-x,-y,-z
x,y,-z
-x,y,z
x,-y,z
1/2+x,1/2+y,z
1/2-x,1/2-y,z
1/2+x,1/2-y,-z
1/2-x,1/2+y,-z
1/2-x,1/2-y,-z
1/2+x,1/2+y,-z
1/2-x,1/2+y,z
1/2+x,1/2-y,z
loop_
_atom_site_type_symbol
_atom_site_label
_atom_site_fract_x
_atom_site_fract_y
_atom_site_fract_z
Si Si1 0.820015 0.917310 0.808206
Si Si2 0.655828 0.781795 0.693244
Si Si3 0.581527 0.927726 0.000000
Si Si4 0.175825 0.551778 0.685900
Si Si5 0.419672 0.500000 0.799754
Si Si6 0.421643 0.178798 0.000000
Si Si7 0.306072 0.679941 0.691028
O O1 0.744793 0.918136 0.718089
O O2 0.878259 0.953477 0.735515
O O3 0.840915 0.862883 0.794027
O O4 0.808194 0.931596 0.000000
O O5 0.638437 0.795459 0.500000
O O6 0.602122 0.801309 0.823660
O O7 0.649570 0.726492 0.713523
O O8 0.728938 0.804666 0.748269
O O9 0.616432 0.945967 0.171456
O O10 0.500000 0.941890 0.000000
O O11 0.595593 0.874305 0.000000
O O12 0.145190 0.565503 0.500000
O O13 0.204393 0.500000 0.683012
O O14 0.500000 0.500000 0.728692
O O15 0.423878 0.500000 0.000000
O O16 0.500000 0.191934 0.000000
O O17 0.305610 0.663081 0.500000
#
# Coordination Sequence:
#
# PCOD8274236 Si02
#       7
#    16  16   8  16   8   8  16
#     4  11  20  33  60  91 119 157 201 249 300 355
#     4   9  20  38  58  85 118 150 189 246 298 348
#     4  11  25  42  60  88 123 157 201 250 298 362
#     4  11  23  39  62  89 121 160 203 250 298 348
#     4   9  20  38  57  83 123 163 199 244 301 362
#     4  11  24  38  57  83 111 155 200 230 285 359
#     4   9  19  35  58  87 116 147 190 243 303 352
#
# _framework density 20.018910000000002
#
# number of rings (size 3 to 8) (size 9 to 14) (size 15 to 20)
#    0.000    1.909    1.818    3.000    2.545    4.364 
#    0.000    3.636    0.000    5.455    0.000    0.000 
#    0.000    0.000    0.000    0.000    0.000    0.000 
#
# Total GULP energy -545122.440289 kJ/mol
# GULP energy per Si atom -12389.146370 kJ/mol
# Density = 1.997335 g / cm^3
# Si number density = 20.018910 Si / 1000 Ang^3
#
#
#
# Elastic Constant Matrix: (Units=GPa)
#
#
# Indices 1 2 3 4 5 6 
#
# 1 87.4215 30.7932 38.5781 0.0000 0.0000 0.0000
# 2 30.7932 133.5350 28.8968 0.0000 0.0000 0.0000
# 3 38.5781 28.8968 110.2814 0.0000 0.0000 0.0000
# 4 0.0000 0.0000 0.0000 31.0089 0.0000 0.0000
# 5 0.0000 0.0000 0.0000 0.0000 48.1837 0.0000
# 6 0.0000 0.0000 0.0000 0.0000 0.0000 24.9882
#
#
#
# Elastic Compliance Matrix: (Units=1/GPa)
#
#
# Indices 1 2 3 4 5 6 
#
# 1 0.014178 -0.002328 -0.004350 0.000000 0.000000 0.000000
# 2 -0.002328 0.008321 -0.001366 0.000000 0.000000 0.000000
# 3 -0.004350 -0.001366 0.010947 0.000000 0.000000 0.000000
# 4 0.000000 0.000000 0.000000 0.032249 0.000000 0.000000
# 5 0.000000 0.000000 0.000000 0.000000 0.020754 0.000000
# 6 0.000000 0.000000 0.000000 0.000000 0.000000 0.040019
#
#
# Mechanical properties :
#
#
# Convention : Reuss Voigt Hill
#
# Bulk Modulus (GPa) = 57.60721 58.64158 58.12440
# Shear Modulus (GPa) = 33.70578 36.36749 35.03663
#
# Velocity S-wave (km/s) = 4.10774 4.26685 4.18805
# Velocity P-wave (km/s) = 7.16498 7.32334 7.24459
#
# Compressibility (1/GPa) = 0.01735894
#
# Stress axis : x y z
#
# Youngs Moduli (GPa) = 70.52967 120.17570 91.34727
#
# Poissons Ratio (x) = 0.27980 0.39734
# Poissons Ratio (y) = 0.16421 0.12477
# Poissons Ratio (z) = 0.30679 0.16415
#
# Static dielectric constant tensor:
#      x y z
#    x 3.429510 0.000000 0.000000 
#    y 0.000000 3.845750 0.000000 
#    z 0.000000 0.000000 3.701070 
# 
# 
# High freq. dielectric constant tensor:
#      x y z
#    x 1.743680 0.000000 0.000000 
#    y 0.000000 1.799710 0.000000 
#    z 0.000000 0.000000 1.784450 
# 
# From -- ./inp_files/10181.got.cif
#   From: 2010.03.12/outbox.cif.g09.slc.cpg/sg65_6_cif.got.tgz:10181.got - 2010.04.10 20:52:16.
