data_PCOD8274863
_publ_section_title
;
Structure prediction by ZEFSAII (Michael W. Deem and Ramdas Pophale) SiO2 
 PCOD8274863
Probable space group: C M M M
;
_chemical_formula_sum "Si O2"
_cell_formula_units_Z 88
_cell_length_a 30.111658
_cell_length_b 9.345001
_cell_length_c 23.211769
_cell_angle_alpha 90.000000
_cell_angle_beta 90.000000
_cell_angle_gamma 90.000000
_cell_volume 6531.640319
_symmetry_space_group_name_H-M "C M M M"
_symmetry_group_IT_number 65
_symmetry_cell_setting 'orthorhombic'
loop_
_space_group_symop_operation_xyz
x,y,z
-x,-y,z
x,-y,-z
-x,y,-z
-x,-y,-z
x,y,-z
-x,y,z
x,-y,z
1/2+x,1/2+y,z
1/2-x,1/2-y,z
1/2+x,1/2-y,-z
1/2-x,1/2+y,-z
1/2-x,1/2-y,-z
1/2+x,1/2+y,-z
1/2-x,1/2+y,z
1/2+x,1/2-y,z
loop_
_atom_site_type_symbol
_atom_site_label
_atom_site_fract_x
_atom_site_fract_y
_atom_site_fract_z
Si Si1 0.447124 0.838859 0.230782
Si Si2 0.446782 0.661114 0.123562
Si Si3 0.291817 0.838125 0.568562
Si Si4 0.050713 0.165681 0.340907
Si Si5 0.548646 0.330096 0.000000
Si Si6 0.622738 0.665344 0.433946
O O1 0.500000 0.834667 0.228909
O O2 0.427860 0.763893 0.173349
O O3 0.430371 0.755539 0.287229
O O4 0.428856 0.000000 0.233074
O O5 0.500000 0.665214 0.121098
O O6 0.430794 0.500000 0.137343
O O7 0.427609 0.713446 0.060655
O O8 0.289699 0.838688 0.500000
O O9 0.250000 0.750000 0.593599
O O10 0.336748 0.760991 0.589248
O O11 0.290678 0.000000 0.592697
O O12 0.079271 0.202887 0.397148
O O13 0.000000 0.207525 0.355327
O O14 0.054463 0.000000 0.323778
O O15 0.543408 0.500000 0.000000
O O16 0.500000 0.258259 0.000000
O O17 0.611135 0.701702 0.500000
O O18 0.636708 0.500000 0.427281
#
# Coordination Sequence:
#
# PCOD8274863 Si02
#       6
#    16  16  16  16   8  16
#     4   9  16  24  33  45  61  82 110 144 178 208
#     4   8  12  19  31  44  58  77 102 132 167 207
#     4   9  16  26  41  59  77  95 113 134 165 208
#     4   9  17  28  40  52  67  91 122 152 182 216
#     4   7  10  16  27  43  59  75  97 127 164 205
#     4   9  17  28  41  57  75  92 113 145 183 220
#
# _framework density 13.472879000000001
#
# number of rings (size 3 to 8) (size 9 to 14) (size 15 to 20)
#    0.000    3.364    0.000    2.182    0.000    5.455 
#    0.000    2.273    0.000    2.727    0.000    5.091 
#    0.000    0.000    0.000    0.000    0.000    0.000 
#
# Total GULP energy -545244.109787 kJ/mol
# GULP energy per Si atom -12391.911586 kJ/mol
# Density = 1.344221 g / cm^3
# Si number density = 13.472879 Si / 1000 Ang^3
#
#
#
# Elastic Constant Matrix: (Units=GPa)
#
#
# Indices 1 2 3 4 5 6 
#
# 1 47.4870 33.6452 35.0514 0.0000 0.0000 0.0000
# 2 33.6452 82.6871 49.7840 0.0000 0.0000 0.0000
# 3 35.0514 49.7840 94.5337 0.0000 0.0000 0.0000
# 4 0.0000 0.0000 0.0000 11.1778 0.0000 0.0000
# 5 0.0000 0.0000 0.0000 0.0000 0.7438 0.0000
# 6 0.0000 0.0000 0.0000 0.0000 0.0000 14.4682
#
#
#
# Elastic Compliance Matrix: (Units=1/GPa)
#
#
# Indices 1 2 3 4 5 6 
#
# 1 0.032888 -0.008844 -0.007536 0.000000 0.000000 0.000000
# 2 -0.008844 0.020087 -0.007299 0.000000 0.000000 0.000000
# 3 -0.007536 -0.007299 0.017217 0.000000 0.000000 0.000000
# 4 0.000000 0.000000 0.000000 0.089463 0.000000 0.000000
# 5 0.000000 0.000000 0.000000 0.000000 1.344468 0.000000
# 6 0.000000 0.000000 0.000000 0.000000 0.000000 0.069117
#
#
# Mechanical properties :
#
#
# Convention : Reuss Voigt Hill
#
# Bulk Modulus (GPa) = 43.79923 51.29656 47.54789
# Shear Modulus (GPa) = 3.07086 12.35976 7.71531
#
# Velocity S-wave (km/s) = 1.51137 3.03212 2.39562
# Velocity P-wave (km/s) = 5.96870 7.10034 6.55897
#
# Compressibility (1/GPa) = 0.02283145
#
# Stress axis : x y z
#
# Youngs Moduli (GPa) = 30.40655 49.78303 58.08366
#
# Poissons Ratio (x) = 0.44030 0.43775
# Poissons Ratio (y) = 0.26893 0.42396
# Poissons Ratio (z) = 0.22916 0.36337
#
# Static dielectric constant tensor:
#      x y z
#    x 2.282610 0.000000 0.000000 
#    y 0.000000 2.772980 0.000000 
#    z 0.000000 0.000000 2.795450 
# 
# 
# High freq. dielectric constant tensor:
#      x y z
#    x 1.450150 0.000000 0.000000 
#    y 0.000000 1.515370 0.000000 
#    z 0.000000 0.000000 1.504540 
# 
# From -- ./inp_files/72043.got.cif
#   From: 2010.03.12/outbox.cif.g09.slc.cpg/sg65_37_cif.got.tgz:72043.got - 2010.04.10 20:52:16.
