data_PCOD8274977
_publ_section_title
;
Structure prediction by ZEFSAII (Michael W. Deem and Ramdas Pophale) SiO2 
 PCOD8274977
Probable space group: C M M M
;
_chemical_formula_sum "Si O2"
_cell_formula_units_Z 112
_cell_length_a 36.041185
_cell_length_b 9.800363
_cell_length_c 21.635988
_cell_angle_alpha 90.000000
_cell_angle_beta 90.000000
_cell_angle_gamma 90.000000
_cell_volume 7642.192195
_symmetry_space_group_name_H-M "C M M M"
_symmetry_group_IT_number 65
_symmetry_cell_setting 'orthorhombic'
loop_
_space_group_symop_operation_xyz
x,y,z
-x,-y,z
x,-y,-z
-x,y,-z
-x,-y,-z
x,y,-z
-x,y,z
x,-y,z
1/2+x,1/2+y,z
1/2-x,1/2-y,z
1/2+x,1/2-y,-z
1/2-x,1/2+y,-z
1/2-x,1/2-y,-z
1/2+x,1/2+y,-z
1/2-x,1/2+y,z
1/2+x,1/2-y,z
loop_
_atom_site_type_symbol
_atom_site_label
_atom_site_fract_x
_atom_site_fract_y
_atom_site_fract_z
Si Si1 0.409976 0.342162 0.819302
Si Si2 0.214318 0.660618 0.317063
Si Si3 0.833292 0.662290 0.568552
Si Si4 0.041406 0.161901 0.931174
Si Si5 0.403528 0.848175 0.362353
Si Si6 0.457449 0.656256 0.697642
Si Si7 0.355592 0.849974 0.239456
O O1 0.398981 0.500000 0.826480
O O2 0.429523 0.282062 0.880855
O O3 0.438695 0.319832 0.763773
O O4 0.371787 0.259475 0.808936
O O5 0.224150 0.500000 0.320383
O O6 0.250000 0.750000 0.302195
O O7 0.197210 0.713785 0.382306
O O8 0.185662 0.690518 0.261386
O O9 0.823239 0.717047 0.500000
O O10 0.833749 0.500000 0.571255
O O11 0.874933 0.711135 0.586404
O O12 0.000000 0.219826 0.918151
O O13 0.039784 0.000000 0.925449
O O14 0.054421 0.205699 0.000000
O O15 0.438407 0.747372 0.355616
O O16 0.381494 0.855519 0.298793
O O17 0.417858 0.000000 0.380119
O O18 0.500000 0.700859 0.703788
O O19 0.453518 0.500000 0.676768
O O20 0.355009 0.000000 0.208194
#
# Coordination Sequence:
#
# PCOD8274977 Si02
#       7
#    16  16  16  16  16  16  16
#     4   9  15  23  38  58  76  98 133 167 187 215
#     4   9  17  28  42  60  82 105 125 148 183 227
#     4   8  14  26  43  59  75  98 126 153 183 220
#     4   8  13  21  34  54  81 110 136 163 195 226
#     4   8  14  25  40  55  70  92 124 157 186 221
#     4   9  16  24  35  53  76  98 120 154 199 234
#     4   8  15  27  39  53  76 103 126 151 189 229
#
# _framework density 14.655480000000001
#
# number of rings (size 3 to 8) (size 9 to 14) (size 15 to 20)
#    0.000    3.571    0.000    2.571    0.000    2.857 
#    0.000    2.143    0.000    3.429    0.000    4.000 
#    0.000    0.571    0.000    1.286    0.000    2.000 
#
# Total GULP energy -693958.525535 kJ/mol
# GULP energy per Si atom -12392.116527 kJ/mol
# Density = 1.462212 g / cm^3
# Si number density = 14.655480 Si / 1000 Ang^3
#
#
#
# Elastic Constant Matrix: (Units=GPa)
#
#
# Indices 1 2 3 4 5 6 
#
# 1 104.6330 52.3729 44.7165 0.0000 0.0000 0.0000
# 2 52.3729 52.2164 28.2512 0.0000 0.0000 0.0000
# 3 44.7165 28.2512 60.7951 0.0000 0.0000 0.0000
# 4 0.0000 0.0000 0.0000 11.9480 0.0000 0.0000
# 5 0.0000 0.0000 0.0000 0.0000 19.6463 0.0000
# 6 0.0000 0.0000 0.0000 0.0000 0.0000 24.6232
#
#
#
# Elastic Compliance Matrix: (Units=1/GPa)
#
#
# Indices 1 2 3 4 5 6 
#
# 1 0.021642 -0.017492 -0.007790 0.000000 0.000000 0.000000
# 2 -0.017492 0.039721 -0.005592 0.000000 0.000000 0.000000
# 3 -0.007790 -0.005592 0.024777 0.000000 0.000000 0.000000
# 4 0.000000 0.000000 0.000000 0.083696 0.000000 0.000000
# 5 0.000000 0.000000 0.000000 0.000000 0.050900 0.000000
# 6 0.000000 0.000000 0.000000 0.000000 0.000000 0.040612
#
#
# Mechanical properties :
#
#
# Convention : Reuss Voigt Hill
#
# Bulk Modulus (GPa) = 40.99742 52.03621 46.51682
# Shear Modulus (GPa) = 15.09539 17.39710 16.24624
#
# Velocity S-wave (km/s) = 3.21287 3.44913 3.33309
# Velocity P-wave (km/s) = 6.46516 7.17254 6.82802
#
# Compressibility (1/GPa) = 0.02439178
#
# Stress axis : x y z
#
# Youngs Moduli (GPa) = 46.20716 25.17544 40.36016
#
# Poissons Ratio (x) = 0.44037 0.31439
# Poissons Ratio (y) = 0.80826 0.22571
# Poissons Ratio (z) = 0.35993 0.14079
#
# Static dielectric constant tensor:
#      x y z
#    x 2.842300 0.000000 0.000000 
#    y 0.000000 2.782980 0.000000 
#    z 0.000000 0.000000 2.864830 
# 
# 
# High freq. dielectric constant tensor:
#      x y z
#    x 1.548720 0.000000 0.000000 
#    y 0.000000 1.537180 0.000000 
#    z 0.000000 0.000000 1.533800 
# 
# From -- ./inp_files/66051.got.cif
#   From: 2010.03.12/outbox.cif.g09.slc.cpg/sg65_34_cif.got.tgz:66051.got - 2010.04.10 20:52:16.
