data_PCOD8274970
_publ_section_title
;
Structure prediction by ZEFSAII (Michael W. Deem and Ramdas Pophale) SiO2 
 PCOD8274970
Probable space group: C M M M
;
_chemical_formula_sum "Si O2"
_cell_formula_units_Z 80
_cell_length_a 7.807322
_cell_length_b 29.208172
_cell_length_c 22.612426
_cell_angle_alpha 90.000000
_cell_angle_beta 90.000000
_cell_angle_gamma 90.000000
_cell_volume 5156.483442
_symmetry_space_group_name_H-M "C M M M"
_symmetry_group_IT_number 65
_symmetry_cell_setting 'orthorhombic'
loop_
_space_group_symop_operation_xyz
x,y,z
-x,-y,z
x,-y,-z
-x,y,-z
-x,-y,-z
x,y,-z
-x,y,z
x,-y,z
1/2+x,1/2+y,z
1/2-x,1/2-y,z
1/2+x,1/2-y,-z
1/2-x,1/2+y,-z
1/2-x,1/2-y,-z
1/2+x,1/2+y,-z
1/2-x,1/2+y,z
1/2+x,1/2-y,z
loop_
_atom_site_type_symbol
_atom_site_label
_atom_site_fract_x
_atom_site_fract_y
_atom_site_fract_z
Si Si1 0.000000 0.554651 0.566756
Si Si2 0.309179 0.445481 0.354094
Si Si3 0.201195 0.201218 0.066248
Si Si4 0.797145 0.050966 0.777101
Si Si5 0.295785 0.606964 0.113099
Si Si6 0.296109 0.551454 0.000000
O O1 0.829274 0.573547 0.599145
O O2 0.000000 0.500000 0.567845
O O3 0.000000 0.573455 0.500000
O O4 0.500000 0.426477 0.369606
O O5 0.315274 0.500000 0.355511
O O6 0.250730 0.430168 0.288245
O O7 0.250000 0.250000 0.095768
O O8 0.272712 0.159167 0.105723
O O9 0.000000 0.196018 0.061659
O O10 0.280849 0.198550 0.000000
O O11 0.720799 0.085504 0.826265
O O12 0.000000 0.047711 0.783160
O O13 0.719688 0.000000 0.786943
O O14 0.500000 0.605959 0.114644
O O15 0.227291 0.577274 0.058055
O O16 0.223139 0.500000 0.000000
O O17 0.500000 0.551112 0.000000
#
# Coordination Sequence:
#
# PCOD8274970 Si02
#       6
#     8  16  16  16  16   8
#     4   9  16  24  36  54  74  99 133 169 199 224
#     4   8  14  24  36  51  73 100 130 163 195 230
#     4   9  16  26  39  53  70  92 119 155 195 234
#     4   8  13  21  34  51  71  97 126 157 193 234
#     4   9  14  21  33  51  72  94 123 157 195 239
#     4   9  14  18  27  48  77  97 113 153 204 237
#
# _framework density 15.514449000000001
#
# number of rings (size 3 to 8) (size 9 to 14) (size 15 to 20)
#    0.000    3.400    1.000    1.800    0.000    2.800 
#    0.000    2.000    2.200    0.000    0.000    0.000 
#    0.000    0.800    0.000    0.000    0.000    1.000 
#
# Total GULP energy -495631.724934 kJ/mol
# GULP energy per Si atom -12390.793123 kJ/mol
# Density = 1.547914 g / cm^3
# Si number density = 15.514449 Si / 1000 Ang^3
#
#
#
# Elastic Constant Matrix: (Units=GPa)
#
#
# Indices 1 2 3 4 5 6 
#
# 1 42.0987 14.4362 38.9764 0.0000 0.0000 0.0000
# 2 14.4362 94.9674 50.5483 0.0000 0.0000 0.0000
# 3 38.9764 50.5483 133.0847 0.0000 0.0000 0.0000
# 4 0.0000 0.0000 0.0000 5.0344 0.0000 0.0000
# 5 0.0000 0.0000 0.0000 0.0000 7.9535 0.0000
# 6 0.0000 0.0000 0.0000 0.0000 0.0000 9.5521
#
#
#
# Elastic Compliance Matrix: (Units=1/GPa)
#
#
# Indices 1 2 3 4 5 6 
#
# 1 0.032593 0.000158 -0.009605 0.000000 0.000000 0.000000
# 2 0.000158 0.013199 -0.005060 0.000000 0.000000 0.000000
# 3 -0.009605 -0.005060 0.012249 0.000000 0.000000 0.000000
# 4 0.000000 0.000000 0.000000 0.198632 0.000000 0.000000
# 5 0.000000 0.000000 0.000000 0.000000 0.125732 0.000000
# 6 0.000000 0.000000 0.000000 0.000000 0.000000 0.104689
#
#
# Mechanical properties :
#
#
# Convention : Reuss Voigt Hill
#
# Bulk Modulus (GPa) = 34.45095 53.11917 43.78506
# Shear Modulus (GPa) = 9.50963 15.58732 12.54848
#
# Velocity S-wave (km/s) = 2.47848 3.17313 2.84707
# Velocity P-wave (km/s) = 5.51764 6.90926 6.25229
#
# Compressibility (1/GPa) = 0.02902678
#
# Stress axis : x y z
#
# Youngs Moduli (GPa) = 30.68190 75.76374 81.64015
#
# Poissons Ratio (x) = -0.01199 0.78419
# Poissons Ratio (y) = -0.00486 0.41306
# Poissons Ratio (z) = 0.29471 0.38333
#
# Static dielectric constant tensor:
#      x y z
#    x 2.780250 0.000000 0.000000 
#    y 0.000000 2.927800 0.000000 
#    z 0.000000 0.000000 3.104350 
# 
# 
# High freq. dielectric constant tensor:
#      x y z
#    x 1.576800 0.000000 0.000000 
#    y 0.000000 1.547740 0.000000 
#    z 0.000000 0.000000 1.577080 
# 
# From -- ./inp_files/60572.got.cif
#   From: 2010.03.12/outbox.cif.g09.slc.cpg/sg65_31_cif.got.tgz:60572.got - 2010.04.10 20:52:16.
