data_PCOD8274840
_publ_section_title
;
Structure prediction by ZEFSAII (Michael W. Deem and Ramdas Pophale) SiO2 
 PCOD8274840
Probable space group: C M M M
;
_chemical_formula_sum "Si O2"
_cell_formula_units_Z 72
_cell_length_a 7.881855
_cell_length_b 18.965624
_cell_length_c 26.814744
_cell_angle_alpha 90.000000
_cell_angle_beta 90.000000
_cell_angle_gamma 90.000000
_cell_volume 4008.383192
_symmetry_space_group_name_H-M "C M M M"
_symmetry_group_IT_number 65
_symmetry_cell_setting 'orthorhombic'
loop_
_space_group_symop_operation_xyz
x,y,z
-x,-y,z
x,-y,-z
-x,y,-z
-x,-y,-z
x,y,-z
-x,y,z
x,-y,z
1/2+x,1/2+y,z
1/2-x,1/2-y,z
1/2+x,1/2-y,-z
1/2-x,1/2+y,-z
1/2-x,1/2-y,-z
1/2+x,1/2+y,-z
1/2-x,1/2+y,z
1/2+x,1/2-y,z
loop_
_atom_site_type_symbol
_atom_site_label
_atom_site_fract_x
_atom_site_fract_y
_atom_site_fract_z
Si Si1 0.803212 0.330242 0.000000
Si Si2 0.500000 0.915805 0.733303
Si Si3 0.809876 0.916217 0.201215
Si Si4 0.500000 0.915775 0.620520
Si Si5 0.697773 0.576989 0.908621
Si Si6 0.811677 0.083820 0.443908
O O1 0.750000 0.250000 0.000000
O O2 0.735528 0.366274 0.049582
O O3 0.000000 0.338236 0.000000
O O4 0.329104 0.886447 0.759880
O O5 0.500000 0.887436 0.676893
O O6 0.500000 0.000000 0.735169
O O7 0.743822 0.894865 0.145731
O O8 0.000000 0.885806 0.212723
O O9 0.818576 0.000000 0.204429
O O10 0.668107 0.885773 0.593046
O O11 0.500000 0.000000 0.619480
O O12 0.500000 0.565048 0.905167
O O13 0.781202 0.500000 0.920970
O O14 0.774447 0.110847 0.500000
O O15 0.000000 0.108971 0.426685
O O16 0.804937 0.000000 0.443376
#
# Coordination Sequence:
#
# PCOD8274840 Si02
#       6
#     8   8  16   8  16  16
#     4  12  25  36  49  71  99 125 147 182 229 276
#     4   9  16  23  34  52  76  97 124 169 211 259
#     4   8  15  27  42  59  79 104 132 167 209 253
#     4   9  15  20  27  42  61  86 113 153 213 257
#     4   9  18  34  54  72  92 119 150 184 222 272
#     4   8  13  20  28  37  52  79 118 160 200 250
#
# _framework density 17.962354999999999
#
# number of rings (size 3 to 8) (size 9 to 14) (size 15 to 20)
#    0.000    3.111    0.000    3.667    1.556    4.000 
#    0.000    4.444    0.000    0.000    0.000    0.000 
#    0.000    0.000    0.000    0.000    0.000    0.000 
#
# Total GULP energy -446054.890861 kJ/mol
# GULP energy per Si atom -12390.413635 kJ/mol
# Density = 1.792147 g / cm^3
# Si number density = 17.962355 Si / 1000 Ang^3
#
#
#
# Elastic Constant Matrix: (Units=GPa)
#
#
# Indices 1 2 3 4 5 6 
#
# 1 116.5069 11.8152 88.1043 0.0000 0.0000 0.0000
# 2 11.8152 31.4344 28.4518 0.0000 0.0000 0.0000
# 3 88.1043 28.4518 165.9008 0.0000 0.0000 0.0000
# 4 0.0000 0.0000 0.0000 -0.6983 0.0000 0.0000
# 5 0.0000 0.0000 0.0000 0.0000 31.0977 0.0000
# 6 0.0000 0.0000 0.0000 0.0000 0.0000 9.2419
#
#
#
# Elastic Compliance Matrix: (Units=1/GPa)
#
#
# Indices 1 2 3 4 5 6 
#
# 1 0.014428 0.001790 -0.007969 0.000000 0.000000 0.000000
# 2 0.001790 0.037880 -0.007447 0.000000 0.000000 0.000000
# 3 -0.007969 -0.007447 0.011537 0.000000 0.000000 0.000000
# 4 0.000000 0.000000 0.000000 -1.432035 0.000000 0.000000
# 5 0.000000 0.000000 0.000000 0.000000 0.032157 0.000000
# 6 0.000000 0.000000 0.000000 0.000000 0.000000 0.108203
#
#
# Mechanical properties :
#
#
# Convention : Reuss Voigt Hill
#
# Bulk Modulus (GPa) = 27.32789 63.39830 45.36310
# Shear Modulus (GPa) = -4.20741 20.29297 8.04278
#
# Velocity S-wave (km/s) = -1.53213 3.36482 2.11832
# Velocity P-wave (km/s) = 3.48096 7.10407 5.59396
#
# Compressibility (1/GPa) = 0.03659265
#
# Stress axis : x y z
#
# Youngs Moduli (GPa) = 69.30900 26.39921 86.67713
#
# Poissons Ratio (x) = -0.04726 0.69075
# Poissons Ratio (y) = -0.12407 0.64549
# Poissons Ratio (z) = 0.55234 0.19660
#
# Static dielectric constant tensor:
#      x y z
#    x 3.704270 0.000000 0.000000 
#    y 0.000000 2.538800 0.000000 
#    z 0.000000 0.000000 3.496780 
# 
# 
# High freq. dielectric constant tensor:
#      x y z
#    x 1.710640 0.000000 0.000000 
#    y 0.000000 1.603830 0.000000 
#    z 0.000000 0.000000 1.700700 
# 
# From -- ./inp_files/67145.got.cif
#   From: 2010.03.12/outbox.cif.g09.slc.cpg/sg65_34_cif.got.tgz:67145.got - 2010.04.10 20:52:16.
