data_PCOD8274515
_publ_section_title
;
Structure prediction by ZEFSAII (Michael W. Deem and Ramdas Pophale) SiO2 
 PCOD8274515
Probable space group: C M M M
;
_chemical_formula_sum "Si O2"
_cell_formula_units_Z 72
_cell_length_a 18.037840
_cell_length_b 9.381171
_cell_length_c 23.364163
_cell_angle_alpha 90.000000
_cell_angle_beta 90.000000
_cell_angle_gamma 90.000000
_cell_volume 3953.591643
_symmetry_space_group_name_H-M "C M M M"
_symmetry_group_IT_number 65
_symmetry_cell_setting 'orthorhombic'
loop_
_space_group_symop_operation_xyz
x,y,z
-x,-y,z
x,-y,-z
-x,y,-z
-x,-y,-z
x,y,-z
-x,y,z
x,-y,z
1/2+x,1/2+y,z
1/2-x,1/2-y,z
1/2+x,1/2-y,-z
1/2-x,1/2+y,-z
1/2-x,1/2-y,-z
1/2+x,1/2+y,-z
1/2-x,1/2+y,z
1/2+x,1/2-y,z
loop_
_atom_site_type_symbol
_atom_site_label
_atom_site_fract_x
_atom_site_fract_y
_atom_site_fract_z
Si Si1 0.417565 0.668279 0.000000
Si Si2 0.912024 0.657009 0.334700
Si Si3 0.911882 0.159419 0.437459
Si Si4 0.672761 0.670560 0.888974
Si Si5 0.586782 0.165661 0.793484
O O1 0.374672 0.719333 0.943720
O O2 0.423936 0.500000 0.000000
O O3 0.500000 0.736312 0.000000
O O4 0.878996 0.500000 0.343560
O O5 0.876422 0.752886 0.384898
O O6 0.891481 0.711454 0.271211
O O7 0.000000 0.652427 0.340352
O O8 0.889379 0.223184 0.500000
O O9 0.000000 0.158847 0.432090
O O10 0.880897 0.000000 0.432340
O O11 0.683439 0.500000 0.885455
O O12 0.750000 0.750000 0.894678
O O13 0.631464 0.726296 0.832933
O O14 0.500000 0.188067 0.804664
O O15 0.608048 0.000000 0.804667
#
# Coordination Sequence:
#
# PCOD8274515 Si02
#       5
#     8  16  16  16  16
#     4   9  19  36  57  81 106 131 164 205 244 288
#     4   8  14  24  38  57  83 117 155 196 242 290
#     4   8  13  20  30  48  78 115 153 194 239 286
#     4  11  22  36  55  77 104 136 168 204 247 294
#     4   9  18  33  51  72 100 131 166 210 255 299
#
# _framework density 18.211288
#
# number of rings (size 3 to 8) (size 9 to 14) (size 15 to 20)
#    0.000    3.000    0.000    3.667    0.000    2.667 
#    0.000    6.111    0.000    4.000    0.000    0.000 
#    0.000    0.889    0.000    2.889    0.000    6.444 
#
# Total GULP energy -446134.523729 kJ/mol
# GULP energy per Si atom -12392.625659 kJ/mol
# Density = 1.816984 g / cm^3
# Si number density = 18.211288 Si / 1000 Ang^3
#
#
#
# Elastic Constant Matrix: (Units=GPa)
#
#
# Indices 1 2 3 4 5 6 
#
# 1 66.7994 41.6923 55.3176 0.0000 0.0000 0.0000
# 2 41.6923 85.5106 76.2625 0.0000 0.0000 0.0000
# 3 55.3176 76.2625 180.2748 0.0000 0.0000 0.0000
# 4 0.0000 0.0000 0.0000 31.7885 0.0000 0.0000
# 5 0.0000 0.0000 0.0000 0.0000 -1.0250 0.0000
# 6 0.0000 0.0000 0.0000 0.0000 0.0000 13.5714
#
#
#
# Elastic Compliance Matrix: (Units=1/GPa)
#
#
# Indices 1 2 3 4 5 6 
#
# 1 0.022966 -0.007889 -0.003710 0.000000 0.000000 0.000000
# 2 -0.007889 0.021490 -0.006670 0.000000 0.000000 0.000000
# 3 -0.003710 -0.006670 0.009507 0.000000 0.000000 0.000000
# 4 0.000000 0.000000 0.000000 0.031458 0.000000 0.000000
# 5 0.000000 0.000000 0.000000 0.000000 -0.975616 0.000000
# 6 0.000000 0.000000 0.000000 0.000000 0.000000 0.073685
#
#
# Mechanical properties :
#
#
# Convention : Reuss Voigt Hill
#
# Bulk Modulus (GPa) = 57.38866 75.45885 66.42375
# Shear Modulus (GPa) = -6.45858 19.48781 6.51461
#
# Velocity S-wave (km/s) = -1.88525 3.27478 1.89341
# Velocity P-wave (km/s) = 5.18095 7.47155 6.42908
#
# Compressibility (1/GPa) = 0.01742505
#
# Stress axis : x y z
#
# Youngs Moduli (GPa) = 43.54214 46.53419 105.18377
#
# Poissons Ratio (x) = 0.36711 0.39022
# Poissons Ratio (y) = 0.34350 0.70159
# Poissons Ratio (z) = 0.16154 0.31039
#
# Static dielectric constant tensor:
#      x y z
#    x 2.956750 0.000000 0.000000 
#    y 0.000000 3.439590 0.000000 
#    z 0.000000 0.000000 3.731750 
# 
# 
# High freq. dielectric constant tensor:
#      x y z
#    x 1.656210 0.000000 0.000000 
#    y 0.000000 1.694970 0.000000 
#    z 0.000000 0.000000 1.726690 
# 
# From -- ./inp_files/59507.got.cif
#   From: 2010.03.12/outbox.cif.g09.slc.cpg/sg65_30_cif.got.tgz:59507.got - 2010.04.10 20:52:16.
