data_PCOD8274718
_publ_section_title
;
Structure prediction by ZEFSAII (Michael W. Deem and Ramdas Pophale) SiO2 
 PCOD8274718
Probable space group: C M M M
;
_chemical_formula_sum "Si O2"
_cell_formula_units_Z 72
_cell_length_a 9.579180
_cell_length_b 15.155656
_cell_length_c 25.468486
_cell_angle_alpha 90.000000
_cell_angle_beta 90.000000
_cell_angle_gamma 90.000000
_cell_volume 3697.483136
_symmetry_space_group_name_H-M "C M M M"
_symmetry_group_IT_number 65
_symmetry_cell_setting 'orthorhombic'
loop_
_space_group_symop_operation_xyz
x,y,z
-x,-y,z
x,-y,-z
-x,y,-z
-x,-y,-z
x,y,-z
-x,y,z
x,-y,z
1/2+x,1/2+y,z
1/2-x,1/2-y,z
1/2+x,1/2-y,-z
1/2-x,1/2+y,-z
1/2-x,1/2-y,-z
1/2+x,1/2+y,-z
1/2-x,1/2+y,z
1/2+x,1/2-y,z
loop_
_atom_site_type_symbol
_atom_site_label
_atom_site_fract_x
_atom_site_fract_y
_atom_site_fract_z
Si Si1 0.730808 0.596798 0.124885
Si Si2 0.000000 0.382314 0.058913
Si Si3 0.666685 0.655284 0.500000
Si Si4 0.500000 0.322412 0.056940
Si Si5 0.834584 0.000000 0.423077
Si Si6 0.831734 0.834830 0.763564
Si Si7 0.835915 0.000000 0.693746
O O1 0.665387 0.500000 0.135171
O O2 0.874293 0.585337 0.094774
O O3 0.637368 0.653396 0.086999
O O4 0.738065 0.646463 0.180140
O O5 0.000000 0.280235 0.049953
O O6 0.000000 0.425511 0.000000
O O7 0.500000 0.675923 0.500000
O O8 0.750000 0.750000 0.500000
O O9 0.711154 0.592392 0.450812
O O10 0.500000 0.369049 0.000000
O O11 0.769314 0.000000 0.364532
O O12 0.000000 0.000000 0.423188
O O13 0.750000 0.750000 0.741070
O O14 0.000000 0.821669 0.767647
O O15 0.788711 0.913344 0.724817
O O16 0.000000 0.000000 0.687795
#
# Coordination Sequence:
#
# PCOD8274718 Si02
#       7
#    16   8   8   8   8  16   8
#     4  12  24  39  59  83 110 141 184 228 281 346
#     4  11  25  43  59  83 113 143 177 224 289 354
#     4   9  17  31  56  90 124 167 211 245 292 344
#     4  11  23  39  61  83 109 141 179 226 277 342
#     4   8  16  33  56  84 122 165 209 246 285 349
#     4  11  23  40  61  86 113 147 193 241 293 349
#     4   9  19  38  62  86 117 159 203 248 291 339
#
# _framework density 19.472705999999999
#
# number of rings (size 3 to 8) (size 9 to 14) (size 15 to 20)
#    0.000    1.556    2.222    4.000    1.556    5.333 
#    0.000    1.667    0.000    1.333    0.000    0.000 
#    0.000    0.000    0.000    0.000    0.000    0.000 
#
# Total GULP energy -446097.972173 kJ/mol
# GULP energy per Si atom -12391.610338 kJ/mol
# Density = 1.942838 g / cm^3
# Si number density = 19.472706 Si / 1000 Ang^3
#
#
#
# Elastic Constant Matrix: (Units=GPa)
#
#
# Indices 1 2 3 4 5 6 
#
# 1 74.3230 40.1725 43.1968 0.0000 0.0000 0.0000
# 2 40.1725 162.1360 66.8547 0.0000 0.0000 0.0000
# 3 43.1968 66.8547 163.8384 0.0000 0.0000 0.0000
# 4 0.0000 0.0000 0.0000 -8.4979 0.0000 0.0000
# 5 0.0000 0.0000 0.0000 0.0000 18.8157 0.0000
# 6 0.0000 0.0000 0.0000 0.0000 0.0000 120.4968
#
#
#
# Elastic Compliance Matrix: (Units=1/GPa)
#
#
# Indices 1 2 3 4 5 6 
#
# 1 0.016902 -0.002826 -0.003303 0.000000 0.000000 0.000000
# 2 -0.002826 0.007888 -0.002474 0.000000 0.000000 0.000000
# 3 -0.003303 -0.002474 0.007984 0.000000 0.000000 0.000000
# 4 0.000000 0.000000 0.000000 -0.117676 0.000000 0.000000
# 5 0.000000 0.000000 0.000000 0.000000 0.053147 0.000000
# 6 0.000000 0.000000 0.000000 0.000000 0.000000 0.008299
#
#
# Mechanical properties :
#
#
# Convention : Reuss Voigt Hill
#
# Bulk Modulus (GPa) = 64.23264 77.86060 71.04662
# Shear Modulus (GPa) = -4710.53369 42.83447 -2333.84961
#
# Velocity S-wave (km/s) = -49.23714 4.69520 -34.65726
# Velocity P-wave (km/s) = 56.56268 8.33454 39.55927
#
# Compressibility (1/GPa) = 0.01556841
#
# Stress axis : x y z
#
# Youngs Moduli (GPa) = 59.16459 126.77870 125.25288
#
# Poissons Ratio (x) = 0.35825 0.41374
# Poissons Ratio (y) = 0.16719 0.30982
# Poissons Ratio (z) = 0.19543 0.31360
#
# Static dielectric constant tensor:
#      x y z
#    x 3.184800 0.000000 0.000000 
#    y 0.000000 3.792770 0.000000 
#    z 0.000000 0.000000 3.932240 
# 
# 
# High freq. dielectric constant tensor:
#      x y z
#    x 1.732850 0.000000 0.000000 
#    y 0.000000 1.780750 0.000000 
#    z 0.000000 0.000000 1.758780 
# 
# From -- ./inp_files/72678.got.cif
#   From: 2010.03.12/outbox.cif.g09.slc.cpg/sg65_37_cif.got.tgz:72678.got - 2010.04.10 20:52:16.
