data_PCOD8274310
_publ_section_title
;
Structure prediction by ZEFSAII (Michael W. Deem and Ramdas Pophale) SiO2 
 PCOD8274310
Probable space group: C M M M
;
_chemical_formula_sum "Si O2"
_cell_formula_units_Z 120
_cell_length_a 26.296282
_cell_length_b 27.700021
_cell_length_c 9.116617
_cell_angle_alpha 90.000000
_cell_angle_beta 90.000000
_cell_angle_gamma 90.000000
_cell_volume 6640.612777
_symmetry_space_group_name_H-M "C M M M"
_symmetry_group_IT_number 65
_symmetry_cell_setting 'orthorhombic'
loop_
_space_group_symop_operation_xyz
x,y,z
-x,-y,z
x,-y,-z
-x,y,-z
-x,-y,-z
x,y,-z
-x,y,z
x,-y,z
1/2+x,1/2+y,z
1/2-x,1/2-y,z
1/2+x,1/2-y,-z
1/2-x,1/2+y,-z
1/2-x,1/2-y,-z
1/2+x,1/2+y,-z
1/2-x,1/2+y,z
1/2+x,1/2-y,z
loop_
_atom_site_type_symbol
_atom_site_label
_atom_site_fract_x
_atom_site_fract_y
_atom_site_fract_z
Si Si1 0.234953 0.196586 0.670729
Si Si2 0.558683 0.314382 0.330126
Si Si3 0.197466 0.393083 0.667671
Si Si4 0.500000 0.054574 0.825424
Si Si5 0.403277 0.885372 0.826762
Si Si6 0.700293 0.444620 0.670030
Si Si7 0.559028 0.204063 0.667518
Si Si8 0.851442 0.860069 0.173662
O O1 0.219475 0.195365 0.500000
O O2 0.250000 0.250000 0.722213
O O3 0.282135 0.160897 0.700919
O O4 0.186227 0.180345 0.762653
O O5 0.571031 0.324573 0.500000
O O6 0.500000 0.325470 0.296628
O O7 0.571695 0.259000 0.291362
O O8 0.591656 0.348825 0.226957
O O9 0.179874 0.397465 0.500000
O O10 0.149755 0.406561 0.768710
O O11 0.241370 0.431496 0.705150
O O12 0.550294 0.081869 0.766834
O O13 0.500000 0.000000 0.763792
O O14 0.500000 0.054383 0.000000
O O15 0.408520 0.830597 0.771126
O O16 0.402279 0.885277 0.000000
O O17 0.688899 0.433131 0.500000
O O18 0.690545 0.500000 0.709384
O O19 0.662746 0.413166 0.768987
O O20 0.574423 0.193602 0.500000
O O21 0.500000 0.193408 0.693089
O O22 0.848746 0.859415 0.000000
#
# Coordination Sequence:
#
# PCOD8274310 Si02
#       8
#    16  16  16   8  16  16  16  16
#     4   9  19  36  55  74 103 148 192 225 263 319
#     4   9  19  36  57  80 108 149 194 225 256 313
#     4   9  19  34  52  78 106 134 174 226 274 316
#     4   9  20  38  53  67  95 139 183 219 266 329
#     4  11  21  33  51  74 103 138 176 223 273 330
#     4   9  19  39  64  83 103 139 186 229 269 323
#     4   9  18  33  53  74  99 136 180 224 265 308
#     4  11  22  34  53  85 120 147 174 221 279 330
#
# _framework density 18.070620999999999
#
# number of rings (size 3 to 8) (size 9 to 14) (size 15 to 20)
#    0.000    2.467    0.667    3.200    1.867    4.000 
#    0.000    1.333    0.000    3.200    0.000    2.800 
#    0.000    0.000    0.000    0.000    0.000    0.000 
#
# Total GULP energy -744118.138222 kJ/mol
# GULP energy per Si atom -12401.968970 kJ/mol
# Density = 1.802949 g / cm^3
# Si number density = 18.070621 Si / 1000 Ang^3
#
#
#
# Elastic Constant Matrix: (Units=GPa)
#
#
# Indices 1 2 3 4 5 6 
#
# 1 103.3005 53.4545 57.4712 0.0000 0.0000 0.0000
# 2 53.4545 109.5892 49.8969 0.0000 0.0000 0.0000
# 3 57.4712 49.8969 87.8367 0.0000 0.0000 0.0000
# 4 0.0000 0.0000 0.0000 19.2971 0.0000 0.0000
# 5 0.0000 0.0000 0.0000 0.0000 28.0931 0.0000
# 6 0.0000 0.0000 0.0000 0.0000 0.0000 18.6123
#
#
#
# Elastic Compliance Matrix: (Units=1/GPa)
#
#
# Indices 1 2 3 4 5 6 
#
# 1 0.016565 -0.004242 -0.008428 0.000000 0.000000 0.000000
# 2 -0.004242 0.013395 -0.004833 0.000000 0.000000 0.000000
# 3 -0.008428 -0.004833 0.019645 0.000000 0.000000 0.000000
# 4 0.000000 0.000000 0.000000 0.051821 0.000000 0.000000
# 5 0.000000 0.000000 0.000000 0.000000 0.035596 0.000000
# 6 0.000000 0.000000 0.000000 0.000000 0.000000 0.053728
#
#
# Mechanical properties :
#
#
# Convention : Reuss Voigt Hill
#
# Bulk Modulus (GPa) = 68.50917 69.15241 68.83079
# Shear Modulus (GPa) = 21.68027 22.52741 22.10384
#
# Velocity S-wave (km/s) = 3.46750 3.53460 3.50121
# Velocity P-wave (km/s) = 7.35021 7.41679 7.38358
#
# Compressibility (1/GPa) = 0.01459659
#
# Stress axis : x y z
#
# Youngs Moduli (GPa) = 60.36845 74.65470 50.90308
#
# Poissons Ratio (x) = 0.31671 0.42903
# Poissons Ratio (y) = 0.25611 0.24604
# Poissons Ratio (z) = 0.50881 0.36084
#
# Static dielectric constant tensor:
#      x y z
#    x 3.275310 0.000000 0.000000 
#    y 0.000000 3.335960 0.000000 
#    z 0.000000 0.000000 3.143660 
# 
# 
# High freq. dielectric constant tensor:
#      x y z
#    x 1.697850 0.000000 0.000000 
#    y 0.000000 1.692400 0.000000 
#    z 0.000000 0.000000 1.685310 
# 
# From -- ./inp_files/17087.got.cif
#   From: 2010.03.12/outbox.cif.g09.slc.cpg/sg65_9_cif.got.tgz:17087.got - 2010.04.10 20:52:16.
