data_PCOD8274930
_publ_section_title
;
Structure prediction by ZEFSAII (Michael W. Deem and Ramdas Pophale) SiO2 
 PCOD8274930
Probable space group: C M M M
;
_chemical_formula_sum "Si O2"
_cell_formula_units_Z 96
_cell_length_a 20.192422
_cell_length_b 9.768326
_cell_length_c 30.386836
_cell_angle_alpha 90.000000
_cell_angle_beta 90.000000
_cell_angle_gamma 90.000000
_cell_volume 5993.686741
_symmetry_space_group_name_H-M "C M M M"
_symmetry_group_IT_number 65
_symmetry_cell_setting 'orthorhombic'
loop_
_space_group_symop_operation_xyz
x,y,z
-x,-y,z
x,-y,-z
-x,y,-z
-x,-y,-z
x,y,-z
-x,y,z
x,-y,z
1/2+x,1/2+y,z
1/2-x,1/2-y,z
1/2+x,1/2-y,-z
1/2-x,1/2+y,-z
1/2-x,1/2-y,-z
1/2+x,1/2+y,-z
1/2-x,1/2+y,z
1/2+x,1/2-y,z
loop_
_atom_site_type_symbol
_atom_site_label
_atom_site_fract_x
_atom_site_fract_y
_atom_site_fract_z
Si Si1 0.687354 0.658791 0.214583
Si Si2 0.812609 0.841017 0.887011
Si Si3 0.578678 0.651921 0.376185
Si Si4 0.426644 0.337565 0.049165
Si Si5 0.921247 0.346833 0.451227
Si Si6 0.926640 0.837277 0.279065
O O1 0.703445 0.500000 0.224788
O O2 0.750000 0.750000 0.227833
O O3 0.668263 0.679383 0.163783
O O4 0.625389 0.714219 0.242800
O O5 0.750000 0.750000 0.900197
O O6 0.873609 0.783050 0.915682
O O7 0.796864 0.000000 0.897300
O O8 0.500000 0.645270 0.380360
O O9 0.608505 0.500000 0.382837
O O10 0.609759 0.748550 0.413948
O O11 0.596849 0.710722 0.327744
O O12 0.500000 0.281211 0.061220
O O13 0.428231 0.500000 0.050863
O O14 0.406769 0.288544 0.000000
O O15 0.899680 0.296127 0.500000
O O16 0.894487 0.500000 0.442980
O O17 0.000000 0.346473 0.447880
O O18 0.000000 0.777984 0.267983
O O19 0.930794 0.000000 0.279120
#
# Coordination Sequence:
#
# PCOD8274930 Si02
#       6
#    16  16  16  16  16  16
#     4   9  17  29  44  61  83 109 136 169 206 245
#     4   9  17  28  43  63  84 108 138 170 206 246
#     4   8  13  21  33  49  69  93 123 159 195 230
#     4   8  14  25  41  62  87 111 137 173 211 242
#     4   8  13  20  29  43  67  99 129 154 185 228
#     4   8  14  25  41  60  80 103 133 169 206 240
#
# _framework density 16.016852
#
# number of rings (size 3 to 8) (size 9 to 14) (size 15 to 20)
#    0.000    3.667    0.000    2.000    0.000    1.333 
#    0.000    5.833    0.000    2.000    0.000    5.833 
#    0.000    0.667    0.000    1.500    0.000    4.000 
#
# Total GULP energy -594812.680326 kJ/mol
# GULP energy per Si atom -12391.930840 kJ/mol
# Density = 1.598040 g / cm^3
# Si number density = 16.016852 Si / 1000 Ang^3
#
#
#
# Elastic Constant Matrix: (Units=GPa)
#
#
# Indices 1 2 3 4 5 6 
#
# 1 88.5077 35.7791 77.8390 0.0000 0.0000 0.0000
# 2 35.7791 45.0102 44.2899 0.0000 0.0000 0.0000
# 3 77.8390 44.2899 123.1184 0.0000 0.0000 0.0000
# 4 0.0000 0.0000 0.0000 16.0159 0.0000 0.0000
# 5 0.0000 0.0000 0.0000 0.0000 6.6928 0.0000
# 6 0.0000 0.0000 0.0000 0.0000 0.0000 16.0060
#
#
#
# Elastic Compliance Matrix: (Units=1/GPa)
#
#
# Indices 1 2 3 4 5 6 
#
# 1 0.026871 -0.007187 -0.014403 0.000000 0.000000 0.000000
# 2 -0.007187 0.036313 -0.008519 0.000000 0.000000 0.000000
# 3 -0.014403 -0.008519 0.020293 0.000000 0.000000 0.000000
# 4 0.000000 0.000000 0.000000 0.062438 0.000000 0.000000
# 5 0.000000 0.000000 0.000000 0.000000 0.149414 0.000000
# 6 0.000000 0.000000 0.000000 0.000000 0.000000 0.062476
#
#
# Mechanical properties :
#
#
# Convention : Reuss Voigt Hill
#
# Bulk Modulus (GPa) = 42.99584 63.60580 53.30082
# Shear Modulus (GPa) = 11.74326 14.32485 13.03405
#
# Velocity S-wave (km/s) = 2.71067 2.99383 2.85576
# Velocity P-wave (km/s) = 6.05800 7.19366 6.65012
#
# Compressibility (1/GPa) = 0.02325806
#
# Stress axis : x y z
#
# Youngs Moduli (GPa) = 37.21522 27.53820 49.27864
#
# Poissons Ratio (x) = 0.19793 0.70976
# Poissons Ratio (y) = 0.26748 0.41980
# Poissons Ratio (z) = 0.53601 0.23460
#
# Static dielectric constant tensor:
#      x y z
#    x 2.927240 0.000000 0.000000 
#    y 0.000000 2.891750 0.000000 
#    z 0.000000 0.000000 3.330550 
# 
# 
# High freq. dielectric constant tensor:
#      x y z
#    x 1.576890 0.000000 0.000000 
#    y 0.000000 1.581560 0.000000 
#    z 0.000000 0.000000 1.626810 
# 
# From -- ./inp_files/69017.got.cif
#   From: 2010.03.12/outbox.cif.g09.slc.cpg/sg65_35_cif.got.tgz:69017.got - 2010.04.10 20:52:16.
