data_PCOD8274299
_publ_section_title
;
Structure prediction by ZEFSAII (Michael W. Deem and Ramdas Pophale) SiO2 
 PCOD8274299
Probable space group: C M M M
;
_chemical_formula_sum "Si O2"
_cell_formula_units_Z 80
_cell_length_a 28.148053
_cell_length_b 9.291675
_cell_length_c 20.560107
_cell_angle_alpha 90.000000
_cell_angle_beta 90.000000
_cell_angle_gamma 90.000000
_cell_volume 5377.343026
_symmetry_space_group_name_H-M "C M M M"
_symmetry_group_IT_number 65
_symmetry_cell_setting 'orthorhombic'
loop_
_space_group_symop_operation_xyz
x,y,z
-x,-y,z
x,-y,-z
-x,y,-z
-x,-y,-z
x,y,-z
-x,y,z
x,-y,z
1/2+x,1/2+y,z
1/2-x,1/2-y,z
1/2+x,1/2-y,-z
1/2-x,1/2+y,-z
1/2-x,1/2-y,-z
1/2+x,1/2+y,-z
1/2-x,1/2+y,z
1/2+x,1/2-y,z
loop_
_atom_site_type_symbol
_atom_site_label
_atom_site_fract_x
_atom_site_fract_y
_atom_site_fract_z
Si Si1 0.556362 0.341018 0.620068
Si Si2 0.602056 0.830369 0.880658
Si Si3 0.444529 0.332619 0.765923
Si Si4 0.556295 0.334524 0.000000
Si Si5 0.943214 0.339488 0.500000
Si Si6 0.794992 0.333945 0.925803
O O1 0.500000 0.346792 0.615373
O O2 0.576988 0.500000 0.606705
O O3 0.570542 0.290189 0.692453
O O4 0.577159 0.235989 0.564951
O O5 0.585332 0.772400 0.811377
O O6 0.658133 0.798730 0.884693
O O7 0.591359 0.000000 0.887855
O O8 0.574531 0.745939 0.936428
O O9 0.500000 0.303811 0.777771
O O10 0.432934 0.500000 0.780057
O O11 0.574117 0.500000 0.000000
O O12 0.500000 0.328845 0.000000
O O13 0.923193 0.500000 0.500000
O O14 0.000000 0.336544 0.500000
O O15 0.781837 0.500000 0.922546
O O16 0.750000 0.250000 0.895961
O O17 0.804730 0.285000 0.000000
#
# Coordination Sequence:
#
# PCOD8274299 Si02
#       6
#    16  16  16   8   8  16
#     4   8  14  25  39  53  74 107 143 176 208 242
#     4  11  21  33  47  65  87 109 136 175 220 260
#     4   9  18  31  44  60  84 115 151 182 207 247
#     4  11  23  35  46  61  82 111 148 181 206 243
#     4   9  15  21  33  55  79 101 134 179 216 247
#     4   9  18  33  49  66  85 103 130 169 213 263
#
# _framework density 14.877235000000001
#
# number of rings (size 3 to 8) (size 9 to 14) (size 15 to 20)
#    0.000    2.600    1.000    3.000    0.000    7.200 
#    0.000    2.000    0.000    0.000    0.000    0.000 
#    0.000    0.000    0.000    0.900    0.000   11.900 
#
# Total GULP energy -495894.725979 kJ/mol
# GULP energy per Si atom -12397.368149 kJ/mol
# Density = 1.484337 g / cm^3
# Si number density = 14.877235 Si / 1000 Ang^3
#
#
#
# Elastic Constant Matrix: (Units=GPa)
#
#
# Indices 1 2 3 4 5 6 
#
# 1 61.1124 46.8643 38.8702 0.0000 0.0000 0.0000
# 2 46.8643 104.9157 70.4732 0.0000 0.0000 0.0000
# 3 38.8702 70.4732 117.4843 0.0000 0.0000 0.0000
# 4 0.0000 0.0000 0.0000 26.9232 0.0000 0.0000
# 5 0.0000 0.0000 0.0000 0.0000 -0.0053 0.0000
# 6 0.0000 0.0000 0.0000 0.0000 0.0000 21.5718
#
#
#
# Elastic Compliance Matrix: (Units=1/GPa)
#
#
# Indices 1 2 3 4 5 6 
#
# 1 0.025381 -0.009541 -0.002674 0.000000 0.000000 0.000000
# 2 -0.009541 0.019550 -0.008571 0.000000 0.000000 0.000000
# 3 -0.002674 -0.008571 0.014538 0.000000 0.000000 0.000000
# 4 0.000000 0.000000 0.000000 0.037143 0.000000 0.000000
# 5 0.000000 0.000000 0.000000 0.000000********** 0.000000
# 6 0.000000 0.000000 0.000000 0.000000 0.000000 0.046357
#
#
# Mechanical properties :
#
#
# Convention : Reuss Voigt Hill
#
# Bulk Modulus (GPa) = 55.87472 66.21420 61.04446
# Shear Modulus (GPa) = -0.02670 18.18491 9.07910
#
# Velocity S-wave (km/s) = -0.13412 3.49998 2.47304
# Velocity P-wave (km/s) = 6.13309 7.80620 7.01967
#
# Compressibility (1/GPa) = 0.01789718
#
# Stress axis : x y z
#
# Youngs Moduli (GPa) = 39.40008 51.15046 68.78706
#
# Poissons Ratio (x) = 0.48802 0.18395
# Poissons Ratio (y) = 0.37591 0.58954
# Poissons Ratio (z) = 0.10536 0.43839
#
# Static dielectric constant tensor:
#      x y z
#    x 2.580440 0.000000 0.000000 
#    y 0.000000 3.046010 0.000000 
#    z 0.000000 0.000000 2.987380 
# 
# 
# High freq. dielectric constant tensor:
#      x y z
#    x 1.521410 0.000000 0.000000 
#    y 0.000000 1.580360 0.000000 
#    z 0.000000 0.000000 1.565780 
# 
# From -- ./inp_files/60071.got.cif
#   From: 2010.03.12/outbox.cif.g09.slc.cpg/sg65_31_cif.got.tgz:60071.got - 2010.04.10 20:52:16.
