data_PCOD8274406
_publ_section_title
;
Structure prediction by ZEFSAII (Michael W. Deem and Ramdas Pophale) SiO2 
 PCOD8274406
Probable space group: C M M M
;
_chemical_formula_sum "Si O2"
_cell_formula_units_Z 56
_cell_length_a 12.440638
_cell_length_b 20.784025
_cell_length_c 10.107918
_cell_angle_alpha 90.000000
_cell_angle_beta 90.000000
_cell_angle_gamma 90.000000
_cell_volume 2613.569295
_symmetry_space_group_name_H-M "C M M M"
_symmetry_group_IT_number 65
_symmetry_cell_setting 'orthorhombic'
loop_
_space_group_symop_operation_xyz
x,y,z
-x,-y,z
x,-y,-z
-x,y,-z
-x,-y,-z
x,y,-z
-x,y,z
x,-y,z
1/2+x,1/2+y,z
1/2-x,1/2-y,z
1/2+x,1/2-y,-z
1/2-x,1/2+y,-z
1/2-x,1/2-y,-z
1/2+x,1/2+y,-z
1/2-x,1/2+y,z
1/2+x,1/2-y,z
loop_
_atom_site_type_symbol
_atom_site_label
_atom_site_fract_x
_atom_site_fract_y
_atom_site_fract_z
Si Si1 0.000000 0.381933 0.344602
Si Si2 0.328470 0.690805 0.856992
Si Si3 0.229171 0.573717 0.255966
Si Si4 0.000000 0.232263 0.341627
Si Si5 0.620987 0.574742 0.500000
O O1 0.895716 0.417791 0.289567
O O2 0.000000 0.389523 0.500000
O O3 0.000000 0.307295 0.302911
O O4 0.250000 0.750000 0.849997
O O5 0.262564 0.623593 0.857785
O O6 0.400409 0.696727 0.726319
O O7 0.389819 0.692530 0.000000
O O8 0.248536 0.500000 0.211146
O O9 0.307161 0.594076 0.375545
O O10 0.000000 0.222959 0.500000
O O11 0.599685 0.500000 0.500000
O O12 0.500000 0.607854 0.500000
#
# Coordination Sequence:
#
# PCOD8274406 Si02
#       5
#     8  16  16   8   8
#     4  11  21  39  64 102 142 176 220 284 348 404
#     4  11  25  45  66  92 134 182 225 273 338 409
#     4  11  23  39  65  98 134 177 224 278 344 406
#     4  11  25  42  70 102 132 174 230 292 336 401
#     4   9  20  37  58  91 135 175 215 269 334 401
#
# _framework density 21.426638000000001
#
# number of rings (size 3 to 8) (size 9 to 14) (size 15 to 20)
#    0.000    1.286    4.286    0.857    4.000    1.714 
#    0.000    0.714    0.000    3.429    0.000    0.000 
#    0.000    0.000    0.000    0.000    0.000    0.000 
#
# Total GULP energy -346933.460852 kJ/mol
# GULP energy per Si atom -12390.480745 kJ/mol
# Density = 2.137787 g / cm^3
# Si number density = 21.426638 Si / 1000 Ang^3
#
#
#
# Elastic Constant Matrix: (Units=GPa)
#
#
# Indices 1 2 3 4 5 6 
#
# 1 137.8477 36.0765 55.6938 0.0000 0.0000 0.0000
# 2 36.0765 162.7941 38.2708 0.0000 0.0000 0.0000
# 3 55.6938 38.2708 113.1819 0.0000 0.0000 0.0000
# 4 0.0000 0.0000 0.0000 231.9971 0.0000 0.0000
# 5 0.0000 0.0000 0.0000 0.0000 19.4786 0.0000
# 6 0.0000 0.0000 0.0000 0.0000 0.0000 36.1771
#
#
#
# Elastic Compliance Matrix: (Units=1/GPa)
#
#
# Indices 1 2 3 4 5 6 
#
# 1 0.009220 -0.001061 -0.004178 0.000000 0.000000 0.000000
# 2 -0.001061 0.006795 -0.001776 0.000000 0.000000 0.000000
# 3 -0.004178 -0.001776 0.011492 0.000000 0.000000 0.000000
# 4 0.000000 0.000000 0.000000 0.004310 0.000000 0.000000
# 5 0.000000 0.000000 0.000000 0.000000 0.051339 0.000000
# 6 0.000000 0.000000 0.000000 0.000000 0.000000 0.027642
#
#
# Mechanical properties :
#
#
# Convention : Reuss Voigt Hill
#
# Bulk Modulus (GPa) = 74.19810 74.87845 74.53827
# Shear Modulus (GPa) = 38.66373 76.44938 57.55656
#
# Velocity S-wave (km/s) = 4.25251 5.97972 5.18849
# Velocity P-wave (km/s) = 7.66915 9.09386 8.41173
#
# Compressibility (1/GPa) = 0.01347743
#
# Stress axis : x y z
#
# Youngs Moduli (GPa) = 108.45786 147.16090 87.01903
#
# Poissons Ratio (x) = 0.15614 0.36359
# Poissons Ratio (y) = 0.11508 0.15451
# Poissons Ratio (z) = 0.45316 0.26130
#
# Static dielectric constant tensor:
#      x y z
#    x 3.704870 0.000000 0.000000 
#    y 0.000000 3.987390 0.000000 
#    z 0.000000 0.000000 3.968020 
# 
# 
# High freq. dielectric constant tensor:
#      x y z
#    x 1.842420 0.000000 0.000000 
#    y 0.000000 1.862410 0.000000 
#    z 0.000000 0.000000 1.827400 
# 
# From -- ./inp_files/6288.got.cif
#   From: 2010.03.12/outbox.cif.g09.slc.cpg/sg65_4_cif.got.tgz:6288.got - 2010.04.10 20:52:16.
