data_PCOD8274890
_publ_section_title
;
Structure prediction by ZEFSAII (Michael W. Deem and Ramdas Pophale) SiO2 
 PCOD8274890
Probable space group: C M M M
;
_chemical_formula_sum "Si O2"
_cell_formula_units_Z 112
_cell_length_a 29.974598
_cell_length_b 9.326759
_cell_length_c 23.419158
_cell_angle_alpha 90.000000
_cell_angle_beta 90.000000
_cell_angle_gamma 90.000000
_cell_volume 6547.196852
_symmetry_space_group_name_H-M "C M M M"
_symmetry_group_IT_number 65
_symmetry_cell_setting 'orthorhombic'
loop_
_space_group_symop_operation_xyz
x,y,z
-x,-y,z
x,-y,-z
-x,y,-z
-x,-y,-z
x,y,-z
-x,y,z
x,-y,z
1/2+x,1/2+y,z
1/2-x,1/2-y,z
1/2+x,1/2-y,-z
1/2-x,1/2+y,-z
1/2-x,1/2-y,-z
1/2+x,1/2+y,-z
1/2-x,1/2+y,z
1/2+x,1/2-y,z
loop_
_atom_site_type_symbol
_atom_site_label
_atom_site_fract_x
_atom_site_fract_y
_atom_site_fract_z
Si Si1 0.138539 0.829512 0.437460
Si Si2 0.050073 0.829478 0.936159
Si Si3 0.294773 0.667330 0.210608
Si Si4 0.049626 0.830631 0.739179
Si Si5 0.387458 0.670963 0.836439
Si Si6 0.705585 0.667716 0.341513
Si Si7 0.548653 0.329129 0.612060
O O1 0.155074 0.775643 0.500000
O O2 0.168852 0.771746 0.385734
O O3 0.087951 0.772306 0.428711
O O4 0.138738 0.000000 0.435546
O O5 0.088560 0.769147 0.893782
O O6 0.000000 0.778196 0.918193
O O7 0.050843 0.000000 0.934798
O O8 0.061106 0.774003 0.000000
O O9 0.284927 0.500000 0.202547
O O10 0.250000 0.750000 0.192480
O O11 0.335655 0.718817 0.169875
O O12 0.308629 0.700302 0.276245
O O13 0.085307 0.764033 0.782884
O O14 0.057708 0.769064 0.675813
O O15 0.000000 0.791011 0.760672
O O16 0.055825 0.000000 0.737596
O O17 0.389711 0.500000 0.835533
O O18 0.713849 0.500000 0.350491
O O19 0.750000 0.750000 0.357837
O O20 0.500000 0.275592 0.590038
O O21 0.548602 0.500000 0.614264
#
# Coordination Sequence:
#
# PCOD8274890 Si02
#       7
#    16  16  16  16  16  16  16
#     4   9  16  24  34  49  70  97 127 156 187 226
#     4   8  13  20  30  48  77 109 135 158 187 226
#     4   9  17  28  42  59  78 101 130 163 196 230
#     4   8  12  17  27  45  68  92 118 150 188 228
#     4   9  14  20  33  51  72 100 130 158 191 230
#     4   9  17  29  43  58  77 100 126 158 196 234
#     4   8  13  20  29  43  66  95 123 149 180 223
#
# _framework density 17.106556999999999
#
# number of rings (size 3 to 8) (size 9 to 14) (size 15 to 20)
#    0.000    3.429    0.000    2.571    0.000    5.714 
#    0.000    1.429    0.000    0.429    0.000    0.000 
#    0.000    2.857    0.000   20.714    0.000   22.429 
#
# Total GULP energy -693746.395354 kJ/mol
# GULP energy per Si atom -12388.328488 kJ/mol
# Density = 1.706762 g / cm^3
# Si number density = 17.106557 Si / 1000 Ang^3
#
#
#
# Elastic Constant Matrix: (Units=GPa)
#
#
# Indices 1 2 3 4 5 6 
#
# 1 143.5134 17.9105 74.0731 0.0000 0.0000 0.0000
# 2 17.9105 7.9585 10.1185 0.0000 0.0000 0.0000
# 3 74.0731 10.1185 93.6461 0.0000 0.0000 0.0000
# 4 0.0000 0.0000 0.0000 5.8167 0.0000 0.0000
# 5 0.0000 0.0000 0.0000 0.0000 29.0432 0.0000
# 6 0.0000 0.0000 0.0000 0.0000 0.0000 13.9667
#
#
#
# Elastic Compliance Matrix: (Units=1/GPa)
#
#
# Indices 1 2 3 4 5 6 
#
# 1 0.014159 -0.020432 -0.008992 0.000000 0.000000 0.000000
# 2 -0.020432 0.175148 -0.002763 0.000000 0.000000 0.000000
# 3 -0.008992 -0.002763 0.018090 0.000000 0.000000 0.000000
# 4 0.000000 0.000000 0.000000 0.171918 0.000000 0.000000
# 5 0.000000 0.000000 0.000000 0.000000 0.034431 0.000000
# 6 0.000000 0.000000 0.000000 0.000000 0.000000 0.071599
#
#
# Mechanical properties :
#
#
# Convention : Reuss Voigt Hill
#
# Bulk Modulus (GPa) = 6.99194 49.92471 28.45832
# Shear Modulus (GPa) = 8.36969 19.29973 13.83471
#
# Velocity S-wave (km/s) = 2.21434 3.36252 2.84692
# Velocity P-wave (km/s) = 3.26097 6.65758 5.24200
#
# Compressibility (1/GPa) = 0.14302190
#
# Stress axis : x y z
#
# Youngs Moduli (GPa) = 70.62609 5.70945 55.28042
#
# Poissons Ratio (x) = 0.11666 0.49708
# Poissons Ratio (y) = 1.44306 0.15274
# Poissons Ratio (z) = 0.63507 0.01578
#
# Static dielectric constant tensor:
#      x y z
#    x 3.449460 0.000000 0.000000 
#    y 0.000000 2.442780 0.000000 
#    z 0.000000 0.000000 3.450130 
# 
# 
# High freq. dielectric constant tensor:
#      x y z
#    x 1.668980 0.000000 0.000000 
#    y 0.000000 1.569780 0.000000 
#    z 0.000000 0.000000 1.654920 
# 
# From -- ./inp_files/71566.got.cif
#   From: 2010.03.12/outbox.cif.g09.slc.cpg/sg65_36_cif.got.tgz:71566.got - 2010.04.10 20:52:16.
