data_PCOD8274545
_publ_section_title
;
Structure prediction by ZEFSAII (Michael W. Deem and Ramdas Pophale) SiO2 
 PCOD8274545
Probable space group: C M M M
;
_chemical_formula_sum "Si O2"
_cell_formula_units_Z 104
_cell_length_a 8.742651
_cell_length_b 19.816941
_cell_length_c 32.937188
_cell_angle_alpha 90.000000
_cell_angle_beta 90.000000
_cell_angle_gamma 90.000000
_cell_volume 5706.453426
_symmetry_space_group_name_H-M "C M M M"
_symmetry_group_IT_number 65
_symmetry_cell_setting 'orthorhombic'
loop_
_space_group_symop_operation_xyz
x,y,z
-x,-y,z
x,-y,-z
-x,y,-z
-x,-y,-z
x,y,-z
-x,y,z
x,-y,z
1/2+x,1/2+y,z
1/2-x,1/2-y,z
1/2+x,1/2-y,-z
1/2-x,1/2+y,-z
1/2-x,1/2-y,-z
1/2+x,1/2+y,-z
1/2-x,1/2+y,z
1/2+x,1/2-y,z
loop_
_atom_site_type_symbol
_atom_site_label
_atom_site_fract_x
_atom_site_fract_y
_atom_site_fract_z
Si Si1 0.678240 0.822185 0.000000
Si Si2 0.320180 0.679098 0.692558
Si Si3 0.318846 0.823869 0.087693
Si Si4 0.675392 0.422179 0.453122
Si Si5 0.176375 0.578857 0.754032
Si Si6 0.679422 0.820554 0.393337
Si Si7 0.681420 0.074568 0.154463
O O1 0.750000 0.750000 0.000000
O O2 0.724871 0.856565 0.043130
O O3 0.500000 0.810961 0.000000
O O4 0.500000 0.687770 0.687970
O O5 0.250000 0.750000 0.707406
O O6 0.284265 0.621178 0.724741
O O7 0.251251 0.657161 0.649405
O O8 0.500000 0.817755 0.092628
O O9 0.250000 0.750000 0.093575
O O10 0.248824 0.872947 0.122003
O O11 0.709767 0.406730 0.500000
O O12 0.500000 0.404534 0.442744
O O13 0.709115 0.500000 0.443261
O O14 0.788005 0.377478 0.426422
O O15 0.202557 0.500000 0.745499
O O16 0.225552 0.596991 0.800035
O O17 0.000000 0.598277 0.746343
O O18 0.500000 0.811494 0.387671
O O19 0.750000 0.750000 0.408444
O O20 0.500000 0.071536 0.150584
O O21 0.748365 0.000000 0.145310
#
# Coordination Sequence:
#
# PCOD8274545 Si02
#       7
#     8  16  16  16  16  16  16
#     4   8  14  24  39  61  89 119 151 192 236 280
#     4  11  22  37  56  77 104 134 167 209 255 302
#     4   9  16  27  44  66  91 120 157 196 237 284
#     4   9  19  37  59  82 110 143 178 217 259 301
#     4   9  18  34  54  74  98 130 167 204 246 299
#     4  11  22  37  57  80 108 140 175 214 256 304
#     4   8  15  29  48  68  93 125 157 193 239 289
#
# _framework density 18.224979999999999
#
# number of rings (size 3 to 8) (size 9 to 14) (size 15 to 20)
#    0.000    2.615    0.000    5.077    0.000    2.462 
#    0.000    3.462    0.000    3.692    0.000    0.000 
#    0.000    6.154    0.000    0.000    0.000    0.000 
#
# Total GULP energy -644548.593417 kJ/mol
# GULP energy per Si atom -12395.165258 kJ/mol
# Density = 1.818350 g / cm^3
# Si number density = 18.224980 Si / 1000 Ang^3
#
#
#
# Elastic Constant Matrix: (Units=GPa)
#
#
# Indices 1 2 3 4 5 6 
#
# 1 86.4004 39.2642 47.0793 0.0000 0.0000 0.0000
# 2 39.2642 92.0439 78.9982 0.0000 0.0000 0.0000
# 3 47.0793 78.9982 126.2859 0.0000 0.0000 0.0000
# 4 0.0000 0.0000 0.0000 22.9856 0.0000 0.0000
# 5 0.0000 0.0000 0.0000 0.0000 20.7596 0.0000
# 6 0.0000 0.0000 0.0000 0.0000 0.0000 24.8917
#
#
#
# Elastic Compliance Matrix: (Units=1/GPa)
#
#
# Indices 1 2 3 4 5 6 
#
# 1 0.015017 -0.003457 -0.003436 0.000000 0.000000 0.000000
# 2 -0.003457 0.024256 -0.013884 0.000000 0.000000 0.000000
# 3 -0.003436 -0.013884 0.017885 0.000000 0.000000 0.000000
# 4 0.000000 0.000000 0.000000 0.043505 0.000000 0.000000
# 5 0.000000 0.000000 0.000000 0.000000 0.048170 0.000000
# 6 0.000000 0.000000 0.000000 0.000000 0.000000 0.040174
#
#
# Mechanical properties :
#
#
# Convention : Reuss Voigt Hill
#
# Bulk Modulus (GPa) = 64.09015 70.60151 67.34583
# Shear Modulus (GPa) = 21.20776 23.01995 22.11386
#
# Velocity S-wave (km/s) = 3.41495 3.55787 3.48714
# Velocity P-wave (km/s) = 7.12683 7.46330 7.29700
#
# Compressibility (1/GPa) = 0.01560302
#
# Stress axis : x y z
#
# Youngs Moduli (GPa) = 66.58988 41.22771 55.91409
#
# Poissons Ratio (x) = 0.14254 0.19210
# Poissons Ratio (y) = 0.23023 0.77632
# Poissons Ratio (z) = 0.22878 0.57241
#
# Static dielectric constant tensor:
#      x y z
#    x 3.310330 0.000000 0.000000 
#    y 0.000000 3.338360 0.000000 
#    z 0.000000 0.000000 3.669450 
# 
# 
# High freq. dielectric constant tensor:
#      x y z
#    x 1.690610 0.000000 0.000000 
#    y 0.000000 1.694970 0.000000 
#    z 0.000000 0.000000 1.718420 
# 
# From -- ./inp_files/76841.got.cif
#   From: 2010.03.12/outbox.cif.g09.slc.cpg/sg65_39_cif.got.tgz:76841.got - 2010.04.10 20:52:16.
