data_PCOD8274809
_publ_section_title
;
Structure prediction by ZEFSAII (Michael W. Deem and Ramdas Pophale) SiO2 
 PCOD8274809
Probable space group: C M M M
;
_chemical_formula_sum "Si O2"
_cell_formula_units_Z 72
_cell_length_a 29.242727
_cell_length_b 14.051363
_cell_length_c 8.895142
_cell_angle_alpha 90.000000
_cell_angle_beta 90.000000
_cell_angle_gamma 90.000000
_cell_volume 3655.015379
_symmetry_space_group_name_H-M "C M M M"
_symmetry_group_IT_number 65
_symmetry_cell_setting 'orthorhombic'
loop_
_space_group_symop_operation_xyz
x,y,z
-x,-y,z
x,-y,-z
-x,y,-z
-x,-y,-z
x,y,-z
-x,y,z
x,-y,z
1/2+x,1/2+y,z
1/2-x,1/2-y,z
1/2+x,1/2-y,-z
1/2-x,1/2+y,-z
1/2-x,1/2-y,-z
1/2+x,1/2+y,-z
1/2-x,1/2+y,z
1/2+x,1/2-y,z
loop_
_atom_site_type_symbol
_atom_site_label
_atom_site_fract_x
_atom_site_fract_y
_atom_site_fract_z
Si Si1 0.585195 0.712290 0.676454
Si Si2 0.946621 0.607624 0.171107
Si Si3 0.000000 0.112303 0.172445
Si Si4 0.269364 0.105366 0.178129
Si Si5 0.321087 0.289105 0.177946
O O1 0.582232 0.698635 0.500000
O O2 0.580762 0.823322 0.719073
O O3 0.545335 0.651493 0.750775
O O4 0.633805 0.675667 0.736610
O O5 0.936603 0.500000 0.222309
O O6 0.000000 0.631128 0.183222
O O7 0.929892 0.623103 0.000000
O O8 0.000000 0.000000 0.188542
O O9 0.000000 0.145881 0.000000
O O10 0.307770 0.181309 0.229313
O O11 0.219268 0.140211 0.229586
O O12 0.279560 0.000000 0.245496
O O13 0.269535 0.101562 0.000000
O O14 0.329493 0.293951 0.000000
#
# Coordination Sequence:
#
# PCOD8274809 Si02
#       5
#    16  16   8  16  16
#     4  12  24  37  56  85 122 156 186 231 288 346
#     4   9  18  34  57  81 106 143 191 236 276 325
#     4  11  25  45  66  83 104 145 201 250 286 327
#     4   8  15  31  56  83 108 138 184 240 285 321
#     4   9  18  33  55  82 110 144 189 235 277 331
#
# _framework density 19.698958999999999
#
# number of rings (size 3 to 8) (size 9 to 14) (size 15 to 20)
#    0.000    2.333    1.111    4.333    0.000    3.111 
#    0.000    7.778    0.000    1.333    0.000    0.000 
#    0.000    0.000    0.000    0.000    0.000    0.000 
#
# Total GULP energy -446349.917500 kJ/mol
# GULP energy per Si atom -12398.608819 kJ/mol
# Density = 1.965412 g / cm^3
# Si number density = 19.698959 Si / 1000 Ang^3
#
#
#
# Elastic Constant Matrix: (Units=GPa)
#
#
# Indices 1 2 3 4 5 6 
#
# 1 122.3202 26.5642 49.4240 0.0000 0.0000 0.0000
# 2 26.5642 76.5613 26.0435 0.0000 0.0000 0.0000
# 3 49.4240 26.0435 98.4322 0.0000 0.0000 0.0000
# 4 0.0000 0.0000 0.0000 11.8490 0.0000 0.0000
# 5 0.0000 0.0000 0.0000 0.0000 -1.0090 0.0000
# 6 0.0000 0.0000 0.0000 0.0000 0.0000 15.2003
#
#
#
# Elastic Compliance Matrix: (Units=1/GPa)
#
#
# Indices 1 2 3 4 5 6 
#
# 1 0.010538 -0.002040 -0.004752 0.000000 0.000000 0.000000
# 2 -0.002040 0.014748 -0.002878 0.000000 0.000000 0.000000
# 3 -0.004752 -0.002878 0.013307 0.000000 0.000000 0.000000
# 4 0.000000 0.000000 0.000000 0.084395 0.000000 0.000000
# 5 0.000000 0.000000 0.000000 0.000000 -0.991057 0.000000
# 6 0.000000 0.000000 0.000000 0.000000 0.000000 0.065788
#
#
# Mechanical properties :
#
#
# Convention : Reuss Voigt Hill
#
# Bulk Modulus (GPa) = 51.93721 55.70859 53.82290
# Shear Modulus (GPa) = -6.43896 18.22683 5.89394
#
# Velocity S-wave (km/s) = -1.80991 3.04512 1.73162
# Velocity P-wave (km/s) = 4.69627 6.38005 5.60179
#
# Compressibility (1/GPa) = 0.01925402
#
# Stress axis : x y z
#
# Youngs Moduli (GPa) = 94.89271 67.80494 75.15106
#
# Poissons Ratio (x) = 0.13833 0.35709
# Poissons Ratio (y) = 0.19359 0.21627
# Poissons Ratio (z) = 0.45089 0.19513
#
# Static dielectric constant tensor:
#      x y z
#    x 3.570160 0.000000 0.000000 
#    y 0.000000 3.948260 0.000000 
#    z 0.000000 0.000000 3.209920 
# 
# 
# High freq. dielectric constant tensor:
#      x y z
#    x 1.771000 0.000000 0.000000 
#    y 0.000000 1.773280 0.000000 
#    z 0.000000 0.000000 1.728550 
# 
# From -- ./inp_files/7274.got.cif
#   From: 2010.03.12/outbox.cif.g09.slc.cpg/sg65_4_cif.got.tgz:7274.got - 2010.04.10 20:52:16.
