data_PCOD8274361
_publ_section_title
;
Structure prediction by ZEFSAII (Michael W. Deem and Ramdas Pophale) SiO2 
 PCOD8274361
Probable space group: C M M M
;
_chemical_formula_sum "Si O2"
_cell_formula_units_Z 88
_cell_length_a 16.804496
_cell_length_b 23.003662
_cell_length_c 11.844731
_cell_angle_alpha 90.000000
_cell_angle_beta 90.000000
_cell_angle_gamma 90.000000
_cell_volume 4578.757800
_symmetry_space_group_name_H-M "C M M M"
_symmetry_group_IT_number 65
_symmetry_cell_setting 'orthorhombic'
loop_
_space_group_symop_operation_xyz
x,y,z
-x,-y,z
x,-y,-z
-x,y,-z
-x,-y,-z
x,y,-z
-x,y,z
x,-y,z
1/2+x,1/2+y,z
1/2-x,1/2-y,z
1/2+x,1/2-y,-z
1/2-x,1/2+y,-z
1/2-x,1/2-y,-z
1/2+x,1/2+y,-z
1/2-x,1/2+y,z
1/2+x,1/2-y,z
loop_
_atom_site_type_symbol
_atom_site_label
_atom_site_fract_x
_atom_site_fract_y
_atom_site_fract_z
Si Si1 0.912644 0.844733 0.132974
Si Si2 0.500000 0.065689 0.878827
Si Si3 0.319714 0.567404 0.274297
Si Si4 0.905992 0.713906 0.869284
Si Si5 0.857294 0.609199 0.266695
Si Si6 0.907867 0.565653 0.500000
Si Si7 0.909167 0.068761 0.500000
O O1 0.853714 0.893969 0.174179
O O2 0.886390 0.779707 0.168026
O O3 0.000000 0.857453 0.183619
O O4 0.915994 0.847809 0.000000
O O5 0.580116 0.076407 0.810982
O O6 0.500000 0.000000 0.911517
O O7 0.500000 0.100350 0.000000
O O8 0.340502 0.500000 0.253704
O O9 0.226049 0.576266 0.267636
O O10 0.359179 0.589898 0.391115
O O11 0.853510 0.674647 0.783640
O O12 0.000000 0.699199 0.853222
O O13 0.881023 0.703671 0.000000
O O14 0.885504 0.606234 0.395166
O O15 0.867344 0.500000 0.500000
O O16 0.000000 0.553486 0.500000
O O17 0.000000 0.094017 0.500000
O O18 0.913678 0.000000 0.500000
#
# Coordination Sequence:
#
# PCOD8274361 Si02
#       7
#    16   8  16  16  16   8   8
#     4   9  20  39  62  86 113 150 195 245 305 363
#     4  11  22  35  53  79 113 158 206 240 275 334
#     4  11  23  37  57  88 123 152 190 246 303 360
#     4   9  18  37  62  84 111 153 206 252 288 341
#     4  12  22  36  57  84 118 157 199 242 291 346
#     4  11  21  35  56  79 112 157 200 237 284 345
#     4   9  19  39  64  84 108 151 201 243 292 359
#
# _framework density 19.219187999999999
#
# number of rings (size 3 to 8) (size 9 to 14) (size 15 to 20)
#    0.000    1.727    1.818    4.364    0.000    4.364 
#    0.000    3.636    0.000    5.455    0.000    0.000 
#    0.000    0.000    0.000    0.000    0.000    0.000 
#
# Total GULP energy -545344.997437 kJ/mol
# GULP energy per Si atom -12394.204487 kJ/mol
# Density = 1.917544 g / cm^3
# Si number density = 19.219188 Si / 1000 Ang^3
#
#
#
# Elastic Constant Matrix: (Units=GPa)
#
#
# Indices 1 2 3 4 5 6 
#
# 1 102.0200 35.4394 43.0880 0.0000 0.0000 0.0000
# 2 35.4394 101.1102 48.9253 0.0000 0.0000 0.0000
# 3 43.0880 48.9253 103.4271 0.0000 0.0000 0.0000
# 4 0.0000 0.0000 0.0000 20.3373 0.0000 0.0000
# 5 0.0000 0.0000 0.0000 0.0000 14.1159 0.0000
# 6 0.0000 0.0000 0.0000 0.0000 0.0000 27.4597
#
#
#
# Elastic Compliance Matrix: (Units=1/GPa)
#
#
# Indices 1 2 3 4 5 6 
#
# 1 0.012321 -0.002379 -0.004007 0.000000 0.000000 0.000000
# 2 -0.002379 0.013286 -0.005293 0.000000 0.000000 0.000000
# 3 -0.004007 -0.005293 0.013842 0.000000 0.000000 0.000000
# 4 0.000000 0.000000 0.000000 0.049171 0.000000 0.000000
# 5 0.000000 0.000000 0.000000 0.000000 0.070842 0.000000
# 6 0.000000 0.000000 0.000000 0.000000 0.000000 0.036417
#
#
# Mechanical properties :
#
#
# Convention : Reuss Voigt Hill
#
# Bulk Modulus (GPa) = 62.15682 62.38476 62.27079
# Shear Modulus (GPa) = 22.26159 24.32286 23.29222
#
# Velocity S-wave (km/s) = 3.40707 3.56132 3.48505
# Velocity P-wave (km/s) = 6.92017 7.03141 6.97601
#
# Compressibility (1/GPa) = 0.01608834
#
# Stress axis : x y z
#
# Youngs Moduli (GPa) = 81.16151 75.26976 72.24331
#
# Poissons Ratio (x) = 0.17910 0.28951
# Poissons Ratio (y) = 0.19312 0.38241
# Poissons Ratio (z) = 0.32525 0.39843
#
# Static dielectric constant tensor:
#      x y z
#    x -40.816290 0.000000 0.000000 
#    y 0.000000 3.609100 0.000000 
#    z 0.000000 0.000000 3.551740 
# 
# 
# High freq. dielectric constant tensor:
#      x y z
#    x 1.744370 0.000000 0.000000 
#    y 0.000000 1.743950 0.000000 
#    z 0.000000 0.000000 1.746940 
# 
# From -- ./inp_files/24849.got.cif
#   From: 2010.03.12/outbox.cif.g09.slc.cpg/sg65_13_cif.got.tgz:24849.got - 2010.04.10 20:52:16.
