data_PCOD8274219
_publ_section_title
;
Structure prediction by ZEFSAII (Michael W. Deem and Ramdas Pophale) SiO2 
 PCOD8274219
Probable space group: C M M M
;
_chemical_formula_sum "Si O2"
_cell_formula_units_Z 80
_cell_length_a 25.592048
_cell_length_b 10.041733
_cell_length_c 20.156367
_cell_angle_alpha 90.000000
_cell_angle_beta 90.000000
_cell_angle_gamma 90.000000
_cell_volume 5179.954782
_symmetry_space_group_name_H-M "C M M M"
_symmetry_group_IT_number 65
_symmetry_cell_setting 'orthorhombic'
loop_
_space_group_symop_operation_xyz
x,y,z
-x,-y,z
x,-y,-z
-x,y,-z
-x,-y,-z
x,y,-z
-x,y,z
x,-y,z
1/2+x,1/2+y,z
1/2-x,1/2-y,z
1/2+x,1/2-y,-z
1/2-x,1/2+y,-z
1/2-x,1/2-y,-z
1/2+x,1/2+y,-z
1/2-x,1/2+y,z
1/2+x,1/2-y,z
loop_
_atom_site_type_symbol
_atom_site_label
_atom_site_fract_x
_atom_site_fract_y
_atom_site_fract_z
Si Si1 0.437676 0.152404 0.000000
Si Si2 0.938021 0.851978 0.888311
Si Si3 0.195747 0.000000 0.422266
Si Si4 0.818711 0.500000 0.577600
Si Si5 0.440548 0.655471 0.261723
Si Si6 0.438942 0.654620 0.500000
Si Si7 0.127514 0.761951 0.620511
O O1 0.416638 0.234926 0.936140
O O2 0.500000 0.147241 0.000000
O O3 0.415734 0.000000 0.000000
O O4 0.921263 0.818323 0.813263
O O5 0.000000 0.857532 0.892849
O O6 0.916770 0.000000 0.908557
O O7 0.257156 0.000000 0.411581
O O8 0.172062 0.872226 0.386622
O O9 0.181171 0.000000 0.500000
O O10 0.832793 0.500000 0.500000
O O11 0.843248 0.375925 0.614460
O O12 0.500000 0.706990 0.271574
O O13 0.438248 0.500000 0.279789
O O14 0.400936 0.734268 0.308668
O O15 0.423561 0.500000 0.500000
O O16 0.500000 0.677285 0.500000
O O17 0.416656 0.723788 0.565021
#
# Coordination Sequence:
#
# PCOD8274219 Si02
#       7
#     8  16   8   8  16   8  16
#     4   9  15  23  37  59  89 121 156 191 218 254
#     4   8  14  25  41  61  84 117 157 192 223 256
#     4  11  20  36  56  72  84 115 158 199 243 288
#     4  11  24  36  50  68  96 115 150 201 247 300
#     4   9  17  30  49  69  91 123 163 197 226 272
#     4  11  20  31  50  72  89 118 163 197 222 266
#     4  12  19  35  50  71  91 121 152 194 241 281
#
# _framework density 15.44415
#
# number of rings (size 3 to 8) (size 9 to 14) (size 15 to 20)
#    0.000    2.000    4.000    2.700    0.000    4.400 
#    1.800    2.500    0.000    0.000    0.000    0.000 
#    0.000    0.000    0.000    5.400    0.000    0.700 
#
# Total GULP energy -495916.171723 kJ/mol
# GULP energy per Si atom -12397.904293 kJ/mol
# Density = 1.540900 g / cm^3
# Si number density = 15.444150 Si / 1000 Ang^3
#
#
#
# Elastic Constant Matrix: (Units=GPa)
#
#
# Indices 1 2 3 4 5 6 
#
# 1 64.5842 42.2002 38.1215 0.0000 0.0000 0.0000
# 2 42.2002 124.0507 60.1641 0.0000 0.0000 0.0000
# 3 38.1215 60.1641 113.4632 0.0000 0.0000 0.0000
# 4 0.0000 0.0000 0.0000 21.6979 0.0000 0.0000
# 5 0.0000 0.0000 0.0000 0.0000 2.4886 0.0000
# 6 0.0000 0.0000 0.0000 0.0000 0.0000 3.6151
#
#
#
# Elastic Compliance Matrix: (Units=1/GPa)
#
#
# Indices 1 2 3 4 5 6 
#
# 1 0.021491 -0.005128 -0.004502 0.000000 0.000000 0.000000
# 2 -0.005128 0.012075 -0.004680 0.000000 0.000000 0.000000
# 3 -0.004502 -0.004680 0.012808 0.000000 0.000000 0.000000
# 4 0.000000 0.000000 0.000000 0.046087 0.000000 0.000000
# 5 0.000000 0.000000 0.000000 0.000000 0.401829 0.000000
# 6 0.000000 0.000000 0.000000 0.000000 0.000000 0.276621
#
#
# Mechanical properties :
#
#
# Convention : Reuss Voigt Hill
#
# Bulk Modulus (GPa) = 56.32170 64.78553 60.55361
# Shear Modulus (GPa) = 6.20772 16.33447 11.27109
#
# Velocity S-wave (km/s) = 2.00703 3.25568 2.70441
# Velocity P-wave (km/s) = 6.47442 7.49479 7.00321
#
# Compressibility (1/GPa) = 0.01775515
#
# Stress axis : x y z
#
# Youngs Moduli (GPa) = 46.53029 82.81231 78.07849
#
# Poissons Ratio (x) = 0.42464 0.35149
# Poissons Ratio (y) = 0.23860 0.36543
# Poissons Ratio (z) = 0.20947 0.38758
#
# Static dielectric constant tensor:
#      x y z
#    x 2.680000 0.000000 0.000000 
#    y 0.000000 2.995530 0.000000 
#    z 0.000000 0.000000 3.042660 
# 
# 
# High freq. dielectric constant tensor:
#      x y z
#    x 1.554450 0.000000 0.000000 
#    y 0.000000 1.589970 0.000000 
#    z 0.000000 0.000000 1.589110 
# 
# From -- ./inp_files/65716.got.cif
#   From: 2010.03.12/outbox.cif.g09.slc.cpg/sg65_33_cif.got.tgz:65716.got - 2010.04.10 20:52:16.
