data_PCOD8274935
_publ_section_title
;
Structure prediction by ZEFSAII (Michael W. Deem and Ramdas Pophale) SiO2 
 PCOD8274935
Probable space group: C M M M
;
_chemical_formula_sum "Si O2"
_cell_formula_units_Z 72
_cell_length_a 30.846429
_cell_length_b 9.651728
_cell_length_c 17.937970
_cell_angle_alpha 90.000000
_cell_angle_beta 90.000000
_cell_angle_gamma 90.000000
_cell_volume 5340.516510
_symmetry_space_group_name_H-M "C M M M"
_symmetry_group_IT_number 65
_symmetry_cell_setting 'orthorhombic'
loop_
_space_group_symop_operation_xyz
x,y,z
-x,-y,z
x,-y,-z
-x,y,-z
-x,-y,-z
x,y,-z
-x,y,z
x,-y,z
1/2+x,1/2+y,z
1/2-x,1/2-y,z
1/2+x,1/2-y,-z
1/2-x,1/2+y,-z
1/2-x,1/2-y,-z
1/2+x,1/2+y,-z
1/2-x,1/2+y,z
1/2+x,1/2-y,z
loop_
_atom_site_type_symbol
_atom_site_label
_atom_site_fract_x
_atom_site_fract_y
_atom_site_fract_z
Si Si1 0.712445 0.653566 0.411468
Si Si2 0.616716 0.334578 0.583227
Si Si3 0.551485 0.345448 0.866736
Si Si4 0.451684 0.335160 0.298648
Si Si5 0.051761 0.343292 0.000000
O O1 0.716658 0.646047 0.500000
O O2 0.718468 0.500000 0.377538
O O3 0.750000 0.750000 0.376789
O O4 0.664801 0.713919 0.391289
O O5 0.605922 0.279495 0.500000
O O6 0.615911 0.500000 0.582893
O O7 0.581330 0.272578 0.640349
O O8 0.500000 0.353517 0.871606
O O9 0.570232 0.500000 0.882609
O O10 0.564646 0.292976 0.784058
O O11 0.569732 0.236983 0.927199
O O12 0.500000 0.275913 0.314329
O O13 0.453111 0.500000 0.303915
O O14 0.069949 0.500000 0.000000
O O15 0.000000 0.344750 0.000000
#
# Coordination Sequence:
#
# PCOD8274935 Si02
#       5
#    16  16  16  16   8
#     4   8  13  21  33  48  65  84 106 135 171 206
#     4   8  13  20  30  46  67  89 114 144 174 199
#     4   8  13  21  32  45  62  84 108 133 162 196
#     4   8  13  20  30  45  65  90 118 143 167 197
#     4   9  15  21  31  47  63  79 104 137 168 197
#
# _framework density 13.481842
#
# number of rings (size 3 to 8) (size 9 to 14) (size 15 to 20)
#    0.000    3.889    0.000    3.000    0.000    1.778 
#    0.000    2.222    0.000    1.333    0.000    0.000 
#    0.000    0.000    0.000   18.333    0.000   27.222 
#
# Total GULP energy -446006.105760 kJ/mol
# GULP energy per Si atom -12389.058493 kJ/mol
# Density = 1.345116 g / cm^3
# Si number density = 13.481842 Si / 1000 Ang^3
#
#
#
# Elastic Constant Matrix: (Units=GPa)
#
#
# Indices 1 2 3 4 5 6 
#
# 1 71.8576 26.4300 51.1066 0.0000 0.0000 0.0000
# 2 26.4300 45.8060 34.6363 0.0000 0.0000 0.0000
# 3 51.1066 34.6363 94.2020 0.0000 0.0000 0.0000
# 4 0.0000 0.0000 0.0000 5.9952 0.0000 0.0000
# 5 0.0000 0.0000 0.0000 0.0000 1.5339 0.0000
# 6 0.0000 0.0000 0.0000 0.0000 0.0000 10.9189
#
#
#
# Elastic Compliance Matrix: (Units=1/GPa)
#
#
# Indices 1 2 3 4 5 6 
#
# 1 0.023603 -0.005452 -0.010801 0.000000 0.000000 0.000000
# 2 -0.005452 0.031498 -0.008623 0.000000 0.000000 0.000000
# 3 -0.010801 -0.008623 0.019646 0.000000 0.000000 0.000000
# 4 0.000000 0.000000 0.000000 0.166800 0.000000 0.000000
# 5 0.000000 0.000000 0.000000 0.000000 0.651926 0.000000
# 6 0.000000 0.000000 0.000000 0.000000 0.000000 0.091584
#
#
# Mechanical properties :
#
#
# Convention : Reuss Voigt Hill
#
# Bulk Modulus (GPa) = 40.00866 48.46796 44.23831
# Shear Modulus (GPa) = 4.79322 10.33578 7.56450
#
# Velocity S-wave (km/s) = 1.88760 2.77184 2.37130
# Velocity P-wave (km/s) = 5.87291 6.80240 6.35468
#
# Compressibility (1/GPa) = 0.02499459
#
# Stress axis : x y z
#
# Youngs Moduli (GPa) = 42.36662 31.74852 50.90178
#
# Poissons Ratio (x) = 0.17310 0.54978
# Poissons Ratio (y) = 0.23099 0.43893
# Poissons Ratio (z) = 0.45759 0.27377
#
# Static dielectric constant tensor:
#      x y z
#    x 2.663690 0.000000 0.000000 
#    y 0.000000 2.565760 0.000000 
#    z 0.000000 0.000000 2.810930 
# 
# 
# High freq. dielectric constant tensor:
#      x y z
#    x 1.476740 0.000000 0.000000 
#    y 0.000000 1.478370 0.000000 
#    z 0.000000 0.000000 1.496640 
# 
# From -- ./inp_files/57397.got.cif
#   From: 2010.03.12/outbox.cif.g09.slc.cpg/sg65_29_cif.got.tgz:57397.got - 2010.04.10 20:52:16.
