data_PCOD8274483
_publ_section_title
;
Structure prediction by ZEFSAII (Michael W. Deem and Ramdas Pophale) SiO2 
 PCOD8274483
Probable space group: C M M M
;
_chemical_formula_sum "Si O2"
_cell_formula_units_Z 104
_cell_length_a 18.056461
_cell_length_b 34.451619
_cell_length_c 8.843708
_cell_angle_alpha 90.000000
_cell_angle_beta 90.000000
_cell_angle_gamma 90.000000
_cell_volume 5501.443595
_symmetry_space_group_name_H-M "C M M M"
_symmetry_group_IT_number 65
_symmetry_cell_setting 'orthorhombic'
loop_
_space_group_symop_operation_xyz
x,y,z
-x,-y,z
x,-y,-z
-x,y,-z
-x,-y,-z
x,y,-z
-x,y,z
x,-y,z
1/2+x,1/2+y,z
1/2-x,1/2-y,z
1/2+x,1/2-y,-z
1/2-x,1/2+y,-z
1/2-x,1/2-y,-z
1/2+x,1/2+y,-z
1/2-x,1/2+y,z
1/2+x,1/2-y,z
loop_
_atom_site_type_symbol
_atom_site_label
_atom_site_fract_x
_atom_site_fract_y
_atom_site_fract_z
Si Si1 0.642144 0.180390 0.828837
Si Si2 0.583284 0.545782 0.828879
Si Si3 0.293285 0.593458 0.676430
Si Si4 0.688055 0.673785 0.827340
Si Si5 0.638541 0.094538 0.180655
Si Si6 0.500000 0.044053 0.820173
Si Si7 0.916904 0.240671 0.179087
O O1 0.728861 0.189472 0.820115
O O2 0.623322 0.138317 0.755468
O O3 0.601567 0.216892 0.748716
O O4 0.613659 0.177922 0.000000
O O5 0.500000 0.559385 0.786067
O O6 0.589006 0.500000 0.815281
O O7 0.641821 0.563513 0.713341
O O8 0.601834 0.559072 0.000000
O O9 0.277538 0.593903 0.500000
O O10 0.321223 0.635427 0.728927
O O11 0.217466 0.579932 0.757894
O O12 0.635904 0.707069 0.755746
O O13 0.665460 0.664000 0.000000
O O14 0.573355 0.066247 0.238634
O O15 0.644019 0.095121 0.000000
O O16 0.500000 0.000000 0.756966
O O17 0.500000 0.043783 0.000000
O O18 0.000000 0.229203 0.222248
O O19 0.903880 0.243334 0.000000
#
# Coordination Sequence:
#
# PCOD8274483 Si02
#       7
#    16  16  16  16  16   8  16
#     4   8  14  25  44  68  96 127 163 212 265 312
#     4   9  19  37  60  83 105 132 169 213 261 313
#     4  11  22  35  53  78 108 143 180 217 258 310
#     4   9  17  31  48  68  97 133 171 211 261 317
#     4   9  18  33  54  78 105 139 179 222 268 319
#     4   9  18  32  53  83 113 139 173 219 269 319
#     4   9  16  24  41  72 101 123 160 217 274 318
#
# _framework density 18.904129000000001
#
# number of rings (size 3 to 8) (size 9 to 14) (size 15 to 20)
#    0.000    2.846    0.000    3.231    1.077    3.692 
#    0.000    4.231    0.000    7.846    0.000    0.000 
#    0.000    0.000    0.000    0.000    0.000    0.000 
#
# Total GULP energy -644583.195501 kJ/mol
# GULP energy per Si atom -12395.830683 kJ/mol
# Density = 1.886110 g / cm^3
# Si number density = 18.904129 Si / 1000 Ang^3
#
#
#
# Elastic Constant Matrix: (Units=GPa)
#
#
# Indices 1 2 3 4 5 6 
#
# 1 124.9005 82.3951 24.2266 0.0000 0.0000 0.0000
# 2 82.3951 113.6516 21.9456 0.0000 0.0000 0.0000
# 3 24.2266 21.9456 41.6212 0.0000 0.0000 0.0000
# 4 0.0000 0.0000 0.0000 3.6681 0.0000 0.0000
# 5 0.0000 0.0000 0.0000 0.0000 7.5491 0.0000
# 6 0.0000 0.0000 0.0000 0.0000 0.0000 38.2383
#
#
#
# Elastic Compliance Matrix: (Units=1/GPa)
#
#
# Indices 1 2 3 4 5 6 
#
# 1 0.015794 -0.010772 -0.003514 0.000000 0.000000 0.000000
# 2 -0.010772 0.017143 -0.002769 0.000000 0.000000 0.000000
# 3 -0.003514 -0.002769 0.027531 0.000000 0.000000 0.000000
# 4 0.000000 0.000000 0.000000 0.272623 0.000000 0.000000
# 5 0.000000 0.000000 0.000000 0.000000 0.132465 0.000000
# 6 0.000000 0.000000 0.000000 0.000000 0.000000 0.026152
#
#
# Mechanical properties :
#
#
# Convention : Reuss Voigt Hill
#
# Bulk Modulus (GPa) = 37.93700 59.70089 48.81895
# Shear Modulus (GPa) = 9.35272 19.99816 14.67544
#
# Velocity S-wave (km/s) = 2.22670 3.25602 2.78925
# Velocity P-wave (km/s) = 5.16939 6.76646 6.02111
#
# Compressibility (1/GPa) = 0.02635949
#
# Stress axis : x y z
#
# Youngs Moduli (GPa) = 63.31561 58.33345 36.32224
#
# Poissons Ratio (x) = 0.62836 0.12762
# Poissons Ratio (y) = 0.68202 0.10057
# Poissons Ratio (z) = 0.22246 0.16152
#
# Static dielectric constant tensor:
#      x y z
#    x 3.516500 0.000000 0.000000 
#    y 0.000000 3.634930 0.000000 
#    z 0.000000 0.000000 2.935980 
# 
# 
# High freq. dielectric constant tensor:
#      x y z
#    x 1.740420 0.000000 0.000000 
#    y 0.000000 1.741610 0.000000 
#    z 0.000000 0.000000 1.672960 
# 
# From -- ./inp_files/12792.got.cif
#   From: 2010.03.12/outbox.cif.g09.slc.cpg/sg65_7_cif.got.tgz:12792.got - 2010.04.10 20:52:16.
