data_PCOD8274752
_publ_section_title
;
Structure prediction by ZEFSAII (Michael W. Deem and Ramdas Pophale) SiO2 
 PCOD8274752
Probable space group: C M M M
;
_chemical_formula_sum "Si O2"
_cell_formula_units_Z 80
_cell_length_a 9.843699
_cell_length_b 17.097097
_cell_length_c 24.071639
_cell_angle_alpha 90.000000
_cell_angle_beta 90.000000
_cell_angle_gamma 90.000000
_cell_volume 4051.224988
_symmetry_space_group_name_H-M "C M M M"
_symmetry_group_IT_number 65
_symmetry_cell_setting 'orthorhombic'
loop_
_space_group_symop_operation_xyz
x,y,z
-x,-y,z
x,-y,-z
-x,y,-z
-x,-y,-z
x,y,-z
-x,y,z
x,-y,z
1/2+x,1/2+y,z
1/2-x,1/2-y,z
1/2+x,1/2-y,-z
1/2-x,1/2+y,-z
1/2-x,1/2-y,-z
1/2+x,1/2+y,-z
1/2-x,1/2+y,z
1/2+x,1/2-y,z
loop_
_atom_site_type_symbol
_atom_site_label
_atom_site_fract_x
_atom_site_fract_y
_atom_site_fract_z
Si Si1 0.738838 0.912133 0.121387
Si Si2 0.844583 0.090277 0.657657
Si Si3 0.000000 0.316181 0.066912
Si Si4 0.500000 0.361939 0.935382
Si Si5 0.660469 0.673405 0.772958
Si Si6 0.847473 0.407062 0.438539
O O1 0.631577 0.854710 0.093579
O O2 0.870417 0.910369 0.083145
O O3 0.782243 0.888551 0.183242
O O4 0.679754 0.000000 0.123000
O O5 0.812649 0.138760 0.712468
O O6 0.754462 0.126440 0.607837
O O7 0.000000 0.099114 0.639212
O O8 0.808046 0.000000 0.669417
O O9 0.000000 0.226739 0.088003
O O10 0.000000 0.325450 0.000000
O O11 0.500000 0.354540 0.000000
O O12 0.500000 0.689708 0.783011
O O13 0.750000 0.750000 0.780045
O O14 0.806717 0.375806 0.500000
O O15 0.839059 0.500000 0.438945
O O16 0.000000 0.379658 0.423666
#
# Coordination Sequence:
#
# PCOD8274752 Si02
#       6
#    16  16   8   8  16  16
#     4  12  25  41  64  92 123 157 199 252 301 351
#     4   9  18  33  54  81 114 149 190 241 293 348
#     4  11  25  45  65  91 127 163 196 241 298 359
#     4  11  23  41  67  93 121 161 204 239 290 361
#     4  11  24  41  62  85 116 155 198 246 300 363
#     4   8  14  26  46  76 114 152 189 234 290 349
#
# _framework density 19.747112999999999
#
# number of rings (size 3 to 8) (size 9 to 14) (size 15 to 20)
#    0.000    1.800    1.000    4.200    1.400    6.000 
#    0.000    2.000    0.000    0.600    0.000    0.000 
#    0.000    0.000    0.000    0.000    0.000    0.000 
#
# Total GULP energy -495995.060961 kJ/mol
# GULP energy per Si atom -12399.876524 kJ/mol
# Density = 1.970217 g / cm^3
# Si number density = 19.747113 Si / 1000 Ang^3
#
#
#
# Elastic Constant Matrix: (Units=GPa)
#
#
# Indices 1 2 3 4 5 6 
#
# 1 86.4830 12.3739 48.6332 0.0000 0.0000 0.0000
# 2 12.3739 70.7382 28.2136 0.0000 0.0000 0.0000
# 3 48.6332 28.2136 108.2395 0.0000 0.0000 0.0000
# 4 0.0000 0.0000 0.0000 14.7617 0.0000 0.0000
# 5 0.0000 0.0000 0.0000 0.0000 43.3772 0.0000
# 6 0.0000 0.0000 0.0000 0.0000 0.0000 23.5349
#
#
#
# Elastic Compliance Matrix: (Units=1/GPa)
#
#
# Indices 1 2 3 4 5 6 
#
# 1 0.015473 0.000074 -0.006971 0.000000 0.000000 0.000000
# 2 0.000074 0.015777 -0.004146 0.000000 0.000000 0.000000
# 3 -0.006971 -0.004146 0.013452 0.000000 0.000000 0.000000
# 4 0.000000 0.000000 0.000000 0.067743 0.000000 0.000000
# 5 0.000000 0.000000 0.000000 0.000000 0.023054 0.000000
# 6 0.000000 0.000000 0.000000 0.000000 0.000000 0.042490
#
#
# Mechanical properties :
#
#
# Convention : Reuss Voigt Hill
#
# Bulk Modulus (GPa) = 44.21770 49.32246 46.77008
# Shear Modulus (GPa) = 24.08332 28.08410 26.08371
#
# Velocity S-wave (km/s) = 3.49605 3.77528 3.63834
# Velocity P-wave (km/s) = 6.22391 6.63588 6.43319
#
# Compressibility (1/GPa) = 0.02261538
#
# Stress axis : x y z
#
# Youngs Moduli (GPa) = 64.63010 63.38263 74.34025
#
# Poissons Ratio (x) = -0.00468 0.51825
# Poissons Ratio (y) = -0.00478 0.30819
# Poissons Ratio (z) = 0.45056 0.26276
#
# Static dielectric constant tensor:
#      x y z
#    x 3.792960 0.000000 0.000000 
#    y 0.000000 3.423610 0.000000 
#    z 0.000000 0.000000 3.857300 
# 
# 
# High freq. dielectric constant tensor:
#      x y z
#    x 1.776220 0.000000 0.000000 
#    y 0.000000 1.750480 0.000000 
#    z 0.000000 0.000000 1.784810 
# 
# From -- ./inp_files/72916.got.cif
#   From: 2010.03.12/outbox.cif.g09.slc.cpg/sg65_37_cif.got.tgz:72916.got - 2010.04.10 20:52:16.
