data_PCOD8274458
_publ_section_title
;
Structure prediction by ZEFSAII (Michael W. Deem and Ramdas Pophale) SiO2 
 PCOD8274458
Probable space group: C M M M
;
_chemical_formula_sum "Si O2"
_cell_formula_units_Z 104
_cell_length_a 30.239872
_cell_length_b 9.195212
_cell_length_c 22.683823
_cell_angle_alpha 90.000000
_cell_angle_beta 90.000000
_cell_angle_gamma 90.000000
_cell_volume 6307.509960
_symmetry_space_group_name_H-M "C M M M"
_symmetry_group_IT_number 65
_symmetry_cell_setting 'orthorhombic'
loop_
_space_group_symop_operation_xyz
x,y,z
-x,-y,z
x,-y,-z
-x,y,-z
-x,-y,-z
x,y,-z
-x,y,z
x,-y,z
1/2+x,1/2+y,z
1/2-x,1/2-y,z
1/2+x,1/2-y,-z
1/2-x,1/2+y,-z
1/2-x,1/2-y,-z
1/2+x,1/2+y,-z
1/2-x,1/2+y,z
1/2+x,1/2-y,z
loop_
_atom_site_type_symbol
_atom_site_label
_atom_site_fract_x
_atom_site_fract_y
_atom_site_fract_z
Si Si1 0.619283 0.327907 0.278235
Si Si2 0.550507 0.671621 0.178583
Si Si3 0.409084 0.339945 0.594695
Si Si4 0.293664 0.825467 0.316118
Si Si5 0.447586 0.162855 0.064480
Si Si6 0.550185 0.846983 0.500000
Si Si7 0.309568 0.663518 0.565741
O O1 0.630570 0.500000 0.274876
O O2 0.585931 0.275737 0.227093
O O3 0.593857 0.288829 0.338011
O O4 0.664961 0.237064 0.278606
O O5 0.500000 0.726176 0.192565
O O6 0.550366 0.500000 0.174512
O O7 0.568780 0.732148 0.116452
O O8 0.429945 0.500000 0.591888
O O9 0.441232 0.235790 0.560265
O O10 0.362131 0.337377 0.562837
O O11 0.250000 0.750000 0.288223
O O12 0.294206 0.779691 0.385445
O O13 0.292290 0.000000 0.310915
O O14 0.500000 0.163172 0.063110
O O15 0.430123 0.000000 0.077017
O O16 0.430055 0.215996 0.000000
O O17 0.500000 0.886150 0.500000
O O18 0.577094 0.000000 0.500000
O O19 0.292340 0.706684 0.500000
O O20 0.293131 0.500000 0.583094
#
# Coordination Sequence:
#
# PCOD8274458 Si02
#       7
#    16  16  16  16  16   8  16
#     4   9  19  35  52  70  95 124 156 198 242 284
#     4   9  17  29  47  72 100 130 165 203 239 276
#     4   9  17  32  50  64  79 109 148 185 229 282
#     4  11  22  35  51  71  94 121 154 191 237 290
#     4   8  14  25  41  63  95 134 169 199 233 273
#     4  11  23  33  41  59  86 111 142 191 241 281
#     4   9  17  32  52  70  89 111 138 177 227 284
#
# _framework density 16.488282000000002
#
# number of rings (size 3 to 8) (size 9 to 14) (size 15 to 20)
#    0.000    2.692    0.769    3.000    0.000    5.231 
#    0.000    3.077    0.000    1.846    0.000    0.000 
#    0.000    0.615    0.000    2.000    0.000    2.923 
#
# Total GULP energy -644311.845511 kJ/mol
# GULP energy per Si atom -12390.612414 kJ/mol
# Density = 1.645075 g / cm^3
# Si number density = 16.488282 Si / 1000 Ang^3
#
#
#
# Elastic Constant Matrix: (Units=GPa)
#
#
# Indices 1 2 3 4 5 6 
#
# 1 74.2715 44.7797 51.9198 0.0000 0.0000 0.0000
# 2 44.7797 76.4083 43.8899 0.0000 0.0000 0.0000
# 3 51.9198 43.8899 113.6286 0.0000 0.0000 0.0000
# 4 0.0000 0.0000 0.0000 18.7597 0.0000 0.0000
# 5 0.0000 0.0000 0.0000 0.0000 -31.4170 0.0000
# 6 0.0000 0.0000 0.0000 0.0000 0.0000 19.1350
#
#
#
# Elastic Compliance Matrix: (Units=1/GPa)
#
#
# Indices 1 2 3 4 5 6 
#
# 1 0.024835 -0.010328 -0.007359 0.000000 0.000000 0.000000
# 2 -0.010328 0.021114 -0.003436 0.000000 0.000000 0.000000
# 3 -0.007359 -0.003436 0.013490 0.000000 0.000000 0.000000
# 4 0.000000 0.000000 0.000000 0.053306 0.000000 0.000000
# 5 0.000000 0.000000 0.000000 0.000000 -0.031830 0.000000
# 6 0.000000 0.000000 0.000000 0.000000 0.000000 0.052260
#
#
# Mechanical properties :
#
#
# Convention : Reuss Voigt Hill
#
# Bulk Modulus (GPa) = 58.16065 60.60969 59.38517
# Shear Modulus (GPa) = 27.60103 9.54347 18.57225
#
# Velocity S-wave (km/s) = 4.09587 2.40844 3.35982
# Velocity P-wave (km/s) = 7.59728 6.67632 7.15164
#
# Compressibility (1/GPa) = 0.01719376
#
# Stress axis : x y z
#
# Youngs Moduli (GPa) = 40.26571 47.36134 74.12752
#
# Poissons Ratio (x) = 0.48914 0.54547
# Poissons Ratio (y) = 0.41586 0.25474
# Poissons Ratio (z) = 0.29630 0.16276
#
# Static dielectric constant tensor:
#      x y z
#    x 2.987450 0.000000 0.000000 
#    y 0.000000 3.141230 0.000000 
#    z 0.000000 0.000000 3.242950 
# 
# 
# High freq. dielectric constant tensor:
#      x y z
#    x 1.610300 0.000000 0.000000 
#    y 0.000000 1.635650 0.000000 
#    z 0.000000 0.000000 1.616130 
# 
# From -- ./inp_files/71814.got.cif
#   From: 2010.03.12/outbox.cif.g09.slc.cpg/sg65_36_cif.got.tgz:71814.got - 2010.04.10 20:52:16.
