data_PCOD8274638
_publ_section_title
;
Structure prediction by ZEFSAII (Michael W. Deem and Ramdas Pophale) SiO2 
 PCOD8274638
Probable space group: C M M M
;
_chemical_formula_sum "Si O2"
_cell_formula_units_Z 56
_cell_length_a 7.424803
_cell_length_b 18.200423
_cell_length_c 19.801288
_cell_angle_alpha 90.000000
_cell_angle_beta 90.000000
_cell_angle_gamma 90.000000
_cell_volume 2675.838248
_symmetry_space_group_name_H-M "C M M M"
_symmetry_group_IT_number 65
_symmetry_cell_setting 'orthorhombic'
loop_
_space_group_symop_operation_xyz
x,y,z
-x,-y,z
x,-y,-z
-x,y,-z
-x,-y,-z
x,y,-z
-x,y,z
x,-y,z
1/2+x,1/2+y,z
1/2-x,1/2-y,z
1/2+x,1/2-y,-z
1/2-x,1/2+y,-z
1/2-x,1/2-y,-z
1/2+x,1/2+y,-z
1/2-x,1/2+y,z
1/2+x,1/2-y,z
loop_
_atom_site_type_symbol
_atom_site_label
_atom_site_fract_x
_atom_site_fract_y
_atom_site_fract_z
Si Si1 0.213999 0.917807 0.298617
Si Si2 0.000000 0.584810 0.079675
Si Si3 0.710654 0.667202 0.574235
Si Si4 0.210189 0.164233 0.164994
O O1 0.295220 0.885423 0.368488
O O2 0.278622 0.867835 0.236454
O O3 0.000000 0.917632 0.302103
O O4 0.289330 0.000000 0.288881
O O5 0.179886 0.624058 0.106360
O O6 0.000000 0.500000 0.102232
O O7 0.000000 0.593226 0.000000
O O8 0.796726 0.651073 0.500000
O O9 0.500000 0.653410 0.569933
O O10 0.750000 0.750000 0.596595
O O11 0.250000 0.250000 0.163894
O O12 0.000000 0.148148 0.152647
#
# Coordination Sequence:
#
# PCOD8274638 Si02
#       4
#    16   8  16  16
#     4   9  18  32  53  81 114 151 195 248 303 363
#     4  11  26  46  68  98 132 164 204 253 310 378
#     4   9  17  30  49  73 104 145 191 242 297 354
#     4  11  22  41  66  95 126 166 210 258 309 365
#
# _framework density 20.928021999999999
#
# number of rings (size 3 to 8) (size 9 to 14) (size 15 to 20)
#    0.000    2.143    1.429    1.714    0.000    3.429 
#    2.571    4.286    0.000    0.000    0.000    4.000 
#    0.000    0.000    0.000    0.000    0.000    0.000 
#
# Total GULP energy -347162.566287 kJ/mol
# GULP energy per Si atom -12398.663082 kJ/mol
# Density = 2.088039 g / cm^3
# Si number density = 20.928022 Si / 1000 Ang^3
#
#
#
# Elastic Constant Matrix: (Units=GPa)
#
#
# Indices 1 2 3 4 5 6 
#
# 1 76.7391 29.1506 36.1419 0.0000 0.0000 0.0000
# 2 29.1506 182.6473 94.6265 0.0000 0.0000 0.0000
# 3 36.1419 94.6265 141.8331 0.0000 0.0000 0.0000
# 4 0.0000 0.0000 0.0000 45.5293 0.0000 0.0000
# 5 0.0000 0.0000 0.0000 0.0000 1.2191 0.0000
# 6 0.0000 0.0000 0.0000 0.0000 0.0000 12.1198
#
#
#
# Elastic Compliance Matrix: (Units=1/GPa)
#
#
# Indices 1 2 3 4 5 6 
#
# 1 0.014855 -0.000626 -0.003368 0.000000 0.000000 0.000000
# 2 -0.000626 0.008394 -0.005440 0.000000 0.000000 0.000000
# 3 -0.003368 -0.005440 0.011538 0.000000 0.000000 0.000000
# 4 0.000000 0.000000 0.000000 0.021964 0.000000 0.000000
# 5 0.000000 0.000000 0.000000 0.000000 0.820249 0.000000
# 6 0.000000 0.000000 0.000000 0.000000 0.000000 0.082509
#
#
# Mechanical properties :
#
#
# Convention : Reuss Voigt Hill
#
# Bulk Modulus (GPa) = 62.81937 80.11751 71.46844
# Shear Modulus (GPa) = 5.08294 27.86034 16.47164
#
# Velocity S-wave (km/s) = 1.56014 3.65258 2.80851
# Velocity P-wave (km/s) = 5.77299 7.49360 6.68885
#
# Compressibility (1/GPa) = 0.01591866
#
# Stress axis : x y z
#
# Youngs Moduli (GPa) = 67.31710 119.13961 86.66799
#
# Poissons Ratio (x) = 0.07460 0.29186
# Poissons Ratio (y) = 0.04215 0.47150
# Poissons Ratio (z) = 0.22670 0.64816
#
# Static dielectric constant tensor:
#      x y z
#    x 3.585410 0.000000 0.000000 
#    y 0.000000 3.863660 0.000000 
#    z 0.000000 0.000000 4.018300 
# 
# 
# High freq. dielectric constant tensor:
#      x y z
#    x 1.809360 0.000000 0.000000 
#    y 0.000000 1.823640 0.000000 
#    z 0.000000 0.000000 1.824110 
# 
# From -- ./inp_files/48800.got.cif
#   From: 2010.03.12/outbox.cif.g09.slc.cpg/sg65_25_cif.got.tgz:48800.got - 2010.04.10 20:52:16.
