data_PCOD8274455
_publ_section_title
;
Structure prediction by ZEFSAII (Michael W. Deem and Ramdas Pophale) SiO2 
 PCOD8274455
Probable space group: C M M M
;
_chemical_formula_sum "Si O2"
_cell_formula_units_Z 72
_cell_length_a 26.565118
_cell_length_b 10.071910
_cell_length_c 14.639123
_cell_angle_alpha 90.000000
_cell_angle_beta 90.000000
_cell_angle_gamma 90.000000
_cell_volume 3916.865381
_symmetry_space_group_name_H-M "C M M M"
_symmetry_group_IT_number 65
_symmetry_cell_setting 'orthorhombic'
loop_
_space_group_symop_operation_xyz
x,y,z
-x,-y,z
x,-y,-z
-x,y,-z
-x,-y,-z
x,y,-z
-x,y,z
x,-y,z
1/2+x,1/2+y,z
1/2-x,1/2-y,z
1/2+x,1/2-y,-z
1/2-x,1/2+y,-z
1/2-x,1/2-y,-z
1/2+x,1/2+y,-z
1/2-x,1/2+y,z
1/2+x,1/2-y,z
loop_
_atom_site_type_symbol
_atom_site_label
_atom_site_fract_x
_atom_site_fract_y
_atom_site_fract_z
Si Si1 0.698478 0.162536 0.000000
Si Si2 0.708802 0.357325 0.500000
Si Si3 0.056223 0.000000 0.105111
Si Si4 0.620130 0.243390 0.845604
Si Si5 0.371411 0.349072 0.653843
Si Si6 0.940658 0.500000 0.103785
Si Si7 0.556303 0.658603 0.500000
O O1 0.750000 0.250000 0.000000
O O2 0.667187 0.207085 0.910544
O O3 0.708032 0.000000 0.000000
O O4 0.735582 0.500000 0.500000
O O5 0.750000 0.250000 0.500000
O O6 0.677306 0.343214 0.408359
O O7 0.089855 0.873351 0.126854
O O8 0.000000 0.000000 0.153638
O O9 0.044232 0.000000 0.000000
O O10 0.639658 0.259526 0.742196
O O11 0.579322 0.127877 0.844671
O O12 0.383431 0.500000 0.685206
O O13 0.417359 0.290277 0.593048
O O14 0.000000 0.500000 0.105579
O O15 0.919811 0.500000 0.000000
O O16 0.560804 0.500000 0.500000
O O17 0.500000 0.712774 0.500000
#
# Coordination Sequence:
#
# PCOD8274455 Si02
#       7
#     8   8   8  16  16   8   8
#     4  12  28  46  65  86 116 164 207 250 311 366
#     4   9  19  40  61  85 114 147 193 245 301 354
#     4  11  22  34  58  93 124 161 203 246 291 339
#     4  12  21  41  60  88 127 158 203 249 297 360
#     4   9  19  34  58  86 118 153 190 242 295 344
#     4  11  22  40  62  83 120 169 205 242 295 357
#     4   8  15  30  51  81 119 156 191 231 282 343
#
# _framework density 18.382045999999999
#
# number of rings (size 3 to 8) (size 9 to 14) (size 15 to 20)
#    0.000    1.667    4.444    2.000    1.556    4.444 
#    2.000    2.222    0.000    0.000    0.000    2.333 
#    0.000    0.000    0.000    0.000    0.000    0.000 
#
# Total GULP energy -446155.252775 kJ/mol
# GULP energy per Si atom -12393.201466 kJ/mol
# Density = 1.834021 g / cm^3
# Si number density = 18.382046 Si / 1000 Ang^3
#
#
#
# Elastic Constant Matrix: (Units=GPa)
#
#
# Indices 1 2 3 4 5 6 
#
# 1 114.5389 65.1039 45.3659 0.0000 0.0000 0.0000
# 2 65.1039 135.2194 52.5959 0.0000 0.0000 0.0000
# 3 45.3659 52.5959 144.6369 0.0000 0.0000 0.0000
# 4 0.0000 0.0000 0.0000 24.4281 0.0000 0.0000
# 5 0.0000 0.0000 0.0000 0.0000 3.6453 0.0000
# 6 0.0000 0.0000 0.0000 0.0000 0.0000 41.5193
#
#
#
# Elastic Compliance Matrix: (Units=1/GPa)
#
#
# Indices 1 2 3 4 5 6 
#
# 1 0.012506 -0.005236 -0.002019 0.000000 0.000000 0.000000
# 2 -0.005236 0.010806 -0.002287 0.000000 0.000000 0.000000
# 3 -0.002019 -0.002287 0.008379 0.000000 0.000000 0.000000
# 4 0.000000 0.000000 0.000000 0.040936 0.000000 0.000000
# 5 0.000000 0.000000 0.000000 0.000000 0.274322 0.000000
# 6 0.000000 0.000000 0.000000 0.000000 0.000000 0.024085
#
#
# Mechanical properties :
#
#
# Convention : Reuss Voigt Hill
#
# Bulk Modulus (GPa) = 79.31960 80.05852 79.68906
# Shear Modulus (GPa) = 12.68000 29.34053 21.01027
#
# Velocity S-wave (km/s) = 2.62926 3.99952 3.38446
# Velocity P-wave (km/s) = 7.24304 8.06073 7.66280
#
# Compressibility (1/GPa) = 0.01260723
#
# Stress axis : x y z
#
# Youngs Moduli (GPa) = 79.95849 92.53994 119.35023
#
# Poissons Ratio (x) = 0.48457 0.24092
# Poissons Ratio (y) = 0.41869 0.27297
# Poissons Ratio (z) = 0.16140 0.21165
#
# Static dielectric constant tensor:
#      x y z
#    x 1.698330 0.000000 0.000000 
#    y 0.000000 3.395960 0.000000 
#    z 0.000000 0.000000 3.524280 
# 
# 
# High freq. dielectric constant tensor:
#      x y z
#    x 1.713330 0.000000 0.000000 
#    y 0.000000 1.702500 0.000000 
#    z 0.000000 0.000000 1.718500 
# 
# From -- ./inp_files/36731.got.cif
#   From: 2010.03.12/outbox.cif.g09.slc.cpg/sg65_19_cif.got.tgz:36731.got - 2010.04.10 20:52:16.
