data_PCOD8274675
_publ_section_title
;
Structure prediction by ZEFSAII (Michael W. Deem and Ramdas Pophale) SiO2 
 PCOD8274675
Probable space group: C M M M
;
_chemical_formula_sum "Si O2"
_cell_formula_units_Z 80
_cell_length_a 18.290930
_cell_length_b 9.311880
_cell_length_c 25.694800
_cell_angle_alpha 90.000000
_cell_angle_beta 90.000000
_cell_angle_gamma 90.000000
_cell_volume 4376.414014
_symmetry_space_group_name_H-M "C M M M"
_symmetry_group_IT_number 65
_symmetry_cell_setting 'orthorhombic'
loop_
_space_group_symop_operation_xyz
x,y,z
-x,-y,z
x,-y,-z
-x,y,-z
-x,-y,-z
x,y,-z
-x,y,z
x,-y,z
1/2+x,1/2+y,z
1/2-x,1/2-y,z
1/2+x,1/2-y,-z
1/2-x,1/2+y,-z
1/2-x,1/2-y,-z
1/2+x,1/2+y,-z
1/2-x,1/2+y,z
1/2+x,1/2-y,z
loop_
_atom_site_type_symbol
_atom_site_label
_atom_site_fract_x
_atom_site_fract_y
_atom_site_fract_z
Si Si1 0.414651 0.833016 0.287422
Si Si2 0.674067 0.669524 0.798276
Si Si3 0.584281 0.665811 0.099232
Si Si4 0.412976 0.162368 0.000000
Si Si5 0.587410 0.660253 0.500000
Si Si6 0.413209 0.841365 0.595820
O O1 0.500000 0.802718 0.278641
O O2 0.369382 0.728190 0.251017
O O3 0.390697 0.792159 0.346233
O O4 0.397004 0.000000 0.275832
O O5 0.686374 0.500000 0.791537
O O6 0.750000 0.750000 0.803092
O O7 0.628559 0.706905 0.849616
O O8 0.500000 0.704046 0.110231
O O9 0.593432 0.500000 0.084055
O O10 0.616497 0.758398 0.051511
O O11 0.500000 0.168951 0.000000
O O12 0.383463 0.000000 0.000000
O O13 0.618098 0.500000 0.500000
O O14 0.500000 0.663525 0.500000
O O15 0.618735 0.735674 0.448036
O O16 0.500000 0.846200 0.592536
O O17 0.381923 0.000000 0.584474
#
# Coordination Sequence:
#
# PCOD8274675 Si02
#       6
#    16  16  16   8   8  16
#     4   9  18  33  53  76 101 131 169 212 256 302
#     4  11  23  37  53  74 102 136 173 212 256 304
#     4   9  18  34  55  77 102 133 167 203 246 297
#     4   9  17  29  50  81 108 129 159 201 246 291
#     4   9  15  21  33  59  94 127 158 197 244 289
#     4   8  14  25  41  62  91 127 162 196 241 297
#
# _framework density 18.279806000000001
#
# number of rings (size 3 to 8) (size 9 to 14) (size 15 to 20)
#    0.000    2.800    0.000    3.000    0.000    6.000 
#    0.000    4.500    0.000    0.000    0.000    0.700 
#    0.000    0.000    0.000    0.000    0.000    0.000 
#
# Total GULP energy -495924.662610 kJ/mol
# GULP energy per Si atom -12398.116565 kJ/mol
# Density = 1.823820 g / cm^3
# Si number density = 18.279806 Si / 1000 Ang^3
#
#
#
# Elastic Constant Matrix: (Units=GPa)
#
#
# Indices 1 2 3 4 5 6 
#
# 1 54.3821 46.7921 51.8902 0.0000 0.0000 0.0000
# 2 46.7921 129.4939 104.6863 0.0000 0.0000 0.0000
# 3 51.8902 104.6863 178.8722 0.0000 0.0000 0.0000
# 4 0.0000 0.0000 0.0000 35.4809 0.0000 0.0000
# 5 0.0000 0.0000 0.0000 0.0000 -3.1542 0.0000
# 6 0.0000 0.0000 0.0000 0.0000 0.0000 19.0272
#
#
#
# Elastic Compliance Matrix: (Units=1/GPa)
#
#
# Indices 1 2 3 4 5 6 
#
# 1 0.028268 -0.006805 -0.004218 0.000000 0.000000 0.000000
# 2 -0.006805 0.016295 -0.007563 0.000000 0.000000 0.000000
# 3 -0.004218 -0.007563 0.011240 0.000000 0.000000 0.000000
# 4 0.000000 0.000000 0.000000 0.028184 0.000000 0.000000
# 5 0.000000 0.000000 0.000000 0.000000 -0.317034 0.000000
# 6 0.000000 0.000000 0.000000 0.000000 0.000000 0.052556
#
#
# Mechanical properties :
#
#
# Convention : Reuss Voigt Hill
#
# Bulk Modulus (GPa) = 53.66914 85.49839 69.58376
# Shear Modulus (GPa) = -36.46777 20.89607 -7.78585
#
# Velocity S-wave (km/s) = -4.47136 3.38468 -2.06604
# Velocity P-wave (km/s) = 1.66316 7.88342 5.69712
#
# Compressibility (1/GPa) = 0.01863268
#
# Stress axis : x y z
#
# Youngs Moduli (GPa) = 35.37565 61.36758 88.96416
#
# Poissons Ratio (x) = 0.41758 0.37525
# Poissons Ratio (y) = 0.24072 0.67283
# Poissons Ratio (z) = 0.14922 0.46412
#
# Static dielectric constant tensor:
#      x y z
#    x 2.937780 0.000000 0.000000 
#    y 0.000000 3.496920 0.000000 
#    z 0.000000 0.000000 3.596670 
# 
# 
# High freq. dielectric constant tensor:
#      x y z
#    x 1.657990 0.000000 0.000000 
#    y 0.000000 1.712840 0.000000 
#    z 0.000000 0.000000 1.725660 
# 
# From -- ./inp_files/75092.got.cif
#   From: 2010.03.12/outbox.cif.g09.slc.cpg/sg65_38_cif.got.tgz:75092.got - 2010.04.10 20:52:16.
