data_PCOD8274340
_publ_section_title
;
Structure prediction by ZEFSAII (Michael W. Deem and Ramdas Pophale) SiO2 
 PCOD8274340
Probable space group: C M M M
;
_chemical_formula_sum "Si O2"
_cell_formula_units_Z 104
_cell_length_a 8.975191
_cell_length_b 28.229420
_cell_length_c 22.747273
_cell_angle_alpha 90.000000
_cell_angle_beta 90.000000
_cell_angle_gamma 90.000000
_cell_volume 5763.350001
_symmetry_space_group_name_H-M "C M M M"
_symmetry_group_IT_number 65
_symmetry_cell_setting 'orthorhombic'
loop_
_space_group_symop_operation_xyz
x,y,z
-x,-y,z
x,-y,-z
-x,y,-z
-x,-y,-z
x,y,-z
-x,y,z
x,-y,z
1/2+x,1/2+y,z
1/2-x,1/2-y,z
1/2+x,1/2-y,-z
1/2-x,1/2+y,-z
1/2-x,1/2-y,-z
1/2+x,1/2+y,-z
1/2-x,1/2+y,z
1/2+x,1/2-y,z
loop_
_atom_site_type_symbol
_atom_site_label
_atom_site_fract_x
_atom_site_fract_y
_atom_site_fract_z
Si Si1 0.327031 0.296188 0.850717
Si Si2 0.825240 0.898159 0.889106
Si Si3 0.174472 0.796915 0.282593
Si Si4 0.828595 0.554674 0.432385
Si Si5 0.175972 0.554391 0.000000
Si Si6 0.328894 0.944301 0.779198
Si Si7 0.824713 0.102253 0.328630
O O1 0.500000 0.285607 0.849528
O O2 0.250000 0.250000 0.879053
O O3 0.290745 0.342077 0.889909
O O4 0.268918 0.304882 0.784260
O O5 0.738460 0.921181 0.942369
O O6 0.771158 0.919326 0.827922
O O7 0.000000 0.908309 0.895636
O O8 0.250000 0.750000 0.309979
O O9 0.221055 0.842963 0.319753
O O10 0.000000 0.788752 0.284756
O O11 0.799900 0.567797 0.500000
O O12 0.788779 0.500000 0.420755
O O13 0.720490 0.587673 0.394278
O O14 0.000000 0.564275 0.415370
O O15 0.226409 0.500000 0.000000
O O16 0.000000 0.559446 0.000000
O O17 0.500000 0.927547 0.784682
O O18 0.265567 0.931095 0.715668
O O19 0.316550 0.000000 0.788436
O O20 0.000000 0.094913 0.318125
#
# Coordination Sequence:
#
# PCOD8274340 Si02
#       7
#    16  16  16  16   8  16  16
#     4   9  18  34  55  81 111 140 175 219 268 324
#     4  11  22  39  60  83 110 142 182 227 274 324
#     4   9  18  33  51  77 110 141 175 218 268 322
#     4   9  19  36  55  76 107 147 188 227 268 321
#     4  11  25  43  60  81 110 145 188 229 266 323
#     4  11  23  36  52  78 111 145 181 222 270 324
#     4  11  21  34  53  81 113 141 178 227 275 323
#
# _framework density 18.045061
#
# number of rings (size 3 to 8) (size 9 to 14) (size 15 to 20)
#    0.000    1.923    1.538    3.000    0.000    8.615 
#    0.000    1.154    0.000    0.462    0.000    0.000 
#    0.000    0.000    0.000    0.000    0.000    0.000 
#
# Total GULP energy -644931.643587 kJ/mol
# GULP energy per Si atom -12402.531607 kJ/mol
# Density = 1.800399 g / cm^3
# Si number density = 18.045061 Si / 1000 Ang^3
#
#
#
# Elastic Constant Matrix: (Units=GPa)
#
#
# Indices 1 2 3 4 5 6 
#
# 1 55.9647 56.0443 27.9968 0.0000 0.0000 0.0000
# 2 56.0443 118.8568 45.2998 0.0000 0.0000 0.0000
# 3 27.9968 45.2998 79.2454 0.0000 0.0000 0.0000
# 4 0.0000 0.0000 0.0000 34.9915 0.0000 0.0000
# 5 0.0000 0.0000 0.0000 0.0000 36.0910 0.0000
# 6 0.0000 0.0000 0.0000 0.0000 0.0000 34.0116
#
#
#
# Elastic Compliance Matrix: (Units=1/GPa)
#
#
# Indices 1 2 3 4 5 6 
#
# 1 0.034689 -0.014941 -0.003714 0.000000 0.000000 0.000000
# 2 -0.014941 0.017193 -0.004549 0.000000 0.000000 0.000000
# 3 -0.003714 -0.004549 0.016532 0.000000 0.000000 0.000000
# 4 0.000000 0.000000 0.000000 0.028578 0.000000 0.000000
# 5 0.000000 0.000000 0.000000 0.000000 0.027708 0.000000
# 6 0.000000 0.000000 0.000000 0.000000 0.000000 0.029402
#
#
# Mechanical properties :
#
#
# Convention : Reuss Voigt Hill
#
# Bulk Modulus (GPa) = 45.44708 56.97208 51.20958
# Shear Modulus (GPa) = 24.05633 29.33389 26.69511
#
# Velocity S-wave (km/s) = 3.65516 4.03624 3.85042
# Velocity P-wave (km/s) = 6.56152 7.30495 6.94319
#
# Compressibility (1/GPa) = 0.02200361
#
# Stress axis : x y z
#
# Youngs Moduli (GPa) = 28.82761 58.16477 60.48926
#
# Poissons Ratio (x) = 0.86905 0.22468
# Poissons Ratio (y) = 0.43072 0.27519
# Poissons Ratio (z) = 0.10708 0.26461
#
# Static dielectric constant tensor:
#      x y z
#    x 3.372140 0.000000 0.000000 
#    y 0.000000 3.470180 0.000000 
#    z 0.000000 0.000000 3.530510 
# 
# 
# High freq. dielectric constant tensor:
#      x y z
#    x 1.705520 0.000000 0.000000 
#    y 0.000000 1.706340 0.000000 
#    z 0.000000 0.000000 1.680760 
# 
# From -- ./inp_files/60456.got.cif
#   From: 2010.03.12/outbox.cif.g09.slc.cpg/sg65_31_cif.got.tgz:60456.got - 2010.04.10 20:52:16.
