data_PCOD8274469
_publ_section_title
;
Structure prediction by ZEFSAII (Michael W. Deem and Ramdas Pophale) SiO2 
 PCOD8274469
Probable space group: C M M M
;
_chemical_formula_sum "Si O2"
_cell_formula_units_Z 88
_cell_length_a 9.191709
_cell_length_b 16.847257
_cell_length_c 29.732225
_cell_angle_alpha 90.000000
_cell_angle_beta 90.000000
_cell_angle_gamma 90.000000
_cell_volume 4604.186194
_symmetry_space_group_name_H-M "C M M M"
_symmetry_group_IT_number 65
_symmetry_cell_setting 'orthorhombic'
loop_
_space_group_symop_operation_xyz
x,y,z
-x,-y,z
x,-y,-z
-x,y,-z
-x,-y,-z
x,y,-z
-x,y,z
x,-y,z
1/2+x,1/2+y,z
1/2-x,1/2-y,z
1/2+x,1/2-y,-z
1/2-x,1/2+y,-z
1/2-x,1/2-y,-z
1/2+x,1/2+y,-z
1/2-x,1/2+y,z
1/2+x,1/2-y,z
loop_
_atom_site_type_symbol
_atom_site_label
_atom_site_fract_x
_atom_site_fract_y
_atom_site_fract_z
Si Si1 0.160396 0.592829 0.549364
Si Si2 0.672646 0.413831 0.713153
Si Si3 0.328636 0.500000 0.051720
Si Si4 0.669227 0.671663 0.800574
Si Si5 0.171967 0.834403 0.902923
Si Si6 0.828484 0.170366 0.375017
O O1 0.203927 0.627746 0.500000
O O2 0.148942 0.500000 0.544978
O O3 0.283250 0.609496 0.586328
O O4 0.000000 0.626443 0.563331
O O5 0.500000 0.416311 0.710689
O O6 0.739193 0.500000 0.703184
O O7 0.721670 0.391949 0.763817
O O8 0.730735 0.355852 0.674233
O O9 0.500000 0.500000 0.059223
O O10 0.270399 0.415162 0.072036
O O11 0.282014 0.500000 0.000000
O O12 0.500000 0.689025 0.796760
O O13 0.750000 0.750000 0.786230
O O14 0.709064 0.645667 0.851147
O O15 0.250000 0.750000 0.917462
O O16 0.000000 0.821921 0.911557
O O17 0.750000 0.250000 0.388715
O O18 0.000000 0.180645 0.374640
#
# Coordination Sequence:
#
# PCOD8274469 Si02
#       6
#    16  16   8  16  16  16
#     4   9  19  37  59  80 102 129 162 203 251 301
#     4   9  18  31  49  74 100 127 163 208 252 298
#     4   9  18  32  51  77 107 139 181 229 270 317
#     4   9  17  30  50  73  99 130 166 207 252 305
#     4   9  18  32  52  77 104 139 179 222 271 322
#     4  11  22  35  52  74 102 135 168 206 250 298
#
# _framework density 19.113040999999999
#
# number of rings (size 3 to 8) (size 9 to 14) (size 15 to 20)
#    0.000    2.636    0.000    2.182    1.273    2.182 
#    0.000    2.273    0.000    3.273    0.000    0.000 
#    0.000    0.000    0.000    0.000    0.000    0.000 
#
# Total GULP energy -545086.200736 kJ/mol
# GULP energy per Si atom -12388.322744 kJ/mol
# Density = 1.906954 g / cm^3
# Si number density = 19.113041 Si / 1000 Ang^3
#
#
#
# Elastic Constant Matrix: (Units=GPa)
#
#
# Indices 1 2 3 4 5 6 
#
# 1 41.1361 30.7897 31.7598 0.0000 0.0000 0.0000
# 2 30.7897 110.0850 55.7093 0.0000 0.0000 0.0000
# 3 31.7598 55.7093 122.0306 0.0000 0.0000 0.0000
# 4 0.0000 0.0000 0.0000 27.9472 0.0000 0.0000
# 5 0.0000 0.0000 0.0000 0.0000 17.7770 0.0000
# 6 0.0000 0.0000 0.0000 0.0000 0.0000 25.9762
#
#
#
# Elastic Compliance Matrix: (Units=1/GPa)
#
#
# Indices 1 2 3 4 5 6 
#
# 1 0.033630 -0.006472 -0.005798 0.000000 0.000000 0.000000
# 2 -0.006472 0.013058 -0.004277 0.000000 0.000000 0.000000
# 3 -0.005798 -0.004277 0.011656 0.000000 0.000000 0.000000
# 4 0.000000 0.000000 0.000000 0.035782 0.000000 0.000000
# 5 0.000000 0.000000 0.000000 0.000000 0.056252 0.000000
# 6 0.000000 0.000000 0.000000 0.000000 0.000000 0.038497
#
#
# Mechanical properties :
#
#
# Convention : Reuss Voigt Hill
#
# Bulk Modulus (GPa) = 39.60269 56.64103 48.12186
# Shear Modulus (GPa) = 21.70265 24.67294 23.18780
#
# Velocity S-wave (km/s) = 3.37336 3.59680 3.48687
# Velocity P-wave (km/s) = 5.99483 6.85189 6.43764
#
# Compressibility (1/GPa) = 0.02525081
#
# Stress axis : x y z
#
# Youngs Moduli (GPa) = 29.73528 76.57885 85.79100
#
# Poissons Ratio (x) = 0.49561 0.49742
# Poissons Ratio (y) = 0.19244 0.36693
# Poissons Ratio (z) = 0.17241 0.32753
#
# Static dielectric constant tensor:
#      x y z
#    x 3.341840 0.000000 0.000000 
#    y 0.000000 3.353320 0.000000 
#    z 0.000000 0.000000 3.690820 
# 
# 
# High freq. dielectric constant tensor:
#      x y z
#    x 1.706920 0.000000 0.000000 
#    y 0.000000 1.744900 0.000000 
#    z 0.000000 0.000000 1.754220 
# 
# From -- ./inp_files/76483.got.cif
#   From: 2010.03.12/outbox.cif.g09.slc.cpg/sg65_39_cif.got.tgz:76483.got - 2010.04.10 20:52:16.
