data_PCOD8274204
_publ_section_title
;
Structure prediction by ZEFSAII (Michael W. Deem and Ramdas Pophale) SiO2 
 PCOD8274204
Probable space group: C M M M
;
_chemical_formula_sum "Si O2"
_cell_formula_units_Z 96
_cell_length_a 8.823376
_cell_length_b 27.699844
_cell_length_c 24.288600
_cell_angle_alpha 90.000000
_cell_angle_beta 90.000000
_cell_angle_gamma 90.000000
_cell_volume 5936.282942
_symmetry_space_group_name_H-M "C M M M"
_symmetry_group_IT_number 65
_symmetry_cell_setting 'orthorhombic'
loop_
_space_group_symop_operation_xyz
x,y,z
-x,-y,z
x,-y,-z
-x,y,-z
-x,-y,-z
x,y,-z
-x,y,z
x,-y,z
1/2+x,1/2+y,z
1/2-x,1/2-y,z
1/2+x,1/2-y,-z
1/2-x,1/2+y,-z
1/2-x,1/2-y,-z
1/2+x,1/2+y,-z
1/2-x,1/2+y,z
1/2+x,1/2-y,z
loop_
_atom_site_type_symbol
_atom_site_label
_atom_site_fract_x
_atom_site_fract_y
_atom_site_fract_z
Si Si1 0.822594 0.697749 0.940354
Si Si2 0.322472 0.853735 0.268875
Si Si3 0.178915 0.197042 0.831884
Si Si4 0.319758 0.053275 0.332886
Si Si5 0.680766 0.105799 0.439186
Si Si6 0.323543 0.199654 0.379521
O O1 0.750000 0.750000 0.944431
O O2 0.740065 0.672151 0.888693
O O3 0.000000 0.702268 0.927409
O O4 0.796742 0.671440 0.000000
O O5 0.500000 0.853278 0.254008
O O6 0.224792 0.839079 0.216443
O O7 0.268215 0.907279 0.287762
O O8 0.285993 0.815828 0.317139
O O9 0.250000 0.250000 0.822583
O O10 0.000000 0.202530 0.834112
O O11 0.500000 0.053507 0.334780
O O12 0.259367 0.067415 0.393983
O O13 0.257177 0.000000 0.317369
O O14 0.744512 0.093018 0.500000
O O15 0.500000 0.105351 0.439423
O O16 0.737936 0.158977 0.421452
O O17 0.500000 0.205956 0.387318
O O18 0.250000 0.250000 0.394873
#
# Coordination Sequence:
#
# PCOD8274204 Si02
#       6
#    16  16  16  16  16  16
#     4   9  16  26  40  58  83 116 150 179 207 239
#     4   9  17  29  42  58  83 109 137 175 213 253
#     4  11  20  28  41  61  86 116 149 180 210 244
#     4   8  14  25  42  62  81 104 134 169 213 260
#     4   8  14  24  37  56  82 106 130 165 208 252
#     4   9  17  27  39  55  77 108 139 168 205 245
#
# _framework density 16.171735999999999
#
# number of rings (size 3 to 8) (size 9 to 14) (size 15 to 20)
#    0.000    3.000    0.000    5.500    0.000    3.667 
#    0.000    1.667    0.000    0.500    0.000    0.000 
#    0.000    0.667    0.000   15.000    0.000    9.500 
#
# Total GULP energy -594711.948019 kJ/mol
# GULP energy per Si atom -12389.832250 kJ/mol
# Density = 1.613493 g / cm^3
# Si number density = 16.171736 Si / 1000 Ang^3
#
#
#
# Elastic Constant Matrix: (Units=GPa)
#
#
# Indices 1 2 3 4 5 6 
#
# 1 59.0253 21.1176 42.9442 0.0000 0.0000 0.0000
# 2 21.1176 91.8546 42.8059 0.0000 0.0000 0.0000
# 3 42.9442 42.8059 126.5995 0.0000 0.0000 0.0000
# 4 0.0000 0.0000 0.0000 3.7033 0.0000 0.0000
# 5 0.0000 0.0000 0.0000 0.0000 15.7096 0.0000
# 6 0.0000 0.0000 0.0000 0.0000 0.0000 13.3011
#
#
#
# Elastic Compliance Matrix: (Units=1/GPa)
#
#
# Indices 1 2 3 4 5 6 
#
# 1 0.022781 -0.001942 -0.007071 0.000000 0.000000 0.000000
# 2 -0.001942 0.013089 -0.003767 0.000000 0.000000 0.000000
# 3 -0.007071 -0.003767 0.011571 0.000000 0.000000 0.000000
# 4 0.000000 0.000000 0.000000 0.270029 0.000000 0.000000
# 5 0.000000 0.000000 0.000000 0.000000 0.063655 0.000000
# 6 0.000000 0.000000 0.000000 0.000000 0.000000 0.075182
#
#
# Mechanical properties :
#
#
# Convention : Reuss Voigt Hill
#
# Bulk Modulus (GPa) = 45.70145 54.57942 50.14044
# Shear Modulus (GPa) = 10.22159 17.91692 14.06926
#
# Velocity S-wave (km/s) = 2.51682 3.33215 2.95276
# Velocity P-wave (km/s) = 6.06360 6.97334 6.53432
#
# Compressibility (1/GPa) = 0.02188114
#
# Stress axis : x y z
#
# Youngs Moduli (GPa) = 43.89557 76.40210 86.42217
#
# Poissons Ratio (x) = 0.14839 0.61109
# Poissons Ratio (y) = 0.08526 0.32553
# Poissons Ratio (z) = 0.31039 0.28778
#
# Static dielectric constant tensor:
#      x y z
#    x 2.796150 0.000000 0.000000 
#    y 0.000000 3.327130 0.000000 
#    z 0.000000 0.000000 3.571310 
# 
# 
# High freq. dielectric constant tensor:
#      x y z
#    x 1.595880 0.000000 0.000000 
#    y 0.000000 1.585290 0.000000 
#    z 0.000000 0.000000 1.629270 
# 
# From -- ./inp_files/73691.got.cif
#   From: 2010.03.12/outbox.cif.g09.slc.cpg/sg65_37_cif.got.tgz:73691.got - 2010.04.10 20:52:16.
