data_PCOD8274594
_publ_section_title
;
Structure prediction by ZEFSAII (Michael W. Deem and Ramdas Pophale) SiO2 
 PCOD8274594
Probable space group: C M M M
;
_chemical_formula_sum "Si O2"
_cell_formula_units_Z 72
_cell_length_a 17.599305
_cell_length_b 23.564448
_cell_length_c 8.426402
_cell_angle_alpha 90.000000
_cell_angle_beta 90.000000
_cell_angle_gamma 90.000000
_cell_volume 3494.579805
_symmetry_space_group_name_H-M "C M M M"
_symmetry_group_IT_number 65
_symmetry_cell_setting 'orthorhombic'
loop_
_space_group_symop_operation_xyz
x,y,z
-x,-y,z
x,-y,-z
-x,y,-z
-x,-y,-z
x,y,-z
-x,y,z
x,-y,z
1/2+x,1/2+y,z
1/2-x,1/2-y,z
1/2+x,1/2-y,-z
1/2-x,1/2+y,-z
1/2-x,1/2-y,-z
1/2+x,1/2+y,-z
1/2-x,1/2+y,z
1/2+x,1/2-y,z
loop_
_atom_site_type_symbol
_atom_site_label
_atom_site_fract_x
_atom_site_fract_y
_atom_site_fract_z
Si Si1 0.357040 0.867352 0.685836
Si Si2 0.783433 0.934697 0.814984
Si Si3 0.500000 0.937617 0.311611
Si Si4 0.912988 0.861671 0.314981
Si Si5 0.663281 0.251973 0.184522
O O1 0.362824 0.854249 0.500000
O O2 0.277058 0.897274 0.719776
O O3 0.424200 0.907212 0.748672
O O4 0.370772 0.809610 0.781438
O O5 0.866480 0.909373 0.780360
O O6 0.780182 0.000000 0.758149
O O7 0.765266 0.929502 0.000000
O O8 0.500000 0.940641 0.500000
O O9 0.500000 0.000000 0.236027
O O10 0.905618 0.874847 0.500000
O O11 0.882023 0.798751 0.282737
O O12 0.000000 0.865279 0.257719
O O13 0.750000 0.250000 0.242959
O O14 0.657350 0.267666 0.000000
#
# Coordination Sequence:
#
# PCOD8274594 Si02
#       5
#    16  16   8  16  16
#     4  11  22  38  64  93 123 163 210 259 309 364
#     4  11  24  42  64  91 124 163 207 254 311 378
#     4   9  20  38  59  89 127 163 202 251 306 361
#     4  11  25  43  65  94 125 160 208 261 311 366
#     4  11  23  40  63  91 124 161 202 249 308 372
#
# _framework density 20.603335999999999
#
# number of rings (size 3 to 8) (size 9 to 14) (size 15 to 20)
#    0.000    1.222    2.222    3.333    1.556    5.778 
#    0.000    3.889    0.000    4.000    0.000    0.000 
#    0.000    0.000    0.000    0.000    0.000    0.000 
#
# Total GULP energy -446615.176757 kJ/mol
# GULP energy per Si atom -12405.977132 kJ/mol
# Density = 2.055644 g / cm^3
# Si number density = 20.603336 Si / 1000 Ang^3
#
#
#
# Elastic Constant Matrix: (Units=GPa)
#
#
# Indices 1 2 3 4 5 6 
#
# 1 108.2234 19.9623 13.9028 0.0000 0.0000 0.0000
# 2 19.9623 116.4078 5.8310 0.0000 0.0000 0.0000
# 3 13.9028 5.8310 35.6967 0.0000 0.0000 0.0000
# 4 0.0000 0.0000 0.0000 30.8879 0.0000 0.0000
# 5 0.0000 0.0000 0.0000 0.0000 14.4793 0.0000
# 6 0.0000 0.0000 0.0000 0.0000 0.0000 37.2093
#
#
#
# Elastic Compliance Matrix: (Units=1/GPa)
#
#
# Indices 1 2 3 4 5 6 
#
# 1 0.009990 -0.001531 -0.003641 0.000000 0.000000 0.000000
# 2 -0.001531 0.008896 -0.000857 0.000000 0.000000 0.000000
# 3 -0.003641 -0.000857 0.029572 0.000000 0.000000 0.000000
# 4 0.000000 0.000000 0.000000 0.032375 0.000000 0.000000
# 5 0.000000 0.000000 0.000000 0.000000 0.069064 0.000000
# 6 0.000000 0.000000 0.000000 0.000000 0.000000 0.026875
#
#
# Mechanical properties :
#
#
# Convention : Reuss Voigt Hill
#
# Bulk Modulus (GPa) = 27.47192 37.74667 32.60929
# Shear Modulus (GPa) = 24.88018 31.22408 28.05213
#
# Velocity S-wave (km/s) = 3.47880 3.89715 3.69390
# Velocity P-wave (km/s) = 5.43127 6.21376 5.83564
#
# Compressibility (1/GPa) = 0.03640080
#
# Stress axis : x y z
#
# Youngs Moduli (GPa) = 100.09782 112.41099 33.81599
#
# Poissons Ratio (x) = 0.17208 0.12312
# Poissons Ratio (y) = 0.15323 0.02898
# Poissons Ratio (z) = 0.36444 0.09633
#
# Static dielectric constant tensor:
#      x y z
#    x 3.850270 0.000000 0.000000 
#    y 0.000000 3.885240 0.000000 
#    z 0.000000 0.000000 3.553930 
# 
# 
# High freq. dielectric constant tensor:
#      x y z
#    x 1.812450 0.000000 0.000000 
#    y 0.000000 1.819320 0.000000 
#    z 0.000000 0.000000 1.800630 
# 
# From -- ./inp_files/9252.got.cif
#   From: 2010.03.12/outbox.cif.g09.slc.cpg/sg65_5_cif.got.tgz:9252.got - 2010.04.10 20:52:16.
