data_PCOD8274107
_publ_section_title
;
Structure prediction by ZEFSAII (Michael W. Deem and Ramdas Pophale) SiO2 
 PCOD8274107
Probable space group: C M M M
;
_chemical_formula_sum "Si O2"
_cell_formula_units_Z 80
_cell_length_a 18.547221
_cell_length_b 22.770282
_cell_length_c 9.405269
_cell_angle_alpha 90.000000
_cell_angle_beta 90.000000
_cell_angle_gamma 90.000000
_cell_volume 3972.084486
_symmetry_space_group_name_H-M "C M M M"
_symmetry_group_IT_number 65
_symmetry_cell_setting 'orthorhombic'
loop_
_space_group_symop_operation_xyz
x,y,z
-x,-y,z
x,-y,-z
-x,y,-z
-x,-y,-z
x,y,-z
-x,y,z
x,-y,z
1/2+x,1/2+y,z
1/2-x,1/2-y,z
1/2+x,1/2-y,-z
1/2-x,1/2+y,-z
1/2-x,1/2-y,-z
1/2+x,1/2+y,-z
1/2-x,1/2+y,z
1/2+x,1/2-y,z
loop_
_atom_site_type_symbol
_atom_site_label
_atom_site_fract_x
_atom_site_fract_y
_atom_site_fract_z
Si Si1 0.082452 0.244910 0.833482
Si Si2 0.792750 0.566734 0.333865
Si Si3 0.917838 0.380217 0.163739
Si Si4 0.916070 0.936177 0.845513
Si Si5 0.337412 0.649679 0.667145
O O1 0.093216 0.312560 0.792810
O O2 0.145048 0.210683 0.746850
O O3 0.000000 0.225428 0.793915
O O4 0.094803 0.234088 0.000000
O O5 0.805855 0.573985 0.500000
O O6 0.766568 0.500000 0.299260
O O7 0.867956 0.577863 0.256448
O O8 0.735803 0.616669 0.282846
O O9 0.000000 0.399151 0.192029
O O10 0.897399 0.389196 0.000000
O O11 0.900402 0.894107 0.713874
O O12 0.000000 0.943828 0.854491
O O13 0.880603 0.000000 0.817665
O O14 0.888336 0.911630 0.000000
O O15 0.338825 0.661290 0.500000
#
# Coordination Sequence:
#
# PCOD8274107 Si02
#       5
#    16  16  16  16  16
#     4   9  19  37  59  83 114 149 183 224 277 333
#     4  10  23  41  57  78 113 153 187 223 275 334
#     4   9  20  40  64  88 111 137 177 231 284 333
#     4   9  18  32  49  70  99 139 187 234 278 324
#     4  11  22  34  51  78 113 149 186 227 267 316
#
# _framework density 20.140557999999999
#
# number of rings (size 3 to 8) (size 9 to 14) (size 15 to 20)
#    0.000    2.400    0.000    3.600    0.000    8.800 
#    0.000    9.000    0.000    0.000    0.000    0.000 
#    0.000    0.000    0.000    0.000    0.000    0.000 
#
# Total GULP energy -495680.624717 kJ/mol
# GULP energy per Si atom -12392.015618 kJ/mol
# Density = 2.009472 g / cm^3
# Si number density = 20.140558 Si / 1000 Ang^3
#
#
#
# Elastic Constant Matrix: (Units=GPa)
#
#
# Indices 1 2 3 4 5 6 
#
# 1 84.1836 37.1139 43.0657 0.0000 0.0000 0.0000
# 2 37.1139 63.5542 33.9120 0.0000 0.0000 0.0000
# 3 43.0657 33.9120 59.0680 0.0000 0.0000 0.0000
# 4 0.0000 0.0000 0.0000 31.2376 0.0000 0.0000
# 5 0.0000 0.0000 0.0000 0.0000 34.2086 0.0000
# 6 0.0000 0.0000 0.0000 0.0000 0.0000 -2.8416
#
#
#
# Elastic Compliance Matrix: (Units=1/GPa)
#
#
# Indices 1 2 3 4 5 6 
#
# 1 0.020283 -0.005700 -0.011515 0.000000 0.000000 0.000000
# 2 -0.005700 0.024285 -0.009787 0.000000 0.000000 0.000000
# 3 -0.011515 -0.009787 0.030944 0.000000 0.000000 0.000000
# 4 0.000000 0.000000 0.000000 0.032013 0.000000 0.000000
# 5 0.000000 0.000000 0.000000 0.000000 0.029232 0.000000
# 6 0.000000 0.000000 0.000000 0.000000 0.000000 -0.351916
#
#
# Mechanical properties :
#
#
# Convention : Reuss Voigt Hill
#
# Bulk Modulus (GPa) = 46.49486 48.33210 47.41348
# Shear Modulus (GPa) = -32.47071 18.70187 -6.88442
#
# Velocity S-wave (km/s) = -4.01958 3.05055 -1.85084
# Velocity P-wave (km/s) = 1.26197 6.03799 4.36176
#
# Compressibility (1/GPa) = 0.02150775
#
# Stress axis : x y z
#
# Youngs Moduli (GPa) = 49.30322 41.17690 32.31624
#
# Poissons Ratio (x) = 0.23471 0.37213
# Poissons Ratio (y) = 0.28103 0.31628
# Poissons Ratio (z) = 0.56774 0.40300
#
# Static dielectric constant tensor:
#      x y z
#    x 3.529740 0.000000 0.000000 
#    y 0.000000 3.709140 0.000000 
#    z 0.000000 0.000000 3.564530 
# 
# 
# High freq. dielectric constant tensor:
#      x y z
#    x 1.773820 0.000000 0.000000 
#    y 0.000000 1.791990 0.000000 
#    z 0.000000 0.000000 1.776660 
# 
# From -- ./inp_files/9641.got.cif
#   From: 2010.03.12/outbox.cif.g09.slc.cpg/sg65_5_cif.got.tgz:9641.got - 2010.04.10 20:52:16.
