data_PCOD8274758
_publ_section_title
;
Structure prediction by ZEFSAII (Michael W. Deem and Ramdas Pophale) SiO2 
 PCOD8274758
Probable space group: C M M M
;
_chemical_formula_sum "Si O2"
_cell_formula_units_Z 72
_cell_length_a 27.240754
_cell_length_b 10.199295
_cell_length_c 13.592072
_cell_angle_alpha 90.000000
_cell_angle_beta 90.000000
_cell_angle_gamma 90.000000
_cell_volume 3776.373523
_symmetry_space_group_name_H-M "C M M M"
_symmetry_group_IT_number 65
_symmetry_cell_setting 'orthorhombic'
loop_
_space_group_symop_operation_xyz
x,y,z
-x,-y,z
x,-y,-z
-x,y,-z
-x,-y,-z
x,y,-z
-x,y,z
x,-y,z
1/2+x,1/2+y,z
1/2-x,1/2-y,z
1/2+x,1/2-y,-z
1/2-x,1/2+y,-z
1/2-x,1/2-y,-z
1/2+x,1/2+y,-z
1/2-x,1/2+y,z
1/2+x,1/2-y,z
loop_
_atom_site_type_symbol
_atom_site_label
_atom_site_fract_x
_atom_site_fract_y
_atom_site_fract_z
Si Si1 0.398539 0.252573 0.302317
Si Si2 0.751698 0.000000 0.296497
Si Si3 0.250000 0.250000 0.169996
Si Si4 0.353246 0.000000 0.611711
Si Si5 0.652872 0.500000 0.610482
Si Si6 0.147522 0.652767 0.109537
Si Si7 0.500000 0.656090 0.384755
O O1 0.364950 0.372633 0.333147
O O2 0.388733 0.223910 0.186753
O O3 0.454574 0.285713 0.324719
O O4 0.385193 0.127487 0.367404
O O5 0.765583 0.128311 0.236227
O O6 0.694920 0.000000 0.322111
O O7 0.787757 0.000000 0.391046
O O8 0.202357 0.287180 0.106148
O O9 0.336030 0.000000 0.500000
O O10 0.631774 0.500000 0.500000
O O11 0.151290 0.500000 0.138969
O O12 0.125185 0.670184 0.000000
O O13 0.500000 0.500000 0.377461
O O14 0.500000 0.698839 0.500000
#
# Coordination Sequence:
#
# PCOD8274758 Si02
#       7
#    16   8   8   8   8  16   8
#     4  12  23  43  64  94 128 163 218 269 310 380
#     4  12  21  36  59  88 136 168 213 254 315 378
#     4  12  19  38  59  90 124 172 213 268 311 368
#     4  12  23  39  60  89 133 175 210 261 318 381
#     4  12  23  37  62  91 131 181 210 247 318 389
#     4  11  23  42  66  92 128 172 213 267 330 374
#     4  11  24  43  70  97 126 168 209 259 324 377
#
# _framework density 19.065911
#
# number of rings (size 3 to 8) (size 9 to 14) (size 15 to 20)
#    0.000    0.333    7.778    2.667    0.000    0.444 
#    0.000    6.667    0.000    2.000    0.000    0.000 
#    0.000    0.000    0.000    0.000    0.000    0.000 
#
# Total GULP energy -446409.539356 kJ/mol
# GULP energy per Si atom -12400.264982 kJ/mol
# Density = 1.902252 g / cm^3
# Si number density = 19.065911 Si / 1000 Ang^3
#
#
#
# Elastic Constant Matrix: (Units=GPa)
#
#
# Indices 1 2 3 4 5 6 
#
# 1 132.7520 38.0150 49.4437 0.0000 0.0000 0.0000
# 2 38.0150 142.8502 51.9501 0.0000 0.0000 0.0000
# 3 49.4437 51.9501 145.6083 0.0000 0.0000 0.0000
# 4 0.0000 0.0000 0.0000 29.7737 0.0000 0.0000
# 5 0.0000 0.0000 0.0000 0.0000 22.3110 0.0000
# 6 0.0000 0.0000 0.0000 0.0000 0.0000 28.5089
#
#
#
# Elastic Compliance Matrix: (Units=1/GPa)
#
#
# Indices 1 2 3 4 5 6 
#
# 1 0.008879 -0.001455 -0.002496 0.000000 0.000000 0.000000
# 2 -0.001455 0.008283 -0.002461 0.000000 0.000000 0.000000
# 3 -0.002496 -0.002461 0.008593 0.000000 0.000000 0.000000
# 4 0.000000 0.000000 0.000000 0.033587 0.000000 0.000000
# 5 0.000000 0.000000 0.000000 0.000000 0.044821 0.000000
# 6 0.000000 0.000000 0.000000 0.000000 0.000000 0.035077
#
#
# Mechanical properties :
#
#
# Convention : Reuss Voigt Hill
#
# Bulk Modulus (GPa) = 77.33375 77.78089 77.55732
# Shear Modulus (GPa) = 31.97468 34.90549 33.44009
#
# Velocity S-wave (km/s) = 4.09963 4.28340 4.19253
# Velocity P-wave (km/s) = 7.94095 8.08380 8.01269
#
# Compressibility (1/GPa) = 0.01293096
#
# Stress axis : x y z
#
# Youngs Moduli (GPa) = 112.62329 120.73570 116.37039
#
# Poissons Ratio (x) = 0.17570 0.29044
# Poissons Ratio (y) = 0.16389 0.28638
# Poissons Ratio (z) = 0.28109 0.29712
#
# Static dielectric constant tensor:
#      x y z
#    x 3.390020 0.000000 0.000000 
#    y 0.000000 3.726340 0.000000 
#    z 0.000000 0.000000 3.465870 
# 
# 
# High freq. dielectric constant tensor:
#      x y z
#    x 1.730370 0.000000 0.000000 
#    y 0.000000 1.759070 0.000000 
#    z 0.000000 0.000000 1.742710 
# 
# From -- ./inp_files/46609.got.cif
#   From: 2010.03.12/outbox.cif.g09.slc.cpg/sg65_24_cif.got.tgz:46609.got - 2010.04.10 20:52:16.
