data_PCOD8274850
_publ_section_title
;
Structure prediction by ZEFSAII (Michael W. Deem and Ramdas Pophale) SiO2 
 PCOD8274850
Probable space group: C M M M
;
_chemical_formula_sum "Si O2"
_cell_formula_units_Z 80
_cell_length_a 8.881171
_cell_length_b 19.376904
_cell_length_c 25.461984
_cell_angle_alpha 90.000000
_cell_angle_beta 90.000000
_cell_angle_gamma 90.000000
_cell_volume 4381.742588
_symmetry_space_group_name_H-M "C M M M"
_symmetry_group_IT_number 65
_symmetry_cell_setting 'orthorhombic'
loop_
_space_group_symop_operation_xyz
x,y,z
-x,-y,z
x,-y,-z
-x,y,-z
-x,-y,-z
x,y,-z
-x,y,z
x,-y,z
1/2+x,1/2+y,z
1/2-x,1/2-y,z
1/2+x,1/2-y,-z
1/2-x,1/2+y,-z
1/2-x,1/2-y,-z
1/2+x,1/2+y,-z
1/2-x,1/2+y,z
1/2+x,1/2-y,z
loop_
_atom_site_type_symbol
_atom_site_label
_atom_site_fract_x
_atom_site_fract_y
_atom_site_fract_z
Si Si1 0.178093 0.075590 0.204591
Si Si2 0.320941 0.577327 0.500000
Si Si3 0.175845 0.080413 0.913677
Si Si4 0.821980 0.325802 0.000000
Si Si5 0.322247 0.678247 0.291334
Si Si6 0.822743 0.177650 0.409699
O O1 0.217386 0.101293 0.146026
O O2 0.246218 0.124387 0.249619
O O3 0.000000 0.071334 0.210602
O O4 0.248434 0.000000 0.213574
O O5 0.252558 0.500000 0.500000
O O6 0.500000 0.573287 0.500000
O O7 0.263598 0.617649 0.448254
O O8 0.273237 0.130984 0.949186
O O9 0.000000 0.092556 0.925405
O O10 0.215797 0.000000 0.924389
O O11 0.750000 0.250000 0.000000
O O12 0.000000 0.316770 0.000000
O O13 0.500000 0.684834 0.285851
O O14 0.250000 0.750000 0.275886
O O15 0.276771 0.656211 0.350475
O O16 0.750000 0.250000 0.426232
O O17 0.000000 0.187364 0.415222
#
# Coordination Sequence:
#
# PCOD8274850 Si02
#       6
#    16   8  16   8  16  16
#     4   8  15  29  50  74  97 123 157 194 231 276
#     4   9  17  28  43  67  94 117 150 198 244 279
#     4   9  18  35  57  77 100 131 163 196 239 291
#     4  12  25  38  53  75 103 131 163 204 245 286
#     4   9  17  29  46  69  95 123 157 194 233 277
#     4   9  17  29  46  66  90 123 158 193 233 279
#
# _framework density 18.257576
#
# number of rings (size 3 to 8) (size 9 to 14) (size 15 to 20)
#    0.000    2.900    0.000    2.700    0.000    3.200 
#    0.000    7.000    0.000    3.000    0.000    5.600 
#    0.000    0.000    0.000    0.000    0.000    0.000 
#
# Total GULP energy -495837.768778 kJ/mol
# GULP energy per Si atom -12395.944219 kJ/mol
# Density = 1.821602 g / cm^3
# Si number density = 18.257576 Si / 1000 Ang^3
#
#
#
# Elastic Constant Matrix: (Units=GPa)
#
#
# Indices 1 2 3 4 5 6 
#
# 1 39.2406 40.4879 32.9039 0.0000 0.0000 0.0000
# 2 40.4879 150.3645 109.9069 0.0000 0.0000 0.0000
# 3 32.9039 109.9069 156.7995 0.0000 0.0000 0.0000
# 4 0.0000 0.0000 0.0000 38.8557 0.0000 0.0000
# 5 0.0000 0.0000 0.0000 0.0000 16.2274 0.0000
# 6 0.0000 0.0000 0.0000 0.0000 0.0000 25.8130
#
#
#
# Elastic Compliance Matrix: (Units=1/GPa)
#
#
# Indices 1 2 3 4 5 6 
#
# 1 0.035467 -0.008428 -0.001535 0.000000 0.000000 0.000000
# 2 -0.008428 0.015640 -0.009194 0.000000 0.000000 0.000000
# 3 -0.001535 -0.009194 0.013144 0.000000 0.000000 0.000000
# 4 0.000000 0.000000 0.000000 0.025736 0.000000 0.000000
# 5 0.000000 0.000000 0.000000 0.000000 0.061624 0.000000
# 6 0.000000 0.000000 0.000000 0.000000 0.000000 0.038740
#
#
# Mechanical properties :
#
#
# Convention : Reuss Voigt Hill
#
# Bulk Modulus (GPa) = 38.55533 79.22244 58.88889
# Shear Modulus (GPa) = 21.06928 27.05295 24.06111
#
# Velocity S-wave (km/s) = 3.40075 3.85351 3.63419
# Velocity P-wave (km/s) = 6.04842 7.95520 7.06642
#
# Compressibility (1/GPa) = 0.02593675
#
# Stress axis : x y z
#
# Youngs Moduli (GPa) = 28.19538 63.93739 76.07799
#
# Poissons Ratio (x) = 0.53885 0.11680
# Poissons Ratio (y) = 0.23763 0.69949
# Poissons Ratio (z) = 0.04329 0.58786
#
# Static dielectric constant tensor:
#      x y z
#    x 2.983350 0.000000 0.000000 
#    y 0.000000 3.675790 0.000000 
#    z 0.000000 0.000000 3.674250 
# 
# 
# High freq. dielectric constant tensor:
#      x y z
#    x 1.667700 0.000000 0.000000 
#    y 0.000000 1.706830 0.000000 
#    z 0.000000 0.000000 1.723600 
# 
# From -- ./inp_files/72944.got.cif
#   From: 2010.03.12/outbox.cif.g09.slc.cpg/sg65_37_cif.got.tgz:72944.got - 2010.04.10 20:52:16.
