data_PCOD8274925
_publ_section_title
;
Structure prediction by ZEFSAII (Michael W. Deem and Ramdas Pophale) SiO2 
 PCOD8274925
Probable space group: C M M M
;
_chemical_formula_sum "Si O2"
_cell_formula_units_Z 80
_cell_length_a 9.329186
_cell_length_b 19.734251
_cell_length_c 25.626223
_cell_angle_alpha 90.000000
_cell_angle_beta 90.000000
_cell_angle_gamma 90.000000
_cell_volume 4717.902925
_symmetry_space_group_name_H-M "C M M M"
_symmetry_group_IT_number 65
_symmetry_cell_setting 'orthorhombic'
loop_
_space_group_symop_operation_xyz
x,y,z
-x,-y,z
x,-y,-z
-x,y,-z
-x,-y,-z
x,y,-z
-x,y,z
x,-y,z
1/2+x,1/2+y,z
1/2-x,1/2-y,z
1/2+x,1/2-y,-z
1/2-x,1/2+y,-z
1/2-x,1/2-y,-z
1/2+x,1/2+y,-z
1/2-x,1/2+y,z
1/2+x,1/2-y,z
loop_
_atom_site_type_symbol
_atom_site_label
_atom_site_fract_x
_atom_site_fract_y
_atom_site_fract_z
Si Si1 0.160958 0.080576 0.442278
Si Si2 0.837995 0.080622 0.753547
Si Si3 0.161672 0.419073 0.654782
Si Si4 0.666413 0.922120 0.145848
Si Si5 0.166792 0.316116 0.059232
O O1 0.210669 0.104956 0.500000
O O2 0.268180 0.109647 0.398532
O O3 0.000000 0.106657 0.430636
O O4 0.161746 0.000000 0.440202
O O5 0.752807 0.109178 0.703524
O O6 0.758620 0.105656 0.805722
O O7 0.000000 0.109055 0.752819
O O8 0.838255 0.000000 0.751757
O O9 0.162237 0.500000 0.654938
O O10 0.000000 0.391263 0.658746
O O11 0.500000 0.913448 0.160558
O O12 0.709603 0.879683 0.094898
O O13 0.702899 0.000000 0.133231
O O14 0.250000 0.250000 0.079086
O O15 0.000000 0.299477 0.063584
O O16 0.210670 0.334600 0.000000
#
# Coordination Sequence:
#
# PCOD8274925 Si02
#       5
#    16  16  16  16  16
#     4   8  13  20  28  38  55  82 118 160 203 245
#     4   9  16  25  37  53  74 100 130 165 207 254
#     4   9  15  21  30  44  63  89 122 161 204 248
#     4   9  17  29  45  65  88 112 141 179 218 254
#     4   9  18  32  49  68  90 117 146 175 210 254
#
# _framework density 16.956686000000001
#
# number of rings (size 3 to 8) (size 9 to 14) (size 15 to 20)
#    0.000    3.200    0.000    1.800    0.000    6.400 
#    0.000    4.000    0.000    0.000    0.000    5.600 
#    0.000    0.000    0.000    0.000    0.000    1.000 
#
# Total GULP energy -495859.692601 kJ/mol
# GULP energy per Si atom -12396.492315 kJ/mol
# Density = 1.691809 g / cm^3
# Si number density = 16.956686 Si / 1000 Ang^3
#
#
#
# Elastic Constant Matrix: (Units=GPa)
#
#
# Indices 1 2 3 4 5 6 
#
# 1 113.4343 27.7171 82.7521 0.0000 0.0000 0.0000
# 2 27.7171 32.5076 41.4291 0.0000 0.0000 0.0000
# 3 82.7521 41.4291 150.7388 0.0000 0.0000 0.0000
# 4 0.0000 0.0000 0.0000 1.4465 0.0000 0.0000
# 5 0.0000 0.0000 0.0000 0.0000 34.2262 0.0000
# 6 0.0000 0.0000 0.0000 0.0000 0.0000 12.6225
#
#
#
# Elastic Compliance Matrix: (Units=1/GPa)
#
#
# Indices 1 2 3 4 5 6 
#
# 1 0.014962 -0.003523 -0.007246 0.000000 0.000000 0.000000
# 2 -0.003523 0.048175 -0.011306 0.000000 0.000000 0.000000
# 3 -0.007246 -0.011306 0.013719 0.000000 0.000000 0.000000
# 4 0.000000 0.000000 0.000000 0.691332 0.000000 0.000000
# 5 0.000000 0.000000 0.000000 0.000000 0.029217 0.000000
# 6 0.000000 0.000000 0.000000 0.000000 0.000000 0.079223
#
#
# Mechanical properties :
#
#
# Convention : Reuss Voigt Hill
#
# Bulk Modulus (GPa) = 30.57512 66.71971 48.64742
# Shear Modulus (GPa) = 5.36664 19.31122 12.33893
#
# Velocity S-wave (km/s) = 1.78095 3.37835 2.70047
# Velocity P-wave (km/s) = 4.72223 7.39258 6.20281
#
# Compressibility (1/GPa) = 0.03270634
#
# Stress axis : x y z
#
# Youngs Moduli (GPa) = 66.83418 20.75752 72.89080
#
# Poissons Ratio (x) = 0.07313 0.52814
# Poissons Ratio (y) = 0.23547 0.82413
# Poissons Ratio (z) = 0.48426 0.23469
#
# Static dielectric constant tensor:
#      x y z
#    x 3.332710 0.000000 0.000000 
#    y 0.000000 2.518690 0.000000 
#    z 0.000000 0.000000 3.446350 
# 
# 
# High freq. dielectric constant tensor:
#      x y z
#    x 1.660810 0.000000 0.000000 
#    y 0.000000 1.571960 0.000000 
#    z 0.000000 0.000000 1.669310 
# 
# From -- ./inp_files/72806.got.cif
#   From: 2010.03.12/outbox.cif.g09.slc.cpg/sg65_37_cif.got.tgz:72806.got - 2010.04.10 20:52:16.
