data_PCOD8274644
_publ_section_title
;
Structure prediction by ZEFSAII (Michael W. Deem and Ramdas Pophale) SiO2 
 PCOD8274644
Probable space group: C M M M
;
_chemical_formula_sum "Si O2"
_cell_formula_units_Z 88
_cell_length_a 25.036367
_cell_length_b 27.769780
_cell_length_c 9.431432
_cell_angle_alpha 90.000000
_cell_angle_beta 90.000000
_cell_angle_gamma 90.000000
_cell_volume 6557.244630
_symmetry_space_group_name_H-M "C M M M"
_symmetry_group_IT_number 65
_symmetry_cell_setting 'orthorhombic'
loop_
_space_group_symop_operation_xyz
x,y,z
-x,-y,z
x,-y,-z
-x,y,-z
-x,-y,-z
x,y,-z
-x,y,z
x,-y,z
1/2+x,1/2+y,z
1/2-x,1/2-y,z
1/2+x,1/2-y,-z
1/2-x,1/2+y,-z
1/2-x,1/2-y,-z
1/2+x,1/2+y,-z
1/2-x,1/2+y,z
1/2+x,1/2-y,z
loop_
_atom_site_type_symbol
_atom_site_label
_atom_site_fract_x
_atom_site_fract_y
_atom_site_fract_z
Si Si1 0.000000 0.056543 0.166565
Si Si2 0.651075 0.695101 0.656340
Si Si3 0.765749 0.645606 0.658631
Si Si4 0.192215 0.274382 0.840876
Si Si5 0.099534 0.097190 0.333347
Si Si6 0.210431 0.053280 0.331328
O O1 0.051283 0.079960 0.237981
O O2 0.000000 0.000000 0.196798
O O3 0.000000 0.068071 0.000000
O O4 0.638371 0.715875 0.500000
O O5 0.709171 0.671718 0.653309
O O6 0.649204 0.739111 0.767003
O O7 0.608227 0.654066 0.696465
O O8 0.790291 0.643914 0.500000
O O9 0.806223 0.674466 0.759762
O O10 0.755201 0.591678 0.720896
O O11 0.250000 0.250000 0.838718
O O12 0.172624 0.284051 0.000000
O O13 0.088084 0.087969 0.500000
O O14 0.151284 0.067654 0.279975
O O15 0.210116 0.055119 0.500000
O O16 0.224812 0.000000 0.273707
#
# Coordination Sequence:
#
# PCOD8274644 Si02
#       6
#     8  16  16  16  16  16
#     4  11  23  33  39  51  71  91 111 141 182 221
#     4   8  14  24  37  52  66  80 102 133 169 205
#     4   8  13  21  33  48  66  86 106 132 164 196
#     4   9  15  21  31  48  68  88 106 125 155 197
#     4   9  17  29  44  56  64  81 112 147 180 215
#     4   8  13  22  37  54  67  82 111 148 179 205
#
# _framework density 13.42027
#
# number of rings (size 3 to 8) (size 9 to 14) (size 15 to 20)
#    0.000    3.364    0.000    3.545    0.000    4.364 
#    0.000    2.727    0.000    1.636    0.000    0.000 
#    0.000    0.000    0.000    0.000    0.000    0.000 
#
# Total GULP energy -545241.699688 kJ/mol
# GULP energy per Si atom -12391.856811 kJ/mol
# Density = 1.338973 g / cm^3
# Si number density = 13.420270 Si / 1000 Ang^3
#
#
#
# Elastic Constant Matrix: (Units=GPa)
#
#
# Indices 1 2 3 4 5 6 
#
# 1 24.9650 37.3548 28.8733 0.0000 0.0000 0.0000
# 2 37.3548 115.4520 58.5157 0.0000 0.0000 0.0000
# 3 28.8733 58.5157 83.6216 0.0000 0.0000 0.0000
# 4 0.0000 0.0000 0.0000 14.2443 0.0000 0.0000
# 5 0.0000 0.0000 0.0000 0.0000 9.9201 0.0000
# 6 0.0000 0.0000 0.0000 0.0000 0.0000 19.4284
#
#
#
# Elastic Compliance Matrix: (Units=1/GPa)
#
#
# Indices 1 2 3 4 5 6 
#
# 1 0.090517 -0.020836 -0.016674 0.000000 0.000000 0.000000
# 2 -0.020836 0.018218 -0.005554 0.000000 0.000000 0.000000
# 3 -0.016674 -0.005554 0.021602 0.000000 0.000000 0.000000
# 4 0.000000 0.000000 0.000000 0.070203 0.000000 0.000000
# 5 0.000000 0.000000 0.000000 0.000000 0.100805 0.000000
# 6 0.000000 0.000000 0.000000 0.000000 0.000000 0.051471
#
#
# Mechanical properties :
#
#
# Convention : Reuss Voigt Hill
#
# Bulk Modulus (GPa) = 22.61949 52.61400 37.61675
# Shear Modulus (GPa) = 11.02095 15.33822 13.17958
#
# Velocity S-wave (km/s) = 2.86880 3.38437 3.13719
# Velocity P-wave (km/s) = 5.27870 7.38660 6.41976
#
# Compressibility (1/GPa) = 0.04420966
#
# Stress axis : x y z
#
# Youngs Moduli (GPa) = 11.04768 54.89005 46.29114
#
# Poissons Ratio (x) = 1.14369 0.77184
# Poissons Ratio (y) = 0.23019 0.25711
# Poissons Ratio (z) = 0.18421 0.30487
#
# Static dielectric constant tensor:
#      x y z
#    x 2.243130 0.000000 0.000000 
#    y 0.000000 3.005270 0.000000 
#    z 0.000000 0.000000 2.697130 
# 
# 
# High freq. dielectric constant tensor:
#      x y z
#    x 1.444420 0.000000 0.000000 
#    y 0.000000 1.512500 0.000000 
#    z 0.000000 0.000000 1.503470 
# 
# From -- ./inp_files/12617.got.cif
#   From: 2010.03.12/outbox.cif.g09.slc.cpg/sg65_7_cif.got.tgz:12617.got - 2010.04.10 20:52:16.
