data_PCOD8274815
_publ_section_title
;
Structure prediction by ZEFSAII (Michael W. Deem and Ramdas Pophale) SiO2 
 PCOD8274815
Probable space group: C M M M
;
_chemical_formula_sum "Si O2"
_cell_formula_units_Z 88
_cell_length_a 14.432006
_cell_length_b 20.229969
_cell_length_c 15.861679
_cell_angle_alpha 90.000000
_cell_angle_beta 90.000000
_cell_angle_gamma 90.000000
_cell_volume 4630.960478
_symmetry_space_group_name_H-M "C M M M"
_symmetry_group_IT_number 65
_symmetry_cell_setting 'orthorhombic'
loop_
_space_group_symop_operation_xyz
x,y,z
-x,-y,z
x,-y,-z
-x,y,-z
-x,-y,-z
x,y,-z
-x,y,z
x,-y,z
1/2+x,1/2+y,z
1/2-x,1/2-y,z
1/2+x,1/2-y,-z
1/2-x,1/2+y,-z
1/2-x,1/2-y,-z
1/2+x,1/2+y,-z
1/2-x,1/2+y,z
1/2+x,1/2-y,z
loop_
_atom_site_type_symbol
_atom_site_label
_atom_site_fract_x
_atom_site_fract_y
_atom_site_fract_z
Si Si1 0.718639 0.884694 0.684537
Si Si2 0.398229 0.175611 0.000000
Si Si3 0.109913 0.500000 0.401274
Si Si4 0.103877 0.168793 0.000000
Si Si5 0.398655 0.373945 0.595793
Si Si6 0.253008 0.171598 0.136821
Si Si7 0.896660 0.718205 0.595699
O O1 0.643766 0.937270 0.652606
O O2 0.817495 0.908228 0.647899
O O3 0.735570 0.876598 0.783676
O O4 0.682689 0.813987 0.652116
O O5 0.343430 0.153918 0.082857
O O6 0.500000 0.142471 0.000000
O O7 0.406950 0.253565 0.000000
O O8 0.144105 0.500000 0.500000
O O9 0.000000 0.500000 0.400453
O O10 0.161156 0.149691 0.915458
O O11 0.000000 0.136403 0.000000
O O12 0.391159 0.397806 0.500000
O O13 0.500000 0.393924 0.631884
O O14 0.384875 0.295961 0.602465
O O15 0.250000 0.250000 0.159468
O O16 0.882214 0.693994 0.500000
O O17 0.000000 0.697782 0.626208
#
# Coordination Sequence:
#
# PCOD8274815 Si02
#       7
#    16   8   8   8  16  16  16
#     4  12  21  33  53  74 101 139 181 229 267 295
#     4   8  15  29  48  73 110 146 166 193 252 326
#     4  11  26  44  57  72  99 142 193 230 260 307
#     4   8  15  31  52  75 111 146 161 189 253 326
#     4   9  18  31  48  74 104 130 161 207 269 335
#     4   9  18  30  49  82 111 134 172 211 254 320
#     4   9  17  29  47  73 103 133 166 209 267 329
#
# _framework density 19.002537
#
# number of rings (size 3 to 8) (size 9 to 14) (size 15 to 20)
#    0.000    2.455    0.000    6.000    0.000    5.091 
#    0.000    4.091    0.000    3.818    0.000    3.818 
#    0.000    0.000    0.000    0.000    0.000    0.000 
#
# Total GULP energy -545256.932141 kJ/mol
# GULP energy per Si atom -12392.203003 kJ/mol
# Density = 1.895929 g / cm^3
# Si number density = 19.002537 Si / 1000 Ang^3
#
#
#
# Elastic Constant Matrix: (Units=GPa)
#
#
# Indices 1 2 3 4 5 6 
#
# 1 152.4962 15.8864 61.8299 0.0000 0.0000 0.0000
# 2 15.8864 29.4038 29.3745 0.0000 0.0000 0.0000
# 3 61.8299 29.3745 120.6415 0.0000 0.0000 0.0000
# 4 0.0000 0.0000 0.0000 -4.8848 0.0000 0.0000
# 5 0.0000 0.0000 0.0000 0.0000 12.4108 0.0000
# 6 0.0000 0.0000 0.0000 0.0000 0.0000 20.3066
#
#
#
# Elastic Compliance Matrix: (Units=1/GPa)
#
#
# Indices 1 2 3 4 5 6 
#
# 1 0.008280 -0.000309 -0.004168 0.000000 0.000000 0.000000
# 2 -0.000309 0.044952 -0.010787 0.000000 0.000000 0.000000
# 3 -0.004168 -0.010787 0.013052 0.000000 0.000000 0.000000
# 4 0.000000 0.000000 0.000000 -0.204715 0.000000 0.000000
# 5 0.000000 0.000000 0.000000 0.000000 0.080575 0.000000
# 6 0.000000 0.000000 0.000000 0.000000 0.000000 0.049245
#
#
# Mechanical properties :
#
#
# Convention : Reuss Voigt Hill
#
# Bulk Modulus (GPa) = 27.96795 57.41367 42.69081
# Shear Modulus (GPa) = 147.77180 18.59655 83.18417
#
# Velocity S-wave (km/s) = 8.82797 3.13171 6.62347
# Velocity P-wave (km/s) = 10.89315 6.58453 9.00047
#
# Compressibility (1/GPa) = 0.03575521
#
# Stress axis : x y z
#
# Youngs Moduli (GPa) = 120.77674 22.24582 76.61891
#
# Poissons Ratio (x) = 0.00688 0.31935
# Poissons Ratio (y) = 0.03737 0.82646
# Poissons Ratio (z) = 0.50341 0.23996
#
# Static dielectric constant tensor:
#      x y z
#    x 4.217530 0.000000 0.000000 
#    y 0.000000 2.966570 0.000000 
#    z 0.000000 0.000000 3.386930 
# 
# 
# High freq. dielectric constant tensor:
#      x y z
#    x 1.761630 0.000000 0.000000 
#    y 0.000000 1.684760 0.000000 
#    z 0.000000 0.000000 1.723930 
# 
# From -- ./inp_files/40272.got.cif
#   From: 2010.03.12/outbox.cif.g09.slc.cpg/sg65_21_cif.got.tgz:40272.got - 2010.04.10 20:52:16.
