data_PCOD8274685
_publ_section_title
;
Structure prediction by ZEFSAII (Michael W. Deem and Ramdas Pophale) SiO2 
 PCOD8274685
Probable space group: C M M M
;
_chemical_formula_sum "Si O2"
_cell_formula_units_Z 80
_cell_length_a 18.965715
_cell_length_b 9.172502
_cell_length_c 25.257252
_cell_angle_alpha 90.000000
_cell_angle_beta 90.000000
_cell_angle_gamma 90.000000
_cell_volume 4393.828814
_symmetry_space_group_name_H-M "C M M M"
_symmetry_group_IT_number 65
_symmetry_cell_setting 'orthorhombic'
loop_
_space_group_symop_operation_xyz
x,y,z
-x,-y,z
x,-y,-z
-x,y,-z
-x,-y,-z
x,y,-z
-x,y,z
x,-y,z
1/2+x,1/2+y,z
1/2-x,1/2-y,z
1/2+x,1/2-y,-z
1/2-x,1/2+y,-z
1/2-x,1/2-y,-z
1/2+x,1/2+y,-z
1/2-x,1/2+y,z
1/2+x,1/2-y,z
loop_
_atom_site_type_symbol
_atom_site_label
_atom_site_fract_x
_atom_site_fract_y
_atom_site_fract_z
Si Si1 0.678487 0.829261 0.059398
Si Si2 0.919437 0.670457 0.846509
Si Si3 0.175127 0.172693 0.643088
Si Si4 0.919507 0.666990 0.438086
Si Si5 0.419409 0.670678 0.742332
O O1 0.750000 0.750000 0.074568
O O2 0.620234 0.775555 0.100933
O O3 0.692132 0.000000 0.064168
O O4 0.653346 0.787736 0.000000
O O5 0.909267 0.500000 0.837089
O O6 0.889553 0.750843 0.794679
O O7 0.000000 0.714125 0.855610
O O8 0.250000 0.250000 0.647258
O O9 0.133867 0.225879 0.591315
O O10 0.129063 0.219271 0.693694
O O11 0.185959 0.000000 0.639402
O O12 0.905929 0.687600 0.500000
O O13 0.904755 0.500000 0.421432
O O14 0.000000 0.709297 0.423943
O O15 0.500000 0.719211 0.730424
O O16 0.414826 0.500000 0.752378
#
# Coordination Sequence:
#
# PCOD8274685 Si02
#       5
#    16  16  16  16  16
#     4   9  18  32  49  70  98 131 165 202 245 295
#     4   9  18  32  51  75  99 126 164 207 251 299
#     4  11  23  37  54  78 108 141 177 216 259 307
#     4   9  19  37  60  84 109 138 173 213 258 308
#     4   9  19  36  55  74  99 132 169 210 256 305
#
# _framework density 18.207355
#
# number of rings (size 3 to 8) (size 9 to 14) (size 15 to 20)
#    0.000    2.600    0.000    1.800    0.000    5.600 
#    0.000    9.000    0.000    0.000    0.000    5.600 
#    0.000    0.000    0.000    0.000    0.000    0.000 
#
# Total GULP energy -496050.781932 kJ/mol
# GULP energy per Si atom -12401.269548 kJ/mol
# Density = 1.816591 g / cm^3
# Si number density = 18.207355 Si / 1000 Ang^3
#
#
#
# Elastic Constant Matrix: (Units=GPa)
#
#
# Indices 1 2 3 4 5 6 
#
# 1 111.7651 49.4055 79.7734 0.0000 0.0000 0.0000
# 2 49.4055 53.4702 51.6417 0.0000 0.0000 0.0000
# 3 79.7734 51.6417 126.2371 0.0000 0.0000 0.0000
# 4 0.0000 0.0000 0.0000 32.9845 0.0000 0.0000
# 5 0.0000 0.0000 0.0000 0.0000 18.8083 0.0000
# 6 0.0000 0.0000 0.0000 0.0000 0.0000 25.6217
#
#
#
# Elastic Compliance Matrix: (Units=1/GPa)
#
#
# Indices 1 2 3 4 5 6 
#
# 1 0.018991 -0.009847 -0.007973 0.000000 0.000000 0.000000
# 2 -0.009847 0.036023 -0.008514 0.000000 0.000000 0.000000
# 3 -0.007973 -0.008514 0.016443 0.000000 0.000000 0.000000
# 4 0.000000 0.000000 0.000000 0.030317 0.000000 0.000000
# 5 0.000000 0.000000 0.000000 0.000000 0.053168 0.000000
# 6 0.000000 0.000000 0.000000 0.000000 0.000000 0.039029
#
#
# Mechanical properties :
#
#
# Convention : Reuss Voigt Hill
#
# Bulk Modulus (GPa) = 53.22115 72.56819 62.89467
# Shear Modulus (GPa) = 19.77052 22.85968 21.31510
#
# Velocity S-wave (km/s) = 3.29880 3.54717 3.42524
# Velocity P-wave (km/s) = 6.61842 7.53124 7.08954
#
# Compressibility (1/GPa) = 0.01878952
#
# Stress axis : x y z
#
# Youngs Moduli (GPa) = 52.65720 27.75978 60.81767
#
# Poissons Ratio (x) = 0.27336 0.48487
# Poissons Ratio (y) = 0.51853 0.51779
# Poissons Ratio (z) = 0.41981 0.23634
#
# Static dielectric constant tensor:
#      x y z
#    x 3.435980 0.000000 0.000000 
#    y 0.000000 3.290700 0.000000 
#    z 0.000000 0.000000 3.518140 
# 
# 
# High freq. dielectric constant tensor:
#      x y z
#    x 1.701600 0.000000 0.000000 
#    y 0.000000 1.701300 0.000000 
#    z 0.000000 0.000000 1.715160 
# 
# From -- ./inp_files/72737.got.cif
#   From: 2010.03.12/outbox.cif.g09.slc.cpg/sg65_37_cif.got.tgz:72737.got - 2010.04.10 20:52:16.
