data_PCOD8274015
_publ_section_title
;
Structure prediction by ZEFSAII (Michael W. Deem and Ramdas Pophale) SiO2 
 PCOD8274015
Probable space group: C M M M
;
_chemical_formula_sum "Si O2"
_cell_formula_units_Z 80
_cell_length_a 18.273264
_cell_length_b 8.990314
_cell_length_c 25.337348
_cell_angle_alpha 90.000000
_cell_angle_beta 90.000000
_cell_angle_gamma 90.000000
_cell_volume 4162.479862
_symmetry_space_group_name_H-M "C M M M"
_symmetry_group_IT_number 65
_symmetry_cell_setting 'orthorhombic'
loop_
_space_group_symop_operation_xyz
x,y,z
-x,-y,z
x,-y,-z
-x,y,-z
-x,-y,-z
x,y,-z
-x,y,z
x,-y,z
1/2+x,1/2+y,z
1/2-x,1/2-y,z
1/2+x,1/2-y,-z
1/2-x,1/2+y,-z
1/2-x,1/2-y,-z
1/2+x,1/2+y,-z
1/2-x,1/2+y,z
1/2+x,1/2-y,z
loop_
_atom_site_type_symbol
_atom_site_label
_atom_site_fract_x
_atom_site_fract_y
_atom_site_fract_z
Si Si1 0.672266 0.323848 0.157057
Si Si2 0.673524 0.826684 0.351471
Si Si3 0.418163 0.323363 0.058428
Si Si4 0.585447 0.170918 0.247486
Si Si5 0.916686 0.171720 0.439050
O O1 0.681707 0.500000 0.156481
O O2 0.750000 0.250000 0.166367
O O3 0.638137 0.262645 0.102103
O O4 0.618618 0.279356 0.203969
O O5 0.750000 0.750000 0.339245
O O6 0.619134 0.788415 0.303883
O O7 0.638719 0.769918 0.405595
O O8 0.687964 0.000000 0.357315
O O9 0.500000 0.262343 0.070263
O O10 0.420225 0.500000 0.060662
O O11 0.392835 0.270076 0.000000
O O12 0.500000 0.203060 0.251155
O O13 0.602111 0.000000 0.232258
O O14 0.897170 0.197727 0.500000
O O15 0.000000 0.221713 0.427804
O O16 0.906411 0.000000 0.423720
#
# Coordination Sequence:
#
# PCOD8274015 Si02
#       5
#    16  16  16  16  16
#     4  11  22  35  54  81 111 145 184 223 269 324
#     4  11  23  38  57  82 112 146 183 223 270 323
#     4   8  15  30  52  77 105 138 179 226 271 318
#     4  10  22  40  60  82 109 140 177 225 277 326
#     4   9  19  37  60  85 113 145 182 225 272 321
#
# _framework density 19.219311999999999
#
# number of rings (size 3 to 8) (size 9 to 14) (size 15 to 20)
#    0.000    2.200    0.000    4.200    0.000    6.800 
#    0.000    1.000    0.000    1.800    0.000    7.000 
#    0.000    0.000    0.000    0.000    0.000    0.000 
#
# Total GULP energy -496080.720590 kJ/mol
# GULP energy per Si atom -12402.018015 kJ/mol
# Density = 1.917557 g / cm^3
# Si number density = 19.219312 Si / 1000 Ang^3
#
#
#
# Elastic Constant Matrix: (Units=GPa)
#
#
# Indices 1 2 3 4 5 6 
#
# 1 129.3243 49.0870 63.5870 0.0000 0.0000 0.0000
# 2 49.0870 70.9985 50.0790 0.0000 0.0000 0.0000
# 3 63.5870 50.0790 113.8849 0.0000 0.0000 0.0000
# 4 0.0000 0.0000 0.0000 149.1413 0.0000 0.0000
# 5 0.0000 0.0000 0.0000 0.0000 18.7704 0.0000
# 6 0.0000 0.0000 0.0000 0.0000 0.0000 18.1222
#
#
#
# Elastic Compliance Matrix: (Units=1/GPa)
#
#
# Indices 1 2 3 4 5 6 
#
# 1 0.011805 -0.005092 -0.004352 0.000000 0.000000 0.000000
# 2 -0.005092 0.022614 -0.007101 0.000000 0.000000 0.000000
# 3 -0.004352 -0.007101 0.014333 0.000000 0.000000 0.000000
# 4 0.000000 0.000000 0.000000 0.006705 0.000000 0.000000
# 5 0.000000 0.000000 0.000000 0.000000 0.053275 0.000000
# 6 0.000000 0.000000 0.000000 0.000000 0.000000 0.055181
#
#
# Mechanical properties :
#
#
# Convention : Reuss Voigt Hill
#
# Bulk Modulus (GPa) = 63.84857 71.07929 67.46393
# Shear Modulus (GPa) = 24.72487 47.30375 36.01431
#
# Velocity S-wave (km/s) = 3.59062 4.96649 4.33351
# Velocity P-wave (km/s) = 7.10515 8.36371 7.75999
#
# Compressibility (1/GPa) = 0.01566206
#
# Stress axis : x y z
#
# Youngs Moduli (GPa) = 84.70855 44.22017 69.76706
#
# Poissons Ratio (x) = 0.22517 0.30364
# Poissons Ratio (y) = 0.43134 0.49542
# Poissons Ratio (z) = 0.36867 0.31401
#
# Static dielectric constant tensor:
#      x y z
#    x 3.581470 0.000000 0.000000 
#    y 0.000000 3.309250 0.000000 
#    z 0.000000 0.000000 3.709220 
# 
# 
# High freq. dielectric constant tensor:
#      x y z
#    x 1.755320 0.000000 0.000000 
#    y 0.000000 1.728900 0.000000 
#    z 0.000000 0.000000 1.760600 
# 
# From -- ./inp_files/75017.got.cif
#   From: 2010.03.12/outbox.cif.g09.slc.cpg/sg65_38_cif.got.tgz:75017.got - 2010.04.10 20:52:16.
