data_PCOD8274464
_publ_section_title
;
Structure prediction by ZEFSAII (Michael W. Deem and Ramdas Pophale) SiO2 
 PCOD8274464
Probable space group: C M M M
;
_chemical_formula_sum "Si O2"
_cell_formula_units_Z 72
_cell_length_a 19.131180
_cell_length_b 8.016291
_cell_length_c 24.741169
_cell_angle_alpha 90.000000
_cell_angle_beta 90.000000
_cell_angle_gamma 90.000000
_cell_volume 3794.333043
_symmetry_space_group_name_H-M "C M M M"
_symmetry_group_IT_number 65
_symmetry_cell_setting 'orthorhombic'
loop_
_space_group_symop_operation_xyz
x,y,z
-x,-y,z
x,-y,-z
-x,y,-z
-x,-y,-z
x,y,-z
-x,y,z
x,-y,z
1/2+x,1/2+y,z
1/2-x,1/2-y,z
1/2+x,1/2-y,-z
1/2-x,1/2+y,-z
1/2-x,1/2-y,-z
1/2+x,1/2+y,-z
1/2-x,1/2+y,z
1/2+x,1/2-y,z
loop_
_atom_site_type_symbol
_atom_site_label
_atom_site_fract_x
_atom_site_fract_y
_atom_site_fract_z
Si Si1 0.922521 0.803079 0.749807
Si Si2 0.671845 0.310237 0.843551
Si Si3 0.416639 0.000000 0.438761
Si Si4 0.416763 0.313399 0.370720
Si Si5 0.079234 0.304258 0.938592
O O1 0.870938 0.720903 0.794654
O O2 0.892657 0.764890 0.689942
O O3 0.000000 0.723892 0.757201
O O4 0.928897 0.000000 0.757834
O O5 0.675983 0.500000 0.827286
O O6 0.750000 0.250000 0.849459
O O7 0.632611 0.290466 0.900226
O O8 0.387647 0.169179 0.410456
O O9 0.500000 0.000000 0.436322
O O10 0.389163 0.000000 0.500000
O O11 0.500000 0.318293 0.372266
O O12 0.388948 0.500000 0.386964
O O13 0.089636 0.500000 0.931115
O O14 0.000000 0.252695 0.923753
O O15 0.095904 0.251326 0.000000
#
# Coordination Sequence:
#
# PCOD8274464 Si02
#       5
#    16  16   8  16  16
#     4   8  15  30  51  70  91 126 168 208 250 302
#     4  11  22  35  51  74 105 136 167 211 259 309
#     4   9  16  24  36  62  98 130 163 201 244 301
#     4   8  14  26  42  61  89 126 165 204 249 300
#     4   9  19  37  58  78 101 129 166 211 255 305
#
# _framework density 18.975667000000001
#
# number of rings (size 3 to 8) (size 9 to 14) (size 15 to 20)
#    0.000    3.000    0.000    3.333    0.000    2.667 
#    4.000    3.333    0.000    0.000    0.000    0.000 
#    0.000    0.889    0.444    0.000    0.000    0.000 
#
# Total GULP energy -446141.545972 kJ/mol
# GULP energy per Si atom -12392.820721 kJ/mol
# Density = 1.893248 g / cm^3
# Si number density = 18.975667 Si / 1000 Ang^3
#
#
#
# Elastic Constant Matrix: (Units=GPa)
#
#
# Indices 1 2 3 4 5 6 
#
# 1 80.5363 25.7497 57.3825 0.0000 0.0000 0.0000
# 2 25.7497 73.8361 51.3887 0.0000 0.0000 0.0000
# 3 57.3825 51.3887 142.7298 0.0000 0.0000 0.0000
# 4 0.0000 0.0000 0.0000 26.7097 0.0000 0.0000
# 5 0.0000 0.0000 0.0000 0.0000 9.1105 0.0000
# 6 0.0000 0.0000 0.0000 0.0000 0.0000 2.4481
#
#
#
# Elastic Compliance Matrix: (Units=1/GPa)
#
#
# Indices 1 2 3 4 5 6 
#
# 1 0.017544 -0.001614 -0.006472 0.000000 0.000000 0.000000
# 2 -0.001614 0.018221 -0.005911 0.000000 0.000000 0.000000
# 3 -0.006472 -0.005911 0.011737 0.000000 0.000000 0.000000
# 4 0.000000 0.000000 0.000000 0.037440 0.000000 0.000000
# 5 0.000000 0.000000 0.000000 0.000000 0.109764 0.000000
# 6 0.000000 0.000000 0.000000 0.000000 0.000000 0.408486
#
#
# Mechanical properties :
#
#
# Convention : Reuss Voigt Hill
#
# Bulk Modulus (GPa) = 51.26493 62.90490 57.08491
# Shear Modulus (GPa) = 7.84082 18.49240 13.16661
#
# Velocity S-wave (km/s) = 2.03495 3.12514 2.63700
# Velocity P-wave (km/s) = 5.70930 6.80031 6.27855
#
# Compressibility (1/GPa) = 0.01950651
#
# Stress axis : x y z
#
# Youngs Moduli (GPa) = 56.99828 54.88323 85.20242
#
# Poissons Ratio (x) = 0.08857 0.55147
# Poissons Ratio (y) = 0.09198 0.50366
# Poissons Ratio (z) = 0.36892 0.32444
#
# Static dielectric constant tensor:
#      x y z
#    x 2.096880 0.000000 0.000000 
#    y 0.000000 3.457040 0.000000 
#    z 0.000000 0.000000 3.660530 
# 
# 
# High freq. dielectric constant tensor:
#      x y z
#    x 1.688240 0.000000 0.000000 
#    y 0.000000 1.727000 0.000000 
#    z 0.000000 0.000000 1.743230 
# 
# From -- ./inp_files/64346.got.cif
#   From: 2010.03.12/outbox.cif.g09.slc.cpg/sg65_33_cif.got.tgz:64346.got - 2010.04.10 20:52:16.
