data_PCOD8274540
_publ_section_title
;
Structure prediction by ZEFSAII (Michael W. Deem and Ramdas Pophale) SiO2 
 PCOD8274540
Probable space group: C M M M
;
_chemical_formula_sum "Si O2"
_cell_formula_units_Z 72
_cell_length_a 19.749534
_cell_length_b 8.682075
_cell_length_c 22.794304
_cell_angle_alpha 90.000000
_cell_angle_beta 90.000000
_cell_angle_gamma 90.000000
_cell_volume 3908.469452
_symmetry_space_group_name_H-M "C M M M"
_symmetry_group_IT_number 65
_symmetry_cell_setting 'orthorhombic'
loop_
_space_group_symop_operation_xyz
x,y,z
-x,-y,z
x,-y,-z
-x,y,-z
-x,-y,-z
x,y,-z
-x,y,z
x,-y,z
1/2+x,1/2+y,z
1/2-x,1/2-y,z
1/2+x,1/2-y,-z
1/2-x,1/2+y,-z
1/2-x,1/2-y,-z
1/2+x,1/2+y,-z
1/2-x,1/2+y,z
1/2+x,1/2-y,z
loop_
_atom_site_type_symbol
_atom_site_label
_atom_site_fract_x
_atom_site_fract_y
_atom_site_fract_z
Si Si1 0.578344 0.817443 0.873036
Si Si2 0.078158 0.176722 0.432411
Si Si3 0.321836 0.681439 0.220220
Si Si4 0.678993 0.819890 0.655480
Si Si5 0.579982 0.168128 0.000000
O O1 0.500000 0.781344 0.860269
O O2 0.621476 0.726205 0.826082
O O3 0.599943 0.751541 0.938095
O O4 0.591936 0.000000 0.869300
O O5 0.094096 0.212887 0.500000
O O6 0.122581 0.289424 0.393170
O O7 0.000000 0.210040 0.418484
O O8 0.096014 0.000000 0.417872
O O9 0.315006 0.500000 0.224330
O O10 0.250000 0.750000 0.200267
O O11 0.344155 0.745475 0.283340
O O12 0.750000 0.750000 0.633761
O O13 0.688161 0.000000 0.665139
O O14 0.500000 0.146007 0.000000
O O15 0.614256 0.000000 0.000000
#
# Coordination Sequence:
#
# PCOD8274540 Si02
#       5
#    16  16  16  16   8
#     4   9  17  32  55  81 107 136 173 214 258 310
#     4   9  19  37  59  82 110 142 174 212 259 307
#     4  11  22  37  55  75 104 139 176 218 265 313
#     4  11  22  37  57  79 105 138 177 219 262 310
#     4   7  12  26  50  77 104 135 169 209 256 305
#
# _framework density 18.421534000000001
#
# number of rings (size 3 to 8) (size 9 to 14) (size 15 to 20)
#    0.000    2.333    0.000    7.333    0.000    2.667 
#    0.000    2.222    0.000    2.000    0.000    0.000 
#    0.000    0.000    0.000    0.000    0.000    0.000 
#
# Total GULP energy -446265.827613 kJ/mol
# GULP energy per Si atom -12396.272989 kJ/mol
# Density = 1.837961 g / cm^3
# Si number density = 18.421534 Si / 1000 Ang^3
#
#
#
# Elastic Constant Matrix: (Units=GPa)
#
#
# Indices 1 2 3 4 5 6 
#
# 1 84.4550 50.9092 74.2335 0.0000 0.0000 0.0000
# 2 50.9092 122.9697 56.7522 0.0000 0.0000 0.0000
# 3 74.2335 56.7522 121.1273 0.0000 0.0000 0.0000
# 4 0.0000 0.0000 0.0000 23.0131 0.0000 0.0000
# 5 0.0000 0.0000 0.0000 0.0000 178.7898 0.0000
# 6 0.0000 0.0000 0.0000 0.0000 0.0000 26.9040
#
#
#
# Elastic Compliance Matrix: (Units=1/GPa)
#
#
# Indices 1 2 3 4 5 6 
#
# 1 0.027577 -0.004615 -0.014739 0.000000 0.000000 0.000000
# 2 -0.004615 0.011148 -0.002395 0.000000 0.000000 0.000000
# 3 -0.014739 -0.002395 0.018411 0.000000 0.000000 0.000000
# 4 0.000000 0.000000 0.000000 0.043454 0.000000 0.000000
# 5 0.000000 0.000000 0.000000 0.000000 0.005593 0.000000
# 6 0.000000 0.000000 0.000000 0.000000 0.000000 0.037169
#
#
# Mechanical properties :
#
#
# Convention : Reuss Voigt Hill
#
# Bulk Modulus (GPa) = 73.31998 76.92688 75.12343
# Shear Modulus (GPa) = 26.12399 55.51851 40.82125
#
# Velocity S-wave (km/s) = 3.76988 5.49575 4.71250
# Velocity P-wave (km/s) = 7.67053 9.06206 8.39517
#
# Compressibility (1/GPa) = 0.01363885
#
# Stress axis : x y z
#
# Youngs Moduli (GPa) = 36.26167 89.70287 54.31666
#
# Poissons Ratio (x) = 0.41397 0.80056
# Poissons Ratio (y) = 0.16734 0.13008
# Poissons Ratio (z) = 0.53445 0.21483
#
# Static dielectric constant tensor:
#      x y z
#    x 3.234820 0.000000 0.000000 
#    y 0.000000 3.241000 0.000000 
#    z 0.000000 0.000000 3.584060 
# 
# 
# High freq. dielectric constant tensor:
#      x y z
#    x 1.701630 0.000000 0.000000 
#    y 0.000000 1.705230 0.000000 
#    z 0.000000 0.000000 1.726980 
# 
# From -- ./inp_files/70368.got.cif
#   From: 2010.03.12/outbox.cif.g09.slc.cpg/sg65_36_cif.got.tgz:70368.got - 2010.04.10 20:52:16.
