data_PCOD8274580
_publ_section_title
;
Structure prediction by ZEFSAII (Michael W. Deem and Ramdas Pophale) SiO2 
 PCOD8274580
Probable space group: C M M M
;
_chemical_formula_sum "Si O2"
_cell_formula_units_Z 64
_cell_length_a 23.907818
_cell_length_b 15.450845
_cell_length_c 8.559081
_cell_angle_alpha 90.000000
_cell_angle_beta 90.000000
_cell_angle_gamma 90.000000
_cell_volume 3161.690201
_symmetry_space_group_name_H-M "C M M M"
_symmetry_group_IT_number 65
_symmetry_cell_setting 'orthorhombic'
loop_
_space_group_symop_operation_xyz
x,y,z
-x,-y,z
x,-y,-z
-x,y,-z
-x,-y,-z
x,y,-z
-x,y,z
x,-y,z
1/2+x,1/2+y,z
1/2-x,1/2-y,z
1/2+x,1/2-y,-z
1/2-x,1/2+y,-z
1/2-x,1/2-y,-z
1/2+x,1/2+y,-z
1/2-x,1/2+y,z
1/2+x,1/2-y,z
loop_
_atom_site_type_symbol
_atom_site_label
_atom_site_fract_x
_atom_site_fract_y
_atom_site_fract_z
Si Si1 0.812907 0.000000 0.185471
Si Si2 0.686490 0.000000 0.185093
Si Si3 0.616276 0.843187 0.315902
Si Si4 0.384092 0.337970 0.185366
Si Si5 0.000000 0.100960 0.316089
Si Si6 0.000000 0.400146 0.184784
O O1 0.844707 0.915100 0.248237
O O2 0.749781 0.000000 0.249335
O O3 0.813775 0.000000 0.000000
O O4 0.656324 0.085194 0.244517
O O5 0.684420 0.000000 0.000000
O O6 0.616861 0.852119 0.500000
O O7 0.638995 0.749876 0.262409
O O8 0.553661 0.853348 0.253980
O O9 0.446918 0.354500 0.239107
O O10 0.381786 0.329617 0.000000
O O11 0.000000 0.118369 0.500000
O O12 0.000000 0.000000 0.275042
O O13 0.000000 0.500000 0.236088
O O14 0.000000 0.389988 0.000000
#
# Coordination Sequence:
#
# PCOD8274580 Si02
#       6
#     8   8  16  16   8   8
#     4   9  22  42  67  92 118 158 213 265 304 347
#     4  11  23  44  67  90 119 160 212 261 304 359
#     4  12  25  41  62  94 130 164 199 249 313 373
#     4  11  22  41  66  93 123 163 210 256 302 362
#     4  11  22  37  60  94 132 166 197 247 314 372
#     4  11  22  39  66  94 121 161 206 250 302 364
#
# _framework density 20.242336999999999
#
# number of rings (size 3 to 8) (size 9 to 14) (size 15 to 20)
#    0.000    1.000    2.500    4.875    0.000    2.000 
#    0.000   10.000    0.000    0.000    0.000    0.000 
#    0.000    0.000    0.000    0.000    0.000    0.000 
#
# Total GULP energy -397000.749040 kJ/mol
# GULP energy per Si atom -12406.273407 kJ/mol
# Density = 2.019626 g / cm^3
# Si number density = 20.242337 Si / 1000 Ang^3
#
#
#
# Elastic Constant Matrix: (Units=GPa)
#
#
# Indices 1 2 3 4 5 6 
#
# 1 159.7069 78.9740 32.6755 0.0000 0.0000 0.0000
# 2 78.9740 174.2450 38.4449 0.0000 0.0000 0.0000
# 3 32.6755 38.4449 88.1717 0.0000 0.0000 0.0000
# 4 0.0000 0.0000 0.0000 31.6168 0.0000 0.0000
# 5 0.0000 0.0000 0.0000 0.0000 -21.7435 0.0000
# 6 0.0000 0.0000 0.0000 0.0000 0.0000 -37.7996
#
#
#
# Elastic Compliance Matrix: (Units=1/GPa)
#
#
# Indices 1 2 3 4 5 6 
#
# 1 0.008265 -0.003397 -0.001582 0.000000 0.000000 0.000000
# 2 -0.003397 0.007746 -0.002119 0.000000 0.000000 0.000000
# 3 -0.001582 -0.002119 0.012851 0.000000 0.000000 0.000000
# 4 0.000000 0.000000 0.000000 0.031629 0.000000 0.000000
# 5 0.000000 0.000000 0.000000 0.000000 -0.045991 0.000000
# 6 0.000000 0.000000 0.000000 0.000000 0.000000 -0.026455
#
#
# Mechanical properties :
#
#
# Convention : Reuss Voigt Hill
#
# Bulk Modulus (GPa) = 68.17629 80.25690 74.21659
# Shear Modulus (GPa) = 701.36408 12.55001 356.95705
#
# Velocity S-wave (km/s) = 18.63427 2.49266 13.29378
# Velocity P-wave (km/s) = 22.28754 6.92954 16.50383
#
# Compressibility (1/GPa) = 0.01466786
#
# Stress axis : x y z
#
# Youngs Moduli (GPa) = 120.99439 129.09724 77.81231
#
# Poissons Ratio (x) = 0.43853 0.12308
# Poissons Ratio (y) = 0.41101 0.16485
# Poissons Ratio (z) = 0.19138 0.27351
#
# Static dielectric constant tensor:
#      x y z
#    x 3.771660 0.000000 0.000000 
#    y 0.000000 4.032300 0.000000 
#    z 0.000000 0.000000 3.667550 
# 
# 
# High freq. dielectric constant tensor:
#      x y z
#    x 1.789300 0.000000 0.000000 
#    y 0.000000 1.813890 0.000000 
#    z 0.000000 0.000000 1.792480 
# 
# From -- ./inp_files/10880.got.cif
#   From: 2010.03.12/outbox.cif.g09.slc.cpg/sg65_6_cif.got.tgz:10880.got - 2010.04.10 20:52:16.
