data_PCOD8274007
_publ_section_title
;
Structure prediction by ZEFSAII (Michael W. Deem and Ramdas Pophale) SiO2 
 PCOD8274007
Probable space group: C M M M
;
_chemical_formula_sum "Si O2"
_cell_formula_units_Z 104
_cell_length_a 14.312043
_cell_length_b 19.552807
_cell_length_c 20.590351
_cell_angle_alpha 90.000000
_cell_angle_beta 90.000000
_cell_angle_gamma 90.000000
_cell_volume 5762.016478
_symmetry_space_group_name_H-M "C M M M"
_symmetry_group_IT_number 65
_symmetry_cell_setting 'orthorhombic'
loop_
_space_group_symop_operation_xyz
x,y,z
-x,-y,z
x,-y,-z
-x,y,-z
-x,-y,-z
x,y,-z
-x,y,z
x,-y,z
1/2+x,1/2+y,z
1/2-x,1/2-y,z
1/2+x,1/2-y,-z
1/2-x,1/2+y,-z
1/2-x,1/2-y,-z
1/2+x,1/2+y,-z
1/2-x,1/2+y,z
1/2+x,1/2-y,z
loop_
_atom_site_type_symbol
_atom_site_label
_atom_site_fract_x
_atom_site_fract_y
_atom_site_fract_z
Si Si1 0.103906 0.370204 0.637691
Si Si2 0.600619 0.919971 0.000000
Si Si3 0.898400 0.000000 0.391889
Si Si4 0.223040 0.672723 0.241657
Si Si5 0.804376 0.500000 0.572520
Si Si6 0.111699 0.420303 0.858483
Si Si7 0.859012 0.759779 0.428376
Si Si8 0.601022 0.363961 0.314616
O O1 0.155019 0.330523 0.696297
O O2 0.163938 0.434163 0.613127
O O3 0.093765 0.314403 0.580949
O O4 0.000000 0.395258 0.658578
O O5 0.649924 0.901896 0.931433
O O6 0.500000 0.882805 0.000000
O O7 0.582484 0.000000 0.000000
O O8 0.891262 0.062355 0.344008
O O9 0.807854 0.000000 0.438354
O O10 0.000000 0.000000 0.429163
O O11 0.250000 0.750000 0.220933
O O12 0.171675 0.630243 0.185802
O O13 0.322126 0.639665 0.258724
O O14 0.849067 0.500000 0.500000
O O15 0.131923 0.500000 0.840850
O O16 0.000000 0.406664 0.852088
O O17 0.887534 0.787410 0.500000
O O18 0.750000 0.750000 0.422889
O O19 0.890907 0.811544 0.373867
O O20 0.500000 0.351787 0.281463
#
# Coordination Sequence:
#
# PCOD8274007 Si02
#       8
#    16   8   8  16   8  16  16  16
#     4  12  24  39  57  79 109 144 182 229 295 366
#     4   7  12  30  57  92 129 157 189 229 272 329
#     4  10  22  40  59  76  98 135 182 237 291 340
#     4  12  23  38  54  85 118 154 191 234 284 345
#     4  12  25  41  58  81 111 138 179 247 314 369
#     4   9  19  35  63  96 126 158 192 232 282 340
#     4  11  21  38  59  77  99 134 182 232 287 351
#     4  11  22  38  56  74 100 139 186 236 284 332
#
# _framework density 18.049237000000002
#
# number of rings (size 3 to 8) (size 9 to 14) (size 15 to 20)
#    0.000    1.308    4.615    2.538    2.154    5.077 
#    0.000    1.923    0.000    0.000    0.000    0.538 
#    0.000    1.846    0.000    0.000    0.000    0.000 
#
# Total GULP energy -644231.932043 kJ/mol
# GULP energy per Si atom -12389.075616 kJ/mol
# Density = 1.800816 g / cm^3
# Si number density = 18.049237 Si / 1000 Ang^3
#
#
#
# Elastic Constant Matrix: (Units=GPa)
#
#
# Indices 1 2 3 4 5 6 
#
# 1 126.3005 36.8513 45.8402 0.0000 0.0000 0.0000
# 2 36.8513 121.2020 48.2217 0.0000 0.0000 0.0000
# 3 45.8402 48.2217 102.4965 0.0000 0.0000 0.0000
# 4 0.0000 0.0000 0.0000 26.5463 0.0000 0.0000
# 5 0.0000 0.0000 0.0000 0.0000 8.3228 0.0000
# 6 0.0000 0.0000 0.0000 0.0000 0.0000 25.8626
#
#
#
# Elastic Compliance Matrix: (Units=1/GPa)
#
#
# Indices 1 2 3 4 5 6 
#
# 1 0.009669 -0.001500 -0.003618 0.000000 0.000000 0.000000
# 2 -0.001500 0.010383 -0.004214 0.000000 0.000000 0.000000
# 3 -0.003618 -0.004214 0.013357 0.000000 0.000000 0.000000
# 4 0.000000 0.000000 0.000000 0.037670 0.000000 0.000000
# 5 0.000000 0.000000 0.000000 0.000000 0.120152 0.000000
# 6 0.000000 0.000000 0.000000 0.000000 0.000000 0.038666
#
#
# Mechanical properties :
#
#
# Convention : Reuss Voigt Hill
#
# Bulk Modulus (GPa) = 67.82419 67.98061 67.90240
# Shear Modulus (GPa) = 19.72565 26.75207 23.23886
#
# Velocity S-wave (km/s) = 3.30946 3.85407 3.59210
# Velocity P-wave (km/s) = 7.22926 7.58623 7.40990
#
# Compressibility (1/GPa) = 0.01474400
#
# Stress axis : x y z
#
# Youngs Moduli (GPa) = 103.42761 96.30685 74.86485
#
# Poissons Ratio (x) = 0.14447 0.27089
# Poissons Ratio (y) = 0.15515 0.31550
# Poissons Ratio (z) = 0.37424 0.40586
#
# Static dielectric constant tensor:
#      x y z
#    x 3.677510 0.000000 0.000000 
#    y 0.000000 3.294350 0.000000 
#    z 0.000000 0.000000 3.376680 
# 
# 
# High freq. dielectric constant tensor:
#      x y z
#    x 1.705590 0.000000 0.000000 
#    y 0.000000 1.701680 0.000000 
#    z 0.000000 0.000000 1.669250 
# 
# From -- ./inp_files/62916.got.cif
#   From: 2010.03.12/outbox.cif.g09.slc.cpg/sg65_32_cif.got.tgz:62916.got - 2010.04.10 20:52:16.
