data_PCOD8274039
_publ_section_title
;
Structure prediction by ZEFSAII (Michael W. Deem and Ramdas Pophale) SiO2 
 PCOD8274039
Probable space group: C M M M
;
_chemical_formula_sum "Si O2"
_cell_formula_units_Z 88
_cell_length_a 17.765976
_cell_length_b 11.176890
_cell_length_c 22.525845
_cell_angle_alpha 90.000000
_cell_angle_beta 90.000000
_cell_angle_gamma 90.000000
_cell_volume 4472.920088
_symmetry_space_group_name_H-M "C M M M"
_symmetry_group_IT_number 65
_symmetry_cell_setting 'orthorhombic'
loop_
_space_group_symop_operation_xyz
x,y,z
-x,-y,z
x,-y,-z
-x,y,-z
-x,-y,-z
x,y,-z
-x,y,z
x,-y,z
1/2+x,1/2+y,z
1/2-x,1/2-y,z
1/2+x,1/2-y,-z
1/2-x,1/2+y,-z
1/2-x,1/2-y,-z
1/2+x,1/2+y,-z
1/2-x,1/2+y,z
1/2+x,1/2-y,z
loop_
_atom_site_type_symbol
_atom_site_label
_atom_site_fract_x
_atom_site_fract_y
_atom_site_fract_z
Si Si1 0.337933 0.244042 0.828569
Si Si2 0.837557 0.717982 0.374294
Si Si3 0.583507 0.359165 0.065373
Si Si4 0.085610 0.138708 0.283860
Si Si5 0.915642 0.500000 0.176135
Si Si6 0.414897 0.000000 0.684840
Si Si7 0.812909 0.644994 0.500000
O O1 0.250000 0.250000 0.817538
O O2 0.356612 0.324968 0.884997
O O3 0.374187 0.289629 0.767918
O O4 0.368031 0.113403 0.845286
O O5 0.750000 0.750000 0.370069
O O6 0.880937 0.834693 0.349804
O O7 0.863920 0.613072 0.331242
O O8 0.860587 0.674110 0.440731
O O9 0.500000 0.311041 0.082669
O O10 0.580886 0.500000 0.062116
O O11 0.606568 0.308994 0.000000
O O12 0.000000 0.181537 0.284114
O O13 0.094272 0.000000 0.270365
O O14 0.924421 0.500000 0.245916
O O15 0.000000 0.500000 0.147980
O O16 0.500000 0.000000 0.656199
O O17 0.788235 0.500000 0.500000
O O18 0.750000 0.750000 0.500000
#
# Coordination Sequence:
#
# PCOD8274039 Si02
#       7
#    16  16  16  16   8   8   8
#     4  12  25  37  62  92 128 162 205 258 310 370
#     4  11  23  38  64  89 123 158 209 257 311 370
#     4   9  19  39  66  89 116 161 210 253 304 367
#     4  11  24  41  63  90 123 161 205 259 317 375
#     4  11  24  40  60  90 130 169 201 245 319 385
#     4  11  22  39  62  86 124 165 202 250 310 373
#     4  10  22  40  62  93 126 168 213 262 323 381
#
# _framework density 19.673947999999999
#
# number of rings (size 3 to 8) (size 9 to 14) (size 15 to 20)
#    0.000    1.273    2.727    3.818    3.818    2.545 
#    0.000    2.727    0.000    2.727    0.000    0.000 
#    0.000    0.000    0.000    0.000    0.000    0.000 
#
# Total GULP energy -545245.167920 kJ/mol
# GULP energy per Si atom -12391.935635 kJ/mol
# Density = 1.962917 g / cm^3
# Si number density = 19.673948 Si / 1000 Ang^3
#
#
#
# Elastic Constant Matrix: (Units=GPa)
#
#
# Indices 1 2 3 4 5 6 
#
# 1 127.0020 47.6226 37.3597 0.0000 0.0000 0.0000
# 2 47.6226 72.1756 32.1607 0.0000 0.0000 0.0000
# 3 37.3597 32.1607 103.2755 0.0000 0.0000 0.0000
# 4 0.0000 0.0000 0.0000 125.6828 0.0000 0.0000
# 5 0.0000 0.0000 0.0000 0.0000 18.8432 0.0000
# 6 0.0000 0.0000 0.0000 0.0000 0.0000 33.2940
#
#
#
# Elastic Compliance Matrix: (Units=1/GPa)
#
#
# Indices 1 2 3 4 5 6 
#
# 1 0.010793 -0.006249 -0.001958 0.000000 0.000000 0.000000
# 2 -0.006249 0.019705 -0.003876 0.000000 0.000000 0.000000
# 3 -0.001958 -0.003876 0.011598 0.000000 0.000000 0.000000
# 4 0.000000 0.000000 0.000000 0.007957 0.000000 0.000000
# 5 0.000000 0.000000 0.000000 0.000000 0.053069 0.000000
# 6 0.000000 0.000000 0.000000 0.000000 0.000000 0.030035
#
#
# Mechanical properties :
#
#
# Convention : Reuss Voigt Hill
#
# Bulk Modulus (GPa) = 55.77131 59.63769 57.70450
# Shear Modulus (GPa) = 30.61828 47.91802 39.26815
#
# Velocity S-wave (km/s) = 3.94926 4.94054 4.47245
# Velocity P-wave (km/s) = 7.01462 7.93247 7.48762
#
# Compressibility (1/GPa) = 0.01793036
#
# Stress axis : x y z
#
# Youngs Moduli (GPa) = 92.65123 50.74801 86.21974
#
# Poissons Ratio (x) = 0.31712 0.16886
# Poissons Ratio (y) = 0.57896 0.33417
# Poissons Ratio (z) = 0.18146 0.19669
#
# Static dielectric constant tensor:
#      x y z
#    x 3.593370 0.000000 0.000000 
#    y 0.000000 3.861030 0.000000 
#    z 0.000000 0.000000 3.875010 
# 
# 
# High freq. dielectric constant tensor:
#      x y z
#    x 1.759370 0.000000 0.000000 
#    y 0.000000 1.774960 0.000000 
#    z 0.000000 0.000000 1.769990 
# 
# From -- ./inp_files/63651.got.cif
#   From: 2010.03.12/outbox.cif.g09.slc.cpg/sg65_32_cif.got.tgz:63651.got - 2010.04.10 20:52:16.
