data_PCOD8274476
_publ_section_title
;
Structure prediction by ZEFSAII (Michael W. Deem and Ramdas Pophale) SiO2 
 PCOD8274476
Probable space group: C M M M
;
_chemical_formula_sum "Si O2"
_cell_formula_units_Z 72
_cell_length_a 9.027990
_cell_length_b 18.534923
_cell_length_c 23.226219
_cell_angle_alpha 90.000000
_cell_angle_beta 90.000000
_cell_angle_gamma 90.000000
_cell_volume 3886.515215
_symmetry_space_group_name_H-M "C M M M"
_symmetry_group_IT_number 65
_symmetry_cell_setting 'orthorhombic'
loop_
_space_group_symop_operation_xyz
x,y,z
-x,-y,z
x,-y,-z
-x,y,-z
-x,-y,-z
x,y,-z
-x,y,z
x,-y,z
1/2+x,1/2+y,z
1/2-x,1/2-y,z
1/2+x,1/2-y,-z
1/2-x,1/2+y,-z
1/2-x,1/2-y,-z
1/2+x,1/2+y,-z
1/2-x,1/2+y,z
1/2+x,1/2-y,z
loop_
_atom_site_type_symbol
_atom_site_label
_atom_site_fract_x
_atom_site_fract_y
_atom_site_fract_z
Si Si1 0.824811 0.173063 0.339162
Si Si2 0.170815 0.175127 0.000000
Si Si3 0.170231 0.582715 0.566763
Si Si4 0.823964 0.080652 0.769475
Si Si5 0.174409 0.827302 0.124315
O O1 0.750000 0.250000 0.333224
O O2 0.777004 0.134889 0.398016
O O3 0.768846 0.124660 0.285931
O O4 0.000000 0.183117 0.339184
O O5 0.250000 0.250000 0.000000
O O6 0.210212 0.136338 0.938980
O O7 0.000000 0.193911 0.000000
O O8 0.197654 0.599310 0.500000
O O9 0.210899 0.500000 0.580703
O O10 0.000000 0.598195 0.583112
O O11 0.763020 0.118873 0.827258
O O12 0.000000 0.077221 0.770667
O O13 0.757385 0.000000 0.766548
O O14 0.250000 0.750000 0.131457
O O15 0.000000 0.815573 0.132665
#
# Coordination Sequence:
#
# PCOD8274476 Si02
#       5
#    16   8  16  16  16
#     4  11  22  35  53  76 102 133 170 210 251 296
#     4   8  14  24  41  67  93 121 157 194 236 284
#     4   9  19  37  59  81 106 135 165 200 245 295
#     4   9  18  32  49  70  97 128 161 201 250 298
#     4   9  16  28  47  69  95 125 159 199 240 286
#
# _framework density 18.525593000000001
#
# number of rings (size 3 to 8) (size 9 to 14) (size 15 to 20)
#    0.000    2.667    0.000    2.667    0.000    2.222 
#    0.000    2.778    0.000    6.667    0.000    0.000 
#    0.000    8.889    0.000    0.000    0.000    0.000 
#
# Total GULP energy -446178.489253 kJ/mol
# GULP energy per Si atom -12393.846924 kJ/mol
# Density = 1.848343 g / cm^3
# Si number density = 18.525593 Si / 1000 Ang^3
#
#
#
# Elastic Constant Matrix: (Units=GPa)
#
#
# Indices 1 2 3 4 5 6 
#
# 1 43.1574 38.3467 39.5353 0.0000 0.0000 0.0000
# 2 38.3467 138.5860 86.2236 0.0000 0.0000 0.0000
# 3 39.5353 86.2236 148.7535 0.0000 0.0000 0.0000
# 4 0.0000 0.0000 0.0000 28.2429 0.0000 0.0000
# 5 0.0000 0.0000 0.0000 0.0000 19.9546 0.0000
# 6 0.0000 0.0000 0.0000 0.0000 0.0000 10.9162
#
#
#
# Elastic Compliance Matrix: (Units=1/GPa)
#
#
# Indices 1 2 3 4 5 6 
#
# 1 0.033375 -0.005812 -0.005501 0.000000 0.000000 0.000000
# 2 -0.005812 0.012298 -0.005584 0.000000 0.000000 0.000000
# 3 -0.005501 -0.005584 0.011421 0.000000 0.000000 0.000000
# 4 0.000000 0.000000 0.000000 0.035407 0.000000 0.000000
# 5 0.000000 0.000000 0.000000 0.000000 0.050114 0.000000
# 6 0.000000 0.000000 0.000000 0.000000 0.000000 0.091607
#
#
# Mechanical properties :
#
#
# Convention : Reuss Voigt Hill
#
# Bulk Modulus (GPa) = 42.91888 73.18980 58.05434
# Shear Modulus (GPa) = 18.13024 22.91548 20.52286
#
# Velocity S-wave (km/s) = 3.13175 3.52086 3.33199
# Velocity P-wave (km/s) = 6.02451 7.49145 6.79767
#
# Compressibility (1/GPa) = 0.02329977
#
# Stress axis : x y z
#
# Youngs Moduli (GPa) = 29.96272 81.31479 87.55654
#
# Poissons Ratio (x) = 0.47260 0.48168
# Poissons Ratio (y) = 0.17414 0.48889
# Poissons Ratio (z) = 0.16484 0.45403
#
# Static dielectric constant tensor:
#      x y z
#    x 3.100320 0.000000 0.000000 
#    y 0.000000 3.326080 0.000000 
#    z 0.000000 0.000000 3.912720 
# 
# 
# High freq. dielectric constant tensor:
#      x y z
#    x 1.694710 0.000000 0.000000 
#    y 0.000000 1.703130 0.000000 
#    z 0.000000 0.000000 1.742530 
# 
# From -- ./inp_files/70376.got.cif
#   From: 2010.03.12/outbox.cif.g09.slc.cpg/sg65_36_cif.got.tgz:70376.got - 2010.04.10 20:52:16.
