data_PCOD8274367
_publ_section_title
;
Structure prediction by ZEFSAII (Michael W. Deem and Ramdas Pophale) SiO2 
 PCOD8274367
Probable space group: C M M M
;
_chemical_formula_sum "Si O2"
_cell_formula_units_Z 64
_cell_length_a 8.675568
_cell_length_b 18.650499
_cell_length_c 20.969318
_cell_angle_alpha 90.000000
_cell_angle_beta 90.000000
_cell_angle_gamma 90.000000
_cell_volume 3392.912658
_symmetry_space_group_name_H-M "C M M M"
_symmetry_group_IT_number 65
_symmetry_cell_setting 'orthorhombic'
loop_
_space_group_symop_operation_xyz
x,y,z
-x,-y,z
x,-y,-z
-x,y,-z
-x,-y,-z
x,y,-z
-x,y,z
x,-y,z
1/2+x,1/2+y,z
1/2-x,1/2-y,z
1/2+x,1/2-y,-z
1/2-x,1/2+y,-z
1/2-x,1/2-y,-z
1/2+x,1/2+y,-z
1/2-x,1/2+y,z
1/2+x,1/2-y,z
loop_
_atom_site_type_symbol
_atom_site_label
_atom_site_fract_x
_atom_site_fract_y
_atom_site_fract_z
Si Si1 0.819569 0.915954 0.500000
Si Si2 0.319769 0.671913 0.882921
Si Si3 0.680543 0.671900 0.743419
Si Si4 0.317857 0.829737 0.384163
Si Si5 0.184025 0.919954 0.000000
O O1 0.744145 0.881688 0.561923
O O2 0.000000 0.899475 0.500000
O O3 0.783861 0.000000 0.500000
O O4 0.500000 0.681825 0.892528
O O5 0.250000 0.750000 0.891234
O O6 0.286789 0.636375 0.812838
O O7 0.251810 0.619615 0.936905
O O8 0.500000 0.675165 0.727965
O O9 0.750000 0.750000 0.748945
O O10 0.765858 0.634481 0.683595
O O11 0.500000 0.824819 0.388368
O O12 0.250000 0.750000 0.392435
O O13 0.000000 0.921513 0.000000
O O14 0.251514 0.000000 0.000000
#
# Coordination Sequence:
#
# PCOD8274367 Si02
#       5
#     8  16  16  16   8
#     4  11  24  41  58  77 105 139 174 213 256 303
#     4   9  17  29  49  74  98 128 166 209 253 299
#     4   9  16  28  47  74 103 129 165 209 255 302
#     4  11  21  35  57  82 108 137 172 212 255 305
#     4   9  17  30  47  69  98 131 168 208 250 299
#
# _framework density 18.862848
#
# number of rings (size 3 to 8) (size 9 to 14) (size 15 to 20)
#    0.000    2.250    0.000    5.625    0.000    2.000 
#    0.000    1.250    0.000    6.000    0.000    0.000 
#    0.000    0.000    0.000    0.000    0.000    0.000 
#
# Total GULP energy -396557.902196 kJ/mol
# GULP energy per Si atom -12392.434444 kJ/mol
# Density = 1.881992 g / cm^3
# Si number density = 18.862848 Si / 1000 Ang^3
#
#
#
# Elastic Constant Matrix: (Units=GPa)
#
#
# Indices 1 2 3 4 5 6 
#
# 1 106.1443 44.5076 67.1630 0.0000 0.0000 0.0000
# 2 44.5076 88.7693 80.3217 0.0000 0.0000 0.0000
# 3 67.1630 80.3217 212.4801 0.0000 0.0000 0.0000
# 4 0.0000 0.0000 0.0000 1.1893 0.0000 0.0000
# 5 0.0000 0.0000 0.0000 0.0000 28.3121 0.0000
# 6 0.0000 0.0000 0.0000 0.0000 0.0000 19.7408
#
#
#
# Elastic Compliance Matrix: (Units=1/GPa)
#
#
# Indices 1 2 3 4 5 6 
#
# 1 0.012714 -0.004162 -0.002445 0.000000 0.000000 0.000000
# 2 -0.004162 0.018484 -0.005672 0.000000 0.000000 0.000000
# 3 -0.002445 -0.005672 0.007623 0.000000 0.000000 0.000000
# 4 0.000000 0.000000 0.000000 0.840814 0.000000 0.000000
# 5 0.000000 0.000000 0.000000 0.000000 0.035321 0.000000
# 6 0.000000 0.000000 0.000000 0.000000 0.000000 0.050657
#
#
# Mechanical properties :
#
#
# Convention : Reuss Voigt Hill
#
# Bulk Modulus (GPa) = 70.11189 87.93095 79.02142
# Shear Modulus (GPa) = 5.02551 24.20853 14.61702
#
# Velocity S-wave (km/s) = 1.63402 3.58634 2.78674
# Velocity P-wave (km/s) = 6.38827 7.99164 7.23451
#
# Compressibility (1/GPa) = 0.01426292
#
# Stress axis : x y z
#
# Youngs Moduli (GPa) = 78.65638 54.10145 131.17589
#
# Poissons Ratio (x) = 0.22515 0.32078
# Poissons Ratio (y) = 0.32734 0.74400
# Poissons Ratio (z) = 0.19235 0.30685
#
# Static dielectric constant tensor:
#      x y z
#    x 3.469150 0.000000 0.000000 
#    y 0.000000 3.183700 0.000000 
#    z 0.000000 0.000000 5.026320 
# 
# 
# High freq. dielectric constant tensor:
#      x y z
#    x 1.730220 0.000000 0.000000 
#    y 0.000000 1.687910 0.000000 
#    z 0.000000 0.000000 1.765500 
# 
# From -- ./inp_files/58826.got.cif
#   From: 2010.03.12/outbox.cif.g09.slc.cpg/sg65_30_cif.got.tgz:58826.got - 2010.04.10 20:52:16.
