data_PCOD8274879
_publ_section_title
;
Structure prediction by ZEFSAII (Michael W. Deem and Ramdas Pophale) SiO2 
 PCOD8274879
Probable space group: C M M M
;
_chemical_formula_sum "Si O2"
_cell_formula_units_Z 104
_cell_length_a 9.448564
_cell_length_b 19.989362
_cell_length_c 33.224820
_cell_angle_alpha 90.000000
_cell_angle_beta 90.000000
_cell_angle_gamma 90.000000
_cell_volume 6275.197209
_symmetry_space_group_name_H-M "C M M M"
_symmetry_group_IT_number 65
_symmetry_cell_setting 'orthorhombic'
loop_
_space_group_symop_operation_xyz
x,y,z
-x,-y,z
x,-y,-z
-x,y,-z
-x,-y,-z
x,y,-z
-x,y,z
x,-y,z
1/2+x,1/2+y,z
1/2-x,1/2-y,z
1/2+x,1/2-y,-z
1/2-x,1/2+y,-z
1/2-x,1/2-y,-z
1/2+x,1/2+y,-z
1/2-x,1/2+y,z
1/2+x,1/2-y,z
loop_
_atom_site_type_symbol
_atom_site_label
_atom_site_fract_x
_atom_site_fract_y
_atom_site_fract_z
Si Si1 0.335686 0.576767 0.194642
Si Si2 0.840822 0.420389 0.117917
Si Si3 0.154508 0.079288 0.500000
Si Si4 0.341173 0.579573 0.044621
Si Si5 0.165792 0.184757 0.648423
Si Si6 0.330729 0.425352 0.413668
Si Si7 0.163763 0.814610 0.259537
O O1 0.500000 0.584110 0.183061
O O2 0.298924 0.500000 0.205361
O O3 0.244941 0.603316 0.157059
O O4 0.294402 0.621273 0.233035
O O5 0.841919 0.500000 0.115954
O O6 0.765208 0.390708 0.078028
O O7 0.000000 0.391802 0.119945
O O8 0.230957 0.098919 0.457620
O O9 0.000000 0.113593 0.500000
O O10 0.136417 0.000000 0.500000
O O11 0.500000 0.605711 0.053378
O O12 0.340884 0.500000 0.046846
O O13 0.291901 0.602818 0.000000
O O14 0.250000 0.250000 0.634527
O O15 0.222398 0.123882 0.621198
O O16 0.200952 0.166667 0.694558
O O17 0.000000 0.197901 0.642057
O O18 0.500000 0.425896 0.416234
O O19 0.275700 0.500000 0.403259
O O20 0.250000 0.750000 0.244833
O O21 0.000000 0.796379 0.254643
#
# Coordination Sequence:
#
# PCOD8274879 Si02
#       7
#    16  16   8  16  16  16  16
#     4   9  17  29  44  61  82 108 138 173 212 253
#     4   9  16  24  35  54  80 108 137 171 212 253
#     4   7  10  18  33  56  85 111 136 171 214 250
#     4   8  13  21  33  49  72 106 144 175 205 246
#     4   9  17  29  44  62  85 111 138 171 213 257
#     4   8  13  22  39  62  85 110 142 179 213 246
#     4   9  18  31  46  63  83 110 141 173 212 256
#
# _framework density 16.573184999999999
#
# number of rings (size 3 to 8) (size 9 to 14) (size 15 to 20)
#    0.000    3.462    0.000    1.846    0.000    3.385 
#    0.000    5.000    0.000    0.462    0.000    4.308 
#    0.000    2.462    0.000    2.000    0.000    4.000 
#
# Total GULP energy -644386.276783 kJ/mol
# GULP energy per Si atom -12392.043784 kJ/mol
# Density = 1.653546 g / cm^3
# Si number density = 16.573185 Si / 1000 Ang^3
#
#
#
# Elastic Constant Matrix: (Units=GPa)
#
#
# Indices 1 2 3 4 5 6 
#
# 1 57.7673 33.4744 54.2516 0.0000 0.0000 0.0000
# 2 33.4744 70.9541 67.9634 0.0000 0.0000 0.0000
# 3 54.2516 67.9634 139.4823 0.0000 0.0000 0.0000
# 4 0.0000 0.0000 0.0000 5.1510 0.0000 0.0000
# 5 0.0000 0.0000 0.0000 0.0000 13.9501 0.0000
# 6 0.0000 0.0000 0.0000 0.0000 0.0000 16.8638
#
#
#
# Elastic Compliance Matrix: (Units=1/GPa)
#
#
# Indices 1 2 3 4 5 6 
#
# 1 0.028283 -0.005262 -0.008437 0.000000 0.000000 0.000000
# 2 -0.005262 0.027407 -0.011307 0.000000 0.000000 0.000000
# 3 -0.008437 -0.011307 0.015960 0.000000 0.000000 0.000000
# 4 0.000000 0.000000 0.000000 0.194138 0.000000 0.000000
# 5 0.000000 0.000000 0.000000 0.000000 0.071684 0.000000
# 6 0.000000 0.000000 0.000000 0.000000 0.000000 0.059299
#
#
# Mechanical properties :
#
#
# Convention : Reuss Voigt Hill
#
# Bulk Modulus (GPa) = 46.21503 64.39806 55.30655
# Shear Modulus (GPa) = 11.01326 14.69392 12.85359
#
# Velocity S-wave (km/s) = 2.58063 2.98083 2.78792
# Velocity P-wave (km/s) = 6.06840 7.12659 6.61868
#
# Compressibility (1/GPa) = 0.02163798
#
# Stress axis : x y z
#
# Youngs Moduli (GPa) = 35.35635 36.48692 62.65480
#
# Poissons Ratio (x) = 0.19200 0.52860
# Poissons Ratio (y) = 0.18605 0.70847
# Poissons Ratio (z) = 0.29829 0.41258
#
# Static dielectric constant tensor:
#      x y z
#    x 2.983080 0.000000 0.000000 
#    y 0.000000 2.783260 0.000000 
#    z 0.000000 0.000000 3.452080 
# 
# 
# High freq. dielectric constant tensor:
#      x y z
#    x 1.612440 0.000000 0.000000 
#    y 0.000000 1.590110 0.000000 
#    z 0.000000 0.000000 1.653730 
# 
# From -- ./inp_files/77012.got.cif
#   From: 2010.03.12/outbox.cif.g09.slc.cpg/sg65_39_cif.got.tgz:77012.got - 2010.04.10 20:52:16.
