data_PCOD8274831
_publ_section_title
;
Structure prediction by ZEFSAII (Michael W. Deem and Ramdas Pophale) SiO2 
 PCOD8274831
Probable space group: C M M M
;
_chemical_formula_sum "Si O2"
_cell_formula_units_Z 72
_cell_length_a 17.885596
_cell_length_b 14.285308
_cell_length_c 15.096958
_cell_angle_alpha 90.000000
_cell_angle_beta 90.000000
_cell_angle_gamma 90.000000
_cell_volume 3857.291604
_symmetry_space_group_name_H-M "C M M M"
_symmetry_group_IT_number 65
_symmetry_cell_setting 'orthorhombic'
loop_
_space_group_symop_operation_xyz
x,y,z
-x,-y,z
x,-y,-z
-x,y,-z
-x,-y,-z
x,y,-z
-x,y,z
x,-y,z
1/2+x,1/2+y,z
1/2-x,1/2-y,z
1/2+x,1/2-y,-z
1/2-x,1/2+y,-z
1/2-x,1/2-y,-z
1/2+x,1/2+y,-z
1/2-x,1/2+y,z
1/2+x,1/2-y,z
loop_
_atom_site_type_symbol
_atom_site_label
_atom_site_fract_x
_atom_site_fract_y
_atom_site_fract_z
Si Si1 0.088267 0.603280 0.000000
Si Si2 0.913959 0.110091 0.898555
Si Si3 0.335903 0.724026 0.746803
Si Si4 0.914893 0.108925 0.601972
Si Si5 0.912050 0.394250 0.190954
O O1 0.112034 0.649379 0.906333
O O2 0.123477 0.500000 0.000000
O O3 0.000000 0.594060 0.000000
O O4 0.859533 0.165386 0.833212
O O5 0.000000 0.135189 0.875725
O O6 0.900321 0.000000 0.885778
O O7 0.896672 0.139599 0.000000
O O8 0.250000 0.750000 0.751313
O O9 0.355582 0.666550 0.659023
O O10 0.378095 0.823586 0.738164
O O11 0.902924 0.136149 0.500000
O O12 0.000000 0.132166 0.631289
O O13 0.898941 0.000000 0.617304
O O14 0.880761 0.500000 0.203633
O O15 0.000000 0.396456 0.202187
#
# Coordination Sequence:
#
# PCOD8274831 Si02
#       5
#     8  16  16  16  16
#     4   7  12  26  47  66  85 121 179 235 262 271
#     4   9  19  37  59  80 105 144 196 247 287 324
#     4  12  24  33  51  81 120 152 175 213 279 350
#     4   9  19  39  67  91 106 130 179 237 283 327
#     4   9  18  33  51  71  98 139 192 235 259 295
#
# _framework density 18.665946000000002
#
# number of rings (size 3 to 8) (size 9 to 14) (size 15 to 20)
#    0.000    2.556    0.000    5.333    1.556    4.444 
#    0.000    0.000    0.000    0.667    0.000    3.111 
#    0.000    0.000    0.000    0.000    0.000    0.000 
#
# Total GULP energy -446105.139645 kJ/mol
# GULP energy per Si atom -12391.809435 kJ/mol
# Density = 1.862346 g / cm^3
# Si number density = 18.665946 Si / 1000 Ang^3
#
#
#
# Elastic Constant Matrix: (Units=GPa)
#
#
# Indices 1 2 3 4 5 6 
#
# 1 90.1740 52.9848 57.6939 0.0000 0.0000 0.0000
# 2 52.9848 87.5450 59.7200 0.0000 0.0000 0.0000
# 3 57.6939 59.7200 102.1558 0.0000 0.0000 0.0000
# 4 0.0000 0.0000 0.0000 34.6455 0.0000 0.0000
# 5 0.0000 0.0000 0.0000 0.0000 21.1493 0.0000
# 6 0.0000 0.0000 0.0000 0.0000 0.0000 10.5794
#
#
#
# Elastic Compliance Matrix: (Units=1/GPa)
#
#
# Indices 1 2 3 4 5 6 
#
# 1 0.019784 -0.007239 -0.006942 0.000000 0.000000 0.000000
# 2 -0.007239 0.021648 -0.008567 0.000000 0.000000 0.000000
# 3 -0.006942 -0.008567 0.018718 0.000000 0.000000 0.000000
# 4 0.000000 0.000000 0.000000 0.028864 0.000000 0.000000
# 5 0.000000 0.000000 0.000000 0.000000 0.047283 0.000000
# 6 0.000000 0.000000 0.000000 0.000000 0.000000 0.094524
#
#
# Mechanical properties :
#
#
# Convention : Reuss Voigt Hill
#
# Bulk Modulus (GPa) = 68.23684 68.96356 68.60020
# Shear Modulus (GPa) = 17.78087 20.57323 19.17705
#
# Velocity S-wave (km/s) = 3.08974 3.32351 3.20876
# Velocity P-wave (km/s) = 7.02602 7.19403 7.11052
#
# Compressibility (1/GPa) = 0.01465484
#
# Stress axis : x y z
#
# Youngs Moduli (GPa) = 50.54490 46.19362 53.42489
#
# Poissons Ratio (x) = 0.33438 0.37087
# Poissons Ratio (y) = 0.36588 0.45771
# Poissons Ratio (z) = 0.35087 0.39575
#
# Static dielectric constant tensor:
#      x y z
#    x 3.052850 0.000000 0.000000 
#    y 0.000000 3.659730 0.000000 
#    z 0.000000 0.000000 3.392890 
# 
# 
# High freq. dielectric constant tensor:
#      x y z
#    x 1.690470 0.000000 0.000000 
#    y 0.000000 1.735110 0.000000 
#    z 0.000000 0.000000 1.711510 
# 
# From -- ./inp_files/42133.got.cif
#   From: 2010.03.12/outbox.cif.g09.slc.cpg/sg65_22_cif.got.tgz:42133.got - 2010.04.10 20:52:16.
