data_PCOD8274334
_publ_section_title
;
Structure prediction by ZEFSAII (Michael W. Deem and Ramdas Pophale) SiO2 
 PCOD8274334
Probable space group: C M M M
;
_chemical_formula_sum "Si O2"
_cell_formula_units_Z 64
_cell_length_a 23.052884
_cell_length_b 19.005613
_cell_length_c 8.522455
_cell_angle_alpha 90.000000
_cell_angle_beta 90.000000
_cell_angle_gamma 90.000000
_cell_volume 3733.978934
_symmetry_space_group_name_H-M "C M M M"
_symmetry_group_IT_number 65
_symmetry_cell_setting 'orthorhombic'
loop_
_space_group_symop_operation_xyz
x,y,z
-x,-y,z
x,-y,-z
-x,y,-z
-x,-y,-z
x,y,-z
-x,y,z
x,-y,z
1/2+x,1/2+y,z
1/2-x,1/2-y,z
1/2+x,1/2-y,-z
1/2-x,1/2+y,-z
1/2-x,1/2-y,-z
1/2+x,1/2+y,-z
1/2-x,1/2+y,z
1/2+x,1/2-y,z
loop_
_atom_site_type_symbol
_atom_site_label
_atom_site_fract_x
_atom_site_fract_y
_atom_site_fract_z
Si Si1 0.067345 0.357031 0.818497
Si Si2 0.750309 0.500000 0.685579
Si Si3 0.615890 0.000000 0.314642
Si Si4 0.835838 0.732546 0.316947
Si Si5 0.267321 0.645904 0.183742
O O1 0.083518 0.432526 0.751213
O O2 0.100814 0.294736 0.729286
O O3 0.000000 0.342638 0.790747
O O4 0.084486 0.355225 0.000000
O O5 0.743018 0.500000 0.500000
O O6 0.817321 0.500000 0.738879
O O7 0.718290 0.567542 0.758760
O O8 0.610947 0.000000 0.500000
O O9 0.833011 0.749067 0.500000
O O10 0.789449 0.672122 0.276099
O O11 0.821777 0.804053 0.223027
O O12 0.254289 0.647970 0.000000
#
# Coordination Sequence:
#
# PCOD8274334 Si02
#       5
#    16   8   8  16  16
#     4  11  23  37  53  74 103 140 181 221 259 305
#     4  11  21  34  52  79 108 139 173 214 261 311
#     4  11  22  34  51  74 105 141 179 219 256 305
#     4  11  21  35  53  75 103 136 173 217 262 309
#     4  11  21  34  54  77 103 136 172 214 262 313
#
# _framework density 17.139892
#
# number of rings (size 3 to 8) (size 9 to 14) (size 15 to 20)
#    0.000    1.000    2.500    7.875    0.000    4.500 
#    0.000    0.000    0.000    0.000    0.000    0.875 
#    0.000    7.000    0.000    0.000    0.000    0.000 
#
# Total GULP energy -396993.355682 kJ/mol
# GULP energy per Si atom -12406.042365 kJ/mol
# Density = 1.710088 g / cm^3
# Si number density = 17.139892 Si / 1000 Ang^3
#
#
#
# Elastic Constant Matrix: (Units=GPa)
#
#
# Indices 1 2 3 4 5 6 
#
# 1 67.5872 39.7993 25.5393 0.0000 0.0000 0.0000
# 2 39.7993 122.1336 26.9817 0.0000 0.0000 0.0000
# 3 25.5393 26.9817 91.4306 0.0000 0.0000 0.0000
# 4 0.0000 0.0000 0.0000 32.5342 0.0000 0.0000
# 5 0.0000 0.0000 0.0000 0.0000 23.9724 0.0000
# 6 0.0000 0.0000 0.0000 0.0000 0.0000 26.1487
#
#
#
# Elastic Compliance Matrix: (Units=1/GPa)
#
#
# Indices 1 2 3 4 5 6 
#
# 1 0.019479 -0.005504 -0.003817 0.000000 0.000000 0.000000
# 2 -0.005504 0.010314 -0.001506 0.000000 0.000000 0.000000
# 3 -0.003817 -0.001506 0.012448 0.000000 0.000000 0.000000
# 4 0.000000 0.000000 0.000000 0.030737 0.000000 0.000000
# 5 0.000000 0.000000 0.000000 0.000000 0.041715 0.000000
# 6 0.000000 0.000000 0.000000 0.000000 0.000000 0.038243
#
#
# Mechanical properties :
#
#
# Convention : Reuss Voigt Hill
#
# Bulk Modulus (GPa) = 48.57545 51.75467 50.16506
# Shear Modulus (GPa) = 27.55539 29.11981 28.33760
#
# Velocity S-wave (km/s) = 4.01393 4.12630 4.07051
# Velocity P-wave (km/s) = 7.06288 7.27756 7.17102
#
# Compressibility (1/GPa) = 0.02058653
#
# Stress axis : x y z
#
# Youngs Moduli (GPa) = 51.33664 96.95346 80.33494
#
# Poissons Ratio (x) = 0.53368 0.30662
# Poissons Ratio (y) = 0.28258 0.12100
# Poissons Ratio (z) = 0.19594 0.14603
#
# Static dielectric constant tensor:
#      x y z
#    x 3.062020 0.000000 0.000000 
#    y 0.000000 3.304930 0.000000 
#    z 0.000000 0.000000 3.380310 
# 
# 
# High freq. dielectric constant tensor:
#      x y z
#    x 1.630050 0.000000 0.000000 
#    y 0.000000 1.661080 0.000000 
#    z 0.000000 0.000000 1.685510 
# 
# From -- ./inp_files/13528.got.cif
#   From: 2010.03.12/outbox.cif.g09.slc.cpg/sg65_7_cif.got.tgz:13528.got - 2010.04.10 20:52:16.
