data_PCOD8274533
_publ_section_title
;
Structure prediction by ZEFSAII (Michael W. Deem and Ramdas Pophale) SiO2 
 PCOD8274533
Probable space group: C M M M
;
_chemical_formula_sum "Si O2"
_cell_formula_units_Z 112
_cell_length_a 15.400975
_cell_length_b 27.288561
_cell_length_c 13.951052
_cell_angle_alpha 90.000000
_cell_angle_beta 90.000000
_cell_angle_gamma 90.000000
_cell_volume 5863.214843
_symmetry_space_group_name_H-M "C M M M"
_symmetry_group_IT_number 65
_symmetry_cell_setting 'orthorhombic'
loop_
_space_group_symop_operation_xyz
x,y,z
-x,-y,z
x,-y,-z
-x,y,-z
-x,-y,-z
x,y,-z
-x,y,z
x,-y,z
1/2+x,1/2+y,z
1/2-x,1/2-y,z
1/2+x,1/2-y,-z
1/2-x,1/2+y,-z
1/2-x,1/2-y,-z
1/2+x,1/2+y,-z
1/2-x,1/2+y,z
1/2+x,1/2-y,z
loop_
_atom_site_type_symbol
_atom_site_label
_atom_site_fract_x
_atom_site_fract_y
_atom_site_fract_z
Si Si1 0.900767 0.153576 0.767053
Si Si2 0.595195 0.861053 0.788019
Si Si3 0.311331 0.555507 0.266128
Si Si4 0.305299 0.704000 0.393779
Si Si5 0.686364 0.109803 0.605978
Si Si6 0.251902 0.192165 0.890906
Si Si7 0.829400 0.445665 0.108906
O O1 0.886583 0.096696 0.735420
O O2 0.883355 0.190695 0.678295
O O3 0.837833 0.168589 0.854218
O O4 0.000000 0.159889 0.800078
O O5 0.500000 0.836508 0.796887
O O6 0.607822 0.878786 0.678427
O O7 0.669791 0.823942 0.821560
O O8 0.596804 0.908596 0.856138
O O9 0.349130 0.500000 0.275867
O O10 0.245586 0.565342 0.354339
O O11 0.259158 0.562153 0.167420
O O12 0.342932 0.716316 0.500000
O O13 0.250000 0.750000 0.353807
O O14 0.242922 0.658133 0.400063
O O15 0.650955 0.095802 0.500000
O O16 0.250000 0.250000 0.886329
O O17 0.267570 0.174255 0.000000
O O18 0.867122 0.500000 0.123549
O O19 0.804164 0.435058 0.000000
#
# Coordination Sequence:
#
# PCOD8274533 Si02
#       7
#    16  16  16  16  16  16  16
#     4  11  22  36  58  87 118 153 193 240 291 342
#     4  11  22  36  58  86 115 148 189 236 290 349
#     4   9  18  34  55  82 114 155 199 237 283 340
#     4   9  17  34  59  81 108 146 186 231 286 338
#     4   9  18  34  55  81 114 150 188 232 282 339
#     4  11  24  43  61  80 114 154 194 239 288 345
#     4   9  17  32  56  81 107 141 182 232 287 339
#
# _framework density 19.102148
#
# number of rings (size 3 to 8) (size 9 to 14) (size 15 to 20)
#    0.000    2.143    4.286    0.857    0.000    3.429 
#    0.000    2.143    0.000    2.571    0.000   11.000 
#    0.000    0.000    0.000    0.000    0.000    0.000 
#
# Total GULP energy -694087.599538 kJ/mol
# GULP energy per Si atom -12394.421420 kJ/mol
# Density = 1.905867 g / cm^3
# Si number density = 19.102148 Si / 1000 Ang^3
#
#
#
# Elastic Constant Matrix: (Units=GPa)
#
#
# Indices 1 2 3 4 5 6 
#
# 1 114.4228 34.2647 33.7014 0.0000 0.0000 0.0000
# 2 34.2647 95.3475 30.4358 0.0000 0.0000 0.0000
# 3 33.7014 30.4358 129.6698 0.0000 0.0000 0.0000
# 4 0.0000 0.0000 0.0000 23.4430 0.0000 0.0000
# 5 0.0000 0.0000 0.0000 0.0000 11.0890 0.0000
# 6 0.0000 0.0000 0.0000 0.0000 0.0000 13.4675
#
#
#
# Elastic Compliance Matrix: (Units=1/GPa)
#
#
# Indices 1 2 3 4 5 6 
#
# 1 0.010226 -0.003055 -0.001941 0.000000 0.000000 0.000000
# 2 -0.003055 0.012250 -0.002081 0.000000 0.000000 0.000000
# 3 -0.001941 -0.002081 0.008705 0.000000 0.000000 0.000000
# 4 0.000000 0.000000 0.000000 0.042657 0.000000 0.000000
# 5 0.000000 0.000000 0.000000 0.000000 0.090179 0.000000
# 6 0.000000 0.000000 0.000000 0.000000 0.000000 0.074253
#
#
# Mechanical properties :
#
#
# Convention : Reuss Voigt Hill
#
# Bulk Modulus (GPa) = 58.73179 59.58267 59.15723
# Shear Modulus (GPa) = 19.37230 25.66910 22.52070
#
# Velocity S-wave (km/s) = 3.18802 3.66974 3.43733
# Velocity P-wave (km/s) = 6.66064 7.01536 6.84030
#
# Compressibility (1/GPa) = 0.01702655
#
# Stress axis : x y z
#
# Youngs Moduli (GPa) = 97.78929 81.63037 114.87952
#
# Poissons Ratio (x) = 0.24942 0.22294
# Poissons Ratio (y) = 0.29879 0.23909
# Poissons Ratio (z) = 0.18977 0.16989
#
# Static dielectric constant tensor:
#      x y z
#    x 3.029930 0.000000 0.000000 
#    y 0.000000 3.815830 0.000000 
#    z 0.000000 0.000000 4.057100 
# 
# 
# High freq. dielectric constant tensor:
#      x y z
#    x 1.698630 0.000000 0.000000 
#    y 0.000000 1.752980 0.000000 
#    z 0.000000 0.000000 1.754120 
# 
# From -- ./inp_files/41115.got.cif
#   From: 2010.03.12/outbox.cif.g09.slc.cpg/sg65_21_cif.got.tgz:41115.got - 2010.04.10 20:52:16.
