data_PCOD8274080
_publ_section_title
;
Structure prediction by ZEFSAII (Michael W. Deem and Ramdas Pophale) SiO2 
 PCOD8274080
Probable space group: C M M M
;
_chemical_formula_sum "Si O2"
_cell_formula_units_Z 72
_cell_length_a 16.420342
_cell_length_b 28.156656
_cell_length_c 7.575468
_cell_angle_alpha 90.000000
_cell_angle_beta 90.000000
_cell_angle_gamma 90.000000
_cell_volume 3502.456428
_symmetry_space_group_name_H-M "C M M M"
_symmetry_group_IT_number 65
_symmetry_cell_setting 'orthorhombic'
loop_
_space_group_symop_operation_xyz
x,y,z
-x,-y,z
x,-y,-z
-x,y,-z
-x,-y,-z
x,y,-z
-x,y,z
x,-y,z
1/2+x,1/2+y,z
1/2-x,1/2-y,z
1/2+x,1/2-y,-z
1/2-x,1/2+y,-z
1/2-x,1/2-y,-z
1/2+x,1/2+y,-z
1/2-x,1/2+y,z
1/2+x,1/2-y,z
loop_
_atom_site_type_symbol
_atom_site_label
_atom_site_fract_x
_atom_site_fract_y
_atom_site_fract_z
Si Si1 0.273986 0.943975 0.500000
Si Si2 0.409530 0.694538 0.209153
Si Si3 0.403500 0.132030 0.500000
Si Si4 0.403024 0.798615 0.195958
Si Si5 0.000000 0.944000 0.298678
Si Si6 0.665718 0.400576 0.199458
O O1 0.362322 0.919410 0.500000
O O2 0.226158 0.928940 0.325189
O O3 0.287513 0.000000 0.500000
O O4 0.500000 0.685841 0.290992
O O5 0.374807 0.746419 0.264432
O O6 0.346952 0.653530 0.271182
O O7 0.417646 0.692937 0.000000
O O8 0.500000 0.124745 0.500000
O O9 0.372492 0.160787 0.671726
O O10 0.500000 0.797733 0.189227
O O11 0.367875 0.809618 0.000000
O O12 0.921580 0.925525 0.196155
O O13 0.000000 0.925576 0.500000
O O14 0.000000 0.000000 0.293115
O O15 0.700907 0.401235 0.000000
#
# Coordination Sequence:
#
# PCOD8274080 Si02
#       6
#     8  16   8  16   8  16
#     4  12  28  45  59  81 114 148 193 258 315 351
#     4   8  14  28  53  87 123 159 194 223 262 325
#     4  10  22  42  66  88 105 139 194 244 307 380
#     4   8  15  31  58  90 120 146 179 229 285 347
#     4  11  21  35  55  82 119 163 214 255 273 307
#     4  11  22  38  59  86 122 164 203 235 279 335
#
# _framework density 20.557001
#
# number of rings (size 3 to 8) (size 9 to 14) (size 15 to 20)
#    0.000    2.333    2.222    2.333    0.000    4.222 
#    0.000    3.333    0.000    4.000    0.000    4.667 
#    0.000    0.000    0.000    0.000    0.000    0.000 
#
# Total GULP energy -446270.945125 kJ/mol
# GULP energy per Si atom -12396.415142 kJ/mol
# Density = 2.051021 g / cm^3
# Si number density = 20.557001 Si / 1000 Ang^3
#
#
#
# Elastic Constant Matrix: (Units=GPa)
#
#
# Indices 1 2 3 4 5 6 
#
# 1 47.1987 54.5100 28.1289 0.0000 0.0000 0.0000
# 2 54.5100 173.1457 61.9114 0.0000 0.0000 0.0000
# 3 28.1289 61.9114 108.2686 0.0000 0.0000 0.0000
# 4 0.0000 0.0000 0.0000 17.0942 0.0000 0.0000
# 5 0.0000 0.0000 0.0000 0.0000 3.5594 0.0000
# 6 0.0000 0.0000 0.0000 0.0000 0.0000 25.4320
#
#
#
# Elastic Compliance Matrix: (Units=1/GPa)
#
#
# Indices 1 2 3 4 5 6 
#
# 1 0.034280 -0.009563 -0.003438 0.000000 0.000000 0.000000
# 2 -0.009563 0.009928 -0.003192 0.000000 0.000000 0.000000
# 3 -0.003438 -0.003192 0.011955 0.000000 0.000000 0.000000
# 4 0.000000 0.000000 0.000000 0.058499 0.000000 0.000000
# 5 0.000000 0.000000 0.000000 0.000000 0.280947 0.000000
# 6 0.000000 0.000000 0.000000 0.000000 0.000000 0.039321
#
#
# Mechanical properties :
#
#
# Convention : Reuss Voigt Hill
#
# Bulk Modulus (GPa) = 42.05852 68.63486 55.34669
# Shear Modulus (GPa) = 10.52097 21.48796 16.00447
#
# Velocity S-wave (km/s) = 2.26474 3.23660 2.79326
# Velocity P-wave (km/s) = 5.22902 6.88676 6.11433
#
# Compressibility (1/GPa) = 0.02377639
#
# Stress axis : x y z
#
# Youngs Moduli (GPa) = 29.17150 100.72949 83.64712
#
# Poissons Ratio (x) = 0.96326 0.28757
# Poissons Ratio (y) = 0.27896 0.26704
# Poissons Ratio (z) = 0.10029 0.32157
#
# Static dielectric constant tensor:
#      x y z
#    x 3.243970 0.000000 0.000000 
#    y 0.000000 3.959270 0.000000 
#    z 0.000000 0.000000 3.864760 
# 
# 
# High freq. dielectric constant tensor:
#      x y z
#    x 1.760570 0.000000 0.000000 
#    y 0.000000 1.805210 0.000000 
#    z 0.000000 0.000000 1.803260 
# 
# From -- ./inp_files/7379.got.cif
#   From: 2010.03.12/outbox.cif.g09.slc.cpg/sg65_4_cif.got.tgz:7379.got - 2010.04.10 20:52:16.
