data_PCOD8274958
_publ_section_title
;
Structure prediction by ZEFSAII (Michael W. Deem and Ramdas Pophale) SiO2 
 PCOD8274958
Probable space group: C M M M
;
_chemical_formula_sum "Si O2"
_cell_formula_units_Z 88
_cell_length_a 9.449332
_cell_length_b 28.671810
_cell_length_c 23.318932
_cell_angle_alpha 90.000000
_cell_angle_beta 90.000000
_cell_angle_gamma 90.000000
_cell_volume 6317.785462
_symmetry_space_group_name_H-M "C M M M"
_symmetry_group_IT_number 65
_symmetry_cell_setting 'orthorhombic'
loop_
_space_group_symop_operation_xyz
x,y,z
-x,-y,z
x,-y,-z
-x,y,-z
-x,-y,-z
x,y,-z
-x,y,z
x,-y,z
1/2+x,1/2+y,z
1/2-x,1/2-y,z
1/2+x,1/2-y,-z
1/2-x,1/2+y,-z
1/2-x,1/2-y,-z
1/2+x,1/2+y,-z
1/2-x,1/2+y,z
1/2+x,1/2-y,z
loop_
_atom_site_type_symbol
_atom_site_label
_atom_site_fract_x
_atom_site_fract_y
_atom_site_fract_z
Si Si1 0.341192 0.055471 0.936389
Si Si2 0.159178 0.944524 0.168071
Si Si3 0.167750 0.393138 0.390518
Si Si4 0.169132 0.447442 0.500000
Si Si5 0.334889 0.945706 0.278014
Si Si6 0.835963 0.294674 0.566610
O O1 0.500000 0.073692 0.923697
O O2 0.234246 0.076086 0.888946
O O3 0.341189 0.000000 0.933235
O O4 0.292404 0.071714 0.000000
O O5 0.247125 0.928175 0.223315
O O6 0.000000 0.924543 0.171427
O O7 0.157083 0.000000 0.165223
O O8 0.231110 0.422151 0.443714
O O9 0.222428 0.415309 0.331282
O O10 0.214333 0.339181 0.396195
O O11 0.000000 0.397074 0.393115
O O12 0.225501 0.500000 0.500000
O O13 0.000000 0.445668 0.500000
O O14 0.500000 0.936840 0.265549
O O15 0.307506 0.000000 0.291754
O O16 0.804990 0.305541 0.500000
O O17 0.750000 0.250000 0.588517
O O18 0.000000 0.283918 0.576451
#
# Coordination Sequence:
#
# PCOD8274958 Si02
#       6
#    16  16  16   8  16  16
#     4   8  13  21  33  48  65  86 115 153 192 222
#     4   9  16  24  33  46  66  93 123 153 184 216
#     4   9  15  24  37  55  75  94 117 150 190 225
#     4   9  14  20  33  54  77  95 115 149 190 225
#     4   9  16  25  37  52  70  94 124 154 184 221
#     4   9  16  27  42  58  76  94 114 144 184 228
#
# _framework density 13.928931
#
# number of rings (size 3 to 8) (size 9 to 14) (size 15 to 20)
#    0.000    3.182    0.909    1.636    0.000    4.727 
#    0.000    2.727    0.000    0.000    0.000    0.000 
#    0.000    4.364    0.000    0.000    0.000    0.909 
#
# Total GULP energy -545383.530653 kJ/mol
# GULP energy per Si atom -12395.080242 kJ/mol
# Density = 1.389723 g / cm^3
# Si number density = 13.928931 Si / 1000 Ang^3
#
#
#
# Elastic Constant Matrix: (Units=GPa)
#
#
# Indices 1 2 3 4 5 6 
#
# 1 59.5842 27.1479 54.4604 0.0000 0.0000 0.0000
# 2 27.1479 63.3672 44.9382 0.0000 0.0000 0.0000
# 3 54.4604 44.9382 130.2728 0.0000 0.0000 0.0000
# 4 0.0000 0.0000 0.0000 4.5573 0.0000 0.0000
# 5 0.0000 0.0000 0.0000 0.0000 10.7420 0.0000
# 6 0.0000 0.0000 0.0000 0.0000 0.0000 11.6949
#
#
#
# Elastic Compliance Matrix: (Units=1/GPa)
#
#
# Indices 1 2 3 4 5 6 
#
# 1 0.028283 -0.004941 -0.010119 0.000000 0.000000 0.000000
# 2 -0.004941 0.021755 -0.005439 0.000000 0.000000 0.000000
# 3 -0.010119 -0.005439 0.013783 0.000000 0.000000 0.000000
# 4 0.000000 0.000000 0.000000 0.219429 0.000000 0.000000
# 5 0.000000 0.000000 0.000000 0.000000 0.093092 0.000000
# 6 0.000000 0.000000 0.000000 0.000000 0.000000 0.085507
#
#
# Mechanical properties :
#
#
# Convention : Reuss Voigt Hill
#
# Bulk Modulus (GPa) = 43.81612 56.25749 50.03680
# Shear Modulus (GPa) = 9.79517 13.84402 11.81959
#
# Velocity S-wave (km/s) = 2.65472 3.15604 2.91617
# Velocity P-wave (km/s) = 6.39702 7.33195 6.88038
#
# Compressibility (1/GPa) = 0.02282265
#
# Stress axis : x y z
#
# Youngs Moduli (GPa) = 35.35646 45.96657 72.55399
#
# Poissons Ratio (x) = 0.22711 0.73421
# Poissons Ratio (y) = 0.17469 0.39462
# Poissons Ratio (z) = 0.35779 0.25001
#
# Static dielectric constant tensor:
#      x y z
#    x 2.642920 0.000000 0.000000 
#    y 0.000000 2.442610 0.000000 
#    z 0.000000 0.000000 2.911430 
# 
# 
# High freq. dielectric constant tensor:
#      x y z
#    x 1.511650 0.000000 0.000000 
#    y 0.000000 1.478510 0.000000 
#    z 0.000000 0.000000 1.532610 
# 
# From -- ./inp_files/68402.got.cif
#   From: 2010.03.12/outbox.cif.g09.slc.cpg/sg65_35_cif.got.tgz:68402.got - 2010.04.10 20:52:16.
