data_PCOD8274002
_publ_section_title
;
Structure prediction by ZEFSAII (Michael W. Deem and Ramdas Pophale) SiO2 
 PCOD8274002
Probable space group: C M M M
;
_chemical_formula_sum "Si O2"
_cell_formula_units_Z 96
_cell_length_a 21.073323
_cell_length_b 14.252016
_cell_length_c 15.418543
_cell_angle_alpha 90.000000
_cell_angle_beta 90.000000
_cell_angle_gamma 90.000000
_cell_volume 4630.764138
_symmetry_space_group_name_H-M "C M M M"
_symmetry_group_IT_number 65
_symmetry_cell_setting 'orthorhombic'
loop_
_space_group_symop_operation_xyz
x,y,z
-x,-y,z
x,-y,-z
-x,y,-z
-x,-y,-z
x,y,-z
-x,y,z
x,-y,z
1/2+x,1/2+y,z
1/2-x,1/2-y,z
1/2+x,1/2-y,-z
1/2-x,1/2+y,-z
1/2-x,1/2-y,-z
1/2+x,1/2+y,-z
1/2-x,1/2+y,z
1/2+x,1/2-y,z
loop_
_atom_site_type_symbol
_atom_site_label
_atom_site_fract_x
_atom_site_fract_y
_atom_site_fract_z
Si Si1 0.426689 0.283709 0.339352
Si Si2 0.810393 0.683113 0.000000
Si Si3 0.572965 0.317519 0.000000
Si Si4 0.235794 0.607750 0.827929
Si Si5 0.625766 0.396691 0.500000
Si Si6 0.765462 0.641041 0.500000
Si Si7 0.845342 0.392726 0.668869
Si Si8 0.622065 0.390900 0.824948
O O1 0.500000 0.285999 0.362052
O O2 0.390710 0.339325 0.414252
O O3 0.405894 0.175004 0.338363
O O4 0.414479 0.332586 0.247601
O O5 0.750000 0.750000 0.000000
O O6 0.805362 0.619833 0.085514
O O7 0.879561 0.729565 0.000000
O O8 0.585621 0.380711 0.084339
O O9 0.500000 0.282178 0.000000
O O10 0.247398 0.500000 0.809392
O O11 0.197796 0.649392 0.746482
O O12 0.306504 0.652471 0.835515
O O13 0.592768 0.500000 0.500000
O O14 0.700461 0.415663 0.500000
O O15 0.750000 0.750000 0.500000
O O16 0.804937 0.610063 0.417503
O O17 0.867999 0.500000 0.687040
O O18 0.622454 0.500000 0.798403
#
# Coordination Sequence:
#
# PCOD8274002 Si02
#       8
#    16   8   8  16   8   8  16  16
#     4  12  26  42  62  89 124 171 215 251 304 376
#     4  12  21  37  65  89 121 166 208 264 314 366
#     4  12  25  38  57  90 127 168 213 256 315 385
#     4  10  22  39  63  94 122 156 208 263 320 374
#     4  12  25  42  65  94 127 162 203 255 313 374
#     4  12  22  41  68  96 127 154 196 258 320 373
#     4  11  24  42  66  94 125 160 205 265 317 365
#     4  11  23  40  62  91 127 166 208 259 318 380
#
# _framework density 20.730917999999999
#
# number of rings (size 3 to 8) (size 9 to 14) (size 15 to 20)
#    0.000    0.667    3.333    4.500    0.000    6.000 
#    0.000    0.000    0.000    4.000    0.000    0.000 
#    0.000    0.000    0.000    0.000    0.000    0.000 
#
# Total GULP energy -595345.756072 kJ/mol
# GULP energy per Si atom -12403.036585 kJ/mol
# Density = 2.068373 g / cm^3
# Si number density = 20.730918 Si / 1000 Ang^3
#
#
#
# Elastic Constant Matrix: (Units=GPa)
#
#
# Indices 1 2 3 4 5 6 
#
# 1 103.2858 23.5423 22.8202 0.0000 0.0000 0.0000
# 2 23.5423 93.1233 21.2470 0.0000 0.0000 0.0000
# 3 22.8202 21.2470 148.7308 0.0000 0.0000 0.0000
# 4 0.0000 0.0000 0.0000 26.5533 0.0000 0.0000
# 5 0.0000 0.0000 0.0000 0.0000 6.4958 0.0000
# 6 0.0000 0.0000 0.0000 0.0000 0.0000 20.7417
#
#
#
# Elastic Compliance Matrix: (Units=1/GPa)
#
#
# Indices 1 2 3 4 5 6 
#
# 1 0.010502 -0.002364 -0.001274 0.000000 0.000000 0.000000
# 2 -0.002364 0.011633 -0.001299 0.000000 0.000000 0.000000
# 3 -0.001274 -0.001299 0.007105 0.000000 0.000000 0.000000
# 4 0.000000 0.000000 0.000000 0.037660 0.000000 0.000000
# 5 0.000000 0.000000 0.000000 0.000000 0.153945 0.000000
# 6 0.000000 0.000000 0.000000 0.000000 0.000000 0.048212
#
#
# Mechanical properties :
#
#
# Convention : Reuss Voigt Hill
#
# Bulk Modulus (GPa) = 51.63899 53.37322 52.50610
# Shear Modulus (GPa) = 17.52014 29.26019 23.39016
#
# Velocity S-wave (km/s) = 2.91025 3.76097 3.36262
# Velocity P-wave (km/s) = 6.02129 6.68293 6.36072
#
# Compressibility (1/GPa) = 0.01936521
#
# Stress axis : x y z
#
# Youngs Moduli (GPa) = 95.21806 85.96544 140.75511
#
# Poissons Ratio (x) = 0.20326 0.17927
# Poissons Ratio (y) = 0.22514 0.18284
# Poissons Ratio (z) = 0.12127 0.11167
#
# Static dielectric constant tensor:
#      x y z
#    x 3.755980 0.000000 0.000000 
#    y 0.000000 3.841080 0.000000 
#    z 0.000000 0.000000 4.034790 
# 
# 
# High freq. dielectric constant tensor:
#      x y z
#    x 1.798950 0.000000 0.000000 
#    y 0.000000 1.815840 0.000000 
#    z 0.000000 0.000000 1.831880 
# 
# From -- ./inp_files/44221.got.cif
#   From: 2010.03.12/outbox.cif.g09.slc.cpg/sg65_23_cif.got.tgz:44221.got - 2010.04.10 20:52:16.
