data_PCOD8274653
_publ_section_title
;
Structure prediction by ZEFSAII (Michael W. Deem and Ramdas Pophale) SiO2 
 PCOD8274653
Probable space group: C M M M
;
_chemical_formula_sum "Si O2"
_cell_formula_units_Z 88
_cell_length_a 27.478675
_cell_length_b 9.183007
_cell_length_c 21.270211
_cell_angle_alpha 90.000000
_cell_angle_beta 90.000000
_cell_angle_gamma 90.000000
_cell_volume 5367.258359
_symmetry_space_group_name_H-M "C M M M"
_symmetry_group_IT_number 65
_symmetry_cell_setting 'orthorhombic'
loop_
_space_group_symop_operation_xyz
x,y,z
-x,-y,z
x,-y,-z
-x,y,-z
-x,-y,-z
x,y,-z
-x,y,z
x,-y,z
1/2+x,1/2+y,z
1/2-x,1/2-y,z
1/2+x,1/2-y,-z
1/2-x,1/2+y,-z
1/2-x,1/2-y,-z
1/2+x,1/2+y,-z
1/2-x,1/2+y,z
1/2+x,1/2-y,z
loop_
_atom_site_type_symbol
_atom_site_label
_atom_site_fract_x
_atom_site_fract_y
_atom_site_fract_z
Si Si1 0.299068 0.329899 0.315282
Si Si2 0.352789 0.326740 0.191945
Si Si3 0.897550 0.830938 0.616397
Si Si4 0.052985 0.827869 0.254610
Si Si5 0.056260 0.327248 0.500000
Si Si6 0.300323 0.670088 0.069653
O O1 0.287895 0.500000 0.312564
O O2 0.250000 0.250000 0.336579
O O3 0.315703 0.272740 0.246165
O O4 0.341398 0.297112 0.365993
O O5 0.354592 0.500000 0.195368
O O6 0.406930 0.264562 0.205935
O O7 0.337148 0.271297 0.122918
O O8 0.931616 0.789195 0.674834
O O9 0.914872 0.731115 0.559917
O O10 0.903586 0.000000 0.598012
O O11 0.000000 0.758307 0.240259
O O12 0.050474 0.000000 0.247106
O O13 0.058694 0.500000 0.500000
O O14 0.000000 0.273526 0.500000
O O15 0.290338 0.500000 0.078713
O O16 0.250000 0.750000 0.079472
O O17 0.321924 0.702616 0.000000
#
# Coordination Sequence:
#
# PCOD8274653 Si02
#       6
#    16  16  16  16   8  16
#     4   9  17  29  46  67  89 113 143 179 216 253
#     4   8  14  24  38  59  86 112 140 175 212 251
#     4   9  18  32  49  68  87 111 146 179 207 250
#     4   8  13  23  42  65  84 105 138 178 214 246
#     4  11  23  35  48  69  94 115 136 169 216 261
#     4   9  16  25  38  57  83 114 143 171 206 248
#
# _framework density 16.395707999999999
#
# number of rings (size 3 to 8) (size 9 to 14) (size 15 to 20)
#    0.000    3.182    0.000    3.545    0.000    2.182 
#    0.000    0.455    0.000    1.636    0.000    3.818 
#    0.000    0.000    0.000    4.545    0.000    4.727 
#
# Total GULP energy -545275.626438 kJ/mol
# GULP energy per Si atom -12392.627874 kJ/mol
# Density = 1.635839 g / cm^3
# Si number density = 16.395708 Si / 1000 Ang^3
#
#
#
# Elastic Constant Matrix: (Units=GPa)
#
#
# Indices 1 2 3 4 5 6 
#
# 1 142.3107 35.5387 75.5141 0.0000 0.0000 0.0000
# 2 35.5387 30.6575 35.5503 0.0000 0.0000 0.0000
# 3 75.5141 35.5503 124.1064 0.0000 0.0000 0.0000
# 4 0.0000 0.0000 0.0000 12.8049 0.0000 0.0000
# 5 0.0000 0.0000 0.0000 0.0000 21.8145 0.0000
# 6 0.0000 0.0000 0.0000 0.0000 0.0000 20.3933
#
#
#
# Elastic Compliance Matrix: (Units=1/GPa)
#
#
# Indices 1 2 3 4 5 6 
#
# 1 0.011505 -0.007815 -0.004762 0.000000 0.000000 0.000000
# 2 -0.007815 0.054151 -0.010756 0.000000 0.000000 0.000000
# 3 -0.004762 -0.010756 0.014036 0.000000 0.000000 0.000000
# 4 0.000000 0.000000 0.000000 0.078095 0.000000 0.000000
# 5 0.000000 0.000000 0.000000 0.000000 0.045841 0.000000
# 6 0.000000 0.000000 0.000000 0.000000 0.000000 0.049036
#
#
# Mechanical properties :
#
#
# Convention : Reuss Voigt Hill
#
# Bulk Modulus (GPa) = 30.27948 65.58675 47.93311
# Shear Modulus (GPa) = 16.11135 21.03395 18.57265
#
# Velocity S-wave (km/s) = 3.13814 3.58564 3.36932
# Velocity P-wave (km/s) = 5.62482 7.56516 6.66596
#
# Compressibility (1/GPa) = 0.03302567
#
# Stress axis : x y z
#
# Youngs Moduli (GPa) = 86.91591 18.46684 71.24475
#
# Poissons Ratio (x) = 0.14433 0.33926
# Poissons Ratio (y) = 0.67928 0.76632
# Poissons Ratio (z) = 0.41388 0.19863
#
# Static dielectric constant tensor:
#      x y z
#    x 3.550500 0.000000 0.000000 
#    y 0.000000 2.719580 0.000000 
#    z 0.000000 0.000000 3.214620 
# 
# 
# High freq. dielectric constant tensor:
#      x y z
#    x 1.633400 0.000000 0.000000 
#    y 0.000000 1.593020 0.000000 
#    z 0.000000 0.000000 1.625630 
# 
# From -- ./inp_files/60665.got.cif
#   From: 2010.03.12/outbox.cif.g09.slc.cpg/sg65_31_cif.got.tgz:60665.got - 2010.04.10 20:52:16.
