data_PCOD8274875
_publ_section_title
;
Structure prediction by ZEFSAII (Michael W. Deem and Ramdas Pophale) SiO2 
 PCOD8274875
Probable space group: C M M M
;
_chemical_formula_sum "Si O2"
_cell_formula_units_Z 80
_cell_length_a 9.291737
_cell_length_b 25.949638
_cell_length_c 19.403594
_cell_angle_alpha 90.000000
_cell_angle_beta 90.000000
_cell_angle_gamma 90.000000
_cell_volume 4678.540479
_symmetry_space_group_name_H-M "C M M M"
_symmetry_group_IT_number 65
_symmetry_cell_setting 'orthorhombic'
loop_
_space_group_symop_operation_xyz
x,y,z
-x,-y,z
x,-y,-z
-x,y,-z
-x,-y,-z
x,y,-z
-x,y,z
x,-y,z
1/2+x,1/2+y,z
1/2-x,1/2-y,z
1/2+x,1/2-y,-z
1/2-x,1/2+y,-z
1/2-x,1/2-y,-z
1/2+x,1/2+y,-z
1/2-x,1/2+y,z
1/2+x,1/2-y,z
loop_
_atom_site_type_symbol
_atom_site_label
_atom_site_fract_x
_atom_site_fract_y
_atom_site_fract_z
Si Si1 0.827801 0.110247 0.577330
Si Si2 0.167193 0.099795 0.919617
Si Si3 0.667638 0.300986 0.164504
Si Si4 0.831692 0.199189 0.323133
Si Si5 0.843232 0.000000 0.581474
Si Si6 0.836887 0.500000 0.918059
O O1 0.775523 0.124502 0.500000
O O2 0.770681 0.152583 0.630719
O O3 0.763908 0.053970 0.601013
O O4 0.000000 0.106829 0.578749
O O5 0.221388 0.150541 0.879948
O O6 0.255960 0.050994 0.890898
O O7 0.000000 0.088764 0.904751
O O8 0.196212 0.109049 0.000000
O O9 0.500000 0.290664 0.152544
O O10 0.750000 0.250000 0.139254
O O11 0.702962 0.313431 0.243871
O O12 0.750000 0.250000 0.347866
O O13 0.000000 0.207944 0.335468
O O14 0.864664 0.000000 0.500000
O O15 0.000000 0.000000 0.617543
O O16 0.000000 0.500000 0.890203
O O17 0.832204 0.500000 0.000000
#
# Coordination Sequence:
#
# PCOD8274875 Si02
#       6
#    16  16  16  16   8   8
#     4   8  13  22  38  60  84 108 135 169 208 249
#     4   9  17  30  47  65  87 116 147 178 214 257
#     4   9  18  31  45  62  85 114 146 179 218 260
#     4   9  17  29  43  60  84 112 140 171 208 250
#     4   7  10  18  33  54  79 103 126 158 202 241
#     4   9  17  29  46  69  93 115 142 177 216 256
#
# _framework density 17.099350000000001
#
# number of rings (size 3 to 8) (size 9 to 14) (size 15 to 20)
#    0.000    3.400    0.000    1.500    0.000    2.800 
#    0.000    1.000    0.000    4.800    0.000    0.700 
#    0.000    2.400    0.000    0.000    0.000    0.000 
#
# Total GULP energy -495732.010471 kJ/mol
# GULP energy per Si atom -12393.300262 kJ/mol
# Density = 1.706043 g / cm^3
# Si number density = 17.099350 Si / 1000 Ang^3
#
#
#
# Elastic Constant Matrix: (Units=GPa)
#
#
# Indices 1 2 3 4 5 6 
#
# 1 42.9012 56.7010 25.2642 0.0000 0.0000 0.0000
# 2 56.7010 202.5339 75.1164 0.0000 0.0000 0.0000
# 3 25.2642 75.1164 57.4046 0.0000 0.0000 0.0000
# 4 0.0000 0.0000 0.0000 15.4529 0.0000 0.0000
# 5 0.0000 0.0000 0.0000 0.0000 11.3510 0.0000
# 6 0.0000 0.0000 0.0000 0.0000 0.0000 27.4944
#
#
#
# Elastic Compliance Matrix: (Units=1/GPa)
#
#
# Indices 1 2 3 4 5 6 
#
# 1 0.037850 -0.008584 -0.005425 0.000000 0.000000 0.000000
# 2 -0.008584 0.011540 -0.011323 0.000000 0.000000 0.000000
# 3 -0.005425 -0.011323 0.034624 0.000000 0.000000 0.000000
# 4 0.000000 0.000000 0.000000 0.064713 0.000000 0.000000
# 5 0.000000 0.000000 0.000000 0.000000 0.088098 0.000000
# 6 0.000000 0.000000 0.000000 0.000000 0.000000 0.036371
#
#
# Mechanical properties :
#
#
# Convention : Reuss Voigt Hill
#
# Bulk Modulus (GPa) = 29.98516 68.55588 49.27052
# Shear Modulus (GPa) = 14.92642 20.57685 17.75164
#
# Velocity S-wave (km/s) = 2.95773 3.47273 3.22552
# Velocity P-wave (km/s) = 5.40723 7.50063 6.53826
#
# Compressibility (1/GPa) = 0.03334983
#
# Stress axis : x y z
#
# Youngs Moduli (GPa) = 26.42030 86.65449 28.88168
#
# Poissons Ratio (x) = 0.74387 0.15668
# Poissons Ratio (y) = 0.22680 0.32702
# Poissons Ratio (z) = 0.14333 0.98116
#
# Static dielectric constant tensor:
#      x y z
#    x 2.875570 0.000000 0.000000 
#    y 0.000000 3.613310 0.000000 
#    z 0.000000 0.000000 3.035410 
# 
# 
# High freq. dielectric constant tensor:
#      x y z
#    x 1.620370 0.000000 0.000000 
#    y 0.000000 1.677510 0.000000 
#    z 0.000000 0.000000 1.634600 
# 
# From -- ./inp_files/49938.got.cif
#   From: 2010.03.12/outbox.cif.g09.slc.cpg/sg65_25_cif.got.tgz:49938.got - 2010.04.10 20:52:16.
