data_PCOD8274456
_publ_section_title
;
Structure prediction by ZEFSAII (Michael W. Deem and Ramdas Pophale) SiO2 
 PCOD8274456
Probable space group: C M M M
;
_chemical_formula_sum "Si O2"
_cell_formula_units_Z 96
_cell_length_a 20.828928
_cell_length_b 21.275369
_cell_length_c 11.401122
_cell_angle_alpha 90.000000
_cell_angle_beta 90.000000
_cell_angle_gamma 90.000000
_cell_volume 5052.328878
_symmetry_space_group_name_H-M "C M M M"
_symmetry_group_IT_number 65
_symmetry_cell_setting 'orthorhombic'
loop_
_space_group_symop_operation_xyz
x,y,z
-x,-y,z
x,-y,-z
-x,y,-z
-x,-y,-z
x,y,-z
-x,y,z
x,-y,z
1/2+x,1/2+y,z
1/2-x,1/2-y,z
1/2+x,1/2-y,-z
1/2-x,1/2+y,-z
1/2-x,1/2-y,-z
1/2+x,1/2+y,-z
1/2-x,1/2+y,z
1/2+x,1/2-y,z
loop_
_atom_site_type_symbol
_atom_site_label
_atom_site_fract_x
_atom_site_fract_y
_atom_site_fract_z
Si Si1 0.073135 0.500000 0.138742
Si Si2 0.140781 0.619602 0.250276
Si Si3 0.335663 0.932620 0.500000
Si Si4 0.873715 0.144631 0.696177
Si Si5 0.735636 0.678311 0.861612
Si Si6 0.311444 0.432324 0.500000
Si Si7 0.000000 0.074497 0.359546
Si Si8 0.573376 0.774858 0.368131
O O1 0.108073 0.562515 0.182554
O O2 0.000000 0.500000 0.185047
O O3 0.075371 0.500000 0.000000
O O4 0.147377 0.605699 0.386209
O O5 0.208339 0.634331 0.189718
O O6 0.094997 0.680570 0.259555
O O7 0.261842 0.948125 0.500000
O O8 0.372585 0.000000 0.500000
O O9 0.834470 0.155454 0.817010
O O10 0.826026 0.106389 0.615046
O O11 0.938963 0.104330 0.707615
O O12 0.886469 0.211184 0.636679
O O13 0.750000 0.750000 0.823411
O O14 0.735342 0.670739 0.000000
O O15 0.349203 0.500000 0.500000
O O16 0.000000 0.091334 0.500000
O O17 0.000000 0.000000 0.340641
O O18 0.581959 0.803491 0.500000
O O19 0.500000 0.757682 0.343822
#
# Coordination Sequence:
#
# PCOD8274456 Si02
#       8
#     8  16   8  16  16   8   8  16
#     4  11  26  47  67  89 123 171 223 262 298 366
#     4  12  22  41  66  92 125 164 209 258 324 382
#     4  11  22  37  57  91 130 156 192 252 327 387
#     4  12  21  38  62  90 132 166 209 258 313 376
#     4  11  25  43  64  90 123 166 218 269 315 371
#     4  11  22  34  58  94 129 165 202 252 311 384
#     4  11  22  38  65  97 133 172 208 254 318 391
#     4  11  22  35  57  94 132 165 196 252 326 392
#
# _framework density 19.001138999999998
#
# number of rings (size 3 to 8) (size 9 to 14) (size 15 to 20)
#    0.000    0.667    7.500    1.500    0.000    0.000 
#    1.500    3.333    0.000    1.500    0.000    0.000 
#    0.000    0.000    0.000    0.000    0.000    0.000 
#
# Total GULP energy -594981.306954 kJ/mol
# GULP energy per Si atom -12395.443895 kJ/mol
# Density = 1.895789 g / cm^3
# Si number density = 19.001139 Si / 1000 Ang^3
#
#
#
# Elastic Constant Matrix: (Units=GPa)
#
#
# Indices 1 2 3 4 5 6 
#
# 1 115.8706 45.6953 48.0256 0.0000 0.0000 0.0000
# 2 45.6953 122.9149 39.5127 0.0000 0.0000 0.0000
# 3 48.0256 39.5127 90.0709 0.0000 0.0000 0.0000
# 4 0.0000 0.0000 0.0000 27.9397 0.0000 0.0000
# 5 0.0000 0.0000 0.0000 0.0000 10.5890 0.0000
# 6 0.0000 0.0000 0.0000 0.0000 0.0000 36.4815
#
#
#
# Elastic Compliance Matrix: (Units=1/GPa)
#
#
# Indices 1 2 3 4 5 6 
#
# 1 0.011832 -0.002760 -0.005098 0.000000 0.000000 0.000000
# 2 -0.002760 0.010115 -0.002966 0.000000 0.000000 0.000000
# 3 -0.005098 -0.002966 0.015122 0.000000 0.000000 0.000000
# 4 0.000000 0.000000 0.000000 0.035791 0.000000 0.000000
# 5 0.000000 0.000000 0.000000 0.000000 0.094438 0.000000
# 6 0.000000 0.000000 0.000000 0.000000 0.000000 0.027411
#
#
# Mechanical properties :
#
#
# Convention : Reuss Voigt Hill
#
# Bulk Modulus (GPa) = 64.84537 66.14706 65.49622
# Shear Modulus (GPa) = 22.57376 28.04357 25.30866
#
# Velocity S-wave (km/s) = 3.45051 3.84590 3.65356
# Velocity P-wave (km/s) = 7.07643 7.38979 7.23481
#
# Compressibility (1/GPa) = 0.01542130
#
# Stress axis : x y z
#
# Youngs Moduli (GPa) = 84.51910 98.86209 66.13044
#
# Poissons Ratio (x) = 0.27284 0.33713
# Poissons Ratio (y) = 0.23325 0.19613
# Poissons Ratio (z) = 0.43087 0.29321
#
# Static dielectric constant tensor:
#      x y z
#    x 3.590850 0.000000 0.000000 
#    y 0.000000 3.681360 0.000000 
#    z 0.000000 0.000000 3.278180 
# 
# 
# High freq. dielectric constant tensor:
#      x y z
#    x 1.747300 0.000000 0.000000 
#    y 0.000000 1.758170 0.000000 
#    z 0.000000 0.000000 1.717600 
# 
# From -- ./inp_files/29113.got.cif
#   From: 2010.03.12/outbox.cif.g09.slc.cpg/sg65_15_cif.got.tgz:29113.got - 2010.04.10 20:52:16.
