data_PCOD8274708
_publ_section_title
;
Structure prediction by ZEFSAII (Michael W. Deem and Ramdas Pophale) SiO2 
 PCOD8274708
Probable space group: C M M M
;
_chemical_formula_sum "Si O2"
_cell_formula_units_Z 64
_cell_length_a 9.018699
_cell_length_b 17.805494
_cell_length_c 20.685733
_cell_angle_alpha 90.000000
_cell_angle_beta 90.000000
_cell_angle_gamma 90.000000
_cell_volume 3321.764463
_symmetry_space_group_name_H-M "C M M M"
_symmetry_group_IT_number 65
_symmetry_cell_setting 'orthorhombic'
loop_
_space_group_symop_operation_xyz
x,y,z
-x,-y,z
x,-y,-z
-x,y,-z
-x,-y,-z
x,y,-z
-x,y,z
x,-y,z
1/2+x,1/2+y,z
1/2-x,1/2-y,z
1/2+x,1/2-y,-z
1/2-x,1/2+y,-z
1/2-x,1/2-y,-z
1/2+x,1/2+y,-z
1/2-x,1/2+y,z
1/2+x,1/2-y,z
loop_
_atom_site_type_symbol
_atom_site_label
_atom_site_fract_x
_atom_site_fract_y
_atom_site_fract_z
Si Si1 0.172764 0.585781 0.253925
Si Si2 0.333019 0.589450 0.873875
Si Si3 0.167138 0.589647 0.000000
Si Si4 0.175775 0.669790 0.615826
Si Si5 0.331163 0.588718 0.500000
O O1 0.220216 0.500000 0.268665
O O2 0.257525 0.618817 0.191770
O O3 0.217275 0.636505 0.314517
O O4 0.000000 0.590181 0.238323
O O5 0.500000 0.619844 0.876114
O O6 0.327584 0.500000 0.875082
O O7 0.247817 0.621674 0.936279
O O8 0.171491 0.500000 0.000000
O O9 0.000000 0.619782 0.000000
O O10 0.250000 0.750000 0.607875
O O11 0.243876 0.615213 0.562873
O O12 0.000000 0.675695 0.605745
O O13 0.331615 0.500000 0.500000
O O14 0.500000 0.619938 0.500000
#
# Coordination Sequence:
#
# PCOD8274708 Si02
#       5
#    16  16   8  16   8
#     4   9  18  33  52  74 101 136 177 218 263 316
#     4   9  16  25  40  65  97 131 168 214 265 313
#     4   9  15  23  37  59  92 133 172 211 258 313
#     4  11  23  39  59  82 111 145 181 221 265 316
#     4  11  24  41  62  87 113 141 176 219 266 317
#
# _framework density 19.266870000000001
#
# number of rings (size 3 to 8) (size 9 to 14) (size 15 to 20)
#    0.000    2.250    0.000    3.375    0.000    8.500 
#    0.000    2.500    0.000    0.000    0.000    0.875 
#    0.000    0.000    0.000    0.000    0.000    0.000 
#
# Total GULP energy -396858.782491 kJ/mol
# GULP energy per Si atom -12401.836953 kJ/mol
# Density = 1.922302 g / cm^3
# Si number density = 19.266870 Si / 1000 Ang^3
#
#
#
# Elastic Constant Matrix: (Units=GPa)
#
#
# Indices 1 2 3 4 5 6 
#
# 1 131.6743 27.2722 90.9202 0.0000 0.0000 0.0000
# 2 27.2722 45.6248 30.8586 0.0000 0.0000 0.0000
# 3 90.9202 30.8586 170.5957 0.0000 0.0000 0.0000
# 4 0.0000 0.0000 0.0000 -1.7241 0.0000 0.0000
# 5 0.0000 0.0000 0.0000 0.0000 42.5964 0.0000
# 6 0.0000 0.0000 0.0000 0.0000 0.0000 17.0390
#
#
#
# Elastic Compliance Matrix: (Units=1/GPa)
#
#
# Indices 1 2 3 4 5 6 
#
# 1 0.012455 -0.003367 -0.006029 0.000000 0.000000 0.000000
# 2 -0.003367 0.025884 -0.002887 0.000000 0.000000 0.000000
# 3 -0.006029 -0.002887 0.009597 0.000000 0.000000 0.000000
# 4 0.000000 0.000000 0.000000 -0.580010 0.000000 0.000000
# 5 0.000000 0.000000 0.000000 0.000000 0.023476 0.000000
# 6 0.000000 0.000000 0.000000 0.000000 0.000000 0.058689
#
#
# Mechanical properties :
#
#
# Convention : Reuss Voigt Hill
#
# Bulk Modulus (GPa) = 42.79228 71.77740 57.28484
# Shear Modulus (GPa) = -11.97453 24.83852 6.43199
#
# Velocity S-wave (km/s) = -2.49571 3.59441 1.82910
# Velocity P-wave (km/s) = 3.73547 7.38658 5.85301
#
# Compressibility (1/GPa) = 0.02336870
#
# Stress axis : x y z
#
# Youngs Moduli (GPa) = 80.29094 38.63451 104.19741
#
# Poissons Ratio (x) = 0.13009 0.62818
# Poissons Ratio (y) = 0.27036 0.30086
# Poissons Ratio (z) = 0.48405 0.11155
#
# Static dielectric constant tensor:
#      x y z
#    x 3.719090 0.000000 0.000000 
#    y 0.000000 3.071190 0.000000 
#    z 0.000000 0.000000 3.750330 
# 
# 
# High freq. dielectric constant tensor:
#      x y z
#    x 1.762390 0.000000 0.000000 
#    y 0.000000 1.703660 0.000000 
#    z 0.000000 0.000000 1.769290 
# 
# From -- ./inp_files/58781.got.cif
#   From: 2010.03.12/outbox.cif.g09.slc.cpg/sg65_30_cif.got.tgz:58781.got - 2010.04.10 20:52:16.
