data_PCOD8274779
_publ_section_title
;
Structure prediction by ZEFSAII (Michael W. Deem and Ramdas Pophale) SiO2 
 PCOD8274779
Probable space group: C M M M
;
_chemical_formula_sum "Si O2"
_cell_formula_units_Z 88
_cell_length_a 9.277437
_cell_length_b 20.493663
_cell_length_c 24.315295
_cell_angle_alpha 90.000000
_cell_angle_beta 90.000000
_cell_angle_gamma 90.000000
_cell_volume 4623.034635
_symmetry_space_group_name_H-M "C M M M"
_symmetry_group_IT_number 65
_symmetry_cell_setting 'orthorhombic'
loop_
_space_group_symop_operation_xyz
x,y,z
-x,-y,z
x,-y,-z
-x,y,-z
-x,-y,-z
x,y,-z
-x,y,z
x,-y,z
1/2+x,1/2+y,z
1/2-x,1/2-y,z
1/2+x,1/2-y,-z
1/2-x,1/2+y,-z
1/2-x,1/2-y,-z
1/2+x,1/2+y,-z
1/2-x,1/2+y,z
1/2+x,1/2-y,z
loop_
_atom_site_type_symbol
_atom_site_label
_atom_site_fract_x
_atom_site_fract_y
_atom_site_fract_z
Si Si1 0.670440 0.928477 0.141171
Si Si2 0.336208 0.376470 0.438465
Si Si3 0.168718 0.684840 0.936744
Si Si4 0.332922 0.924416 0.733308
Si Si5 0.659640 0.000000 0.434837
Si Si6 0.165967 0.186309 0.671390
O O1 0.500000 0.931296 0.135104
O O2 0.732771 0.874054 0.099914
O O3 0.711556 0.911348 0.203621
O O4 0.733670 0.000000 0.125492
O O5 0.287966 0.353765 0.500000
O O6 0.500000 0.401823 0.440252
O O7 0.240159 0.435356 0.415000
O O8 0.319944 0.317549 0.395176
O O9 0.250000 0.750000 0.918344
O O10 0.000000 0.695740 0.926188
O O11 0.200866 0.667610 0.000000
O O12 0.500000 0.906441 0.723575
O O13 0.232200 0.878897 0.696845
O O14 0.305306 0.000000 0.717383
O O15 0.500000 0.000000 0.408694
O O16 0.653827 0.000000 0.500000
O O17 0.250000 0.250000 0.692501
O O18 0.000000 0.192351 0.689550
#
# Coordination Sequence:
#
# PCOD8274779 Si02
#       6
#    16  16  16  16   8  16
#     4   8  15  30  52  77 103 132 171 216 261 306
#     4   9  19  36  55  75 103 138 171 207 258 315
#     4   9  17  29  47  73 105 140 176 214 255 302
#     4   9  19  37  59  80 105 139 175 217 268 318
#     4   9  17  29  49  79 107 131 165 207 246 293
#     4  11  24  39  56  79 107 138 175 218 263 316
#
# _framework density 19.035115999999999
#
# number of rings (size 3 to 8) (size 9 to 14) (size 15 to 20)
#    0.000    2.818    0.000    1.909    1.273    4.364 
#    0.000    4.545    0.000    1.636    0.000    2.545 
#    0.000    0.000    0.000    0.000    0.000    0.000 
#
# Total GULP energy -545466.029471 kJ/mol
# GULP energy per Si atom -12396.955215 kJ/mol
# Density = 1.899179 g / cm^3
# Si number density = 19.035116 Si / 1000 Ang^3
#
#
#
# Elastic Constant Matrix: (Units=GPa)
#
#
# Indices 1 2 3 4 5 6 
#
# 1 82.6199 55.6569 34.6085 0.0000 0.0000 0.0000
# 2 55.6569 122.1690 65.3156 0.0000 0.0000 0.0000
# 3 34.6085 65.3156 82.7979 0.0000 0.0000 0.0000
# 4 0.0000 0.0000 0.0000 27.1897 0.0000 0.0000
# 5 0.0000 0.0000 0.0000 0.0000 18.9273 0.0000
# 6 0.0000 0.0000 0.0000 0.0000 0.0000 29.1468
#
#
#
# Elastic Compliance Matrix: (Units=1/GPa)
#
#
# Indices 1 2 3 4 5 6 
#
# 1 0.017614 -0.007070 -0.001785 0.000000 0.000000 0.000000
# 2 -0.007070 0.016993 -0.010450 0.000000 0.000000 0.000000
# 3 -0.001785 -0.010450 0.021067 0.000000 0.000000 0.000000
# 4 0.000000 0.000000 0.000000 0.036779 0.000000 0.000000
# 5 0.000000 0.000000 0.000000 0.000000 0.052834 0.000000
# 6 0.000000 0.000000 0.000000 0.000000 0.000000 0.034309
#
#
# Mechanical properties :
#
#
# Convention : Reuss Voigt Hill
#
# Bulk Modulus (GPa) = 58.60245 66.52765 62.56505
# Shear Modulus (GPa) = 22.33190 23.85315 23.09252
#
# Velocity S-wave (km/s) = 3.42891 3.54377 3.48681
# Velocity P-wave (km/s) = 6.82128 7.19516 7.01071
#
# Compressibility (1/GPa) = 0.01706413
#
# Stress axis : x y z
#
# Youngs Moduli (GPa) = 56.77227 58.84679 47.46677
#
# Poissons Ratio (x) = 0.41605 0.08474
# Poissons Ratio (y) = 0.40139 0.49603
# Poissons Ratio (z) = 0.10135 0.61495
#
# Static dielectric constant tensor:
#      x y z
#    x 3.319710 0.000000 0.000000 
#    y 0.000000 3.606840 0.000000 
#    z 0.000000 0.000000 3.548610 
# 
# 
# High freq. dielectric constant tensor:
#      x y z
#    x 1.717910 0.000000 0.000000 
#    y 0.000000 1.735060 0.000000 
#    z 0.000000 0.000000 1.739220 
# 
# From -- ./inp_files/67597.got.cif
#   From: 2010.03.12/outbox.cif.g09.slc.cpg/sg65_34_cif.got.tgz:67597.got - 2010.04.10 20:52:16.
