data_PCOD8274429
_publ_section_title
;
Structure prediction by ZEFSAII (Michael W. Deem and Ramdas Pophale) SiO2 
 PCOD8274429
Probable space group: C M M M
;
_chemical_formula_sum "Si O2"
_cell_formula_units_Z 104
_cell_length_a 23.996419
_cell_length_b 26.172138
_cell_length_c 9.327355
_cell_angle_alpha 90.000000
_cell_angle_beta 90.000000
_cell_angle_gamma 90.000000
_cell_volume 5857.929551
_symmetry_space_group_name_H-M "C M M M"
_symmetry_group_IT_number 65
_symmetry_cell_setting 'orthorhombic'
loop_
_space_group_symop_operation_xyz
x,y,z
-x,-y,z
x,-y,-z
-x,y,-z
-x,-y,-z
x,y,-z
-x,y,z
x,-y,z
1/2+x,1/2+y,z
1/2-x,1/2-y,z
1/2+x,1/2-y,-z
1/2-x,1/2+y,-z
1/2-x,1/2-y,-z
1/2+x,1/2+y,-z
1/2-x,1/2+y,z
1/2+x,1/2-y,z
loop_
_atom_site_type_symbol
_atom_site_label
_atom_site_fract_x
_atom_site_fract_y
_atom_site_fract_z
Si Si1 0.936465 0.096870 0.835269
Si Si2 0.562239 0.863148 0.329460
Si Si3 0.150324 0.557117 0.329364
Si Si4 0.342442 0.675474 0.166704
Si Si5 0.759356 0.363181 0.664131
Si Si6 0.433697 0.500000 0.338448
Si Si7 0.352067 0.220939 0.336029
O O1 0.900949 0.147479 0.805606
O O2 0.000000 0.109843 0.792376
O O3 0.911737 0.050585 0.741036
O O4 0.932372 0.079538 0.000000
O O5 0.560273 0.865628 0.500000
O O6 0.500000 0.863007 0.263643
O O7 0.595802 0.912711 0.271472
O O8 0.594357 0.811569 0.283902
O O9 0.147773 0.555511 0.500000
O O10 0.151074 0.500000 0.264040
O O11 0.206004 0.587306 0.282991
O O12 0.294106 0.641386 0.235959
O O13 0.345862 0.730856 0.235268
O O14 0.329166 0.681808 0.000000
O O15 0.739951 0.369880 0.500000
O O16 0.796786 0.312754 0.678474
O O17 0.500000 0.500000 0.333755
O O18 0.410479 0.500000 0.500000
O O19 0.359537 0.239175 0.500000
#
# Coordination Sequence:
#
# PCOD8274429 Si02
#       7
#    16  16  16  16  16   8  16
#     4   9  19  36  53  68  94 130 157 185 240 302
#     4   8  14  25  43  70 101 131 164 200 239 284
#     4   8  14  26  45  69  98 131 165 199 238 289
#     4  11  22  33  49  74  96 120 162 209 243 284
#     4   9  18  33  50  68  96 132 165 198 244 297
#     4   9  17  31  53  77  95 115 151 193 226 267
#     4   9  18  32  49  68  96 134 165 195 243 297
#
# _framework density 17.753713999999999
#
# number of rings (size 3 to 8) (size 9 to 14) (size 15 to 20)
#    0.000    3.000    0.000    3.000    0.000    5.538 
#    1.385    1.538    0.000    0.000    0.000    0.000 
#    0.000    0.000    0.000    6.769    0.000    6.769 
#
# Total GULP energy -644684.923570 kJ/mol
# GULP energy per Si atom -12397.786992 kJ/mol
# Density = 1.771331 g / cm^3
# Si number density = 17.753714 Si / 1000 Ang^3
#
#
#
# Elastic Constant Matrix: (Units=GPa)
#
#
# Indices 1 2 3 4 5 6 
#
# 1 108.5008 47.1023 35.7785 0.0000 0.0000 0.0000
# 2 47.1023 78.0055 31.5380 0.0000 0.0000 0.0000
# 3 35.7785 31.5380 61.7649 0.0000 0.0000 0.0000
# 4 0.0000 0.0000 0.0000 15.0756 0.0000 0.0000
# 5 0.0000 0.0000 0.0000 0.0000 17.9214 0.0000
# 6 0.0000 0.0000 0.0000 0.0000 0.0000 15.4008
#
#
#
# Elastic Compliance Matrix: (Units=1/GPa)
#
#
# Indices 1 2 3 4 5 6 
#
# 1 0.013451 -0.006265 -0.004593 0.000000 0.000000 0.000000
# 2 -0.006265 0.019073 -0.006110 0.000000 0.000000 0.000000
# 3 -0.004593 -0.006110 0.021970 0.000000 0.000000 0.000000
# 4 0.000000 0.000000 0.000000 0.066332 0.000000 0.000000
# 5 0.000000 0.000000 0.000000 0.000000 0.055799 0.000000
# 6 0.000000 0.000000 0.000000 0.000000 0.000000 0.064932
#
#
# Mechanical properties :
#
#
# Convention : Reuss Voigt Hill
#
# Bulk Modulus (GPa) = 48.63971 53.01208 50.82589
# Shear Modulus (GPa) = 17.70882 18.60306 18.15594
#
# Velocity S-wave (km/s) = 3.16170 3.24055 3.20137
# Velocity P-wave (km/s) = 6.38630 6.62767 6.50811
#
# Compressibility (1/GPa) = 0.02055933
#
# Stress axis : x y z
#
# Youngs Moduli (GPa) = 74.34507 52.43035 45.51580
#
# Poissons Ratio (x) = 0.32849 0.20903
# Poissons Ratio (y) = 0.46579 0.27808
# Poissons Ratio (z) = 0.34143 0.32033
#
# Static dielectric constant tensor:
#      x y z
#    x 3.442980 0.000000 0.000000 
#    y 0.000000 3.388530 0.000000 
#    z 0.000000 0.000000 2.996650 
# 
# 
# High freq. dielectric constant tensor:
#      x y z
#    x 1.684280 0.000000 0.000000 
#    y 0.000000 1.690210 0.000000 
#    z 0.000000 0.000000 1.651300 
# 
# From -- ./inp_files/16790.got.cif
#   From: 2010.03.12/outbox.cif.g09.slc.cpg/sg65_9_cif.got.tgz:16790.got - 2010.04.10 20:52:16.
