data_PCOD8274584
_publ_section_title
;
Structure prediction by ZEFSAII (Michael W. Deem and Ramdas Pophale) SiO2 
 PCOD8274584
Probable space group: C M M M
;
_chemical_formula_sum "Si O2"
_cell_formula_units_Z 80
_cell_length_a 16.959396
_cell_length_b 20.469021
_cell_length_c 12.715929
_cell_angle_alpha 90.000000
_cell_angle_beta 90.000000
_cell_angle_gamma 90.000000
_cell_volume 4414.235986
_symmetry_space_group_name_H-M "C M M M"
_symmetry_group_IT_number 65
_symmetry_cell_setting 'orthorhombic'
loop_
_space_group_symop_operation_xyz
x,y,z
-x,-y,z
x,-y,-z
-x,y,-z
-x,-y,-z
x,y,-z
-x,y,z
x,-y,z
1/2+x,1/2+y,z
1/2-x,1/2-y,z
1/2+x,1/2-y,-z
1/2-x,1/2+y,-z
1/2-x,1/2-y,-z
1/2+x,1/2+y,-z
1/2-x,1/2+y,z
1/2+x,1/2-y,z
loop_
_atom_site_type_symbol
_atom_site_label
_atom_site_fract_x
_atom_site_fract_y
_atom_site_fract_z
Si Si1 0.308125 0.811105 0.194119
Si Si2 0.589989 0.226534 0.619803
Si Si3 0.910165 0.121569 0.379649
Si Si4 0.592791 0.378829 0.000000
Si Si5 0.406900 0.227791 0.000000
Si Si6 0.189119 0.073593 0.806710
O O1 0.250000 0.750000 0.188488
O O2 0.352390 0.814309 0.305863
O O3 0.372591 0.806578 0.102908
O O4 0.262731 0.878676 0.179837
O O5 0.616308 0.214121 0.500000
O O6 0.500000 0.203850 0.636490
O O7 0.598086 0.302433 0.649430
O O8 0.885452 0.109055 0.500000
O O9 0.852215 0.080988 0.306240
O O10 0.000000 0.098819 0.361313
O O11 0.618203 0.303347 0.000000
O O12 0.625186 0.413126 0.103668
O O13 0.500000 0.387298 0.000000
O O14 0.500000 0.218700 0.000000
O O15 0.221125 0.000000 0.816772
#
# Coordination Sequence:
#
# PCOD8274584 Si02
#       6
#    16  16  16   8   8  16
#     4  12  21  36  59  83 111 146 181 224 277 322
#     4   9  18  34  58  86 111 139 183 233 275 319
#     4   9  18  34  55  80 112 149 186 220 262 324
#     4  11  22  38  58  82 111 146 183 217 264 330
#     4  11  22  38  63  87 107 135 183 234 273 322
#     4  12  25  37  52  80 116 150 183 222 269 323
#
# _framework density 18.123180999999999
#
# number of rings (size 3 to 8) (size 9 to 14) (size 15 to 20)
#    0.000    1.400    4.000    3.600    0.000    6.800 
#    0.000    1.000    0.000    3.000    0.000    1.400 
#    0.000    0.000    0.000    0.000    0.000    0.000 
#
# Total GULP energy -496174.088640 kJ/mol
# GULP energy per Si atom -12404.352216 kJ/mol
# Density = 1.808193 g / cm^3
# Si number density = 18.123181 Si / 1000 Ang^3
#
#
#
# Elastic Constant Matrix: (Units=GPa)
#
#
# Indices 1 2 3 4 5 6 
#
# 1 76.1236 49.6115 46.1340 0.0000 0.0000 0.0000
# 2 49.6115 109.4445 37.4614 0.0000 0.0000 0.0000
# 3 46.1340 37.4614 110.7022 0.0000 0.0000 0.0000
# 4 0.0000 0.0000 0.0000 11.6972 0.0000 0.0000
# 5 0.0000 0.0000 0.0000 0.0000 34.3687 0.0000
# 6 0.0000 0.0000 0.0000 0.0000 0.0000 21.9944
#
#
#
# Elastic Compliance Matrix: (Units=1/GPa)
#
#
# Indices 1 2 3 4 5 6 
#
# 1 0.022246 -0.007816 -0.006626 0.000000 0.000000 0.000000
# 2 -0.007816 0.013080 -0.001169 0.000000 0.000000 0.000000
# 3 -0.006626 -0.001169 0.012190 0.000000 0.000000 0.000000
# 4 0.000000 0.000000 0.000000 0.085491 0.000000 0.000000
# 5 0.000000 0.000000 0.000000 0.000000 0.029096 0.000000
# 6 0.000000 0.000000 0.000000 0.000000 0.000000 0.045466
#
#
# Mechanical properties :
#
#
# Convention : Reuss Voigt Hill
#
# Bulk Modulus (GPa) = 61.37119 62.52046 61.94583
# Shear Modulus (GPa) = 20.47306 24.48294 22.47800
#
# Velocity S-wave (km/s) = 3.36469 3.67947 3.52560
# Velocity P-wave (km/s) = 7.00227 7.25422 7.12936
#
# Compressibility (1/GPa) = 0.01629429
#
# Stress axis : x y z
#
# Youngs Moduli (GPa) = 44.95164 76.45062 82.03391
#
# Poissons Ratio (x) = 0.59756 0.54354
# Poissons Ratio (y) = 0.35136 0.09590
# Poissons Ratio (z) = 0.29784 0.08937
#
# Static dielectric constant tensor:
#      x y z
#    x 3.299290 0.000000 0.000000 
#    y 0.000000 3.121160 0.000000 
#    z 0.000000 0.000000 3.534820 
# 
# 
# High freq. dielectric constant tensor:
#      x y z
#    x 1.698800 0.000000 0.000000 
#    y 0.000000 1.667650 0.000000 
#    z 0.000000 0.000000 1.723650 
# 
# From -- ./inp_files/26705.got.cif
#   From: 2010.03.12/outbox.cif.g09.slc.cpg/sg65_14_cif.got.tgz:26705.got - 2010.04.10 20:52:16.
