data_PCOD8274571
_publ_section_title
;
Structure prediction by ZEFSAII (Michael W. Deem and Ramdas Pophale) SiO2 
 PCOD8274571
Probable space group: C M M M
;
_chemical_formula_sum "Si O2"
_cell_formula_units_Z 72
_cell_length_a 13.959879
_cell_length_b 18.486491
_cell_length_c 13.889581
_cell_angle_alpha 90.000000
_cell_angle_beta 90.000000
_cell_angle_gamma 90.000000
_cell_volume 3584.472744
_symmetry_space_group_name_H-M "C M M M"
_symmetry_group_IT_number 65
_symmetry_cell_setting 'orthorhombic'
loop_
_space_group_symop_operation_xyz
x,y,z
-x,-y,z
x,-y,-z
-x,y,-z
-x,-y,-z
x,y,-z
-x,y,z
x,-y,z
1/2+x,1/2+y,z
1/2-x,1/2-y,z
1/2+x,1/2-y,-z
1/2-x,1/2+y,-z
1/2-x,1/2-y,-z
1/2+x,1/2+y,-z
1/2-x,1/2+y,z
1/2+x,1/2-y,z
loop_
_atom_site_type_symbol
_atom_site_label
_atom_site_fract_x
_atom_site_fract_y
_atom_site_fract_z
Si Si1 0.175900 0.585654 0.000000
Si Si2 0.889254 0.633344 0.209933
Si Si3 0.109680 0.914861 0.500000
Si Si4 0.665500 0.308346 0.000000
Si Si5 0.787298 0.917696 0.305948
Si Si6 0.395478 0.704149 0.203323
O O1 0.124758 0.613769 0.902507
O O2 0.174129 0.500000 0.000000
O O3 0.285510 0.612364 0.000000
O O4 0.827175 0.585590 0.286259
O O5 0.857610 0.716338 0.231984
O O6 0.000000 0.620641 0.235836
O O7 0.173620 0.889866 0.590986
O O8 0.000000 0.882308 0.500000
O O9 0.099816 0.000000 0.500000
O O10 0.750000 0.250000 0.000000
O O11 0.595610 0.297303 0.088931
O O12 0.827299 0.861947 0.228718
O O13 0.822565 0.000000 0.288322
O O14 0.500000 0.690844 0.249275
#
# Coordination Sequence:
#
# PCOD8274571 Si02
#       6
#     8  16   8   8  16  16
#     4  12  23  36  57  85 119 162 207 246 282 333
#     4  11  23  39  59  86 122 163 204 243 290 349
#     4   9  20  40  64  89 117 153 195 240 300 370
#     4  12  19  35  57  80 118 159 200 237 290 344
#     4  11  22  39  63  89 117 150 195 250 300 354
#     4  11  22  37  59  86 119 160 198 240 297 356
#
# _framework density 20.086637
#
# number of rings (size 3 to 8) (size 9 to 14) (size 15 to 20)
#    0.000    1.000    4.444    2.667    0.000    5.333 
#    0.000    2.778    0.000    6.667    0.000    0.000 
#    0.000    0.000    0.000    0.000    0.000    0.000 
#
# Total GULP energy -446088.547788 kJ/mol
# GULP energy per Si atom -12391.348550 kJ/mol
# Density = 2.004092 g / cm^3
# Si number density = 20.086637 Si / 1000 Ang^3
#
#
#
# Elastic Constant Matrix: (Units=GPa)
#
#
# Indices 1 2 3 4 5 6 
#
# 1 96.4852 37.6446 47.5159 0.0000 0.0000 0.0000
# 2 37.6446 113.3536 15.1615 0.0000 0.0000 0.0000
# 3 47.5159 15.1615 99.6601 0.0000 0.0000 0.0000
# 4 0.0000 0.0000 0.0000 18.1555 0.0000 0.0000
# 5 0.0000 0.0000 0.0000 0.0000 21.5457 0.0000
# 6 0.0000 0.0000 0.0000 0.0000 0.0000 25.3813
#
#
#
# Elastic Compliance Matrix: (Units=1/GPa)
#
#
# Indices 1 2 3 4 5 6 
#
# 1 0.015267 -0.004182 -0.006643 0.000000 0.000000 0.000000
# 2 -0.004182 0.010151 0.000450 0.000000 0.000000 0.000000
# 3 -0.006643 0.000450 0.013133 0.000000 0.000000 0.000000
# 4 0.000000 0.000000 0.000000 0.055080 0.000000 0.000000
# 5 0.000000 0.000000 0.000000 0.000000 0.046413 0.000000
# 6 0.000000 0.000000 0.000000 0.000000 0.000000 0.039399
#
#
# Mechanical properties :
#
#
# Convention : Reuss Voigt Hill
#
# Bulk Modulus (GPa) = 56.17819 56.68255 56.43037
# Shear Modulus (GPa) = 24.25696 26.96162 25.60929
#
# Velocity S-wave (km/s) = 3.47885 3.66767 3.57451
# Velocity P-wave (km/s) = 6.64569 6.79824 6.72240
#
# Compressibility (1/GPa) = 0.01780050
#
# Stress axis : x y z
#
# Youngs Moduli (GPa) = 65.49962 98.51665 76.14446
#
# Poissons Ratio (x) = 0.41197 0.50582
# Poissons Ratio (y) = 0.27390 -0.03423
# Poissons Ratio (z) = 0.43511 -0.04429
#
# Static dielectric constant tensor:
#      x y z
#    x 3.843770 0.000000 0.000000 
#    y 0.000000 3.682010 0.000000 
#    z 0.000000 0.000000 3.593810 
# 
# 
# High freq. dielectric constant tensor:
#      x y z
#    x 1.790270 0.000000 0.000000 
#    y 0.000000 1.784440 0.000000 
#    z 0.000000 0.000000 1.760530 
# 
# From -- ./inp_files/39869.got.cif
#   From: 2010.03.12/outbox.cif.g09.slc.cpg/sg65_20_cif.got.tgz:39869.got - 2010.04.10 20:52:16.
