data_PCOD8274715
_publ_section_title
;
Structure prediction by ZEFSAII (Michael W. Deem and Ramdas Pophale) SiO2 
 PCOD8274715
Probable space group: C M M M
;
_chemical_formula_sum "Si O2"
_cell_formula_units_Z 72
_cell_length_a 14.308775
_cell_length_b 29.821714
_cell_length_c 8.646879
_cell_angle_alpha 90.000000
_cell_angle_beta 90.000000
_cell_angle_gamma 90.000000
_cell_volume 3689.728724
_symmetry_space_group_name_H-M "C M M M"
_symmetry_group_IT_number 65
_symmetry_cell_setting 'orthorhombic'
loop_
_space_group_symop_operation_xyz
x,y,z
-x,-y,z
x,-y,-z
-x,y,-z
-x,-y,-z
x,y,-z
-x,y,z
x,-y,z
1/2+x,1/2+y,z
1/2-x,1/2-y,z
1/2+x,1/2-y,-z
1/2-x,1/2+y,-z
1/2-x,1/2-y,-z
1/2+x,1/2+y,-z
1/2-x,1/2+y,z
1/2+x,1/2-y,z
loop_
_atom_site_type_symbol
_atom_site_label
_atom_site_fract_x
_atom_site_fract_y
_atom_site_fract_z
Si Si1 0.317076 0.369565 0.319473
Si Si2 0.500000 0.666576 0.179956
Si Si3 0.191522 0.294977 0.821533
Si Si4 0.000000 0.446735 0.173527
Si Si5 0.310295 0.050152 0.318693
Si Si6 0.000000 0.735927 0.682929
O O1 0.342569 0.366604 0.500000
O O2 0.409369 0.362784 0.218087
O O3 0.239705 0.332748 0.281077
O O4 0.276651 0.418354 0.274170
O O5 0.500000 0.711446 0.280386
O O6 0.500000 0.679958 0.000000
O O7 0.250000 0.250000 0.801676
O O8 0.088511 0.288047 0.757214
O O9 0.187779 0.309972 0.000000
O O10 0.905824 0.428423 0.252368
O O11 0.000000 0.500000 0.186627
O O12 0.000000 0.428973 0.000000
O O13 0.324200 0.048258 0.500000
O O14 0.291053 0.000000 0.252502
O O15 0.000000 0.729360 0.500000
#
# Coordination Sequence:
#
# PCOD8274715 Si02
#       6
#    16   8  16   8  16   8
#     4  11  23  39  62  89 116 152 200 246 291 346
#     4  12  24  40  60  84 116 156 196 238 297 356
#     4  11  23  39  60  86 119 155 191 236 292 349
#     4   9  17  30  53  84 115 150 189 229 282 345
#     4   9  19  37  60  86 118 155 195 241 292 344
#     4  12  24  39  63  89 118 154 199 245 288 345
#
# _framework density 19.513629000000002
#
# number of rings (size 3 to 8) (size 9 to 14) (size 15 to 20)
#    0.000    1.444    2.222    3.667    0.000    4.889 
#    0.000    1.667    0.000    3.333    0.000    0.000 
#    0.000    0.000    0.000    0.000    0.000    0.000 
#
# Total GULP energy -446522.213616 kJ/mol
# GULP energy per Si atom -12403.394823 kJ/mol
# Density = 1.946922 g / cm^3
# Si number density = 19.513629 Si / 1000 Ang^3
#
#
#
# Elastic Constant Matrix: (Units=GPa)
#
#
# Indices 1 2 3 4 5 6 
#
# 1 143.6023 40.3397 22.8254 0.0000 0.0000 0.0000
# 2 40.3397 72.5784 16.6766 0.0000 0.0000 0.0000
# 3 22.8254 16.6766 45.3601 0.0000 0.0000 0.0000
# 4 0.0000 0.0000 0.0000 18.8550 0.0000 0.0000
# 5 0.0000 0.0000 0.0000 0.0000 36.9035 0.0000
# 6 0.0000 0.0000 0.0000 0.0000 0.0000 3.8429
#
#
#
# Elastic Compliance Matrix: (Units=1/GPa)
#
#
# Indices 1 2 3 4 5 6 
#
# 1 0.008565 -0.004118 -0.002796 0.000000 0.000000 0.000000
# 2 -0.004118 0.017029 -0.004189 0.000000 0.000000 0.000000
# 3 -0.002796 -0.004189 0.024993 0.000000 0.000000 0.000000
# 4 0.000000 0.000000 0.000000 0.053036 0.000000 0.000000
# 5 0.000000 0.000000 0.000000 0.000000 0.027098 0.000000
# 6 0.000000 0.000000 0.000000 0.000000 0.000000 0.260220
#
#
# Mechanical properties :
#
#
# Convention : Reuss Voigt Hill
#
# Bulk Modulus (GPa) = 35.23377 46.80270 41.01823
# Shear Modulus (GPa) = 11.83132 24.03355 17.93243
#
# Velocity S-wave (km/s) = 2.46501 3.51326 3.03474
# Velocity P-wave (km/s) = 5.11829 6.36349 5.77455
#
# Compressibility (1/GPa) = 0.02838186
#
# Stress axis : x y z
#
# Youngs Moduli (GPa) = 116.75589 58.72170 40.01167
#
# Poissons Ratio (x) = 0.24182 0.11187
# Poissons Ratio (y) = 0.48080 0.16760
# Poissons Ratio (z) = 0.32644 0.24597
#
# Static dielectric constant tensor:
#      x y z
#    x 3.705010 0.000000 0.000000 
#    y 0.000000 3.733100 0.000000 
#    z 0.000000 0.000000 3.616500 
# 
# 
# High freq. dielectric constant tensor:
#      x y z
#    x 1.768880 0.000000 0.000000 
#    y 0.000000 1.748290 0.000000 
#    z 0.000000 0.000000 1.768310 
# 
# From -- ./inp_files/7438.got.cif
#   From: 2010.03.12/outbox.cif.g09.slc.cpg/sg65_4_cif.got.tgz:7438.got - 2010.04.10 20:52:16.
