data_PCOD8274793
_publ_section_title
;
Structure prediction by ZEFSAII (Michael W. Deem and Ramdas Pophale) SiO2 
 PCOD8274793
Probable space group: C M M M
;
_chemical_formula_sum "Si O2"
_cell_formula_units_Z 64
_cell_length_a 8.977182
_cell_length_b 17.726906
_cell_length_c 20.664494
_cell_angle_alpha 90.000000
_cell_angle_beta 90.000000
_cell_angle_gamma 90.000000
_cell_volume 3288.499250
_symmetry_space_group_name_H-M "C M M M"
_symmetry_group_IT_number 65
_symmetry_cell_setting 'orthorhombic'
loop_
_space_group_symop_operation_xyz
x,y,z
-x,-y,z
x,-y,-z
-x,y,-z
-x,-y,-z
x,y,-z
-x,y,z
x,-y,z
1/2+x,1/2+y,z
1/2-x,1/2-y,z
1/2+x,1/2-y,-z
1/2-x,1/2+y,-z
1/2-x,1/2-y,-z
1/2+x,1/2+y,-z
1/2-x,1/2+y,z
1/2+x,1/2-y,z
loop_
_atom_site_type_symbol
_atom_site_label
_atom_site_fract_x
_atom_site_fract_y
_atom_site_fract_z
Si Si1 0.824803 0.587605 0.732355
Si Si2 0.835922 0.410575 0.123490
Si Si3 0.331046 0.088945 0.500000
Si Si4 0.165222 0.090173 0.000000
Si Si5 0.322382 0.669472 0.383392
O O1 0.791438 0.500000 0.718290
O O2 0.774372 0.609921 0.805241
O O3 0.724943 0.639102 0.686579
O O4 0.000000 0.604037 0.721814
O O5 0.843684 0.500000 0.117586
O O6 0.000000 0.376160 0.115232
O O7 0.738274 0.376652 0.065343
O O8 0.500000 0.122151 0.500000
O O9 0.241179 0.113448 0.563075
O O10 0.339340 0.000000 0.500000
O O11 0.000000 0.121354 0.000000
O O12 0.172317 0.000000 0.000000
O O13 0.500000 0.674751 0.388117
O O14 0.250000 0.750000 0.396424
#
# Coordination Sequence:
#
# PCOD8274793 Si02
#       5
#    16  16   8   8  16
#     4   9  18  34  55  79 108 142 181 225 273 324
#     4   8  14  25  42  64  94 134 175 214 261 319
#     4  11  24  43  66  89 115 145 176 215 264 317
#     4   9  15  21  33  59  96 133 170 217 268 313
#     4  12  25  40  59  83 113 146 182 223 266 316
#
# _framework density 19.461766000000001
#
# number of rings (size 3 to 8) (size 9 to 14) (size 15 to 20)
#    0.000    2.250    0.000    5.625    0.000    7.000 
#    0.000    2.500    0.000    0.000    0.000    0.875 
#    0.000    0.000    0.000    0.000    0.000    0.000 
#
# Total GULP energy -396711.981340 kJ/mol
# GULP energy per Si atom -12397.249417 kJ/mol
# Density = 1.941747 g / cm^3
# Si number density = 19.461766 Si / 1000 Ang^3
#
#
#
# Elastic Constant Matrix: (Units=GPa)
#
#
# Indices 1 2 3 4 5 6 
#
# 1 139.4398 32.0690 70.8978 0.0000 0.0000 0.0000
# 2 32.0690 45.7270 26.5243 0.0000 0.0000 0.0000
# 3 70.8978 26.5243 152.1811 0.0000 0.0000 0.0000
# 4 0.0000 0.0000 0.0000 -6.9594 0.0000 0.0000
# 5 0.0000 0.0000 0.0000 0.0000 -184.2654 0.0000
# 6 0.0000 0.0000 0.0000 0.0000 0.0000 23.2001
#
#
#
# Elastic Compliance Matrix: (Units=1/GPa)
#
#
# Indices 1 2 3 4 5 6 
#
# 1 0.010314 -0.004946 -0.003943 0.000000 0.000000 0.000000
# 2 -0.004946 0.026701 -0.002349 0.000000 0.000000 0.000000
# 3 -0.003943 -0.002349 0.008818 0.000000 0.000000 0.000000
# 4 0.000000 0.000000 0.000000 -0.143691 0.000000 0.000000
# 5 0.000000 0.000000 0.000000 0.000000 -0.005427 0.000000
# 6 0.000000 0.000000 0.000000 0.000000 0.000000 0.043103
#
#
# Mechanical properties :
#
#
# Convention : Reuss Voigt Hill
#
# Bulk Modulus (GPa) = 42.81755 66.25891 54.53823
# Shear Modulus (GPa) = -167.10627 -19.74781 -93.42704
#
# Velocity S-wave (km/s) = -9.27633 -3.18889 -6.93611
# Velocity P-wave (km/s) = 9.62731 4.53441 6.00517
#
# Compressibility (1/GPa) = 0.02335491
#
# Stress axis : x y z
#
# Youngs Moduli (GPa) = 96.95703 37.45243 113.41041
#
# Poissons Ratio (x) = 0.18524 0.44717
# Poissons Ratio (y) = 0.47956 0.26645
# Poissons Ratio (z) = 0.38229 0.08799
#
# Static dielectric constant tensor:
#      x y z
#    x 3.682850 0.000000 0.000000 
#    y 0.000000 3.108030 0.000000 
#    z 0.000000 0.000000 3.869780 
# 
# 
# High freq. dielectric constant tensor:
#      x y z
#    x 1.758080 0.000000 0.000000 
#    y 0.000000 1.712400 0.000000 
#    z 0.000000 0.000000 1.780430 
# 
# From -- ./inp_files/58846.got.cif
#   From: 2010.03.12/outbox.cif.g09.slc.cpg/sg65_30_cif.got.tgz:58846.got - 2010.04.10 20:52:16.
