data_PCOD8274785
_publ_section_title
;
Structure prediction by ZEFSAII (Michael W. Deem and Ramdas Pophale) SiO2 
 PCOD8274785
Probable space group: C M M M
;
_chemical_formula_sum "Si O2"
_cell_formula_units_Z 72
_cell_length_a 15.234654
_cell_length_b 25.918246
_cell_length_c 8.740300
_cell_angle_alpha 90.000000
_cell_angle_beta 90.000000
_cell_angle_gamma 90.000000
_cell_volume 3451.155615
_symmetry_space_group_name_H-M "C M M M"
_symmetry_group_IT_number 65
_symmetry_cell_setting 'orthorhombic'
loop_
_space_group_symop_operation_xyz
x,y,z
-x,-y,z
x,-y,-z
-x,y,-z
-x,-y,-z
x,y,-z
-x,y,z
x,-y,z
1/2+x,1/2+y,z
1/2-x,1/2-y,z
1/2+x,1/2-y,-z
1/2-x,1/2+y,-z
1/2-x,1/2-y,-z
1/2+x,1/2+y,-z
1/2-x,1/2+y,z
1/2+x,1/2-y,z
loop_
_atom_site_type_symbol
_atom_site_label
_atom_site_fract_x
_atom_site_fract_y
_atom_site_fract_z
Si Si1 0.000000 0.060879 0.327388
Si Si2 0.500000 0.789735 0.177583
Si Si3 0.344419 0.727715 0.679619
Si Si4 0.319710 0.941189 0.323335
Si Si5 0.500000 0.088827 0.177318
Si Si6 0.660879 0.383335 0.819292
O O1 0.086611 0.078771 0.241161
O O2 0.000000 0.082970 0.500000
O O3 0.000000 0.000000 0.329066
O O4 0.585987 0.768235 0.258374
O O5 0.500000 0.850406 0.202720
O O6 0.500000 0.774268 0.000000
O O7 0.356840 0.720020 0.500000
O O8 0.250000 0.750000 0.722362
O O9 0.359621 0.673555 0.760774
O O10 0.320914 0.924817 0.500000
O O11 0.416130 0.936424 0.255465
O O12 0.255444 0.902439 0.236220
O O13 0.286900 0.000000 0.303671
O O14 0.500000 0.073961 0.000000
O O15 0.659751 0.383214 0.000000
#
# Coordination Sequence:
#
# PCOD8274785 Si02
#       6
#     8   8  16  16   8  16
#     4  11  24  43  66  91 123 163 206 253 304 363
#     4  11  24  41  62  91 126 161 200 251 308 363
#     4  11  24  42  65  91 121 161 207 253 302 362
#     4  11  24  42  64  91 125 165 208 254 304 362
#     4  11  24  41  64  94 127 163 204 255 310 363
#     4  12  25  41  64  93 126 162 202 254 310 365
#
# _framework density 20.862577000000002
#
# number of rings (size 3 to 8) (size 9 to 14) (size 15 to 20)
#    0.000    0.778    0.000    7.333    0.000   13.778 
#    0.000    0.000    0.000    0.000    0.000    0.000 
#    0.000    0.000    0.000    0.000    0.000    0.000 
#
# Total GULP energy -446714.993981 kJ/mol
# GULP energy per Si atom -12408.749833 kJ/mol
# Density = 2.081509 g / cm^3
# Si number density = 20.862577 Si / 1000 Ang^3
#
#
#
# Elastic Constant Matrix: (Units=GPa)
#
#
# Indices 1 2 3 4 5 6 
#
# 1 112.6156 12.7481 45.0092 0.0000 0.0000 0.0000
# 2 12.7481 71.9400 39.8235 0.0000 0.0000 0.0000
# 3 45.0092 39.8235 143.8070 0.0000 0.0000 0.0000
# 4 0.0000 0.0000 0.0000 28.3786 0.0000 0.0000
# 5 0.0000 0.0000 0.0000 0.0000 40.2358 0.0000
# 6 0.0000 0.0000 0.0000 0.0000 0.0000 151.4251
#
#
#
# Elastic Compliance Matrix: (Units=1/GPa)
#
#
# Indices 1 2 3 4 5 6 
#
# 1 0.010149 -0.000047 -0.003164 0.000000 0.000000 0.000000
# 2 -0.000047 0.016417 -0.004532 0.000000 0.000000 0.000000
# 3 -0.003164 -0.004532 0.009199 0.000000 0.000000 0.000000
# 4 0.000000 0.000000 0.000000 0.035238 0.000000 0.000000
# 5 0.000000 0.000000 0.000000 0.000000 0.024853 0.000000
# 6 0.000000 0.000000 0.000000 0.000000 0.000000 0.006604
#
#
# Mechanical properties :
#
#
# Convention : Reuss Voigt Hill
#
# Bulk Modulus (GPa) = 49.30754 58.16936 53.73845
# Shear Modulus (GPa) = 40.09433 59.39336 49.74384
#
# Velocity S-wave (km/s) = 4.38862 5.34141 4.88829
# Velocity P-wave (km/s) = 7.02608 8.12303 7.59438
#
# Compressibility (1/GPa) = 0.02028087
#
# Stress axis : x y z
#
# Youngs Moduli (GPa) = 98.52714 60.91113 108.70997
#
# Poissons Ratio (x) = 0.00288 0.34391
# Poissons Ratio (y) = 0.00466 0.49262
# Poissons Ratio (z) = 0.31169 0.27602
#
# Static dielectric constant tensor:
#      x y z
#    x 3.888060 0.000000 0.000000 
#    y 0.000000 3.856690 0.000000 
#    z 0.000000 0.000000 4.024840 
# 
# 
# High freq. dielectric constant tensor:
#      x y z
#    x 1.834400 0.000000 0.000000 
#    y 0.000000 1.833200 0.000000 
#    z 0.000000 0.000000 1.835300 
# 
# From -- ./inp_files/7381.got.cif
#   From: 2010.03.12/outbox.cif.g09.slc.cpg/sg65_4_cif.got.tgz:7381.got - 2010.04.10 20:52:16.
