data_PCOD8274780
_publ_section_title
;
Structure prediction by ZEFSAII (Michael W. Deem and Ramdas Pophale) SiO2 
 PCOD8274780
Probable space group: C M M M
;
_chemical_formula_sum "Si O2"
_cell_formula_units_Z 64
_cell_length_a 20.705085
_cell_length_b 9.050612
_cell_length_c 17.276073
_cell_angle_alpha 90.000000
_cell_angle_beta 90.000000
_cell_angle_gamma 90.000000
_cell_volume 3237.427081
_symmetry_space_group_name_H-M "C M M M"
_symmetry_group_IT_number 65
_symmetry_cell_setting 'orthorhombic'
loop_
_space_group_symop_operation_xyz
x,y,z
-x,-y,z
x,-y,-z
-x,y,-z
-x,-y,-z
x,y,-z
-x,y,z
x,-y,z
1/2+x,1/2+y,z
1/2-x,1/2-y,z
1/2+x,1/2-y,-z
1/2-x,1/2+y,-z
1/2-x,1/2-y,-z
1/2+x,1/2+y,-z
1/2-x,1/2+y,z
1/2+x,1/2-y,z
loop_
_atom_site_type_symbol
_atom_site_label
_atom_site_fract_x
_atom_site_fract_y
_atom_site_fract_z
Si Si1 0.187581 0.325801 0.767006
Si Si2 0.639215 0.676594 0.911834
Si Si3 0.923482 0.164975 0.500000
Si Si4 0.426365 0.826966 0.653738
Si Si5 0.500000 0.658961 0.090523
O O1 0.197714 0.500000 0.769659
O O2 0.250000 0.250000 0.726256
O O3 0.186528 0.260567 0.853959
O O4 0.121980 0.281443 0.722431
O O5 0.641838 0.500000 0.900236
O O6 0.567254 0.740998 0.890036
O O7 0.658001 0.717920 0.000000
O O8 0.899809 0.248287 0.576739
O O9 0.000000 0.162369 0.500000
O O10 0.894562 0.000000 0.500000
O O11 0.500000 0.778080 0.675284
O O12 0.424094 0.000000 0.637244
O O13 0.500000 0.500000 0.133367
O O14 0.500000 0.627095 0.000000
#
# Coordination Sequence:
#
# PCOD8274780 Si02
#       5
#    16  16   8  16   8
#     4  11  24  39  56  79 112 150 189 233 280 332
#     4   9  18  34  56  80 108 144 186 231 281 335
#     4   9  17  31  56  91 120 141 175 223 270 321
#     4   9  19  37  60  84 112 147 183 222 273 330
#     4   7  12  26  49  77 105 132 167 216 273 329
#
# _framework density 19.768785000000001
#
# number of rings (size 3 to 8) (size 9 to 14) (size 15 to 20)
#    0.000    2.750    0.000    2.625    1.750    4.500 
#    0.000    0.625    0.000    2.250    0.000    0.000 
#    0.000    0.000    0.000    0.000    0.000    0.000 
#
# Total GULP energy -396519.946938 kJ/mol
# GULP energy per Si atom -12391.248342 kJ/mol
# Density = 1.972379 g / cm^3
# Si number density = 19.768785 Si / 1000 Ang^3
#
#
#
# Elastic Constant Matrix: (Units=GPa)
#
#
# Indices 1 2 3 4 5 6 
#
# 1 105.2592 43.2050 52.5990 0.0000 0.0000 0.0000
# 2 43.2050 66.7667 51.4987 0.0000 0.0000 0.0000
# 3 52.5990 51.4987 114.1226 0.0000 0.0000 0.0000
# 4 0.0000 0.0000 0.0000 26.4815 0.0000 0.0000
# 5 0.0000 0.0000 0.0000 0.0000 13.3615 0.0000
# 6 0.0000 0.0000 0.0000 0.0000 0.0000 -19.4502
#
#
#
# Elastic Compliance Matrix: (Units=1/GPa)
#
#
# Indices 1 2 3 4 5 6 
#
# 1 0.013830 -0.006186 -0.003583 0.000000 0.000000 0.000000
# 2 -0.006186 0.025741 -0.008765 0.000000 0.000000 0.000000
# 3 -0.003583 -0.008765 0.014369 0.000000 0.000000 0.000000
# 4 0.000000 0.000000 0.000000 0.037762 0.000000 0.000000
# 5 0.000000 0.000000 0.000000 0.000000 0.074842 0.000000
# 6 0.000000 0.000000 0.000000 0.000000 0.000000 -0.051413
#
#
# Mechanical properties :
#
#
# Convention : Reuss Voigt Hill
#
# Bulk Modulus (GPa) = 59.26637 64.52821 61.89729
# Shear Modulus (GPa) = 31.68140 13.33493 22.50817
#
# Velocity S-wave (km/s) = 4.00759 2.60002 3.37793
# Velocity P-wave (km/s) = 7.17351 6.45955 6.82587
#
# Compressibility (1/GPa) = 0.01687298
#
# Stress axis : x y z
#
# Youngs Moduli (GPa) = 72.30808 38.84879 69.59471
#
# Poissons Ratio (x) = 0.24031 0.24934
# Poissons Ratio (y) = 0.44729 0.60998
# Poissons Ratio (z) = 0.25906 0.34050
#
# Static dielectric constant tensor:
#      x y z
#    x 3.835080 0.000000 0.000000 
#    y 0.000000 3.376640 0.000000 
#    z 0.000000 0.000000 3.491640 
# 
# 
# High freq. dielectric constant tensor:
#      x y z
#    x 1.768380 0.000000 0.000000 
#    y 0.000000 1.751350 0.000000 
#    z 0.000000 0.000000 1.757090 
# 
# From -- ./inp_files/49424.got.cif
#   From: 2010.03.12/outbox.cif.g09.slc.cpg/sg65_25_cif.got.tgz:49424.got - 2010.04.10 20:52:16.
