data_PCOD8274814
_publ_section_title
;
Structure prediction by ZEFSAII (Michael W. Deem and Ramdas Pophale) SiO2 
 PCOD8274814
Probable space group: C M M M
;
_chemical_formula_sum "Si O2"
_cell_formula_units_Z 48
_cell_length_a 16.877418
_cell_length_b 18.396768
_cell_length_c 7.666683
_cell_angle_alpha 90.000000
_cell_angle_beta 90.000000
_cell_angle_gamma 90.000000
_cell_volume 2380.427971
_symmetry_space_group_name_H-M "C M M M"
_symmetry_group_IT_number 65
_symmetry_cell_setting 'orthorhombic'
loop_
_space_group_symop_operation_xyz
x,y,z
-x,-y,z
x,-y,-z
-x,y,-z
-x,-y,-z
x,y,-z
-x,y,z
x,-y,z
1/2+x,1/2+y,z
1/2-x,1/2-y,z
1/2+x,1/2-y,-z
1/2-x,1/2+y,-z
1/2-x,1/2-y,-z
1/2+x,1/2+y,-z
1/2-x,1/2+y,z
1/2+x,1/2-y,z
loop_
_atom_site_type_symbol
_atom_site_label
_atom_site_fract_x
_atom_site_fract_y
_atom_site_fract_z
Si Si1 0.414213 0.084288 0.500000
Si Si2 0.146117 0.822333 0.797203
Si Si3 0.825818 0.660342 0.204427
Si Si4 0.500000 0.583329 0.791360
O O1 0.500000 0.123062 0.500000
O O2 0.370008 0.102463 0.321182
O O3 0.425962 0.000000 0.500000
O O4 0.145382 0.739562 0.727543
O O5 0.232921 0.854087 0.759928
O O6 0.077645 0.874085 0.716279
O O7 0.129672 0.817617 0.000000
O O8 0.845189 0.649354 0.000000
O O9 0.500000 0.500000 0.721444
O O10 0.500000 0.582093 0.000000
#
# Coordination Sequence:
#
# PCOD8274814 Si02
#       4
#     8  16  16   8
#     4  11  26  41  54  83 115 144 195 248 294 344
#     4   8  16  31  55  88 114 144 195 232 270 342
#     4   9  19  38  62  83 109 150 195 239 282 333
#     4   9  16  26  46  83 125 150 173 225 288 346
#
# _framework density 20.164439999999999
#
# number of rings (size 3 to 8) (size 9 to 14) (size 15 to 20)
#    0.000    3.000    0.000    2.000    2.333    5.333 
#    0.000    5.000    0.000    0.000    0.000    3.500 
#    0.000    0.000    0.000    0.000    0.000    0.000 
#
# Total GULP energy -297386.322434 kJ/mol
# GULP energy per Si atom -12391.096768 kJ/mol
# Density = 2.011854 g / cm^3
# Si number density = 20.164440 Si / 1000 Ang^3
#
#
#
# Elastic Constant Matrix: (Units=GPa)
#
#
# Indices 1 2 3 4 5 6 
#
# 1 152.1029 75.0270 42.1556 0.0000 0.0000 0.0000
# 2 75.0270 95.2818 25.6358 0.0000 0.0000 0.0000
# 3 42.1556 25.6358 72.6908 0.0000 0.0000 0.0000
# 4 0.0000 0.0000 0.0000 22.7563 0.0000 0.0000
# 5 0.0000 0.0000 0.0000 0.0000 27.8974 0.0000
# 6 0.0000 0.0000 0.0000 0.0000 0.0000 29.5691
#
#
#
# Elastic Compliance Matrix: (Units=1/GPa)
#
#
# Indices 1 2 3 4 5 6 
#
# 1 0.011670 -0.008141 -0.003897 0.000000 0.000000 0.000000
# 2 -0.008141 0.017274 -0.001371 0.000000 0.000000 0.000000
# 3 -0.003897 -0.001371 0.016500 0.000000 0.000000 0.000000
# 4 0.000000 0.000000 0.000000 0.043944 0.000000 0.000000
# 5 0.000000 0.000000 0.000000 0.000000 0.035846 0.000000
# 6 0.000000 0.000000 0.000000 0.000000 0.000000 0.033819
#
#
# Mechanical properties :
#
#
# Convention : Reuss Voigt Hill
#
# Bulk Modulus (GPa) = 53.68437 67.30135 60.49286
# Shear Modulus (GPa) = 26.03086 27.86170 26.94628
#
# Velocity S-wave (km/s) = 3.59685 3.72119 3.65955
# Velocity P-wave (km/s) = 6.62803 7.20498 6.92252
#
# Compressibility (1/GPa) = 0.01862740
#
# Stress axis : x y z
#
# Youngs Moduli (GPa) = 85.68916 57.88934 60.60501
#
# Poissons Ratio (x) = 0.47127 0.23617
# Poissons Ratio (y) = 0.69758 0.08309
# Poissons Ratio (z) = 0.33391 0.07937
#
# Static dielectric constant tensor:
#      x y z
#    x 4.163440 0.000000 0.000000 
#    y 0.000000 3.743080 0.000000 
#    z 0.000000 0.000000 3.238590 
# 
# 
# High freq. dielectric constant tensor:
#      x y z
#    x 1.796950 0.000000 0.000000 
#    y 0.000000 1.775250 0.000000 
#    z 0.000000 0.000000 1.761950 
# 
# From -- ./inp_files/5797.got.cif
#   From: 2010.03.12/outbox.cif.g09.slc.cpg/sg65_3_cif.got.tgz:5797.got - 2010.04.10 20:52:16.
