data_PCOD8274857
_publ_section_title
;
Structure prediction by ZEFSAII (Michael W. Deem and Ramdas Pophale) SiO2 
 PCOD8274857
Probable space group: C M M M
;
_chemical_formula_sum "Si O2"
_cell_formula_units_Z 56
_cell_length_a 8.927361
_cell_length_b 20.974123
_cell_length_c 14.017351
_cell_angle_alpha 90.000000
_cell_angle_beta 90.000000
_cell_angle_gamma 90.000000
_cell_volume 2624.658811
_symmetry_space_group_name_H-M "C M M M"
_symmetry_group_IT_number 65
_symmetry_cell_setting 'orthorhombic'
loop_
_space_group_symop_operation_xyz
x,y,z
-x,-y,z
x,-y,-z
-x,y,-z
-x,-y,-z
x,y,-z
-x,y,z
x,-y,z
1/2+x,1/2+y,z
1/2-x,1/2-y,z
1/2+x,1/2-y,-z
1/2-x,1/2+y,-z
1/2-x,1/2-y,-z
1/2+x,1/2+y,-z
1/2-x,1/2+y,z
1/2+x,1/2-y,z
loop_
_atom_site_type_symbol
_atom_site_label
_atom_site_fract_x
_atom_site_fract_y
_atom_site_fract_z
Si Si1 0.323972 0.187370 0.213413
Si Si2 0.170768 0.071648 0.112696
Si Si3 0.178025 0.862091 0.610194
Si Si4 0.825736 0.000000 0.610254
O O1 0.500000 0.195354 0.211146
O O2 0.250000 0.250000 0.164522
O O3 0.279428 0.123581 0.157956
O O4 0.265310 0.186900 0.322876
O O5 0.000000 0.088019 0.141238
O O6 0.210289 0.000000 0.150122
O O7 0.191480 0.073562 0.000000
O O8 0.224267 0.851296 0.500000
O O9 0.000000 0.854337 0.621676
O O10 0.233759 0.932249 0.649837
O O11 0.787142 0.000000 0.500000
O O12 0.000000 0.000000 0.627411
#
# Coordination Sequence:
#
# PCOD8274857 Si02
#       4
#    16  16  16   8
#     4  12  26  41  59  87 125 166 208 252 303 360
#     4   9  20  42  71  98 123 155 196 243 300 367
#     4   9  18  35  59  86 118 159 206 253 302 358
#     4   7  12  26  51  81 108 141 188 237 289 348
#
# _framework density 21.336106000000001
#
# number of rings (size 3 to 8) (size 9 to 14) (size 15 to 20)
#    0.000    2.429    0.000    5.143    2.000    2.857 
#    0.000    1.429    0.000    2.571    0.000    0.000 
#    0.000    0.000    0.000    0.000    0.000    0.000 
#
# Total GULP energy -346947.249585 kJ/mol
# GULP energy per Si atom -12390.973199 kJ/mol
# Density = 2.128754 g / cm^3
# Si number density = 21.336106 Si / 1000 Ang^3
#
#
#
# Elastic Constant Matrix: (Units=GPa)
#
#
# Indices 1 2 3 4 5 6 
#
# 1 123.4809 64.4581 32.4923 0.0000 0.0000 0.0000
# 2 64.4581 134.0809 36.1626 0.0000 0.0000 0.0000
# 3 32.4923 36.1626 40.8285 0.0000 0.0000 0.0000
# 4 0.0000 0.0000 0.0000 22.9345 0.0000 0.0000
# 5 0.0000 0.0000 0.0000 0.0000 27.4814 0.0000
# 6 0.0000 0.0000 0.0000 0.0000 0.0000 33.3559
#
#
#
# Elastic Compliance Matrix: (Units=1/GPa)
#
#
# Indices 1 2 3 4 5 6 
#
# 1 0.011744 -0.004106 -0.005710 0.000000 0.000000 0.000000
# 2 -0.004106 0.011235 -0.006683 0.000000 0.000000 0.000000
# 3 -0.005710 -0.006683 0.034956 0.000000 0.000000 0.000000
# 4 0.000000 0.000000 0.000000 0.043602 0.000000 0.000000
# 5 0.000000 0.000000 0.000000 0.000000 0.036388 0.000000
# 6 0.000000 0.000000 0.000000 0.000000 0.000000 0.029980
#
#
# Mechanical properties :
#
#
# Convention : Reuss Voigt Hill
#
# Bulk Modulus (GPa) = 40.10042 62.73517 51.41780
# Shear Modulus (GPa) = 23.89892 27.77285 25.83589
#
# Velocity S-wave (km/s) = 3.35045 3.61180 3.48357
# Velocity P-wave (km/s) = 5.81401 6.84548 6.35072
#
# Compressibility (1/GPa) = 0.02493739
#
# Stress axis : x y z
#
# Youngs Moduli (GPa) = 85.14862 89.01107 28.60757
#
# Poissons Ratio (x) = 0.36548 0.16334
# Poissons Ratio (y) = 0.34962 0.19118
# Poissons Ratio (z) = 0.48616 0.59486
#
# Static dielectric constant tensor:
#      x y z
#    x 3.383140 0.000000 0.000000 
#    y 0.000000 4.293290 0.000000 
#    z 0.000000 0.000000 3.824080 
# 
# 
# High freq. dielectric constant tensor:
#      x y z
#    x 1.794160 0.000000 0.000000 
#    y 0.000000 1.857260 0.000000 
#    z 0.000000 0.000000 1.836040 
# 
# From -- ./inp_files/35482.got.cif
#   From: 2010.03.12/outbox.cif.g09.slc.cpg/sg65_18_cif.got.tgz:35482.got - 2010.04.10 20:52:16.
