data_PCOD8274217
_publ_section_title
;
Structure prediction by ZEFSAII (Michael W. Deem and Ramdas Pophale) SiO2 
 PCOD8274217
Probable space group: C M M M
;
_chemical_formula_sum "Si O2"
_cell_formula_units_Z 64
_cell_length_a 25.327887
_cell_length_b 10.257218
_cell_length_c 15.499209
_cell_angle_alpha 90.000000
_cell_angle_beta 90.000000
_cell_angle_gamma 90.000000
_cell_volume 4026.596209
_symmetry_space_group_name_H-M "C M M M"
_symmetry_group_IT_number 65
_symmetry_cell_setting 'orthorhombic'
loop_
_space_group_symop_operation_xyz
x,y,z
-x,-y,z
x,-y,-z
-x,y,-z
-x,-y,-z
x,y,-z
-x,y,z
x,-y,z
1/2+x,1/2+y,z
1/2-x,1/2-y,z
1/2+x,1/2-y,-z
1/2-x,1/2+y,-z
1/2-x,1/2-y,-z
1/2+x,1/2+y,-z
1/2-x,1/2+y,z
1/2+x,1/2-y,z
loop_
_atom_site_type_symbol
_atom_site_label
_atom_site_fract_x
_atom_site_fract_y
_atom_site_fract_z
Si Si1 0.060579 0.655984 0.686887
Si Si2 0.937822 0.358405 0.500000
Si Si3 0.697111 0.000000 0.100940
Si Si4 0.178755 0.000000 0.898844
Si Si5 0.871618 0.264334 0.156099
Si Si6 0.561845 0.150556 0.000000
O O1 0.066798 0.500000 0.692171
O O2 0.076998 0.710565 0.590994
O O3 0.100429 0.725568 0.751664
O O4 0.000000 0.693857 0.708756
O O5 0.910200 0.500000 0.500000
O O6 0.000000 0.379799 0.500000
O O7 0.759078 0.000000 0.115584
O O8 0.673677 0.872099 0.145611
O O9 0.682624 0.000000 0.000000
O O10 0.154804 0.875559 0.851788
O O11 0.164616 0.000000 0.000000
O O12 0.916443 0.280256 0.084527
O O13 0.500000 0.167501 0.000000
O O14 0.579066 0.000000 0.000000
#
# Coordination Sequence:
#
# PCOD8274217 Si02
#       6
#    16   8   8   8  16   8
#     4   9  16  28  50  77 104 130 161 200 240 291
#     4   7  12  24  44  75 104 124 155 202 243 277
#     4  11  20  36  54  71  90 127 173 216 249 285
#     4  11  24  36  50  67 100 131 169 216 249 283
#     4  12  19  34  50  75  97 131 163 201 249 294
#     4  11  20  31  48  72  99 128 163 197 236 290
#
# _framework density 15.894318
#
# number of rings (size 3 to 8) (size 9 to 14) (size 15 to 20)
#    0.000    1.750    5.000    3.000    0.000    4.000 
#    0.000    3.125    0.000    0.750    0.000    7.875 
#    0.000    0.000    0.000    0.000    0.000    0.000 
#
# Total GULP energy -396645.314940 kJ/mol
# GULP energy per Si atom -12395.166092 kJ/mol
# Density = 1.585814 g / cm^3
# Si number density = 15.894318 Si / 1000 Ang^3
#
#
#
# Elastic Constant Matrix: (Units=GPa)
#
#
# Indices 1 2 3 4 5 6 
#
# 1 94.0620 49.8647 64.0781 0.0000 0.0000 0.0000
# 2 49.8647 100.4669 44.6019 0.0000 0.0000 0.0000
# 3 64.0781 44.6019 148.6243 0.0000 0.0000 0.0000
# 4 0.0000 0.0000 0.0000 11.4091 0.0000 0.0000
# 5 0.0000 0.0000 0.0000 0.0000 5.6983 0.0000
# 6 0.0000 0.0000 0.0000 0.0000 0.0000 -74.0008
#
#
#
# Elastic Compliance Matrix: (Units=1/GPa)
#
#
# Indices 1 2 3 4 5 6 
#
# 1 0.017967 -0.006321 -0.005849 0.000000 0.000000 0.000000
# 2 -0.006321 0.013707 -0.001388 0.000000 0.000000 0.000000
# 3 -0.005849 -0.001388 0.009667 0.000000 0.000000 0.000000
# 4 0.000000 0.000000 0.000000 0.087649 0.000000 0.000000
# 5 0.000000 0.000000 0.000000 0.000000 0.175492 0.000000
# 6 0.000000 0.000000 0.000000 0.000000 0.000000 -0.013513
#
#
# Mechanical properties :
#
#
# Convention : Reuss Voigt Hill
#
# Bulk Modulus (GPa) = 70.30406 73.36028 71.83217
# Shear Modulus (GPa) = 15.48819 0.92855 8.20837
#
# Velocity S-wave (km/s) = 3.12500 0.76516 2.27498
# Velocity P-wave (km/s) = 7.57292 6.85827 7.22444
#
# Compressibility (1/GPa) = 0.01422393
#
# Stress axis : x y z
#
# Youngs Moduli (GPa) = 55.65802 72.95534 103.44517
#
# Poissons Ratio (x) = 0.46113 0.60510
# Poissons Ratio (y) = 0.35180 0.14362
# Poissons Ratio (z) = 0.32557 0.10129
#
# Static dielectric constant tensor:
#      x y z
#    x 2.937250 0.000000 0.000000 
#    y 0.000000 2.837020 0.000000 
#    z 0.000000 0.000000 3.263010 
# 
# 
# High freq. dielectric constant tensor:
#      x y z
#    x 1.603350 0.000000 0.000000 
#    y 0.000000 1.582840 0.000000 
#    z 0.000000 0.000000 1.611020 
# 
# From -- ./inp_files/47412.got.cif
#   From: 2010.03.12/outbox.cif.g09.slc.cpg/sg65_24_cif.got.tgz:47412.got - 2010.04.10 20:52:16.
