data_PCOD8274913
_publ_section_title
;
Structure prediction by ZEFSAII (Michael W. Deem and Ramdas Pophale) SiO2 
 PCOD8274913
Probable space group: C M M M
;
_chemical_formula_sum "Si O2"
_cell_formula_units_Z 96
_cell_length_a 19.745312
_cell_length_b 9.254286
_cell_length_c 30.893299
_cell_angle_alpha 90.000000
_cell_angle_beta 90.000000
_cell_angle_gamma 90.000000
_cell_volume 5645.094355
_symmetry_space_group_name_H-M "C M M M"
_symmetry_group_IT_number 65
_symmetry_cell_setting 'orthorhombic'
loop_
_space_group_symop_operation_xyz
x,y,z
-x,-y,z
x,-y,-z
-x,y,-z
-x,-y,-z
x,y,-z
-x,y,z
x,-y,z
1/2+x,1/2+y,z
1/2-x,1/2-y,z
1/2+x,1/2-y,-z
1/2-x,1/2+y,-z
1/2-x,1/2-y,-z
1/2+x,1/2+y,-z
1/2-x,1/2+y,z
1/2+x,1/2-y,z
loop_
_atom_site_type_symbol
_atom_site_label
_atom_site_fract_x
_atom_site_fract_y
_atom_site_fract_z
Si Si1 0.080536 0.662329 0.547811
Si Si2 0.419236 0.836385 0.711998
Si Si3 0.577793 0.831944 0.121034
Si Si4 0.919405 0.163338 0.205233
Si Si5 0.816720 0.668530 0.950926
Si Si6 0.919183 0.162708 0.371063
O O1 0.104529 0.714256 0.500000
O O2 0.106842 0.500000 0.556829
O O3 0.109838 0.768618 0.584507
O O4 0.000000 0.662867 0.549767
O O5 0.500000 0.837117 0.712475
O O6 0.390732 0.751276 0.753702
O O7 0.391969 0.756068 0.669222
O O8 0.391328 0.000000 0.712534
O O9 0.500000 0.794364 0.110704
O O10 0.605633 0.740872 0.161564
O O11 0.620248 0.786850 0.078917
O O12 0.586350 0.000000 0.132667
O O13 0.000000 0.163354 0.206824
O O14 0.891134 0.000000 0.206543
O O15 0.801273 0.500000 0.947599
O O16 0.750000 0.750000 0.934454
O O17 0.835051 0.714026 0.000000
O O18 0.000000 0.162928 0.371331
O O19 0.891332 0.000000 0.366987
#
# Coordination Sequence:
#
# PCOD8274913 Si02
#       6
#    16  16  16  16  16  16
#     4   8  13  20  27  33  43  62  90 126 170 220
#     4   9  15  22  32  44  60  84 112 141 177 225
#     4   9  17  29  45  65  88 113 142 175 211 252
#     4   9  16  25  37  54  76  99 123 154 194 238
#     4   9  18  32  49  68  90 117 147 178 212 250
#     4   9  15  20  26  37  52  70  96 132 174 221
#
# _framework density 17.005915999999999
#
# number of rings (size 3 to 8) (size 9 to 14) (size 15 to 20)
#    0.000    3.167    0.000    2.000    0.000    7.333 
#    0.000    3.333    0.000    0.000    0.000    4.667 
#    0.000    0.000    0.000    0.000    0.000    0.000 
#
# Total GULP energy -595032.185420 kJ/mol
# GULP energy per Si atom -12396.503863 kJ/mol
# Density = 1.696721 g / cm^3
# Si number density = 17.005916 Si / 1000 Ang^3
#
#
#
# Elastic Constant Matrix: (Units=GPa)
#
#
# Indices 1 2 3 4 5 6 
#
# 1 25.6429 23.4492 36.1304 0.0000 0.0000 0.0000
# 2 23.4492 124.8571 85.9945 0.0000 0.0000 0.0000
# 3 36.1304 85.9945 158.8649 0.0000 0.0000 0.0000
# 4 0.0000 0.0000 0.0000 30.1619 0.0000 0.0000
# 5 0.0000 0.0000 0.0000 0.0000 0.9111 0.0000
# 6 0.0000 0.0000 0.0000 0.0000 0.0000 10.4213
#
#
#
# Elastic Compliance Matrix: (Units=1/GPa)
#
#
# Indices 1 2 3 4 5 6 
#
# 1 0.058030 -0.002884 -0.011637 0.000000 0.000000 0.000000
# 2 -0.002884 0.012913 -0.006334 0.000000 0.000000 0.000000
# 3 -0.011637 -0.006334 0.012370 0.000000 0.000000 0.000000
# 4 0.000000 0.000000 0.000000 0.033154 0.000000 0.000000
# 5 0.000000 0.000000 0.000000 0.000000 1.097634 0.000000
# 6 0.000000 0.000000 0.000000 0.000000 0.000000 0.095957
#
#
# Mechanical properties :
#
#
# Convention : Reuss Voigt Hill
#
# Bulk Modulus (GPa) = 24.03619 66.72369 45.37994
# Shear Modulus (GPa) = 3.66129 19.21824 11.43977
#
# Velocity S-wave (km/s) = 1.46889 3.36533 2.59645
# Velocity P-wave (km/s) = 4.12814 7.37708 5.97758
#
# Compressibility (1/GPa) = 0.04160393
#
# Stress axis : x y z
#
# Youngs Moduli (GPa) = 17.23244 77.43876 80.84127
#
# Poissons Ratio (x) = 0.22332 0.94072
# Poissons Ratio (y) = 0.04970 0.51207
# Poissons Ratio (z) = 0.20053 0.49052
#
# Static dielectric constant tensor:
#      x y z
#    x 2.443260 0.000000 0.000000 
#    y 0.000000 3.356140 0.000000 
#    z 0.000000 0.000000 3.467700 
# 
# 
# High freq. dielectric constant tensor:
#      x y z
#    x 1.563610 0.000000 0.000000 
#    y 0.000000 1.665430 0.000000 
#    z 0.000000 0.000000 1.673480 
# 
# From -- ./inp_files/75691.got.cif
#   From: 2010.03.12/outbox.cif.g09.slc.cpg/sg65_38_cif.got.tgz:75691.got - 2010.04.10 20:52:16.
