data_PCOD8274537
_publ_section_title
;
Structure prediction by ZEFSAII (Michael W. Deem and Ramdas Pophale) SiO2 
 PCOD8274537
Probable space group: C M M M
;
_chemical_formula_sum "Si O2"
_cell_formula_units_Z 88
_cell_length_a 14.304449
_cell_length_b 25.999689
_cell_length_c 11.512043
_cell_angle_alpha 90.000000
_cell_angle_beta 90.000000
_cell_angle_gamma 90.000000
_cell_volume 4281.458018
_symmetry_space_group_name_H-M "C M M M"
_symmetry_group_IT_number 65
_symmetry_cell_setting 'orthorhombic'
loop_
_space_group_symop_operation_xyz
x,y,z
-x,-y,z
x,-y,-z
-x,y,-z
-x,-y,-z
x,y,-z
-x,y,z
x,-y,z
1/2+x,1/2+y,z
1/2-x,1/2-y,z
1/2+x,1/2-y,-z
1/2-x,1/2+y,-z
1/2-x,1/2-y,-z
1/2+x,1/2+y,-z
1/2-x,1/2+y,z
1/2+x,1/2-y,z
loop_
_atom_site_type_symbol
_atom_site_label
_atom_site_fract_x
_atom_site_fract_y
_atom_site_fract_z
Si Si1 0.397514 0.330398 0.368260
Si Si2 0.724506 0.413933 0.263580
Si Si3 0.608742 0.162477 0.500000
Si Si4 0.152057 0.274610 0.716842
Si Si5 0.694147 0.943898 0.500000
Si Si6 0.605666 0.134247 0.134494
Si Si7 0.608337 0.500000 0.862242
O O1 0.357104 0.330549 0.500000
O O2 0.500000 0.356470 0.366374
O O3 0.328358 0.359872 0.281703
O O4 0.412986 0.272075 0.324027
O O5 0.739519 0.440683 0.387461
O O6 0.823646 0.403254 0.201820
O O7 0.659873 0.449441 0.184323
O O8 0.500000 0.178017 0.500000
O O9 0.661881 0.184220 0.387736
O O10 0.616462 0.100693 0.500000
O O11 0.250000 0.250000 0.750925
O O12 0.111551 0.306050 0.825728
O O13 0.644738 0.000000 0.500000
O O14 0.500000 0.114411 0.157843
O O15 0.631484 0.132178 0.000000
O O16 0.500000 0.500000 0.821900
O O17 0.615678 0.500000 0.000000
#
# Coordination Sequence:
#
# PCOD8274537 Si02
#       7
#    16  16   8  16   8  16   8
#     4  11  22  36  60  98 137 172 213 266 332 407
#     4  12  23  44  68  98 132 170 219 275 343 399
#     4  12  23  38  64  95 130 176 218 265 332 399
#     4  12  22  38  62  91 132 173 220 268 329 398
#     4  12  24  40  64  97 136 167 208 270 341 401
#     4  11  25  44  65  91 128 177 230 280 331 393
#     4  11  26  49  74  98 129 179 233 276 325 391
#
# _framework density 20.553746
#
# number of rings (size 3 to 8) (size 9 to 14) (size 15 to 20)
#    0.000    0.455    6.364    3.000    0.000    0.545 
#    0.000    0.909    0.000    4.909    0.000    0.000 
#    0.000    0.000    0.000    0.000    0.000    0.000 
#
# Total GULP energy -545664.971978 kJ/mol
# GULP energy per Si atom -12401.476636 kJ/mol
# Density = 2.050696 g / cm^3
# Si number density = 20.553746 Si / 1000 Ang^3
#
#
#
# Elastic Constant Matrix: (Units=GPa)
#
#
# Indices 1 2 3 4 5 6 
#
# 1 118.7919 42.1448 59.9236 0.0000 0.0000 0.0000
# 2 42.1448 131.0560 46.7552 0.0000 0.0000 0.0000
# 3 59.9236 46.7552 123.6013 0.0000 0.0000 0.0000
# 4 0.0000 0.0000 0.0000 28.8836 0.0000 0.0000
# 5 0.0000 0.0000 0.0000 0.0000 28.1315 0.0000
# 6 0.0000 0.0000 0.0000 0.0000 0.0000 27.9009
#
#
#
# Elastic Compliance Matrix: (Units=1/GPa)
#
#
# Indices 1 2 3 4 5 6 
#
# 1 0.011575 -0.001989 -0.004859 0.000000 0.000000 0.000000
# 2 -0.001989 0.009162 -0.002502 0.000000 0.000000 0.000000
# 3 -0.004859 -0.002502 0.011393 0.000000 0.000000 0.000000
# 4 0.000000 0.000000 0.000000 0.034622 0.000000 0.000000
# 5 0.000000 0.000000 0.000000 0.000000 0.035547 0.000000
# 6 0.000000 0.000000 0.000000 0.000000 0.000000 0.035841
#
#
# Mechanical properties :
#
#
# Convention : Reuss Voigt Hill
#
# Bulk Modulus (GPa) = 74.45780 74.56627 74.51204
# Shear Modulus (GPa) = 30.99493 31.95823 31.47658
#
# Velocity S-wave (km/s) = 3.88750 3.94745 3.91759
# Velocity P-wave (km/s) = 7.51364 7.55870 7.53620
#
# Compressibility (1/GPa) = 0.01343043
#
# Stress axis : x y z
#
# Youngs Moduli (GPa) = 86.39393 109.14227 87.77467
#
# Poissons Ratio (x) = 0.21704 0.42653
# Poissons Ratio (y) = 0.17180 0.21959
# Poissons Ratio (z) = 0.41982 0.27305
#
# Static dielectric constant tensor:
#      x y z
#    x 3.699240 0.000000 0.000000 
#    y 0.000000 3.720150 0.000000 
#    z 0.000000 0.000000 3.699420 
# 
# 
# High freq. dielectric constant tensor:
#      x y z
#    x 1.815010 0.000000 0.000000 
#    y 0.000000 1.801020 0.000000 
#    z 0.000000 0.000000 1.796610 
# 
# From -- ./inp_files/25196.got.cif
#   From: 2010.03.12/outbox.cif.g09.slc.cpg/sg65_13_cif.got.tgz:25196.got - 2010.04.10 20:52:16.
