data_PCOD8274731
_publ_section_title
;
Structure prediction by ZEFSAII (Michael W. Deem and Ramdas Pophale) SiO2 
 PCOD8274731
Probable space group: C M M M
;
_chemical_formula_sum "Si O2"
_cell_formula_units_Z 56
_cell_length_a 9.972528
_cell_length_b 17.484958
_cell_length_c 16.344903
_cell_angle_alpha 90.000000
_cell_angle_beta 90.000000
_cell_angle_gamma 90.000000
_cell_volume 2850.048203
_symmetry_space_group_name_H-M "C M M M"
_symmetry_group_IT_number 65
_symmetry_cell_setting 'orthorhombic'
loop_
_space_group_symop_operation_xyz
x,y,z
-x,-y,z
x,-y,-z
-x,y,-z
-x,-y,-z
x,y,-z
-x,y,z
x,-y,z
1/2+x,1/2+y,z
1/2-x,1/2-y,z
1/2+x,1/2-y,-z
1/2-x,1/2+y,-z
1/2-x,1/2-y,-z
1/2+x,1/2+y,-z
1/2-x,1/2+y,z
1/2+x,1/2-y,z
loop_
_atom_site_type_symbol
_atom_site_label
_atom_site_fract_x
_atom_site_fract_y
_atom_site_fract_z
Si Si1 0.500000 0.332252 0.906857
Si Si2 0.157938 0.085214 0.500000
Si Si3 0.840159 0.175146 0.661371
Si Si4 0.238428 0.090222 0.824174
Si Si5 0.000000 0.661225 0.099015
O O1 0.371536 0.381954 0.887576
O O2 0.500000 0.248112 0.865737
O O3 0.500000 0.310890 0.000000
O O4 0.204473 0.131508 0.420514
O O5 0.000000 0.076481 0.500000
O O6 0.222670 0.000000 0.500000
O O7 0.750000 0.250000 0.667493
O O8 0.799941 0.120829 0.735408
O O9 0.000000 0.193799 0.663106
O O10 0.375664 0.119925 0.860383
O O11 0.241322 0.000000 0.818832
O O12 0.000000 0.653417 0.000000
#
# Coordination Sequence:
#
# PCOD8274731 Si02
#       5
#     8   8  16  16   8
#     4  11  23  41  65  90 121 162 211 261 313 379
#     4   9  19  38  65  95 130 167 210 262 313 368
#     4  11  23  40  66  95 128 169 215 260 312 378
#     4  12  25  40  63  93 127 164 210 265 318 375
#     4  11  25  45  65  90 125 168 211 259 325 389
#
# _framework density 19.648790000000002
#
# number of rings (size 3 to 8) (size 9 to 14) (size 15 to 20)
#    0.000    1.000    1.429    5.571    2.000    6.857 
#    0.000    0.000    0.000    0.857    0.000    0.000 
#    0.000    0.000    0.000    0.000    0.000    0.000 
#
# Total GULP energy -347177.887228 kJ/mol
# GULP energy per Si atom -12399.210258 kJ/mol
# Density = 1.960407 g / cm^3
# Si number density = 19.648790 Si / 1000 Ang^3
#
#
#
# Elastic Constant Matrix: (Units=GPa)
#
#
# Indices 1 2 3 4 5 6 
#
# 1 151.4322 75.7716 45.6176 0.0000 0.0000 0.0000
# 2 75.7716 202.9846 49.2291 0.0000 0.0000 0.0000
# 3 45.6176 49.2291 98.7520 0.0000 0.0000 0.0000
# 4 0.0000 0.0000 0.0000 29.0555 0.0000 0.0000
# 5 0.0000 0.0000 0.0000 0.0000 32.7980 0.0000
# 6 0.0000 0.0000 0.0000 0.0000 0.0000 13.6034
#
#
#
# Elastic Compliance Matrix: (Units=1/GPa)
#
#
# Indices 1 2 3 4 5 6 
#
# 1 0.008726 -0.002593 -0.002738 0.000000 0.000000 0.000000
# 2 -0.002593 0.006375 -0.001980 0.000000 0.000000 0.000000
# 3 -0.002738 -0.001980 0.012378 0.000000 0.000000 0.000000
# 4 0.000000 0.000000 0.000000 0.034417 0.000000 0.000000
# 5 0.000000 0.000000 0.000000 0.000000 0.030490 0.000000
# 6 0.000000 0.000000 0.000000 0.000000 0.000000 0.073511
#
#
# Mechanical properties :
#
#
# Convention : Reuss Voigt Hill
#
# Bulk Modulus (GPa) = 77.78269 88.26725 83.02497
# Shear Modulus (GPa) = 27.05561 33.92809 30.49185
#
# Velocity S-wave (km/s) = 3.71477 4.15990 3.94362
# Velocity P-wave (km/s) = 7.62048 8.25185 7.94244
#
# Compressibility (1/GPa) = 0.01285633
#
# Stress axis : x y z
#
# Youngs Moduli (GPa) = 114.59961 156.87020 80.78683
#
# Poissons Ratio (x) = 0.40680 0.22121
# Poissons Ratio (y) = 0.29719 0.15995
# Poissons Ratio (z) = 0.31379 0.31059
#
# Static dielectric constant tensor:
#      x y z
#    x 3.609100 0.000000 0.000000 
#    y 0.000000 3.798640 0.000000 
#    z 0.000000 0.000000 3.902620 
# 
# 
# High freq. dielectric constant tensor:
#      x y z
#    x 1.764520 0.000000 0.000000 
#    y 0.000000 1.784400 0.000000 
#    z 0.000000 0.000000 1.784470 
# 
# From -- ./inp_files/35509.got.cif
#   From: 2010.03.12/outbox.cif.g09.slc.cpg/sg65_18_cif.got.tgz:35509.got - 2010.04.10 20:52:16.
