data_PCOD8274680
_publ_section_title
;
Structure prediction by ZEFSAII (Michael W. Deem and Ramdas Pophale) SiO2 
 PCOD8274680
Probable space group: C M M M
;
_chemical_formula_sum "Si O2"
_cell_formula_units_Z 96
_cell_length_a 18.448443
_cell_length_b 9.248824
_cell_length_c 30.759814
_cell_angle_alpha 90.000000
_cell_angle_beta 90.000000
_cell_angle_gamma 90.000000
_cell_volume 5248.436401
_symmetry_space_group_name_H-M "C M M M"
_symmetry_group_IT_number 65
_symmetry_cell_setting 'orthorhombic'
loop_
_space_group_symop_operation_xyz
x,y,z
-x,-y,z
x,-y,-z
-x,y,-z
-x,-y,-z
x,y,-z
-x,y,z
x,-y,z
1/2+x,1/2+y,z
1/2-x,1/2-y,z
1/2+x,1/2-y,-z
1/2-x,1/2+y,-z
1/2-x,1/2-y,-z
1/2+x,1/2+y,-z
1/2-x,1/2+y,z
1/2+x,1/2-y,z
loop_
_atom_site_type_symbol
_atom_site_label
_atom_site_fract_x
_atom_site_fract_y
_atom_site_fract_z
Si Si1 0.086199 0.162458 0.547972
Si Si2 0.674581 0.170264 0.880838
Si Si3 0.416545 0.665070 0.949547
Si Si4 0.913426 0.662732 0.629531
Si Si5 0.413659 0.336773 0.287567
Si Si6 0.583515 0.832775 0.796295
O O1 0.111886 0.215103 0.500000
O O2 0.117683 0.267535 0.585082
O O3 0.000000 0.163349 0.549904
O O4 0.114305 0.000000 0.556809
O O5 0.750000 0.250000 0.875875
O O6 0.633583 0.225337 0.923439
O O7 0.627479 0.210473 0.838885
O O8 0.687247 0.000000 0.885455
O O9 0.500000 0.703410 0.940228
O O10 0.400390 0.500000 0.935529
O O11 0.398375 0.686307 0.000000
O O12 0.883851 0.500000 0.632830
O O13 0.883108 0.752637 0.670474
O O14 0.000000 0.664767 0.629451
O O15 0.500000 0.333985 0.288417
O O16 0.383871 0.500000 0.288547
O O17 0.385456 0.259508 0.243915
O O18 0.500000 0.795009 0.805662
O O19 0.592989 0.000000 0.783996
#
# Coordination Sequence:
#
# PCOD8274680 Si02
#       6
#    16  16  16  16  16  16
#     4   8  13  20  28  38  56  86 125 169 216 266
#     4  11  23  37  54  77 106 139 172 207 248 295
#     4   9  19  37  60  84 109 137 170 209 251 294
#     4   9  15  21  30  45  67  95 128 171 221 270
#     4   9  16  25  39  59  80 104 138 181 229 279
#     4   9  18  33  51  70  93 121 156 199 245 291
#
# _framework density 18.291162
#
# number of rings (size 3 to 8) (size 9 to 14) (size 15 to 20)
#    0.000    2.833    0.000    3.000    0.000    7.333 
#    0.000    4.167    0.000    0.000    0.000    0.000 
#    0.000    0.000    0.000    0.000    0.000    0.833 
#
# Total GULP energy -595133.536944 kJ/mol
# GULP energy per Si atom -12398.615353 kJ/mol
# Density = 1.824953 g / cm^3
# Si number density = 18.291162 Si / 1000 Ang^3
#
#
#
# Elastic Constant Matrix: (Units=GPa)
#
#
# Indices 1 2 3 4 5 6 
#
# 1 45.4732 38.5307 44.3131 0.0000 0.0000 0.0000
# 2 38.5307 132.3998 89.1982 0.0000 0.0000 0.0000
# 3 44.3131 89.1982 147.2327 0.0000 0.0000 0.0000
# 4 0.0000 0.0000 0.0000 40.9338 0.0000 0.0000
# 5 0.0000 0.0000 0.0000 0.0000 -0.3961 0.0000
# 6 0.0000 0.0000 0.0000 0.0000 0.0000 -15.0038
#
#
#
# Elastic Compliance Matrix: (Units=1/GPa)
#
#
# Indices 1 2 3 4 5 6 
#
# 1 0.032901 -0.004906 -0.006930 0.000000 0.000000 0.000000
# 2 -0.004906 0.013493 -0.006698 0.000000 0.000000 0.000000
# 3 -0.006930 -0.006698 0.012936 0.000000 0.000000 0.000000
# 4 0.000000 0.000000 0.000000 0.024430 0.000000 0.000000
# 5 0.000000 0.000000 0.000000 0.000000 -2.524813 0.000000
# 6 0.000000 0.000000 0.000000 0.000000 0.000000 -0.066650
#
#
# Mechanical properties :
#
#
# Convention : Reuss Voigt Hill
#
# Bulk Modulus (GPa) = 44.92016 74.35443 59.63730
# Shear Modulus (GPa) = -2.02987 15.31104 6.64059
#
# Velocity S-wave (km/s) = -1.05459 2.89636 1.90745
# Velocity P-wave (km/s) = 4.80924 7.20583 6.12588
#
# Compressibility (1/GPa) = 0.02226172
#
# Stress axis : x y z
#
# Youngs Moduli (GPa) = 30.39387 74.11233 77.30587
#
# Poissons Ratio (x) = 0.36359 0.53575
# Poissons Ratio (y) = 0.14911 0.51779
# Poissons Ratio (z) = 0.21064 0.49640
#
# Static dielectric constant tensor:
#      x y z
#    x 2.801120 0.000000 0.000000 
#    y 0.000000 3.495120 0.000000 
#    z 0.000000 0.000000 3.584940 
# 
# 
# High freq. dielectric constant tensor:
#      x y z
#    x 1.642510 0.000000 0.000000 
#    y 0.000000 1.716460 0.000000 
#    z 0.000000 0.000000 1.725950 
# 
# From -- ./inp_files/75358.got.cif
#   From: 2010.03.12/outbox.cif.g09.slc.cpg/sg65_38_cif.got.tgz:75358.got - 2010.04.10 20:52:16.
