data_PCOD8274173
_publ_section_title
;
Structure prediction by ZEFSAII (Michael W. Deem and Ramdas Pophale) SiO2 
 PCOD8274173
Probable space group: C M M M
;
_chemical_formula_sum "Si O2"
_cell_formula_units_Z 96
_cell_length_a 29.966883
_cell_length_b 33.129564
_cell_length_c 8.005642
_cell_angle_alpha 90.000000
_cell_angle_beta 90.000000
_cell_angle_gamma 90.000000
_cell_volume 7947.919466
_symmetry_space_group_name_H-M "C M M M"
_symmetry_group_IT_number 65
_symmetry_cell_setting 'orthorhombic'
loop_
_space_group_symop_operation_xyz
x,y,z
-x,-y,z
x,-y,-z
-x,y,-z
-x,-y,-z
x,y,-z
-x,y,z
x,-y,z
1/2+x,1/2+y,z
1/2-x,1/2-y,z
1/2+x,1/2-y,-z
1/2-x,1/2+y,-z
1/2-x,1/2-y,-z
1/2+x,1/2+y,-z
1/2-x,1/2+y,z
1/2+x,1/2-y,z
loop_
_atom_site_type_symbol
_atom_site_label
_atom_site_fract_x
_atom_site_fract_y
_atom_site_fract_z
Si Si1 0.395581 0.619211 0.186867
Si Si2 0.049969 0.807874 0.305538
Si Si3 0.814107 0.838804 0.317919
Si Si4 0.267589 0.685301 0.000000
Si Si5 0.132022 0.756373 0.313431
Si Si6 0.050309 0.045855 0.695667
Si Si7 0.820383 0.269021 0.000000
O O1 0.434614 0.651791 0.212649
O O2 0.352454 0.627229 0.301699
O O3 0.414760 0.574696 0.213827
O O4 0.377673 0.623351 0.000000
O O5 0.052090 0.818253 0.500000
O O6 0.081666 0.769676 0.265490
O O7 0.000000 0.796683 0.247240
O O8 0.790785 0.845066 0.500000
O O9 0.837481 0.795660 0.314632
O O10 0.778316 0.840634 0.167239
O O11 0.215147 0.694869 0.000000
O O12 0.296343 0.725946 0.000000
O O13 0.133561 0.736256 0.500000
O O14 0.149700 0.726406 0.168454
O O15 0.052434 0.054234 0.500000
O O16 0.000000 0.054182 0.760018
O O17 0.064062 0.000000 0.737313
#
# Coordination Sequence:
#
# PCOD8274173 Si02
#       7
#    16  16  16   8  16  16   8
#     4  11  19  26  37  53  69  83 105 133 164 201
#     4   9  17  27  37  49  65  86 112 137 160 190
#     4   9  16  27  39  50  67  84 101 128 155 186
#     4   9  16  26  36  54  65  79 104 122 149 189
#     4   8  15  25  35  48  65  86 107 126 154 186
#     4   9  18  31  42  50  63  85 111 135 161 197
#     4   9  16  24  37  48  68  84  97 126 152 183
#
# _framework density 12.078633
#
# number of rings (size 3 to 8) (size 9 to 14) (size 15 to 20)
#    0.000    2.833    0.833    3.500    3.500    3.667 
#    0.000    4.167    0.000    0.000    0.000    0.000 
#    0.000    0.000    0.000    0.000    0.000    0.000 
#
# Total GULP energy -594898.478159 kJ/mol
# GULP energy per Si atom -12393.718295 kJ/mol
# Density = 1.205114 g / cm^3
# Si number density = 12.078633 Si / 1000 Ang^3
#
#
#
# Elastic Constant Matrix: (Units=GPa)
#
#
# Indices 1 2 3 4 5 6 
#
# 1 57.5094 28.7097 37.6640 0.0000 0.0000 0.0000
# 2 28.7097 25.3444 22.7154 0.0000 0.0000 0.0000
# 3 37.6640 22.7154 87.9165 0.0000 0.0000 0.0000
# 4 0.0000 0.0000 0.0000 12.0819 0.0000 0.0000
# 5 0.0000 0.0000 0.0000 0.0000 16.7761 0.0000
# 6 0.0000 0.0000 0.0000 0.0000 0.0000 16.3178
#
#
#
# Elastic Compliance Matrix: (Units=1/GPa)
#
#
# Indices 1 2 3 4 5 6 
#
# 1 0.043706 -0.042591 -0.007720 0.000000 0.000000 0.000000
# 2 -0.042591 0.092851 -0.005744 0.000000 0.000000 0.000000
# 3 -0.007720 -0.005744 0.016166 0.000000 0.000000 0.000000
# 4 0.000000 0.000000 0.000000 0.082769 0.000000 0.000000
# 5 0.000000 0.000000 0.000000 0.000000 0.059609 0.000000
# 6 0.000000 0.000000 0.000000 0.000000 0.000000 0.061283
#
#
# Mechanical properties :
#
#
# Convention : Reuss Voigt Hill
#
# Bulk Modulus (GPa) = 24.62227 38.77205 31.69716
# Shear Modulus (GPa) = 10.37279 14.48057 12.42668
#
# Velocity S-wave (km/s) = 2.93366 3.46621 3.21099
# Velocity P-wave (km/s) = 5.64840 6.94182 6.32824
#
# Compressibility (1/GPa) = 0.04061364
#
# Stress axis : x y z
#
# Youngs Moduli (GPa) = 22.87997 10.76995 61.85936
#
# Poissons Ratio (x) = 0.45870 0.47753
# Poissons Ratio (y) = 0.97448 0.35532
# Poissons Ratio (z) = 0.17663 0.06186
#
# Static dielectric constant tensor:
#      x y z
#    x 2.458940 0.000000 0.000000 
#    y 0.000000 2.122390 0.000000 
#    z 0.000000 0.000000 2.752470 
# 
# 
# High freq. dielectric constant tensor:
#      x y z
#    x 1.433510 0.000000 0.000000 
#    y 0.000000 1.395540 0.000000 
#    z 0.000000 0.000000 1.477780 
# 
# From -- ./inp_files/19177.got.cif
#   From: 2010.03.12/outbox.cif.g09.slc.cpg/sg65_10_cif.got.tgz:19177.got - 2010.04.10 20:52:16.
