data_PCOD8274858
_publ_section_title
;
Structure prediction by ZEFSAII (Michael W. Deem and Ramdas Pophale) SiO2 
 PCOD8274858
Probable space group: C M M M
;
_chemical_formula_sum "Si O2"
_cell_formula_units_Z 48
_cell_length_a 34.561713
_cell_length_b 9.185532
_cell_length_c 7.417069
_cell_angle_alpha 90.000000
_cell_angle_beta 90.000000
_cell_angle_gamma 90.000000
_cell_volume 2354.679990
_symmetry_space_group_name_H-M "C M M M"
_symmetry_group_IT_number 65
_symmetry_cell_setting 'orthorhombic'
loop_
_space_group_symop_operation_xyz
x,y,z
-x,-y,z
x,-y,-z
-x,y,-z
-x,-y,-z
x,y,-z
-x,y,z
x,-y,z
1/2+x,1/2+y,z
1/2-x,1/2-y,z
1/2+x,1/2-y,-z
1/2-x,1/2+y,-z
1/2-x,1/2-y,-z
1/2+x,1/2+y,-z
1/2-x,1/2+y,z
1/2+x,1/2-y,z
loop_
_atom_site_type_symbol
_atom_site_label
_atom_site_fract_x
_atom_site_fract_y
_atom_site_fract_z
Si Si1 0.072073 0.660444 0.213505
Si Si2 0.841317 0.670100 0.210217
Si Si3 0.000000 0.838148 0.215354
Si Si4 0.791183 0.825768 0.500000
O O1 0.065298 0.500000 0.294144
O O2 0.114938 0.715284 0.265756
O O3 0.038723 0.763311 0.293542
O O4 0.068906 0.653377 0.000000
O O5 0.834202 0.500000 0.255788
O O6 0.813084 0.773565 0.320913
O O7 0.833689 0.699157 0.000000
O O8 0.000000 0.000000 0.291387
O O9 0.000000 0.834113 0.000000
O O10 0.750000 0.750000 0.500000
O O11 0.787201 0.000000 0.500000
#
# Coordination Sequence:
#
# PCOD8274858 Si02
#       4
#    16  16   8   8
#     4   8  14  26  46  72 103 142 185 226 271 324
#     4   9  19  38  63  88 115 149 190 236 284 336
#     4   9  15  21  35  66 107 146 184 227 269 314
#     4  12  26  42  62  87 116 149 184 228 283 344
#
# _framework density 20.384934999999999
#
# number of rings (size 3 to 8) (size 9 to 14) (size 15 to 20)
#    0.000    2.833    0.000    4.000    0.000    4.667 
#    0.000    3.333    0.000    1.000    0.000    7.000 
#    0.000    0.000    0.000    0.000    0.000    0.000 
#
# Total GULP energy -297482.886827 kJ/mol
# GULP energy per Si atom -12395.120284 kJ/mol
# Density = 2.033854 g / cm^3
# Si number density = 20.384935 Si / 1000 Ang^3
#
#
#
# Elastic Constant Matrix: (Units=GPa)
#
#
# Indices 1 2 3 4 5 6 
#
# 1 189.7781 110.4552 47.4080 0.0000 0.0000 0.0000
# 2 110.4552 157.6621 44.4018 0.0000 0.0000 0.0000
# 3 47.4080 44.4018 69.7585 0.0000 0.0000 0.0000
# 4 0.0000 0.0000 0.0000 20.3956 0.0000 0.0000
# 5 0.0000 0.0000 0.0000 0.0000 99.0861 0.0000
# 6 0.0000 0.0000 0.0000 0.0000 0.0000 37.6232
#
#
#
# Elastic Compliance Matrix: (Units=1/GPa)
#
#
# Indices 1 2 3 4 5 6 
#
# 1 0.009280 -0.005758 -0.002642 0.000000 0.000000 0.000000
# 2 -0.005758 0.011300 -0.003280 0.000000 0.000000 0.000000
# 3 -0.002642 -0.003280 0.018218 0.000000 0.000000 0.000000
# 4 0.000000 0.000000 0.000000 0.049030 0.000000 0.000000
# 5 0.000000 0.000000 0.000000 0.000000 0.010092 0.000000
# 6 0.000000 0.000000 0.000000 0.000000 0.000000 0.026579
#
#
# Mechanical properties :
#
#
# Convention : Reuss Voigt Hill
#
# Bulk Modulus (GPa) = 64.76767 91.30318 78.03542
# Shear Modulus (GPa) = 32.67848 45.74991 39.21419
#
# Velocity S-wave (km/s) = 4.00818 4.74254 4.39074
# Velocity P-wave (km/s) = 7.29808 8.65308 8.00430
#
# Compressibility (1/GPa) = 0.01543980
#
# Stress axis : x y z
#
# Youngs Moduli (GPa) = 107.75408 88.49598 54.88967
#
# Poissons Ratio (x) = 0.50952 0.14503
# Poissons Ratio (y) = 0.62040 0.18002
# Poissons Ratio (z) = 0.28471 0.29024
#
# Static dielectric constant tensor:
#      x y z
#    x 3.939030 0.000000 0.000000 
#    y 0.000000 3.774800 0.000000 
#    z 0.000000 0.000000 3.353780 
# 
# 
# High freq. dielectric constant tensor:
#      x y z
#    x 1.803810 0.000000 0.000000 
#    y 0.000000 1.783370 0.000000 
#    z 0.000000 0.000000 1.781850 
# 
# From -- ./inp_files/3113.got.cif
#   From: 2010.03.12/outbox.cif.g09.slc.cpg/sg65_2_cif.got.tgz:3113.got - 2010.04.10 20:52:16.
