data_PCOD8274344
_publ_section_title
;
Structure prediction by ZEFSAII (Michael W. Deem and Ramdas Pophale) SiO2 
 PCOD8274344
Probable space group: C M M M
;
_chemical_formula_sum "Si O2"
_cell_formula_units_Z 72
_cell_length_a 8.574202
_cell_length_b 18.081914
_cell_length_c 23.460279
_cell_angle_alpha 90.000000
_cell_angle_beta 90.000000
_cell_angle_gamma 90.000000
_cell_volume 3637.234341
_symmetry_space_group_name_H-M "C M M M"
_symmetry_group_IT_number 65
_symmetry_cell_setting 'orthorhombic'
loop_
_space_group_symop_operation_xyz
x,y,z
-x,-y,z
x,-y,-z
-x,y,-z
-x,-y,-z
x,y,-z
-x,y,z
x,-y,z
1/2+x,1/2+y,z
1/2-x,1/2-y,z
1/2+x,1/2-y,-z
1/2-x,1/2+y,-z
1/2-x,1/2-y,-z
1/2+x,1/2+y,-z
1/2-x,1/2+y,z
1/2+x,1/2-y,z
loop_
_atom_site_type_symbol
_atom_site_label
_atom_site_fract_x
_atom_site_fract_y
_atom_site_fract_z
Si Si1 0.317647 0.831139 0.561689
Si Si2 0.186057 0.083314 0.000000
Si Si3 0.182984 0.168725 0.889813
Si Si4 0.319016 0.913596 0.783404
Si Si5 0.816150 0.167216 0.323561
O O1 0.290903 0.871711 0.500000
O O2 0.500000 0.827114 0.576400
O O3 0.250000 0.750000 0.555791
O O4 0.228516 0.869122 0.614832
O O5 0.251755 0.124971 0.944221
O O6 0.000000 0.081925 0.000000
O O7 0.252437 0.000000 0.000000
O O8 0.250000 0.250000 0.887692
O O9 0.223158 0.125769 0.832662
O O10 0.000000 0.175102 0.895570
O O11 0.500000 0.895143 0.791389
O O12 0.262201 0.884419 0.722945
O O13 0.284279 0.000000 0.786645
O O14 0.750000 0.250000 0.318513
O O15 0.000000 0.168467 0.314762
#
# Coordination Sequence:
#
# PCOD8274344 Si02
#       5
#    16   8  16  16  16
#     4   9  16  27  46  74 108 143 180 224 274 326
#     4   9  19  36  59  87 118 153 190 229 274 324
#     4  11  22  38  61  87 117 150 188 231 275 327
#     4  11  24  41  59  80 109 144 184 231 283 337
#     4  11  21  34  55  81 111 145 184 229 276 330
#
# _framework density 19.795261
#
# number of rings (size 3 to 8) (size 9 to 14) (size 15 to 20)
#    0.000    1.667    0.000    7.000    0.000    4.000 
#    0.000    1.667    0.000    4.667    0.000    4.667 
#    0.000    0.000    0.000    0.000    0.000    0.000 
#
# Total GULP energy -446323.219086 kJ/mol
# GULP energy per Si atom -12397.867197 kJ/mol
# Density = 1.975021 g / cm^3
# Si number density = 19.795261 Si / 1000 Ang^3
#
#
#
# Elastic Constant Matrix: (Units=GPa)
#
#
# Indices 1 2 3 4 5 6 
#
# 1 38.8090 36.1830 3.0644 0.0000 0.0000 0.0000
# 2 36.1830 84.9489 53.7677 0.0000 0.0000 0.0000
# 3 3.0644 53.7677 152.1661 0.0000 0.0000 0.0000
# 4 0.0000 0.0000 0.0000 0.1168 0.0000 0.0000
# 5 0.0000 0.0000 0.0000 0.0000 34.9821 0.0000
# 6 0.0000 0.0000 0.0000 0.0000 0.0000 -2.1769
#
#
#
# Elastic Compliance Matrix: (Units=1/GPa)
#
#
# Indices 1 2 3 4 5 6 
#
# 1 0.049835 -0.026523 0.008368 0.000000 0.000000 0.000000
# 2 -0.026523 0.029279 -0.009812 0.000000 0.000000 0.000000
# 3 0.008368 -0.009812 0.009870 0.000000 0.000000 0.000000
# 4 0.000000 0.000000 0.000000 8.563767 0.000000 0.000000
# 5 0.000000 0.000000 0.000000 0.000000 0.028586 0.000000
# 6 0.000000 0.000000 0.000000 0.000000 0.000000 -0.459359
#
#
# Mechanical properties :
#
#
# Convention : Reuss Voigt Hill
#
# Bulk Modulus (GPa) = 30.25596 51.32823 40.79209
# Shear Modulus (GPa) = 0.60321 18.77831 9.69076
#
# Velocity S-wave (km/s) = 0.55262 3.08332 2.21498
# Velocity P-wave (km/s) = 3.96545 6.21785 5.21471
#
# Compressibility (1/GPa) = 0.03305134
#
# Stress axis : x y z
#
# Youngs Moduli (GPa) = 20.06613 34.15377 101.31525
#
# Poissons Ratio (x) = 0.90588 -0.84785
# Poissons Ratio (y) = 0.53222 0.99407
# Poissons Ratio (z) = -0.16792 0.33511
#
# Static dielectric constant tensor:
#      x y z
#    x 5.720360 0.000000 0.000000 
#    y 0.000000 3.409940 0.000000 
#    z 0.000000 0.000000 4.404390 
# 
# 
# High freq. dielectric constant tensor:
#      x y z
#    x 1.776410 0.000000 0.000000 
#    y 0.000000 1.742320 0.000000 
#    z 0.000000 0.000000 1.802150 
# 
# From -- ./inp_files/67117.got.cif
#   From: 2010.03.12/outbox.cif.g09.slc.cpg/sg65_34_cif.got.tgz:67117.got - 2010.04.10 20:52:16.
