data_PCOD8274596
_publ_section_title
;
Structure prediction by ZEFSAII (Michael W. Deem and Ramdas Pophale) SiO2 
 PCOD8274596
Probable space group: C M M M
;
_chemical_formula_sum "Si O2"
_cell_formula_units_Z 88
_cell_length_a 19.126267
_cell_length_b 19.954255
_cell_length_c 11.316375
_cell_angle_alpha 90.000000
_cell_angle_beta 90.000000
_cell_angle_gamma 90.000000
_cell_volume 4318.899146
_symmetry_space_group_name_H-M "C M M M"
_symmetry_group_IT_number 65
_symmetry_cell_setting 'orthorhombic'
loop_
_space_group_symop_operation_xyz
x,y,z
-x,-y,z
x,-y,-z
-x,y,-z
-x,-y,-z
x,y,-z
-x,y,z
x,-y,z
1/2+x,1/2+y,z
1/2-x,1/2-y,z
1/2+x,1/2-y,-z
1/2-x,1/2+y,-z
1/2-x,1/2-y,-z
1/2+x,1/2+y,-z
1/2-x,1/2+y,z
1/2+x,1/2-y,z
loop_
_atom_site_type_symbol
_atom_site_label
_atom_site_fract_x
_atom_site_fract_y
_atom_site_fract_z
Si Si1 0.143180 0.312494 0.000000
Si Si2 0.858848 0.117750 0.765396
Si Si3 0.118203 0.500000 0.640082
Si Si4 0.329546 0.748810 0.361995
Si Si5 0.418801 0.860096 0.753791
Si Si6 0.282932 0.500000 0.635339
Si Si7 0.192905 0.169734 0.000000
Si Si8 0.000000 0.923511 0.129344
O O1 0.109150 0.348704 0.113112
O O2 0.135634 0.231227 0.000000
O O3 0.226206 0.313567 0.000000
O O4 0.868526 0.188309 0.700850
O O5 0.818671 0.123419 0.887795
O O6 0.935712 0.092255 0.787520
O O7 0.814478 0.067155 0.687834
O O8 0.097318 0.500000 0.500000
O O9 0.086898 0.563808 0.708828
O O10 0.200726 0.500000 0.655841
O O11 0.328924 0.736191 0.500000
O O12 0.250000 0.750000 0.312643
O O13 0.371044 0.816601 0.334211
O O14 0.500000 0.837976 0.748414
O O15 0.303273 0.500000 0.500000
O O16 0.000000 0.000000 0.097000
O O17 0.000000 0.885711 0.000000
#
# Coordination Sequence:
#
# PCOD8274596 Si02
#       8
#     8  16   8  16  16   8   8   8
#     4  11  23  43  65  99 136 168 211 277 340 388
#     4  12  23  41  67  98 132 173 222 272 332 394
#     4  11  25  47  72  97 132 174 223 275 327 394
#     4  11  24  43  67  96 132 174 223 276 327 387
#     4  12  26  44  68  98 136 174 219 271 334 401
#     4  11  24  43  68  99 133 174 223 277 330 386
#     4  11  22  38  70  98 129 170 221 275 326 397
#     4  11  24  44  60  92 136 175 216 267 331 399
#
# _framework density 20.375561999999999
#
# number of rings (size 3 to 8) (size 9 to 14) (size 15 to 20)
#    0.000    0.636    3.636    4.909    1.273    5.455 
#    1.636    4.545    0.000    0.000    0.000    0.000 
#    0.000    0.000    0.000    0.000    0.000    0.000 
#
# Total GULP energy -545611.484548 kJ/mol
# GULP energy per Si atom -12400.261012 kJ/mol
# Density = 2.032919 g / cm^3
# Si number density = 20.375562 Si / 1000 Ang^3
#
#
#
# Elastic Constant Matrix: (Units=GPa)
#
#
# Indices 1 2 3 4 5 6 
#
# 1 125.7351 41.7798 52.5747 0.0000 0.0000 0.0000
# 2 41.7798 108.3619 40.3897 0.0000 0.0000 0.0000
# 3 52.5747 40.3897 126.6938 0.0000 0.0000 0.0000
# 4 0.0000 0.0000 0.0000 45.5501 0.0000 0.0000
# 5 0.0000 0.0000 0.0000 0.0000 9.4994 0.0000
# 6 0.0000 0.0000 0.0000 0.0000 0.0000 30.7819
#
#
#
# Elastic Compliance Matrix: (Units=1/GPa)
#
#
# Indices 1 2 3 4 5 6 
#
# 1 0.010271 -0.002691 -0.003404 0.000000 0.000000 0.000000
# 2 -0.002691 0.011178 -0.002447 0.000000 0.000000 0.000000
# 3 -0.003404 -0.002447 0.010086 0.000000 0.000000 0.000000
# 4 0.000000 0.000000 0.000000 0.021954 0.000000 0.000000
# 5 0.000000 0.000000 0.000000 0.000000 0.105270 0.000000
# 6 0.000000 0.000000 0.000000 0.000000 0.000000 0.032487
#
#
# Mechanical properties :
#
#
# Convention : Reuss Voigt Hill
#
# Bulk Modulus (GPa) = 69.20275 70.03101 69.61688
# Shear Modulus (GPa) = 23.45814 32.23605 27.84709
#
# Velocity S-wave (km/s) = 3.39674 3.98187 3.70089
# Velocity P-wave (km/s) = 7.03002 7.45554 7.24590
#
# Compressibility (1/GPa) = 0.01445029
#
# Stress axis : x y z
#
# Youngs Moduli (GPa) = 97.36249 89.46216 99.15004
#
# Poissons Ratio (x) = 0.24076 0.33753
# Poissons Ratio (y) = 0.26202 0.24259
# Poissons Ratio (z) = 0.33144 0.21889
#
# Static dielectric constant tensor:
#      x y z
#    x 3.786530 0.000000 0.000000 
#    y 0.000000 3.917380 0.000000 
#    z 0.000000 0.000000 3.732980 
# 
# 
# High freq. dielectric constant tensor:
#      x y z
#    x 1.805190 0.000000 0.000000 
#    y 0.000000 1.802800 0.000000 
#    z 0.000000 0.000000 1.813050 
# 
# From -- ./inp_files/26897.got.cif
#   From: 2010.03.12/outbox.cif.g09.slc.cpg/sg65_14_cif.got.tgz:26897.got - 2010.04.10 20:52:16.
