data_PCOD8274740
_publ_section_title
;
Structure prediction by ZEFSAII (Michael W. Deem and Ramdas Pophale) SiO2 
 PCOD8274740
Probable space group: C M M M
;
_chemical_formula_sum "Si O2"
_cell_formula_units_Z 104
_cell_length_a 21.135518
_cell_length_b 8.763683
_cell_length_c 30.602015
_cell_angle_alpha 90.000000
_cell_angle_beta 90.000000
_cell_angle_gamma 90.000000
_cell_volume 5668.257610
_symmetry_space_group_name_H-M "C M M M"
_symmetry_group_IT_number 65
_symmetry_cell_setting 'orthorhombic'
loop_
_space_group_symop_operation_xyz
x,y,z
-x,-y,z
x,-y,-z
-x,y,-z
-x,-y,-z
x,y,-z
-x,y,z
x,-y,z
1/2+x,1/2+y,z
1/2-x,1/2-y,z
1/2+x,1/2-y,-z
1/2-x,1/2+y,-z
1/2-x,1/2-y,-z
1/2+x,1/2+y,-z
1/2-x,1/2+y,z
1/2+x,1/2-y,z
loop_
_atom_site_type_symbol
_atom_site_label
_atom_site_fract_x
_atom_site_fract_y
_atom_site_fract_z
Si Si1 0.424589 0.171443 0.000000
Si Si2 0.682198 0.317724 0.670738
Si Si3 0.575507 0.671399 0.912584
Si Si4 0.623870 0.817640 0.585009
Si Si5 0.074925 0.669703 0.173988
Si Si6 0.817237 0.817842 0.500000
Si Si7 0.571651 0.680096 0.263773
Si Si8 0.500000 0.317757 0.552087
O O1 0.397781 0.251778 0.043424
O O2 0.500000 0.177743 0.000000
O O3 0.399352 0.000000 0.000000
O O4 0.687196 0.500000 0.668919
O O5 0.750000 0.250000 0.686406
O O6 0.665811 0.250320 0.623729
O O7 0.624592 0.262751 0.702055
O O8 0.500000 0.676986 0.912390
O O9 0.600790 0.500000 0.911443
O O10 0.603354 0.755447 0.869874
O O11 0.650688 0.751840 0.541231
O O12 0.553973 0.751621 0.582762
O O13 0.625206 0.000000 0.587063
O O14 0.102793 0.500000 0.178438
O O15 0.094913 0.764580 0.216456
O O16 0.000000 0.665893 0.169843
O O17 0.750000 0.750000 0.500000
O O18 0.821092 0.000000 0.500000
O O19 0.500000 0.742205 0.274902
O O20 0.569273 0.500000 0.263057
O O21 0.500000 0.500000 0.553895
O O22 0.500000 0.267322 0.500000
#
# Coordination Sequence:
#
# PCOD8274740 Si02
#       8
#     8  16  16  16  16   8  16   8
#     4   9  15  21  29  45  73 111 158 209 258 309
#     4  11  24  42  63  86 116 151 187 229 279 334
#     4   9  15  22  33  50  77 116 161 207 254 312
#     4  12  25  41  62  89 118 148 185 228 271 322
#     4   9  16  26  42  65  92 123 161 212 266 316
#     4  12  24  41  62  85 112 148 186 226 270 322
#     4   9  19  36  57  80 104 138 180 223 272 328
#     4  11  23  41  65  91 120 154 186 222 270 321
#
# _framework density 18.347788999999999
#
# number of rings (size 3 to 8) (size 9 to 14) (size 15 to 20)
#    0.000    1.846    0.769    4.385    1.077    6.154 
#    0.000    0.000    0.000    0.000    0.000    0.000 
#    0.000    0.000    0.000    0.692    0.000   10.154 
#
# Total GULP energy -644431.215241 kJ/mol
# GULP energy per Si atom -12392.907985 kJ/mol
# Density = 1.830603 g / cm^3
# Si number density = 18.347789 Si / 1000 Ang^3
#
#
#
# Elastic Constant Matrix: (Units=GPa)
#
#
# Indices 1 2 3 4 5 6 
#
# 1 87.6403 34.7925 43.9008 0.0000 0.0000 0.0000
# 2 34.7925 79.1043 37.6781 0.0000 0.0000 0.0000
# 3 43.9008 37.6781 134.2782 0.0000 0.0000 0.0000
# 4 0.0000 0.0000 0.0000 41.2884 0.0000 0.0000
# 5 0.0000 0.0000 0.0000 0.0000 -7.3843 0.0000
# 6 0.0000 0.0000 0.0000 0.0000 0.0000 22.7579
#
#
#
# Elastic Compliance Matrix: (Units=1/GPa)
#
#
# Indices 1 2 3 4 5 6 
#
# 1 0.015170 -0.004975 -0.003564 0.000000 0.000000 0.000000
# 2 -0.004975 0.016223 -0.002926 0.000000 0.000000 0.000000
# 3 -0.003564 -0.002926 0.009433 0.000000 0.000000 0.000000
# 4 0.000000 0.000000 0.000000 0.024220 0.000000 0.000000
# 5 0.000000 0.000000 0.000000 0.000000 -0.135422 0.000000
# 6 0.000000 0.000000 0.000000 0.000000 0.000000 0.043941
#
#
# Mechanical properties :
#
#
# Convention : Reuss Voigt Hill
#
# Bulk Modulus (GPa) = 55.87206 59.30728 57.58967
# Shear Modulus (GPa) = 2031.82399 23.64251 1027.73325
#
# Velocity S-wave (km/s) = 33.31364 3.59357 23.69295
# Velocity P-wave (km/s) = 38.86192 7.04361 27.92724
#
# Compressibility (1/GPa) = 0.01789803
#
# Stress axis : x y z
#
# Youngs Moduli (GPa) = 65.91745 61.64018 106.00703
#
# Poissons Ratio (x) = 0.30666 0.37780
# Poissons Ratio (y) = 0.32793 0.31014
# Poissons Ratio (z) = 0.23492 0.18034
#
# Static dielectric constant tensor:
#      x y z
#    x 3.428740 0.000000 0.000000 
#    y 0.000000 3.569750 0.000000 
#    z 0.000000 0.000000 3.587200 
# 
# 
# High freq. dielectric constant tensor:
#      x y z
#    x 1.665260 0.000000 0.000000 
#    y 0.000000 1.725550 0.000000 
#    z 0.000000 0.000000 1.722300 
# 
# From -- ./inp_files/78305.got.cif
#   From: 2010.03.12/outbox.cif.g09.slc.cpg/sg65_40_cif.got.tgz:78305.got - 2010.04.10 20:52:16.
