data_PCOD8274520
_publ_section_title
;
Structure prediction by ZEFSAII (Michael W. Deem and Ramdas Pophale) SiO2 
 PCOD8274520
Probable space group: C M M M
;
_chemical_formula_sum "Si O2"
_cell_formula_units_Z 80
_cell_length_a 8.766058
_cell_length_b 18.281696
_cell_length_c 25.678599
_cell_angle_alpha 90.000000
_cell_angle_beta 90.000000
_cell_angle_gamma 90.000000
_cell_volume 4115.211382
_symmetry_space_group_name_H-M "C M M M"
_symmetry_group_IT_number 65
_symmetry_cell_setting 'orthorhombic'
loop_
_space_group_symop_operation_xyz
x,y,z
-x,-y,z
x,-y,-z
-x,y,-z
-x,-y,-z
x,y,-z
-x,y,z
x,-y,z
1/2+x,1/2+y,z
1/2-x,1/2-y,z
1/2+x,1/2-y,-z
1/2-x,1/2+y,-z
1/2-x,1/2-y,-z
1/2+x,1/2+y,-z
1/2-x,1/2+y,z
1/2+x,1/2-y,z
loop_
_atom_site_type_symbol
_atom_site_label
_atom_site_fract_x
_atom_site_fract_y
_atom_site_fract_z
Si Si1 0.675960 0.586483 0.000000
Si Si2 0.181699 0.917887 0.500000
Si Si3 0.324155 0.914425 0.308748
Si Si4 0.318680 0.170671 0.905451
Si Si5 0.820764 0.829273 0.599256
Si Si6 0.819141 0.580890 0.807670
O O1 0.759589 0.616596 0.050599
O O2 0.692700 0.500000 0.000000
O O3 0.500000 0.611381 0.000000
O O4 0.243836 0.876757 0.448830
O O5 0.000000 0.919999 0.500000
O O6 0.248382 0.000000 0.500000
O O7 0.500000 0.892546 0.317288
O O8 0.219595 0.868296 0.346960
O O9 0.269578 0.894339 0.250200
O O10 0.299826 0.000000 0.319347
O O11 0.500000 0.175269 0.908186
O O12 0.250000 0.250000 0.914520
O O13 0.260028 0.139147 0.850000
O O14 0.750000 0.750000 0.596509
O O15 0.000000 0.821051 0.595142
O O16 0.751878 0.500000 0.820140
O O17 0.000000 0.575434 0.809501
#
# Coordination Sequence:
#
# PCOD8274520 Si02
#       6
#     8   8  16  16  16  16
#     4  11  24  41  60  83 111 141 178 227 278 325
#     4   9  19  36  57  79 104 137 178 225 274 324
#     4   9  18  35  58  83 112 144 180 224 272 322
#     4  11  22  37  58  83 113 147 184 223 267 322
#     4  11  22  36  55  79 110 145 182 224 271 324
#     4   8  16  33  57  82 108 142 183 225 269 319
#
# _framework density 19.440069999999999
#
# number of rings (size 3 to 8) (size 9 to 14) (size 15 to 20)
#    0.000    2.200    0.000    4.500    0.000    3.600 
#    0.000    5.500    0.000    6.000    0.000    0.000 
#    0.000    0.000    0.000    0.000    0.000    0.000 
#
# Total GULP energy -496034.669057 kJ/mol
# GULP energy per Si atom -12400.866726 kJ/mol
# Density = 1.939582 g / cm^3
# Si number density = 19.440070 Si / 1000 Ang^3
#
#
#
# Elastic Constant Matrix: (Units=GPa)
#
#
# Indices 1 2 3 4 5 6 
#
# 1 62.4830 37.9911 39.4772 0.0000 0.0000 0.0000
# 2 37.9911 114.2254 76.0587 0.0000 0.0000 0.0000
# 3 39.4772 76.0587 155.9592 0.0000 0.0000 0.0000
# 4 0.0000 0.0000 0.0000 21.8798 0.0000 0.0000
# 5 0.0000 0.0000 0.0000 0.0000 -14.6189 0.0000
# 6 0.0000 0.0000 0.0000 0.0000 0.0000 -14.2789
#
#
#
# Elastic Compliance Matrix: (Units=1/GPa)
#
#
# Indices 1 2 3 4 5 6 
#
# 1 0.020860 -0.005068 -0.002809 0.000000 0.000000 0.000000
# 2 -0.005068 0.014196 -0.005640 0.000000 0.000000 0.000000
# 3 -0.002809 -0.005640 0.009874 0.000000 0.000000 0.000000
# 4 0.000000 0.000000 0.000000 0.045704 0.000000 0.000000
# 5 0.000000 0.000000 0.000000 0.000000 -0.068405 0.000000
# 6 0.000000 0.000000 0.000000 0.000000 0.000000 -0.070034
#
#
# Mechanical properties :
#
#
# Convention : Reuss Voigt Hill
#
# Bulk Modulus (GPa) = 55.87852 71.08018 63.47935
# Shear Modulus (GPa) = -337.72064 10.53911 -163.59077
#
# Velocity S-wave (km/s) = -13.19474 2.33090 -9.18336
# Velocity P-wave (km/s) = 14.25933 6.62475 8.92864
#
# Compressibility (1/GPa) = 0.01789596
#
# Stress axis : x y z
#
# Youngs Moduli (GPa) = 47.93787 70.44320 101.28039
#
# Poissons Ratio (x) = 0.35699 0.28447
# Poissons Ratio (y) = 0.24294 0.57125
# Poissons Ratio (z) = 0.13465 0.39732
#
# Static dielectric constant tensor:
#      x y z
#    x 3.301840 0.000000 0.000000 
#    y 0.000000 3.639500 0.000000 
#    z 0.000000 0.000000 3.896170 
# 
# 
# High freq. dielectric constant tensor:
#      x y z
#    x 1.732340 0.000000 0.000000 
#    y 0.000000 1.763830 0.000000 
#    z 0.000000 0.000000 1.774710 
# 
# From -- ./inp_files/67373.got.cif
#   From: 2010.03.12/outbox.cif.g09.slc.cpg/sg65_34_cif.got.tgz:67373.got - 2010.04.10 20:52:16.
