data_PCOD8274144
_publ_section_title
;
Structure prediction by ZEFSAII (Michael W. Deem and Ramdas Pophale) SiO2 
 PCOD8274144
Probable space group: C M M M
;
_chemical_formula_sum "Si O2"
_cell_formula_units_Z 88
_cell_length_a 8.638180
_cell_length_b 23.196670
_cell_length_c 22.696866
_cell_angle_alpha 90.000000
_cell_angle_beta 90.000000
_cell_angle_gamma 90.000000
_cell_volume 4547.930165
_symmetry_space_group_name_H-M "C M M M"
_symmetry_group_IT_number 65
_symmetry_cell_setting 'orthorhombic'
loop_
_space_group_symop_operation_xyz
x,y,z
-x,-y,z
x,-y,-z
-x,y,-z
-x,-y,-z
x,y,-z
-x,y,z
x,-y,z
1/2+x,1/2+y,z
1/2-x,1/2-y,z
1/2+x,1/2-y,-z
1/2-x,1/2+y,-z
1/2-x,1/2-y,-z
1/2+x,1/2+y,-z
1/2-x,1/2+y,z
1/2+x,1/2-y,z
loop_
_atom_site_type_symbol
_atom_site_label
_atom_site_fract_x
_atom_site_fract_y
_atom_site_fract_z
Si Si1 0.317778 0.882740 0.824800
Si Si2 0.317252 0.688272 0.721528
Si Si3 0.318085 0.189587 0.065736
Si Si4 0.684694 0.500000 0.357292
Si Si5 0.682506 0.500000 0.221316
Si Si6 0.183707 0.618763 0.615438
Si Si7 0.817990 0.686811 0.500000
O O1 0.500000 0.888725 0.816234
O O2 0.255562 0.833240 0.782068
O O3 0.271516 0.862457 0.890643
O O4 0.242116 0.944122 0.812650
O O5 0.500000 0.691816 0.728310
O O6 0.250000 0.750000 0.704151
O O7 0.273926 0.643836 0.670888
O O8 0.500000 0.197526 0.065388
O O9 0.250000 0.250000 0.088525
O O10 0.255948 0.174723 0.000000
O O11 0.500000 0.500000 0.363102
O O12 0.738952 0.500000 0.288968
O O13 0.759713 0.553569 0.391272
O O14 0.500000 0.500000 0.219300
O O15 0.238406 0.652808 0.557577
O O16 0.000000 0.622339 0.625339
O O17 0.750000 0.750000 0.500000
O O18 0.000000 0.692299 0.500000
#
# Coordination Sequence:
#
# PCOD8274144 Si02
#       7
#    16  16  16   8   8  16   8
#     4  11  22  37  60  87 115 154 198 242 297 352
#     4  12  24  38  57  86 120 153 194 244 295 350
#     4   9  19  36  58  86 119 154 194 240 290 348
#     4  11  23  40  62  90 120 157 198 244 296 349
#     4  11  23  39  59  85 120 156 196 245 296 351
#     4  11  23  41  64  89 119 156 197 243 293 351
#     4  10  24  43  64  91 121 156 196 240 295 350
#
# _framework density 19.349460000000001
#
# number of rings (size 3 to 8) (size 9 to 14) (size 15 to 20)
#    0.000    1.273    1.818    4.364    0.000    6.909 
#    0.000    2.273    0.000    2.727    0.000    0.000 
#    0.000    0.000    0.000    0.000    0.000    0.000 
#
# Total GULP energy -545787.284432 kJ/mol
# GULP energy per Si atom -12404.256464 kJ/mol
# Density = 1.930542 g / cm^3
# Si number density = 19.349460 Si / 1000 Ang^3
#
#
#
# Elastic Constant Matrix: (Units=GPa)
#
#
# Indices 1 2 3 4 5 6 
#
# 1 49.5795 28.0134 37.6384 0.0000 0.0000 0.0000
# 2 28.0134 141.9935 54.5437 0.0000 0.0000 0.0000
# 3 37.6384 54.5437 113.1190 0.0000 0.0000 0.0000
# 4 0.0000 0.0000 0.0000 16.1998 0.0000 0.0000
# 5 0.0000 0.0000 0.0000 0.0000 7.3301 0.0000
# 6 0.0000 0.0000 0.0000 0.0000 0.0000 39.5229
#
#
#
# Elastic Compliance Matrix: (Units=1/GPa)
#
#
# Indices 1 2 3 4 5 6 
#
# 1 0.027613 -0.002355 -0.008052 0.000000 0.000000 0.000000
# 2 -0.002355 0.008844 -0.003481 0.000000 0.000000 0.000000
# 3 -0.008052 -0.003481 0.013198 0.000000 0.000000 0.000000
# 4 0.000000 0.000000 0.000000 0.061729 0.000000 0.000000
# 5 0.000000 0.000000 0.000000 0.000000 0.136425 0.000000
# 6 0.000000 0.000000 0.000000 0.000000 0.000000 0.025302
#
#
# Mechanical properties :
#
#
# Convention : Reuss Voigt Hill
#
# Bulk Modulus (GPa) = 45.70546 60.56479 53.13512
# Shear Modulus (GPa) = 16.22427 24.91031 20.56729
#
# Velocity S-wave (km/s) = 2.89881 3.59192 3.26381
# Velocity P-wave (km/s) = 5.90563 6.96928 6.45939
#
# Compressibility (1/GPa) = 0.02187923
#
# Stress axis : x y z
#
# Youngs Moduli (GPa) = 36.21481 113.06736 75.76853
#
# Poissons Ratio (x) = 0.26622 0.61012
# Poissons Ratio (y) = 0.08527 0.26376
# Poissons Ratio (z) = 0.29162 0.39360
#
# Static dielectric constant tensor:
#      x y z
#    x 3.573090 0.000000 0.000000 
#    y 0.000000 3.620490 0.000000 
#    z 0.000000 0.000000 3.929450 
# 
# 
# High freq. dielectric constant tensor:
#      x y z
#    x 1.761560 0.000000 0.000000 
#    y 0.000000 1.762610 0.000000 
#    z 0.000000 0.000000 1.756270 
# 
# From -- ./inp_files/59861.got.cif
#   From: 2010.03.12/outbox.cif.g09.slc.cpg/sg65_30_cif.got.tgz:59861.got - 2010.04.10 20:52:16.
