data_PCOD8274601
_publ_section_title
;
Structure prediction by ZEFSAII (Michael W. Deem and Ramdas Pophale) SiO2 
 PCOD8274601
Probable space group: C M M M
;
_chemical_formula_sum "Si O2"
_cell_formula_units_Z 96
_cell_length_a 12.866689
_cell_length_b 16.409027
_cell_length_c 23.573950
_cell_angle_alpha 90.000000
_cell_angle_beta 90.000000
_cell_angle_gamma 90.000000
_cell_volume 4977.164461
_symmetry_space_group_name_H-M "C M M M"
_symmetry_group_IT_number 65
_symmetry_cell_setting 'orthorhombic'
loop_
_space_group_symop_operation_xyz
x,y,z
-x,-y,z
x,-y,-z
-x,y,-z
-x,-y,-z
x,y,-z
-x,y,z
x,-y,z
1/2+x,1/2+y,z
1/2-x,1/2-y,z
1/2+x,1/2-y,-z
1/2-x,1/2+y,-z
1/2-x,1/2-y,-z
1/2+x,1/2+y,-z
1/2-x,1/2+y,z
1/2+x,1/2-y,z
loop_
_atom_site_type_symbol
_atom_site_label
_atom_site_fract_x
_atom_site_fract_y
_atom_site_fract_z
Si Si1 0.500000 0.598104 0.733592
Si Si2 0.306837 0.402590 0.936245
Si Si3 0.612134 0.094013 0.258686
Si Si4 0.379942 0.594859 0.564122
Si Si5 0.615825 0.096883 0.133707
Si Si6 0.292771 0.660549 0.673474
Si Si7 0.000000 0.096508 0.864625
O O1 0.500000 0.500000 0.723986
O O2 0.398752 0.638612 0.705747
O O3 0.500000 0.623366 0.799202
O O4 0.308123 0.500000 0.936495
O O5 0.199003 0.367639 0.910820
O O6 0.399054 0.368502 0.896603
O O7 0.320496 0.369101 0.000000
O O8 0.500000 0.131393 0.278762
O O9 0.642948 0.130694 0.196965
O O10 0.700625 0.103084 0.305425
O O11 0.594716 0.000000 0.248129
O O12 0.344525 0.614351 0.500000
O O13 0.500000 0.618728 0.572700
O O14 0.364615 0.500000 0.578027
O O15 0.309114 0.647619 0.606331
O O16 0.500000 0.125481 0.115981
O O17 0.623583 0.000000 0.132557
O O18 0.250000 0.750000 0.686365
O O19 0.000000 0.000000 0.867838
#
# Coordination Sequence:
#
# PCOD8274601 Si02
#       7
#     8  16  16  16  16  16   8
#     4  11  22  39  61  83 110 156 203 237 277 343
#     4   9  15  22  35  60  97 133 164 214 284 338
#     4   9  18  33  53  74 103 149 193 225 271 345
#     4   9  18  36  62  87 112 148 197 240 272 324
#     4   8  14  25  40  60  88 129 179 219 258 323
#     4  12  24  34  56  85 122 146 182 239 294 331
#     4   9  17  28  45  67  96 134 181 223 270 334
#
# _framework density 19.288091000000001
#
# number of rings (size 3 to 8) (size 9 to 14) (size 15 to 20)
#    0.000    2.500    0.833    4.250    1.167    4.333 
#    0.000    1.667    0.000    0.500    0.000    2.333 
#    0.000   16.667    0.000    0.000    0.000    0.000 
#
# Total GULP energy -594867.217881 kJ/mol
# GULP energy per Si atom -12393.067039 kJ/mol
# Density = 1.924419 g / cm^3
# Si number density = 19.288091 Si / 1000 Ang^3
#
#
#
# Elastic Constant Matrix: (Units=GPa)
#
#
# Indices 1 2 3 4 5 6 
#
# 1 155.7804 24.8101 89.9074 0.0000 0.0000 0.0000
# 2 24.8101 34.2241 23.4735 0.0000 0.0000 0.0000
# 3 89.9074 23.4735 156.1176 0.0000 0.0000 0.0000
# 4 0.0000 0.0000 0.0000 2.4686 0.0000 0.0000
# 5 0.0000 0.0000 0.0000 0.0000 -41.5093 0.0000
# 6 0.0000 0.0000 0.0000 0.0000 0.0000 19.1271
#
#
#
# Elastic Compliance Matrix: (Units=1/GPa)
#
#
# Indices 1 2 3 4 5 6 
#
# 1 0.010015 -0.003684 -0.005214 0.000000 0.000000 0.000000
# 2 -0.003684 0.033934 -0.002981 0.000000 0.000000 0.000000
# 3 -0.005214 -0.002981 0.009856 0.000000 0.000000 0.000000
# 4 0.000000 0.000000 0.000000 0.405088 0.000000 0.000000
# 5 0.000000 0.000000 0.000000 0.000000 -0.024091 0.000000
# 6 0.000000 0.000000 0.000000 0.000000 0.000000 0.052282
#
#
# Mechanical properties :
#
#
# Convention : Reuss Voigt Hill
#
# Bulk Modulus (GPa) = 33.27957 69.16713 51.22335
# Shear Modulus (GPa) = 9.59956 9.87936 9.73946
#
# Velocity S-wave (km/s) = 2.23332 2.26564 2.24954
# Velocity P-wave (km/s) = 4.89303 6.54080 5.77597
#
# Compressibility (1/GPa) = 0.03004847
#
# Stress axis : x y z
#
# Youngs Moduli (GPa) = 99.84924 29.46875 101.45996
#
# Poissons Ratio (x) = 0.10857 0.52898
# Poissons Ratio (y) = 0.36787 0.30240
# Poissons Ratio (z) = 0.52058 0.08783
#
# Static dielectric constant tensor:
#      x y z
#    x 3.822050 0.000000 0.000000 
#    y 0.000000 2.974280 0.000000 
#    z 0.000000 0.000000 3.669420 
# 
# 
# High freq. dielectric constant tensor:
#      x y z
#    x 1.759590 0.000000 0.000000 
#    y 0.000000 1.696710 0.000000 
#    z 0.000000 0.000000 1.754440 
# 
# From -- ./inp_files/69042.got.cif
#   From: 2010.03.12/outbox.cif.g09.slc.cpg/sg65_35_cif.got.tgz:69042.got - 2010.04.10 20:52:16.
