data_PCOD8274873
_publ_section_title
;
Structure prediction by ZEFSAII (Michael W. Deem and Ramdas Pophale) SiO2 
 PCOD8274873
Probable space group: C M M M
;
_chemical_formula_sum "Si O2"
_cell_formula_units_Z 88
_cell_length_a 9.645081
_cell_length_b 19.980732
_cell_length_c 28.008457
_cell_angle_alpha 90.000000
_cell_angle_beta 90.000000
_cell_angle_gamma 90.000000
_cell_volume 5397.671598
_symmetry_space_group_name_H-M "C M M M"
_symmetry_group_IT_number 65
_symmetry_cell_setting 'orthorhombic'
loop_
_space_group_symop_operation_xyz
x,y,z
-x,-y,z
x,-y,-z
-x,y,-z
-x,-y,-z
x,y,-z
-x,y,z
x,-y,z
1/2+x,1/2+y,z
1/2-x,1/2-y,z
1/2+x,1/2-y,-z
1/2-x,1/2+y,-z
1/2-x,1/2-y,-z
1/2+x,1/2+y,-z
1/2-x,1/2+y,z
1/2+x,1/2-y,z
loop_
_atom_site_type_symbol
_atom_site_label
_atom_site_fract_x
_atom_site_fract_y
_atom_site_fract_z
Si Si1 0.161241 0.423368 0.310494
Si Si2 0.340129 0.813478 0.234482
Si Si3 0.838066 0.685988 0.875160
Si Si4 0.835469 0.926741 0.500000
Si Si5 0.655444 0.579935 0.602241
Si Si6 0.835491 0.425821 0.053142
O O1 0.203374 0.500000 0.298682
O O2 0.201894 0.378215 0.265249
O O3 0.242601 0.394879 0.356385
O O4 0.000000 0.418068 0.322709
O O5 0.500000 0.793992 0.242254
O O6 0.250000 0.750000 0.250739
O O7 0.310398 0.832978 0.179773
O O8 0.750000 0.750000 0.890426
O O9 0.779543 0.625555 0.907384
O O10 0.000000 0.700546 0.884601
O O11 0.794215 0.890463 0.550248
O O12 0.000000 0.934990 0.500000
O O13 0.765204 0.000000 0.500000
O O14 0.500000 0.604873 0.614345
O O15 0.657866 0.500000 0.598629
O O16 0.777133 0.500000 0.064720
O O17 0.000000 0.427785 0.055300
O O18 0.787213 0.403646 0.000000
#
# Coordination Sequence:
#
# PCOD8274873 Si02
#       6
#    16  16  16   8  16  16
#     4   9  17  28  41  60  86 110 134 170 213 251
#     4   9  18  31  45  61  83 112 143 174 209 250
#     4   9  17  29  45  64  85 110 141 176 212 249
#     4   7  10  18  33  53  78 107 136 165 197 237
#     4   8  13  22  37  57  81 109 139 168 200 242
#     4   8  14  25  42  65  90 113 140 175 210 245
#
# _framework density 16.303325999999998
#
# number of rings (size 3 to 8) (size 9 to 14) (size 15 to 20)
#    0.000    3.545    0.000    1.636    0.000    1.818 
#    0.000    4.091    0.000    3.273    0.000    7.000 
#    0.000    0.000    0.000    0.000    0.000    0.000 
#
# Total GULP energy -545201.046491 kJ/mol
# GULP energy per Si atom -12390.932875 kJ/mol
# Density = 1.626622 g / cm^3
# Si number density = 16.303326 Si / 1000 Ang^3
#
#
#
# Elastic Constant Matrix: (Units=GPa)
#
#
# Indices 1 2 3 4 5 6 
#
# 1 39.5309 36.3564 44.9282 0.0000 0.0000 0.0000
# 2 36.3564 87.2037 78.4569 0.0000 0.0000 0.0000
# 3 44.9282 78.4569 131.2705 0.0000 0.0000 0.0000
# 4 0.0000 0.0000 0.0000 9.3682 0.0000 0.0000
# 5 0.0000 0.0000 0.0000 0.0000 18.9522 0.0000
# 6 0.0000 0.0000 0.0000 0.0000 0.0000 19.3959
#
#
#
# Elastic Compliance Matrix: (Units=1/GPa)
#
#
# Indices 1 2 3 4 5 6 
#
# 1 0.045634 -0.010759 -0.009188 0.000000 0.000000 0.000000
# 2 -0.010759 0.027343 -0.012660 0.000000 0.000000 0.000000
# 3 -0.009188 -0.012660 0.018329 0.000000 0.000000 0.000000
# 4 0.000000 0.000000 0.000000 0.106744 0.000000 0.000000
# 5 0.000000 0.000000 0.000000 0.000000 0.052764 0.000000
# 6 0.000000 0.000000 0.000000 0.000000 0.000000 0.051557
#
#
# Mechanical properties :
#
#
# Convention : Reuss Voigt Hill
#
# Bulk Modulus (GPa) = 38.32549 64.16534 51.24541
# Shear Modulus (GPa) = 13.28784 16.09416 14.69100
#
# Velocity S-wave (km/s) = 2.85799 3.14534 3.00510
# Velocity P-wave (km/s) = 5.86938 7.25489 6.59860
#
# Compressibility (1/GPa) = 0.02609230
#
# Stress axis : x y z
#
# Youngs Moduli (GPa) = 21.91325 36.57244 54.55793
#
# Poissons Ratio (x) = 0.39348 0.50130
# Poissons Ratio (y) = 0.23576 0.69070
# Poissons Ratio (z) = 0.20135 0.46300
#
# Static dielectric constant tensor:
#      x y z
#    x 2.862320 0.000000 0.000000 
#    y 0.000000 2.937230 0.000000 
#    z 0.000000 0.000000 3.429000 
# 
# 
# High freq. dielectric constant tensor:
#      x y z
#    x 1.597640 0.000000 0.000000 
#    y 0.000000 1.593180 0.000000 
#    z 0.000000 0.000000 1.641040 
# 
# From -- ./inp_files/76781.got.cif
#   From: 2010.03.12/outbox.cif.g09.slc.cpg/sg65_39_cif.got.tgz:76781.got - 2010.04.10 20:52:16.
