data_PCOD8274768
_publ_section_title
;
Structure prediction by ZEFSAII (Michael W. Deem and Ramdas Pophale) SiO2 
 PCOD8274768
Probable space group: C M M M
;
_chemical_formula_sum "Si O2"
_cell_formula_units_Z 120
_cell_length_a 14.296251
_cell_length_b 22.107695
_cell_length_c 23.142612
_cell_angle_alpha 90.000000
_cell_angle_beta 90.000000
_cell_angle_gamma 90.000000
_cell_volume 7314.388149
_symmetry_space_group_name_H-M "C M M M"
_symmetry_group_IT_number 65
_symmetry_cell_setting 'orthorhombic'
loop_
_space_group_symop_operation_xyz
x,y,z
-x,-y,z
x,-y,-z
-x,y,-z
-x,-y,-z
x,y,-z
-x,y,z
x,-y,z
1/2+x,1/2+y,z
1/2-x,1/2-y,z
1/2+x,1/2-y,-z
1/2-x,1/2+y,-z
1/2-x,1/2-y,-z
1/2+x,1/2+y,-z
1/2-x,1/2+y,z
1/2+x,1/2-y,z
loop_
_atom_site_type_symbol
_atom_site_label
_atom_site_fract_x
_atom_site_fract_y
_atom_site_fract_z
Si Si1 0.610155 0.500000 0.067574
Si Si2 0.104031 0.428139 0.334425
Si Si3 0.766724 0.427838 0.435594
Si Si4 0.767211 0.071170 0.251958
Si Si5 0.103490 0.071612 0.643804
Si Si6 0.392584 0.286256 0.065958
Si Si7 0.604832 0.853965 0.067355
Si Si8 0.784947 0.110778 0.124786
O O1 0.500000 0.500000 0.078892
O O2 0.652773 0.441045 0.096736
O O3 0.633939 0.500000 0.000000
O O4 0.100093 0.500000 0.336429
O O5 0.148525 0.404854 0.394894
O O6 0.168780 0.408364 0.280613
O O7 0.000000 0.400500 0.327184
O O8 0.778847 0.400909 0.500000
O O9 0.766550 0.500000 0.437248
O O10 0.668466 0.404594 0.408619
O O11 0.851190 0.089188 0.294879
O O12 0.784042 0.107537 0.193626
O O13 0.766726 0.000000 0.238516
O O14 0.000000 0.100709 0.638853
O O15 0.096979 0.000000 0.639765
O O16 0.500000 0.305225 0.074839
O O17 0.377710 0.216336 0.080946
O O18 0.327456 0.324598 0.108035
O O19 0.362233 0.299416 0.000000
O O20 0.500000 0.872538 0.086547
O O21 0.678307 0.894641 0.102415
O O22 0.618384 0.866807 0.000000
#
# Coordination Sequence:
#
# PCOD8274768 Si02
#       8
#     8  16  16  16  16  16  16  16
#     4  11  24  36  45  65  95 119 141 176 224 278
#     4   8  14  25  39  49  68 104 140 177 215 247
#     4   8  13  20  31  51  74  91 124 178 223 257
#     4   9  18  30  37  55  81 108 148 181 204 246
#     4   8  14  24  36  47  68 105 140 170 205 243
#     4   9  18  33  52  72  90 109 139 180 226 276
#     4   9  19  35  53  71  88 108 141 184 226 273
#     4  12  20  31  49  68  89 119 148 179 224 270
#
# _framework density 16.406020000000002
#
# number of rings (size 3 to 8) (size 9 to 14) (size 15 to 20)
#    0.000    2.867    0.667    4.400    0.000    4.267 
#    0.000    3.000    0.000    1.200    0.000    0.000 
#    0.000    0.000    0.000    0.000    0.000   42.667 
#
# Total GULP energy -743758.038379 kJ/mol
# GULP energy per Si atom -12395.967306 kJ/mol
# Density = 1.636868 g / cm^3
# Si number density = 16.406020 Si / 1000 Ang^3
#
#
#
# Elastic Constant Matrix: (Units=GPa)
#
#
# Indices 1 2 3 4 5 6 
#
# 1 123.3950 14.9719 54.0581 0.0000 0.0000 0.0000
# 2 14.9719 14.8379 16.2148 0.0000 0.0000 0.0000
# 3 54.0581 16.2148 117.0054 0.0000 0.0000 0.0000
# 4 0.0000 0.0000 0.0000 3.2484 0.0000 0.0000
# 5 0.0000 0.0000 0.0000 0.0000 10.8731 0.0000
# 6 0.0000 0.0000 0.0000 0.0000 0.0000 15.3324
#
#
#
# Elastic Compliance Matrix: (Units=1/GPa)
#
#
# Indices 1 2 3 4 5 6 
#
# 1 0.010641 -0.006322 -0.004040 0.000000 0.000000 0.000000
# 2 -0.006322 0.083179 -0.008606 0.000000 0.000000 0.000000
# 3 -0.004040 -0.008606 0.011606 0.000000 0.000000 0.000000
# 4 0.000000 0.000000 0.000000 0.307845 0.000000 0.000000
# 5 0.000000 0.000000 0.000000 0.000000 0.091970 0.000000
# 6 0.000000 0.000000 0.000000 0.000000 0.000000 0.065221
#
#
# Mechanical properties :
#
#
# Convention : Reuss Voigt Hill
#
# Bulk Modulus (GPa) = 14.81721 47.30310 31.06016
# Shear Modulus (GPa) = 7.92524 17.22367 12.57446
#
# Velocity S-wave (km/s) = 2.20027 3.24364 2.77149
# Velocity P-wave (km/s) = 3.93778 6.55161 5.40508
#
# Compressibility (1/GPa) = 0.06748907
#
# Stress axis : x y z
#
# Youngs Moduli (GPa) = 93.97500 12.02226 86.16299
#
# Poissons Ratio (x) = 0.07601 0.34812
# Poissons Ratio (y) = 0.59412 0.74153
# Poissons Ratio (z) = 0.37968 0.10347
#
# Static dielectric constant tensor:
#      x y z
#    x 3.578150 0.000000 0.000000 
#    y 0.000000 2.554350 0.000000 
#    z 0.000000 0.000000 3.117830 
# 
# 
# High freq. dielectric constant tensor:
#      x y z
#    x 1.651110 0.000000 0.000000 
#    y 0.000000 1.564130 0.000000 
#    z 0.000000 0.000000 1.626340 
# 
# From -- ./inp_files/63027.got.cif
#   From: 2010.03.12/outbox.cif.g09.slc.cpg/sg65_32_cif.got.tgz:63027.got - 2010.04.10 20:52:16.
