data_PCOD8274562
_publ_section_title
;
Structure prediction by ZEFSAII (Michael W. Deem and Ramdas Pophale) SiO2 
 PCOD8274562
Probable space group: C M M M
;
_chemical_formula_sum "Si O2"
_cell_formula_units_Z 64
_cell_length_a 8.716944
_cell_length_b 16.067946
_cell_length_c 21.874895
_cell_angle_alpha 90.000000
_cell_angle_beta 90.000000
_cell_angle_gamma 90.000000
_cell_volume 3063.871851
_symmetry_space_group_name_H-M "C M M M"
_symmetry_group_IT_number 65
_symmetry_cell_setting 'orthorhombic'
loop_
_space_group_symop_operation_xyz
x,y,z
-x,-y,z
x,-y,-z
-x,y,-z
-x,-y,-z
x,y,-z
-x,y,z
x,-y,z
1/2+x,1/2+y,z
1/2-x,1/2-y,z
1/2+x,1/2-y,-z
1/2-x,1/2+y,-z
1/2-x,1/2-y,-z
1/2+x,1/2+y,-z
1/2-x,1/2+y,z
1/2+x,1/2-y,z
loop_
_atom_site_type_symbol
_atom_site_label
_atom_site_fract_x
_atom_site_fract_y
_atom_site_fract_z
Si Si1 0.317558 0.406952 0.000000
Si Si2 0.182043 0.162211 0.872099
Si Si3 0.182444 0.000000 0.569235
Si Si4 0.318387 0.663538 0.640115
Si Si5 0.324689 0.905743 0.756850
O O1 0.255949 0.360803 0.060411
O O2 0.251115 0.500000 0.000000
O O3 0.500000 0.408994 0.000000
O O4 0.250000 0.250000 0.852479
O O5 0.244835 0.096632 0.823082
O O6 0.000000 0.162797 0.870506
O O7 0.244008 0.084386 0.601434
O O8 0.243500 0.000000 0.500000
O O9 0.000000 0.000000 0.571925
O O10 0.500000 0.668972 0.637139
O O11 0.250000 0.750000 0.613545
O O12 0.264691 0.653448 0.709983
O O13 0.500000 0.875389 0.761732
O O14 0.314510 0.000000 0.732895
#
# Coordination Sequence:
#
# PCOD8274562 Si02
#       5
#     8  16   8  16  16
#     4   9  19  36  57  81 108 145 192 243 296 358
#     4  11  22  37  58  83 115 152 195 243 298 360
#     4   9  20  40  65  93 127 166 207 250 299 361
#     4  11  22  39  64  93 126 165 208 252 305 362
#     4  11  23  39  60  87 120 155 199 253 305 358
#
# _framework density 20.888604000000001
#
# number of rings (size 3 to 8) (size 9 to 14) (size 15 to 20)
#    0.000    1.500    1.250    4.125    0.000    3.000 
#    0.000    1.875    0.000    9.750    0.000    0.000 
#    0.000    0.000    0.000    0.000    0.000    0.000 
#
# Total GULP energy -396905.489248 kJ/mol
# GULP energy per Si atom -12403.296539 kJ/mol
# Density = 2.084106 g / cm^3
# Si number density = 20.888604 Si / 1000 Ang^3
#
#
#
# Elastic Constant Matrix: (Units=GPa)
#
#
# Indices 1 2 3 4 5 6 
#
# 1 81.7078 39.7748 32.9928 0.0000 0.0000 0.0000
# 2 39.7748 139.9163 52.0118 0.0000 0.0000 0.0000
# 3 32.9928 52.0118 132.2925 0.0000 0.0000 0.0000
# 4 0.0000 0.0000 0.0000 33.3918 0.0000 0.0000
# 5 0.0000 0.0000 0.0000 0.0000 18.3123 0.0000
# 6 0.0000 0.0000 0.0000 0.0000 0.0000 29.3391
#
#
#
# Elastic Compliance Matrix: (Units=1/GPa)
#
#
# Indices 1 2 3 4 5 6 
#
# 1 0.014822 -0.003325 -0.002389 0.000000 0.000000 0.000000
# 2 -0.003325 0.009117 -0.002755 0.000000 0.000000 0.000000
# 3 -0.002389 -0.002755 0.009238 0.000000 0.000000 0.000000
# 4 0.000000 0.000000 0.000000 0.029947 0.000000 0.000000
# 5 0.000000 0.000000 0.000000 0.000000 0.054608 0.000000
# 6 0.000000 0.000000 0.000000 0.000000 0.000000 0.034084
#
#
# Mechanical properties :
#
#
# Convention : Reuss Voigt Hill
#
# Bulk Modulus (GPa) = 61.58482 67.05283 64.31882
# Shear Modulus (GPa) = 28.70787 31.48445 30.09616
#
# Velocity S-wave (km/s) = 3.71122 3.88655 3.79990
# Velocity P-wave (km/s) = 6.92176 7.23258 7.07888
#
# Compressibility (1/GPa) = 0.01623777
#
# Stress axis : x y z
#
# Youngs Moduli (GPa) = 67.46604 109.69031 108.24908
#
# Poissons Ratio (x) = 0.36477 0.25862
# Poissons Ratio (y) = 0.22436 0.29822
# Poissons Ratio (z) = 0.16119 0.30219
#
# Static dielectric constant tensor:
#      x y z
#    x 3.514400 0.000000 0.000000 
#    y 0.000000 3.893020 0.000000 
#    z 0.000000 0.000000 3.830080 
# 
# 
# High freq. dielectric constant tensor:
#      x y z
#    x 1.799040 0.000000 0.000000 
#    y 0.000000 1.831150 0.000000 
#    z 0.000000 0.000000 1.818260 
# 
# From -- ./inp_files/66759.got.cif
#   From: 2010.03.12/outbox.cif.g09.slc.cpg/sg65_34_cif.got.tgz:66759.got - 2010.04.10 20:52:16.
