data_PCOD8274755
_publ_section_title
;
Structure prediction by ZEFSAII (Michael W. Deem and Ramdas Pophale) SiO2 
 PCOD8274755
Probable space group: C M M M
;
_chemical_formula_sum "Si O2"
_cell_formula_units_Z 80
_cell_length_a 8.705973
_cell_length_b 15.523615
_cell_length_c 29.439506
_cell_angle_alpha 90.000000
_cell_angle_beta 90.000000
_cell_angle_gamma 90.000000
_cell_volume 3978.695451
_symmetry_space_group_name_H-M "C M M M"
_symmetry_group_IT_number 65
_symmetry_cell_setting 'orthorhombic'
loop_
_space_group_symop_operation_xyz
x,y,z
-x,-y,z
x,-y,-z
-x,y,-z
-x,-y,-z
x,y,-z
-x,y,z
x,-y,z
1/2+x,1/2+y,z
1/2-x,1/2-y,z
1/2+x,1/2-y,-z
1/2-x,1/2+y,-z
1/2-x,1/2-y,-z
1/2+x,1/2+y,-z
1/2-x,1/2+y,z
1/2+x,1/2-y,z
loop_
_atom_site_type_symbol
_atom_site_label
_atom_site_fract_x
_atom_site_fract_y
_atom_site_fract_z
Si Si1 0.823036 0.102798 0.145925
Si Si2 0.682700 0.500000 0.391603
Si Si3 0.182181 0.000000 0.288350
Si Si4 0.181705 0.160857 0.551681
Si Si5 0.819766 0.339756 0.764187
Si Si6 0.317738 0.403497 0.047986
O O1 0.715557 0.148365 0.182550
O O2 0.765350 0.138148 0.096085
O O3 0.000000 0.128228 0.155543
O O4 0.804423 0.000000 0.148412
O O5 0.500000 0.500000 0.393882
O O6 0.741399 0.500000 0.340050
O O7 0.747347 0.415657 0.417070
O O8 0.243735 0.084520 0.264196
O O9 0.000000 0.000000 0.284988
O O10 0.235767 0.144009 0.500000
O O11 0.250000 0.250000 0.570378
O O12 0.000000 0.165935 0.554687
O O13 0.750000 0.250000 0.746627
O O14 0.000000 0.340255 0.755944
O O15 0.500000 0.407658 0.049857
O O16 0.251815 0.500000 0.046289
O O17 0.265326 0.356936 0.000000
#
# Coordination Sequence:
#
# PCOD8274755 Si02
#       6
#    16   8   8  16  16  16
#     4   9  16  29  53  81 111 145 181 226 278 332
#     4   9  19  35  58  84 112 151 191 230 279 336
#     4  11  23  42  63  86 117 149 190 242 295 349
#     4   9  17  32  55  84 118 155 194 232 272 322
#     4  12  25  41  61  84 111 147 191 239 292 348
#     4   7  10  18  37  70 107 140 175 213 259 322
#
# _framework density 20.107094
#
# number of rings (size 3 to 8) (size 9 to 14) (size 15 to 20)
#    0.000    2.600    1.000    4.200    0.000    2.000 
#    0.000    4.500    0.000    3.600    0.000    2.800 
#    0.000    0.000    0.000    0.000    0.000    0.000 
#
# Total GULP energy -495635.225334 kJ/mol
# GULP energy per Si atom -12390.880633 kJ/mol
# Density = 2.006133 g / cm^3
# Si number density = 20.107094 Si / 1000 Ang^3
#
#
#
# Elastic Constant Matrix: (Units=GPa)
#
#
# Indices 1 2 3 4 5 6 
#
# 1 61.7387 33.3968 32.4259 0.0000 0.0000 0.0000
# 2 33.3968 134.5170 79.4012 0.0000 0.0000 0.0000
# 3 32.4259 79.4012 156.4023 0.0000 0.0000 0.0000
# 4 0.0000 0.0000 0.0000 -12.7921 0.0000 0.0000
# 5 0.0000 0.0000 0.0000 0.0000 15.8629 0.0000
# 6 0.0000 0.0000 0.0000 0.0000 0.0000 26.7792
#
#
#
# Elastic Compliance Matrix: (Units=1/GPa)
#
#
# Indices 1 2 3 4 5 6 
#
# 1 0.019241 -0.003459 -0.002233 0.000000 0.000000 0.000000
# 2 -0.003459 0.011237 -0.004987 0.000000 0.000000 0.000000
# 3 -0.002233 -0.004987 0.009389 0.000000 0.000000 0.000000
# 4 0.000000 0.000000 0.000000 -0.078174 0.000000 0.000000
# 5 0.000000 0.000000 0.000000 0.000000 0.063040 0.000000
# 6 0.000000 0.000000 0.000000 0.000000 0.000000 0.037342
#
#
# Mechanical properties :
#
#
# Convention : Reuss Voigt Hill
#
# Bulk Modulus (GPa) = 54.03177 71.45621 62.74399
# Shear Modulus (GPa) = 55.80115 19.79895 37.80005
#
# Velocity S-wave (km/s) = 5.27373 3.14136 4.34053
# Velocity P-wave (km/s) = 8.00083 6.98373 7.50952
#
# Compressibility (1/GPa) = 0.01850763
#
# Stress axis : x y z
#
# Youngs Moduli (GPa) = 51.97179 88.99420 106.51037
#
# Poissons Ratio (x) = 0.30782 0.23786
# Poissons Ratio (y) = 0.17976 0.53122
# Poissons Ratio (z) = 0.11606 0.44385
#
# Static dielectric constant tensor:
#      x y z
#    x 3.248860 0.000000 0.000000 
#    y 0.000000 3.548500 0.000000 
#    z 0.000000 0.000000 4.153520 
# 
# 
# High freq. dielectric constant tensor:
#      x y z
#    x 1.746750 0.000000 0.000000 
#    y 0.000000 1.770230 0.000000 
#    z 0.000000 0.000000 1.799060 
# 
# From -- ./inp_files/72889.got.cif
#   From: 2010.03.12/outbox.cif.g09.slc.cpg/sg65_37_cif.got.tgz:72889.got - 2010.04.10 20:52:16.
