data_PCOD8274757
_publ_section_title
;
Structure prediction by ZEFSAII (Michael W. Deem and Ramdas Pophale) SiO2 
 PCOD8274757
Probable space group: C M M M
;
_chemical_formula_sum "Si O2"
_cell_formula_units_Z 72
_cell_length_a 18.543137
_cell_length_b 7.549609
_cell_length_c 25.049697
_cell_angle_alpha 90.000000
_cell_angle_beta 90.000000
_cell_angle_gamma 90.000000
_cell_volume 3506.793103
_symmetry_space_group_name_H-M "C M M M"
_symmetry_group_IT_number 65
_symmetry_cell_setting 'orthorhombic'
loop_
_space_group_symop_operation_xyz
x,y,z
-x,-y,z
x,-y,-z
-x,y,-z
-x,-y,-z
x,y,-z
-x,y,z
x,-y,z
1/2+x,1/2+y,z
1/2-x,1/2-y,z
1/2+x,1/2-y,-z
1/2-x,1/2+y,-z
1/2-x,1/2-y,-z
1/2+x,1/2+y,-z
1/2-x,1/2+y,z
1/2+x,1/2-y,z
loop_
_atom_site_type_symbol
_atom_site_label
_atom_site_fract_x
_atom_site_fract_y
_atom_site_fract_z
Si Si1 0.419586 0.293860 0.771074
Si Si2 0.079788 0.292291 0.344184
Si Si3 0.334355 0.291241 0.873567
Si Si4 0.331447 0.207833 0.558485
Si Si5 0.916867 0.500000 0.936880
O O1 0.500000 0.206236 0.775970
O O2 0.427995 0.500000 0.778626
O O3 0.384495 0.250044 0.713285
O O4 0.365720 0.223718 0.816626
O O5 0.077346 0.500000 0.352991
O O6 0.122352 0.204298 0.393775
O O7 0.000000 0.208619 0.344450
O O8 0.348071 0.500000 0.883863
O O9 0.250000 0.250000 0.875443
O O10 0.376388 0.178158 0.917868
O O11 0.352032 0.288159 0.500000
O O12 0.250000 0.250000 0.572620
O O13 0.344347 0.000000 0.556665
O O14 0.000000 0.500000 0.916893
O O15 0.913457 0.500000 0.000000
#
# Coordination Sequence:
#
# PCOD8274757 Si02
#       5
#    16  16  16  16   8
#     4   9  19  35  56  81 113 152 192 239 294 355
#     4   9  18  31  49  75 102 136 181 227 283 343
#     4  11  23  42  65  97 132 169 212 261 316 370
#     4   9  18  32  48  67  95 131 174 223 278 339
#     4  11  26  46  70 100 131 171 218 260 311 372
#
# _framework density 20.531578
#
# number of rings (size 3 to 8) (size 9 to 14) (size 15 to 20)
#    0.000    2.333    1.111    0.667    1.556    4.444 
#    0.000    7.778    0.000    0.000    0.000    6.222 
#    0.000    0.000    0.000    0.000    0.000    0.000 
#
# Total GULP energy -446170.609865 kJ/mol
# GULP energy per Si atom -12393.628052 kJ/mol
# Density = 2.048485 g / cm^3
# Si number density = 20.531578 Si / 1000 Ang^3
#
#
#
# Elastic Constant Matrix: (Units=GPa)
#
#
# Indices 1 2 3 4 5 6 
#
# 1 125.1536 27.8549 81.9169 0.0000 0.0000 0.0000
# 2 27.8549 66.2378 29.9302 0.0000 0.0000 0.0000
# 3 81.9169 29.9302 154.3792 0.0000 0.0000 0.0000
# 4 0.0000 0.0000 0.0000 18.8010 0.0000 0.0000
# 5 0.0000 0.0000 0.0000 0.0000 31.8024 0.0000
# 6 0.0000 0.0000 0.0000 0.0000 0.0000 16.9668
#
#
#
# Elastic Compliance Matrix: (Units=1/GPa)
#
#
# Indices 1 2 3 4 5 6 
#
# 1 0.012608 -0.002498 -0.006206 0.000000 0.000000 0.000000
# 2 -0.002498 0.017042 -0.001978 0.000000 0.000000 0.000000
# 3 -0.006206 -0.001978 0.010154 0.000000 0.000000 0.000000
# 4 0.000000 0.000000 0.000000 0.053189 0.000000 0.000000
# 5 0.000000 0.000000 0.000000 0.000000 0.031444 0.000000
# 6 0.000000 0.000000 0.000000 0.000000 0.000000 0.058939
#
#
# Mechanical properties :
#
#
# Convention : Reuss Voigt Hill
#
# Bulk Modulus (GPa) = 54.23207 69.46386 61.84797
# Shear Modulus (GPa) = 23.70950 27.25194 25.48072
#
# Velocity S-wave (km/s) = 3.40189 3.64719 3.52668
# Velocity P-wave (km/s) = 6.47316 7.18625 6.83901
#
# Compressibility (1/GPa) = 0.01843928
#
# Stress axis : x y z
#
# Youngs Moduli (GPa) = 79.31463 58.68006 98.48270
#
# Poissons Ratio (x) = 0.14658 0.61116
# Poissons Ratio (y) = 0.19812 0.19485
# Poissons Ratio (z) = 0.49221 0.11610
#
# Static dielectric constant tensor:
#      x y z
#    x 3.883420 0.000000 0.000000 
#    y 0.000000 3.604590 0.000000 
#    z 0.000000 0.000000 4.028460 
# 
# 
# High freq. dielectric constant tensor:
#      x y z
#    x 1.791890 0.000000 0.000000 
#    y 0.000000 1.795380 0.000000 
#    z 0.000000 0.000000 1.812590 
# 
# From -- ./inp_files/70326.got.cif
#   From: 2010.03.12/outbox.cif.g09.slc.cpg/sg65_36_cif.got.tgz:70326.got - 2010.04.10 20:52:16.
