data_PCOD8274160
_publ_section_title
;
Structure prediction by ZEFSAII (Michael W. Deem and Ramdas Pophale) SiO2 
 PCOD8274160
Probable space group: C M M M
;
_chemical_formula_sum "Si O2"
_cell_formula_units_Z 96
_cell_length_a 17.706829
_cell_length_b 20.362926
_cell_length_c 16.018486
_cell_angle_alpha 90.000000
_cell_angle_beta 90.000000
_cell_angle_gamma 90.000000
_cell_volume 5775.670943
_symmetry_space_group_name_H-M "C M M M"
_symmetry_group_IT_number 65
_symmetry_cell_setting 'orthorhombic'
loop_
_space_group_symop_operation_xyz
x,y,z
-x,-y,z
x,-y,-z
-x,y,-z
-x,-y,-z
x,y,-z
-x,y,z
x,-y,z
1/2+x,1/2+y,z
1/2-x,1/2-y,z
1/2+x,1/2-y,-z
1/2-x,1/2+y,-z
1/2-x,1/2-y,-z
1/2+x,1/2+y,-z
1/2-x,1/2+y,z
1/2+x,1/2-y,z
loop_
_atom_site_type_symbol
_atom_site_label
_atom_site_fract_x
_atom_site_fract_y
_atom_site_fract_z
Si Si1 0.804710 0.688707 0.239279
Si Si2 0.417921 0.345152 0.834731
Si Si3 0.581989 0.261063 0.334138
Si Si4 0.912418 0.107964 0.593169
Si Si5 0.087917 0.287044 0.093412
Si Si6 0.191377 0.073536 0.256665
O O1 0.750000 0.750000 0.218963
O O2 0.854910 0.705185 0.321705
O O3 0.858103 0.675238 0.158836
O O4 0.761651 0.622691 0.264279
O O5 0.500000 0.376329 0.853669
O O6 0.419241 0.304381 0.749349
O O7 0.395789 0.291779 0.905132
O O8 0.357820 0.403759 0.824097
O O9 0.500000 0.228112 0.349899
O O10 0.601775 0.312961 0.406911
O O11 0.894353 0.082044 0.500000
O O12 0.858380 0.072055 0.658968
O O13 0.000000 0.093241 0.616761
O O14 0.000000 0.299811 0.117416
O O15 0.105348 0.312564 0.000000
O O16 0.221150 0.000000 0.240081
#
# Coordination Sequence:
#
# PCOD8274160 Si02
#       6
#    16  16  16  16  16  16
#     4  11  17  30  49  71  94 127 163 193 237 283
#     4   8  14  27  44  65  91 121 152 181 221 280
#     4   8  14  27  47  67  90 119 154 196 236 278
#     4   9  17  30  49  73  99 127 160 195 235 285
#     4   9  17  30  52  78  96 114 152 206 250 283
#     4  11  21  31  43  66  99 132 165 197 231 275
#
# _framework density 16.621445999999999
#
# number of rings (size 3 to 8) (size 9 to 14) (size 15 to 20)
#    0.000    2.667    5.000    3.000    0.000    2.000 
#    0.000    2.500    0.000    4.000    0.000    3.500 
#    0.000    0.000    0.000   10.167    0.000    0.000 
#
# Total GULP energy -594636.629607 kJ/mol
# GULP energy per Si atom -12388.263117 kJ/mol
# Density = 1.658361 g / cm^3
# Si number density = 16.621446 Si / 1000 Ang^3
#
#
#
# Elastic Constant Matrix: (Units=GPa)
#
#
# Indices 1 2 3 4 5 6 
#
# 1 83.5388 43.5546 15.3406 0.0000 0.0000 0.0000
# 2 43.5546 85.6688 6.7473 0.0000 0.0000 0.0000
# 3 15.3406 6.7473 43.1840 0.0000 0.0000 0.0000
# 4 0.0000 0.0000 0.0000 9.0176 0.0000 0.0000
# 5 0.0000 0.0000 0.0000 0.0000 19.1190 0.0000
# 6 0.0000 0.0000 0.0000 0.0000 0.0000 16.5661
#
#
#
# Elastic Compliance Matrix: (Units=1/GPa)
#
#
# Indices 1 2 3 4 5 6 
#
# 1 0.017221 -0.008376 -0.004809 0.000000 0.000000 0.000000
# 2 -0.008376 0.015893 0.000492 0.000000 0.000000 0.000000
# 3 -0.004809 0.000492 0.024788 0.000000 0.000000 0.000000
# 4 0.000000 0.000000 0.000000 0.110894 0.000000 0.000000
# 5 0.000000 0.000000 0.000000 0.000000 0.052304 0.000000
# 6 0.000000 0.000000 0.000000 0.000000 0.000000 0.060364
#
#
# Mechanical properties :
#
#
# Convention : Reuss Voigt Hill
#
# Bulk Modulus (GPa) = 30.75391 38.18629 34.47010
# Shear Modulus (GPa) = 15.73871 18.72381 17.23126
#
# Velocity S-wave (km/s) = 3.08050 3.35996 3.22326
# Velocity P-wave (km/s) = 5.58528 6.17061 5.88522
#
# Compressibility (1/GPa) = 0.03251619
#
# Stress axis : x y z
#
# Youngs Moduli (GPa) = 58.06957 62.92196 40.34205
#
# Poissons Ratio (x) = 0.52706 0.19399
# Poissons Ratio (y) = 0.48641 -0.01987
# Poissons Ratio (z) = 0.27924 -0.03099
#
# Static dielectric constant tensor:
#      x y z
#    x 3.367510 0.000000 0.000000 
#    y 0.000000 2.825180 0.000000 
#    z 0.000000 0.000000 3.220940 
# 
# 
# High freq. dielectric constant tensor:
#      x y z
#    x 1.641550 0.000000 0.000000 
#    y 0.000000 1.589260 0.000000 
#    z 0.000000 0.000000 1.618890 
# 
# From -- ./inp_files/54754.got.cif
#   From: 2010.03.12/outbox.cif.g09.slc.cpg/sg65_28_cif.got.tgz:54754.got - 2010.04.10 20:52:16.
