data_PCOD8274505
_publ_section_title
;
Structure prediction by ZEFSAII (Michael W. Deem and Ramdas Pophale) SiO2 
 PCOD8274505
Probable space group: C M M M
;
_chemical_formula_sum "Si O2"
_cell_formula_units_Z 72
_cell_length_a 8.787394
_cell_length_b 25.481260
_cell_length_c 16.939693
_cell_angle_alpha 90.000000
_cell_angle_beta 90.000000
_cell_angle_gamma 90.000000
_cell_volume 3793.032237
_symmetry_space_group_name_H-M "C M M M"
_symmetry_group_IT_number 65
_symmetry_cell_setting 'orthorhombic'
loop_
_space_group_symop_operation_xyz
x,y,z
-x,-y,z
x,-y,-z
-x,y,-z
-x,-y,-z
x,y,-z
-x,y,z
x,-y,z
1/2+x,1/2+y,z
1/2-x,1/2-y,z
1/2+x,1/2-y,-z
1/2-x,1/2+y,-z
1/2-x,1/2-y,-z
1/2+x,1/2+y,-z
1/2-x,1/2+y,z
1/2+x,1/2-y,z
loop_
_atom_site_type_symbol
_atom_site_label
_atom_site_fract_x
_atom_site_fract_y
_atom_site_fract_z
Si Si1 0.820670 0.697267 0.247040
Si Si2 0.818586 0.000000 0.589515
Si Si3 0.825560 0.055695 0.127899
Si Si4 0.320534 0.666717 0.913126
Si Si5 0.325429 0.592897 0.302183
O O1 0.750000 0.750000 0.285271
O O2 0.768297 0.696787 0.155201
O O3 0.767530 0.647245 0.297913
O O4 0.000000 0.700673 0.249863
O O5 0.758889 0.946373 0.630915
O O6 0.759369 0.000000 0.500000
O O7 0.000000 0.000000 0.595849
O O8 0.757042 0.106626 0.084623
O O9 0.808570 0.061640 0.221332
O O10 0.000000 0.051906 0.103155
O O11 0.746248 0.000000 0.103428
O O12 0.500000 0.667422 0.891832
O O13 0.289785 0.691545 0.000000
O O14 0.500000 0.607948 0.319432
#
# Coordination Sequence:
#
# PCOD8274505 Si02
#       5
#    16   8  16  16  16
#     4  11  22  36  54  74  97 133 179 225 268 311
#     4   9  16  28  55  93 122 143 168 201 245 298
#     4   8  12  21  41  67  94 129 169 205 241 286
#     4   9  18  31  47  70 100 132 170 217 267 316
#     4   9  16  30  52  79 110 140 171 209 248 299
#
# _framework density 18.982174000000001
#
# number of rings (size 3 to 8) (size 9 to 14) (size 15 to 20)
#    0.000    2.778    1.111    3.333    0.000    1.333 
#    0.000    2.778    0.000    2.000    0.000    3.111 
#    0.000    0.000    0.000    0.000    0.000    0.000 
#
# Total GULP energy -446001.630666 kJ/mol
# GULP energy per Si atom -12388.934185 kJ/mol
# Density = 1.893897 g / cm^3
# Si number density = 18.982174 Si / 1000 Ang^3
#
#
#
# Elastic Constant Matrix: (Units=GPa)
#
#
# Indices 1 2 3 4 5 6 
#
# 1 79.9967 48.0372 24.0590 0.0000 0.0000 0.0000
# 2 48.0372 144.6637 34.6550 0.0000 0.0000 0.0000
# 3 24.0590 34.6550 87.8684 0.0000 0.0000 0.0000
# 4 0.0000 0.0000 0.0000 25.3026 0.0000 0.0000
# 5 0.0000 0.0000 0.0000 0.0000 12.5222 0.0000
# 6 0.0000 0.0000 0.0000 0.0000 0.0000 23.3346
#
#
#
# Elastic Compliance Matrix: (Units=1/GPa)
#
#
# Indices 1 2 3 4 5 6 
#
# 1 0.016112 -0.004741 -0.002542 0.000000 0.000000 0.000000
# 2 -0.004741 0.009029 -0.002263 0.000000 0.000000 0.000000
# 3 -0.002542 -0.002263 0.012969 0.000000 0.000000 0.000000
# 4 0.000000 0.000000 0.000000 0.039522 0.000000 0.000000
# 5 0.000000 0.000000 0.000000 0.000000 0.079858 0.000000
# 6 0.000000 0.000000 0.000000 0.000000 0.000000 0.042855
#
#
# Mechanical properties :
#
#
# Convention : Reuss Voigt Hill
#
# Bulk Modulus (GPa) = 52.58019 58.44791 55.51405
# Shear Modulus (GPa) = 22.14584 25.95038 24.04811
#
# Velocity S-wave (km/s) = 3.41935 3.70143 3.56319
# Velocity P-wave (km/s) = 6.58401 7.00894 6.79980
#
# Compressibility (1/GPa) = 0.01901857
#
# Stress axis : x y z
#
# Youngs Moduli (GPa) = 62.06541 110.75338 77.10687
#
# Poissons Ratio (x) = 0.52512 0.19598
# Poissons Ratio (y) = 0.29427 0.17448
# Poissons Ratio (z) = 0.15775 0.25062
#
# Static dielectric constant tensor:
#      x y z
#    x 2.994620 0.000000 0.000000 
#    y 0.000000 3.655120 0.000000 
#    z 0.000000 0.000000 3.267190 
# 
# 
# High freq. dielectric constant tensor:
#      x y z
#    x 1.686330 0.000000 0.000000 
#    y 0.000000 1.758990 0.000000 
#    z 0.000000 0.000000 1.701060 
# 
# From -- ./inp_files/49730.got.cif
#   From: 2010.03.12/outbox.cif.g09.slc.cpg/sg65_25_cif.got.tgz:49730.got - 2010.04.10 20:52:16.
