data_PCOD8274033
_publ_section_title
;
Structure prediction by ZEFSAII (Michael W. Deem and Ramdas Pophale) SiO2 
 PCOD8274033
Probable space group: C M M M
;
_chemical_formula_sum "Si O2"
_cell_formula_units_Z 104
_cell_length_a 21.571292
_cell_length_b 8.676748
_cell_length_c 26.690578
_cell_angle_alpha 90.000000
_cell_angle_beta 90.000000
_cell_angle_gamma 90.000000
_cell_volume 4995.639845
_symmetry_space_group_name_H-M "C M M M"
_symmetry_group_IT_number 65
_symmetry_cell_setting 'orthorhombic'
loop_
_space_group_symop_operation_xyz
x,y,z
-x,-y,z
x,-y,-z
-x,y,-z
-x,-y,-z
x,y,-z
-x,y,z
x,-y,z
1/2+x,1/2+y,z
1/2-x,1/2-y,z
1/2+x,1/2-y,-z
1/2-x,1/2+y,-z
1/2-x,1/2-y,-z
1/2+x,1/2+y,-z
1/2-x,1/2+y,z
1/2+x,1/2-y,z
loop_
_atom_site_type_symbol
_atom_site_label
_atom_site_fract_x
_atom_site_fract_y
_atom_site_fract_z
Si Si1 0.376331 0.319103 0.285930
Si Si2 0.184648 0.682841 0.378071
Si Si3 0.500000 0.320868 0.847128
Si Si4 0.114221 0.324573 0.099667
Si Si5 0.318619 0.182609 0.000000
Si Si6 0.931029 0.317035 0.556680
Si Si7 0.000000 0.317646 0.263502
Si Si8 0.814850 0.324980 0.802491
O O1 0.375520 0.500000 0.294486
O O2 0.325197 0.239869 0.321282
O O3 0.443631 0.248961 0.296076
O O4 0.364042 0.276047 0.228115
O O5 0.188469 0.500000 0.380451
O O6 0.250000 0.750000 0.398477
O O7 0.125819 0.748242 0.409866
O O8 0.500000 0.500000 0.833288
O O9 0.558839 0.281864 0.881454
O O10 0.500000 0.228249 0.795086
O O11 0.089884 0.500000 0.093663
O O12 0.142317 0.260020 0.047981
O O13 0.170249 0.317571 0.139050
O O14 0.250000 0.250000 0.000000
O O15 0.311800 0.000000 0.000000
O O16 0.920129 0.259138 0.500000
O O17 0.929159 0.500000 0.558638
O O18 0.000000 0.261381 0.574942
O O19 0.000000 0.500000 0.266076
O O20 0.816046 0.500000 0.782593
O O21 0.750000 0.250000 0.791415
#
# Coordination Sequence:
#
# PCOD8274033 Si02
#       8
#    16  16   8  16   8  16   8  16
#     4  12  25  41  61  89 124 162 206 256 307 366
#     4  11  23  39  61  91 129 171 214 265 322 379
#     4  12  24  39  63  92 121 153 197 246 297 352
#     4  10  22  40  62  86 119 158 198 244 299 360
#     4  10  22  41  64  91 119 156 198 242 297 354
#     4   8  16  34  61  92 123 161 215 271 320 376
#     4  12  24  42  65  91 123 161 205 250 309 375
#     4  11  22  37  59  85 116 158 202 249 303 362
#
# _framework density 20.818155000000001
#
# number of rings (size 3 to 8) (size 9 to 14) (size 15 to 20)
#    0.000    1.385    1.538    5.077    1.077    1.846 
#    0.000    1.538    0.000    1.385    0.000    4.308 
#    0.000    0.000    0.000    0.000    0.000    0.000 
#
# Total GULP energy -644817.385076 kJ/mol
# GULP energy per Si atom -12400.334328 kJ/mol
# Density = 2.077077 g / cm^3
# Si number density = 20.818155 Si / 1000 Ang^3
#
#
#
# Elastic Constant Matrix: (Units=GPa)
#
#
# Indices 1 2 3 4 5 6 
#
# 1 145.3734 44.9311 41.4887 0.0000 0.0000 0.0000
# 2 44.9311 97.1970 23.7712 0.0000 0.0000 0.0000
# 3 41.4887 23.7712 85.2966 0.0000 0.0000 0.0000
# 4 0.0000 0.0000 0.0000 15.0174 0.0000 0.0000
# 5 0.0000 0.0000 0.0000 0.0000 38.0162 0.0000
# 6 0.0000 0.0000 0.0000 0.0000 0.0000 37.7910
#
#
#
# Elastic Compliance Matrix: (Units=1/GPa)
#
#
# Indices 1 2 3 4 5 6 
#
# 1 0.008857 -0.003263 -0.003399 0.000000 0.000000 0.000000
# 2 -0.003263 0.012243 -0.001825 0.000000 0.000000 0.000000
# 3 -0.003399 -0.001825 0.013886 0.000000 0.000000 0.000000
# 4 0.000000 0.000000 0.000000 0.066589 0.000000 0.000000
# 5 0.000000 0.000000 0.000000 0.000000 0.026305 0.000000
# 6 0.000000 0.000000 0.000000 0.000000 0.000000 0.026461
#
#
# Mechanical properties :
#
#
# Convention : Reuss Voigt Hill
#
# Bulk Modulus (GPa) = 55.51737 60.91655 58.21696
# Shear Modulus (GPa) = 28.19772 32.67666 30.43719
#
# Velocity S-wave (km/s) = 3.68432 3.96614 3.82782
# Velocity P-wave (km/s) = 6.69511 7.09215 6.89649
#
# Compressibility (1/GPa) = 0.01801238
#
# Stress axis : x y z
#
# Youngs Moduli (GPa) = 112.89941 81.67819 72.01719
#
# Poissons Ratio (x) = 0.26654 0.24478
# Poissons Ratio (y) = 0.36842 0.13141
# Poissons Ratio (z) = 0.38373 0.14904
#
# Static dielectric constant tensor:
#      x y z
#    x 3.950560 0.000000 0.000000 
#    y 0.000000 3.565910 0.000000 
#    z 0.000000 0.000000 3.818750 
# 
# 
# High freq. dielectric constant tensor:
#      x y z
#    x 1.830680 0.000000 0.000000 
#    y 0.000000 1.798690 0.000000 
#    z 0.000000 0.000000 1.811930 
# 
# From -- ./inp_files/75564.got.cif
#   From: 2010.03.12/outbox.cif.g09.slc.cpg/sg65_38_cif.got.tgz:75564.got - 2010.04.10 20:52:16.
