data_PCOD8274917
_publ_section_title
;
Structure prediction by ZEFSAII (Michael W. Deem and Ramdas Pophale) SiO2 
 PCOD8274917
Probable space group: C M M M
;
_chemical_formula_sum "Si O2"
_cell_formula_units_Z 104
_cell_length_a 28.179006
_cell_length_b 23.460804
_cell_length_c 9.500084
_cell_angle_alpha 90.000000
_cell_angle_beta 90.000000
_cell_angle_gamma 90.000000
_cell_volume 6280.525831
_symmetry_space_group_name_H-M "C M M M"
_symmetry_group_IT_number 65
_symmetry_cell_setting 'orthorhombic'
loop_
_space_group_symop_operation_xyz
x,y,z
-x,-y,z
x,-y,-z
-x,y,-z
-x,-y,-z
x,y,-z
-x,y,z
x,-y,z
1/2+x,1/2+y,z
1/2-x,1/2-y,z
1/2+x,1/2-y,-z
1/2-x,1/2+y,-z
1/2-x,1/2-y,-z
1/2+x,1/2+y,-z
1/2-x,1/2+y,z
1/2+x,1/2-y,z
loop_
_atom_site_type_symbol
_atom_site_label
_atom_site_fract_x
_atom_site_fract_y
_atom_site_fract_z
Si Si1 0.500000 0.432136 0.342183
Si Si2 0.267054 0.936868 0.832714
Si Si3 0.087190 0.932835 0.161046
Si Si4 0.553321 0.935306 0.167434
Si Si5 0.356428 0.132551 0.833240
Si Si6 0.696216 0.244365 0.833633
Si Si7 0.178339 0.868930 0.833671
O O1 0.500000 0.500000 0.344213
O O2 0.500000 0.407264 0.500000
O O3 0.545336 0.409313 0.258329
O O4 0.318577 0.915018 0.786950
O O5 0.226866 0.894830 0.769677
O O6 0.259440 0.000000 0.770524
O O7 0.263430 0.938057 0.000000
O O8 0.134274 0.904637 0.224288
O O9 0.093284 0.000000 0.172011
O O10 0.077009 0.914552 0.000000
O O11 0.500000 0.917407 0.217029
O O12 0.592345 0.889455 0.226400
O O13 0.564554 0.000000 0.220138
O O14 0.555707 0.935224 0.000000
O O15 0.336563 0.193021 0.771152
O O16 0.360310 0.138276 0.000000
O O17 0.750000 0.250000 0.772828
O O18 0.670624 0.303208 0.791880
O O19 0.700467 0.234540 0.000000
O O20 0.181107 0.875452 0.000000
#
# Coordination Sequence:
#
# PCOD8274917 Si02
#       7
#     8  16  16  16  16  16  16
#     4   9  17  29  45  63  81 103 133 167 202 243
#     4   9  14  18  26  42  62  83 112 151 192 234
#     4   9  16  26  41  60  82 107 133 164 205 247
#     4   8  13  20  28  37  49  67  98 143 189 229
#     4   9  14  19  28  39  54  80 112 147 190 234
#     4   9  14  21  30  41  60  90 122 153 189 231
#     4   9  15  22  32  47  69  97 127 157 191 235
#
# _framework density 16.559123
#
# number of rings (size 3 to 8) (size 9 to 14) (size 15 to 20)
#    0.000    3.154    1.538    1.615    0.000    4.615 
#    0.000    0.000    1.692    0.000    0.000    0.000 
#    0.000    0.615    0.000    0.000    0.000    0.000 
#
# Total GULP energy -644193.948351 kJ/mol
# GULP energy per Si atom -12388.345161 kJ/mol
# Density = 1.652143 g / cm^3
# Si number density = 16.559123 Si / 1000 Ang^3
#
#
#
# Elastic Constant Matrix: (Units=GPa)
#
#
# Indices 1 2 3 4 5 6 
#
# 1 154.6397 68.4169 18.9379 0.0000 0.0000 0.0000
# 2 68.4169 105.3274 6.1579 0.0000 0.0000 0.0000
# 3 18.9379 6.1579 18.6678 0.0000 0.0000 0.0000
# 4 0.0000 0.0000 0.0000 2.2162 0.0000 0.0000
# 5 0.0000 0.0000 0.0000 0.0000 -0.8924 0.0000
# 6 0.0000 0.0000 0.0000 0.0000 0.0000 24.3999
#
#
#
# Elastic Compliance Matrix: (Units=1/GPa)
#
#
# Indices 1 2 3 4 5 6 
#
# 1 0.010203 -0.006141 -0.008325 0.000000 0.000000 0.000000
# 2 -0.006141 0.013377 0.001817 0.000000 0.000000 0.000000
# 3 -0.008325 0.001817 0.061414 0.000000 0.000000 0.000000
# 4 0.000000 0.000000 0.000000 0.451231 0.000000 0.000000
# 5 0.000000 0.000000 0.000000 0.000000 -1.120592 0.000000
# 6 0.000000 0.000000 0.000000 0.000000 0.000000 0.040984
#
#
# Mechanical properties :
#
#
# Convention : Reuss Voigt Hill
#
# Bulk Modulus (GPa) = 16.75134 51.74002 34.24568
# Shear Modulus (GPa) = -10.03640 17.48621 3.72490
#
# Velocity S-wave (km/s) = -2.46457 3.25312 1.50145
# Velocity P-wave (km/s) = 1.42802 6.73972 4.87150
#
# Compressibility (1/GPa) = 0.05969672
#
# Stress axis : x y z
#
# Youngs Moduli (GPa) = 98.01022 74.75621 16.28284
#
# Poissons Ratio (x) = 0.45906 0.13555
# Poissons Ratio (y) = 0.60186 -0.02959
# Poissons Ratio (z) = 0.81594 -0.13584
#
# Static dielectric constant tensor:
#      x y z
#    x 3.458320 0.000000 0.000000 
#    y 0.000000 3.233990 0.000000 
#    z 0.000000 0.000000 2.365500 
# 
# 
# High freq. dielectric constant tensor:
#      x y z
#    x 1.649140 0.000000 0.000000 
#    y 0.000000 1.632950 0.000000 
#    z 0.000000 0.000000 1.540970 
# 
# From -- ./inp_files/18854.got.cif
#   From: 2010.03.12/outbox.cif.g09.slc.cpg/sg65_10_cif.got.tgz:18854.got - 2010.04.10 20:52:16.
