data_PCOD8274770
_publ_section_title
;
Structure prediction by ZEFSAII (Michael W. Deem and Ramdas Pophale) SiO2 
 PCOD8274770
Probable space group: C M M M
;
_chemical_formula_sum "Si O2"
_cell_formula_units_Z 112
_cell_length_a 18.196301
_cell_length_b 14.406277
_cell_length_c 22.805636
_cell_angle_alpha 90.000000
_cell_angle_beta 90.000000
_cell_angle_gamma 90.000000
_cell_volume 5978.291145
_symmetry_space_group_name_H-M "C M M M"
_symmetry_group_IT_number 65
_symmetry_cell_setting 'orthorhombic'
loop_
_space_group_symop_operation_xyz
x,y,z
-x,-y,z
x,-y,-z
-x,y,-z
-x,-y,-z
x,y,-z
-x,y,z
x,-y,z
1/2+x,1/2+y,z
1/2-x,1/2-y,z
1/2+x,1/2-y,-z
1/2-x,1/2+y,-z
1/2-x,1/2-y,-z
1/2+x,1/2+y,-z
1/2-x,1/2+y,z
1/2+x,1/2-y,z
loop_
_atom_site_type_symbol
_atom_site_label
_atom_site_fract_x
_atom_site_fract_y
_atom_site_fract_z
Si Si1 0.083634 0.108976 0.253518
Si Si2 0.164159 0.228441 0.160384
Si Si3 0.085063 0.103030 0.387575
Si Si4 0.667766 0.769637 0.433666
Si Si5 0.915610 0.106401 0.068499
Si Si6 0.082503 0.390551 0.343343
Si Si7 0.413363 0.104153 0.788960
O O1 0.142617 0.164514 0.215505
O O2 0.096912 0.136658 0.320832
O O3 0.000000 0.135564 0.234985
O O4 0.096046 0.000000 0.244053
O O5 0.250000 0.250000 0.158742
O O6 0.138804 0.176160 0.101635
O O7 0.123980 0.327501 0.164690
O O8 0.124520 0.172944 0.431151
O O9 0.000000 0.101337 0.403456
O O10 0.118330 0.000000 0.396306
O O11 0.663739 0.807933 0.500000
O O12 0.750000 0.750000 0.413516
O O13 0.636166 0.846309 0.390384
O O14 0.000000 0.127410 0.086066
O O15 0.896781 0.000000 0.085351
O O16 0.903535 0.122744 0.000000
O O17 0.084712 0.500000 0.351589
O O18 0.107184 0.364660 0.277322
O O19 0.000000 0.353054 0.354678
O O20 0.500000 0.107708 0.797386
O O21 0.384381 0.000000 0.801078
#
# Coordination Sequence:
#
# PCOD8274770 Si02
#       7
#    16  16  16  16  16  16  16
#     4   9  18  34  56  80 105 134 172 219 266 311
#     4  12  23  31  49  82 118 147 171 207 259 314
#     4   9  19  36  57  79 101 129 169 216 265 316
#     4  11  24  37  49  71 103 136 169 207 259 324
#     4   9  19  38  63  85 104 135 183 231 268 303
#     4   9  19  37  59  78  96 126 173 225 266 296
#     4   9  19  36  55  75 103 140 179 214 249 300
#
# _framework density 18.734451
#
# number of rings (size 3 to 8) (size 9 to 14) (size 15 to 20)
#    0.000    2.286    0.000    5.143    0.000    9.429 
#    0.000    5.714    0.000    0.429    0.000    2.000 
#    0.000    0.000    0.000    0.000    0.000    0.000 
#
# Total GULP energy -694426.022985 kJ/mol
# GULP energy per Si atom -12400.464696 kJ/mol
# Density = 1.869181 g / cm^3
# Si number density = 18.734451 Si / 1000 Ang^3
#
#
#
# Elastic Constant Matrix: (Units=GPa)
#
#
# Indices 1 2 3 4 5 6 
#
# 1 93.7459 46.2606 47.9475 0.0000 0.0000 0.0000
# 2 46.2606 76.9049 42.6768 0.0000 0.0000 0.0000
# 3 47.9475 42.6768 70.6666 0.0000 0.0000 0.0000
# 4 0.0000 0.0000 0.0000 29.8872 0.0000 0.0000
# 5 0.0000 0.0000 0.0000 0.0000 14.6365 0.0000
# 6 0.0000 0.0000 0.0000 0.0000 0.0000 4.7089
#
#
#
# Elastic Compliance Matrix: (Units=1/GPa)
#
#
# Indices 1 2 3 4 5 6 
#
# 1 0.018064 -0.006113 -0.008565 0.000000 0.000000 0.000000
# 2 -0.006113 0.021626 -0.008912 0.000000 0.000000 0.000000
# 3 -0.008565 -0.008912 0.025345 0.000000 0.000000 0.000000
# 4 0.000000 0.000000 0.000000 0.033459 0.000000 0.000000
# 5 0.000000 0.000000 0.000000 0.000000 0.068322 0.000000
# 6 0.000000 0.000000 0.000000 0.000000 0.000000 0.212362
#
#
# Mechanical properties :
#
#
# Convention : Reuss Voigt Hill
#
# Bulk Modulus (GPa) = 56.01018 57.23191 56.62105
# Shear Modulus (GPa) = 11.56572 16.80871 14.18722
#
# Velocity S-wave (km/s) = 2.48735 2.99859 2.75486
# Velocity P-wave (km/s) = 6.18150 6.52718 6.35669
#
# Compressibility (1/GPa) = 0.01785390
#
# Stress axis : x y z
#
# Youngs Moduli (GPa) = 55.35725 46.23999 39.45619
#
# Poissons Ratio (x) = 0.28269 0.33793
# Poissons Ratio (y) = 0.33843 0.35165
# Poissons Ratio (z) = 0.47412 0.41211
#
# Static dielectric constant tensor:
#      x y z
#    x 3.266970 0.000000 0.000000 
#    y 0.000000 3.615170 0.000000 
#    z 0.000000 0.000000 3.315130 
# 
# 
# High freq. dielectric constant tensor:
#      x y z
#    x 1.711540 0.000000 0.000000 
#    y 0.000000 1.739590 0.000000 
#    z 0.000000 0.000000 1.715260 
# 
# From -- ./inp_files/69998.got.cif
#   From: 2010.03.12/outbox.cif.g09.slc.cpg/sg65_35_cif.got.tgz:69998.got - 2010.04.10 20:52:16.
