data_PCOD8274550
_publ_section_title
;
Structure prediction by ZEFSAII (Michael W. Deem and Ramdas Pophale) SiO2 
 PCOD8274550
Probable space group: C M M M
;
_chemical_formula_sum "Si O2"
_cell_formula_units_Z 72
_cell_length_a 17.884589
_cell_length_b 9.153915
_cell_length_c 23.584721
_cell_angle_alpha 90.000000
_cell_angle_beta 90.000000
_cell_angle_gamma 90.000000
_cell_volume 3861.149191
_symmetry_space_group_name_H-M "C M M M"
_symmetry_group_IT_number 65
_symmetry_cell_setting 'orthorhombic'
loop_
_space_group_symop_operation_xyz
x,y,z
-x,-y,z
x,-y,-z
-x,y,-z
-x,-y,-z
x,y,-z
-x,y,z
x,-y,z
1/2+x,1/2+y,z
1/2-x,1/2-y,z
1/2+x,1/2-y,-z
1/2-x,1/2+y,-z
1/2-x,1/2-y,-z
1/2+x,1/2+y,-z
1/2-x,1/2+y,z
1/2+x,1/2-y,z
loop_
_atom_site_type_symbol
_atom_site_label
_atom_site_fract_x
_atom_site_fract_y
_atom_site_fract_z
Si Si1 0.583030 0.826515 0.790495
Si Si2 0.329072 0.175071 0.099545
Si Si3 0.411636 0.332469 0.000000
Si Si4 0.589078 0.838349 0.667221
Si Si5 0.911150 0.163673 0.438294
O O1 0.500000 0.764851 0.804961
O O2 0.641375 0.778286 0.838443
O O3 0.610422 0.767943 0.728648
O O4 0.577772 0.000000 0.786690
O O5 0.250000 0.250000 0.089390
O O6 0.385559 0.243031 0.054636
O O7 0.324056 0.000000 0.092101
O O8 0.380832 0.500000 0.000000
O O9 0.500000 0.334361 0.000000
O O10 0.500000 0.843129 0.662946
O O11 0.624565 0.750138 0.614581
O O12 0.622847 0.000000 0.662410
O O13 0.888270 0.231037 0.500000
O O14 0.000000 0.164483 0.433008
O O15 0.880351 0.000000 0.434489
#
# Coordination Sequence:
#
# PCOD8274550 Si02
#       5
#    16  16   8  16  16
#     4   8  15  29  49  71  94 124 163 204 245 292
#     4  11  22  37  57  79 106 138 171 205 246 296
#     4  11  24  41  60  83 109 133 164 207 248 289
#     4   8  13  22  37  57  80 108 148 195 236 277
#     4   8  13  20  29  45  75 114 150 183 226 282
#
# _framework density 18.647299
#
# number of rings (size 3 to 8) (size 9 to 14) (size 15 to 20)
#    0.000    3.000    0.000    4.000    0.000    2.222 
#    0.000    4.444    0.000    5.333    0.000    0.000 
#    0.000    0.889    0.000    2.000    0.000    5.333 
#
# Total GULP energy -446042.596245 kJ/mol
# GULP energy per Si atom -12390.072118 kJ/mol
# Density = 1.860486 g / cm^3
# Si number density = 18.647299 Si / 1000 Ang^3
#
#
#
# Elastic Constant Matrix: (Units=GPa)
#
#
# Indices 1 2 3 4 5 6 
#
# 1 42.3414 21.9919 29.2810 0.0000 0.0000 0.0000
# 2 21.9919 80.0834 60.0265 0.0000 0.0000 0.0000
# 3 29.2810 60.0265 172.9148 0.0000 0.0000 0.0000
# 4 0.0000 0.0000 0.0000 78.3462 0.0000 0.0000
# 5 0.0000 0.0000 0.0000 0.0000 1.7612 0.0000
# 6 0.0000 0.0000 0.0000 0.0000 0.0000 12.6958
#
#
#
# Elastic Compliance Matrix: (Units=1/GPa)
#
#
# Indices 1 2 3 4 5 6 
#
# 1 0.028554 -0.005700 -0.002856 0.000000 0.000000 0.000000
# 2 -0.005700 0.018017 -0.005289 0.000000 0.000000 0.000000
# 3 -0.002856 -0.005289 0.008103 0.000000 0.000000 0.000000
# 4 0.000000 0.000000 0.000000 0.012764 0.000000 0.000000
# 5 0.000000 0.000000 0.000000 0.000000 0.567781 0.000000
# 6 0.000000 0.000000 0.000000 0.000000 0.000000 0.078767
#
#
# Mechanical properties :
#
#
# Convention : Reuss Voigt Hill
#
# Bulk Modulus (GPa) = 37.06196 57.54873 47.30534
# Shear Modulus (GPa) = 6.66071 30.82997 18.74534
#
# Velocity S-wave (km/s) = 1.89201 4.07052 3.17402
# Velocity P-wave (km/s) = 4.96904 7.28154 6.23346
#
# Compressibility (1/GPa) = 0.02698185
#
# Stress axis : x y z
#
# Youngs Moduli (GPa) = 35.02196 55.50363 123.41077
#
# Poissons Ratio (x) = 0.31638 0.35251
# Poissons Ratio (y) = 0.19963 0.65275
# Poissons Ratio (z) = 0.10004 0.29357
#
# Static dielectric constant tensor:
#      x y z
#    x 2.916610 0.000000 0.000000 
#    y 0.000000 3.423100 0.000000 
#    z 0.000000 0.000000 4.051520 
# 
# 
# High freq. dielectric constant tensor:
#      x y z
#    x 1.668690 0.000000 0.000000 
#    y 0.000000 1.701580 0.000000 
#    z 0.000000 0.000000 1.751020 
# 
# From -- ./inp_files/70320.got.cif
#   From: 2010.03.12/outbox.cif.g09.slc.cpg/sg65_36_cif.got.tgz:70320.got - 2010.04.10 20:52:16.
