data_PCOD8274618
_publ_section_title
;
Structure prediction by ZEFSAII (Michael W. Deem and Ramdas Pophale) SiO2 
 PCOD8274618
Probable space group: C M M M
;
_chemical_formula_sum "Si O2"
_cell_formula_units_Z 64
_cell_length_a 8.647992
_cell_length_b 15.462661
_cell_length_c 23.585354
_cell_angle_alpha 90.000000
_cell_angle_beta 90.000000
_cell_angle_gamma 90.000000
_cell_volume 3153.856382
_symmetry_space_group_name_H-M "C M M M"
_symmetry_group_IT_number 65
_symmetry_cell_setting 'orthorhombic'
loop_
_space_group_symop_operation_xyz
x,y,z
-x,-y,z
x,-y,-z
-x,y,-z
-x,-y,-z
x,y,-z
-x,y,z
x,-y,z
1/2+x,1/2+y,z
1/2-x,1/2-y,z
1/2+x,1/2-y,-z
1/2-x,1/2+y,-z
1/2-x,1/2-y,-z
1/2+x,1/2+y,-z
1/2-x,1/2+y,z
1/2+x,1/2-y,z
loop_
_atom_site_type_symbol
_atom_site_label
_atom_site_fract_x
_atom_site_fract_y
_atom_site_fract_z
Si Si1 0.816972 0.840062 0.620389
Si Si2 0.316289 0.596929 0.500000
Si Si3 0.818685 0.601302 0.000000
Si Si4 0.677405 0.000000 0.181936
Si Si5 0.676828 0.000000 0.315932
Si Si6 0.316820 0.659564 0.117396
O O1 0.750000 0.750000 0.643245
O O2 0.755523 0.854922 0.556189
O O3 0.000000 0.837734 0.622412
O O4 0.760148 0.915336 0.661060
O O5 0.248543 0.500000 0.500000
O O6 0.500000 0.593039 0.500000
O O7 0.742747 0.644638 0.054204
O O8 0.782233 0.500000 0.000000
O O9 0.000000 0.620545 0.000000
O O10 0.691122 0.000000 0.248908
O O11 0.760157 0.915193 0.158852
O O12 0.500000 0.000000 0.160977
O O13 0.500000 0.000000 0.336095
O O14 0.500000 0.662365 0.117665
O O15 0.250000 0.750000 0.140553
#
# Coordination Sequence:
#
# PCOD8274618 Si02
#       6
#    16   8   8   8   8  16
#     4  11  22  39  64  92 127 164 205 254 309 371
#     4   9  17  34  60  91 124 162 202 249 308 369
#     4  11  22  39  66  96 133 171 205 251 310 370
#     4  11  25  46  67  90 123 162 210 265 314 367
#     4  11  25  44  65  90 122 162 211 261 312 369
#     4  12  25  42  67  97 130 166 209 256 310 372
#
# _framework density 20.292618000000001
#
# number of rings (size 3 to 8) (size 9 to 14) (size 15 to 20)
#    0.000    1.000    2.500    4.875    0.000    3.500 
#    0.000    2.500    0.000    0.000    0.000    0.000 
#    0.000    0.000    0.000    0.000    0.000    0.000 
#
# Total GULP energy -396985.529843 kJ/mol
# GULP energy per Si atom -12405.797808 kJ/mol
# Density = 2.024643 g / cm^3
# Si number density = 20.292618 Si / 1000 Ang^3
#
#
#
# Elastic Constant Matrix: (Units=GPa)
#
#
# Indices 1 2 3 4 5 6 
#
# 1 135.5407 71.1546 43.9391 0.0000 0.0000 0.0000
# 2 71.1546 189.0292 48.2537 0.0000 0.0000 0.0000
# 3 43.9391 48.2537 84.0773 0.0000 0.0000 0.0000
# 4 0.0000 0.0000 0.0000 -4.6112 0.0000 0.0000
# 5 0.0000 0.0000 0.0000 0.0000 34.3752 0.0000
# 6 0.0000 0.0000 0.0000 0.0000 0.0000 35.4294
#
#
#
# Elastic Compliance Matrix: (Units=1/GPa)
#
#
# Indices 1 2 3 4 5 6 
#
# 1 0.010050 -0.002862 -0.003610 0.000000 0.000000 0.000000
# 2 -0.002862 0.007013 -0.002529 0.000000 0.000000 0.000000
# 3 -0.003610 -0.002529 0.015232 0.000000 0.000000 0.000000
# 4 0.000000 0.000000 0.000000 -0.216862 0.000000 0.000000
# 5 0.000000 0.000000 0.000000 0.000000 0.029091 0.000000
# 6 0.000000 0.000000 0.000000 0.000000 0.000000 0.028225
#
#
# Mechanical properties :
#
#
# Convention : Reuss Voigt Hill
#
# Bulk Modulus (GPa) = 69.96240 81.70464 75.83352
# Shear Modulus (GPa) = -47.85412 29.39201 -9.23106
#
# Velocity S-wave (km/s) = -4.86140 3.80993 -2.13515
# Velocity P-wave (km/s) = 1.74375 7.72688 5.60113
#
# Compressibility (1/GPa) = 0.01429339
#
# Stress axis : x y z
#
# Youngs Moduli (GPa) = 99.49831 142.59105 65.65071
#
# Poissons Ratio (x) = 0.40805 0.23700
# Poissons Ratio (y) = 0.28473 0.16606
# Poissons Ratio (z) = 0.35919 0.36067
#
# Static dielectric constant tensor:
#      x y z
#    x 3.757640 0.000000 0.000000 
#    y 0.000000 3.923790 0.000000 
#    z 0.000000 0.000000 3.767750 
# 
# 
# High freq. dielectric constant tensor:
#      x y z
#    x 1.798740 0.000000 0.000000 
#    y 0.000000 1.813270 0.000000 
#    z 0.000000 0.000000 1.791940 
# 
# From -- ./inp_files/66898.got.cif
#   From: 2010.03.12/outbox.cif.g09.slc.cpg/sg65_34_cif.got.tgz:66898.got - 2010.04.10 20:52:16.
