data_PCOD8274896
_publ_section_title
;
Structure prediction by ZEFSAII (Michael W. Deem and Ramdas Pophale) SiO2 
 PCOD8274896
Probable space group: C M M M
;
_chemical_formula_sum "Si O2"
_cell_formula_units_Z 96
_cell_length_a 9.677183
_cell_length_b 27.270996
_cell_length_c 24.193045
_cell_angle_alpha 90.000000
_cell_angle_beta 90.000000
_cell_angle_gamma 90.000000
_cell_volume 6384.699868
_symmetry_space_group_name_H-M "C M M M"
_symmetry_group_IT_number 65
_symmetry_cell_setting 'orthorhombic'
loop_
_space_group_symop_operation_xyz
x,y,z
-x,-y,z
x,-y,-z
-x,y,-z
-x,-y,-z
x,y,-z
-x,y,z
x,-y,z
1/2+x,1/2+y,z
1/2-x,1/2-y,z
1/2+x,1/2-y,-z
1/2-x,1/2+y,-z
1/2-x,1/2-y,-z
1/2+x,1/2+y,-z
1/2-x,1/2+y,z
1/2+x,1/2-y,z
loop_
_atom_site_type_symbol
_atom_site_label
_atom_site_fract_x
_atom_site_fract_y
_atom_site_fract_z
Si Si1 0.339188 0.557506 0.660866
Si Si2 0.162341 0.104080 0.227504
Si Si3 0.162399 0.203220 0.169579
Si Si4 0.835101 0.946034 0.881393
Si Si5 0.345039 0.941767 0.561061
Si Si6 0.664180 0.350706 0.060630
O O1 0.500000 0.568203 0.651164
O O2 0.312009 0.500000 0.670777
O O3 0.277604 0.587185 0.713435
O O4 0.259658 0.578345 0.607253
O O5 0.196564 0.160674 0.213869
O O6 0.222188 0.069438 0.178969
O O7 0.000000 0.095852 0.229455
O O8 0.250000 0.250000 0.188010
O O9 0.213093 0.186764 0.108197
O O10 0.000000 0.215768 0.169610
O O11 0.783107 0.905909 0.925852
O O12 0.000000 0.946277 0.880075
O O13 0.777801 0.000000 0.897002
O O14 0.300621 0.922632 0.500000
O O15 0.500000 0.923571 0.574810
O O16 0.340551 0.000000 0.561031
O O17 0.500000 0.351101 0.060493
O O18 0.721816 0.335243 0.000000
#
# Coordination Sequence:
#
# PCOD8274896 Si02
#       6
#    16  16  16  16  16  16
#     4   9  15  22  36  57  77  99 129 160 184 213
#     4   8  14  24  36  52  75  99 122 152 192 230
#     4   9  17  29  43  56  73  98 124 153 192 233
#     4   8  12  18  30  48  72 102 128 148 178 224
#     4   8  14  24  35  48  73 109 139 158 180 210
#     4   8  14  23  34  51  74  97 122 153 188 224
#
# _framework density 15.035945999999999
#
# number of rings (size 3 to 8) (size 9 to 14) (size 15 to 20)
#    0.000    3.667    0.000    3.000    0.000    3.000 
#    0.000    4.167    0.000    0.000    0.000    0.000 
#    0.000    6.667    0.000    7.500    0.000    9.333 
#
# Total GULP energy -594681.989692 kJ/mol
# GULP energy per Si atom -12389.208119 kJ/mol
# Density = 1.500172 g / cm^3
# Si number density = 15.035946 Si / 1000 Ang^3
#
#
#
# Elastic Constant Matrix: (Units=GPa)
#
#
# Indices 1 2 3 4 5 6 
#
# 1 28.7164 20.3591 31.2124 0.0000 0.0000 0.0000
# 2 20.3591 61.1153 24.1401 0.0000 0.0000 0.0000
# 3 31.2124 24.1401 114.9618 0.0000 0.0000 0.0000
# 4 0.0000 0.0000 0.0000 14.4323 0.0000 0.0000
# 5 0.0000 0.0000 0.0000 0.0000 9.6244 0.0000
# 6 0.0000 0.0000 0.0000 0.0000 0.0000 14.2759
#
#
#
# Elastic Compliance Matrix: (Units=1/GPa)
#
#
# Indices 1 2 3 4 5 6 
#
# 1 0.059376 -0.014625 -0.013050 0.000000 0.000000 0.000000
# 2 -0.014625 0.021445 -0.000532 0.000000 0.000000 0.000000
# 3 -0.013050 -0.000532 0.012353 0.000000 0.000000 0.000000
# 4 0.000000 0.000000 0.000000 0.069289 0.000000 0.000000
# 5 0.000000 0.000000 0.000000 0.000000 0.103903 0.000000
# 6 0.000000 0.000000 0.000000 0.000000 0.000000 0.070048
#
#
# Mechanical properties :
#
#
# Convention : Reuss Voigt Hill
#
# Bulk Modulus (GPa) = 27.20355 39.57961 33.39158
# Shear Modulus (GPa) = 12.34319 16.27199 14.30759
#
# Velocity S-wave (km/s) = 2.86827 3.29326 3.08808
# Velocity P-wave (km/s) = 5.39452 6.39071 5.91363
#
# Compressibility (1/GPa) = 0.03675990
#
# Stress axis : x y z
#
# Youngs Moduli (GPa) = 16.84180 46.63132 80.94988
#
# Poissons Ratio (x) = 0.68199 1.05637
# Poissons Ratio (y) = 0.24631 0.04309
# Poissons Ratio (z) = 0.21978 0.02482
#
# Static dielectric constant tensor:
#      x y z
#    x 2.489430 0.000000 0.000000 
#    y 0.000000 2.729530 0.000000 
#    z 0.000000 0.000000 3.304160 
# 
# 
# High freq. dielectric constant tensor:
#      x y z
#    x 1.525410 0.000000 0.000000 
#    y 0.000000 1.547400 0.000000 
#    z 0.000000 0.000000 1.579260 
# 
# From -- ./inp_files/61729.got.cif
#   From: 2010.03.12/outbox.cif.g09.slc.cpg/sg65_31_cif.got.tgz:61729.got - 2010.04.10 20:52:16.
