data_PCOD8274778
_publ_section_title
;
Structure prediction by ZEFSAII (Michael W. Deem and Ramdas Pophale) SiO2 
 PCOD8274778
Probable space group: C M M M
;
_chemical_formula_sum "Si O2"
_cell_formula_units_Z 88
_cell_length_a 9.254325
_cell_length_b 20.573712
_cell_length_c 24.245914
_cell_angle_alpha 90.000000
_cell_angle_beta 90.000000
_cell_angle_gamma 90.000000
_cell_volume 4616.320612
_symmetry_space_group_name_H-M "C M M M"
_symmetry_group_IT_number 65
_symmetry_cell_setting 'orthorhombic'
loop_
_space_group_symop_operation_xyz
x,y,z
-x,-y,z
x,-y,-z
-x,y,-z
-x,-y,-z
x,y,-z
-x,y,z
x,-y,z
1/2+x,1/2+y,z
1/2-x,1/2-y,z
1/2+x,1/2-y,-z
1/2-x,1/2+y,-z
1/2-x,1/2-y,-z
1/2+x,1/2+y,-z
1/2-x,1/2+y,z
1/2+x,1/2-y,z
loop_
_atom_site_type_symbol
_atom_site_label
_atom_site_fract_x
_atom_site_fract_y
_atom_site_fract_z
Si Si1 0.831744 0.640487 0.935069
Si Si2 0.169293 0.426440 0.645256
Si Si3 0.330824 0.814287 0.436780
Si Si4 0.330510 0.000000 0.059527
Si Si5 0.830020 0.811150 0.163622
Si Si6 0.668138 0.573480 0.243732
O O1 0.789491 0.568009 0.911798
O O2 0.730594 0.686853 0.899056
O O3 0.000000 0.656073 0.924062
O O4 0.796378 0.648206 0.000000
O O5 0.210668 0.500000 0.627198
O O6 0.220477 0.377003 0.597749
O O7 0.247253 0.406709 0.701480
O O8 0.000000 0.420390 0.656006
O O9 0.288915 0.828492 0.500000
O O10 0.500000 0.801720 0.429764
O O11 0.250000 0.750000 0.414907
O O12 0.500000 0.000000 0.049214
O O13 0.253237 0.000000 0.000000
O O14 0.750000 0.750000 0.192691
O O15 0.787456 0.876584 0.195924
O O16 0.000000 0.798974 0.162401
O O17 0.500000 0.579060 0.257569
O O18 0.708450 0.500000 0.224719
#
# Coordination Sequence:
#
# PCOD8274778 Si02
#       6
#    16  16  16   8  16  16
#     4   9  18  34  56  81 109 139 172 211 258 314
#     4   9  18  33  54  80 106 135 176 221 264 312
#     4   9  18  32  50  75 109 146 181 218 260 308
#     4   7  12  26  49  77 105 131 161 199 244 297
#     4  11  24  39  56  78 107 140 176 218 264 318
#     4   9  20  39  59  78 103 137 175 218 269 318
#
# _framework density 19.062799999999999
#
# number of rings (size 3 to 8) (size 9 to 14) (size 15 to 20)
#    0.000    2.818    0.000    1.636    1.273    4.000 
#    0.000    5.455    0.000    1.636    0.000    5.091 
#    0.000    0.000    0.000    0.000    0.000    0.000 
#
# Total GULP energy -545310.037489 kJ/mol
# GULP energy per Si atom -12393.409943 kJ/mol
# Density = 1.901941 g / cm^3
# Si number density = 19.062800 Si / 1000 Ang^3
#
#
#
# Elastic Constant Matrix: (Units=GPa)
#
#
# Indices 1 2 3 4 5 6 
#
# 1 56.2257 53.6295 46.1588 0.0000 0.0000 0.0000
# 2 53.6295 133.1519 74.0678 0.0000 0.0000 0.0000
# 3 46.1588 74.0678 99.3668 0.0000 0.0000 0.0000
# 4 0.0000 0.0000 0.0000 7.4868 0.0000 0.0000
# 5 0.0000 0.0000 0.0000 0.0000 28.7540 0.0000
# 6 0.0000 0.0000 0.0000 0.0000 0.0000 29.2813
#
#
#
# Elastic Compliance Matrix: (Units=1/GPa)
#
#
# Indices 1 2 3 4 5 6 
#
# 1 0.033286 -0.008209 -0.009343 0.000000 0.000000 0.000000
# 2 -0.008209 0.014855 -0.007259 0.000000 0.000000 0.000000
# 3 -0.009343 -0.007259 0.019815 0.000000 0.000000 0.000000
# 4 0.000000 0.000000 0.000000 0.133569 0.000000 0.000000
# 5 0.000000 0.000000 0.000000 0.000000 0.034778 0.000000
# 6 0.000000 0.000000 0.000000 0.000000 0.000000 0.034152
#
#
# Mechanical properties :
#
#
# Convention : Reuss Voigt Hill
#
# Bulk Modulus (GPa) = 54.54851 70.71742 62.63297
# Shear Modulus (GPa) = 15.32859 20.76363 18.04611
#
# Velocity S-wave (km/s) = 2.83876 3.30392 3.08013
# Velocity P-wave (km/s) = 6.27870 7.19250 6.75108
#
# Compressibility (1/GPa) = 0.01833231
#
# Stress axis : x y z
#
# Youngs Moduli (GPa) = 30.04265 67.31859 50.46718
#
# Poissons Ratio (x) = 0.55264 0.47152
# Poissons Ratio (y) = 0.24663 0.36635
# Poissons Ratio (z) = 0.28069 0.48868
#
# Static dielectric constant tensor:
#      x y z
#    x 3.278880 0.000000 0.000000 
#    y 0.000000 3.937900 0.000000 
#    z 0.000000 0.000000 3.325780 
# 
# 
# High freq. dielectric constant tensor:
#      x y z
#    x 1.725210 0.000000 0.000000 
#    y 0.000000 1.757200 0.000000 
#    z 0.000000 0.000000 1.723630 
# 
# From -- ./inp_files/67523.got.cif
#   From: 2010.03.12/outbox.cif.g09.slc.cpg/sg65_34_cif.got.tgz:67523.got - 2010.04.10 20:52:16.
