data_PCOD8274452
_publ_section_title
;
Structure prediction by ZEFSAII (Michael W. Deem and Ramdas Pophale) SiO2 
 PCOD8274452
Probable space group: C M M M
;
_chemical_formula_sum "Si O2"
_cell_formula_units_Z 72
_cell_length_a 13.585155
_cell_length_b 29.299052
_cell_length_c 10.050978
_cell_angle_alpha 90.000000
_cell_angle_beta 90.000000
_cell_angle_gamma 90.000000
_cell_volume 4000.612511
_symmetry_space_group_name_H-M "C M M M"
_symmetry_group_IT_number 65
_symmetry_cell_setting 'orthorhombic'
loop_
_space_group_symop_operation_xyz
x,y,z
-x,-y,z
x,-y,-z
-x,y,-z
-x,-y,-z
x,y,-z
-x,y,z
x,-y,z
1/2+x,1/2+y,z
1/2-x,1/2-y,z
1/2+x,1/2-y,-z
1/2-x,1/2+y,-z
1/2-x,1/2-y,-z
1/2+x,1/2+y,-z
1/2-x,1/2+y,z
1/2+x,1/2-y,z
loop_
_atom_site_type_symbol
_atom_site_label
_atom_site_fract_x
_atom_site_fract_y
_atom_site_fract_z
Si Si1 0.393410 0.239687 0.657876
Si Si2 0.275871 0.674398 0.342477
Si Si3 0.883493 0.000000 0.158529
Si Si4 0.115534 0.446196 0.000000
Si Si5 0.740594 0.078092 0.753411
Si Si6 0.111530 0.553429 0.500000
O O1 0.393187 0.240751 0.500000
O O2 0.500000 0.230505 0.719644
O O3 0.359004 0.289896 0.704213
O O4 0.326118 0.197780 0.703180
O O5 0.279076 0.664401 0.500000
O O6 0.289599 0.627803 0.261276
O O7 0.831868 0.956160 0.225021
O O8 0.000000 0.000000 0.192479
O O9 0.866171 0.000000 0.000000
O O10 0.164406 0.423028 0.873439
O O11 0.137909 0.500000 0.000000
O O12 0.000000 0.436175 0.000000
O O13 0.674131 0.068116 0.626259
O O14 0.098465 0.500000 0.500000
O O15 0.000000 0.575030 0.500000
#
# Coordination Sequence:
#
# PCOD8274452 Si02
#       6
#    16  16   8   8  16   8
#     4   8  15  30  49  73 108 148 183 216 265 333
#     4   9  18  30  51  80 112 143 176 225 279 328
#     4  11  24  43  62  79 107 157 205 237 274 325
#     4  11  22  38  58  79 108 152 198 228 273 338
#     4  12  20  38  57  84 116 147 187 238 278 332
#     4  11  22  34  54  83 120 152 176 224 297 346
#
# _framework density 17.997244999999999
#
# number of rings (size 3 to 8) (size 9 to 14) (size 15 to 20)
#    0.000    1.889    4.444    2.000    0.000    4.444 
#    0.000    1.111    0.000    2.667    0.000    1.556 
#    0.000    0.000    0.000    0.000    0.000    0.000 
#
# Total GULP energy -446195.205552 kJ/mol
# GULP energy per Si atom -12394.311265 kJ/mol
# Density = 1.795628 g / cm^3
# Si number density = 17.997245 Si / 1000 Ang^3
#
#
#
# Elastic Constant Matrix: (Units=GPa)
#
#
# Indices 1 2 3 4 5 6 
#
# 1 118.0423 36.6250 29.6811 0.0000 0.0000 0.0000
# 2 36.6250 128.9129 25.1895 0.0000 0.0000 0.0000
# 3 29.6811 25.1895 84.9032 0.0000 0.0000 0.0000
# 4 0.0000 0.0000 0.0000 18.9735 0.0000 0.0000
# 5 0.0000 0.0000 0.0000 0.0000 24.3057 0.0000
# 6 0.0000 0.0000 0.0000 0.0000 0.0000 20.6157
#
#
#
# Elastic Compliance Matrix: (Units=1/GPa)
#
#
# Indices 1 2 3 4 5 6 
#
# 1 0.009872 -0.002262 -0.002780 0.000000 0.000000 0.000000
# 2 -0.002262 0.008753 -0.001806 0.000000 0.000000 0.000000
# 3 -0.002780 -0.001806 0.013286 0.000000 0.000000 0.000000
# 4 0.000000 0.000000 0.000000 0.052705 0.000000 0.000000
# 5 0.000000 0.000000 0.000000 0.000000 0.041143 0.000000
# 6 0.000000 0.000000 0.000000 0.000000 0.000000 0.048507
#
#
# Mechanical properties :
#
#
# Convention : Reuss Voigt Hill
#
# Bulk Modulus (GPa) = 54.90006 57.20551 56.05278
# Shear Modulus (GPa) = 25.76886 28.80318 27.28602
#
# Velocity S-wave (km/s) = 3.78805 4.00487 3.89797
# Velocity P-wave (km/s) = 7.05006 7.29657 7.17438
#
# Compressibility (1/GPa) = 0.01821492
#
# Stress axis : x y z
#
# Youngs Moduli (GPa) = 101.29342 114.25164 75.26759
#
# Poissons Ratio (x) = 0.25838 0.20927
# Poissons Ratio (y) = 0.22908 0.13595
# Poissons Ratio (z) = 0.28162 0.20636
#
# Static dielectric constant tensor:
#      x y z
#    x 3.823870 0.000000 0.000000 
#    y 0.000000 3.402740 0.000000 
#    z 0.000000 0.000000 3.036990 
# 
# 
# High freq. dielectric constant tensor:
#      x y z
#    x 1.705410 0.000000 0.000000 
#    y 0.000000 1.701390 0.000000 
#    z 0.000000 0.000000 1.664140 
# 
# From -- ./inp_files/7408.got.cif
#   From: 2010.03.12/outbox.cif.g09.slc.cpg/sg65_4_cif.got.tgz:7408.got - 2010.04.10 20:52:16.
