data_PCOD8274762
_publ_section_title
;
Structure prediction by ZEFSAII (Michael W. Deem and Ramdas Pophale) SiO2 
 PCOD8274762
Probable space group: C M M M
;
_chemical_formula_sum "Si O2"
_cell_formula_units_Z 88
_cell_length_a 18.211555
_cell_length_b 29.783439
_cell_length_c 7.799326
_cell_angle_alpha 90.000000
_cell_angle_beta 90.000000
_cell_angle_gamma 90.000000
_cell_volume 4230.375773
_symmetry_space_group_name_H-M "C M M M"
_symmetry_group_IT_number 65
_symmetry_cell_setting 'orthorhombic'
loop_
_space_group_symop_operation_xyz
x,y,z
-x,-y,z
x,-y,-z
-x,y,-z
-x,-y,-z
x,y,-z
-x,y,z
x,-y,z
1/2+x,1/2+y,z
1/2-x,1/2-y,z
1/2+x,1/2-y,-z
1/2-x,1/2+y,-z
1/2-x,1/2-y,-z
1/2+x,1/2+y,-z
1/2-x,1/2+y,z
1/2+x,1/2-y,z
loop_
_atom_site_type_symbol
_atom_site_label
_atom_site_fract_x
_atom_site_fract_y
_atom_site_fract_z
Si Si1 0.082701 0.702069 0.202655
Si Si2 0.916590 0.550637 0.195944
Si Si3 0.843550 0.109595 0.803681
Si Si4 0.312304 0.876659 0.311364
Si Si5 0.081252 0.801138 0.797041
Si Si6 0.586567 0.446752 0.500000
O O1 0.144495 0.668313 0.265162
O O2 0.105688 0.751845 0.270163
O O3 0.000000 0.689890 0.269530
O O4 0.081068 0.701075 0.000000
O O5 0.887297 0.500000 0.212973
O O6 0.868392 0.582136 0.314064
O O7 0.000000 0.553592 0.259812
O O8 0.910995 0.567328 0.000000
O O9 0.755177 0.110940 0.811911
O O10 0.866794 0.158792 0.733652
O O11 0.876123 0.072628 0.673543
O O12 0.871114 0.099964 0.000000
O O13 0.278976 0.871075 0.500000
O O14 0.000000 0.811891 0.727613
O O15 0.081261 0.799590 0.000000
O O16 0.600009 0.500000 0.500000
O O17 0.500000 0.435287 0.500000
#
# Coordination Sequence:
#
# PCOD8274762 Si02
#       6
#    16  16  16  16  16   8
#     4   9  18  35  59  87 121 165 217 266 309 361
#     4   9  19  37  60  83 107 147 207 262 310 371
#     4  11  23  43  68  95 129 168 208 253 315 379
#     4  12  24  37  53  84 130 168 208 260 311 368
#     4   8  16  34  62  91 117 155 210 262 309 368
#     4  11  26  48  72 101 131 157 199 256 313 380
#
# _framework density 20.801933999999999
#
# number of rings (size 3 to 8) (size 9 to 14) (size 15 to 20)
#    0.000    2.091    0.909    4.364    0.000    6.182 
#    1.636    5.455    0.000    0.000    0.000    0.000 
#    0.000    0.000    0.000    0.000    0.000    0.000 
#
# Total GULP energy -545371.554904 kJ/mol
# GULP energy per Si atom -12394.808066 kJ/mol
# Density = 2.075459 g / cm^3
# Si number density = 20.801934 Si / 1000 Ang^3
#
#
#
# Elastic Constant Matrix: (Units=GPa)
#
#
# Indices 1 2 3 4 5 6 
#
# 1 103.9425 67.1782 29.5721 0.0000 0.0000 0.0000
# 2 67.1782 140.1263 38.0090 0.0000 0.0000 0.0000
# 3 29.5721 38.0090 76.4679 0.0000 0.0000 0.0000
# 4 0.0000 0.0000 0.0000 12.6739 0.0000 0.0000
# 5 0.0000 0.0000 0.0000 0.0000 22.6504 0.0000
# 6 0.0000 0.0000 0.0000 0.0000 0.0000 -14.7755
#
#
#
# Elastic Compliance Matrix: (Units=1/GPa)
#
#
# Indices 1 2 3 4 5 6 
#
# 1 0.014329 -0.006203 -0.002458 0.000000 0.000000 0.000000
# 2 -0.006203 0.010934 -0.003036 0.000000 0.000000 0.000000
# 3 -0.002458 -0.003036 0.015537 0.000000 0.000000 0.000000
# 4 0.000000 0.000000 0.000000 0.078902 0.000000 0.000000
# 5 0.000000 0.000000 0.000000 0.000000 0.044149 0.000000
# 6 0.000000 0.000000 0.000000 0.000000 0.000000 -0.067679
#
#
# Mechanical properties :
#
#
# Convention : Reuss Voigt Hill
#
# Bulk Modulus (GPa) = 57.45181 65.56170 61.50676
# Shear Modulus (GPa) = 39.88282 16.49490 28.18886
#
# Velocity S-wave (km/s) = 4.38341 2.81899 3.68517
# Velocity P-wave (km/s) = 7.30051 6.49470 6.90936
#
# Compressibility (1/GPa) = 0.01740589
#
# Stress axis : x y z
#
# Youngs Moduli (GPa) = 69.78920 91.46195 64.36222
#
# Poissons Ratio (x) = 0.56730 0.15822
# Poissons Ratio (y) = 0.43288 0.19540
# Poissons Ratio (z) = 0.17156 0.27767
#
# Static dielectric constant tensor:
#      x y z
#    x 3.804130 0.000000 0.000000 
#    y 0.000000 4.112450 0.000000 
#    z 0.000000 0.000000 3.570390 
# 
# 
# High freq. dielectric constant tensor:
#      x y z
#    x 1.807440 0.000000 0.000000 
#    y 0.000000 1.821130 0.000000 
#    z 0.000000 0.000000 1.801690 
# 
# From -- ./inp_files/10135.got.cif
#   From: 2010.03.12/outbox.cif.g09.slc.cpg/sg65_6_cif.got.tgz:10135.got - 2010.04.10 20:52:16.
