data_PCOD8274373
_publ_section_title
;
Structure prediction by ZEFSAII (Michael W. Deem and Ramdas Pophale) SiO2 
 PCOD8274373
Probable space group: C M M M
;
_chemical_formula_sum "Si O2"
_cell_formula_units_Z 104
_cell_length_a 8.891835
_cell_length_b 28.566067
_cell_length_c 20.483238
_cell_angle_alpha 90.000000
_cell_angle_beta 90.000000
_cell_angle_gamma 90.000000
_cell_volume 5202.839837
_symmetry_space_group_name_H-M "C M M M"
_symmetry_group_IT_number 65
_symmetry_cell_setting 'orthorhombic'
loop_
_space_group_symop_operation_xyz
x,y,z
-x,-y,z
x,-y,-z
-x,y,-z
-x,-y,-z
x,y,-z
-x,y,z
x,-y,z
1/2+x,1/2+y,z
1/2-x,1/2-y,z
1/2+x,1/2-y,-z
1/2-x,1/2+y,-z
1/2-x,1/2-y,-z
1/2+x,1/2+y,-z
1/2-x,1/2+y,z
1/2+x,1/2-y,z
loop_
_atom_site_type_symbol
_atom_site_label
_atom_site_fract_x
_atom_site_fract_y
_atom_site_fract_z
Si Si1 0.178646 0.053103 0.000000
Si Si2 0.321681 0.390848 0.126534
Si Si3 0.666488 0.680337 0.696166
Si Si4 0.835816 0.925615 0.261960
Si Si5 0.821447 0.296758 0.173499
Si Si6 0.322924 0.850227 0.573126
Si Si7 0.323582 0.049837 0.615233
O O1 0.235773 0.081892 0.937239
O O2 0.000000 0.050472 0.000000
O O3 0.243984 0.000000 0.000000
O O4 0.500000 0.380871 0.125654
O O5 0.279044 0.424776 0.187156
O O6 0.238345 0.341214 0.133006
O O7 0.500000 0.703871 0.695097
O O8 0.649101 0.626867 0.713793
O O9 0.771682 0.703753 0.750498
O O10 0.742103 0.684438 0.624326
O O11 0.719423 0.952175 0.308124
O O12 0.000000 0.949906 0.266338
O O13 0.750000 0.250000 0.141190
O O14 0.000000 0.295388 0.169066
O O15 0.286480 0.832767 0.500000
O O16 0.500000 0.849389 0.587719
O O17 0.259152 0.903879 0.579726
O O18 0.500000 0.052067 0.609766
O O19 0.267414 0.000000 0.583981
#
# Coordination Sequence:
#
# PCOD8274373 Si02
#       7
#     8  16  16  16  16  16  16
#     4   9  18  34  58  85 114 153 196 233 270 315
#     4   9  18  34  55  81 112 145 185 228 268 316
#     4   9  17  31  50  73 100 129 166 211 258 310
#     4   8  15  27  44  65  90 122 161 209 260 307
#     4  11  21  35  58  86 114 142 175 217 271 329
#     4   9  17  29  45  65  92 131 176 217 263 321
#     4   9  17  27  39  59  88 122 164 215 268 320
#
# _framework density 19.989083999999998
#
# number of rings (size 3 to 8) (size 9 to 14) (size 15 to 20)
#    0.000    2.846    0.000    2.769    0.000    5.231 
#    0.000    3.846    0.000    1.385    0.000    4.308 
#    0.000    0.000    0.000    0.000    0.000    0.000 
#
# Total GULP energy -644281.271801 kJ/mol
# GULP energy per Si atom -12390.024458 kJ/mol
# Density = 1.994359 g / cm^3
# Si number density = 19.989084 Si / 1000 Ang^3
#
#
#
# Elastic Constant Matrix: (Units=GPa)
#
#
# Indices 1 2 3 4 5 6 
#
# 1 68.2877 29.1825 22.8293 0.0000 0.0000 0.0000
# 2 29.1825 80.1797 26.0160 0.0000 0.0000 0.0000
# 3 22.8293 26.0160 117.2376 0.0000 0.0000 0.0000
# 4 0.0000 0.0000 0.0000 13.7125 0.0000 0.0000
# 5 0.0000 0.0000 0.0000 0.0000 23.1501 0.0000
# 6 0.0000 0.0000 0.0000 0.0000 0.0000 14.4474
#
#
#
# Elastic Compliance Matrix: (Units=1/GPa)
#
#
# Indices 1 2 3 4 5 6 
#
# 1 0.017849 -0.005785 -0.002192 0.000000 0.000000 0.000000
# 2 -0.005785 0.015315 -0.002272 0.000000 0.000000 0.000000
# 3 -0.002192 -0.002272 0.009461 0.000000 0.000000 0.000000
# 4 0.000000 0.000000 0.000000 0.072926 0.000000 0.000000
# 5 0.000000 0.000000 0.000000 0.000000 0.043196 0.000000
# 6 0.000000 0.000000 0.000000 0.000000 0.000000 0.069217
#
#
# Mechanical properties :
#
#
# Convention : Reuss Voigt Hill
#
# Bulk Modulus (GPa) = 45.19490 46.86227 46.02858
# Shear Modulus (GPa) = 19.54369 22.77381 21.15875
#
# Velocity S-wave (km/s) = 3.13024 3.37903 3.25701
# Velocity P-wave (km/s) = 5.97691 6.22243 6.10090
#
# Compressibility (1/GPa) = 0.02212639
#
# Stress axis : x y z
#
# Youngs Moduli (GPa) = 56.02563 65.29650 105.70079
#
# Poissons Ratio (x) = 0.37775 0.23168
# Poissons Ratio (y) = 0.32412 0.24015
# Poissons Ratio (z) = 0.12280 0.14835
#
# Static dielectric constant tensor:
#      x y z
#    x 3.576260 0.000000 0.000000 
#    y 0.000000 3.866790 0.000000 
#    z 0.000000 0.000000 3.760230 
# 
# 
# High freq. dielectric constant tensor:
#      x y z
#    x 1.758620 0.000000 0.000000 
#    y 0.000000 1.773010 0.000000 
#    z 0.000000 0.000000 1.764760 
# 
# From -- ./inp_files/60795.got.cif
#   From: 2010.03.12/outbox.cif.g09.slc.cpg/sg65_31_cif.got.tgz:60795.got - 2010.04.10 20:52:16.
