data_PCOD8274651
_publ_section_title
;
Structure prediction by ZEFSAII (Michael W. Deem and Ramdas Pophale) SiO2 
 PCOD8274651
Probable space group: C M M M
;
_chemical_formula_sum "Si O2"
_cell_formula_units_Z 80
_cell_length_a 17.705087
_cell_length_b 27.988815
_cell_length_c 9.189963
_cell_angle_alpha 90.000000
_cell_angle_beta 90.000000
_cell_angle_gamma 90.000000
_cell_volume 4554.034743
_symmetry_space_group_name_H-M "C M M M"
_symmetry_group_IT_number 65
_symmetry_cell_setting 'orthorhombic'
loop_
_space_group_symop_operation_xyz
x,y,z
-x,-y,z
x,-y,-z
-x,y,-z
-x,-y,-z
x,y,-z
-x,y,z
x,-y,z
1/2+x,1/2+y,z
1/2-x,1/2-y,z
1/2+x,1/2-y,-z
1/2-x,1/2+y,-z
1/2-x,1/2-y,-z
1/2+x,1/2+y,-z
1/2-x,1/2+y,z
1/2+x,1/2-y,z
loop_
_atom_site_type_symbol
_atom_site_label
_atom_site_fract_x
_atom_site_fract_y
_atom_site_fract_z
Si Si1 0.731986 0.447301 0.173416
Si Si2 0.413093 0.214904 0.671422
Si Si3 0.811478 0.646635 0.832128
Si Si4 0.082426 0.098923 0.827446
Si Si5 0.153923 0.802992 0.166894
O O1 0.756828 0.500000 0.228489
O O2 0.790503 0.406673 0.226142
O O3 0.647723 0.435852 0.234794
O O4 0.728513 0.445168 0.000000
O O5 0.403551 0.212819 0.500000
O O6 0.500000 0.220520 0.718240
O O7 0.381277 0.165613 0.737916
O O8 0.364357 0.258666 0.731320
O O9 0.740637 0.681955 0.812507
O O10 0.836122 0.644524 0.000000
O O11 0.100320 0.153460 0.784833
O O12 0.000000 0.084833 0.763178
O O13 0.081493 0.094570 0.000000
O O14 0.138835 0.788154 0.000000
#
# Coordination Sequence:
#
# PCOD8274651 Si02
#       5
#    16  16  16  16  16
#     4   8  14  25  42  65  91 117 148 188 227 262
#     4  11  23  34  45  66  94 121 152 191 232 272
#     4   9  18  32  50  71  93 120 154 187 223 271
#     4   8  13  21  36  62  95 127 154 178 210 257
#     4   9  17  30  48  69  94 125 158 186 215 261
#
# _framework density 17.566841
#
# number of rings (size 3 to 8) (size 9 to 14) (size 15 to 20)
#    0.000    3.000    0.000    4.200    0.000    6.000 
#    0.000    2.000    0.000    1.200    0.000    4.200 
#    0.000    0.000    0.000   21.200    0.000   16.000 
#
# Total GULP energy -495775.048923 kJ/mol
# GULP energy per Si atom -12394.376223 kJ/mol
# Density = 1.752686 g / cm^3
# Si number density = 17.566841 Si / 1000 Ang^3
#
#
#
# Elastic Constant Matrix: (Units=GPa)
#
#
# Indices 1 2 3 4 5 6 
#
# 1 49.5294 41.9603 28.8159 0.0000 0.0000 0.0000
# 2 41.9603 122.6877 32.4571 0.0000 0.0000 0.0000
# 3 28.8159 32.4571 40.9771 0.0000 0.0000 0.0000
# 4 0.0000 0.0000 0.0000 -0.5549 0.0000 0.0000
# 5 0.0000 0.0000 0.0000 0.0000 19.6880 0.0000
# 6 0.0000 0.0000 0.0000 0.0000 0.0000 15.0643
#
#
#
# Elastic Compliance Matrix: (Units=1/GPa)
#
#
# Indices 1 2 3 4 5 6 
#
# 1 0.039232 -0.007741 -0.021457 0.000000 0.000000 0.000000
# 2 -0.007741 0.011839 -0.003934 0.000000 0.000000 0.000000
# 3 -0.021457 -0.003934 0.042608 0.000000 0.000000 0.000000
# 4 0.000000 0.000000 0.000000 -1.802231 0.000000 0.000000
# 5 0.000000 0.000000 0.000000 0.000000 0.050792 0.000000
# 6 0.000000 0.000000 0.000000 0.000000 0.000000 0.066382
#
#
# Mechanical properties :
#
#
# Convention : Reuss Voigt Hill
#
# Bulk Modulus (GPa) = 36.47531 46.62898 41.55215
# Shear Modulus (GPa) = -3.29821 14.17021 5.43600
#
# Velocity S-wave (km/s) = -1.37171 2.84323 1.76102
# Velocity P-wave (km/s) = 4.27785 6.11392 5.27636
#
# Compressibility (1/GPa) = 0.02741580
#
# Stress axis : x y z
#
# Youngs Moduli (GPa) = 25.48961 84.46673 23.46950
#
# Poissons Ratio (x) = 0.65387 0.50358
# Poissons Ratio (y) = 0.19732 0.09232
# Poissons Ratio (z) = 0.54693 0.33226
#
# Static dielectric constant tensor:
#      x y z
#    x 3.423040 0.000000 0.000000 
#    y 0.000000 3.431760 0.000000 
#    z 0.000000 0.000000 2.790870 
# 
# 
# High freq. dielectric constant tensor:
#      x y z
#    x 1.670760 0.000000 0.000000 
#    y 0.000000 1.678190 0.000000 
#    z 0.000000 0.000000 1.627970 
# 
# From -- ./inp_files/9579.got.cif
#   From: 2010.03.12/outbox.cif.g09.slc.cpg/sg65_5_cif.got.tgz:9579.got - 2010.04.10 20:52:16.
