data_PCOD8274841
_publ_section_title
;
Structure prediction by ZEFSAII (Michael W. Deem and Ramdas Pophale) SiO2 
 PCOD8274841
Probable space group: C M M M
;
_chemical_formula_sum "Si O2"
_cell_formula_units_Z 80
_cell_length_a 19.456887
_cell_length_b 14.536169
_cell_length_c 14.218423
_cell_angle_alpha 90.000000
_cell_angle_beta 90.000000
_cell_angle_gamma 90.000000
_cell_volume 4021.376638
_symmetry_space_group_name_H-M "C M M M"
_symmetry_group_IT_number 65
_symmetry_cell_setting 'orthorhombic'
loop_
_space_group_symop_operation_xyz
x,y,z
-x,-y,z
x,-y,-z
-x,y,-z
-x,-y,-z
x,y,-z
-x,y,z
x,-y,z
1/2+x,1/2+y,z
1/2-x,1/2-y,z
1/2+x,1/2-y,-z
1/2-x,1/2+y,-z
1/2-x,1/2-y,-z
1/2+x,1/2+y,-z
1/2-x,1/2+y,z
1/2+x,1/2-y,z
loop_
_atom_site_type_symbol
_atom_site_label
_atom_site_fract_x
_atom_site_fract_y
_atom_site_fract_z
Si Si1 0.333241 0.894701 0.110330
Si Si2 0.639436 0.748224 0.391194
Si Si3 0.747547 0.101480 0.391013
Si Si4 0.422222 0.743138 0.204025
Si Si5 0.178497 0.892388 0.106944
O O1 0.389795 0.835894 0.163737
O O2 0.255561 0.870084 0.144602
O O3 0.350071 0.000000 0.132800
O O4 0.338030 0.874997 0.000000
O O5 0.615138 0.757514 0.500000
O O6 0.685133 0.834814 0.356272
O O7 0.680781 0.653483 0.375546
O O8 0.576285 0.745742 0.318410
O O9 0.735534 0.086570 0.500000
O O10 0.748131 0.000000 0.341131
O O11 0.500000 0.733175 0.167759
O O12 0.377586 0.656847 0.170655
O O13 0.164019 0.000000 0.111740
O O14 0.171356 0.856902 0.000000
#
# Coordination Sequence:
#
# PCOD8274841 Si02
#       5
#    16  16  16  16  16
#     4   9  20  40  64  87 111 144 188 237 287 338
#     4   9  20  36  52  78 113 148 189 231 275 331
#     4   8  15  31  56  81 101 128 178 242 292 322
#     4  12  25  36  53  85 120 156 192 227 277 339
#     4   9  20  40  64  87 111 144 188 237 287 338
#
# _framework density 19.893684
#
# number of rings (size 3 to 8) (size 9 to 14) (size 15 to 20)
#    0.000    2.600    0.000    3.600    5.600    6.000 
#    0.000    2.000    0.000    0.000    0.000    8.400 
#    0.000    0.000    0.000    0.000    0.000    0.000 
#
# Total GULP energy -495779.575137 kJ/mol
# GULP energy per Si atom -12394.489378 kJ/mol
# Density = 1.984841 g / cm^3
# Si number density = 19.893684 Si / 1000 Ang^3
#
#
#
# Elastic Constant Matrix: (Units=GPa)
#
#
# Indices 1 2 3 4 5 6 
#
# 1 88.7850 15.7737 28.6368 0.0000 0.0000 0.0000
# 2 15.7737 92.2138 3.4823 0.0000 0.0000 0.0000
# 3 28.6368 3.4823 44.1126 0.0000 0.0000 0.0000
# 4 0.0000 0.0000 0.0000 73.5007 0.0000 0.0000
# 5 0.0000 0.0000 0.0000 0.0000 20.5131 0.0000
# 6 0.0000 0.0000 0.0000 0.0000 0.0000 -13.7074
#
#
#
# Elastic Compliance Matrix: (Units=1/GPa)
#
#
# Indices 1 2 3 4 5 6 
#
# 1 0.014661 -0.002155 -0.009347 0.000000 0.000000 0.000000
# 2 -0.002155 0.011194 0.000515 0.000000 0.000000 0.000000
# 3 -0.009347 0.000515 0.028697 0.000000 0.000000 0.000000
# 4 0.000000 0.000000 0.000000 0.013605 0.000000 0.000000
# 5 0.000000 0.000000 0.000000 0.000000 0.048749 0.000000
# 6 0.000000 0.000000 0.000000 0.000000 0.000000 -0.072954
#
#
# Mechanical properties :
#
#
# Convention : Reuss Voigt Hill
#
# Bulk Modulus (GPa) = 30.69640 35.65522 33.17581
# Shear Modulus (GPa) = 65.11668 27.87586 46.49627
#
# Velocity S-wave (km/s) = 5.72743 3.74738 4.83974
# Velocity P-wave (km/s) = 7.69426 6.05686 6.92413
#
# Compressibility (1/GPa) = 0.03257711
#
# Stress axis : x y z
#
# Youngs Moduli (GPa) = 68.20863 89.33753 34.84726
#
# Poissons Ratio (x) = 0.19251 0.32573
# Poissons Ratio (y) = 0.14698 -0.01795
# Poissons Ratio (z) = 0.63757 -0.04603
#
# Static dielectric constant tensor:
#      x y z
#    x 3.203760 0.000000 0.000000 
#    y 0.000000 4.098380 0.000000 
#    z 0.000000 0.000000 3.646780 
# 
# 
# High freq. dielectric constant tensor:
#      x y z
#    x 1.732210 0.000000 0.000000 
#    y 0.000000 1.786600 0.000000 
#    z 0.000000 0.000000 1.785700 
# 
# From -- ./inp_files/40034.got.cif
#   From: 2010.03.12/outbox.cif.g09.slc.cpg/sg65_21_cif.got.tgz:40034.got - 2010.04.10 20:52:16.
