data_PCOD8274891
_publ_section_title
;
Structure prediction by ZEFSAII (Michael W. Deem and Ramdas Pophale) SiO2 
 PCOD8274891
Probable space group: C M M M
;
_chemical_formula_sum "Si O2"
_cell_formula_units_Z 96
_cell_length_a 27.851223
_cell_length_b 9.257024
_cell_length_c 24.197080
_cell_angle_alpha 90.000000
_cell_angle_beta 90.000000
_cell_angle_gamma 90.000000
_cell_volume 6238.477609
_symmetry_space_group_name_H-M "C M M M"
_symmetry_group_IT_number 65
_symmetry_cell_setting 'orthorhombic'
loop_
_space_group_symop_operation_xyz
x,y,z
-x,-y,z
x,-y,-z
-x,y,-z
-x,-y,-z
x,y,-z
-x,y,z
x,-y,z
1/2+x,1/2+y,z
1/2-x,1/2-y,z
1/2+x,1/2-y,-z
1/2-x,1/2+y,-z
1/2-x,1/2-y,-z
1/2+x,1/2+y,-z
1/2-x,1/2+y,z
1/2+x,1/2-y,z
loop_
_atom_site_type_symbol
_atom_site_label
_atom_site_fract_x
_atom_site_fract_y
_atom_site_fract_z
Si Si1 0.554199 0.328065 0.439091
Si Si2 0.606925 0.671192 0.333140
Si Si3 0.144808 0.171126 0.833752
Si Si4 0.053071 0.172314 0.774252
Si Si5 0.701137 0.329576 0.726729
Si Si6 0.799112 0.830840 0.061859
O O1 0.570673 0.273502 0.500000
O O2 0.500000 0.274922 0.426873
O O3 0.555332 0.500000 0.437796
O O4 0.589941 0.264131 0.392229
O O5 0.603412 0.500000 0.334246
O O6 0.571045 0.728145 0.285449
O O7 0.661622 0.716035 0.319308
O O8 0.090995 0.228863 0.820578
O O9 0.182244 0.222946 0.786790
O O10 0.161482 0.225780 0.894151
O O11 0.143270 0.000000 0.831822
O O12 0.000000 0.235614 0.786698
O O13 0.051535 0.000000 0.774483
O O14 0.710344 0.500000 0.726229
O O15 0.750000 0.250000 0.711451
O O16 0.750000 0.750000 0.074255
O O17 0.789126 0.000000 0.069475
O O18 0.817987 0.796344 0.000000
#
# Coordination Sequence:
#
# PCOD8274891 Si02
#       6
#    16  16  16  16  16  16
#     4   8  12  17  27  45  69  94 115 137 171 213
#     4   8  13  20  30  46  68  92 116 142 173 206
#     4   8  14  23  34  50  71  93 116 142 174 208
#     4   8  12  18  30  47  67  91 115 139 169 207
#     4   9  16  25  37  52  71  94 118 145 174 204
#     4   9  16  25  37  52  71  94 117 143 175 208
#
# _framework density 15.38837
#
# number of rings (size 3 to 8) (size 9 to 14) (size 15 to 20)
#    0.000    3.667    0.000    3.500    0.000    2.000 
#    0.000    0.000    0.000    1.000    0.000    3.500 
#    0.000   22.667    0.000    6.000    0.000    6.000 
#
# Total GULP energy -594645.672704 kJ/mol
# GULP energy per Si atom -12388.451515 kJ/mol
# Density = 1.535335 g / cm^3
# Si number density = 15.388370 Si / 1000 Ang^3
#
#
#
# Elastic Constant Matrix: (Units=GPa)
#
#
# Indices 1 2 3 4 5 6 
#
# 1 144.7209 17.8734 89.2573 0.0000 0.0000 0.0000
# 2 17.8734 9.2887 13.0934 0.0000 0.0000 0.0000
# 3 89.2573 13.0934 143.8303 0.0000 0.0000 0.0000
# 4 0.0000 0.0000 0.0000 6.5620 0.0000 0.0000
# 5 0.0000 0.0000 0.0000 0.0000 28.2014 0.0000
# 6 0.0000 0.0000 0.0000 0.0000 0.0000 14.4438
#
#
#
# Elastic Compliance Matrix: (Units=1/GPa)
#
#
# Indices 1 2 3 4 5 6 
#
# 1 0.012888 -0.015516 -0.006585 0.000000 0.000000 0.000000
# 2 -0.015516 0.142186 -0.003315 0.000000 0.000000 0.000000
# 3 -0.006585 -0.003315 0.011341 0.000000 0.000000 0.000000
# 4 0.000000 0.000000 0.000000 0.152391 0.000000 0.000000
# 5 0.000000 0.000000 0.000000 0.000000 0.035459 0.000000
# 6 0.000000 0.000000 0.000000 0.000000 0.000000 0.069234
#
#
# Mechanical properties :
#
#
# Convention : Reuss Voigt Hill
#
# Bulk Modulus (GPa) = 8.65181 59.80978 34.23080
# Shear Modulus (GPa) = 9.74927 21.68251 15.71589
#
# Velocity S-wave (km/s) = 2.51977 3.75776 3.19922
# Velocity P-wave (km/s) = 3.75502 7.60125 5.99496
#
# Compressibility (1/GPa) = 0.11558276
#
# Stress axis : x y z
#
# Youngs Moduli (GPa) = 77.59419 7.03303 88.17537
#
# Poissons Ratio (x) = 0.10912 0.58065
# Poissons Ratio (y) = 1.20393 0.29230
# Poissons Ratio (z) = 0.51098 0.02331
#
# Static dielectric constant tensor:
#      x y z
#    x 3.182650 0.000000 0.000000 
#    y 0.000000 2.351010 0.000000 
#    z 0.000000 0.000000 3.354650 
# 
# 
# High freq. dielectric constant tensor:
#      x y z
#    x 1.585760 0.000000 0.000000 
#    y 0.000000 1.523390 0.000000 
#    z 0.000000 0.000000 1.589610 
# 
# From -- ./inp_files/71537.got.cif
#   From: 2010.03.12/outbox.cif.g09.slc.cpg/sg65_36_cif.got.tgz:71537.got - 2010.04.10 20:52:16.
