data_PCOD8274676
_publ_section_title
;
Structure prediction by ZEFSAII (Michael W. Deem and Ramdas Pophale) SiO2 
 PCOD8274676
Probable space group: C M M M
;
_chemical_formula_sum "Si O2"
_cell_formula_units_Z 88
_cell_length_a 18.981646
_cell_length_b 9.088035
_cell_length_c 28.214579
_cell_angle_alpha 90.000000
_cell_angle_beta 90.000000
_cell_angle_gamma 90.000000
_cell_volume 4867.180305
_symmetry_space_group_name_H-M "C M M M"
_symmetry_group_IT_number 65
_symmetry_cell_setting 'orthorhombic'
loop_
_space_group_symop_operation_xyz
x,y,z
-x,-y,z
x,-y,-z
-x,y,-z
-x,-y,-z
x,y,-z
-x,y,z
x,-y,z
1/2+x,1/2+y,z
1/2-x,1/2-y,z
1/2+x,1/2-y,-z
1/2-x,1/2+y,-z
1/2-x,1/2-y,-z
1/2+x,1/2+y,-z
1/2-x,1/2+y,z
1/2+x,1/2-y,z
loop_
_atom_site_type_symbol
_atom_site_label
_atom_site_fract_x
_atom_site_fract_y
_atom_site_fract_z
Si Si1 0.916309 0.165434 0.000000
Si Si2 0.174441 0.325984 0.182653
Si Si3 0.580735 0.827845 0.906685
Si Si4 0.417595 0.670742 0.740202
Si Si5 0.676716 0.328698 0.552667
Si Si6 0.577116 0.326458 0.366383
O O1 0.888788 0.246501 0.952976
O O2 0.000000 0.169547 0.000000
O O3 0.886785 0.000000 0.000000
O O4 0.185028 0.500000 0.185894
O O5 0.250000 0.250000 0.180343
O O6 0.129600 0.279595 0.136742
O O7 0.130929 0.273233 0.227947
O O8 0.500000 0.781044 0.895478
O O9 0.585073 0.000000 0.916784
O O10 0.500000 0.707458 0.748134
O O11 0.403315 0.500000 0.752048
O O12 0.394656 0.707885 0.686325
O O13 0.644769 0.301902 0.500000
O O14 0.689134 0.500000 0.561962
O O15 0.750000 0.250000 0.558162
O O16 0.626205 0.258917 0.592659
O O17 0.500000 0.255439 0.372716
O O18 0.571265 0.500000 0.373212
#
# Coordination Sequence:
#
# PCOD8274676 Si02
#       6
#     8  16  16  16  16  16
#     4   9  17  29  50  81 108 129 161 205 246 289
#     4  11  23  37  53  75 104 136 172 212 253 300
#     4   9  18  34  55  76 100 132 167 204 248 296
#     4   9  18  34  55  76 100 131 165 205 255 307
#     4   9  17  29  46  68  95 128 164 201 241 288
#     4   8  15  29  49  73  98 123 157 202 248 293
#
# _framework density 18.080283999999999
#
# number of rings (size 3 to 8) (size 9 to 14) (size 15 to 20)
#    0.000    2.818    0.000    2.455    0.000    4.727 
#    0.000    6.818    0.000    1.636    0.000    2.545 
#    0.000    0.000    0.000    0.000    0.000    0.000 
#
# Total GULP energy -545475.295703 kJ/mol
# GULP energy per Si atom -12397.165811 kJ/mol
# Density = 1.803913 g / cm^3
# Si number density = 18.080284 Si / 1000 Ang^3
#
#
#
# Elastic Constant Matrix: (Units=GPa)
#
#
# Indices 1 2 3 4 5 6 
#
# 1 93.6017 41.8541 82.1994 0.0000 0.0000 0.0000
# 2 41.8541 52.8815 55.0749 0.0000 0.0000 0.0000
# 3 82.1994 55.0749 166.2851 0.0000 0.0000 0.0000
# 4 0.0000 0.0000 0.0000 25.1261 0.0000 0.0000
# 5 0.0000 0.0000 0.0000 0.0000 10.9706 0.0000
# 6 0.0000 0.0000 0.0000 0.0000 0.0000 18.3738
#
#
#
# Elastic Compliance Matrix: (Units=1/GPa)
#
#
# Indices 1 2 3 4 5 6 
#
# 1 0.021372 -0.009026 -0.007575 0.000000 0.000000 0.000000
# 2 -0.009026 0.032680 -0.006362 0.000000 0.000000 0.000000
# 3 -0.007575 -0.006362 0.011866 0.000000 0.000000 0.000000
# 4 0.000000 0.000000 0.000000 0.039799 0.000000 0.000000
# 5 0.000000 0.000000 0.000000 0.000000 0.091152 0.000000
# 6 0.000000 0.000000 0.000000 0.000000 0.000000 0.054425
#
#
# Mechanical properties :
#
#
# Convention : Reuss Voigt Hill
#
# Bulk Modulus (GPa) = 50.02248 74.55836 62.29042
# Shear Modulus (GPa) = 16.45361 19.80342 18.12852
#
# Velocity S-wave (km/s) = 3.01994 3.31313 3.16993
# Velocity P-wave (km/s) = 6.31562 7.48082 6.92278
#
# Compressibility (1/GPa) = 0.01999101
#
# Stress axis : x y z
#
# Youngs Moduli (GPa) = 46.79014 30.59999 84.27648
#
# Poissons Ratio (x) = 0.27619 0.63843
# Poissons Ratio (y) = 0.42231 0.53618
# Poissons Ratio (z) = 0.35446 0.19468
#
# Static dielectric constant tensor:
#      x y z
#    x 3.359050 0.000000 0.000000 
#    y 0.000000 3.142210 0.000000 
#    z 0.000000 0.000000 3.608860 
# 
# 
# High freq. dielectric constant tensor:
#      x y z
#    x 1.685670 0.000000 0.000000 
#    y 0.000000 1.680270 0.000000 
#    z 0.000000 0.000000 1.716100 
# 
# From -- ./inp_files/67531.got.cif
#   From: 2010.03.12/outbox.cif.g09.slc.cpg/sg65_34_cif.got.tgz:67531.got - 2010.04.10 20:52:16.
