data_PCOD8274568
_publ_section_title
;
Structure prediction by ZEFSAII (Michael W. Deem and Ramdas Pophale) SiO2 
 PCOD8274568
Probable space group: C M M M
;
_chemical_formula_sum "Si O2"
_cell_formula_units_Z 104
_cell_length_a 21.173980
_cell_length_b 8.796993
_cell_length_c 26.842509
_cell_angle_alpha 90.000000
_cell_angle_beta 90.000000
_cell_angle_gamma 90.000000
_cell_volume 4999.883122
_symmetry_space_group_name_H-M "C M M M"
_symmetry_group_IT_number 65
_symmetry_cell_setting 'orthorhombic'
loop_
_space_group_symop_operation_xyz
x,y,z
-x,-y,z
x,-y,-z
-x,y,-z
-x,-y,-z
x,y,-z
-x,y,z
x,-y,z
1/2+x,1/2+y,z
1/2-x,1/2-y,z
1/2+x,1/2-y,-z
1/2-x,1/2+y,-z
1/2-x,1/2-y,-z
1/2+x,1/2+y,-z
1/2-x,1/2+y,z
1/2+x,1/2-y,z
loop_
_atom_site_type_symbol
_atom_site_label
_atom_site_fract_x
_atom_site_fract_y
_atom_site_fract_z
Si Si1 0.114885 0.177419 0.152526
Si Si2 0.810961 0.326801 0.765544
Si Si3 0.623840 0.173362 0.335917
Si Si4 0.000000 0.820969 0.311872
Si Si5 0.574519 0.679263 0.500000
Si Si6 0.684264 0.322339 0.055237
Si Si7 0.184116 0.819941 0.575542
Si Si8 0.000000 0.676546 0.795730
O O1 0.173743 0.220623 0.187245
O O2 0.130436 0.219303 0.095245
O O3 0.059070 0.285567 0.169858
O O4 0.097480 0.000000 0.158492
O O5 0.799568 0.500000 0.782721
O O6 0.750000 0.250000 0.740853
O O7 0.864017 0.319593 0.723240
O O8 0.558164 0.258186 0.343511
O O9 0.676789 0.260250 0.367963
O O10 0.620254 0.000000 0.354277
O O11 0.000000 0.772409 0.254482
O O12 0.000000 0.000000 0.314101
O O13 0.567302 0.500000 0.500000
O O14 0.500000 0.744187 0.500000
O O15 0.619332 0.730544 0.453375
O O16 0.696160 0.500000 0.055285
O O17 0.750000 0.250000 0.071747
O O18 0.663220 0.265828 0.000000
O O19 0.250000 0.750000 0.553759
O O20 0.191876 0.000000 0.573552
O O21 0.000000 0.500000 0.781138
#
# Coordination Sequence:
#
# PCOD8274568 Si02
#       8
#    16  16  16   8   8  16  16   8
#     4  11  22  37  59  84 112 151 199 244 295 360
#     4  11  23  37  56  82 119 158 196 246 301 358
#     4  11  24  41  62  91 129 165 207 257 309 368
#     4  12  24  40  64  90 122 166 212 253 306 370
#     4   9  21  42  67  97 130 169 221 277 326 378
#     4   9  19  36  58  85 115 147 187 238 295 354
#     4  11  23  41  68  97 131 173 218 269 326 384
#     4  12  24  40  59  83 117 156 198 246 297 352
#
# _framework density 20.800487
#
# number of rings (size 3 to 8) (size 9 to 14) (size 15 to 20)
#    0.000    1.308    1.538    4.385    1.077    5.538 
#    0.000    1.538    0.000    4.154    0.000    0.000 
#    0.000    0.000    0.000    0.000    0.000    0.000 
#
# Total GULP energy -644592.383475 kJ/mol
# GULP energy per Si atom -12396.007375 kJ/mol
# Density = 2.075314 g / cm^3
# Si number density = 20.800487 Si / 1000 Ang^3
#
#
#
# Elastic Constant Matrix: (Units=GPa)
#
#
# Indices 1 2 3 4 5 6 
#
# 1 122.9022 35.9610 27.8734 0.0000 0.0000 0.0000
# 2 35.9610 86.0343 27.6470 0.0000 0.0000 0.0000
# 3 27.8734 27.6470 89.6126 0.0000 0.0000 0.0000
# 4 0.0000 0.0000 0.0000 21.3268 0.0000 0.0000
# 5 0.0000 0.0000 0.0000 0.0000 20.7143 0.0000
# 6 0.0000 0.0000 0.0000 0.0000 0.0000 38.1915
#
#
#
# Elastic Compliance Matrix: (Units=1/GPa)
#
#
# Indices 1 2 3 4 5 6 
#
# 1 0.009563 -0.003376 -0.001933 0.000000 0.000000 0.000000
# 2 -0.003376 0.014094 -0.003298 0.000000 0.000000 0.000000
# 3 -0.001933 -0.003298 0.012778 0.000000 0.000000 0.000000
# 4 0.000000 0.000000 0.000000 0.046889 0.000000 0.000000
# 5 0.000000 0.000000 0.000000 0.000000 0.048276 0.000000
# 6 0.000000 0.000000 0.000000 0.000000 0.000000 0.026184
#
#
# Mechanical properties :
#
#
# Convention : Reuss Voigt Hill
#
# Bulk Modulus (GPa) = 52.02713 53.50131 52.76422
# Shear Modulus (GPa) = 27.56263 29.85102 28.70682
#
# Velocity S-wave (km/s) = 3.64413 3.79240 3.71900
# Velocity P-wave (km/s) = 6.54011 6.70473 6.62293
#
# Compressibility (1/GPa) = 0.01922074
#
# Stress axis : x y z
#
# Youngs Moduli (GPa) = 104.57283 70.95092 78.25994
#
# Poissons Ratio (x) = 0.23953 0.15127
# Poissons Ratio (y) = 0.35303 0.25812
# Poissons Ratio (z) = 0.20213 0.23401
#
# Static dielectric constant tensor:
#      x y z
#    x 4.025010 0.000000 0.000000 
#    y 0.000000 3.688400 0.000000 
#    z 0.000000 0.000000 3.898920 
# 
# 
# High freq. dielectric constant tensor:
#      x y z
#    x 1.818090 0.000000 0.000000 
#    y 0.000000 1.813010 0.000000 
#    z 0.000000 0.000000 1.813690 
# 
# From -- ./inp_files/75543.got.cif
#   From: 2010.03.12/outbox.cif.g09.slc.cpg/sg65_38_cif.got.tgz:75543.got - 2010.04.10 20:52:16.
