data_PCOD8274803
_publ_section_title
;
Structure prediction by ZEFSAII (Michael W. Deem and Ramdas Pophale) SiO2 
 PCOD8274803
Probable space group: C M M M
;
_chemical_formula_sum "Si O2"
_cell_formula_units_Z 88
_cell_length_a 29.298268
_cell_length_b 9.233559
_cell_length_c 17.294520
_cell_angle_alpha 90.000000
_cell_angle_beta 90.000000
_cell_angle_gamma 90.000000
_cell_volume 4678.639561
_symmetry_space_group_name_H-M "C M M M"
_symmetry_group_IT_number 65
_symmetry_cell_setting 'orthorhombic'
loop_
_space_group_symop_operation_xyz
x,y,z
-x,-y,z
x,-y,-z
-x,y,-z
-x,-y,-z
x,y,-z
-x,y,z
x,-y,z
1/2+x,1/2+y,z
1/2-x,1/2-y,z
1/2+x,1/2-y,-z
1/2-x,1/2+y,-z
1/2-x,1/2-y,-z
1/2+x,1/2+y,-z
1/2-x,1/2+y,z
1/2+x,1/2-y,z
loop_
_atom_site_type_symbol
_atom_site_label
_atom_site_fract_x
_atom_site_fract_y
_atom_site_fract_z
Si Si1 0.894725 0.672659 0.349921
Si Si2 0.673384 0.841966 0.860614
Si Si3 0.929081 0.339898 0.810968
Si Si4 0.052100 0.672675 0.500000
Si Si5 0.203036 0.830800 0.000000
Si Si6 0.000000 0.171773 0.910343
Si Si7 0.795040 0.330861 0.307168
O O1 0.892995 0.500000 0.347045
O O2 0.924710 0.724982 0.276077
O O3 0.920541 0.731925 0.425570
O O4 0.841888 0.727789 0.347601
O O5 0.620948 0.857913 0.842809
O O6 0.676840 0.716035 0.923191
O O7 0.701521 0.799292 0.784295
O O8 0.690890 0.000000 0.890996
O O9 0.952443 0.500000 0.810143
O O10 0.955882 0.231520 0.866378
O O11 0.051737 0.500000 0.500000
O O12 0.000000 0.731314 0.500000
O O13 0.250000 0.750000 0.000000
O O14 0.209548 0.000000 0.000000
O O15 0.000000 0.000000 0.905303
O O16 0.000000 0.222845 0.000000
O O17 0.788922 0.500000 0.324449
O O18 0.750000 0.250000 0.339946
#
# Coordination Sequence:
#
# PCOD8274803 Si02
#       7
#    16  16  16   8   8   8  16
#     4   8  16  31  50  80 114 138 169 220 269 311
#     4   9  19  35  52  72  98 129 170 220 268 313
#     4   9  19  36  58  78 101 137 178 219 264 319
#     4   9  16  26  49  84 114 138 168 218 277 318
#     4  12  24  34  48  71 100 133 168 214 265 314
#     4  11  25  39  51  74 109 140 176 225 269 315
#     4   9  17  31  51  74 104 138 173 213 257 307
#
# _framework density 18.808886000000001
#
# number of rings (size 3 to 8) (size 9 to 14) (size 15 to 20)
#    0.000    2.727    0.000    3.818    2.545    3.636 
#    0.000    3.182    0.000    0.000    0.000    2.545 
#    0.000    0.000    0.000    0.000    0.000    0.000 
#
# Total GULP energy -545289.167325 kJ/mol
# GULP energy per Si atom -12392.935621 kJ/mol
# Density = 1.876608 g / cm^3
# Si number density = 18.808886 Si / 1000 Ang^3
#
#
#
# Elastic Constant Matrix: (Units=GPa)
#
#
# Indices 1 2 3 4 5 6 
#
# 1 110.7322 32.2021 66.1844 0.0000 0.0000 0.0000
# 2 32.2021 65.7400 43.1125 0.0000 0.0000 0.0000
# 3 66.1844 43.1125 137.2638 0.0000 0.0000 0.0000
# 4 0.0000 0.0000 0.0000 3.0831 0.0000 0.0000
# 5 0.0000 0.0000 0.0000 0.0000 13.4021 0.0000
# 6 0.0000 0.0000 0.0000 0.0000 0.0000 -14.7884
#
#
#
# Elastic Compliance Matrix: (Units=1/GPa)
#
#
# Indices 1 2 3 4 5 6 
#
# 1 0.013102 -0.002865 -0.005418 0.000000 0.000000 0.000000
# 2 -0.002865 0.019784 -0.004832 0.000000 0.000000 0.000000
# 3 -0.005418 -0.004832 0.011415 0.000000 0.000000 0.000000
# 4 0.000000 0.000000 0.000000 0.324349 0.000000 0.000000
# 5 0.000000 0.000000 0.000000 0.000000 0.074615 0.000000
# 6 0.000000 0.000000 0.000000 0.000000 0.000000 -0.067621
#
#
# Mechanical properties :
#
#
# Convention : Reuss Voigt Hill
#
# Bulk Modulus (GPa) = 55.33665 66.30377 60.82021
# Shear Modulus (GPa) = 12.25797 11.82184 12.03990
#
# Velocity S-wave (km/s) = 2.55563 2.50976 2.53280
# Velocity P-wave (km/s) = 6.18002 6.61259 6.39996
#
# Compressibility (1/GPa) = 0.01807121
#
# Stress axis : x y z
#
# Youngs Moduli (GPa) = 76.32406 50.54601 87.60251
#
# Poissons Ratio (x) = 0.14482 0.47459
# Poissons Ratio (y) = 0.21867 0.42333
# Poissons Ratio (z) = 0.41349 0.24426
#
# Static dielectric constant tensor:
#      x y z
#    x 3.583950 0.000000 0.000000 
#    y 0.000000 2.854530 0.000000 
#    z 0.000000 0.000000 3.500500 
# 
# 
# High freq. dielectric constant tensor:
#      x y z
#    x 1.741010 0.000000 0.000000 
#    y 0.000000 1.690050 0.000000 
#    z 0.000000 0.000000 1.724120 
# 
# From -- ./inp_files/58082.got.cif
#   From: 2010.03.12/outbox.cif.g09.slc.cpg/sg65_30_cif.got.tgz:58082.got - 2010.04.10 20:52:16.
