data_PCOD8274819
_publ_section_title
;
Structure prediction by ZEFSAII (Michael W. Deem and Ramdas Pophale) SiO2 
 PCOD8274819
Probable space group: C M M M
;
_chemical_formula_sum "Si O2"
_cell_formula_units_Z 96
_cell_length_a 25.946403
_cell_length_b 14.499590
_cell_length_c 15.943288
_cell_angle_alpha 90.000000
_cell_angle_beta 90.000000
_cell_angle_gamma 90.000000
_cell_volume 5998.059541
_symmetry_space_group_name_H-M "C M M M"
_symmetry_group_IT_number 65
_symmetry_cell_setting 'orthorhombic'
loop_
_space_group_symop_operation_xyz
x,y,z
-x,-y,z
x,-y,-z
-x,y,-z
-x,-y,-z
x,y,-z
-x,y,z
x,-y,z
1/2+x,1/2+y,z
1/2-x,1/2-y,z
1/2+x,1/2-y,-z
1/2-x,1/2+y,-z
1/2-x,1/2-y,-z
1/2+x,1/2+y,-z
1/2-x,1/2+y,z
1/2+x,1/2-y,z
loop_
_atom_site_type_symbol
_atom_site_label
_atom_site_fract_x
_atom_site_fract_y
_atom_site_fract_z
Si Si1 0.859347 0.777038 0.188175
Si Si2 0.308552 0.398240 0.500000
Si Si3 0.559031 0.391927 0.904863
Si Si4 0.188916 0.247861 0.364339
Si Si5 0.221919 0.103526 0.096659
Si Si6 0.812642 0.396710 0.500000
Si Si7 0.340421 0.101691 0.902394
O O1 0.908077 0.840874 0.166679
O O2 0.849036 0.760482 0.285672
O O3 0.808170 0.822274 0.150483
O O4 0.872038 0.677734 0.148086
O O5 0.334359 0.500000 0.500000
O O6 0.325008 0.342766 0.417546
O O7 0.247862 0.407948 0.500000
O O8 0.500000 0.361433 0.894065
O O9 0.565201 0.500000 0.889651
O O10 0.577872 0.367568 0.000000
O O11 0.250000 0.250000 0.341335
O O12 0.172381 0.339334 0.416365
O O13 0.280925 0.107770 0.124744
O O14 0.200287 0.000000 0.111953
O O15 0.215704 0.130874 0.000000
O O16 0.838019 0.500000 0.500000
O O17 0.361873 0.000000 0.880032
O O18 0.346606 0.121416 0.000000
#
# Coordination Sequence:
#
# PCOD8274819 Si02
#       7
#    16   8  16  16  16   8  16
#     4  12  19  26  45  68  88 113 150 194 235 264
#     4   8  15  29  44  57  85 125 151 174 214 263
#     4   9  19  35  51  67  89 118 154 193 229 267
#     4   9  18  28  40  66  94 115 150 188 215 260
#     4   9  17  27  38  57  88 123 153 177 209 261
#     4   8  15  31  48  57  81 126 157 175 210 258
#     4   9  18  29  38  55  89 126 151 173 209 262
#
# _framework density 16.005175999999999
#
# number of rings (size 3 to 8) (size 9 to 14) (size 15 to 20)
#    0.000    2.667    0.000    6.000    0.000    4.667 
#    0.000    3.333    0.000    0.500    0.000    4.667 
#    0.000    6.667    0.000    0.000    0.000    0.000 
#
# Total GULP energy -594930.526066 kJ/mol
# GULP energy per Si atom -12394.385960 kJ/mol
# Density = 1.596875 g / cm^3
# Si number density = 16.005176 Si / 1000 Ang^3
#
#
#
# Elastic Constant Matrix: (Units=GPa)
#
#
# Indices 1 2 3 4 5 6 
#
# 1 41.7225 23.0373 33.7945 0.0000 0.0000 0.0000
# 2 23.0373 118.1813 56.3422 0.0000 0.0000 0.0000
# 3 33.7945 56.3422 92.9252 0.0000 0.0000 0.0000
# 4 0.0000 0.0000 0.0000 -442.7487 0.0000 0.0000
# 5 0.0000 0.0000 0.0000 0.0000 1.1511 0.0000
# 6 0.0000 0.0000 0.0000 0.0000 0.0000 18.9817
#
#
#
# Elastic Compliance Matrix: (Units=1/GPa)
#
#
# Indices 1 2 3 4 5 6 
#
# 1 0.034066 -0.001033 -0.011763 0.000000 0.000000 0.000000
# 2 -0.001033 0.011933 -0.006860 0.000000 0.000000 0.000000
# 3 -0.011763 -0.006860 0.019198 0.000000 0.000000 0.000000
# 4 0.000000 0.000000 0.000000 -0.002259 0.000000 0.000000
# 5 0.000000 0.000000 0.000000 0.000000 0.868753 0.000000
# 6 0.000000 0.000000 0.000000 0.000000 0.000000 0.052682
#
#
# Mechanical properties :
#
#
# Convention : Reuss Voigt Hill
#
# Bulk Modulus (GPa) = 38.62953 53.24190 45.93572
# Shear Modulus (GPa) = 4.84349 -75.21284 -35.18468
#
# Velocity S-wave (km/s) = 1.74149 -6.86257 -4.69372
# Velocity P-wave (km/s) = 5.31336 5.42729 0.78222
#
# Compressibility (1/GPa) = 0.02588693
#
# Stress axis : x y z
#
# Youngs Moduli (GPa) = 29.35510 83.79960 52.08790
#
# Poissons Ratio (x) = 0.08654 0.61269
# Poissons Ratio (y) = 0.03032 0.35731
# Poissons Ratio (z) = 0.34529 0.57484
#
# Static dielectric constant tensor:
#      x y z
#    x 2.583600 0.000000 0.000000 
#    y 0.000000 3.583500 0.000000 
#    z 0.000000 0.000000 2.886850 
# 
# 
# High freq. dielectric constant tensor:
#      x y z
#    x 1.554790 0.000000 0.000000 
#    y 0.000000 1.633030 0.000000 
#    z 0.000000 0.000000 1.600690 
# 
# From -- ./inp_files/46953.got.cif
#   From: 2010.03.12/outbox.cif.g09.slc.cpg/sg65_24_cif.got.tgz:46953.got - 2010.04.10 20:52:16.
