data_PCOD8274966
_publ_section_title
;
Structure prediction by ZEFSAII (Michael W. Deem and Ramdas Pophale) SiO2 
 PCOD8274966
Probable space group: C M M M
;
_chemical_formula_sum "Si O2"
_cell_formula_units_Z 104
_cell_length_a 9.603465
_cell_length_b 28.710479
_cell_length_c 21.930017
_cell_angle_alpha 90.000000
_cell_angle_beta 90.000000
_cell_angle_gamma 90.000000
_cell_volume 6046.546046
_symmetry_space_group_name_H-M "C M M M"
_symmetry_group_IT_number 65
_symmetry_cell_setting 'orthorhombic'
loop_
_space_group_symop_operation_xyz
x,y,z
-x,-y,z
x,-y,-z
-x,y,-z
-x,-y,-z
x,y,-z
-x,y,z
x,-y,z
1/2+x,1/2+y,z
1/2-x,1/2-y,z
1/2+x,1/2-y,-z
1/2-x,1/2+y,-z
1/2-x,1/2-y,-z
1/2+x,1/2+y,-z
1/2-x,1/2+y,z
1/2+x,1/2-y,z
loop_
_atom_site_type_symbol
_atom_site_label
_atom_site_fract_x
_atom_site_fract_y
_atom_site_fract_z
Si Si1 0.164931 0.202683 0.677936
Si Si2 0.833861 0.111028 0.887782
Si Si3 0.834046 0.947852 0.642714
Si Si4 0.166292 0.051972 0.000000
Si Si5 0.334982 0.613175 0.752538
Si Si6 0.345594 0.709938 0.927687
Si Si7 0.834757 0.138697 0.567573
O O1 0.250000 0.250000 0.688929
O O2 0.207089 0.165154 0.730128
O O3 0.210855 0.180129 0.613009
O O4 0.000000 0.213482 0.679245
O O5 0.774568 0.075307 0.938105
O O6 0.775633 0.101186 0.819826
O O7 0.779344 0.161544 0.907038
O O8 0.000000 0.109499 0.888983
O O9 0.779486 0.926865 0.707028
O O10 0.781774 0.912230 0.590260
O O11 0.000000 0.950121 0.642947
O O12 0.772594 0.000000 0.632684
O O13 0.000000 0.054642 0.000000
O O14 0.223109 0.000000 0.000000
O O15 0.500000 0.611293 0.753494
O O16 0.500000 0.716222 0.900359
O O17 0.250000 0.750000 0.899471
O O18 0.350503 0.712212 0.000000
O O19 0.773355 0.148245 0.500000
O O20 0.000000 0.137099 0.566193
#
# Coordination Sequence:
#
# PCOD8274966 Si02
#       7
#    16  16  16   8  16  16  16
#     4   9  17  29  43  60  83 112 143 172 202 239
#     4   9  15  25  38  53  77 107 135 166 206 245
#     4   8  13  21  33  51  76 105 136 167 200 243
#     4   9  16  24  35  54  79 107 139 169 198 243
#     4   8  15  25  37  53  76 106 136 167 205 245
#     4   9  16  26  40  57  78 103 130 160 195 236
#     4   8  14  24  37  55  80 108 137 169 205 243
#
# _framework density 17.199901000000001
#
# number of rings (size 3 to 8) (size 9 to 14) (size 15 to 20)
#    0.000    3.462    0.769    1.846    0.000    1.846 
#    0.000    4.615    0.000    0.000    0.000    0.000 
#    0.000   11.077    0.000   11.077    0.000   12.308 
#
# Total GULP energy -644240.783613 kJ/mol
# GULP energy per Si atom -12389.245839 kJ/mol
# Density = 1.716075 g / cm^3
# Si number density = 17.199901 Si / 1000 Ang^3
#
#
#
# Elastic Constant Matrix: (Units=GPa)
#
#
# Indices 1 2 3 4 5 6 
#
# 1 12.8211 10.8083 7.8531 0.0000 0.0000 0.0000
# 2 10.8083 96.1818 48.8979 0.0000 0.0000 0.0000
# 3 7.8531 48.8979 123.8818 0.0000 0.0000 0.0000
# 4 0.0000 0.0000 0.0000 14.1856 0.0000 0.0000
# 5 0.0000 0.0000 0.0000 0.0000 5.4577 0.0000
# 6 0.0000 0.0000 0.0000 0.0000 0.0000 17.1040
#
#
#
# Elastic Compliance Matrix: (Units=1/GPa)
#
#
# Indices 1 2 3 4 5 6 
#
# 1 0.086577 -0.008681 -0.002062 0.000000 0.000000 0.000000
# 2 -0.008681 0.013877 -0.004927 0.000000 0.000000 0.000000
# 3 -0.002062 -0.004927 0.010148 0.000000 0.000000 0.000000
# 4 0.000000 0.000000 0.000000 0.070494 0.000000 0.000000
# 5 0.000000 0.000000 0.000000 0.000000 0.183227 0.000000
# 6 0.000000 0.000000 0.000000 0.000000 0.000000 0.058466
#
#
# Mechanical properties :
#
#
# Convention : Reuss Voigt Hill
#
# Bulk Modulus (GPa) = 12.61629 40.88926 26.75277
# Shear Modulus (GPa) = 10.40474 18.37116 14.38795
#
# Velocity S-wave (km/s) = 2.46220 3.27172 2.89539
# Velocity P-wave (km/s) = 3.92865 6.17226 5.17354
#
# Compressibility (1/GPa) = 0.07926262
#
# Stress axis : x y z
#
# Youngs Moduli (GPa) = 11.55037 72.05919 98.54340
#
# Poissons Ratio (x) = 0.62553 0.20318
# Poissons Ratio (y) = 0.10027 0.48556
# Poissons Ratio (z) = 0.02382 0.35506
#
# Static dielectric constant tensor:
#      x y z
#    x 2.548460 0.000000 0.000000 
#    y 0.000000 3.370550 0.000000 
#    z 0.000000 0.000000 3.648650 
# 
# 
# High freq. dielectric constant tensor:
#      x y z
#    x 1.576010 0.000000 0.000000 
#    y 0.000000 1.670600 0.000000 
#    z 0.000000 0.000000 1.671340 
# 
# From -- ./inp_files/68584.got.cif
#   From: 2010.03.12/outbox.cif.g09.slc.cpg/sg65_35_cif.got.tgz:68584.got - 2010.04.10 20:52:16.
