data_PCOD8274466
_publ_section_title
;
Structure prediction by ZEFSAII (Michael W. Deem and Ramdas Pophale) SiO2 
 PCOD8274466
Probable space group: C M M M
;
_chemical_formula_sum "Si O2"
_cell_formula_units_Z 88
_cell_length_a 18.480130
_cell_length_b 9.235149
_cell_length_c 28.289848
_cell_angle_alpha 90.000000
_cell_angle_beta 90.000000
_cell_angle_gamma 90.000000
_cell_volume 4828.136532
_symmetry_space_group_name_H-M "C M M M"
_symmetry_group_IT_number 65
_symmetry_cell_setting 'orthorhombic'
loop_
_space_group_symop_operation_xyz
x,y,z
-x,-y,z
x,-y,-z
-x,y,-z
-x,-y,-z
x,y,-z
-x,y,z
x,-y,z
1/2+x,1/2+y,z
1/2-x,1/2-y,z
1/2+x,1/2-y,-z
1/2-x,1/2+y,-z
1/2-x,1/2-y,-z
1/2+x,1/2+y,-z
1/2-x,1/2+y,z
1/2+x,1/2-y,z
loop_
_atom_site_type_symbol
_atom_site_label
_atom_site_fract_x
_atom_site_fract_y
_atom_site_fract_z
Si Si1 0.580323 0.328503 0.638595
Si Si2 0.914211 0.659674 0.912293
Si Si3 0.823339 0.169208 0.553341
Si Si4 0.584373 0.168958 0.193762
Si Si5 0.826577 0.827268 0.272079
Si Si6 0.413478 0.338764 0.000000
O O1 0.500000 0.260388 0.642742
O O2 0.574807 0.500000 0.639399
O O3 0.615011 0.275881 0.589165
O O4 0.628805 0.275218 0.682131
O O5 0.882157 0.500000 0.921322
O O6 0.893408 0.712374 0.859731
O O7 0.882292 0.763803 0.952680
O O8 0.000000 0.652925 0.916171
O O9 0.848874 0.205211 0.500000
O O10 0.750000 0.250000 0.566367
O O11 0.808098 0.000000 0.559895
O O12 0.500000 0.199627 0.202953
O O13 0.630827 0.273952 0.226270
O O14 0.601827 0.000000 0.203341
O O15 0.750000 0.750000 0.274596
O O16 0.816767 0.000000 0.269964
O O17 0.383014 0.500000 0.000000
O O18 0.500000 0.335256 0.000000
#
# Coordination Sequence:
#
# PCOD8274466 Si02
#       6
#    16  16  16  16  16   8
#     4   9  18  32  50  74 101 127 161 206 252 297
#     4   8  14  25  41  61  89 126 161 194 238 290
#     4   9  17  30  50  74 100 132 167 203 243 289
#     4   9  18  33  52  74 100 129 164 207 252 299
#     4  11  22  35  52  72  97 130 166 206 252 302
#     4   9  15  21  33  59  94 127 160 199 238 279
#
# _framework density 18.226495
#
# number of rings (size 3 to 8) (size 9 to 14) (size 15 to 20)
#    0.000    2.818    0.000    3.000    0.000    3.273 
#    0.000    4.545    0.000    2.727    0.000    3.182 
#    0.000    0.000    0.000    0.000    0.000    0.000 
#
# Total GULP energy -545459.225720 kJ/mol
# GULP energy per Si atom -12396.800585 kJ/mol
# Density = 1.818501 g / cm^3
# Si number density = 18.226495 Si / 1000 Ang^3
#
#
#
# Elastic Constant Matrix: (Units=GPa)
#
#
# Indices 1 2 3 4 5 6 
#
# 1 100.2075 46.9477 74.0943 0.0000 0.0000 0.0000
# 2 46.9477 74.4490 62.3011 0.0000 0.0000 0.0000
# 3 74.0943 62.3011 161.8437 0.0000 0.0000 0.0000
# 4 0.0000 0.0000 0.0000 24.5189 0.0000 0.0000
# 5 0.0000 0.0000 0.0000 0.0000 6.9420 0.0000
# 6 0.0000 0.0000 0.0000 0.0000 0.0000 19.6254
#
#
#
# Elastic Compliance Matrix: (Units=1/GPa)
#
#
# Indices 1 2 3 4 5 6 
#
# 1 0.016790 -0.006130 -0.005327 0.000000 0.000000 0.000000
# 2 -0.006130 0.022053 -0.005683 0.000000 0.000000 0.000000
# 3 -0.005327 -0.005683 0.010805 0.000000 0.000000 0.000000
# 4 0.000000 0.000000 0.000000 0.040785 0.000000 0.000000
# 5 0.000000 0.000000 0.000000 0.000000 0.144051 0.000000
# 6 0.000000 0.000000 0.000000 0.000000 0.000000 0.050954
#
#
# Mechanical properties :
#
#
# Convention : Reuss Voigt Hill
#
# Bulk Modulus (GPa) = 65.06768 78.13185 71.59977
# Shear Modulus (GPa) = 15.39210 20.42771 17.90991
#
# Velocity S-wave (km/s) = 2.90916 3.35142 3.13809
# Velocity P-wave (km/s) = 6.86013 7.61159 7.24561
#
# Compressibility (1/GPa) = 0.01536861
#
# Stress axis : x y z
#
# Youngs Moduli (GPa) = 59.55889 45.34476 92.54829
#
# Poissons Ratio (x) = 0.27797 0.49300
# Poissons Ratio (y) = 0.36510 0.52594
# Poissons Ratio (z) = 0.31727 0.25769
#
# Static dielectric constant tensor:
#      x y z
#    x 3.185850 0.000000 0.000000 
#    y 0.000000 3.273980 0.000000 
#    z 0.000000 0.000000 3.643680 
# 
# 
# High freq. dielectric constant tensor:
#      x y z
#    x 1.674420 0.000000 0.000000 
#    y 0.000000 1.688880 0.000000 
#    z 0.000000 0.000000 1.725090 
# 
# From -- ./inp_files/75385.got.cif
#   From: 2010.03.12/outbox.cif.g09.slc.cpg/sg65_38_cif.got.tgz:75385.got - 2010.04.10 20:52:16.
