data_PCOD8274077
_publ_section_title
;
Structure prediction by ZEFSAII (Michael W. Deem and Ramdas Pophale) SiO2 
 PCOD8274077
Probable space group: C M M M
;
_chemical_formula_sum "Si O2"
_cell_formula_units_Z 56
_cell_length_a 33.122220
_cell_length_b 11.543139
_cell_length_c 7.483097
_cell_angle_alpha 90.000000
_cell_angle_beta 90.000000
_cell_angle_gamma 90.000000
_cell_volume 2861.045323
_symmetry_space_group_name_H-M "C M M M"
_symmetry_group_IT_number 65
_symmetry_cell_setting 'orthorhombic'
loop_
_space_group_symop_operation_xyz
x,y,z
-x,-y,z
x,-y,-z
-x,y,-z
-x,-y,-z
x,y,-z
-x,y,z
x,-y,z
1/2+x,1/2+y,z
1/2-x,1/2-y,z
1/2+x,1/2-y,-z
1/2-x,1/2+y,-z
1/2-x,1/2-y,-z
1/2+x,1/2+y,-z
1/2-x,1/2+y,z
1/2+x,1/2-y,z
loop_
_atom_site_type_symbol
_atom_site_label
_atom_site_fract_x
_atom_site_fract_y
_atom_site_fract_z
Si Si1 0.343837 0.368006 0.796458
Si Si2 0.545656 0.000000 0.212192
Si Si3 0.278220 0.635138 0.500000
Si Si4 0.500000 0.371097 0.213105
Si Si5 0.577677 0.240321 0.212261
O O1 0.359215 0.500000 0.788120
O O2 0.304356 0.350596 0.678272
O O3 0.379864 0.289304 0.715970
O O4 0.332843 0.332926 0.000000
O O5 0.571373 0.109415 0.279282
O O6 0.500000 0.000000 0.290922
O O7 0.541949 0.000000 0.000000
O O8 0.259660 0.500000 0.500000
O O9 0.250000 0.750000 0.500000
O O10 0.500000 0.500000 0.285921
O O11 0.540037 0.311441 0.290860
O O12 0.500000 0.363778 0.000000
O O13 0.577990 0.250467 0.000000
#
# Coordination Sequence:
#
# PCOD8274077 Si02
#       5
#    16   8   8   8  16
#     4   9  18  34  57  83 110 141 178 221 268 317
#     4   9  14  22  36  61 103 147 182 221 263 304
#     4  10  22  42  64  85 112 141 171 216 275 336
#     4   9  14  19  33  60  94 132 175 220 256 296
#     4   9  15  24  40  66 101 139 180 219 259 307
#
# _framework density 19.573264000000002
#
# number of rings (size 3 to 8) (size 9 to 14) (size 15 to 20)
#    0.000    2.857    1.429    0.857    0.000    4.000 
#    2.571    0.000    0.000    0.857    0.000    5.000 
#    0.000    0.000    0.000    0.000    0.000    0.000 
#
# Total GULP energy -346936.880892 kJ/mol
# GULP energy per Si atom -12390.602889 kJ/mol
# Density = 1.952871 g / cm^3
# Si number density = 19.573264 Si / 1000 Ang^3
#
#
#
# Elastic Constant Matrix: (Units=GPa)
#
#
# Indices 1 2 3 4 5 6 
#
# 1 108.5446 82.6745 29.3600 0.0000 0.0000 0.0000
# 2 82.6745 178.4825 21.4028 0.0000 0.0000 0.0000
# 3 29.3600 21.4028 56.1335 0.0000 0.0000 0.0000
# 4 0.0000 0.0000 0.0000 7.5088 0.0000 0.0000
# 5 0.0000 0.0000 0.0000 0.0000 -69.4685 0.0000
# 6 0.0000 0.0000 0.0000 0.0000 0.0000 45.8923
#
#
#
# Elastic Compliance Matrix: (Units=1/GPa)
#
#
# Indices 1 2 3 4 5 6 
#
# 1 0.015825 -0.006642 -0.005745 0.000000 0.000000 0.000000
# 2 -0.006642 0.008659 0.000172 0.000000 0.000000 0.000000
# 3 -0.005745 0.000172 0.020754 0.000000 0.000000 0.000000
# 4 0.000000 0.000000 0.000000 0.133177 0.000000 0.000000
# 5 0.000000 0.000000 0.000000 0.000000 -0.014395 0.000000
# 6 0.000000 0.000000 0.000000 0.000000 0.000000 0.021790
#
#
# Mechanical properties :
#
#
# Convention : Reuss Voigt Hill
#
# Bulk Modulus (GPa) = 48.05495 67.78169 57.91832
# Shear Modulus (GPa) = 23.02298 10.76806 16.89552
#
# Velocity S-wave (km/s) = 3.43337 2.34805 2.94120
# Velocity P-wave (km/s) = 6.34996 6.48506 6.41787
#
# Compressibility (1/GPa) = 0.02080951
#
# Stress axis : x y z
#
# Youngs Moduli (GPa) = 63.18977 115.49316 48.18398
#
# Poissons Ratio (x) = 0.76705 0.27682
# Poissons Ratio (y) = 0.41968 -0.00831
# Poissons Ratio (z) = 0.36302 -0.01991
#
# Static dielectric constant tensor:
#      x y z
#    x 3.391380 0.000000 0.000000 
#    y 0.000000 3.893850 0.000000 
#    z 0.000000 0.000000 3.243470 
# 
# 
# High freq. dielectric constant tensor:
#      x y z
#    x 1.735580 0.000000 0.000000 
#    y 0.000000 1.770690 0.000000 
#    z 0.000000 0.000000 1.743550 
# 
# From -- ./inp_files/4500.got.cif
#   From: 2010.03.12/outbox.cif.g09.slc.cpg/sg65_3_cif.got.tgz:4500.got - 2010.04.10 20:52:16.
