data_PCOD8274480
_publ_section_title
;
Structure prediction by ZEFSAII (Michael W. Deem and Ramdas Pophale) SiO2 
 PCOD8274480
Probable space group: C M M M
;
_chemical_formula_sum "Si O2"
_cell_formula_units_Z 96
_cell_length_a 24.161253
_cell_length_b 23.909348
_cell_length_c 8.796799
_cell_angle_alpha 90.000000
_cell_angle_beta 90.000000
_cell_angle_gamma 90.000000
_cell_volume 5081.733141
_symmetry_space_group_name_H-M "C M M M"
_symmetry_group_IT_number 65
_symmetry_cell_setting 'orthorhombic'
loop_
_space_group_symop_operation_xyz
x,y,z
-x,-y,z
x,-y,-z
-x,y,-z
-x,-y,-z
x,y,-z
-x,y,z
x,-y,z
1/2+x,1/2+y,z
1/2-x,1/2-y,z
1/2+x,1/2-y,-z
1/2-x,1/2+y,-z
1/2-x,1/2-y,-z
1/2+x,1/2+y,-z
1/2-x,1/2+y,z
1/2+x,1/2-y,z
loop_
_atom_site_type_symbol
_atom_site_label
_atom_site_fract_x
_atom_site_fract_y
_atom_site_fract_z
Si Si1 0.063620 0.564043 0.178055
Si Si2 0.656153 0.858984 0.679494
Si Si3 0.060163 0.156030 0.323557
Si Si4 0.230203 0.140043 0.821833
Si Si5 0.357947 0.436395 0.324651
Si Si6 0.658490 0.730882 0.680220
O O1 0.077584 0.500000 0.223686
O O2 0.102864 0.606405 0.267734
O O3 0.000000 0.577555 0.221200
O O4 0.073182 0.572645 0.000000
O O5 0.660751 0.864252 0.500000
O O6 0.711730 0.882221 0.755570
O O7 0.652218 0.794548 0.732480
O O8 0.053478 0.169558 0.500000
O O9 0.082987 0.093367 0.299140
O O10 0.103644 0.200281 0.254693
O O11 0.000000 0.161518 0.243441
O O12 0.187147 0.091543 0.783028
O O13 0.212270 0.199862 0.749787
O O14 0.235391 0.148054 0.000000
O O15 0.338926 0.429806 0.500000
O O16 0.365333 0.500000 0.275501
O O17 0.664020 0.724631 0.500000
#
# Coordination Sequence:
#
# PCOD8274480 Si02
#       6
#    16  16  16  16  16  16
#     4   9  20  40  61  80 108 144 177 213 260 313
#     4  11  22  35  56  83 108 137 175 218 262 313
#     4   8  14  27  49  76 104 133 167 208 252 299
#     4  11  22  35  53  76 105 140 177 219 267 318
#     4   9  18  33  52  74 103 139 177 217 261 309
#     4   9  19  35  53  76 108 141 173 214 263 312
#
# _framework density 18.891192
#
# number of rings (size 3 to 8) (size 9 to 14) (size 15 to 20)
#    0.000    2.500    0.000    4.000    0.000    6.000 
#    0.000    4.167    0.000    8.000    0.000    4.667 
#    0.000    0.000    0.000    0.000    0.000    0.000 
#
# Total GULP energy -595091.657011 kJ/mol
# GULP energy per Si atom -12397.742854 kJ/mol
# Density = 1.884819 g / cm^3
# Si number density = 18.891192 Si / 1000 Ang^3
#
#
#
# Elastic Constant Matrix: (Units=GPa)
#
#
# Indices 1 2 3 4 5 6 
#
# 1 116.4418 31.6486 34.7862 0.0000 0.0000 0.0000
# 2 31.6486 73.4399 22.2365 0.0000 0.0000 0.0000
# 3 34.7862 22.2365 60.0718 0.0000 0.0000 0.0000
# 4 0.0000 0.0000 0.0000 23.8286 0.0000 0.0000
# 5 0.0000 0.0000 0.0000 0.0000 24.0530 0.0000
# 6 0.0000 0.0000 0.0000 0.0000 0.0000 24.8487
#
#
#
# Elastic Compliance Matrix: (Units=1/GPa)
#
#
# Indices 1 2 3 4 5 6 
#
# 1 0.011002 -0.003167 -0.005199 0.000000 0.000000 0.000000
# 2 -0.003167 0.016247 -0.004180 0.000000 0.000000 0.000000
# 3 -0.005199 -0.004180 0.021204 0.000000 0.000000 0.000000
# 4 0.000000 0.000000 0.000000 0.041966 0.000000 0.000000
# 5 0.000000 0.000000 0.000000 0.000000 0.041575 0.000000
# 6 0.000000 0.000000 0.000000 0.000000 0.000000 0.040244
#
#
# Mechanical properties :
#
#
# Convention : Reuss Voigt Hill
#
# Bulk Modulus (GPa) = 42.80493 47.47735 45.14114
# Shear Modulus (GPa) = 24.37633 25.29820 24.83726
#
# Velocity S-wave (km/s) = 3.59605 3.66341 3.62989
# Velocity P-wave (km/s) = 6.32060 6.56359 6.44324
#
# Compressibility (1/GPa) = 0.02336179
#
# Stress axis : x y z
#
# Youngs Moduli (GPa) = 90.89399 61.54935 47.15998
#
# Poissons Ratio (x) = 0.19494 0.24516
# Poissons Ratio (y) = 0.28787 0.19713
# Poissons Ratio (z) = 0.47252 0.25728
#
# Static dielectric constant tensor:
#      x y z
#    x 3.701200 0.000000 0.000000 
#    y 0.000000 3.529500 0.000000 
#    z 0.000000 0.000000 3.155040 
# 
# 
# High freq. dielectric constant tensor:
#      x y z
#    x 1.741260 0.000000 0.000000 
#    y 0.000000 1.734330 0.000000 
#    z 0.000000 0.000000 1.708650 
# 
# From -- ./inp_files/14304.got.cif
#   From: 2010.03.12/outbox.cif.g09.slc.cpg/sg65_8_cif.got.tgz:14304.got - 2010.04.10 20:52:16.
