data_PCOD8274438
_publ_section_title
;
Structure prediction by ZEFSAII (Michael W. Deem and Ramdas Pophale) SiO2 
 PCOD8274438
Probable space group: C M M M
;
_chemical_formula_sum "Si O2"
_cell_formula_units_Z 88
_cell_length_a 8.085875
_cell_length_b 18.822931
_cell_length_c 29.798251
_cell_angle_alpha 90.000000
_cell_angle_beta 90.000000
_cell_angle_gamma 90.000000
_cell_volume 4535.289845
_symmetry_space_group_name_H-M "C M M M"
_symmetry_group_IT_number 65
_symmetry_cell_setting 'orthorhombic'
loop_
_space_group_symop_operation_xyz
x,y,z
-x,-y,z
x,-y,-z
-x,y,-z
-x,-y,-z
x,y,-z
-x,y,z
x,-y,z
1/2+x,1/2+y,z
1/2-x,1/2-y,z
1/2+x,1/2-y,-z
1/2-x,1/2+y,-z
1/2-x,1/2-y,-z
1/2+x,1/2+y,-z
1/2-x,1/2+y,z
1/2+x,1/2-y,z
loop_
_atom_site_type_symbol
_atom_site_label
_atom_site_fract_x
_atom_site_fract_y
_atom_site_fract_z
Si Si1 0.307931 0.919796 0.293035
Si Si2 0.500000 0.415273 0.550994
Si Si3 0.811009 0.829667 0.212917
Si Si4 0.302211 0.579815 0.868807
Si Si5 0.316138 0.084371 0.605250
Si Si6 0.195479 0.827372 0.950148
O O1 0.500000 0.917527 0.280925
O O2 0.211682 0.866942 0.260742
O O3 0.277923 0.892945 0.343733
O O4 0.239394 0.000000 0.287002
O O5 0.500000 0.500000 0.553831
O O6 0.500000 0.388302 0.500000
O O7 0.332221 0.385183 0.574283
O O8 0.750000 0.750000 0.215028
O O9 0.726774 0.875726 0.173145
O O10 0.000000 0.825871 0.200521
O O11 0.500000 0.578835 0.867759
O O12 0.231894 0.500000 0.865885
O O13 0.236243 0.614888 0.914955
O O14 0.500000 0.112873 0.590590
O O15 0.320723 0.000000 0.602220
O O16 0.250000 0.750000 0.933240
O O17 0.000000 0.830583 0.951723
O O18 0.268324 0.843084 0.000000
#
# Coordination Sequence:
#
# PCOD8274438 Si02
#       6
#    16   8  16  16  16  16
#     4   9  18  33  52  73  98 130 168 210 254 306
#     4   9  16  24  38  64  98 136 176 214 254 310
#     4  11  22  34  50  71  98 132 164 207 256 307
#     4   9  18  32  49  72  99 125 163 209 252 303
#     4   8  15  27  42  63  94 132 170 212 260 307
#     4   9  17  30  50  73  97 128 163 203 251 302
#
# _framework density 19.403390999999999
#
# number of rings (size 3 to 8) (size 9 to 14) (size 15 to 20)
#    0.000    2.818    0.000    2.727    1.273    1.818 
#    0.000    4.545    0.000    2.727    0.000    2.545 
#    0.000    0.727    0.364    0.000    0.000    0.000 
#
# Total GULP energy -545371.624602 kJ/mol
# GULP energy per Si atom -12394.809650 kJ/mol
# Density = 1.935923 g / cm^3
# Si number density = 19.403391 Si / 1000 Ang^3
#
#
#
# Elastic Constant Matrix: (Units=GPa)
#
#
# Indices 1 2 3 4 5 6 
#
# 1 63.9365 25.5948 49.1686 0.0000 0.0000 0.0000
# 2 25.5948 108.6042 65.1789 0.0000 0.0000 0.0000
# 3 49.1686 65.1789 142.0479 0.0000 0.0000 0.0000
# 4 0.0000 0.0000 0.0000 33.2148 0.0000 0.0000
# 5 0.0000 0.0000 0.0000 0.0000 17.5749 0.0000
# 6 0.0000 0.0000 0.0000 0.0000 0.0000 14.4910
#
#
#
# Elastic Compliance Matrix: (Units=1/GPa)
#
#
# Indices 1 2 3 4 5 6 
#
# 1 0.021367 -0.000824 -0.007018 0.000000 0.000000 0.000000
# 2 -0.000824 0.012739 -0.005560 0.000000 0.000000 0.000000
# 3 -0.007018 -0.005560 0.012020 0.000000 0.000000 0.000000
# 4 0.000000 0.000000 0.000000 0.030107 0.000000 0.000000
# 5 0.000000 0.000000 0.000000 0.000000 0.056899 0.000000
# 6 0.000000 0.000000 0.000000 0.000000 0.000000 0.069008
#
#
# Mechanical properties :
#
#
# Convention : Reuss Voigt Hill
#
# Bulk Modulus (GPa) = 51.75278 66.05260 58.90269
# Shear Modulus (GPa) = 21.24170 24.69922 22.97046
#
# Velocity S-wave (km/s) = 3.31228 3.57169 3.44443
# Velocity P-wave (km/s) = 6.43103 7.15017 6.80012
#
# Compressibility (1/GPa) = 0.01932263
#
# Stress axis : x y z
#
# Youngs Moduli (GPa) = 46.80030 78.50058 83.19179
#
# Poissons Ratio (x) = 0.06466 0.58385
# Poissons Ratio (y) = 0.03855 0.46255
# Poissons Ratio (z) = 0.32845 0.43647
#
# Static dielectric constant tensor:
#      x y z
#    x 3.536890 0.000000 0.000000 
#    y 0.000000 3.170730 0.000000 
#    z 0.000000 0.000000 3.741500 
# 
# 
# High freq. dielectric constant tensor:
#      x y z
#    x 1.741430 0.000000 0.000000 
#    y 0.000000 1.718320 0.000000 
#    z 0.000000 0.000000 1.761990 
# 
# From -- ./inp_files/73217.got.cif
#   From: 2010.03.12/outbox.cif.g09.slc.cpg/sg65_37_cif.got.tgz:73217.got - 2010.04.10 20:52:16.
