data_PCOD8274683
_publ_section_title
;
Structure prediction by ZEFSAII (Michael W. Deem and Ramdas Pophale) SiO2 
 PCOD8274683
Probable space group: C M M M
;
_chemical_formula_sum "Si O2"
_cell_formula_units_Z 80
_cell_length_a 8.728268
_cell_length_b 29.246755
_cell_length_c 16.224867
_cell_angle_alpha 90.000000
_cell_angle_beta 90.000000
_cell_angle_gamma 90.000000
_cell_volume 4141.778842
_symmetry_space_group_name_H-M "C M M M"
_symmetry_group_IT_number 65
_symmetry_cell_setting 'orthorhombic'
loop_
_space_group_symop_operation_xyz
x,y,z
-x,-y,z
x,-y,-z
-x,y,-z
-x,-y,-z
x,y,-z
-x,y,z
x,-y,z
1/2+x,1/2+y,z
1/2-x,1/2-y,z
1/2+x,1/2-y,-z
1/2-x,1/2+y,-z
1/2-x,1/2-y,-z
1/2+x,1/2+y,-z
1/2-x,1/2+y,z
1/2+x,1/2-y,z
loop_
_atom_site_type_symbol
_atom_site_label
_atom_site_fract_x
_atom_site_fract_y
_atom_site_fract_z
Si Si1 0.178950 0.296652 0.324645
Si Si2 0.672497 0.918725 0.500000
Si Si3 0.677115 0.447864 0.903386
Si Si4 0.669568 0.549494 0.649139
Si Si5 0.321483 0.675523 0.500000
Si Si6 0.677555 0.113002 0.226987
O O1 0.250000 0.250000 0.289082
O O2 0.249226 0.305828 0.415194
O O3 0.210316 0.334235 0.252254
O O4 0.000000 0.291143 0.339326
O O5 0.500000 0.899324 0.500000
O O6 0.702090 0.949796 0.578831
O O7 0.795013 0.878308 0.500000
O O8 0.500000 0.441744 0.878009
O O9 0.730323 0.500000 0.879133
O O10 0.776890 0.406203 0.863258
O O11 0.699037 0.441141 0.000000
O O12 0.500000 0.558729 0.612607
O O13 0.676961 0.500000 0.691948
O O14 0.705915 0.586424 0.716083
O O15 0.500000 0.687660 0.500000
O O16 0.500000 0.101664 0.243887
#
# Coordination Sequence:
#
# PCOD8274683 Si02
#       6
#    16   8  16  16   8  16
#     4  11  24  41  60  84 114 149 192 244 296 347
#     4  12  23  36  53  76 108 147 190 238 286 334
#     4   9  19  37  61  89 121 156 192 229 274 336
#     4  11  23  37  54  77 108 150 195 232 276 339
#     4  12  23  38  61  83 109 150 195 242 296 348
#     4  11  23  37  57  85 117 148 185 236 289 338
#
# _framework density 19.315370999999999
#
# number of rings (size 3 to 8) (size 9 to 14) (size 15 to 20)
#    0.000    1.200    2.000    5.400    0.000    8.400 
#    0.000    1.000    0.000    0.600    0.000    0.000 
#    0.000    0.000    0.000    0.000    0.000    0.000 
#
# Total GULP energy -495585.000125 kJ/mol
# GULP energy per Si atom -12389.625003 kJ/mol
# Density = 1.927141 g / cm^3
# Si number density = 19.315371 Si / 1000 Ang^3
#
#
#
# Elastic Constant Matrix: (Units=GPa)
#
#
# Indices 1 2 3 4 5 6 
#
# 1 106.3324 62.6181 34.2117 0.0000 0.0000 0.0000
# 2 62.6181 141.7978 49.1972 0.0000 0.0000 0.0000
# 3 34.2117 49.1972 83.9639 0.0000 0.0000 0.0000
# 4 0.0000 0.0000 0.0000 35.3160 0.0000 0.0000
# 5 0.0000 0.0000 0.0000 0.0000 36.5133 0.0000
# 6 0.0000 0.0000 0.0000 0.0000 0.0000 30.7858
#
#
#
# Elastic Compliance Matrix: (Units=1/GPa)
#
#
# Indices 1 2 3 4 5 6 
#
# 1 0.013098 -0.004936 -0.002445 0.000000 0.000000 0.000000
# 2 -0.004936 0.010712 -0.004265 0.000000 0.000000 0.000000
# 3 -0.002445 -0.004265 0.015405 0.000000 0.000000 0.000000
# 4 0.000000 0.000000 0.000000 0.028316 0.000000 0.000000
# 5 0.000000 0.000000 0.000000 0.000000 0.027387 0.000000
# 6 0.000000 0.000000 0.000000 0.000000 0.000000 0.032483
#
#
# Mechanical properties :
#
#
# Convention : Reuss Voigt Hill
#
# Bulk Modulus (GPa) = 62.80176 69.34978 66.07577
# Shear Modulus (GPa) = 32.05141 32.92749 32.48945
#
# Velocity S-wave (km/s) = 4.07796 4.13332 4.10573
# Velocity P-wave (km/s) = 7.39983 7.66557 7.53387
#
# Compressibility (1/GPa) = 0.01592312
#
# Stress axis : x y z
#
# Youngs Moduli (GPa) = 76.34961 93.35521 64.91322
#
# Poissons Ratio (x) = 0.46078 0.15869
# Poissons Ratio (y) = 0.37684 0.27687
# Poissons Ratio (z) = 0.18665 0.39819
#
# Static dielectric constant tensor:
#      x y z
#    x 3.601520 0.000000 0.000000 
#    y 0.000000 3.779280 0.000000 
#    z 0.000000 0.000000 3.963620 
# 
# 
# High freq. dielectric constant tensor:
#      x y z
#    x 1.762450 0.000000 0.000000 
#    y 0.000000 1.749770 0.000000 
#    z 0.000000 0.000000 1.733040 
# 
# From -- ./inp_files/49977.got.cif
#   From: 2010.03.12/outbox.cif.g09.slc.cpg/sg65_25_cif.got.tgz:49977.got - 2010.04.10 20:52:16.
