data_PCOD8274024
_publ_section_title
;
Structure prediction by ZEFSAII (Michael W. Deem and Ramdas Pophale) SiO2 
 PCOD8274024
Probable space group: C M M M
;
_chemical_formula_sum "Si O2"
_cell_formula_units_Z 88
_cell_length_a 23.728428
_cell_length_b 8.384916
_cell_length_c 23.313988
_cell_angle_alpha 90.000000
_cell_angle_beta 90.000000
_cell_angle_gamma 90.000000
_cell_volume 4638.571466
_symmetry_space_group_name_H-M "C M M M"
_symmetry_group_IT_number 65
_symmetry_cell_setting 'orthorhombic'
loop_
_space_group_symop_operation_xyz
x,y,z
-x,-y,z
x,-y,-z
-x,y,-z
-x,-y,-z
x,y,-z
-x,y,z
x,-y,z
1/2+x,1/2+y,z
1/2-x,1/2-y,z
1/2+x,1/2-y,-z
1/2-x,1/2+y,-z
1/2-x,1/2-y,-z
1/2+x,1/2+y,-z
1/2-x,1/2+y,z
1/2+x,1/2-y,z
loop_
_atom_site_type_symbol
_atom_site_label
_atom_site_fract_x
_atom_site_fract_y
_atom_site_fract_z
Si Si1 0.120007 0.812817 0.937849
Si Si2 0.687170 0.689976 0.172345
Si Si3 0.500000 0.818384 0.914264
Si Si4 0.394429 0.185539 0.736005
Si Si5 0.433436 0.326119 0.500000
Si Si6 0.935068 0.809529 0.623892
Si Si7 0.500000 0.680402 0.204551
O O1 0.153310 0.740593 0.883252
O O2 0.055054 0.764917 0.938757
O O3 0.124213 0.000000 0.931853
O O4 0.145836 0.758757 0.000000
O O5 0.684628 0.500000 0.175978
O O6 0.750000 0.750000 0.165549
O O7 0.662154 0.764511 0.230707
O O8 0.500000 0.808093 0.845878
O O9 0.500000 0.000000 0.934120
O O10 0.391861 0.225722 0.668288
O O11 0.444683 0.295819 0.758311
O O12 0.406673 0.000000 0.745882
O O13 0.404598 0.500000 0.500000
O O14 0.500000 0.349391 0.500000
O O15 0.417182 0.241458 0.560441
O O16 0.000000 0.761896 0.637886
O O17 0.928551 0.000000 0.625741
O O18 0.500000 0.500000 0.180080
#
# Coordination Sequence:
#
# PCOD8274024 Si02
#       7
#    16  16   8  16   8  16   8
#     4  10  22  40  61  83 111 149 185 218 268 333
#     4  11  24  42  62  81 107 142 184 232 281 329
#     4  12  23  35  56  87 117 145 179 224 273 323
#     4  12  23  35  54  83 114 144 184 230 277 331
#     4   7  12  24  43  71 106 149 193 224 254 313
#     4   9  16  28  49  76 111 152 190 224 267 320
#     4  12  22  35  55  79 109 147 183 224 278 334
#
# _framework density 18.971359
#
# number of rings (size 3 to 8) (size 9 to 14) (size 15 to 20)
#    0.000    1.545    2.727    5.182    0.000    2.545 
#    0.000    0.455    0.000    1.636    0.000    0.636 
#    0.000    0.000    0.000    0.000    0.000    0.000 
#
# Total GULP energy -545305.919074 kJ/mol
# GULP energy per Si atom -12393.316343 kJ/mol
# Density = 1.892818 g / cm^3
# Si number density = 18.971359 Si / 1000 Ang^3
#
#
#
# Elastic Constant Matrix: (Units=GPa)
#
#
# Indices 1 2 3 4 5 6 
#
# 1 91.8238 13.3405 53.6867 0.0000 0.0000 0.0000
# 2 13.3405 42.8616 31.0727 0.0000 0.0000 0.0000
# 3 53.6867 31.0727 175.1145 0.0000 0.0000 0.0000
# 4 0.0000 0.0000 0.0000 12.9495 0.0000 0.0000
# 5 0.0000 0.0000 0.0000 0.0000 19.5486 0.0000
# 6 0.0000 0.0000 0.0000 0.0000 0.0000 9.0121
#
#
#
# Elastic Compliance Matrix: (Units=1/GPa)
#
#
# Indices 1 2 3 4 5 6 
#
# 1 0.013338 -0.001362 -0.003847 0.000000 0.000000 0.000000
# 2 -0.001362 0.026914 -0.004358 0.000000 0.000000 0.000000
# 3 -0.003847 -0.004358 0.007663 0.000000 0.000000 0.000000
# 4 0.000000 0.000000 0.000000 0.077223 0.000000 0.000000
# 5 0.000000 0.000000 0.000000 0.000000 0.051155 0.000000
# 6 0.000000 0.000000 0.000000 0.000000 0.000000 0.110962
#
#
# Mechanical properties :
#
#
# Convention : Reuss Voigt Hill
#
# Bulk Modulus (GPa) = 34.74615 56.22218 45.48417
# Shear Modulus (GPa) = 15.82359 22.41538 19.11948
#
# Velocity S-wave (km/s) = 2.89117 3.44108 3.17804
# Velocity P-wave (km/s) = 5.43139 6.74445 6.12322
#
# Compressibility (1/GPa) = 0.02878017
#
# Stress axis : x y z
#
# Youngs Moduli (GPa) = 74.97501 37.15494 130.49023
#
# Poissons Ratio (x) = 0.05061 0.50205
# Poissons Ratio (y) = 0.10213 0.56870
# Poissons Ratio (z) = 0.28846 0.16193
#
# Static dielectric constant tensor:
#      x y z
#    x 3.174340 0.000000 0.000000 
#    y 0.000000 3.277960 0.000000 
#    z 0.000000 0.000000 4.123820 
# 
# 
# High freq. dielectric constant tensor:
#      x y z
#    x 1.688740 0.000000 0.000000 
#    y 0.000000 1.725830 0.000000 
#    z 0.000000 0.000000 1.761010 
# 
# From -- ./inp_files/71048.got.cif
#   From: 2010.03.12/outbox.cif.g09.slc.cpg/sg65_36_cif.got.tgz:71048.got - 2010.04.10 20:52:16.
