data_PCOD8274353
_publ_section_title
;
Structure prediction by ZEFSAII (Michael W. Deem and Ramdas Pophale) SiO2 
 PCOD8274353
Probable space group: C M M M
;
_chemical_formula_sum "Si O2"
_cell_formula_units_Z 96
_cell_length_a 25.264939
_cell_length_b 23.370835
_cell_length_c 8.479678
_cell_angle_alpha 90.000000
_cell_angle_beta 90.000000
_cell_angle_gamma 90.000000
_cell_volume 5006.933742
_symmetry_space_group_name_H-M "C M M M"
_symmetry_group_IT_number 65
_symmetry_cell_setting 'orthorhombic'
loop_
_space_group_symop_operation_xyz
x,y,z
-x,-y,z
x,-y,-z
-x,y,-z
-x,-y,-z
x,y,-z
-x,y,z
x,-y,z
1/2+x,1/2+y,z
1/2-x,1/2-y,z
1/2+x,1/2-y,-z
1/2-x,1/2+y,-z
1/2-x,1/2-y,-z
1/2+x,1/2+y,-z
1/2-x,1/2+y,z
1/2+x,1/2-y,z
loop_
_atom_site_type_symbol
_atom_site_label
_atom_site_fract_x
_atom_site_fract_y
_atom_site_fract_z
Si Si1 0.689394 0.243166 0.683618
Si Si2 0.244775 0.933917 0.317777
Si Si3 0.153806 0.859352 0.184208
Si Si4 0.558794 0.563845 0.812725
Si Si5 0.060358 0.565747 0.683454
Si Si6 0.657253 0.125861 0.818928
O O1 0.686382 0.228142 0.500000
O O2 0.750000 0.250000 0.738960
O O3 0.657784 0.301016 0.718818
O O4 0.662435 0.192719 0.781199
O O5 0.230253 0.923944 0.500000
O O6 0.205005 0.898563 0.209213
O O7 0.303961 0.911842 0.288801
O O8 0.240955 0.000000 0.270243
O O9 0.102266 0.892078 0.252610
O O10 0.148562 0.845245 0.000000
O O11 0.500000 0.583275 0.758288
O O12 0.570869 0.500000 0.747300
O O13 0.562013 0.562217 0.000000
O O14 0.070369 0.577599 0.500000
O O15 0.073222 0.500000 0.724026
O O16 0.097343 0.606842 0.785746
O O17 0.000000 0.580099 0.728579
O O18 0.671493 0.115089 0.000000
#
# Coordination Sequence:
#
# PCOD8274353 Si02
#       6
#    16  16  16  16  16  16
#     4  11  23  40  60  78 107 154 197 231 282 347
#     4  11  23  37  54  79 114 152 186 225 279 344
#     4  11  21  34  57  86 113 142 186 239 286 330
#     4   8  15  30  53  82 116 150 180 216 271 334
#     4   9  19  38  63  88 117 155 193 229 278 342
#     4  12  24  37  58  86 115 146 188 240 289 334
#
# _framework density 19.173411000000002
#
# number of rings (size 3 to 8) (size 9 to 14) (size 15 to 20)
#    0.000    1.667    1.667    5.000    0.000    5.333 
#    0.000    1.667    0.000    5.000    0.000    5.833 
#    0.000    0.000    0.000    0.000    0.000    0.000 
#
# Total GULP energy -595403.018799 kJ/mol
# GULP energy per Si atom -12404.229558 kJ/mol
# Density = 1.912977 g / cm^3
# Si number density = 19.173411 Si / 1000 Ang^3
#
#
#
# Elastic Constant Matrix: (Units=GPa)
#
#
# Indices 1 2 3 4 5 6 
#
# 1 114.7721 53.1315 21.6123 0.0000 0.0000 0.0000
# 2 53.1315 113.9098 27.0643 0.0000 0.0000 0.0000
# 3 21.6123 27.0643 42.0977 0.0000 0.0000 0.0000
# 4 0.0000 0.0000 0.0000 22.9377 0.0000 0.0000
# 5 0.0000 0.0000 0.0000 0.0000 21.5326 0.0000
# 6 0.0000 0.0000 0.0000 0.0000 0.0000 30.5677
#
#
#
# Elastic Compliance Matrix: (Units=1/GPa)
#
#
# Indices 1 2 3 4 5 6 
#
# 1 0.011399 -0.004634 -0.002873 0.000000 0.000000 0.000000
# 2 -0.004634 0.012246 -0.005493 0.000000 0.000000 0.000000
# 3 -0.002873 -0.005493 0.028761 0.000000 0.000000 0.000000
# 4 0.000000 0.000000 0.000000 0.043596 0.000000 0.000000
# 5 0.000000 0.000000 0.000000 0.000000 0.046441 0.000000
# 6 0.000000 0.000000 0.000000 0.000000 0.000000 0.032714
#
#
# Mechanical properties :
#
#
# Convention : Reuss Voigt Hill
#
# Bulk Modulus (GPa) = 37.87231 52.71063 45.29147
# Shear Modulus (GPa) = 23.81399 26.27236 25.04317
#
# Velocity S-wave (km/s) = 3.52807 3.70570 3.61798
# Velocity P-wave (km/s) = 6.03256 6.77206 6.41298
#
# Compressibility (1/GPa) = 0.02640452
#
# Stress axis : x y z
#
# Youngs Moduli (GPa) = 87.72446 81.66080 34.76954
#
# Poissons Ratio (x) = 0.37846 0.09988
# Poissons Ratio (y) = 0.40656 0.19100
# Poissons Ratio (z) = 0.25201 0.44860
#
# Static dielectric constant tensor:
#      x y z
#    x 3.616090 0.000000 0.000000 
#    y 0.000000 3.560630 0.000000 
#    z 0.000000 0.000000 3.296390 
# 
# 
# High freq. dielectric constant tensor:
#      x y z
#    x 1.745720 0.000000 0.000000 
#    y 0.000000 1.746990 0.000000 
#    z 0.000000 0.000000 1.734080 
# 
# From -- ./inp_files/14289.got.cif
#   From: 2010.03.12/outbox.cif.g09.slc.cpg/sg65_8_cif.got.tgz:14289.got - 2010.04.10 20:52:16.
