data_PCOD8274437
_publ_section_title
;
Structure prediction by ZEFSAII (Michael W. Deem and Ramdas Pophale) SiO2 
 PCOD8274437
Probable space group: C M M M
;
_chemical_formula_sum "Si O2"
_cell_formula_units_Z 88
_cell_length_a 18.504499
_cell_length_b 7.717009
_cell_length_c 29.944990
_cell_angle_alpha 90.000000
_cell_angle_beta 90.000000
_cell_angle_gamma 90.000000
_cell_volume 4276.126166
_symmetry_space_group_name_H-M "C M M M"
_symmetry_group_IT_number 65
_symmetry_cell_setting 'orthorhombic'
loop_
_space_group_symop_operation_xyz
x,y,z
-x,-y,z
x,-y,-z
-x,y,-z
-x,-y,-z
x,y,-z
-x,y,z
x,-y,z
1/2+x,1/2+y,z
1/2-x,1/2-y,z
1/2+x,1/2-y,-z
1/2-x,1/2+y,-z
1/2-x,1/2-y,-z
1/2+x,1/2+y,-z
1/2-x,1/2+y,z
1/2+x,1/2-y,z
loop_
_atom_site_type_symbol
_atom_site_label
_atom_site_fract_x
_atom_site_fract_y
_atom_site_fract_z
Si Si1 0.666121 0.205021 0.103603
Si Si2 0.584778 0.197420 0.287964
Si Si3 0.920101 0.295291 0.189759
Si Si4 0.670255 0.307799 0.370803
Si Si5 0.580841 0.293567 0.549156
Si Si6 0.416524 0.500000 0.052733
O O1 0.750000 0.250000 0.100042
O O2 0.638356 0.259485 0.152812
O O3 0.622132 0.323491 0.069039
O O4 0.652623 0.000000 0.093720
O O5 0.500000 0.213932 0.296072
O O6 0.604083 0.273402 0.238623
O O7 0.625165 0.306062 0.325274
O O8 0.611019 0.000000 0.292383
O O9 0.926348 0.500000 0.193379
O O10 0.000000 0.221811 0.177034
O O11 0.675415 0.500000 0.388590
O O12 0.750000 0.250000 0.359710
O O13 0.631203 0.207746 0.412037
O O14 0.609568 0.236920 0.500000
O O15 0.500000 0.220851 0.556403
O O16 0.578309 0.500000 0.552399
O O17 0.500000 0.500000 0.068383
O O18 0.410359 0.500000 0.000000
#
# Coordination Sequence:
#
# PCOD8274437 Si02
#       6
#    16  16  16  16  16   8
#     4  11  22  41  65  96 132 171 212 260 320 377
#     4   9  18  35  57  81 110 146 185 229 284 339
#     4   8  16  33  59  86 115 153 196 241 291 353
#     4  11  22  34  49  73 106 140 181 225 273 331
#     4   8  15  30  52  74  95 125 167 218 274 331
#     4  11  26  46  68  98 131 167 219 271 317 379
#
# _framework density 20.579374000000001
#
# number of rings (size 3 to 8) (size 9 to 14) (size 15 to 20)
#    0.000    2.455    0.909    3.273    0.000    4.000 
#    1.636    2.727    0.000    1.636    0.000    6.364 
#    0.000    0.000    0.000    0.000    0.000    0.000 
#
# Total GULP energy -545256.321209 kJ/mol
# GULP energy per Si atom -12392.189118 kJ/mol
# Density = 2.053253 g / cm^3
# Si number density = 20.579374 Si / 1000 Ang^3
#
#
#
# Elastic Constant Matrix: (Units=GPa)
#
#
# Indices 1 2 3 4 5 6 
#
# 1 117.0439 30.9739 74.1379 0.0000 0.0000 0.0000
# 2 30.9739 65.0205 29.1897 0.0000 0.0000 0.0000
# 3 74.1379 29.1897 142.0265 0.0000 0.0000 0.0000
# 4 0.0000 0.0000 0.0000 1.8829 0.0000 0.0000
# 5 0.0000 0.0000 0.0000 0.0000 38.8817 0.0000
# 6 0.0000 0.0000 0.0000 0.0000 0.0000 2.2786
#
#
#
# Elastic Compliance Matrix: (Units=1/GPa)
#
#
# Indices 1 2 3 4 5 6 
#
# 1 0.013487 -0.003596 -0.006301 0.000000 0.000000 0.000000
# 2 -0.003596 0.017902 -0.001802 0.000000 0.000000 0.000000
# 3 -0.006301 -0.001802 0.010700 0.000000 0.000000 0.000000
# 4 0.000000 0.000000 0.000000 0.531087 0.000000 0.000000
# 5 0.000000 0.000000 0.000000 0.000000 0.025719 0.000000
# 6 0.000000 0.000000 0.000000 0.000000 0.000000 0.438868
#
#
# Mechanical properties :
#
#
# Convention : Reuss Voigt Hill
#
# Bulk Modulus (GPa) = 53.50243 65.85487 59.67865
# Shear Modulus (GPa) = 4.68432 21.26127 12.97280
#
# Velocity S-wave (km/s) = 1.51035 3.21773 2.51346
# Velocity P-wave (km/s) = 5.39408 6.77310 6.12254
#
# Compressibility (1/GPa) = 0.01869074
#
# Stress axis : x y z
#
# Youngs Moduli (GPa) = 74.14805 55.86027 93.45436
#
# Poissons Ratio (x) = 0.20087 0.58885
# Poissons Ratio (y) = 0.26663 0.16842
# Poissons Ratio (z) = 0.46720 0.10067
#
# Static dielectric constant tensor:
#      x y z
#    x 2.932950 0.000000 0.000000 
#    y 0.000000 3.503970 0.000000 
#    z 0.000000 0.000000 3.927070 
# 
# 
# High freq. dielectric constant tensor:
#      x y z
#    x 1.799390 0.000000 0.000000 
#    y 0.000000 1.782650 0.000000 
#    z 0.000000 0.000000 1.813780 
# 
# From -- ./inp_files/77805.got.cif
#   From: 2010.03.12/outbox.cif.g09.slc.cpg/sg65_39_cif.got.tgz:77805.got - 2010.04.10 20:52:16.
