data_PCOD8274854
_publ_section_title
;
Structure prediction by ZEFSAII (Michael W. Deem and Ramdas Pophale) SiO2 
 PCOD8274854
Probable space group: C M M M
;
_chemical_formula_sum "Si O2"
_cell_formula_units_Z 72
_cell_length_a 18.395809
_cell_length_b 9.126997
_cell_length_c 23.004878
_cell_angle_alpha 90.000000
_cell_angle_beta 90.000000
_cell_angle_gamma 90.000000
_cell_volume 3862.484361
_symmetry_space_group_name_H-M "C M M M"
_symmetry_group_IT_number 65
_symmetry_cell_setting 'orthorhombic'
loop_
_space_group_symop_operation_xyz
x,y,z
-x,-y,z
x,-y,-z
-x,y,-z
-x,-y,-z
x,y,-z
-x,y,z
x,-y,z
1/2+x,1/2+y,z
1/2-x,1/2-y,z
1/2+x,1/2-y,-z
1/2-x,1/2+y,-z
1/2-x,1/2-y,-z
1/2+x,1/2+y,-z
1/2-x,1/2+y,z
1/2+x,1/2-y,z
loop_
_atom_site_type_symbol
_atom_site_label
_atom_site_fract_x
_atom_site_fract_y
_atom_site_fract_z
Si Si1 0.586310 0.162030 0.390606
Si Si2 0.413103 0.663024 0.500000
Si Si3 0.084194 0.332685 0.932825
Si Si4 0.327254 0.673804 0.162447
Si Si5 0.085153 0.329845 0.739030
O O1 0.500000 0.157072 0.394560
O O2 0.618544 0.262968 0.441593
O O3 0.608232 0.217749 0.326348
O O4 0.617919 0.000000 0.400684
O O5 0.382985 0.500000 0.500000
O O6 0.500000 0.668906 0.500000
O O7 0.101309 0.500000 0.914244
O O8 0.132041 0.220780 0.896201
O O9 0.000000 0.298141 0.921252
O O10 0.103773 0.308904 0.000000
O O11 0.317976 0.500000 0.163109
O O12 0.250000 0.750000 0.164389
O O13 0.372505 0.723903 0.218164
O O14 0.105094 0.500000 0.750158
O O15 0.000000 0.305658 0.749233
#
# Coordination Sequence:
#
# PCOD8274854 Si02
#       5
#    16   8  16  16  16
#     4   8  14  25  42  64  92 129 168 204 249 307
#     4   9  15  21  33  59  96 131 162 205 256 299
#     4   9  19  38  63  87 111 140 172 208 254 308
#     4  12  25  38  54  77 107 142 178 218 262 308
#     4   9  18  34  55  77 103 136 174 217 264 314
#
# _framework density 18.640851999999999
#
# number of rings (size 3 to 8) (size 9 to 14) (size 15 to 20)
#    0.000    2.556    0.000    5.000    0.000    6.667 
#    0.000    3.333    0.000    0.000    0.000    0.778 
#    0.000    0.000    0.000    0.000    0.000    0.000 
#
# Total GULP energy -446309.035767 kJ/mol
# GULP energy per Si atom -12397.473216 kJ/mol
# Density = 1.859842 g / cm^3
# Si number density = 18.640852 Si / 1000 Ang^3
#
#
#
# Elastic Constant Matrix: (Units=GPa)
#
#
# Indices 1 2 3 4 5 6 
#
# 1 57.3415 52.4294 47.1162 0.0000 0.0000 0.0000
# 2 52.4294 143.4878 81.9841 0.0000 0.0000 0.0000
# 3 47.1162 81.9841 142.0979 0.0000 0.0000 0.0000
# 4 0.0000 0.0000 0.0000 32.9987 0.0000 0.0000
# 5 0.0000 0.0000 0.0000 0.0000 -4.5085 0.0000
# 6 0.0000 0.0000 0.0000 0.0000 0.0000 27.4159
#
#
#
# Elastic Compliance Matrix: (Units=1/GPa)
#
#
# Indices 1 2 3 4 5 6 
#
# 1 0.028496 -0.007479 -0.005133 0.000000 0.000000 0.000000
# 2 -0.007479 0.012359 -0.004651 0.000000 0.000000 0.000000
# 3 -0.005133 -0.004651 0.011423 0.000000 0.000000 0.000000
# 4 0.000000 0.000000 0.000000 0.030304 0.000000 0.000000
# 5 0.000000 0.000000 0.000000 0.000000 -0.221805 0.000000
# 6 0.000000 0.000000 0.000000 0.000000 0.000000 0.036475
#
#
# Mechanical properties :
#
#
# Convention : Reuss Voigt Hill
#
# Bulk Modulus (GPa) = 56.33418 78.44294 67.38856
# Shear Modulus (GPa) = -80.25272 21.94106 -29.15583
#
# Velocity S-wave (km/s) = -6.56853 3.43453 -3.95914
# Velocity P-wave (km/s) = 5.21929 7.60924 3.91533
#
# Compressibility (1/GPa) = 0.01775121
#
# Stress axis : x y z
#
# Youngs Moduli (GPa) = 35.09296 80.90986 87.54344
#
# Poissons Ratio (x) = 0.60513 0.44939
# Poissons Ratio (y) = 0.26246 0.40716
# Poissons Ratio (z) = 0.18015 0.37631
#
# Static dielectric constant tensor:
#      x y z
#    x 3.055210 0.000000 0.000000 
#    y 0.000000 3.465430 0.000000 
#    z 0.000000 0.000000 3.690010 
# 
# 
# High freq. dielectric constant tensor:
#      x y z
#    x 1.679950 0.000000 0.000000 
#    y 0.000000 1.718590 0.000000 
#    z 0.000000 0.000000 1.744640 
# 
# From -- ./inp_files/70333.got.cif
#   From: 2010.03.12/outbox.cif.g09.slc.cpg/sg65_36_cif.got.tgz:70333.got - 2010.04.10 20:52:16.
