data_PCOD8274960
_publ_section_title
;
Structure prediction by ZEFSAII (Michael W. Deem and Ramdas Pophale) SiO2 
 PCOD8274960
Probable space group: C M M M
;
_chemical_formula_sum "Si O2"
_cell_formula_units_Z 72
_cell_length_a 9.450260
_cell_length_b 19.228396
_cell_length_c 23.484521
_cell_angle_alpha 90.000000
_cell_angle_beta 90.000000
_cell_angle_gamma 90.000000
_cell_volume 4267.450786
_symmetry_space_group_name_H-M "C M M M"
_symmetry_group_IT_number 65
_symmetry_cell_setting 'orthorhombic'
loop_
_space_group_symop_operation_xyz
x,y,z
-x,-y,z
x,-y,-z
-x,y,-z
-x,-y,-z
x,y,-z
-x,y,z
x,-y,z
1/2+x,1/2+y,z
1/2-x,1/2-y,z
1/2+x,1/2-y,-z
1/2-x,1/2+y,-z
1/2-x,1/2-y,-z
1/2+x,1/2+y,-z
1/2-x,1/2+y,z
1/2+x,1/2-y,z
loop_
_atom_site_type_symbol
_atom_site_label
_atom_site_fract_x
_atom_site_fract_y
_atom_site_fract_z
Si Si1 0.159453 0.582846 0.166993
Si Si2 0.664751 0.321194 0.376762
Si Si3 0.835157 0.080310 0.724665
Si Si4 0.158827 0.917274 0.936864
Si Si5 0.339272 0.318110 0.500000
O O1 0.159534 0.500000 0.164921
O O2 0.245984 0.608642 0.221917
O O3 0.234218 0.613386 0.110264
O O4 0.000000 0.612121 0.169902
O O5 0.500000 0.303497 0.368540
O O6 0.750000 0.250000 0.368843
O O7 0.715036 0.377027 0.330470
O O8 0.692240 0.356769 0.439675
O O9 0.000000 0.091153 0.738678
O O10 0.801496 0.000000 0.712101
O O11 0.000000 0.890345 0.924090
O O12 0.159449 0.000000 0.933992
O O13 0.207342 0.892789 0.000000
O O14 0.500000 0.293296 0.500000
O O15 0.250000 0.250000 0.500000
#
# Coordination Sequence:
#
# PCOD8274960 Si02
#       5
#    16  16  16  16   8
#     4   9  16  24  35  53  77 106 139 174 212 250
#     4   9  17  29  46  66  86 110 140 175 213 252
#     4   9  17  29  43  59  83 115 146 173 207 254
#     4   8  13  21  33  49  71 102 138 172 207 249
#     4   8  14  26  43  63  85 107 135 170 210 254
#
# _framework density 16.871898000000002
#
# number of rings (size 3 to 8) (size 9 to 14) (size 15 to 20)
#    0.000    3.333    0.000    1.333    0.000    4.000 
#    0.000    2.778    0.000    3.333    0.000    0.000 
#    0.000   13.333    0.000    2.889    0.000    5.778 
#
# Total GULP energy -446013.048231 kJ/mol
# GULP energy per Si atom -12389.251340 kJ/mol
# Density = 1.683350 g / cm^3
# Si number density = 16.871898 Si / 1000 Ang^3
#
#
#
# Elastic Constant Matrix: (Units=GPa)
#
#
# Indices 1 2 3 4 5 6 
#
# 1 84.6783 22.9529 82.0804 0.0000 0.0000 0.0000
# 2 22.9529 29.0037 42.2765 0.0000 0.0000 0.0000
# 3 82.0804 42.2765 195.8171 0.0000 0.0000 0.0000
# 4 0.0000 0.0000 0.0000 4.5144 0.0000 0.0000
# 5 0.0000 0.0000 0.0000 0.0000 23.1492 0.0000
# 6 0.0000 0.0000 0.0000 0.0000 0.0000 12.5394
#
#
#
# Elastic Compliance Matrix: (Units=1/GPa)
#
#
# Indices 1 2 3 4 5 6 
#
# 1 0.020452 -0.005383 -0.007410 0.000000 0.000000 0.000000
# 2 -0.005383 0.051728 -0.008911 0.000000 0.000000 0.000000
# 3 -0.007410 -0.008911 0.010137 0.000000 0.000000 0.000000
# 4 0.000000 0.000000 0.000000 0.221511 0.000000 0.000000
# 5 0.000000 0.000000 0.000000 0.000000 0.043198 0.000000
# 6 0.000000 0.000000 0.000000 0.000000 0.000000 0.079748
#
#
# Mechanical properties :
#
#
# Convention : Reuss Voigt Hill
#
# Bulk Modulus (GPa) = 25.70278 67.12431 46.41354
# Shear Modulus (GPa) = 10.34866 18.85323 14.60095
#
# Velocity S-wave (km/s) = 2.47931 3.34643 2.94496
# Velocity P-wave (km/s) = 4.84388 7.40287 6.25562
#
# Compressibility (1/GPa) = 0.03890630
#
# Stress axis : x y z
#
# Youngs Moduli (GPa) = 48.89554 19.33183 98.64839
#
# Poissons Ratio (x) = 0.10407 0.73103
# Poissons Ratio (y) = 0.26322 0.87910
# Poissons Ratio (z) = 0.36234 0.17227
#
# Static dielectric constant tensor:
#      x y z
#    x 3.238710 0.000000 0.000000 
#    y 0.000000 2.419190 0.000000 
#    z 0.000000 0.000000 3.785850 
# 
# 
# High freq. dielectric constant tensor:
#      x y z
#    x 1.653200 0.000000 0.000000 
#    y 0.000000 1.572210 0.000000 
#    z 0.000000 0.000000 1.675300 
# 
# From -- ./inp_files/59494.got.cif
#   From: 2010.03.12/outbox.cif.g09.slc.cpg/sg65_30_cif.got.tgz:59494.got - 2010.04.10 20:52:16.
