data_PCOD8274615
_publ_section_title
;
Structure prediction by ZEFSAII (Michael W. Deem and Ramdas Pophale) SiO2 
 PCOD8274615
Probable space group: C M M M
;
_chemical_formula_sum "Si O2"
_cell_formula_units_Z 48
_cell_length_a 8.384039
_cell_length_b 14.863254
_cell_length_c 18.762130
_cell_angle_alpha 90.000000
_cell_angle_beta 90.000000
_cell_angle_gamma 90.000000
_cell_volume 2338.025967
_symmetry_space_group_name_H-M "C M M M"
_symmetry_group_IT_number 65
_symmetry_cell_setting 'orthorhombic'
loop_
_space_group_symop_operation_xyz
x,y,z
-x,-y,z
x,-y,-z
-x,y,-z
-x,-y,-z
x,y,-z
-x,y,z
x,-y,z
1/2+x,1/2+y,z
1/2-x,1/2-y,z
1/2+x,1/2-y,-z
1/2-x,1/2+y,-z
1/2-x,1/2-y,-z
1/2+x,1/2+y,-z
1/2-x,1/2+y,z
1/2+x,1/2-y,z
loop_
_atom_site_type_symbol
_atom_site_label
_atom_site_fract_x
_atom_site_fract_y
_atom_site_fract_z
Si Si1 0.682358 0.000000 0.254547
Si Si2 0.187404 0.352316 0.000000
Si Si3 0.812928 0.844988 0.650655
Si Si4 0.184272 0.000000 0.101382
Si Si5 0.317366 0.106490 0.500000
O O1 0.714873 0.914669 0.303067
O O2 0.500000 0.000000 0.229172
O O3 0.794068 0.000000 0.185774
O O4 0.250000 0.250000 0.000000
O O5 0.241385 0.408334 0.930458
O O6 0.000000 0.345799 0.000000
O O7 0.750000 0.750000 0.678153
O O8 0.774849 0.855583 0.567664
O O9 0.000000 0.857129 0.663962
O O10 0.000000 0.000000 0.081623
O O11 0.500000 0.140877 0.500000
O O12 0.310531 0.000000 0.500000
#
# Coordination Sequence:
#
# PCOD8274615 Si02
#       5
#     8   8  16   8   8
#     4  12  25  44  65  92 128 166 208 258 313 374
#     4  11  22  41  68 100 132 169 210 255 304 360
#     4  12  25  42  64  91 123 163 210 261 317 376
#     4  11  23  42  66  97 131 168 209 255 308 368
#     4  11  22  39  64  90 121 161 207 261 318 374
#
# _framework density 20.530138999999998
#
# number of rings (size 3 to 8) (size 9 to 14) (size 15 to 20)
#    0.000    0.500    1.667    9.500    0.000    2.000 
#    0.000    6.667    0.000    0.000    0.000    0.000 
#    0.000    0.000    0.000    0.000    0.000    0.000 
#
# Total GULP energy -297730.525203 kJ/mol
# GULP energy per Si atom -12405.438550 kJ/mol
# Density = 2.048341 g / cm^3
# Si number density = 20.530139 Si / 1000 Ang^3
#
#
#
# Elastic Constant Matrix: (Units=GPa)
#
#
# Indices 1 2 3 4 5 6 
#
# 1 147.9895 39.9998 7.7807 0.0000 0.0000 0.0000
# 2 39.9998 169.3726 46.3711 0.0000 0.0000 0.0000
# 3 7.7807 46.3711 114.0284 0.0000 0.0000 0.0000
# 4 0.0000 0.0000 0.0000 56.4873 0.0000 0.0000
# 5 0.0000 0.0000 0.0000 0.0000 27.6075 0.0000
# 6 0.0000 0.0000 0.0000 0.0000 0.0000 34.4569
#
#
#
# Elastic Compliance Matrix: (Units=1/GPa)
#
#
# Indices 1 2 3 4 5 6 
#
# 1 0.007223 -0.001768 0.000226 0.000000 0.000000 0.000000
# 2 -0.001768 0.007076 -0.002757 0.000000 0.000000 0.000000
# 3 0.000226 -0.002757 0.009876 0.000000 0.000000 0.000000
# 4 0.000000 0.000000 0.000000 0.017703 0.000000 0.000000
# 5 0.000000 0.000000 0.000000 0.000000 0.036222 0.000000
# 6 0.000000 0.000000 0.000000 0.000000 0.000000 0.029022
#
#
# Mechanical properties :
#
#
# Convention : Reuss Voigt Hill
#
# Bulk Modulus (GPa) = 64.19525 68.85483 66.52504
# Shear Modulus (GPa) = 41.35230 46.19294 43.77262
#
# Velocity S-wave (km/s) = 4.49288 4.74857 4.62249
# Velocity P-wave (km/s) = 7.63225 7.97975 7.80794
#
# Compressibility (1/GPa) = 0.01557748
#
# Stress axis : x y z
#
# Youngs Moduli (GPa) = 138.44375 141.31360 101.26032
#
# Poissons Ratio (x) = 0.24980 -0.02288
# Poissons Ratio (y) = 0.24473 0.27919
# Poissons Ratio (z) = -0.03129 0.38962
#
# Static dielectric constant tensor:
#      x y z
#    x 3.896270 0.000000 0.000000 
#    y 0.000000 3.693590 0.000000 
#    z 0.000000 0.000000 3.676250 
# 
# 
# High freq. dielectric constant tensor:
#      x y z
#    x 1.824690 0.000000 0.000000 
#    y 0.000000 1.819290 0.000000 
#    z 0.000000 0.000000 1.800410 
# 
# From -- ./inp_files/48529.got.cif
#   From: 2010.03.12/outbox.cif.g09.slc.cpg/sg65_25_cif.got.tgz:48529.got - 2010.04.10 20:52:16.
