data_PCOD8274356
_publ_section_title
;
Structure prediction by ZEFSAII (Michael W. Deem and Ramdas Pophale) SiO2 
 PCOD8274356
Probable space group: C M M M
;
_chemical_formula_sum "Si O2"
_cell_formula_units_Z 88
_cell_length_a 10.097390
_cell_length_b 31.992011
_cell_length_c 17.936833
_cell_angle_alpha 90.000000
_cell_angle_beta 90.000000
_cell_angle_gamma 90.000000
_cell_volume 5794.239412
_symmetry_space_group_name_H-M "C M M M"
_symmetry_group_IT_number 65
_symmetry_cell_setting 'orthorhombic'
loop_
_space_group_symop_operation_xyz
x,y,z
-x,-y,z
x,-y,-z
-x,y,-z
-x,-y,-z
x,y,-z
-x,y,z
x,-y,z
1/2+x,1/2+y,z
1/2-x,1/2-y,z
1/2+x,1/2-y,-z
1/2-x,1/2+y,-z
1/2-x,1/2-y,-z
1/2+x,1/2+y,-z
1/2-x,1/2+y,z
1/2+x,1/2-y,z
loop_
_atom_site_type_symbol
_atom_site_label
_atom_site_fract_x
_atom_site_fract_y
_atom_site_fract_z
Si Si1 0.764210 0.661824 0.087606
Si Si2 0.000000 0.810477 0.165568
Si Si3 0.500000 0.303588 0.334608
Si Si4 0.757183 0.700197 0.583660
Si Si5 0.500000 0.211462 0.151997
Si Si6 0.000000 0.704367 0.321155
Si Si7 0.352181 0.070390 0.088373
Si Si8 0.847616 0.000000 0.911135
O O1 0.627724 0.669398 0.128935
O O2 0.869275 0.697413 0.108514
O O3 0.820691 0.617333 0.114049
O O4 0.737469 0.663094 0.000000
O O5 0.000000 0.822997 0.252379
O O6 0.000000 0.761106 0.154047
O O7 0.625348 0.319384 0.381364
O O8 0.500000 0.253925 0.328161
O O9 0.778586 0.682933 0.500000
O O10 0.750000 0.750000 0.581554
O O11 0.873876 0.684855 0.637472
O O12 0.500000 0.191579 0.234704
O O13 0.500000 0.058044 0.118122
O O14 0.235733 0.040042 0.118644
O O15 0.354216 0.067420 0.000000
O O16 0.000000 0.000000 0.880045
O O17 0.854219 0.000000 0.000000
#
# Coordination Sequence:
#
# PCOD8274356 Si02
#       8
#    16   8   8  16   8   8  16   8
#     4  11  22  34  47  62  81 109 151 200 240 269
#     4  11  23  33  45  60  81 113 153 201 243 264
#     4   9  17  29  39  55  78 105 135 170 220 270
#     4   9  15  24  40  60  79  98 123 163 215 266
#     4  11  21  35  47  58  79 115 155 195 237 274
#     4   9  17  27  41  57  78 101 133 176 218 262
#     4   9  17  31  47  64  86 109 133 168 219 275
#     4   9  17  27  47  73  91 105 123 157 214 279
#
# _framework density 15.187499000000001
#
# number of rings (size 3 to 8) (size 9 to 14) (size 15 to 20)
#    0.000    2.273    0.909    3.000    1.273    8.364 
#    0.000    0.000    0.000    0.000    0.000    0.000 
#    0.000    0.000    0.000    0.000    0.000    0.000 
#
# Total GULP energy -545473.844136 kJ/mol
# GULP energy per Si atom -12397.132821 kJ/mol
# Density = 1.515293 g / cm^3
# Si number density = 15.187499 Si / 1000 Ang^3
#
#
#
# Elastic Constant Matrix: (Units=GPa)
#
#
# Indices 1 2 3 4 5 6 
#
# 1 143.6601 25.1382 36.1197 0.0000 0.0000 0.0000
# 2 25.1382 47.0050 10.2431 0.0000 0.0000 0.0000
# 3 36.1197 10.2431 76.3270 0.0000 0.0000 0.0000
# 4 0.0000 0.0000 0.0000 1.1134 0.0000 0.0000
# 5 0.0000 0.0000 0.0000 0.0000 25.5112 0.0000
# 6 0.0000 0.0000 0.0000 0.0000 0.0000 15.2038
#
#
#
# Elastic Compliance Matrix: (Units=1/GPa)
#
#
# Indices 1 2 3 4 5 6 
#
# 1 0.008507 -0.003783 -0.003518 0.000000 0.000000 0.000000
# 2 -0.003783 0.023598 -0.001377 0.000000 0.000000 0.000000
# 3 -0.003518 -0.001377 0.014951 0.000000 0.000000 0.000000
# 4 0.000000 0.000000 0.000000 0.898120 0.000000 0.000000
# 5 0.000000 0.000000 0.000000 0.000000 0.039198 0.000000
# 6 0.000000 0.000000 0.000000 0.000000 0.000000 0.065773
#
#
# Mechanical properties :
#
#
# Convention : Reuss Voigt Hill
#
# Bulk Modulus (GPa) = 33.66958 45.55488 39.61223
# Shear Modulus (GPa) = 4.64079 21.39844 13.01961
#
# Velocity S-wave (km/s) = 1.74994 3.75767 2.93107
# Velocity P-wave (km/s) = 5.12840 6.99192 6.13137
#
# Compressibility (1/GPa) = 0.02970040
#
# Stress axis : x y z
#
# Youngs Moduli (GPa) = 117.54451 42.37736 66.88451
#
# Poissons Ratio (x) = 0.16032 0.23531
# Poissons Ratio (y) = 0.44468 0.09207
# Poissons Ratio (z) = 0.41355 0.05833
#
# Static dielectric constant tensor:
#      x y z
#    x 3.173560 0.000000 0.000000 
#    y 0.000000 2.652120 0.000000 
#    z 0.000000 0.000000 2.839860 
# 
# 
# High freq. dielectric constant tensor:
#      x y z
#    x 1.608770 0.000000 0.000000 
#    y 0.000000 1.530120 0.000000 
#    z 0.000000 0.000000 1.556260 
# 
# From -- ./inp_files/50577.got.cif
#   From: 2010.03.12/outbox.cif.g09.slc.cpg/sg65_26_cif.got.tgz:50577.got - 2010.04.10 20:52:16.
