data_PCOD8274860
_publ_section_title
;
Structure prediction by ZEFSAII (Michael W. Deem and Ramdas Pophale) SiO2 
 PCOD8274860
Probable space group: C M M M
;
_chemical_formula_sum "Si O2"
_cell_formula_units_Z 104
_cell_length_a 30.194920
_cell_length_b 9.277690
_cell_length_c 28.415471
_cell_angle_alpha 90.000000
_cell_angle_beta 90.000000
_cell_angle_gamma 90.000000
_cell_volume 7960.284680
_symmetry_space_group_name_H-M "C M M M"
_symmetry_group_IT_number 65
_symmetry_cell_setting 'orthorhombic'
loop_
_space_group_symop_operation_xyz
x,y,z
-x,-y,z
x,-y,-z
-x,y,-z
-x,-y,-z
x,y,-z
-x,y,z
x,-y,z
1/2+x,1/2+y,z
1/2-x,1/2-y,z
1/2+x,1/2-y,-z
1/2-x,1/2+y,-z
1/2-x,1/2-y,-z
1/2+x,1/2+y,-z
1/2-x,1/2+y,z
1/2+x,1/2-y,z
loop_
_atom_site_type_symbol
_atom_site_label
_atom_site_fract_x
_atom_site_fract_y
_atom_site_fract_z
Si Si1 0.550648 0.333103 0.130002
Si Si2 0.947157 0.162568 0.689638
Si Si3 0.451493 0.828895 0.500000
Si Si4 0.377697 0.666823 0.053849
Si Si5 0.291970 0.162819 0.056024
Si Si6 0.052708 0.337294 0.779038
Si Si7 0.446972 0.162246 0.600903
O O1 0.500000 0.292892 0.118043
O O2 0.554876 0.500000 0.144135
O O3 0.579107 0.294955 0.084101
O O4 0.569103 0.240923 0.173644
O O5 0.928426 0.252256 0.733885
O O6 0.928808 0.233175 0.641547
O O7 0.000000 0.165186 0.689866
O O8 0.929164 0.000000 0.692931
O O9 0.500000 0.756395 0.500000
O O10 0.427741 0.785272 0.450454
O O11 0.456753 0.000000 0.500000
O O12 0.364264 0.500000 0.058642
O O13 0.336782 0.760124 0.073187
O O14 0.389117 0.705930 0.000000
O O15 0.250000 0.250000 0.076520
O O16 0.290858 0.000000 0.075642
O O17 0.290095 0.163456 0.000000
O O18 0.071161 0.500000 0.778203
O O19 0.000000 0.336250 0.777403
O O20 0.500000 0.165460 0.598589
O O21 0.431014 0.000000 0.612491
#
# Coordination Sequence:
#
# PCOD8274860 Si02
#       7
#    16  16   8  16  16  16  16
#     4   9  17  28  40  53  70  92 116 142 171 201
#     4   9  15  21  29  41  55  69  88 118 155 191
#     4   7  10  16  25  35  47  65  87 109 135 173
#     4   9  17  28  41  57  76  96 117 139 164 199
#     4   9  16  26  41  59  77  95 114 137 165 196
#     4   9  16  25  36  47  58  75 101 132 164 197
#     4   8  12  18  27  37  49  66  88 112 140 178
#
# _framework density 13.064859
#
# number of rings (size 3 to 8) (size 9 to 14) (size 15 to 20)
#    0.000    3.308    0.000    2.308    0.000    6.462 
#    0.000    1.923    0.000    2.308    0.000    4.308 
#    0.000    0.000    0.000    0.000    0.000    0.000 
#
# Total GULP energy -644417.966713 kJ/mol
# GULP energy per Si atom -12392.653206 kJ/mol
# Density = 1.303512 g / cm^3
# Si number density = 13.064859 Si / 1000 Ang^3
#
#
#
# Elastic Constant Matrix: (Units=GPa)
#
#
# Indices 1 2 3 4 5 6 
#
# 1 37.6911 28.1338 29.9883 0.0000 0.0000 0.0000
# 2 28.1338 90.3129 53.7140 0.0000 0.0000 0.0000
# 3 29.9883 53.7140 98.8610 0.0000 0.0000 0.0000
# 4 0.0000 0.0000 0.0000 21.0502 0.0000 0.0000
# 5 0.0000 0.0000 0.0000 0.0000 0.5131 0.0000
# 6 0.0000 0.0000 0.0000 0.0000 0.0000 11.9361
#
#
#
# Elastic Compliance Matrix: (Units=1/GPa)
#
#
# Indices 1 2 3 4 5 6 
#
# 1 0.038021 -0.007365 -0.007532 0.000000 0.000000 0.000000
# 2 -0.007365 0.017785 -0.007429 0.000000 0.000000 0.000000
# 3 -0.007532 -0.007429 0.016437 0.000000 0.000000 0.000000
# 4 0.000000 0.000000 0.000000 0.047506 0.000000 0.000000
# 5 0.000000 0.000000 0.000000 0.000000 1.948896 0.000000
# 6 0.000000 0.000000 0.000000 0.000000 0.000000 0.083779
#
#
# Mechanical properties :
#
#
# Convention : Reuss Voigt Hill
#
# Bulk Modulus (GPa) = 36.24306 50.05968 43.15137
# Shear Modulus (GPa) = 2.26627 14.36848 8.31737
#
# Velocity S-wave (km/s) = 1.31848 3.31989 2.52587
# Velocity P-wave (km/s) = 5.48807 7.28663 6.45035
#
# Compressibility (1/GPa) = 0.02759149
#
# Stress axis : x y z
#
# Youngs Moduli (GPa) = 26.30115 56.22578 60.84013
#
# Poissons Ratio (x) = 0.41408 0.45824
# Poissons Ratio (y) = 0.19370 0.45201
# Poissons Ratio (z) = 0.19810 0.41772
#
# Static dielectric constant tensor:
#      x y z
#    x 2.143070 0.000000 0.000000 
#    y 0.000000 2.746620 0.000000 
#    z 0.000000 0.000000 2.766820 
# 
# 
# High freq. dielectric constant tensor:
#      x y z
#    x 1.421030 0.000000 0.000000 
#    y 0.000000 1.503890 0.000000 
#    z 0.000000 0.000000 1.493910 
# 
# From -- ./inp_files/78352.got.cif
#   From: 2010.03.12/outbox.cif.g09.slc.cpg/sg65_40_cif.got.tgz:78352.got - 2010.04.10 20:52:16.
