data_PCOD8274631
_publ_section_title
;
Structure prediction by ZEFSAII (Michael W. Deem and Ramdas Pophale) SiO2 
 PCOD8274631
Probable space group: C M M M
;
_chemical_formula_sum "Si O2"
_cell_formula_units_Z 64
_cell_length_a 16.211481
_cell_length_b 7.750330
_cell_length_c 24.122023
_cell_angle_alpha 90.000000
_cell_angle_beta 90.000000
_cell_angle_gamma 90.000000
_cell_volume 3030.795359
_symmetry_space_group_name_H-M "C M M M"
_symmetry_group_IT_number 65
_symmetry_cell_setting 'orthorhombic'
loop_
_space_group_symop_operation_xyz
x,y,z
-x,-y,z
x,-y,-z
-x,y,-z
-x,-y,-z
x,y,-z
-x,y,z
x,-y,z
1/2+x,1/2+y,z
1/2-x,1/2-y,z
1/2+x,1/2-y,-z
1/2-x,1/2+y,-z
1/2-x,1/2-y,-z
1/2+x,1/2+y,-z
1/2-x,1/2+y,z
1/2+x,1/2-y,z
loop_
_atom_site_type_symbol
_atom_site_label
_atom_site_fract_x
_atom_site_fract_y
_atom_site_fract_z
Si Si1 0.500000 0.700954 0.561192
Si Si2 0.658863 0.799658 0.632089
Si Si3 0.407494 0.795286 0.254184
Si Si4 0.343066 0.796285 0.135444
Si Si5 0.406367 0.500000 0.060000
O O1 0.500000 0.500000 0.554606
O O2 0.500000 0.787531 0.500000
O O3 0.584765 0.751305 0.591261
O O4 0.750000 0.750000 0.609363
O O5 0.642245 0.716851 0.693023
O O6 0.656538 0.000000 0.639600
O O7 0.500000 0.719968 0.255934
O O8 0.364370 0.735993 0.197707
O O9 0.410419 0.000000 0.257165
O O10 0.250000 0.750000 0.123864
O O11 0.392018 0.677371 0.093060
O O12 0.362090 0.000000 0.125629
O O13 0.500000 0.500000 0.044828
O O14 0.358570 0.500000 0.000000
#
# Coordination Sequence:
#
# PCOD8274631 Si02
#       5
#     8  16  16  16   8
#     4  11  25  45  65  91 129 169 221 272 317 382
#     4  11  22  40  65  95 130 168 215 265 325 389
#     4   9  18  35  61  93 130 167 205 263 325 388
#     4  11  22  41  65  96 132 170 215 270 331 391
#     4  11  26  46  66  94 129 169 223 275 323 394
#
# _framework density 21.116569999999999
#
# number of rings (size 3 to 8) (size 9 to 14) (size 15 to 20)
#    0.000    1.500    2.500    2.625    0.000    4.000 
#    4.500    1.250    0.000    0.000    0.000    0.000 
#    0.000    0.000    0.000    0.000    0.000    0.000 
#
# Total GULP energy -396561.561964 kJ/mol
# GULP energy per Si atom -12392.548811 kJ/mol
# Density = 2.106851 g / cm^3
# Si number density = 21.116570 Si / 1000 Ang^3
#
#
#
# Elastic Constant Matrix: (Units=GPa)
#
#
# Indices 1 2 3 4 5 6 
#
# 1 132.0818 26.1574 56.3726 0.0000 0.0000 0.0000
# 2 26.1574 85.3777 53.1368 0.0000 0.0000 0.0000
# 3 56.3726 53.1368 176.6822 0.0000 0.0000 0.0000
# 4 0.0000 0.0000 0.0000 25.4833 0.0000 0.0000
# 5 0.0000 0.0000 0.0000 0.0000 -35.6735 0.0000
# 6 0.0000 0.0000 0.0000 0.0000 0.0000 17.1891
#
#
#
# Elastic Compliance Matrix: (Units=1/GPa)
#
#
# Indices 1 2 3 4 5 6 
#
# 1 0.008859 -0.001175 -0.002473 0.000000 0.000000 0.000000
# 2 -0.001175 0.014566 -0.004006 0.000000 0.000000 0.000000
# 3 -0.002473 -0.004006 0.007654 0.000000 0.000000 0.000000
# 4 0.000000 0.000000 0.000000 0.039241 0.000000 0.000000
# 5 0.000000 0.000000 0.000000 0.000000 -0.028032 0.000000
# 6 0.000000 0.000000 0.000000 0.000000 0.000000 0.058176
#
#
# Mechanical properties :
#
#
# Convention : Reuss Voigt Hill
#
# Bulk Modulus (GPa) = 63.40825 73.94170 68.67497
# Shear Modulus (GPa) = 41.31228 18.63145 29.97187
#
# Velocity S-wave (km/s) = 4.42791 2.97360 3.77152
# Velocity P-wave (km/s) = 7.49898 6.84702 7.18041
#
# Compressibility (1/GPa) = 0.01577082
#
# Stress axis : x y z
#
# Youngs Moduli (GPa) = 112.87486 68.65455 130.65508
#
# Poissons Ratio (x) = 0.08066 0.32315
# Poissons Ratio (y) = 0.13262 0.52337
# Poissons Ratio (z) = 0.27918 0.27501
#
# Static dielectric constant tensor:
#      x y z
#    x 3.988310 0.000000 0.000000 
#    y 0.000000 1.104970 0.000000 
#    z 0.000000 0.000000 4.696670 
# 
# 
# High freq. dielectric constant tensor:
#      x y z
#    x 1.837320 0.000000 0.000000 
#    y 0.000000 1.820380 0.000000 
#    z 0.000000 0.000000 1.832180 
# 
# From -- ./inp_files/69521.got.cif
#   From: 2010.03.12/outbox.cif.g09.slc.cpg/sg65_35_cif.got.tgz:69521.got - 2010.04.10 20:52:16.
