data_PCOD8274069
_publ_section_title
;
Structure prediction by ZEFSAII (Michael W. Deem and Ramdas Pophale) SiO2 
 PCOD8274069
Probable space group: C M M M
;
_chemical_formula_sum "Si O2"
_cell_formula_units_Z 64
_cell_length_a 27.999805
_cell_length_b 15.385834
_cell_length_c 7.380637
_cell_angle_alpha 90.000000
_cell_angle_beta 90.000000
_cell_angle_gamma 90.000000
_cell_volume 3179.581016
_symmetry_space_group_name_H-M "C M M M"
_symmetry_group_IT_number 65
_symmetry_cell_setting 'orthorhombic'
loop_
_space_group_symop_operation_xyz
x,y,z
-x,-y,z
x,-y,-z
-x,y,-z
-x,-y,-z
x,y,-z
-x,y,z
x,-y,z
1/2+x,1/2+y,z
1/2-x,1/2-y,z
1/2+x,1/2-y,-z
1/2-x,1/2+y,-z
1/2-x,1/2-y,-z
1/2+x,1/2+y,-z
1/2-x,1/2+y,z
1/2+x,1/2-y,z
loop_
_atom_site_type_symbol
_atom_site_label
_atom_site_fract_x
_atom_site_fract_y
_atom_site_fract_z
Si Si1 0.054749 0.333384 0.295066
Si Si2 0.109968 0.500000 0.716065
Si Si3 0.284072 0.000000 0.713682
Si Si4 0.848896 0.897413 0.000000
Si Si5 0.445557 0.691091 0.000000
Si Si6 0.777707 0.161876 0.287590
O O1 0.070942 0.311573 0.500000
O O2 0.084451 0.413294 0.211468
O O3 0.000000 0.362688 0.288108
O O4 0.063495 0.247924 0.178262
O O5 0.107840 0.500000 0.500000
O O6 0.163161 0.500000 0.797216
O O7 0.256758 0.914760 0.779723
O O8 0.288418 0.000000 0.500000
O O9 0.826747 0.849587 0.176648
O O10 0.906311 0.885269 0.000000
O O11 0.838057 0.000000 0.000000
O O12 0.500000 0.653406 0.000000
O O13 0.790423 0.156819 0.500000
O O14 0.750000 0.250000 0.239451
#
# Coordination Sequence:
#
# PCOD8274069 Si02
#       6
#    16   8   8   8   8  16
#     4   9  18  35  57  82 117 156 193 235 283 343
#     4   9  17  29  53  86 119 157 193 225 279 346
#     4   9  18  34  55  87 123 153 189 235 289 345
#     4  12  25  42  65  88 114 153 199 245 298 360
#     4  10  24  41  58  85 113 144 196 251 299 348
#     4  10  22  41  64  89 123 161 197 243 293 348
#
# _framework density 20.128437000000002
#
# number of rings (size 3 to 8) (size 9 to 14) (size 15 to 20)
#    0.000    2.250    1.250    0.750    3.500    3.250 
#    0.000    3.125    0.000    0.000    0.000    5.250 
#    0.000    0.000    0.000    0.000    0.000    0.000 
#
# Total GULP energy -396776.127841 kJ/mol
# GULP energy per Si atom -12399.253995 kJ/mol
# Density = 2.008262 g / cm^3
# Si number density = 20.128437 Si / 1000 Ang^3
#
#
#
# Elastic Constant Matrix: (Units=GPa)
#
#
# Indices 1 2 3 4 5 6 
#
# 1 130.5194 54.0448 35.8280 0.0000 0.0000 0.0000
# 2 54.0448 114.7502 30.6031 0.0000 0.0000 0.0000
# 3 35.8280 30.6031 87.0453 0.0000 0.0000 0.0000
# 4 0.0000 0.0000 0.0000 9.5196 0.0000 0.0000
# 5 0.0000 0.0000 0.0000 0.0000 20.9007 0.0000
# 6 0.0000 0.0000 0.0000 0.0000 0.0000 38.8140
#
#
#
# Elastic Compliance Matrix: (Units=1/GPa)
#
#
# Indices 1 2 3 4 5 6 
#
# 1 0.010075 -0.004016 -0.002735 0.000000 0.000000 0.000000
# 2 -0.004016 0.011217 -0.002291 0.000000 0.000000 0.000000
# 3 -0.002735 -0.002291 0.013419 0.000000 0.000000 0.000000
# 4 0.000000 0.000000 0.000000 0.105047 0.000000 0.000000
# 5 0.000000 0.000000 0.000000 0.000000 0.047845 0.000000
# 6 0.000000 0.000000 0.000000 0.000000 0.000000 0.025764
#
#
# Mechanical properties :
#
#
# Convention : Reuss Voigt Hill
#
# Bulk Modulus (GPa) = 60.13836 63.69630 61.91733
# Shear Modulus (GPa) = 21.09761 27.96946 24.53354
#
# Velocity S-wave (km/s) = 3.24103 3.73171 3.49499
# Velocity P-wave (km/s) = 6.62932 7.09092 6.86400
#
# Compressibility (1/GPa) = 0.01662832
#
# Stress axis : x y z
#
# Youngs Moduli (GPa) = 99.25203 89.15166 74.51885
#
# Poissons Ratio (x) = 0.35802 0.20382
# Poissons Ratio (y) = 0.39858 0.17070
# Poissons Ratio (z) = 0.27147 0.20422
#
# Static dielectric constant tensor:
#      x y z
#    x 3.724840 0.000000 0.000000 
#    y 0.000000 3.498190 0.000000 
#    z 0.000000 0.000000 3.624420 
# 
# 
# High freq. dielectric constant tensor:
#      x y z
#    x 1.784980 0.000000 0.000000 
#    y 0.000000 1.772930 0.000000 
#    z 0.000000 0.000000 1.787170 
# 
# From -- ./inp_files/6840.got.cif
#   From: 2010.03.12/outbox.cif.g09.slc.cpg/sg65_4_cif.got.tgz:6840.got - 2010.04.10 20:52:16.
