data_PCOD8274136
_publ_section_title
;
Structure prediction by ZEFSAII (Michael W. Deem and Ramdas Pophale) SiO2 
 PCOD8274136
Probable space group: C M M M
;
_chemical_formula_sum "Si O2"
_cell_formula_units_Z 88
_cell_length_a 8.793892
_cell_length_b 28.645204
_cell_length_c 18.028729
_cell_angle_alpha 90.000000
_cell_angle_beta 90.000000
_cell_angle_gamma 90.000000
_cell_volume 4541.487862
_symmetry_space_group_name_H-M "C M M M"
_symmetry_group_IT_number 65
_symmetry_cell_setting 'orthorhombic'
loop_
_space_group_symop_operation_xyz
x,y,z
-x,-y,z
x,-y,-z
-x,y,-z
-x,-y,-z
x,y,-z
-x,y,z
x,-y,z
1/2+x,1/2+y,z
1/2-x,1/2-y,z
1/2+x,1/2-y,-z
1/2-x,1/2+y,-z
1/2-x,1/2-y,-z
1/2+x,1/2+y,-z
1/2-x,1/2+y,z
1/2+x,1/2-y,z
loop_
_atom_site_type_symbol
_atom_site_label
_atom_site_fract_x
_atom_site_fract_y
_atom_site_fract_z
Si Si1 0.820777 0.199364 0.500000
Si Si2 0.678978 0.356270 0.355570
Si Si3 0.677542 0.947634 0.680155
Si Si4 0.819908 0.700001 0.776629
Si Si5 0.819415 0.449423 0.150306
Si Si6 0.180955 0.355361 0.081886
O O1 0.750000 0.250000 0.500000
O O2 0.765044 0.171768 0.427544
O O3 0.000000 0.204575 0.500000
O O4 0.500000 0.351482 0.343717
O O5 0.725838 0.410347 0.367109
O O6 0.765532 0.336692 0.284137
O O7 0.500000 0.935978 0.672451
O O8 0.732081 0.943098 0.765011
O O9 0.711402 0.000000 0.650644
O O10 0.750000 0.750000 0.759278
O O11 0.763556 0.682380 0.857625
O O12 0.000000 0.703706 0.773038
O O13 0.760578 0.500000 0.120359
O O14 0.753054 0.406843 0.101649
O O15 0.000000 0.448918 0.147300
O O16 0.000000 0.357669 0.082838
O O17 0.240892 0.341015 0.000000
#
# Coordination Sequence:
#
# PCOD8274136 Si02
#       6
#     8  16  16  16  16  16
#     4  10  24  42  59  84 113 143 180 229 279 332
#     4  11  22  38  60  85 113 144 182 224 276 333
#     4   9  17  32  56  85 115 148 186 226 268 318
#     4  11  22  37  56  79 107 141 185 232 278 330
#     4   8  13  24  45  74 106 138 174 217 264 314
#     4   9  17  29  47  74 108 143 180 225 274 323
#
# _framework density 19.376909000000001
#
# number of rings (size 3 to 8) (size 9 to 14) (size 15 to 20)
#    0.000    2.364    1.818    2.727    0.000    4.000 
#    0.000    2.273    0.000    4.364    0.000    0.000 
#    0.000    2.909    0.000    0.000    0.000    0.000 
#
# Total GULP energy -545453.553151 kJ/mol
# GULP energy per Si atom -12396.671663 kJ/mol
# Density = 1.933281 g / cm^3
# Si number density = 19.376909 Si / 1000 Ang^3
#
#
#
# Elastic Constant Matrix: (Units=GPa)
#
#
# Indices 1 2 3 4 5 6 
#
# 1 39.9003 30.0972 29.2818 0.0000 0.0000 0.0000
# 2 30.0972 131.8854 51.2369 0.0000 0.0000 0.0000
# 3 29.2818 51.2369 107.5074 0.0000 0.0000 0.0000
# 4 0.0000 0.0000 0.0000 30.7009 0.0000 0.0000
# 5 0.0000 0.0000 0.0000 0.0000 19.0127 0.0000
# 6 0.0000 0.0000 0.0000 0.0000 0.0000 27.8843
#
#
#
# Elastic Compliance Matrix: (Units=1/GPa)
#
#
# Indices 1 2 3 4 5 6 
#
# 1 0.033898 -0.005092 -0.006806 0.000000 0.000000 0.000000
# 2 -0.005092 0.010070 -0.003412 0.000000 0.000000 0.000000
# 3 -0.006806 -0.003412 0.012782 0.000000 0.000000 0.000000
# 4 0.000000 0.000000 0.000000 0.032572 0.000000 0.000000
# 5 0.000000 0.000000 0.000000 0.000000 0.052596 0.000000
# 6 0.000000 0.000000 0.000000 0.000000 0.000000 0.035862
#
#
# Mechanical properties :
#
#
# Convention : Reuss Voigt Hill
#
# Bulk Modulus (GPa) = 38.27115 55.61389 46.94252
# Shear Modulus (GPa) = 23.02966 26.76473 24.89719
#
# Velocity S-wave (km/s) = 3.45122 3.72058 3.58842
# Velocity P-wave (km/s) = 5.97285 6.87171 6.43799
#
# Compressibility (1/GPa) = 0.02612935
#
# Stress axis : x y z
#
# Youngs Moduli (GPa) = 29.50022 99.30479 78.23605
#
# Poissons Ratio (x) = 0.50562 0.53249
# Poissons Ratio (y) = 0.15020 0.26698
# Poissons Ratio (z) = 0.20078 0.33887
#
# Static dielectric constant tensor:
#      x y z
#    x 3.084650 0.000000 0.000000 
#    y 0.000000 3.840410 0.000000 
#    z 0.000000 0.000000 3.623740 
# 
# 
# High freq. dielectric constant tensor:
#      x y z
#    x 1.712050 0.000000 0.000000 
#    y 0.000000 1.772900 0.000000 
#    z 0.000000 0.000000 1.741930 
# 
# From -- ./inp_files/50419.got.cif
#   From: 2010.03.12/outbox.cif.g09.slc.cpg/sg65_26_cif.got.tgz:50419.got - 2010.04.10 20:52:16.
