data_PCOD8274972
_publ_section_title
;
Structure prediction by ZEFSAII (Michael W. Deem and Ramdas Pophale) SiO2 
 PCOD8274972
Probable space group: C M M M
;
_chemical_formula_sum "Si O2"
_cell_formula_units_Z 128
_cell_length_a 9.737914
_cell_length_b 36.261116
_cell_length_c 26.470377
_cell_angle_alpha 90.000000
_cell_angle_beta 90.000000
_cell_angle_gamma 90.000000
_cell_volume 9346.892065
_symmetry_space_group_name_H-M "C M M M"
_symmetry_group_IT_number 65
_symmetry_cell_setting 'orthorhombic'
loop_
_space_group_symop_operation_xyz
x,y,z
-x,-y,z
x,-y,-z
-x,y,-z
-x,-y,-z
x,y,-z
-x,y,z
x,-y,z
1/2+x,1/2+y,z
1/2-x,1/2-y,z
1/2+x,1/2-y,-z
1/2-x,1/2+y,-z
1/2-x,1/2-y,-z
1/2+x,1/2+y,-z
1/2-x,1/2+y,z
1/2+x,1/2-y,z
loop_
_atom_site_type_symbol
_atom_site_label
_atom_site_fract_x
_atom_site_fract_y
_atom_site_fract_z
Si Si1 0.340546 0.087904 0.351034
Si Si2 0.838914 0.214443 0.245331
Si Si3 0.158237 0.542410 0.250663
Si Si4 0.337082 0.958828 0.556064
Si Si5 0.846440 0.902215 0.798018
Si Si6 0.661821 0.331563 0.150825
Si Si7 0.151082 0.143489 0.304480
Si Si8 0.840943 0.785278 0.057122
O O1 0.500000 0.097837 0.356121
O O2 0.313755 0.059548 0.305528
O O3 0.280102 0.069120 0.401761
O O4 0.260953 0.126368 0.343150
O O5 0.750000 0.250000 0.258362
O O6 0.782901 0.197420 0.192421
O O7 0.811339 0.185521 0.290648
O O8 0.000000 0.224666 0.241786
O O9 0.203556 0.500000 0.252736
O O10 0.246984 0.562672 0.207352
O O11 0.000000 0.546756 0.235311
O O12 0.293654 0.945136 0.500000
O O13 0.500000 0.960526 0.560833
O O14 0.278305 0.000000 0.565607
O O15 0.784963 0.873536 0.839993
O O16 0.850476 0.879851 0.746397
O O17 0.000000 0.916072 0.812199
O O18 0.500000 0.333635 0.159014
O O19 0.702989 0.318189 0.094742
O O20 0.000000 0.141826 0.329595
O O21 0.750000 0.750000 0.070136
O O22 0.000000 0.774385 0.065195
O O23 0.813990 0.798989 0.000000
#
# Coordination Sequence:
#
# PCOD8274972 Si02
#       8
#    16  16  16  16  16  16  16  16
#     4   9  15  23  37  54  70  93 124 149 169 200
#     4   9  16  25  37  52  71  95 121 147 175 208
#     4   9  16  24  34  51  75  96 114 143 180 210
#     4   8  13  21  34  53  75  96 119 148 177 201
#     4   8  14  25  38  49  65  92 123 148 169 203
#     4   8  14  25  38  51  70  96 122 147 176 207
#     4   8  15  26  36  48  69  95 118 143 177 210
#     4   9  16  25  37  53  73  96 121 148 177 207
#
# _framework density 13.694391
#
# number of rings (size 3 to 8) (size 9 to 14) (size 15 to 20)
#    0.000    3.500    0.000    2.625    0.000    2.250 
#    0.000    2.500    0.000    1.500    0.000    0.875 
#    0.000    1.000    0.000    7.375    0.000    2.750 
#
# Total GULP energy -793118.250035 kJ/mol
# GULP energy per Si atom -12392.472657 kJ/mol
# Density = 1.366322 g / cm^3
# Si number density = 13.694391 Si / 1000 Ang^3
#
#
#
# Elastic Constant Matrix: (Units=GPa)
#
#
# Indices 1 2 3 4 5 6 
#
# 1 47.7046 46.5648 31.8569 0.0000 0.0000 0.0000
# 2 46.5648 95.1465 47.5537 0.0000 0.0000 0.0000
# 3 31.8569 47.5537 74.5388 0.0000 0.0000 0.0000
# 4 0.0000 0.0000 0.0000 24.6725 0.0000 0.0000
# 5 0.0000 0.0000 0.0000 0.0000 11.7108 0.0000
# 6 0.0000 0.0000 0.0000 0.0000 0.0000 23.0682
#
#
#
# Elastic Compliance Matrix: (Units=1/GPa)
#
#
# Indices 1 2 3 4 5 6 
#
# 1 0.042618 -0.017256 -0.007205 0.000000 0.000000 0.000000
# 2 -0.017256 0.022417 -0.006926 0.000000 0.000000 0.000000
# 3 -0.007205 -0.006926 0.020914 0.000000 0.000000 0.000000
# 4 0.000000 0.000000 0.000000 0.040531 0.000000 0.000000
# 5 0.000000 0.000000 0.000000 0.000000 0.085391 0.000000
# 6 0.000000 0.000000 0.000000 0.000000 0.000000 0.043350
#
#
# Mechanical properties :
#
#
# Convention : Reuss Voigt Hill
#
# Bulk Modulus (GPa) = 43.15316 52.14895 47.65106
# Shear Modulus (GPa) = 15.35058 17.98461 16.66759
#
# Velocity S-wave (km/s) = 3.35168 3.62786 3.49250
# Velocity P-wave (km/s) = 6.82336 7.46402 7.15087
#
# Compressibility (1/GPa) = 0.02317328
#
# Stress axis : x y z
#
# Youngs Moduli (GPa) = 23.46447 44.60911 47.81438
#
# Poissons Ratio (x) = 0.76977 0.34452
# Poissons Ratio (y) = 0.40490 0.33118
# Poissons Ratio (z) = 0.16907 0.30898
#
# Static dielectric constant tensor:
#      x y z
#    x 2.640260 0.000000 0.000000 
#    y 0.000000 2.778200 0.000000 
#    z 0.000000 0.000000 2.682100 
# 
# 
# High freq. dielectric constant tensor:
#      x y z
#    x 1.505380 0.000000 0.000000 
#    y 0.000000 1.510030 0.000000 
#    z 0.000000 0.000000 1.494120 
# 
# From -- ./inp_files/74507.got.cif
#   From: 2010.03.12/outbox.cif.g09.slc.cpg/sg65_38_cif.got.tgz:74507.got - 2010.04.10 20:52:16.
