data_PCOD8274706
_publ_section_title
;
Structure prediction by ZEFSAII (Michael W. Deem and Ramdas Pophale) SiO2 
 PCOD8274706
Probable space group: C M M M
;
_chemical_formula_sum "Si O2"
_cell_formula_units_Z 72
_cell_length_a 9.156397
_cell_length_b 17.714676
_cell_length_c 23.316034
_cell_angle_alpha 90.000000
_cell_angle_beta 90.000000
_cell_angle_gamma 90.000000
_cell_volume 3781.921481
_symmetry_space_group_name_H-M "C M M M"
_symmetry_group_IT_number 65
_symmetry_cell_setting 'orthorhombic'
loop_
_space_group_symop_operation_xyz
x,y,z
-x,-y,z
x,-y,-z
-x,y,-z
-x,-y,-z
x,y,-z
-x,y,z
x,-y,z
1/2+x,1/2+y,z
1/2-x,1/2-y,z
1/2+x,1/2-y,-z
1/2-x,1/2+y,-z
1/2-x,1/2-y,-z
1/2+x,1/2+y,-z
1/2-x,1/2+y,z
1/2+x,1/2-y,z
loop_
_atom_site_type_symbol
_atom_site_label
_atom_site_fract_x
_atom_site_fract_y
_atom_site_fract_z
Si Si1 0.333466 0.910915 0.000000
Si Si2 0.826619 0.170154 0.898802
Si Si3 0.835786 0.910213 0.562992
Si Si4 0.836312 0.590010 0.671207
Si Si5 0.669565 0.585982 0.217382
O O1 0.244850 0.885320 0.055551
O O2 0.500000 0.878760 0.000000
O O3 0.337823 0.000000 0.000000
O O4 0.750000 0.250000 0.905833
O O5 0.790307 0.137604 0.836383
O O6 0.000000 0.176535 0.909469
O O7 0.777604 0.884549 0.500000
O O8 0.736109 0.875997 0.613513
O O9 0.000000 0.880473 0.572075
O O10 0.834268 0.000000 0.566333
O O11 0.830544 0.500000 0.669473
O O12 0.753532 0.619288 0.727670
O O13 0.000000 0.620915 0.673968
O O14 0.500000 0.589204 0.232318
O O15 0.717651 0.500000 0.203804
#
# Coordination Sequence:
#
# PCOD8274706 Si02
#       5
#     8  16  16  16  16
#     4  11  24  41  62  87 113 141 174 213 256 303
#     4  11  23  39  59  82 110 142 176 215 259 307
#     4   8  13  21  33  50  77 117 161 201 244 298
#     4   9  16  24  37  60  89 121 158 204 255 302
#     4   9  18  33  52  72  96 131 173 212 252 303
#
# _framework density 19.037942999999999
#
# number of rings (size 3 to 8) (size 9 to 14) (size 15 to 20)
#    0.000    2.556    0.000    3.333    0.000    6.667 
#    0.000    4.444    0.000    0.000    0.000    0.000 
#    0.000    0.889    0.000    2.889    0.000    5.778 
#
# Total GULP energy -446322.138467 kJ/mol
# GULP energy per Si atom -12397.837180 kJ/mol
# Density = 1.899461 g / cm^3
# Si number density = 19.037943 Si / 1000 Ang^3
#
#
#
# Elastic Constant Matrix: (Units=GPa)
#
#
# Indices 1 2 3 4 5 6 
#
# 1 119.4030 24.9397 89.0650 0.0000 0.0000 0.0000
# 2 24.9397 39.3571 26.1944 0.0000 0.0000 0.0000
# 3 89.0650 26.1944 167.3557 0.0000 0.0000 0.0000
# 4 0.0000 0.0000 0.0000 -4.5586 0.0000 0.0000
# 5 0.0000 0.0000 0.0000 0.0000 47.2719 0.0000
# 6 0.0000 0.0000 0.0000 0.0000 0.0000 15.4183
#
#
#
# Elastic Compliance Matrix: (Units=1/GPa)
#
#
# Indices 1 2 3 4 5 6 
#
# 1 0.014583 -0.004550 -0.007049 0.000000 0.000000 0.000000
# 2 -0.004550 0.029782 -0.002240 0.000000 0.000000 0.000000
# 3 -0.007049 -0.002240 0.010077 0.000000 0.000000 0.000000
# 4 0.000000 0.000000 0.000000 -0.219367 0.000000 0.000000
# 5 0.000000 0.000000 0.000000 0.000000 0.021154 0.000000
# 6 0.000000 0.000000 0.000000 0.000000 0.000000 0.064858
#
#
# Mechanical properties :
#
#
# Convention : Reuss Voigt Hill
#
# Bulk Modulus (GPa) = 37.36180 67.39046 52.37613
# Shear Modulus (GPa) = -118.16726 24.02079 -47.07324
#
# Velocity S-wave (km/s) = -7.88696 3.55594 -4.97792
# Velocity P-wave (km/s) = 7.95432 7.23425 2.33846
#
# Compressibility (1/GPa) = 0.02676531
#
# Stress axis : x y z
#
# Youngs Moduli (GPa) = 68.57199 33.57691 99.23276
#
# Poissons Ratio (x) = 0.15276 0.69949
# Poissons Ratio (y) = 0.31197 0.22231
# Poissons Ratio (z) = 0.48336 0.07522
#
# Static dielectric constant tensor:
#      x y z
#    x 3.672950 0.000000 0.000000 
#    y 0.000000 2.961680 0.000000 
#    z 0.000000 0.000000 3.799890 
# 
# 
# High freq. dielectric constant tensor:
#      x y z
#    x 1.745930 0.000000 0.000000 
#    y 0.000000 1.685550 0.000000 
#    z 0.000000 0.000000 1.760870 
# 
# From -- ./inp_files/67003.got.cif
#   From: 2010.03.12/outbox.cif.g09.slc.cpg/sg65_34_cif.got.tgz:67003.got - 2010.04.10 20:52:16.
