data_PCOD8274811
_publ_section_title
;
Structure prediction by ZEFSAII (Michael W. Deem and Ramdas Pophale) SiO2 
 PCOD8274811
Probable space group: C M M M
;
_chemical_formula_sum "Si O2"
_cell_formula_units_Z 72
_cell_length_a 28.593801
_cell_length_b 14.166050
_cell_length_c 8.692700
_cell_angle_alpha 90.000000
_cell_angle_beta 90.000000
_cell_angle_gamma 90.000000
_cell_volume 3521.075621
_symmetry_space_group_name_H-M "C M M M"
_symmetry_group_IT_number 65
_symmetry_cell_setting 'orthorhombic'
loop_
_space_group_symop_operation_xyz
x,y,z
-x,-y,z
x,-y,-z
-x,y,-z
-x,-y,-z
x,y,-z
-x,y,z
x,-y,z
1/2+x,1/2+y,z
1/2-x,1/2-y,z
1/2+x,1/2-y,-z
1/2-x,1/2+y,-z
1/2-x,1/2-y,-z
1/2+x,1/2+y,-z
1/2-x,1/2+y,z
1/2+x,1/2-y,z
loop_
_atom_site_type_symbol
_atom_site_label
_atom_site_fract_x
_atom_site_fract_y
_atom_site_fract_z
Si Si1 0.875992 0.607028 0.683643
Si Si2 0.826752 0.890791 0.682598
Si Si3 0.000000 0.107000 0.681838
Si Si4 0.412976 0.714704 0.180111
Si Si5 0.725686 0.111446 0.667874
O O1 0.876496 0.618418 0.500000
O O2 0.889358 0.500000 0.729367
O O3 0.913221 0.676815 0.761733
O O4 0.823799 0.633435 0.751338
O O5 0.832063 0.873994 0.500000
O O6 0.863845 0.830954 0.776022
O O7 0.775097 0.854868 0.742729
O O8 0.834982 0.000000 0.722891
O O9 0.954098 0.159034 0.738642
O O10 0.000000 0.107374 0.500000
O O11 0.000000 0.000000 0.745244
O O12 0.421557 0.711643 0.000000
O O13 0.722613 0.158547 0.500000
O O14 0.730499 0.000000 0.647972
#
# Coordination Sequence:
#
# PCOD8274811 Si02
#       5
#    16  16   8  16  16
#     4   9  18  36  61  85 112 151 199 244 279 318
#     4   9  17  32  55  82 113 151 197 243 281 326
#     4  11  25  47  72  91 108 137 183 236 282 329
#     4  12  25  38  56  85 120 152 182 225 287 353
#     4   7  12  26  51  81 110 145 193 244 283 313
#
# _framework density 20.448298000000001
#
# number of rings (size 3 to 8) (size 9 to 14) (size 15 to 20)
#    0.000    2.556    0.000    5.667    0.000    5.333 
#    0.000    6.111    0.000    7.333    0.000    0.000 
#    0.000    0.000    0.000    0.000    0.000    0.000 
#
# Total GULP energy -446021.288871 kJ/mol
# GULP energy per Si atom -12389.480246 kJ/mol
# Density = 2.040176 g / cm^3
# Si number density = 20.448298 Si / 1000 Ang^3
#
#
#
# Elastic Constant Matrix: (Units=GPa)
#
#
# Indices 1 2 3 4 5 6 
#
# 1 110.2470 70.7362 28.7246 0.0000 0.0000 0.0000
# 2 70.7362 116.5882 35.2387 0.0000 0.0000 0.0000
# 3 28.7246 35.2387 53.3891 0.0000 0.0000 0.0000
# 4 0.0000 0.0000 0.0000 -660.8863 0.0000 0.0000
# 5 0.0000 0.0000 0.0000 0.0000 -31.8093 0.0000
# 6 0.0000 0.0000 0.0000 0.0000 0.0000 8.6802
#
#
#
# Elastic Compliance Matrix: (Units=1/GPa)
#
#
# Indices 1 2 3 4 5 6 
#
# 1 0.015136 -0.008397 -0.002601 0.000000 0.000000 0.000000
# 2 -0.008397 0.015373 -0.005629 0.000000 0.000000 0.000000
# 3 -0.002601 -0.005629 0.023845 0.000000 0.000000 0.000000
# 4 0.000000 0.000000 0.000000 -0.001513 0.000000 0.000000
# 5 0.000000 0.000000 0.000000 0.000000 -0.031437 0.000000
# 6 0.000000 0.000000 0.000000 0.000000 0.000000 0.115204
#
#
# Mechanical properties :
#
#
# Convention : Reuss Voigt Hill
#
# Bulk Modulus (GPa) = 47.39352 61.06924 54.23138
# Shear Modulus (GPa) = 28.26522 -127.10140 -49.41809
#
# Velocity S-wave (km/s) = 3.72193 -7.89255 -4.92136
# Velocity P-wave (km/s) = 6.45739 7.28879 2.39046
#
# Compressibility (1/GPa) = 0.02109993
#
# Stress axis : x y z
#
# Youngs Moduli (GPa) = 66.06793 65.04817 41.93705
#
# Poissons Ratio (x) = 0.54621 0.10908
# Poissons Ratio (y) = 0.55478 0.23607
# Poissons Ratio (z) = 0.17185 0.36616
#
# Static dielectric constant tensor:
#      x y z
#    x 3.972940 0.000000 0.000000 
#    y 0.000000 3.889170 0.000000 
#    z 0.000000 0.000000 3.257590 
# 
# 
# High freq. dielectric constant tensor:
#      x y z
#    x 1.799170 0.000000 0.000000 
#    y 0.000000 1.811870 0.000000 
#    z 0.000000 0.000000 1.748400 
# 
# From -- ./inp_files/15776.got.cif
#   From: 2010.03.12/outbox.cif.g09.slc.cpg/sg65_8_cif.got.tgz:15776.got - 2010.04.10 20:52:16.
