data_PCOD8274238
_publ_section_title
;
Structure prediction by ZEFSAII (Michael W. Deem and Ramdas Pophale) SiO2 
 PCOD8274238
Probable space group: C M M M
;
_chemical_formula_sum "Si O2"
_cell_formula_units_Z 88
_cell_length_a 9.957680
_cell_length_b 22.331475
_cell_length_c 22.167194
_cell_angle_alpha 90.000000
_cell_angle_beta 90.000000
_cell_angle_gamma 90.000000
_cell_volume 4929.311880
_symmetry_space_group_name_H-M "C M M M"
_symmetry_group_IT_number 65
_symmetry_cell_setting 'orthorhombic'
loop_
_space_group_symop_operation_xyz
x,y,z
-x,-y,z
x,-y,-z
-x,y,-z
-x,-y,-z
x,y,-z
-x,y,z
x,-y,z
1/2+x,1/2+y,z
1/2-x,1/2-y,z
1/2+x,1/2-y,-z
1/2-x,1/2+y,-z
1/2-x,1/2-y,-z
1/2+x,1/2+y,-z
1/2-x,1/2+y,z
1/2+x,1/2-y,z
loop_
_atom_site_type_symbol
_atom_site_label
_atom_site_fract_x
_atom_site_fract_y
_atom_site_fract_z
Si Si1 0.660263 0.067053 0.628900
Si Si2 0.647522 0.928738 0.500000
Si Si3 0.500000 0.140324 0.069921
Si Si4 0.000000 0.228467 0.119092
Si Si5 0.250000 0.750000 0.200560
Si Si6 0.500000 0.601031 0.069739
Si Si7 0.730219 0.068028 0.866753
Si Si8 0.158328 0.628951 0.749001
O O1 0.500000 0.066709 0.624037
O O2 0.719700 0.089764 0.563545
O O3 0.708364 0.110461 0.682403
O O4 0.711779 0.000000 0.643314
O O5 0.500000 0.899210 0.500000
O O6 0.634035 0.000000 0.500000
O O7 0.500000 0.211164 0.080396
O O8 0.368135 0.112918 0.099061
O O9 0.500000 0.125278 0.000000
O O10 0.867583 0.223127 0.159592
O O11 0.000000 0.172978 0.073477
O O12 0.191665 0.698508 0.243245
O O13 0.626079 0.571928 0.102632
O O14 0.500000 0.582124 0.000000
O O15 0.737446 0.088206 0.797117
O O16 0.676963 0.000000 0.870696
O O17 0.000000 0.617899 0.758251
#
# Coordination Sequence:
#
# PCOD8274238 Si02
#       8
#    16   8   8   8   8   8  16  16
#     4   8  14  24  44  74 108 140 172 210 257 311
#     4   7  10  20  38  67 106 143 171 203 250 305
#     4  12  24  40  61  83 102 130 172 225 275 320
#     4  12  21  42  60  80 100 133 176 228 270 311
#     4  12  20  36  59  75 106 132 174 228 272 312
#     4  12  26  42  59  77 104 142 176 217 271 326
#     4  12  24  39  57  79 110 140 172 215 267 331
#     4  11  20  34  54  80 104 137 180 221 269 311
#
# _framework density 17.85239
#
# number of rings (size 3 to 8) (size 9 to 14) (size 15 to 20)
#    0.000    1.364    5.455    3.000    0.000    2.909 
#    0.000    2.727    0.000    0.545    0.000    0.000 
#    0.000    2.182    0.000   15.182    0.000    4.636 
#
# Total GULP energy -545485.761104 kJ/mol
# GULP energy per Si atom -12397.403661 kJ/mol
# Density = 1.781176 g / cm^3
# Si number density = 17.852390 Si / 1000 Ang^3
#
#
#
# Elastic Constant Matrix: (Units=GPa)
#
#
# Indices 1 2 3 4 5 6 
#
# 1 61.4415 -2.7700 26.9758 0.0000 0.0000 0.0000
# 2 -2.7700 77.5726 30.6086 0.0000 0.0000 0.0000
# 3 26.9758 30.6086 162.8409 0.0000 0.0000 0.0000
# 4 0.0000 0.0000 0.0000 29.6700 0.0000 0.0000
# 5 0.0000 0.0000 0.0000 0.0000 19.4856 0.0000
# 6 0.0000 0.0000 0.0000 0.0000 0.0000 6.5655
#
#
#
# Elastic Compliance Matrix: (Units=1/GPa)
#
#
# Indices 1 2 3 4 5 6 
#
# 1 0.017820 0.001945 -0.003318 0.000000 0.000000 0.000000
# 2 0.001945 0.014136 -0.002979 0.000000 0.000000 0.000000
# 3 -0.003318 -0.002979 0.007251 0.000000 0.000000 0.000000
# 4 0.000000 0.000000 0.000000 0.033704 0.000000 0.000000
# 5 0.000000 0.000000 0.000000 0.000000 0.051320 0.000000
# 6 0.000000 0.000000 0.000000 0.000000 0.000000 0.152311
#
#
# Mechanical properties :
#
#
# Convention : Reuss Voigt Hill
#
# Bulk Modulus (GPa) = 32.78316 45.72041 39.25178
# Shear Modulus (GPa) = 16.92543 27.61360 22.26952
#
# Velocity S-wave (km/s) = 3.08243 3.93717 3.53572
# Velocity P-wave (km/s) = 5.57421 6.80693 6.22118
#
# Compressibility (1/GPa) = 0.03050347
#
# Stress axis : x y z
#
# Youngs Moduli (GPa) = 56.11678 70.74017 137.91986
#
# Poissons Ratio (x) = -0.13762 0.45757
# Poissons Ratio (y) = -0.10917 0.41092
# Poissons Ratio (z) = 0.18618 0.21076
#
# Static dielectric constant tensor:
#      x y z
#    x 2.906990 0.000000 0.000000 
#    y 0.000000 3.262300 0.000000 
#    z 0.000000 0.000000 3.699500 
# 
# 
# High freq. dielectric constant tensor:
#      x y z
#    x 1.660100 0.000000 0.000000 
#    y 0.000000 1.684860 0.000000 
#    z 0.000000 0.000000 1.698920 
# 
# From -- ./inp_files/67735.got.cif
#   From: 2010.03.12/outbox.cif.g09.slc.cpg/sg65_34_cif.got.tgz:67735.got - 2010.04.10 20:52:16.
