data_PCOD8274585
_publ_section_title
;
Structure prediction by ZEFSAII (Michael W. Deem and Ramdas Pophale) SiO2 
 PCOD8274585
Probable space group: C M M M
;
_chemical_formula_sum "Si O2"
_cell_formula_units_Z 72
_cell_length_a 8.710768
_cell_length_b 14.463511
_cell_length_c 29.051979
_cell_angle_alpha 90.000000
_cell_angle_beta 90.000000
_cell_angle_gamma 90.000000
_cell_volume 3660.209120
_symmetry_space_group_name_H-M "C M M M"
_symmetry_group_IT_number 65
_symmetry_cell_setting 'orthorhombic'
loop_
_space_group_symop_operation_xyz
x,y,z
-x,-y,z
x,-y,-z
-x,y,-z
-x,-y,-z
x,y,-z
-x,y,z
x,-y,z
1/2+x,1/2+y,z
1/2-x,1/2-y,z
1/2+x,1/2-y,-z
1/2-x,1/2+y,-z
1/2-x,1/2-y,-z
1/2+x,1/2+y,-z
1/2-x,1/2+y,z
1/2+x,1/2-y,z
loop_
_atom_site_type_symbol
_atom_site_label
_atom_site_fract_x
_atom_site_fract_y
_atom_site_fract_z
Si Si1 0.181749 0.352000 0.859075
Si Si2 0.816521 0.500000 0.448319
Si Si3 0.320395 0.350708 0.950187
Si Si4 0.178069 0.500000 0.697323
Si Si5 0.179150 0.649410 0.377819
Si Si6 0.320089 0.500000 0.794890
O O1 0.250000 0.250000 0.855587
O O2 0.236702 0.400719 0.907204
O O3 0.244210 0.409049 0.816237
O O4 0.000000 0.349214 0.857175
O O5 0.749834 0.500000 0.500000
O O6 0.757108 0.408147 0.421816
O O7 0.000000 0.500000 0.447922
O O8 0.500000 0.344293 0.938875
O O9 0.250000 0.250000 0.954057
O O10 0.294583 0.401085 0.000000
O O11 0.216684 0.408237 0.668165
O O12 0.288793 0.500000 0.740837
O O13 0.000000 0.500000 0.712458
O O14 0.250000 0.750000 0.374868
O O15 0.000000 0.662541 0.383553
O O16 0.500000 0.500000 0.804641
#
# Coordination Sequence:
#
# PCOD8274585 Si02
#       6
#    16   8  16   8  16   8
#     4  11  22  38  59  83 112 145 181 223 272 329
#     4   8  15  30  51  77 113 156 193 222 264 323
#     4   9  16  28  49  77 108 142 179 219 264 317
#     4   9  20  39  56  74 104 141 180 222 276 336
#     4   9  18  33  55  80 108 144 185 230 274 321
#     4  12  25  41  60  83 110 141 180 228 284 339
#
# _framework density 19.671005999999998
#
# number of rings (size 3 to 8) (size 9 to 14) (size 15 to 20)
#    0.000    2.333    0.000    6.333    0.000    3.556 
#    0.000    4.444    0.000    4.000    0.000    0.000 
#    0.000    0.000    0.000    0.000    0.000    0.000 
#
# Total GULP energy -446167.530002 kJ/mol
# GULP energy per Si atom -12393.542500 kJ/mol
# Density = 1.962623 g / cm^3
# Si number density = 19.671006 Si / 1000 Ang^3
#
#
#
# Elastic Constant Matrix: (Units=GPa)
#
#
# Indices 1 2 3 4 5 6 
#
# 1 124.3766 45.7348 59.3251 0.0000 0.0000 0.0000
# 2 45.7348 131.6899 62.7786 0.0000 0.0000 0.0000
# 3 59.3251 62.7786 148.6260 0.0000 0.0000 0.0000
# 4 0.0000 0.0000 0.0000 66.6727 0.0000 0.0000
# 5 0.0000 0.0000 0.0000 0.0000 27.3018 0.0000
# 6 0.0000 0.0000 0.0000 0.0000 0.0000 29.4913
#
#
#
# Elastic Compliance Matrix: (Units=1/GPa)
#
#
# Indices 1 2 3 4 5 6 
#
# 1 0.010349 -0.002034 -0.003271 0.000000 0.000000 0.000000
# 2 -0.002034 0.009908 -0.003373 0.000000 0.000000 0.000000
# 3 -0.003271 -0.003373 0.009459 0.000000 0.000000 0.000000
# 4 0.000000 0.000000 0.000000 0.014999 0.000000 0.000000
# 5 0.000000 0.000000 0.000000 0.000000 0.036628 0.000000
# 6 0.000000 0.000000 0.000000 0.000000 0.000000 0.033908
#
#
# Mechanical properties :
#
#
# Convention : Reuss Voigt Hill
#
# Bulk Modulus (GPa) = 80.92068 82.26329 81.59198
# Shear Modulus (GPa) = 36.56918 40.48343 38.52630
#
# Velocity S-wave (km/s) = 4.31634 4.54147 4.43033
# Velocity P-wave (km/s) = 8.12818 8.33128 8.23036
#
# Compressibility (1/GPa) = 0.01235778
#
# Stress axis : x y z
#
# Youngs Moduli (GPa) = 96.63178 100.92709 105.72120
#
# Poissons Ratio (x) = 0.20533 0.34585
# Poissons Ratio (y) = 0.19659 0.35660
# Poissons Ratio (z) = 0.31612 0.34043
#
# Static dielectric constant tensor:
#      x y z
#    x 3.470050 0.000000 0.000000 
#    y 0.000000 2.739230 0.000000 
#    z 0.000000 0.000000 4.028780 
# 
# 
# High freq. dielectric constant tensor:
#      x y z
#    x 1.759010 0.000000 0.000000 
#    y 0.000000 1.757440 0.000000 
#    z 0.000000 0.000000 1.775470 
# 
# From -- ./inp_files/76371.got.cif
#   From: 2010.03.12/outbox.cif.g09.slc.cpg/sg65_39_cif.got.tgz:76371.got - 2010.04.10 20:52:16.
