data_PCOD8274569
_publ_section_title
;
Structure prediction by ZEFSAII (Michael W. Deem and Ramdas Pophale) SiO2 
 PCOD8274569
Probable space group: C M M M
;
_chemical_formula_sum "Si O2"
_cell_formula_units_Z 80
_cell_length_a 17.046794
_cell_length_b 9.658929
_cell_length_c 24.376066
_cell_angle_alpha 90.000000
_cell_angle_beta 90.000000
_cell_angle_gamma 90.000000
_cell_volume 4013.611236
_symmetry_space_group_name_H-M "C M M M"
_symmetry_group_IT_number 65
_symmetry_cell_setting 'orthorhombic'
loop_
_space_group_symop_operation_xyz
x,y,z
-x,-y,z
x,-y,-z
-x,y,-z
-x,-y,-z
x,y,-z
-x,y,z
x,-y,z
1/2+x,1/2+y,z
1/2-x,1/2-y,z
1/2+x,1/2-y,-z
1/2-x,1/2+y,-z
1/2-x,1/2-y,-z
1/2+x,1/2+y,-z
1/2-x,1/2+y,z
1/2+x,1/2-y,z
loop_
_atom_site_type_symbol
_atom_site_label
_atom_site_fract_x
_atom_site_fract_y
_atom_site_fract_z
Si Si1 0.092388 0.656170 0.242284
Si Si2 0.412170 0.777151 0.879365
Si Si3 0.093756 0.842892 0.340954
Si Si4 0.689786 0.000000 0.936169
Si Si5 0.372432 0.500000 0.064943
Si Si6 0.093270 0.344853 0.438924
O O1 0.127616 0.500000 0.246219
O O2 0.114106 0.725001 0.184058
O O3 0.127388 0.756297 0.289207
O O4 0.000000 0.646943 0.250390
O O5 0.500000 0.841340 0.883802
O O6 0.349214 0.864028 0.912410
O O7 0.413930 0.627560 0.906035
O O8 0.126075 0.767210 0.395730
O O9 0.000000 0.844911 0.340165
O O10 0.126302 0.000000 0.339100
O O11 0.780758 0.000000 0.921629
O O12 0.674814 0.000000 0.000000
O O13 0.389211 0.500000 0.000000
O O14 0.123168 0.305219 0.500000
O O15 0.121990 0.500000 0.423152
O O16 0.000000 0.342684 0.437750
#
# Coordination Sequence:
#
# PCOD8274569 Si02
#       6
#    16  16  16   8   8  16
#     4   9  17  30  46  66  92 122 162 212 261 309
#     4  11  22  37  59  85 109 139 182 229 270 317
#     4   9  16  23  35  56  83 117 155 203 262 313
#     4  11  23  41  61  81 109 145 182 217 264 332
#     4  11  25  41  57  81 115 147 172 213 278 338
#     4   8  13  21  32  47  72 112 162 208 247 297
#
# _framework density 19.932175000000001
#
# number of rings (size 3 to 8) (size 9 to 14) (size 15 to 20)
#    0.000    2.400    1.000    3.000    1.400    6.800 
#    0.000    2.000    0.000    0.000    0.000    0.000 
#    0.000    0.000    0.000    0.000    0.000    6.000 
#
# Total GULP energy -495874.567245 kJ/mol
# GULP energy per Si atom -12396.864181 kJ/mol
# Density = 1.988681 g / cm^3
# Si number density = 19.932175 Si / 1000 Ang^3
#
#
#
# Elastic Constant Matrix: (Units=GPa)
#
#
# Indices 1 2 3 4 5 6 
#
# 1 25.8286 11.5812 32.9378 0.0000 0.0000 0.0000
# 2 11.5812 150.7771 76.0356 0.0000 0.0000 0.0000
# 3 32.9378 76.0356 144.8871 0.0000 0.0000 0.0000
# 4 0.0000 0.0000 0.0000 44.7938 0.0000 0.0000
# 5 0.0000 0.0000 0.0000 0.0000 -2.1288 0.0000
# 6 0.0000 0.0000 0.0000 0.0000 0.0000 15.7589
#
#
#
# Elastic Compliance Matrix: (Units=1/GPa)
#
#
# Indices 1 2 3 4 5 6 
#
# 1 0.055410 0.002851 -0.014093 0.000000 0.000000 0.000000
# 2 0.002851 0.009166 -0.005458 0.000000 0.000000 0.000000
# 3 -0.014093 -0.005458 0.012970 0.000000 0.000000 0.000000
# 4 0.000000 0.000000 0.000000 0.022325 0.000000 0.000000
# 5 0.000000 0.000000 0.000000 0.000000 -0.469739 0.000000
# 6 0.000000 0.000000 0.000000 0.000000 0.000000 0.063456
#
#
# Mechanical properties :
#
#
# Convention : Reuss Voigt Hill
#
# Bulk Modulus (GPa) = 22.65215 62.51133 42.58174
# Shear Modulus (GPa) = -19.35763 25.08064 2.86151
#
# Velocity S-wave (km/s) = -3.11975 3.55110 1.19947
# Velocity P-wave (km/s) = 1.26009 6.94578 4.82991
#
# Compressibility (1/GPa) = 0.04414592
#
# Stress axis : x y z
#
# Youngs Moduli (GPa) = 18.04718 109.10001 77.10004
#
# Poissons Ratio (x) = -0.31102 1.08655
# Poissons Ratio (y) = -0.05145 0.42083
# Poissons Ratio (z) = 0.25433 0.59550
#
# Static dielectric constant tensor:
#      x y z
#    x 3.011470 0.000000 0.000000 
#    y 0.000000 3.938120 0.000000 
#    z 0.000000 0.000000 3.938410 
# 
# 
# High freq. dielectric constant tensor:
#      x y z
#    x 1.713270 0.000000 0.000000 
#    y 0.000000 1.787000 0.000000 
#    z 0.000000 0.000000 1.792760 
# 
# From -- ./inp_files/70857.got.cif
#   From: 2010.03.12/outbox.cif.g09.slc.cpg/sg65_36_cif.got.tgz:70857.got - 2010.04.10 20:52:16.
