data_PCOD8274263
_publ_section_title
;
Structure prediction by ZEFSAII (Michael W. Deem and Ramdas Pophale) SiO2 
 PCOD8274263
Probable space group: C M M M
;
_chemical_formula_sum "Si O2"
_cell_formula_units_Z 72
_cell_length_a 17.547061
_cell_length_b 14.105967
_cell_length_c 16.649475
_cell_angle_alpha 90.000000
_cell_angle_beta 90.000000
_cell_angle_gamma 90.000000
_cell_volume 4121.049139
_symmetry_space_group_name_H-M "C M M M"
_symmetry_group_IT_number 65
_symmetry_cell_setting 'orthorhombic'
loop_
_space_group_symop_operation_xyz
x,y,z
-x,-y,z
x,-y,-z
-x,y,-z
-x,-y,-z
x,y,-z
-x,y,z
x,-y,z
1/2+x,1/2+y,z
1/2-x,1/2-y,z
1/2+x,1/2-y,-z
1/2-x,1/2+y,-z
1/2-x,1/2-y,-z
1/2+x,1/2+y,-z
1/2-x,1/2+y,z
1/2+x,1/2-y,z
loop_
_atom_site_type_symbol
_atom_site_label
_atom_site_fract_x
_atom_site_fract_y
_atom_site_fract_z
Si Si1 0.848987 0.611356 0.667363
Si Si2 0.585662 0.765662 0.797394
Si Si3 0.586750 0.887561 0.500000
Si Si4 0.824031 0.392308 0.908323
Si Si5 0.206332 0.107486 0.229531
O O1 0.862295 0.500000 0.674651
O O2 0.910730 0.658955 0.725384
O O3 0.865353 0.648042 0.577230
O O4 0.763568 0.637162 0.697805
O O5 0.500000 0.730983 0.811139
O O6 0.613427 0.816717 0.878997
O O7 0.633713 0.674335 0.771006
O O8 0.500000 0.846656 0.500000
O O9 0.582192 0.000000 0.500000
O O10 0.855375 0.500000 0.898694
O O11 0.748444 0.379459 0.855405
O O12 0.802549 0.370032 0.000000
O O13 0.178139 0.000000 0.241495
#
# Coordination Sequence:
#
# PCOD8274263 Si02
#       5
#    16  16   8  16  16
#     4   9  17  31  51  73  97 125 155 189 234 288
#     4  11  21  31  47  71  99 128 157 196 241 280
#     4   9  16  26  45  76 108 128 145 183 242 298
#     4   9  18  33  53  74  95 122 155 192 237 290
#     4   9  19  35  51  67  91 126 168 204 231 270
#
# _framework density 17.47128
#
# number of rings (size 3 to 8) (size 9 to 14) (size 15 to 20)
#    0.000    2.556    0.000    5.333    0.000    5.333 
#    0.000    3.333    0.000    0.000    0.000    4.667 
#    0.000    7.111    0.000    0.000    0.000    0.000 
#
# Total GULP energy -446281.952905 kJ/mol
# GULP energy per Si atom -12396.720914 kJ/mol
# Density = 1.743151 g / cm^3
# Si number density = 17.471280 Si / 1000 Ang^3
#
#
#
# Elastic Constant Matrix: (Units=GPa)
#
#
# Indices 1 2 3 4 5 6 
#
# 1 114.0485 49.9305 40.1296 0.0000 0.0000 0.0000
# 2 49.9305 63.4713 26.5765 0.0000 0.0000 0.0000
# 3 40.1296 26.5765 130.2149 0.0000 0.0000 0.0000
# 4 0.0000 0.0000 0.0000 10.2720 0.0000 0.0000
# 5 0.0000 0.0000 0.0000 0.0000 9.7316 0.0000
# 6 0.0000 0.0000 0.0000 0.0000 0.0000 19.0098
#
#
#
# Elastic Compliance Matrix: (Units=1/GPa)
#
#
# Indices 1 2 3 4 5 6 
#
# 1 0.013953 -0.010034 -0.002252 0.000000 0.000000 0.000000
# 2 -0.010034 0.024442 -0.001896 0.000000 0.000000 0.000000
# 3 -0.002252 -0.001896 0.008761 0.000000 0.000000 0.000000
# 4 0.000000 0.000000 0.000000 0.097352 0.000000 0.000000
# 5 0.000000 0.000000 0.000000 0.000000 0.102758 0.000000
# 6 0.000000 0.000000 0.000000 0.000000 0.000000 0.052605
#
#
# Mechanical properties :
#
#
# Convention : Reuss Voigt Hill
#
# Bulk Modulus (GPa) = 53.21477 60.11199 56.66338
# Shear Modulus (GPa) = 14.94771 20.54255 17.74513
#
# Velocity S-wave (km/s) = 2.92817 3.43270 3.19042
# Velocity P-wave (km/s) = 6.47740 7.08464 6.78781
#
# Compressibility (1/GPa) = 0.01879178
#
# Stress axis : x y z
#
# Youngs Moduli (GPa) = 71.66712 40.91278 114.14478
#
# Poissons Ratio (x) = 0.41050 0.25709
# Poissons Ratio (y) = 0.71907 0.21647
# Poissons Ratio (z) = 0.16142 0.07759
#
# Static dielectric constant tensor:
#      x y z
#    x 3.004780 0.000000 0.000000 
#    y 0.000000 3.190390 0.000000 
#    z 0.000000 0.000000 3.527960 
# 
# 
# High freq. dielectric constant tensor:
#      x y z
#    x 1.649580 0.000000 0.000000 
#    y 0.000000 1.666640 0.000000 
#    z 0.000000 0.000000 1.676540 
# 
# From -- ./inp_files/42159.got.cif
#   From: 2010.03.12/outbox.cif.g09.slc.cpg/sg65_22_cif.got.tgz:42159.got - 2010.04.10 20:52:16.
