data_PCOD8274828
_publ_section_title
;
Structure prediction by ZEFSAII (Michael W. Deem and Ramdas Pophale) SiO2 
 PCOD8274828
Probable space group: C M M M
;
_chemical_formula_sum "Si O2"
_cell_formula_units_Z 104
_cell_length_a 26.511325
_cell_length_b 22.891112
_cell_length_c 9.575229
_cell_angle_alpha 90.000000
_cell_angle_beta 90.000000
_cell_angle_gamma 90.000000
_cell_volume 5810.954746
_symmetry_space_group_name_H-M "C M M M"
_symmetry_group_IT_number 65
_symmetry_cell_setting 'orthorhombic'
loop_
_space_group_symop_operation_xyz
x,y,z
-x,-y,z
x,-y,-z
-x,y,-z
-x,-y,-z
x,y,-z
-x,y,z
x,-y,z
1/2+x,1/2+y,z
1/2-x,1/2-y,z
1/2+x,1/2-y,-z
1/2-x,1/2+y,-z
1/2-x,1/2-y,-z
1/2+x,1/2+y,-z
1/2-x,1/2+y,z
1/2+x,1/2-y,z
loop_
_atom_site_type_symbol
_atom_site_label
_atom_site_fract_x
_atom_site_fract_y
_atom_site_fract_z
Si Si1 0.000000 0.637363 0.833856
Si Si2 0.500000 0.247545 0.653731
Si Si3 0.283359 0.169881 0.842996
Si Si4 0.073175 0.433957 0.344206
Si Si5 0.169826 0.787159 0.158242
Si Si6 0.500000 0.567471 0.333657
Si Si7 0.308525 0.064658 0.341963
Si Si8 0.083944 0.157203 0.340788
O O1 0.049498 0.606286 0.774324
O O2 0.000000 0.703523 0.782094
O O3 0.000000 0.635426 0.000000
O O4 0.500000 0.217101 0.500000
O O5 0.549655 0.285978 0.667457
O O6 0.226029 0.189352 0.838749
O O7 0.323089 0.219720 0.788242
O O8 0.282643 0.112196 0.752288
O O9 0.299456 0.154147 0.000000
O O10 0.056566 0.413798 0.500000
O O11 0.054940 0.500000 0.319483
O O12 0.132195 0.428790 0.328721
O O13 0.133670 0.828308 0.250862
O O14 0.148601 0.787954 0.000000
O O15 0.500000 0.500000 0.279587
O O16 0.500000 0.570237 0.500000
O O17 0.551058 0.601514 0.282998
O O18 0.290812 0.074930 0.500000
O O19 0.291855 0.000000 0.292454
O O20 0.101066 0.144808 0.500000
#
# Coordination Sequence:
#
# PCOD8274828 Si02
#       8
#     8   8  16  16  16   8  16  16
#     4  12  24  32  45  72  99 126 168 214 251 294
#     4   9  20  36  49  69 104 137 166 203 250 305
#     4   9  19  35  53  74 103 141 176 209 259 316
#     4   9  19  36  53  67  92 132 168 204 258 308
#     4   9  19  35  53  75 107 140 170 211 262 310
#     4   8  15  32  57  82 109 138 168 208 259 312
#     4   9  19  35  54  76 100 129 170 218 261 301
#     4   9  18  33  55  80 103 133 173 210 248 304
#
# _framework density 17.89723
#
# number of rings (size 3 to 8) (size 9 to 14) (size 15 to 20)
#    0.000    2.846    0.000    3.692    2.154    4.000 
#    0.000    5.000    0.000    3.692    0.000    0.000 
#    0.000    0.000    0.000    0.000    0.000    0.000 
#
# Total GULP energy -644336.274939 kJ/mol
# GULP energy per Si atom -12391.082210 kJ/mol
# Density = 1.785650 g / cm^3
# Si number density = 17.897230 Si / 1000 Ang^3
#
#
#
# Elastic Constant Matrix: (Units=GPa)
#
#
# Indices 1 2 3 4 5 6 
#
# 1 53.0673 27.5677 27.4000 0.0000 0.0000 0.0000
# 2 27.5677 121.5535 58.0151 0.0000 0.0000 0.0000
# 3 27.4000 58.0151 91.8822 0.0000 0.0000 0.0000
# 4 0.0000 0.0000 0.0000 20.3649 0.0000 0.0000
# 5 0.0000 0.0000 0.0000 0.0000 46.4830 0.0000
# 6 0.0000 0.0000 0.0000 0.0000 0.0000 14.6634
#
#
#
# Elastic Compliance Matrix: (Units=1/GPa)
#
#
# Indices 1 2 3 4 5 6 
#
# 1 0.022907 -0.002769 -0.005082 0.000000 0.000000 0.000000
# 2 -0.002769 0.012110 -0.006821 0.000000 0.000000 0.000000
# 3 -0.005082 -0.006821 0.016706 0.000000 0.000000 0.000000
# 4 0.000000 0.000000 0.000000 0.049104 0.000000 0.000000
# 5 0.000000 0.000000 0.000000 0.000000 0.021513 0.000000
# 6 0.000000 0.000000 0.000000 0.000000 0.000000 0.068197
#
#
# Mechanical properties :
#
#
# Convention : Reuss Voigt Hill
#
# Bulk Modulus (GPa) = 44.68687 54.71872 49.70280
# Shear Modulus (GPa) = 21.99336 26.53694 24.26515
#
# Velocity S-wave (km/s) = 3.50933 3.85481 3.68612
# Velocity P-wave (km/s) = 6.43765 7.10303 6.77851
#
# Compressibility (1/GPa) = 0.02237794
#
# Stress axis : x y z
#
# Youngs Moduli (GPa) = 43.65511 82.57440 59.85973
#
# Poissons Ratio (x) = 0.22868 0.30423
# Poissons Ratio (y) = 0.12090 0.40828
# Poissons Ratio (z) = 0.22187 0.56321
#
# Static dielectric constant tensor:
#      x y z
#    x 3.150080 0.000000 0.000000 
#    y 0.000000 3.644130 0.000000 
#    z 0.000000 0.000000 3.336130 
# 
# 
# High freq. dielectric constant tensor:
#      x y z
#    x 1.685380 0.000000 0.000000 
#    y 0.000000 1.693550 0.000000 
#    z 0.000000 0.000000 1.676560 
# 
# From -- ./inp_files/16837.got.cif
#   From: 2010.03.12/outbox.cif.g09.slc.cpg/sg65_9_cif.got.tgz:16837.got - 2010.04.10 20:52:16.
