data_PCOD8274305
_publ_section_title
;
Structure prediction by ZEFSAII (Michael W. Deem and Ramdas Pophale) SiO2 
 PCOD8274305
Probable space group: C M M M
;
_chemical_formula_sum "Si O2"
_cell_formula_units_Z 96
_cell_length_a 29.322999
_cell_length_b 14.189937
_cell_length_c 12.806293
_cell_angle_alpha 90.000000
_cell_angle_beta 90.000000
_cell_angle_gamma 90.000000
_cell_volume 5328.589772
_symmetry_space_group_name_H-M "C M M M"
_symmetry_group_IT_number 65
_symmetry_cell_setting 'orthorhombic'
loop_
_space_group_symop_operation_xyz
x,y,z
-x,-y,z
x,-y,-z
-x,y,-z
-x,-y,-z
x,y,-z
-x,y,z
x,-y,z
1/2+x,1/2+y,z
1/2-x,1/2-y,z
1/2+x,1/2-y,-z
1/2-x,1/2+y,-z
1/2-x,1/2-y,-z
1/2+x,1/2+y,-z
1/2-x,1/2+y,z
1/2+x,1/2-y,z
loop_
_atom_site_type_symbol
_atom_site_label
_atom_site_fract_x
_atom_site_fract_y
_atom_site_fract_z
Si Si1 0.240293 0.606525 0.500000
Si Si2 0.637784 0.113752 0.500000
Si Si3 0.115406 0.730916 0.304834
Si Si4 0.256678 0.106328 0.111320
Si Si5 0.212180 0.823221 0.704048
Si Si6 0.053618 0.106448 0.620409
Si Si7 0.357705 0.890155 0.878710
O O1 0.226567 0.500000 0.500000
O O2 0.190275 0.655026 0.500000
O O3 0.270564 0.629461 0.598844
O O4 0.612359 0.154677 0.398224
O O5 0.634527 0.000000 0.500000
O O6 0.162444 0.786308 0.314638
O O7 0.076995 0.811818 0.311008
O O8 0.110217 0.674125 0.195884
O O9 0.215729 0.108023 0.195835
O O10 0.306251 0.147563 0.146585
O O11 0.269798 0.000000 0.088743
O O12 0.240879 0.151922 0.000000
O O13 0.250000 0.750000 0.741333
O O14 0.067705 0.121057 0.500000
O O15 0.000000 0.117878 0.635109
O O16 0.068420 0.000000 0.655341
O O17 0.364749 0.000000 0.849111
O O18 0.370361 0.872653 0.000000
#
# Coordination Sequence:
#
# PCOD8274305 Si02
#       7
#     8   8  16  16  16  16  16
#     4  11  22  34  44  59 103 153 180 205 250 321
#     4  11  21  33  49  76 111 147 178 208 258 324
#     4  12  21  33  56  81 107 141 181 226 278 325
#     4   9  18  33  49  66  97 143 189 227 262 302
#     4  12  21  30  44  72 107 137 178 221 263 310
#     4   9  20  40  63  84 107 137 178 229 281 332
#     4   9  18  33  53  78 109 149 191 221 254 314
#
# _framework density 18.016023000000001
#
# number of rings (size 3 to 8) (size 9 to 14) (size 15 to 20)
#    0.000    1.667    4.167    3.250    0.000    5.000 
#    0.000    0.000    0.000    3.500    0.000    2.333 
#    0.000    0.000    0.000    0.000    0.000    0.000 
#
# Total GULP energy -594671.310678 kJ/mol
# GULP energy per Si atom -12388.985639 kJ/mol
# Density = 1.797502 g / cm^3
# Si number density = 18.016023 Si / 1000 Ang^3
#
#
#
# Elastic Constant Matrix: (Units=GPa)
#
#
# Indices 1 2 3 4 5 6 
#
# 1 46.4594 37.6571 26.5831 0.0000 0.0000 0.0000
# 2 37.6571 97.7259 52.7753 0.0000 0.0000 0.0000
# 3 26.5831 52.7753 127.9623 0.0000 0.0000 0.0000
# 4 0.0000 0.0000 0.0000 34.1819 0.0000 0.0000
# 5 0.0000 0.0000 0.0000 0.0000 35.5362 0.0000
# 6 0.0000 0.0000 0.0000 0.0000 0.0000 30.2885
#
#
#
# Elastic Compliance Matrix: (Units=1/GPa)
#
#
# Indices 1 2 3 4 5 6 
#
# 1 0.031689 -0.011136 -0.001990 0.000000 0.000000 0.000000
# 2 -0.011136 0.017078 -0.004730 0.000000 0.000000 0.000000
# 3 -0.001990 -0.004730 0.010179 0.000000 0.000000 0.000000
# 4 0.000000 0.000000 0.000000 0.029255 0.000000 0.000000
# 5 0.000000 0.000000 0.000000 0.000000 0.028140 0.000000
# 6 0.000000 0.000000 0.000000 0.000000 0.000000 0.033016
#
#
# Mechanical properties :
#
#
# Convention : Reuss Voigt Hill
#
# Bulk Modulus (GPa) = 43.04131 56.24204 49.64168
# Shear Modulus (GPa) = 25.93154 30.34347 28.13751
#
# Velocity S-wave (km/s) = 3.79801 4.10841 3.95625
# Velocity P-wave (km/s) = 6.57081 7.33423 6.96299
#
# Compressibility (1/GPa) = 0.02323349
#
# Stress axis : x y z
#
# Youngs Moduli (GPa) = 31.55653 58.55416 98.24041
#
# Poissons Ratio (x) = 0.65206 0.19553
# Poissons Ratio (y) = 0.35141 0.46469
# Poissons Ratio (z) = 0.06281 0.27697
#
# Static dielectric constant tensor:
#      x y z
#    x 3.000880 0.000000 0.000000 
#    y 0.000000 3.516780 0.000000 
#    z 0.000000 0.000000 3.399190 
# 
# 
# High freq. dielectric constant tensor:
#      x y z
#    x 1.642620 0.000000 0.000000 
#    y 0.000000 1.709360 0.000000 
#    z 0.000000 0.000000 1.705390 
# 
# From -- ./inp_files/33877.got.cif
#   From: 2010.03.12/outbox.cif.g09.slc.cpg/sg65_17_cif.got.tgz:33877.got - 2010.04.10 20:52:16.
