data_PCOD8274899
_publ_section_title
;
Structure prediction by ZEFSAII (Michael W. Deem and Ramdas Pophale) SiO2 
 PCOD8274899
Probable space group: C M M M
;
_chemical_formula_sum "Si O2"
_cell_formula_units_Z 88
_cell_length_a 7.663650
_cell_length_b 27.684711
_cell_length_c 23.458947
_cell_angle_alpha 90.000000
_cell_angle_beta 90.000000
_cell_angle_gamma 90.000000
_cell_volume 4977.189435
_symmetry_space_group_name_H-M "C M M M"
_symmetry_group_IT_number 65
_symmetry_cell_setting 'orthorhombic'
loop_
_space_group_symop_operation_xyz
x,y,z
-x,-y,z
x,-y,-z
-x,y,-z
-x,-y,-z
x,y,-z
-x,y,z
x,-y,z
1/2+x,1/2+y,z
1/2-x,1/2-y,z
1/2+x,1/2-y,-z
1/2-x,1/2+y,-z
1/2-x,1/2-y,-z
1/2+x,1/2+y,-z
1/2-x,1/2+y,z
1/2+x,1/2-y,z
loop_
_atom_site_type_symbol
_atom_site_label
_atom_site_fract_x
_atom_site_fract_y
_atom_site_fract_z
Si Si1 0.293144 0.896297 0.763493
Si Si2 0.500000 0.557071 0.563221
Si Si3 0.792599 0.552928 0.875802
Si Si4 0.204205 0.696191 0.825870
Si Si5 0.707764 0.853210 0.062517
Si Si6 0.701497 0.056736 0.352194
O O1 0.500000 0.897849 0.761438
O O2 0.225130 0.931961 0.813025
O O3 0.225241 0.841900 0.778640
O O4 0.224531 0.914119 0.702447
O O5 0.500000 0.500000 0.558021
O O6 0.500000 0.580452 0.500000
O O7 0.676495 0.573462 0.595530
O O8 0.716352 0.500000 0.891290
O O9 0.729248 0.592493 0.921785
O O10 0.000000 0.551376 0.875230
O O11 0.250000 0.750000 0.806583
O O12 0.280487 0.683711 0.889078
O O13 0.000000 0.689027 0.829807
O O14 0.500000 0.851441 0.060956
O O15 0.783753 0.839467 0.000000
O O16 0.500000 0.069424 0.366732
O O17 0.721294 0.000000 0.339238
#
# Coordination Sequence:
#
# PCOD8274899 Si02
#       6
#    16   8  16  16  16  16
#     4   8  14  25  40  58  81 109 139 177 217 263
#     4   9  18  30  42  64 100 132 159 189 211 239
#     4   8  12  18  31  52  77 104 134 169 212 258
#     4   9  17  29  42  57  80 107 134 174 225 266
#     4   8  14  23  34  50  74 104 136 170 212 260
#     4   9  16  27  45  66  90 125 159 184 217 260
#
# _framework density 17.680661000000001
#
# number of rings (size 3 to 8) (size 9 to 14) (size 15 to 20)
#    0.000    3.545    0.000    2.727    0.000    3.273 
#    1.636    3.636    0.000    0.000    0.000    0.000 
#    0.000    0.727    0.364    4.727    0.000    5.455 
#
# Total GULP energy -545083.009264 kJ/mol
# GULP energy per Si atom -12388.250211 kJ/mol
# Density = 1.764042 g / cm^3
# Si number density = 17.680661 Si / 1000 Ang^3
#
#
#
# Elastic Constant Matrix: (Units=GPa)
#
#
# Indices 1 2 3 4 5 6 
#
# 1 40.2398 7.8319 32.3767 0.0000 0.0000 0.0000
# 2 7.8319 91.4987 33.1553 0.0000 0.0000 0.0000
# 3 32.3767 33.1553 134.0209 0.0000 0.0000 0.0000
# 4 0.0000 0.0000 0.0000 -13.0704 0.0000 0.0000
# 5 0.0000 0.0000 0.0000 0.0000 -1.1839 0.0000
# 6 0.0000 0.0000 0.0000 0.0000 0.0000 11.7121
#
#
#
# Elastic Compliance Matrix: (Units=1/GPa)
#
#
# Indices 1 2 3 4 5 6 
#
# 1 0.030847 0.000066 -0.007468 0.000000 0.000000 0.000000
# 2 0.000066 0.012005 -0.002986 0.000000 0.000000 0.000000
# 3 -0.007468 -0.002986 0.010004 0.000000 0.000000 0.000000
# 4 0.000000 0.000000 0.000000 -0.076508 0.000000 0.000000
# 5 0.000000 0.000000 0.000000 0.000000 -0.844701 0.000000
# 6 0.000000 0.000000 0.000000 0.000000 0.000000 0.085382
#
#
# Mechanical properties :
#
#
# Convention : Reuss Voigt Hill
#
# Bulk Modulus (GPa) = 31.17188 45.83191 38.50189
# Shear Modulus (GPa) = -6.65336 12.31793 2.83229
#
# Velocity S-wave (km/s) = -1.94197 2.64235 1.26704
# Velocity P-wave (km/s) = 3.55534 5.94034 4.89531
#
# Compressibility (1/GPa) = 0.03208020
#
# Stress axis : x y z
#
# Youngs Moduli (GPa) = 32.41787 83.29552 99.95605
#
# Poissons Ratio (x) = -0.00548 0.74650
# Poissons Ratio (y) = -0.00213 0.29846
# Poissons Ratio (z) = 0.24211 0.24871
#
# Static dielectric constant tensor:
#      x y z
#    x 2.945700 0.000000 0.000000 
#    y 0.000000 7.194060 0.000000 
#    z 0.000000 0.000000 3.472900 
# 
# 
# High freq. dielectric constant tensor:
#      x y z
#    x 1.658980 0.000000 0.000000 
#    y 0.000000 1.659260 0.000000 
#    z 0.000000 0.000000 1.662760 
# 
# From -- ./inp_files/60704.got.cif
#   From: 2010.03.12/outbox.cif.g09.slc.cpg/sg65_31_cif.got.tgz:60704.got - 2010.04.10 20:52:16.
