data_PCOD8274165
_publ_section_title
;
Structure prediction by ZEFSAII (Michael W. Deem and Ramdas Pophale) SiO2 
 PCOD8274165
Probable space group: C M M M
;
_chemical_formula_sum "Si O2"
_cell_formula_units_Z 80
_cell_length_a 25.356535
_cell_length_b 13.551485
_cell_length_c 13.717942
_cell_angle_alpha 90.000000
_cell_angle_beta 90.000000
_cell_angle_gamma 90.000000
_cell_volume 4713.741448
_symmetry_space_group_name_H-M "C M M M"
_symmetry_group_IT_number 65
_symmetry_cell_setting 'orthorhombic'
loop_
_space_group_symop_operation_xyz
x,y,z
-x,-y,z
x,-y,-z
-x,y,-z
-x,-y,-z
x,y,-z
-x,y,z
x,-y,z
1/2+x,1/2+y,z
1/2-x,1/2-y,z
1/2+x,1/2-y,-z
1/2-x,1/2+y,-z
1/2-x,1/2-y,-z
1/2+x,1/2+y,-z
1/2-x,1/2+y,z
1/2+x,1/2-y,z
loop_
_atom_site_type_symbol
_atom_site_label
_atom_site_fract_x
_atom_site_fract_y
_atom_site_fract_z
Si Si1 0.561936 0.113295 0.110979
Si Si2 0.663433 0.384323 0.388679
Si Si3 0.800254 0.110407 0.890480
Si Si4 0.863759 0.253119 0.234767
Si Si5 0.228572 0.609781 0.715613
O O1 0.500000 0.126750 0.124375
O O2 0.588729 0.182011 0.192732
O O3 0.578539 0.000000 0.130412
O O4 0.578160 0.142355 0.000000
O O5 0.656307 0.351712 0.500000
O O6 0.652915 0.500000 0.374209
O O7 0.621211 0.325093 0.320790
O O8 0.722847 0.357402 0.353379
O O9 0.842171 0.191244 0.856454
O O10 0.747119 0.116441 0.827685
O O11 0.824881 0.000000 0.880339
O O12 0.783331 0.134115 0.000000
O O13 0.821447 0.320396 0.291824
O O14 0.210518 0.500000 0.686887
#
# Coordination Sequence:
#
# PCOD8274165 Si02
#       5
#    16  16  16  16  16
#     4   9  19  35  52  71  96 124 154 191 236 282
#     4   9  18  32  48  68  98 131 158 189 232 280
#     4   9  17  27  38  58  92 125 148 179 227 280
#     4  11  18  27  48  70  88 118 162 200 230 270
#     4   9  18  28  39  63  95 123 154 190 227 271
#
# _framework density 16.971655999999999
#
# number of rings (size 3 to 8) (size 9 to 14) (size 15 to 20)
#    0.000    2.600    0.000    6.000    0.000    4.000 
#    0.000    2.000    0.000    4.800    0.000    9.800 
#    0.000    0.000    0.000    0.000    0.000    0.000 
#
# Total GULP energy -495648.478347 kJ/mol
# GULP energy per Si atom -12391.211959 kJ/mol
# Density = 1.693303 g / cm^3
# Si number density = 16.971656 Si / 1000 Ang^3
#
#
#
# Elastic Constant Matrix: (Units=GPa)
#
#
# Indices 1 2 3 4 5 6 
#
# 1 40.8029 36.0467 27.0623 0.0000 0.0000 0.0000
# 2 36.0467 80.1538 38.5530 0.0000 0.0000 0.0000
# 3 27.0623 38.5530 117.7563 0.0000 0.0000 0.0000
# 4 0.0000 0.0000 0.0000 28.2038 0.0000 0.0000
# 5 0.0000 0.0000 0.0000 0.0000 16.1543 0.0000
# 6 0.0000 0.0000 0.0000 0.0000 0.0000 23.7036
#
#
#
# Elastic Compliance Matrix: (Units=1/GPa)
#
#
# Indices 1 2 3 4 5 6 
#
# 1 0.042303 -0.017030 -0.004146 0.000000 0.000000 0.000000
# 2 -0.017030 0.021664 -0.003179 0.000000 0.000000 0.000000
# 3 -0.004146 -0.003179 0.010486 0.000000 0.000000 0.000000
# 4 0.000000 0.000000 0.000000 0.035456 0.000000 0.000000
# 5 0.000000 0.000000 0.000000 0.000000 0.061903 0.000000
# 6 0.000000 0.000000 0.000000 0.000000 0.000000 0.042188
#
#
# Mechanical properties :
#
#
# Convention : Reuss Voigt Hill
#
# Bulk Modulus (GPa) = 38.84703 49.11520 43.98112
# Shear Modulus (GPa) = 18.43038 22.74907 20.58973
#
# Velocity S-wave (km/s) = 3.29895 3.66514 3.48686
# Velocity P-wave (km/s) = 6.11963 6.84933 6.49474
#
# Compressibility (1/GPa) = 0.02574199
#
# Stress axis : x y z
#
# Youngs Moduli (GPa) = 23.63887 46.15993 95.36754
#
# Poissons Ratio (x) = 0.78611 0.39543
# Poissons Ratio (y) = 0.40258 0.30316
# Poissons Ratio (z) = 0.09801 0.14673
#
# Static dielectric constant tensor:
#      x y z
#    x 2.641370 0.000000 0.000000 
#    y 0.000000 3.546070 0.000000 
#    z 0.000000 0.000000 3.281920 
# 
# 
# High freq. dielectric constant tensor:
#      x y z
#    x 1.589470 0.000000 0.000000 
#    y 0.000000 1.679180 0.000000 
#    z 0.000000 0.000000 1.653010 
# 
# From -- ./inp_files/40497.got.cif
#   From: 2010.03.12/outbox.cif.g09.slc.cpg/sg65_21_cif.got.tgz:40497.got - 2010.04.10 20:52:16.
