data_PCOD8274430
_publ_section_title
;
Structure prediction by ZEFSAII (Michael W. Deem and Ramdas Pophale) SiO2 
 PCOD8274430
Probable space group: C M M M
;
_chemical_formula_sum "Si O2"
_cell_formula_units_Z 104
_cell_length_a 32.069264
_cell_length_b 19.880667
_cell_length_c 9.217898
_cell_angle_alpha 90.000000
_cell_angle_beta 90.000000
_cell_angle_gamma 90.000000
_cell_volume 5876.947918
_symmetry_space_group_name_H-M "C M M M"
_symmetry_group_IT_number 65
_symmetry_cell_setting 'orthorhombic'
loop_
_space_group_symop_operation_xyz
x,y,z
-x,-y,z
x,-y,-z
-x,y,-z
-x,-y,-z
x,y,-z
-x,y,z
x,-y,z
1/2+x,1/2+y,z
1/2-x,1/2-y,z
1/2+x,1/2-y,-z
1/2-x,1/2+y,-z
1/2-x,1/2-y,-z
1/2+x,1/2+y,-z
1/2-x,1/2+y,z
1/2+x,1/2-y,z
loop_
_atom_site_type_symbol
_atom_site_label
_atom_site_fract_x
_atom_site_fract_y
_atom_site_fract_z
Si Si1 0.815588 0.421681 0.834606
Si Si2 0.220426 0.925329 0.171343
Si Si3 0.343982 0.315210 0.831085
Si Si4 0.546556 0.200019 0.833145
Si Si5 0.000000 0.077679 0.345179
Si Si6 0.870233 0.681715 0.327215
Si Si7 0.064474 0.853098 0.160778
O O1 0.826222 0.500000 0.822200
O O2 0.767893 0.407955 0.788773
O O3 0.844563 0.383235 0.721346
O O4 0.823359 0.396955 0.000000
O O5 0.191682 0.864797 0.232720
O O6 0.208622 0.000000 0.233714
O O7 0.214513 0.928225 0.000000
O O8 0.346984 0.246739 0.739503
O O9 0.386418 0.356383 0.812081
O O10 0.336410 0.295888 0.000000
O O11 0.500000 0.172839 0.792139
O O12 0.582464 0.170315 0.729942
O O13 0.546044 0.279582 0.812301
O O14 0.557335 0.181579 0.000000
O O15 0.957416 0.095547 0.266219
O O16 0.000000 0.115197 0.500000
O O17 0.000000 0.000000 0.369784
O O18 0.871091 0.688026 0.500000
O O19 0.053615 0.877181 0.000000
#
# Coordination Sequence:
#
# PCOD8274430 Si02
#       7
#    16  16  16  16   8  16  16
#     4   9  18  35  58  79 101 133 173 215 259 309
#     4   8  15  30  54  80 100 127 175 227 268 304
#     4   9  18  33  53  76 103 132 168 218 266 306
#     4   9  17  33  56  77  98 125 163 210 255 300
#     4  11  23  33  41  59  91 131 170 207 250 301
#     4  11  22  33  49  78 112 141 171 206 251 309
#     4   9  17  31  49  69  91 121 162 208 256 298
#
# _framework density 17.696259000000001
#
# number of rings (size 3 to 8) (size 9 to 14) (size 15 to 20)
#    0.000    2.692    0.769    3.462    0.000    4.923 
#    0.000    5.385    0.000    1.846    0.000    3.231 
#    0.000    0.000    0.000    0.000    0.000    0.000 
#
# Total GULP energy -644517.404153 kJ/mol
# GULP energy per Si atom -12394.565464 kJ/mol
# Density = 1.765598 g / cm^3
# Si number density = 17.696259 Si / 1000 Ang^3
#
#
#
# Elastic Constant Matrix: (Units=GPa)
#
#
# Indices 1 2 3 4 5 6 
#
# 1 117.2726 56.8456 51.9771 0.0000 0.0000 0.0000
# 2 56.8456 65.8472 42.1426 0.0000 0.0000 0.0000
# 3 51.9771 42.1426 93.2325 0.0000 0.0000 0.0000
# 4 0.0000 0.0000 0.0000 11.4770 0.0000 0.0000
# 5 0.0000 0.0000 0.0000 0.0000 -1.9303 0.0000
# 6 0.0000 0.0000 0.0000 0.0000 0.0000 23.1031
#
#
#
# Elastic Compliance Matrix: (Units=1/GPa)
#
#
# Indices 1 2 3 4 5 6 
#
# 1 0.015497 -0.011044 -0.003648 0.000000 0.000000 0.000000
# 2 -0.011044 0.029239 -0.007059 0.000000 0.000000 0.000000
# 3 -0.003648 -0.007059 0.015950 0.000000 0.000000 0.000000
# 4 0.000000 0.000000 0.000000 0.087131 0.000000 0.000000
# 5 0.000000 0.000000 0.000000 0.000000 -0.518057 0.000000
# 6 0.000000 0.000000 0.000000 0.000000 0.000000 0.043284
#
#
# Mechanical properties :
#
#
# Convention : Reuss Voigt Hill
#
# Bulk Modulus (GPa) = 58.19243 64.25367 61.22305
# Shear Modulus (GPa) = -18.00350 14.88908 -1.55721
#
# Velocity S-wave (km/s) = -3.19307 2.90378 -0.93908
# Velocity P-wave (km/s) = 4.40013 6.90149 5.78756
#
# Compressibility (1/GPa) = 0.01718436
#
# Stress axis : x y z
#
# Youngs Moduli (GPa) = 64.52743 34.20069 62.69456
#
# Poissons Ratio (x) = 0.37772 0.22868
# Poissons Ratio (y) = 0.71266 0.44259
# Poissons Ratio (z) = 0.23537 0.24144
#
# Static dielectric constant tensor:
#      x y z
#    x 3.459440 0.000000 0.000000 
#    y 0.000000 3.126270 0.000000 
#    z 0.000000 0.000000 3.109020 
# 
# 
# High freq. dielectric constant tensor:
#      x y z
#    x 1.693170 0.000000 0.000000 
#    y 0.000000 1.663370 0.000000 
#    z 0.000000 0.000000 1.659980 
# 
# From -- ./inp_files/18633.got.cif
#   From: 2010.03.12/outbox.cif.g09.slc.cpg/sg65_10_cif.got.tgz:18633.got - 2010.04.10 20:52:16.
