data_PCOD8274908
_publ_section_title
;
Structure prediction by ZEFSAII (Michael W. Deem and Ramdas Pophale) SiO2 
 PCOD8274908
Probable space group: C M M M
;
_chemical_formula_sum "Si O2"
_cell_formula_units_Z 96
_cell_length_a 10.010400
_cell_length_b 29.968340
_cell_length_c 25.585666
_cell_angle_alpha 90.000000
_cell_angle_beta 90.000000
_cell_angle_gamma 90.000000
_cell_volume 7675.573681
_symmetry_space_group_name_H-M "C M M M"
_symmetry_group_IT_number 65
_symmetry_cell_setting 'orthorhombic'
loop_
_space_group_symop_operation_xyz
x,y,z
-x,-y,z
x,-y,-z
-x,y,-z
-x,-y,-z
x,y,-z
-x,y,z
x,-y,z
1/2+x,1/2+y,z
1/2-x,1/2-y,z
1/2+x,1/2-y,-z
1/2-x,1/2+y,-z
1/2-x,1/2-y,-z
1/2+x,1/2+y,-z
1/2-x,1/2+y,z
1/2+x,1/2-y,z
loop_
_atom_site_type_symbol
_atom_site_label
_atom_site_fract_x
_atom_site_fract_y
_atom_site_fract_z
Si Si1 0.850616 0.052978 0.760011
Si Si2 0.648755 0.213505 0.062070
Si Si3 0.350402 0.446915 0.356254
Si Si4 0.850415 0.553104 0.441854
Si Si5 0.844877 0.552195 0.150217
Si Si6 0.658405 0.885421 0.942307
O O1 0.811951 0.070203 0.701914
O O2 0.741548 0.070685 0.801188
O O3 0.000000 0.069690 0.775041
O O4 0.848986 0.000000 0.759816
O O5 0.500000 0.221731 0.085196
O O6 0.750000 0.250000 0.086221
O O7 0.702196 0.164017 0.076672
O O8 0.642417 0.217848 0.000000
O O9 0.500000 0.431209 0.370500
O O10 0.342319 0.500000 0.357590
O O11 0.249497 0.425973 0.398873
O O12 0.807681 0.569055 0.500000
O O13 0.846037 0.500000 0.439606
O O14 0.000000 0.569848 0.429122
O O15 0.821282 0.500000 0.140254
O O16 0.791963 0.577702 0.098791
O O17 0.000000 0.562487 0.162021
O O18 0.500000 0.886232 0.946488
O O19 0.718521 0.896257 0.000000
#
# Coordination Sequence:
#
# PCOD8274908 Si02
#       6
#    16  16  16  16  16  16
#     4   8  14  24  34  42  55  75  97 124 159 189
#     4   8  13  22  36  51  66  83 100 119 146 180
#     4   8  13  20  29  39  49  65  91 118 144 178
#     4   8  13  19  25  35  52  70  85 106 142 183
#     4   9  16  24  35  50  63  78 105 134 155 183
#     4   8  14  24  36  50  68  86 101 122 156 191
#
# _framework density 12.507209
#
# number of rings (size 3 to 8) (size 9 to 14) (size 15 to 20)
#    0.000    3.833    0.000    2.500    0.000    1.333 
#    0.000    7.500    0.000    1.500    0.000    2.333 
#    0.000    0.000    0.000    0.000    0.000    0.000 
#
# Total GULP energy -594688.223764 kJ/mol
# GULP energy per Si atom -12389.337995 kJ/mol
# Density = 1.247874 g / cm^3
# Si number density = 12.507209 Si / 1000 Ang^3
#
#
#
# Elastic Constant Matrix: (Units=GPa)
#
#
# Indices 1 2 3 4 5 6 
#
# 1 69.0738 23.9757 59.2887 0.0000 0.0000 0.0000
# 2 23.9757 30.4242 28.7314 0.0000 0.0000 0.0000
# 3 59.2887 28.7314 98.7873 0.0000 0.0000 0.0000
# 4 0.0000 0.0000 0.0000 0.5014 0.0000 0.0000
# 5 0.0000 0.0000 0.0000 0.0000 19.0717 0.0000
# 6 0.0000 0.0000 0.0000 0.0000 0.0000 9.3599
#
#
#
# Elastic Compliance Matrix: (Units=1/GPa)
#
#
# Indices 1 2 3 4 5 6 
#
# 1 0.031810 -0.009704 -0.016269 0.000000 0.000000 0.000000
# 2 -0.009704 0.048275 -0.008216 0.000000 0.000000 0.000000
# 3 -0.016269 -0.008216 0.022276 0.000000 0.000000 0.000000
# 4 0.000000 0.000000 0.000000 1.994359 0.000000 0.000000
# 5 0.000000 0.000000 0.000000 0.000000 0.052434 0.000000
# 6 0.000000 0.000000 0.000000 0.000000 0.000000 0.106839
#
#
# Mechanical properties :
#
#
# Convention : Reuss Voigt Hill
#
# Bulk Modulus (GPa) = 29.42661 46.91968 38.17314
# Shear Modulus (GPa) = 2.14069 11.53923 6.83996
#
# Velocity S-wave (km/s) = 1.30969 3.04074 2.34109
# Velocity P-wave (km/s) = 5.08585 7.06567 6.15587
#
# Compressibility (1/GPa) = 0.03398285
#
# Stress axis : x y z
#
# Youngs Moduli (GPa) = 31.43708 20.71467 44.89066
#
# Poissons Ratio (x) = 0.20101 0.73031
# Poissons Ratio (y) = 0.30506 0.36884
# Poissons Ratio (z) = 0.51144 0.17020
#
# Static dielectric constant tensor:
#      x y z
#    x 2.705280 0.000000 0.000000 
#    y 0.000000 2.217040 0.000000 
#    z 0.000000 0.000000 2.791670 
# 
# 
# High freq. dielectric constant tensor:
#      x y z
#    x 1.471610 0.000000 0.000000 
#    y 0.000000 1.411660 0.000000 
#    z 0.000000 0.000000 1.465980 
# 
# From -- ./inp_files/61623.got.cif
#   From: 2010.03.12/outbox.cif.g09.slc.cpg/sg65_31_cif.got.tgz:61623.got - 2010.04.10 20:52:16.
