data_PCOD8274593
_publ_section_title
;
Structure prediction by ZEFSAII (Michael W. Deem and Ramdas Pophale) SiO2 
 PCOD8274593
Probable space group: C M M M
;
_chemical_formula_sum "Si O2"
_cell_formula_units_Z 52
_cell_length_a 28.843582
_cell_length_b 11.701698
_cell_length_c 7.654746
_cell_angle_alpha 90.000000
_cell_angle_beta 90.000000
_cell_angle_gamma 90.000000
_cell_volume 2583.621341
_symmetry_space_group_name_H-M "C M M M"
_symmetry_group_IT_number 65
_symmetry_cell_setting 'orthorhombic'
loop_
_space_group_symop_operation_xyz
x,y,z
-x,-y,z
x,-y,-z
-x,y,-z
-x,-y,-z
x,y,-z
-x,y,z
x,-y,z
1/2+x,1/2+y,z
1/2-x,1/2-y,z
1/2+x,1/2-y,-z
1/2-x,1/2+y,-z
1/2-x,1/2-y,-z
1/2+x,1/2+y,-z
1/2-x,1/2+y,z
1/2+x,1/2-y,z
loop_
_atom_site_type_symbol
_atom_site_label
_atom_site_fract_x
_atom_site_fract_y
_atom_site_fract_z
Si Si1 0.654554 0.000000 0.000000
Si Si2 0.640697 0.368363 0.697995
Si Si3 0.551812 0.239452 0.798448
Si Si4 0.082535 0.500000 0.694919
Si Si5 0.304605 0.756310 0.000000
O O1 0.625199 0.000000 0.824682
O O2 0.686253 0.110121 0.000000
O O3 0.659341 0.355225 0.500000
O O4 0.639326 0.500000 0.756230
O O5 0.588380 0.320045 0.702005
O O6 0.674645 0.300724 0.826099
O O7 0.500000 0.290091 0.774513
O O8 0.551282 0.111715 0.722481
O O9 0.566757 0.233488 0.000000
O O10 0.103170 0.500000 0.500000
O O11 0.250000 0.750000 0.000000
#
# Coordination Sequence:
#
# PCOD8274593 Si02
#       5
#     4  16  16   8   8
#     4  12  24  44  65 104 124 164 211 268 324 384
#     4  11  24  44  68  95 131 174 217 265 319 379
#     4  11  22  38  62  94 132 174 219 264 313 375
#     4  12  21  37  63  90 132 176 212 261 322 374
#     4  12  27  46  73  96 129 164 211 271 332 388
#
# _framework density 20.126788000000001
#
# number of rings (size 3 to 8) (size 9 to 14) (size 15 to 20)
#    0.000    0.615    6.154    1.846    2.154    5.538 
#    0.000    3.077    0.000    0.000    0.000    0.000 
#    0.000    0.000    0.000    0.000    0.000    0.000 
#
# Total GULP energy -322479.241896 kJ/mol
# GULP energy per Si atom -12403.047765 kJ/mol
# Density = 2.008098 g / cm^3
# Si number density = 20.126788 Si / 1000 Ang^3
#
#
#
# Elastic Constant Matrix: (Units=GPa)
#
#
# Indices 1 2 3 4 5 6 
#
# 1 133.3708 56.0609 48.6958 0.0000 0.0000 0.0000
# 2 56.0609 149.9270 43.2971 0.0000 0.0000 0.0000
# 3 48.6958 43.2971 131.3775 0.0000 0.0000 0.0000
# 4 0.0000 0.0000 0.0000 16.2624 0.0000 0.0000
# 5 0.0000 0.0000 0.0000 0.0000 9.2317 0.0000
# 6 0.0000 0.0000 0.0000 0.0000 0.0000 -2.9461
#
#
#
# Elastic Compliance Matrix: (Units=1/GPa)
#
#
# Indices 1 2 3 4 5 6 
#
# 1 0.009660 -0.002849 -0.002642 0.000000 0.000000 0.000000
# 2 -0.002849 0.008212 -0.001650 0.000000 0.000000 0.000000
# 3 -0.002642 -0.001650 0.009135 0.000000 0.000000 0.000000
# 4 0.000000 0.000000 0.000000 0.061492 0.000000 0.000000
# 5 0.000000 0.000000 0.000000 0.000000 0.108322 0.000000
# 6 0.000000 0.000000 0.000000 0.000000 0.000000 -0.339431
#
#
# Mechanical properties :
#
#
# Convention : Reuss Voigt Hill
#
# Bulk Modulus (GPa) = 78.58877 78.97589 78.78233
# Shear Modulus (GPa) = -40.29412 22.28437 -9.00488
#
# Velocity S-wave (km/s) = -4.47924 3.33107 -2.11750
# Velocity P-wave (km/s) = 3.51854 7.35657 5.76625
#
# Compressibility (1/GPa) = 0.01272446
#
# Stress axis : x y z
#
# Youngs Moduli (GPa) = 103.51961 121.77496 109.47370
#
# Poissons Ratio (x) = 0.34697 0.28918
# Poissons Ratio (y) = 0.29495 0.18066
# Poissons Ratio (z) = 0.27345 0.20096
#
# Static dielectric constant tensor:
#      x y z
#    x 3.419190 0.000000 0.000000 
#    y 0.000000 4.088080 0.000000 
#    z 0.000000 0.000000 3.840980 
# 
# 
# High freq. dielectric constant tensor:
#      x y z
#    x 1.769800 0.000000 0.000000 
#    y 0.000000 1.794610 0.000000 
#    z 0.000000 0.000000 1.802980 
# 
# From -- ./inp_files/15359.got.cif
#   From: 2010.03.12/outbox.cif.g09.slc.cpg/sg65_8_cif.got.tgz:15359.got - 2010.04.10 20:52:16.
