data_PCOD8274027
_publ_section_title
;
Structure prediction by ZEFSAII (Michael W. Deem and Ramdas Pophale) SiO2 
 PCOD8274027
Probable space group: C M M M
;
_chemical_formula_sum "Si O2"
_cell_formula_units_Z 64
_cell_length_a 27.983480
_cell_length_b 14.283555
_cell_length_c 7.561765
_cell_angle_alpha 90.000000
_cell_angle_beta 90.000000
_cell_angle_gamma 90.000000
_cell_volume 3022.464509
_symmetry_space_group_name_H-M "C M M M"
_symmetry_group_IT_number 65
_symmetry_cell_setting 'orthorhombic'
loop_
_space_group_symop_operation_xyz
x,y,z
-x,-y,z
x,-y,-z
-x,y,-z
-x,-y,-z
x,y,-z
-x,y,z
x,-y,z
1/2+x,1/2+y,z
1/2-x,1/2-y,z
1/2+x,1/2-y,-z
1/2-x,1/2+y,-z
1/2-x,1/2-y,-z
1/2+x,1/2+y,-z
1/2-x,1/2+y,z
1/2+x,1/2-y,z
loop_
_atom_site_type_symbol
_atom_site_label
_atom_site_fract_x
_atom_site_fract_y
_atom_site_fract_z
Si Si1 0.375206 0.396647 0.709685
Si Si2 0.230389 0.111263 0.695686
Si Si3 0.944781 0.735748 0.703428
Si Si4 0.406737 0.110680 0.000000
Si Si5 0.797841 0.388189 0.000000
O O1 0.376693 0.403582 0.500000
O O2 0.386053 0.500000 0.789691
O O3 0.322430 0.361323 0.767146
O O4 0.414779 0.323842 0.777808
O O5 0.240127 0.152945 0.500000
O O6 0.270835 0.151907 0.826439
O O7 0.233024 0.000000 0.687056
O O8 0.931685 0.711672 0.500000
O O9 0.932803 0.646321 0.823157
O O10 0.000000 0.762649 0.721996
O O11 0.352137 0.146357 0.000000
O O12 0.410469 0.000000 0.000000
O O13 0.795199 0.500000 0.000000
#
# Coordination Sequence:
#
# PCOD8274027 Si02
#       5
#    16  16  16   8   8
#     4   8  15  31  57  88 121 154 182 212 261 328
#     4   8  14  27  49  78 113 148 178 211 256 318
#     4  10  22  40  61  85 113 145 184 232 283 334
#     4  11  25  43  60  79 107 143 189 247 296 331
#     4   9  18  32  52  77 102 138 186 228 275 328
#
# _framework density 21.174773999999999
#
# number of rings (size 3 to 8) (size 9 to 14) (size 15 to 20)
#    0.000    3.000    0.000    1.875    0.000    4.000 
#    0.000   10.625    0.000    6.000    0.000    0.000 
#    0.000    0.000    0.000    0.000    0.000    0.000 
#
# Total GULP energy -396711.569312 kJ/mol
# GULP energy per Si atom -12397.236541 kJ/mol
# Density = 2.112658 g / cm^3
# Si number density = 21.174774 Si / 1000 Ang^3
#
#
#
# Elastic Constant Matrix: (Units=GPa)
#
#
# Indices 1 2 3 4 5 6 
#
# 1 118.1534 33.7907 50.6269 0.0000 0.0000 0.0000
# 2 33.7907 69.9052 25.0622 0.0000 0.0000 0.0000
# 3 50.6269 25.0622 108.0105 0.0000 0.0000 0.0000
# 4 0.0000 0.0000 0.0000 15.3981 0.0000 0.0000
# 5 0.0000 0.0000 0.0000 0.0000 34.5444 0.0000
# 6 0.0000 0.0000 0.0000 0.0000 0.0000 34.8561
#
#
#
# Elastic Compliance Matrix: (Units=1/GPa)
#
#
# Indices 1 2 3 4 5 6 
#
# 1 0.011515 -0.003961 -0.004478 0.000000 0.000000 0.000000
# 2 -0.003961 0.016965 -0.002080 0.000000 0.000000 0.000000
# 3 -0.004478 -0.002080 0.011840 0.000000 0.000000 0.000000
# 4 0.000000 0.000000 0.000000 0.064943 0.000000 0.000000
# 5 0.000000 0.000000 0.000000 0.000000 0.028948 0.000000
# 6 0.000000 0.000000 0.000000 0.000000 0.000000 0.028689
#
#
# Mechanical properties :
#
#
# Convention : Reuss Voigt Hill
#
# Bulk Modulus (GPa) = 51.86088 57.22543 54.54315
# Shear Modulus (GPa) = 26.26501 29.39900 27.83201
#
# Velocity S-wave (km/s) = 3.52574 3.73016 3.62939
# Velocity P-wave (km/s) = 6.41244 6.75545 6.58618
#
# Compressibility (1/GPa) = 0.01928236
#
# Stress axis : x y z
#
# Youngs Moduli (GPa) = 86.84171 58.94374 84.45833
#
# Poissons Ratio (x) = 0.23345 0.37824
# Poissons Ratio (y) = 0.34395 0.17568
# Poissons Ratio (z) = 0.38891 0.12261
#
# Static dielectric constant tensor:
#      x y z
#    x 3.985650 0.000000 0.000000 
#    y 0.000000 3.700990 0.000000 
#    z 0.000000 0.000000 3.904840 
# 
# 
# High freq. dielectric constant tensor:
#      x y z
#    x 1.830530 0.000000 0.000000 
#    y 0.000000 1.812160 0.000000 
#    z 0.000000 0.000000 1.825220 
# 
# From -- ./inp_files/15661.got.cif
#   From: 2010.03.12/outbox.cif.g09.slc.cpg/sg65_8_cif.got.tgz:15661.got - 2010.04.10 20:52:16.
