data_PCOD8274944
_publ_section_title
;
Structure prediction by ZEFSAII (Michael W. Deem and Ramdas Pophale) SiO2 
 PCOD8274944
Probable space group: C M M M
;
_chemical_formula_sum "Si O2"
_cell_formula_units_Z 80
_cell_length_a 9.542306
_cell_length_b 28.878006
_cell_length_c 20.826492
_cell_angle_alpha 90.000000
_cell_angle_beta 90.000000
_cell_angle_gamma 90.000000
_cell_volume 5739.005823
_symmetry_space_group_name_H-M "C M M M"
_symmetry_group_IT_number 65
_symmetry_cell_setting 'orthorhombic'
loop_
_space_group_symop_operation_xyz
x,y,z
-x,-y,z
x,-y,-z
-x,y,-z
-x,-y,-z
x,y,-z
-x,y,z
x,-y,z
1/2+x,1/2+y,z
1/2-x,1/2-y,z
1/2+x,1/2-y,-z
1/2-x,1/2+y,-z
1/2-x,1/2-y,-z
1/2+x,1/2+y,-z
1/2-x,1/2+y,z
1/2+x,1/2-y,z
loop_
_atom_site_type_symbol
_atom_site_label
_atom_site_fract_x
_atom_site_fract_y
_atom_site_fract_z
Si Si1 0.841929 0.444707 0.500000
Si Si2 0.343525 0.444916 0.383481
Si Si3 0.161903 0.206183 0.074950
Si Si4 0.833183 0.051774 0.758084
Si Si5 0.333212 0.608162 0.121811
Si Si6 0.332752 0.552242 0.000000
O O1 0.841840 0.500000 0.500000
O O2 0.762492 0.425364 0.562991
O O3 0.000000 0.425354 0.500000
O O4 0.500000 0.425130 0.396489
O O5 0.350291 0.500000 0.386610
O O6 0.288089 0.430239 0.312702
O O7 0.250000 0.250000 0.099146
O O8 0.214943 0.161397 0.114454
O O9 0.000000 0.216861 0.088625
O O10 0.187331 0.196012 0.000000
O O11 0.773678 0.087004 0.811686
O O12 0.000000 0.049698 0.760951
O O13 0.773933 0.000000 0.771253
O O14 0.500000 0.605899 0.120318
O O15 0.273529 0.577933 0.062951
O O16 0.275617 0.500000 0.000000
O O17 0.500000 0.553019 0.000000
#
# Coordination Sequence:
#
# PCOD8274944 Si02
#       6
#     8  16  16  16  16   8
#     4   9  15  21  31  47  65  87 118 153 180 199
#     4   8  13  21  32  46  65  90 118 145 173 207
#     4   9  16  26  39  54  72  92 117 151 188 223
#     4   8  13  20  31  48  70  96 123 148 178 218
#     4   9  14  21  32  49  72  96 120 149 185 220
#     4   9  14  18  27  46  73  99 119 145 184 221
#
# _framework density 13.939696
#
# number of rings (size 3 to 8) (size 9 to 14) (size 15 to 20)
#    0.000    3.400    1.000    2.100    0.000    3.600 
#    0.000    0.000    0.000    1.200    0.000    0.000 
#    0.000    3.200    0.000    0.900    0.000    8.900 
#
# Total GULP energy -495709.876513 kJ/mol
# GULP energy per Si atom -12392.746913 kJ/mol
# Density = 1.390797 g / cm^3
# Si number density = 13.939696 Si / 1000 Ang^3
#
#
#
# Elastic Constant Matrix: (Units=GPa)
#
#
# Indices 1 2 3 4 5 6 
#
# 1 38.7452 25.9286 36.9554 0.0000 0.0000 0.0000
# 2 25.9286 85.2206 54.2681 0.0000 0.0000 0.0000
# 3 36.9554 54.2681 127.6229 0.0000 0.0000 0.0000
# 4 0.0000 0.0000 0.0000 6.7089 0.0000 0.0000
# 5 0.0000 0.0000 0.0000 0.0000 6.1562 0.0000
# 6 0.0000 0.0000 0.0000 0.0000 0.0000 11.3988
#
#
#
# Elastic Compliance Matrix: (Units=1/GPa)
#
#
# Indices 1 2 3 4 5 6 
#
# 1 0.037929 -0.006234 -0.008332 0.000000 0.000000 0.000000
# 2 -0.006234 0.017116 -0.005473 0.000000 0.000000 0.000000
# 3 -0.008332 -0.005473 0.012575 0.000000 0.000000 0.000000
# 4 0.000000 0.000000 0.000000 0.149057 0.000000 0.000000
# 5 0.000000 0.000000 0.000000 0.000000 0.162439 0.000000
# 6 0.000000 0.000000 0.000000 0.000000 0.000000 0.087729
#
#
# Mechanical properties :
#
#
# Convention : Reuss Voigt Hill
#
# Bulk Modulus (GPa) = 36.30798 53.98809 45.14804
# Shear Modulus (GPa) = 9.68797 13.81520 11.75159
#
# Velocity S-wave (km/s) = 2.63913 3.15154 2.90665
# Velocity P-wave (km/s) = 5.94892 7.21504 6.61235
#
# Compressibility (1/GPa) = 0.02754215
#
# Stress axis : x y z
#
# Youngs Moduli (GPa) = 26.36522 58.42433 79.51970
#
# Poissons Ratio (x) = 0.36422 0.66256
# Poissons Ratio (y) = 0.16436 0.43521
# Poissons Ratio (z) = 0.21968 0.31975
#
# Static dielectric constant tensor:
#      x y z
#    x 2.436180 0.000000 0.000000 
#    y 0.000000 2.575080 0.000000 
#    z 0.000000 0.000000 3.036420 
# 
# 
# High freq. dielectric constant tensor:
#      x y z
#    x 1.487790 0.000000 0.000000 
#    y 0.000000 1.490840 0.000000 
#    z 0.000000 0.000000 1.533010 
# 
# From -- ./inp_files/60573.got.cif
#   From: 2010.03.12/outbox.cif.g09.slc.cpg/sg65_31_cif.got.tgz:60573.got - 2010.04.10 20:52:16.
