data_PCOD8274795
_publ_section_title
;
Structure prediction by ZEFSAII (Michael W. Deem and Ramdas Pophale) SiO2 
 PCOD8274795
Probable space group: C M M M
;
_chemical_formula_sum "Si O2"
_cell_formula_units_Z 88
_cell_length_a 18.465250
_cell_length_b 8.863279
_cell_length_c 28.541796
_cell_angle_alpha 90.000000
_cell_angle_beta 90.000000
_cell_angle_gamma 90.000000
_cell_volume 4671.226327
_symmetry_space_group_name_H-M "C M M M"
_symmetry_group_IT_number 65
_symmetry_cell_setting 'orthorhombic'
loop_
_space_group_symop_operation_xyz
x,y,z
-x,-y,z
x,-y,-z
-x,y,-z
-x,-y,-z
x,y,-z
-x,y,z
x,-y,z
1/2+x,1/2+y,z
1/2-x,1/2-y,z
1/2+x,1/2-y,-z
1/2-x,1/2+y,-z
1/2-x,1/2-y,-z
1/2+x,1/2+y,-z
1/2-x,1/2+y,z
1/2+x,1/2-y,z
loop_
_atom_site_type_symbol
_atom_site_label
_atom_site_fract_x
_atom_site_fract_y
_atom_site_fract_z
Si Si1 0.918786 0.677997 0.137627
Si Si2 0.173033 0.322590 0.051814
Si Si3 0.329173 0.820438 0.584800
Si Si4 0.086037 0.166818 0.771059
Si Si5 0.914317 0.823340 0.500000
Si Si6 0.415970 0.321683 0.333147
O O1 0.917289 0.500000 0.136790
O O2 0.878357 0.744573 0.092190
O O3 0.882682 0.730802 0.186730
O O4 0.000000 0.741129 0.134412
O O5 0.181661 0.500000 0.057592
O O6 0.250000 0.250000 0.059290
O O7 0.141793 0.282933 0.000000
O O8 0.250000 0.750000 0.579094
O O9 0.381497 0.754913 0.545392
O O10 0.363733 0.775268 0.634249
O O11 0.323628 0.000000 0.580387
O O12 0.108307 0.225341 0.719521
O O13 0.000000 0.164024 0.772253
O O14 0.117543 0.000000 0.778995
O O15 0.000000 0.797639 0.500000
O O16 0.894827 0.000000 0.500000
O O17 0.500000 0.280289 0.342616
O O18 0.404385 0.500000 0.341449
#
# Coordination Sequence:
#
# PCOD8274795 Si02
#       6
#    16  16  16  16   8  16
#     4   9  17  29  47  72  99 126 161 207 254 299
#     4   9  18  32  48  66  91 125 163 202 248 303
#     4  12  25  40  59  84 116 149 183 224 269 315
#     4   8  15  29  50  75 103 135 168 205 252 305
#     4  11  24  43  66  89 115 147 182 221 266 317
#     4   9  18  35  58  82 109 142 180 219 262 314
#
# _framework density 18.838736999999998
#
# number of rings (size 3 to 8) (size 9 to 14) (size 15 to 20)
#    0.000    2.455    0.000    3.818    0.000    5.091 
#    0.000    4.545    0.000    2.182    0.000    5.091 
#    0.000    0.000    0.000    0.000    0.000    0.000 
#
# Total GULP energy -545400.338488 kJ/mol
# GULP energy per Si atom -12395.462238 kJ/mol
# Density = 1.879586 g / cm^3
# Si number density = 18.838737 Si / 1000 Ang^3
#
#
#
# Elastic Constant Matrix: (Units=GPa)
#
#
# Indices 1 2 3 4 5 6 
#
# 1 75.4010 43.7706 63.4156 0.0000 0.0000 0.0000
# 2 43.7706 78.0086 57.3411 0.0000 0.0000 0.0000
# 3 63.4156 57.3411 177.2039 0.0000 0.0000 0.0000
# 4 0.0000 0.0000 0.0000 31.9260 0.0000 0.0000
# 5 0.0000 0.0000 0.0000 0.0000 7.4452 0.0000
# 6 0.0000 0.0000 0.0000 0.0000 0.0000 25.2673
#
#
#
# Elastic Compliance Matrix: (Units=1/GPa)
#
#
# Indices 1 2 3 4 5 6 
#
# 1 0.022928 -0.008966 -0.005304 0.000000 0.000000 0.000000
# 2 -0.008966 0.020326 -0.003369 0.000000 0.000000 0.000000
# 3 -0.005304 -0.003369 0.008631 0.000000 0.000000 0.000000
# 4 0.000000 0.000000 0.000000 0.031322 0.000000 0.000000
# 5 0.000000 0.000000 0.000000 0.000000 0.134314 0.000000
# 6 0.000000 0.000000 0.000000 0.000000 0.000000 0.039577
#
#
# Mechanical properties :
#
#
# Convention : Reuss Voigt Hill
#
# Bulk Modulus (GPa) = 60.21117 73.29645 66.75381
# Shear Modulus (GPa) = 16.78344 24.00012 20.39178
#
# Velocity S-wave (km/s) = 2.98803 3.57315 3.29361
# Velocity P-wave (km/s) = 6.62836 7.48432 7.06931
#
# Compressibility (1/GPa) = 0.01660821
#
# Stress axis : x y z
#
# Youngs Moduli (GPa) = 43.61443 49.19758 115.85699
#
# Poissons Ratio (x) = 0.44112 0.61449
# Poissons Ratio (y) = 0.39106 0.39027
# Poissons Ratio (z) = 0.23133 0.16573
#
# Static dielectric constant tensor:
#      x y z
#    x 3.317520 0.000000 0.000000 
#    y 0.000000 3.466460 0.000000 
#    z 0.000000 0.000000 3.976700 
# 
# 
# High freq. dielectric constant tensor:
#      x y z
#    x 1.706690 0.000000 0.000000 
#    y 0.000000 1.723010 0.000000 
#    z 0.000000 0.000000 1.755670 
# 
# From -- ./inp_files/77789.got.cif
#   From: 2010.03.12/outbox.cif.g09.slc.cpg/sg65_39_cif.got.tgz:77789.got - 2010.04.10 20:52:16.
