data_PCOD8274507
_publ_section_title
;
Structure prediction by ZEFSAII (Michael W. Deem and Ramdas Pophale) SiO2 
 PCOD8274507
Probable space group: C M M M
;
_chemical_formula_sum "Si O2"
_cell_formula_units_Z 88
_cell_length_a 8.386832
_cell_length_b 19.944718
_cell_length_c 29.031858
_cell_angle_alpha 90.000000
_cell_angle_beta 90.000000
_cell_angle_gamma 90.000000
_cell_volume 4856.245959
_symmetry_space_group_name_H-M "C M M M"
_symmetry_group_IT_number 65
_symmetry_cell_setting 'orthorhombic'
loop_
_space_group_symop_operation_xyz
x,y,z
-x,-y,z
x,-y,-z
-x,y,-z
-x,-y,-z
x,y,-z
-x,y,z
x,-y,z
1/2+x,1/2+y,z
1/2-x,1/2-y,z
1/2+x,1/2-y,-z
1/2-x,1/2+y,-z
1/2-x,1/2-y,-z
1/2+x,1/2+y,-z
1/2-x,1/2+y,z
1/2+x,1/2-y,z
loop_
_atom_site_type_symbol
_atom_site_label
_atom_site_fract_x
_atom_site_fract_y
_atom_site_fract_z
Si Si1 0.316735 0.178587 0.221717
Si Si2 0.317026 0.423868 0.707706
Si Si3 0.500000 0.920377 0.447268
Si Si4 0.821490 0.079454 0.397561
Si Si5 0.316874 0.678719 0.876162
Si Si6 0.684879 0.923138 0.947312
O O1 0.500000 0.189471 0.214651
O O2 0.250000 0.250000 0.238096
O O3 0.287172 0.122960 0.260080
O O4 0.251078 0.154234 0.172629
O O5 0.500000 0.418802 0.723097
O O6 0.255070 0.500000 0.712906
O O7 0.296438 0.399378 0.655286
O O8 0.500000 0.897412 0.500000
O O9 0.333457 0.891794 0.425222
O O10 0.500000 0.000000 0.441801
O O11 0.000000 0.105418 0.414236
O O12 0.824485 0.000000 0.402336
O O13 0.500000 0.689572 0.868286
O O14 0.250000 0.750000 0.892754
O O15 0.288655 0.623296 0.914737
O O16 0.500000 0.909202 0.937804
O O17 0.727259 0.000000 0.936372
O O18 0.727818 0.906278 0.000000
#
# Coordination Sequence:
#
# PCOD8274507 Si02
#       6
#    16  16   8  16  16  16
#     4  11  22  36  54  75 103 137 170 213 261 308
#     4   9  18  33  52  74 101 135 173 213 258 308
#     4   9  16  24  38  62  94 132 172 212 254 310
#     4   8  15  27  42  62  93 131 167 210 259 305
#     4  11  22  37  56  76 103 136 171 210 255 307
#     4   9  19  37  59  81 106 135 168 210 256 301
#
# _framework density 18.120994
#
# number of rings (size 3 to 8) (size 9 to 14) (size 15 to 20)
#    0.000    2.455    0.000    6.000    1.273    2.545 
#    0.000    2.727    0.000    0.000    0.000    0.000 
#    0.000    0.727    0.364    0.000    0.000    0.000 
#
# Total GULP energy -545387.361564 kJ/mol
# GULP energy per Si atom -12395.167308 kJ/mol
# Density = 1.807975 g / cm^3
# Si number density = 18.120994 Si / 1000 Ang^3
#
#
#
# Elastic Constant Matrix: (Units=GPa)
#
#
# Indices 1 2 3 4 5 6 
#
# 1 149.9825 37.2200 62.0118 0.0000 0.0000 0.0000
# 2 37.2200 57.3971 47.0692 0.0000 0.0000 0.0000
# 3 62.0118 47.0692 100.2284 0.0000 0.0000 0.0000
# 4 0.0000 0.0000 0.0000 -11.3124 0.0000 0.0000
# 5 0.0000 0.0000 0.0000 0.0000 30.1865 0.0000
# 6 0.0000 0.0000 0.0000 0.0000 0.0000 20.9948
#
#
#
# Elastic Compliance Matrix: (Units=1/GPa)
#
#
# Indices 1 2 3 4 5 6 
#
# 1 0.009111 -0.002091 -0.004655 0.000000 0.000000 0.000000
# 2 -0.002091 0.028814 -0.012238 0.000000 0.000000 0.000000
# 3 -0.004655 -0.012238 0.018605 0.000000 0.000000 0.000000
# 4 0.000000 0.000000 0.000000 -0.088399 0.000000 0.000000
# 5 0.000000 0.000000 0.000000 0.000000 0.033127 0.000000
# 6 0.000000 0.000000 0.000000 0.000000 0.000000 0.047631
#
#
# Mechanical properties :
#
#
# Convention : Reuss Voigt Hill
#
# Bulk Modulus (GPa) = 53.87400 66.69001 60.28200
# Shear Modulus (GPa) = 53.73749 18.72760 36.23254
#
# Velocity S-wave (km/s) = 5.45153 3.21826 4.47640
# Velocity P-wave (km/s) = 8.33188 7.11984 7.74959
#
# Compressibility (1/GPa) = 0.01856183
#
# Stress axis : x y z
#
# Youngs Moduli (GPa) = 109.75737 34.70499 53.74965
#
# Poissons Ratio (x) = 0.07255 0.25022
# Poissons Ratio (y) = 0.22946 0.65780
# Poissons Ratio (z) = 0.51095 0.42473
#
# Static dielectric constant tensor:
#      x y z
#    x 3.629290 0.000000 0.000000 
#    y 0.000000 3.007920 0.000000 
#    z 0.000000 0.000000 3.321320 
# 
# 
# High freq. dielectric constant tensor:
#      x y z
#    x 1.718400 0.000000 0.000000 
#    y 0.000000 1.664320 0.000000 
#    z 0.000000 0.000000 1.699480 
# 
# From -- ./inp_files/76485.got.cif
#   From: 2010.03.12/outbox.cif.g09.slc.cpg/sg65_39_cif.got.tgz:76485.got - 2010.04.10 20:52:16.
