data_PCOD8274805
_publ_section_title
;
Structure prediction by ZEFSAII (Michael W. Deem and Ramdas Pophale) SiO2 
 PCOD8274805
Probable space group: C M M M
;
_chemical_formula_sum "Si O2"
_cell_formula_units_Z 56
_cell_length_a 14.161341
_cell_length_b 18.571187
_cell_length_c 10.316266
_cell_angle_alpha 90.000000
_cell_angle_beta 90.000000
_cell_angle_gamma 90.000000
_cell_volume 2713.104835
_symmetry_space_group_name_H-M "C M M M"
_symmetry_group_IT_number 65
_symmetry_cell_setting 'orthorhombic'
loop_
_space_group_symop_operation_xyz
x,y,z
-x,-y,z
x,-y,-z
-x,y,-z
-x,-y,-z
x,y,-z
-x,y,z
x,-y,z
1/2+x,1/2+y,z
1/2-x,1/2-y,z
1/2+x,1/2-y,-z
1/2-x,1/2+y,-z
1/2-x,1/2-y,-z
1/2+x,1/2+y,-z
1/2-x,1/2+y,z
1/2+x,1/2-y,z
loop_
_atom_site_type_symbol
_atom_site_label
_atom_site_fract_x
_atom_site_fract_y
_atom_site_fract_z
Si Si1 0.891549 0.085427 0.779836
Si Si2 0.888353 0.417751 0.646305
Si Si3 0.390791 0.416230 0.500000
Si Si4 0.275101 0.170254 0.856474
O O1 0.851377 0.112159 0.637443
O O2 0.822044 0.125382 0.876971
O O3 0.000000 0.109378 0.802735
O O4 0.884151 0.000000 0.796537
O O5 0.852113 0.399165 0.500000
O O6 0.859975 0.500000 0.679553
O O7 0.844686 0.365476 0.753186
O O8 0.000000 0.408128 0.651422
O O9 0.373922 0.500000 0.500000
O O10 0.500000 0.397819 0.500000
O O11 0.250000 0.250000 0.807796
O O12 0.322670 0.172452 0.000000
#
# Coordination Sequence:
#
# PCOD8274805 Si02
#       4
#    16  16   8  16
#     4   9  18  34  57  84 114 147 187 236 285 337
#     4   9  20  41  67  91 114 146 196 257 310 352
#     4   7  12  26  49  78 107 135 171 217 272 327
#     4  11  25  40  55  82 122 164 199 234 285 353
#
# _framework density 20.640559
#
# number of rings (size 3 to 8) (size 9 to 14) (size 15 to 20)
#    0.000    2.714    0.000    3.429    2.000    5.143 
#    0.000    5.714    0.000    0.000    0.000    0.000 
#    0.000    0.000    0.000    0.000    0.000    0.000 
#
# Total GULP energy -346865.888531 kJ/mol
# GULP energy per Si atom -12388.067448 kJ/mol
# Density = 2.059358 g / cm^3
# Si number density = 20.640559 Si / 1000 Ang^3
#
#
#
# Elastic Constant Matrix: (Units=GPa)
#
#
# Indices 1 2 3 4 5 6 
#
# 1 47.6639 35.3420 31.8051 0.0000 0.0000 0.0000
# 2 35.3420 99.3255 61.6317 0.0000 0.0000 0.0000
# 3 31.8051 61.6317 127.2071 0.0000 0.0000 0.0000
# 4 0.0000 0.0000 0.0000 32.4521 0.0000 0.0000
# 5 0.0000 0.0000 0.0000 0.0000 24.9715 0.0000
# 6 0.0000 0.0000 0.0000 0.0000 0.0000 8.4772
#
#
#
# Elastic Compliance Matrix: (Units=1/GPa)
#
#
# Indices 1 2 3 4 5 6 
#
# 1 0.029418 -0.008441 -0.003266 0.000000 0.000000 0.000000
# 2 -0.008441 0.016818 -0.006038 0.000000 0.000000 0.000000
# 3 -0.003266 -0.006038 0.011603 0.000000 0.000000 0.000000
# 4 0.000000 0.000000 0.000000 0.030815 0.000000 0.000000
# 5 0.000000 0.000000 0.000000 0.000000 0.040046 0.000000
# 6 0.000000 0.000000 0.000000 0.000000 0.000000 0.117963
#
#
# Mechanical properties :
#
#
# Convention : Reuss Voigt Hill
#
# Bulk Modulus (GPa) = 44.74270 59.08379 51.91324
# Shear Modulus (GPa) = 17.26511 22.87470 20.06991
#
# Velocity S-wave (km/s) = 2.89531 3.33264 3.12164
# Velocity P-wave (km/s) = 5.73596 6.59514 6.18050
#
# Compressibility (1/GPa) = 0.02235001
#
# Stress axis : x y z
#
# Youngs Moduli (GPa) = 33.99238 59.46042 86.18526
#
# Poissons Ratio (x) = 0.50193 0.28144
# Poissons Ratio (y) = 0.28694 0.52036
# Poissons Ratio (z) = 0.11100 0.35900
#
# Static dielectric constant tensor:
#      x y z
#    x 3.641540 0.000000 0.000000 
#    y 0.000000 3.448140 0.000000 
#    z 0.000000 0.000000 4.095010 
# 
# 
# High freq. dielectric constant tensor:
#      x y z
#    x 1.805690 0.000000 0.000000 
#    y 0.000000 1.774980 0.000000 
#    z 0.000000 0.000000 1.821320 
# 
# From -- ./inp_files/23503.got.cif
#   From: 2010.03.12/outbox.cif.g09.slc.cpg/sg65_12_cif.got.tgz:23503.got - 2010.04.10 20:52:16.
