data_PCOD8274284
_publ_section_title
;
Structure prediction by ZEFSAII (Michael W. Deem and Ramdas Pophale) SiO2 
 PCOD8274284
Probable space group: C M M M
;
_chemical_formula_sum "Si O2"
_cell_formula_units_Z 96
_cell_length_a 9.192431
_cell_length_b 25.603039
_cell_length_c 27.199447
_cell_angle_alpha 90.000000
_cell_angle_beta 90.000000
_cell_angle_gamma 90.000000
_cell_volume 6401.503257
_symmetry_space_group_name_H-M "C M M M"
_symmetry_group_IT_number 65
_symmetry_cell_setting 'orthorhombic'
loop_
_space_group_symop_operation_xyz
x,y,z
-x,-y,z
x,-y,-z
-x,y,-z
-x,-y,-z
x,y,-z
-x,y,z
x,-y,z
1/2+x,1/2+y,z
1/2-x,1/2-y,z
1/2+x,1/2-y,-z
1/2-x,1/2+y,-z
1/2-x,1/2-y,-z
1/2+x,1/2+y,-z
1/2-x,1/2+y,z
1/2+x,1/2-y,z
loop_
_atom_site_type_symbol
_atom_site_label
_atom_site_fract_x
_atom_site_fract_y
_atom_site_fract_z
Si Si1 0.828030 0.906157 0.110778
Si Si2 0.835976 0.437746 0.500000
Si Si3 0.330574 0.698896 0.055997
Si Si4 0.838506 0.562035 0.686834
Si Si5 0.669071 0.061096 0.796538
Si Si6 0.836761 0.937670 0.405510
Si Si7 0.668389 0.000000 0.058120
O O1 0.786154 0.850116 0.089033
O O2 0.771242 0.906794 0.166675
O O3 0.000000 0.916886 0.108920
O O4 0.746143 0.949035 0.078728
O O5 0.835451 0.500000 0.500000
O O6 0.754861 0.416306 0.548352
O O7 0.000000 0.416129 0.500000
O O8 0.500000 0.710405 0.059289
O O9 0.250000 0.750000 0.076646
O O10 0.282530 0.687082 0.000000
O O11 0.845062 0.500000 0.683855
O O12 0.784925 0.578063 0.741317
O O13 0.731291 0.584434 0.645161
O O14 0.000000 0.584433 0.676971
O O15 0.500000 0.074155 0.805657
O O16 0.697688 0.000000 0.805395
O O17 0.000000 0.916069 0.409972
O O18 0.835775 0.000000 0.405327
O O19 0.500000 0.000000 0.074911
O O20 0.683913 0.000000 0.000000
#
# Coordination Sequence:
#
# PCOD8274284 Si02
#       7
#    16   8  16  16  16  16   8
#     4  11  21  32  48  69  91 113 137 172 213 251
#     4   9  15  21  29  39  55  81 113 151 196 245
#     4   9  19  35  52  69  88 110 138 171 208 250
#     4   8  14  24  36  48  65  93 125 157 193 234
#     4   9  17  29  43  59  82 110 139 169 200 244
#     4   9  15  21  29  43  61  82 112 155 200 240
#     4  11  23  35  47  65  89 117 145 168 199 250
#
# _framework density 14.996477000000001
#
# number of rings (size 3 to 8) (size 9 to 14) (size 15 to 20)
#    0.000    2.667    0.833    3.000    0.000    6.333 
#    0.000    3.333    0.000    0.000    0.000    0.000 
#    0.000    0.000    0.000    0.000    0.000    0.000 
#
# Total GULP energy -595094.013609 kJ/mol
# GULP energy per Si atom -12397.791950 kJ/mol
# Density = 1.496234 g / cm^3
# Si number density = 14.996477 Si / 1000 Ang^3
#
#
#
# Elastic Constant Matrix: (Units=GPa)
#
#
# Indices 1 2 3 4 5 6 
#
# 1 106.2301 40.2868 71.7409 0.0000 0.0000 0.0000
# 2 40.2868 58.4084 41.0492 0.0000 0.0000 0.0000
# 3 71.7409 41.0492 130.0418 0.0000 0.0000 0.0000
# 4 0.0000 0.0000 0.0000 7.4454 0.0000 0.0000
# 5 0.0000 0.0000 0.0000 0.0000 29.2992 0.0000
# 6 0.0000 0.0000 0.0000 0.0000 0.0000 16.0127
#
#
#
# Elastic Compliance Matrix: (Units=1/GPa)
#
#
# Indices 1 2 3 4 5 6 
#
# 1 0.016721 -0.006490 -0.007176 0.000000 0.000000 0.000000
# 2 -0.006490 0.024521 -0.004160 0.000000 0.000000 0.000000
# 3 -0.007176 -0.004160 0.012962 0.000000 0.000000 0.000000
# 4 0.000000 0.000000 0.000000 0.134311 0.000000 0.000000
# 5 0.000000 0.000000 0.000000 0.000000 0.034131 0.000000
# 6 0.000000 0.000000 0.000000 0.000000 0.000000 0.062450
#
#
# Mechanical properties :
#
#
# Convention : Reuss Voigt Hill
#
# Bulk Modulus (GPa) = 53.90283 66.75935 60.33109
# Shear Modulus (GPa) = 15.29374 19.99169 17.64272
#
# Velocity S-wave (km/s) = 3.19693 3.65511 3.43367
# Velocity P-wave (km/s) = 7.04619 7.90104 7.48583
#
# Compressibility (1/GPa) = 0.01855190
#
# Stress axis : x y z
#
# Youngs Moduli (GPa) = 59.80528 40.78169 77.15014
#
# Poissons Ratio (x) = 0.26467 0.55362
# Poissons Ratio (y) = 0.38813 0.32094
# Poissons Ratio (z) = 0.42916 0.16965
#
# Static dielectric constant tensor:
#      x y z
#    x 3.047810 0.000000 0.000000 
#    y 0.000000 2.388470 0.000000 
#    z 0.000000 0.000000 3.129670 
# 
# 
# High freq. dielectric constant tensor:
#      x y z
#    x 1.586270 0.000000 0.000000 
#    y 0.000000 1.498890 0.000000 
#    z 0.000000 0.000000 1.586970 
# 
# From -- ./inp_files/73522.got.cif
#   From: 2010.03.12/outbox.cif.g09.slc.cpg/sg65_37_cif.got.tgz:73522.got - 2010.04.10 20:52:16.
