data_PCOD8274106
_publ_section_title
;
Structure prediction by ZEFSAII (Michael W. Deem and Ramdas Pophale) SiO2 
 PCOD8274106
Probable space group: C M M M
;
_chemical_formula_sum "Si O2"
_cell_formula_units_Z 72
_cell_length_a 24.753870
_cell_length_b 10.556002
_cell_length_c 16.824179
_cell_angle_alpha 90.000000
_cell_angle_beta 90.000000
_cell_angle_gamma 90.000000
_cell_volume 4396.189959
_symmetry_space_group_name_H-M "C M M M"
_symmetry_group_IT_number 65
_symmetry_cell_setting 'orthorhombic'
loop_
_space_group_symop_operation_xyz
x,y,z
-x,-y,z
x,-y,-z
-x,y,-z
-x,-y,-z
x,y,-z
-x,y,z
x,-y,z
1/2+x,1/2+y,z
1/2-x,1/2-y,z
1/2+x,1/2-y,-z
1/2-x,1/2+y,-z
1/2-x,1/2-y,-z
1/2+x,1/2+y,-z
1/2-x,1/2+y,z
1/2+x,1/2-y,z
loop_
_atom_site_type_symbol
_atom_site_label
_atom_site_fract_x
_atom_site_fract_y
_atom_site_fract_z
Si Si1 0.937818 0.000000 0.093299
Si Si2 0.899421 0.750265 0.831301
Si Si3 0.795223 0.354436 0.908476
Si Si4 0.000000 0.642324 0.913987
Si Si5 0.563740 0.649286 0.328293
Si Si6 0.062854 0.147070 0.500000
O O1 0.903398 0.117523 0.123254
O O2 0.000000 0.000000 0.127320
O O3 0.939335 0.000000 0.000000
O O4 0.844748 0.676658 0.850807
O O5 0.902976 0.771784 0.736659
O O6 0.948384 0.665985 0.860721
O O7 0.775450 0.500000 0.892456
O O8 0.750000 0.250000 0.888675
O O9 0.813807 0.340946 0.000000
O O10 0.000000 0.500000 0.940041
O O11 0.000000 0.718945 0.000000
O O12 0.500000 0.674529 0.318095
O O13 0.575228 0.500000 0.317651
O O14 0.585091 0.699639 0.415329
O O15 0.000000 0.173667 0.500000
O O16 0.074965 0.000000 0.500000
#
# Coordination Sequence:
#
# PCOD8274106 Si02
#       6
#     8  16  16   8  16   8
#     4  11  20  28  42  71 105 137 167 197 247 299
#     4  12  20  31  49  73 102 132 167 212 252 299
#     4  10  23  41  57  73  96 132 178 221 261 305
#     4  11  22  33  45  64  95 135 170 203 250 304
#     4   9  15  26  42  71 104 135 168 204 244 300
#     4   7  12  22  40  62  99 138 165 198 244 290
#
# _framework density 16.377818000000001
#
# number of rings (size 3 to 8) (size 9 to 14) (size 15 to 20)
#    0.000    1.889    3.333    4.000    1.556    1.778 
#    0.000    0.000    0.000    0.000    0.000    4.667 
#    0.000    0.000    0.000    0.000    0.000    0.000 
#
# Total GULP energy -446022.543582 kJ/mol
# GULP energy per Si atom -12389.515099 kJ/mol
# Density = 1.634054 g / cm^3
# Si number density = 16.377818 Si / 1000 Ang^3
#
#
#
# Elastic Constant Matrix: (Units=GPa)
#
#
# Indices 1 2 3 4 5 6 
#
# 1 75.5806 34.8065 44.8944 0.0000 0.0000 0.0000
# 2 34.8065 83.5721 35.3500 0.0000 0.0000 0.0000
# 3 44.8944 35.3500 146.2997 0.0000 0.0000 0.0000
# 4 0.0000 0.0000 0.0000 20.8430 0.0000 0.0000
# 5 0.0000 0.0000 0.0000 0.0000 17.0255 0.0000
# 6 0.0000 0.0000 0.0000 0.0000 0.0000 25.6635
#
#
#
# Elastic Compliance Matrix: (Units=1/GPa)
#
#
# Indices 1 2 3 4 5 6 
#
# 1 0.018466 -0.005897 -0.004242 0.000000 0.000000 0.000000
# 2 -0.005897 0.015211 -0.001866 0.000000 0.000000 0.000000
# 3 -0.004242 -0.001866 0.008588 0.000000 0.000000 0.000000
# 4 0.000000 0.000000 0.000000 0.047978 0.000000 0.000000
# 5 0.000000 0.000000 0.000000 0.000000 0.058735 0.000000
# 6 0.000000 0.000000 0.000000 0.000000 0.000000 0.038966
#
#
# Mechanical properties :
#
#
# Convention : Reuss Voigt Hill
#
# Bulk Modulus (GPa) = 54.77634 59.50604 57.14119
# Shear Modulus (GPa) = 22.93183 25.39984 24.16584
#
# Velocity S-wave (km/s) = 3.74595 3.94238 3.84542
# Velocity P-wave (km/s) = 7.22687 7.55879 7.39469
#
# Compressibility (1/GPa) = 0.01825606
#
# Stress axis : x y z
#
# Youngs Moduli (GPa) = 54.15354 65.74282 116.44421
#
# Poissons Ratio (x) = 0.38766 0.49394
# Poissons Ratio (y) = 0.31932 0.21727
# Poissons Ratio (z) = 0.22971 0.12267
#
# Static dielectric constant tensor:
#      x y z
#    x 2.754780 0.000000 0.000000 
#    y 0.000000 3.020650 0.000000 
#    z 0.000000 0.000000 3.429480 
# 
# 
# High freq. dielectric constant tensor:
#      x y z
#    x 1.587480 0.000000 0.000000 
#    y 0.000000 1.619190 0.000000 
#    z 0.000000 0.000000 1.634240 
# 
# From -- ./inp_files/56581.got.cif
#   From: 2010.03.12/outbox.cif.g09.slc.cpg/sg65_29_cif.got.tgz:56581.got - 2010.04.10 20:52:16.
