data_PCOD8274387
_publ_section_title
;
Structure prediction by ZEFSAII (Michael W. Deem and Ramdas Pophale) SiO2 
 PCOD8274387
Probable space group: C M M M
;
_chemical_formula_sum "Si O2"
_cell_formula_units_Z 72
_cell_length_a 23.505380
_cell_length_b 17.671687
_cell_length_c 8.872095
_cell_angle_alpha 90.000000
_cell_angle_beta 90.000000
_cell_angle_gamma 90.000000
_cell_volume 3685.288321
_symmetry_space_group_name_H-M "C M M M"
_symmetry_group_IT_number 65
_symmetry_cell_setting 'orthorhombic'
loop_
_space_group_symop_operation_xyz
x,y,z
-x,-y,z
x,-y,-z
-x,y,-z
-x,-y,-z
x,y,-z
-x,y,z
x,-y,z
1/2+x,1/2+y,z
1/2-x,1/2-y,z
1/2+x,1/2-y,-z
1/2-x,1/2+y,-z
1/2-x,1/2-y,-z
1/2+x,1/2+y,-z
1/2-x,1/2+y,z
1/2+x,1/2-y,z
loop_
_atom_site_type_symbol
_atom_site_label
_atom_site_fract_x
_atom_site_fract_y
_atom_site_fract_z
Si Si1 0.242617 0.083491 0.678260
Si Si2 0.368222 0.911144 0.325546
Si Si3 0.067245 0.000000 0.172820
Si Si4 0.565634 0.784023 0.176163
Si Si5 0.624814 0.356644 0.678255
O O1 0.245233 0.075951 0.500000
O O2 0.304673 0.112700 0.730984
O O3 0.191344 0.138551 0.727798
O O4 0.230297 0.000000 0.746308
O O5 0.377185 0.889382 0.500000
O O6 0.413733 0.867080 0.224572
O O7 0.377865 0.000000 0.300465
O O8 0.089859 0.074992 0.251496
O O9 0.000000 0.000000 0.187359
O O10 0.086954 0.000000 0.000000
O O11 0.500000 0.774903 0.220382
O O12 0.601971 0.722889 0.265765
O O13 0.575060 0.771996 0.000000
O O14 0.618305 0.362118 0.500000
#
# Coordination Sequence:
#
# PCOD8274387 Si02
#       5
#    16  16   8  16  16
#     4   8  15  32  58  88 118 144 179 231 289 338
#     4   9  19  38  65  90 112 143 186 236 288 347
#     4  11  23  37  53  79 119 161 196 233 284 337
#     4  11  25  42  56  77 117 159 192 236 293 344
#     4  11  21  36  61  87 113 150 197 241 279 333
#
# _framework density 19.537140999999998
#
# number of rings (size 3 to 8) (size 9 to 14) (size 15 to 20)
#    0.000    2.111    1.111    3.667    0.000    7.111 
#    0.000    8.889    0.000    0.000    0.000    0.000 
#    0.000    0.000    0.000    0.000    0.000    0.000 
#
# Total GULP energy -446357.055710 kJ/mol
# GULP energy per Si atom -12398.807103 kJ/mol
# Density = 1.949267 g / cm^3
# Si number density = 19.537141 Si / 1000 Ang^3
#
#
#
# Elastic Constant Matrix: (Units=GPa)
#
#
# Indices 1 2 3 4 5 6 
#
# 1 70.0325 36.1383 35.0900 0.0000 0.0000 0.0000
# 2 36.1383 84.3692 29.7648 0.0000 0.0000 0.0000
# 3 35.0900 29.7648 65.6614 0.0000 0.0000 0.0000
# 4 0.0000 0.0000 0.0000 10.8670 0.0000 0.0000
# 5 0.0000 0.0000 0.0000 0.0000 -11.1308 0.0000
# 6 0.0000 0.0000 0.0000 0.0000 0.0000 22.0827
#
#
#
# Elastic Compliance Matrix: (Units=1/GPa)
#
#
# Indices 1 2 3 4 5 6 
#
# 1 0.021976 -0.006273 -0.008900 0.000000 0.000000 0.000000
# 2 -0.006273 0.015900 -0.003855 0.000000 0.000000 0.000000
# 3 -0.008900 -0.003855 0.021734 0.000000 0.000000 0.000000
# 4 0.000000 0.000000 0.000000 0.092022 0.000000 0.000000
# 5 0.000000 0.000000 0.000000 0.000000 -0.089841 0.000000
# 6 0.000000 0.000000 0.000000 0.000000 0.000000 0.045284
#
#
# Mechanical properties :
#
#
# Convention : Reuss Voigt Hill
#
# Bulk Modulus (GPa) = 46.39937 46.89438 46.64688
# Shear Modulus (GPa) = 32.82664 12.30178 22.56421
#
# Velocity S-wave (km/s) = 4.10349 2.51203 3.40213
# Velocity P-wave (km/s) = 6.80091 5.69811 6.27379
#
# Compressibility (1/GPa) = 0.02155202
#
# Stress axis : x y z
#
# Youngs Moduli (GPa) = 45.50490 62.89450 46.01156
#
# Poissons Ratio (x) = 0.39453 0.40952
# Poissons Ratio (y) = 0.28545 0.17738
# Poissons Ratio (z) = 0.40501 0.24246
#
# Static dielectric constant tensor:
#      x y z
#    x 3.892630 0.000000 0.000000 
#    y 0.000000 2.272350 0.000000 
#    z 0.000000 0.000000 3.391070 
# 
# 
# High freq. dielectric constant tensor:
#      x y z
#    x 1.775600 0.000000 0.000000 
#    y 0.000000 1.759250 0.000000 
#    z 0.000000 0.000000 1.741660 
# 
# From -- ./inp_files/13582.got.cif
#   From: 2010.03.12/outbox.cif.g09.slc.cpg/sg65_7_cif.got.tgz:13582.got - 2010.04.10 20:52:16.
