data_PCOD8274662
_publ_section_title
;
Structure prediction by ZEFSAII (Michael W. Deem and Ramdas Pophale) SiO2 
 PCOD8274662
Probable space group: C M M M
;
_chemical_formula_sum "Si O2"
_cell_formula_units_Z 120
_cell_length_a 26.967446
_cell_length_b 27.821756
_cell_length_c 9.091863
_cell_angle_alpha 90.000000
_cell_angle_beta 90.000000
_cell_angle_gamma 90.000000
_cell_volume 6821.458451
_symmetry_space_group_name_H-M "C M M M"
_symmetry_group_IT_number 65
_symmetry_cell_setting 'orthorhombic'
loop_
_space_group_symop_operation_xyz
x,y,z
-x,-y,z
x,-y,-z
-x,y,-z
-x,-y,-z
x,y,-z
-x,y,z
x,-y,z
1/2+x,1/2+y,z
1/2-x,1/2-y,z
1/2+x,1/2-y,-z
1/2-x,1/2+y,-z
1/2-x,1/2-y,-z
1/2+x,1/2+y,-z
1/2-x,1/2+y,z
1/2+x,1/2-y,z
loop_
_atom_site_type_symbol
_atom_site_label
_atom_site_fract_x
_atom_site_fract_y
_atom_site_fract_z
Si Si1 0.945115 0.803937 0.827785
Si Si2 0.099211 0.716422 0.670049
Si Si3 0.907875 0.606534 0.674354
Si Si4 0.000000 0.556619 0.172008
Si Si5 0.849146 0.856409 0.825776
Si Si6 0.707743 0.552655 0.825308
Si Si7 0.197733 0.770034 0.329562
Si Si8 0.319795 0.056149 0.831114
O O1 0.937047 0.752043 0.756088
O O2 0.905051 0.843493 0.771887
O O3 0.000000 0.822960 0.787089
O O4 0.938929 0.796134 0.000000
O O5 0.086501 0.722773 0.500000
O O6 0.089117 0.662236 0.721438
O O7 0.156328 0.729739 0.702740
O O8 0.913089 0.600207 0.500000
O O9 0.855166 0.586058 0.724730
O O10 0.951382 0.578345 0.754497
O O11 0.000000 0.500000 0.199538
O O12 0.000000 0.569068 0.000000
O O13 0.832141 0.908593 0.765341
O O14 0.811327 0.817547 0.763811
O O15 0.845376 0.855472 0.000000
O O16 0.693727 0.500000 0.760847
O O17 0.763594 0.566887 0.778545
O O18 0.706346 0.550053 0.000000
O O19 0.198694 0.784582 0.500000
O O20 0.250000 0.750000 0.275645
O O21 0.331984 0.000000 0.814864
O O22 0.328033 0.072247 0.000000
#
# Coordination Sequence:
#
# PCOD8274662 Si02
#       8
#    16  16  16   8  16  16  16  16
#     4   9  18  32  50  72  98 127 162 206 249 289
#     4   9  20  35  48  70  99 128 161 195 238 291
#     4  11  23  36  53  76 100 124 158 208 256 296
#     4  11  25  43  59  73  93 127 169 209 252 303
#     4   9  17  30  49  73  98 127 166 207 244 286
#     4   8  15  29  50  75 102 133 167 202 242 290
#     4   9  18  32  49  68  98 135 162 190 236 294
#     4   9  18  33  51  71  96 127 164 201 239 292
#
# _framework density 17.591546000000001
#
# number of rings (size 3 to 8) (size 9 to 14) (size 15 to 20)
#    0.000    2.733    0.000    1.800    2.800    4.000 
#    0.000    0.000    0.000    1.600    0.000    2.800 
#    0.000    0.000    0.000    6.667    0.000    6.933 
#
# Total GULP energy -743869.365941 kJ/mol
# GULP energy per Si atom -12397.822766 kJ/mol
# Density = 1.755151 g / cm^3
# Si number density = 17.591546 Si / 1000 Ang^3
#
#
#
# Elastic Constant Matrix: (Units=GPa)
#
#
# Indices 1 2 3 4 5 6 
#
# 1 129.7473 82.8628 35.2994 0.0000 0.0000 0.0000
# 2 82.8628 133.8520 40.8303 0.0000 0.0000 0.0000
# 3 35.2994 40.8303 37.6758 0.0000 0.0000 0.0000
# 4 0.0000 0.0000 0.0000 10.8110 0.0000 0.0000
# 5 0.0000 0.0000 0.0000 0.0000 14.1781 0.0000
# 6 0.0000 0.0000 0.0000 0.0000 0.0000 23.4782
#
#
#
# Elastic Compliance Matrix: (Units=1/GPa)
#
#
# Indices 1 2 3 4 5 6 
#
# 1 0.013429 -0.006685 -0.005337 0.000000 0.000000 0.000000
# 2 -0.006685 0.014489 -0.009438 0.000000 0.000000 0.000000
# 3 -0.005337 -0.009438 0.041771 0.000000 0.000000 0.000000
# 4 0.000000 0.000000 0.000000 0.092498 0.000000 0.000000
# 5 0.000000 0.000000 0.000000 0.000000 0.070531 0.000000
# 6 0.000000 0.000000 0.000000 0.000000 0.000000 0.042593
#
#
# Mechanical properties :
#
#
# Convention : Reuss Voigt Hill
#
# Bulk Modulus (GPa) = 37.35824 68.80668 53.08246
# Shear Modulus (GPa) = 15.28338 19.17897 17.23117
#
# Velocity S-wave (km/s) = 2.95072 3.30546 3.13311
# Velocity P-wave (km/s) = 5.73512 7.33256 6.58248
#
# Compressibility (1/GPa) = 0.02676786
#
# Stress axis : x y z
#
# Youngs Moduli (GPa) = 74.46688 69.01994 23.94033
#
# Poissons Ratio (x) = 0.46142 0.12776
# Poissons Ratio (y) = 0.49784 0.22595
# Poissons Ratio (z) = 0.39740 0.65141
#
# Static dielectric constant tensor:
#      x y z
#    x 3.459440 0.000000 0.000000 
#    y 0.000000 3.501790 0.000000 
#    z 0.000000 0.000000 3.109970 
# 
# 
# High freq. dielectric constant tensor:
#      x y z
#    x 1.683760 0.000000 0.000000 
#    y 0.000000 1.675520 0.000000 
#    z 0.000000 0.000000 1.664210 
# 
# From -- ./inp_files/17109.got.cif
#   From: 2010.03.12/outbox.cif.g09.slc.cpg/sg65_9_cif.got.tgz:17109.got - 2010.04.10 20:52:16.
