data_PCOD8274845
_publ_section_title
;
Structure prediction by ZEFSAII (Michael W. Deem and Ramdas Pophale) SiO2 
 PCOD8274845
Probable space group: C M M M
;
_chemical_formula_sum "Si O2"
_cell_formula_units_Z 64
_cell_length_a 18.146869
_cell_length_b 9.187116
_cell_length_c 20.687387
_cell_angle_alpha 90.000000
_cell_angle_beta 90.000000
_cell_angle_gamma 90.000000
_cell_volume 3448.947178
_symmetry_space_group_name_H-M "C M M M"
_symmetry_group_IT_number 65
_symmetry_cell_setting 'orthorhombic'
loop_
_space_group_symop_operation_xyz
x,y,z
-x,-y,z
x,-y,-z
-x,y,-z
-x,-y,-z
x,y,-z
-x,y,z
x,-y,z
1/2+x,1/2+y,z
1/2-x,1/2-y,z
1/2+x,1/2-y,-z
1/2-x,1/2+y,-z
1/2-x,1/2-y,-z
1/2+x,1/2+y,-z
1/2-x,1/2+y,z
1/2+x,1/2-y,z
loop_
_atom_site_type_symbol
_atom_site_label
_atom_site_fract_x
_atom_site_fract_y
_atom_site_fract_z
Si Si1 0.912030 0.663210 0.875864
Si Si2 0.086472 0.168314 0.390014
Si Si3 0.087862 0.164035 0.000000
Si Si4 0.328051 0.826771 0.500000
Si Si5 0.912442 0.838733 0.245250
O O1 0.881693 0.500000 0.882128
O O2 0.880787 0.729920 0.808946
O O3 0.000000 0.664928 0.875619
O O4 0.881754 0.755175 0.936376
O O5 0.128515 0.277651 0.436508
O O6 0.111548 0.209644 0.317159
O O7 0.000000 0.193176 0.399575
O O8 0.106272 0.000000 0.405341
O O9 0.000000 0.165123 0.000000
O O10 0.118275 0.000000 0.000000
O O11 0.250000 0.750000 0.500000
O O12 0.319073 0.000000 0.500000
O O13 0.000000 0.842489 0.242223
O O14 0.881863 0.000000 0.230235
#
# Coordination Sequence:
#
# PCOD8274845 Si02
#       5
#    16  16   8   8  16
#     4   9  15  21  30  47  73 104 140 184 228 267
#     4   9  18  34  55  76  99 127 159 197 241 289
#     4   9  15  21  29  41  63 101 146 185 222 271
#     4  12  25  38  53  73  99 129 161 198 241 290
#     4   8  14  25  41  60  82 111 146 182 223 273
#
# _framework density 18.556388999999999
#
# number of rings (size 3 to 8) (size 9 to 14) (size 15 to 20)
#    0.000    2.875    0.000    4.125    0.000    7.500 
#    0.000    2.500    0.000    0.000    0.000    0.000 
#    0.000    0.000    0.000    1.125    0.000   16.250 
#
# Total GULP energy -396671.958087 kJ/mol
# GULP energy per Si atom -12395.998690 kJ/mol
# Density = 1.851415 g / cm^3
# Si number density = 18.556389 Si / 1000 Ang^3
#
#
#
# Elastic Constant Matrix: (Units=GPa)
#
#
# Indices 1 2 3 4 5 6 
#
# 1 25.7337 30.0294 26.8891 0.0000 0.0000 0.0000
# 2 30.0294 172.6621 107.2795 0.0000 0.0000 0.0000
# 3 26.8891 107.2795 178.4803 0.0000 0.0000 0.0000
# 4 0.0000 0.0000 0.0000 35.7657 0.0000 0.0000
# 5 0.0000 0.0000 0.0000 0.0000 -2.2706 0.0000
# 6 0.0000 0.0000 0.0000 0.0000 0.0000 14.8910
#
#
#
# Elastic Compliance Matrix: (Units=1/GPa)
#
#
# Indices 1 2 3 4 5 6 
#
# 1 0.050238 -0.006440 -0.003698 0.000000 0.000000 0.000000
# 2 -0.006440 0.010069 -0.005082 0.000000 0.000000 0.000000
# 3 -0.003698 -0.005082 0.009215 0.000000 0.000000 0.000000
# 4 0.000000 0.000000 0.000000 0.027960 0.000000 0.000000
# 5 0.000000 0.000000 0.000000 0.000000 -0.440417 0.000000
# 6 0.000000 0.000000 0.000000 0.000000 0.000000 0.067155
#
#
# Mechanical properties :
#
#
# Convention : Reuss Voigt Hill
#
# Bulk Modulus (GPa) = 25.58684 78.36357 51.97521
# Shear Modulus (GPa) = -21.52276 23.85574 1.16649
#
# Velocity S-wave (km/s) = -3.40936 3.58939 0.79371
# Velocity P-wave (km/s) = 1.29604 7.71362 5.37681
#
# Compressibility (1/GPa) = 0.03908260
#
# Stress axis : x y z
#
# Youngs Moduli (GPa) = 19.90508 99.31062 108.52165
#
# Poissons Ratio (x) = 0.63955 0.40130
# Poissons Ratio (y) = 0.12819 0.55153
# Poissons Ratio (z) = 0.07361 0.50472
#
# Static dielectric constant tensor:
#      x y z
#    x 2.698070 0.000000 0.000000 
#    y 0.000000 3.570170 0.000000 
#    z 0.000000 0.000000 3.761300 
# 
# 
# High freq. dielectric constant tensor:
#      x y z
#    x 1.638780 0.000000 0.000000 
#    y 0.000000 1.724360 0.000000 
#    z 0.000000 0.000000 1.742180 
# 
# From -- ./inp_files/58799.got.cif
#   From: 2010.03.12/outbox.cif.g09.slc.cpg/sg65_30_cif.got.tgz:58799.got - 2010.04.10 20:52:16.
