data_PCOD8274802
_publ_section_title
;
Structure prediction by ZEFSAII (Michael W. Deem and Ramdas Pophale) SiO2 
 PCOD8274802
Probable space group: C M M M
;
_chemical_formula_sum "Si O2"
_cell_formula_units_Z 48
_cell_length_a 9.944036
_cell_length_b 9.649723
_cell_length_c 25.092007
_cell_angle_alpha 90.000000
_cell_angle_beta 90.000000
_cell_angle_gamma 90.000000
_cell_volume 2407.758556
_symmetry_space_group_name_H-M "C M M M"
_symmetry_group_IT_number 65
_symmetry_cell_setting 'orthorhombic'
loop_
_space_group_symop_operation_xyz
x,y,z
-x,-y,z
x,-y,-z
-x,y,-z
-x,-y,-z
x,y,-z
-x,y,z
x,-y,z
1/2+x,1/2+y,z
1/2-x,1/2-y,z
1/2+x,1/2-y,-z
1/2-x,1/2+y,-z
1/2-x,1/2-y,-z
1/2+x,1/2+y,-z
1/2-x,1/2+y,z
1/2+x,1/2-y,z
loop_
_atom_site_type_symbol
_atom_site_label
_atom_site_fract_x
_atom_site_fract_y
_atom_site_fract_z
Si Si1 0.000000 0.830563 0.694888
Si Si2 0.750000 0.750000 0.373320
Si Si3 0.343624 0.500000 0.058683
Si Si4 0.842623 0.000000 0.436904
Si Si5 0.250000 0.750000 0.870520
Si Si6 0.000000 0.660125 0.199100
O O1 0.124714 0.760916 0.665615
O O2 0.000000 0.774555 0.754584
O O3 0.000000 0.000000 0.694533
O O4 0.755284 0.875637 0.414201
O O5 0.500000 0.500000 0.049786
O O6 0.305191 0.366284 0.091324
O O7 0.273401 0.500000 0.000000
O O8 0.839223 0.000000 0.500000
O O9 0.000000 0.000000 0.417021
O O10 0.366737 0.814737 0.834715
O O11 0.000000 0.500000 0.219771
#
# Coordination Sequence:
#
# PCOD8274802 Si02
#       6
#     8   8   8   8   8   8
#     4  12  28  46  69  98 136 178 225 278 333 400
#     4  12  22  48  68 100 136 174 220 280 332 388
#     4  11  24  43  70 101 135 181 221 269 340 403
#     4  11  24  45  70 101 139 179 221 273 334 399
#     4  12  24  46  68 100 138 170 226 282 328 398
#     4  12  28  44  69 100 132 178 225 278 335 396
#
# _framework density 19.935552999999999
#
# number of rings (size 3 to 8) (size 9 to 14) (size 15 to 20)
#    0.000    0.333    6.667    2.000    4.667    2.667 
#    0.000    1.667    0.000    0.000    0.000    0.000 
#    0.000    0.000    0.000    0.000    0.000    0.000 
#
# Total GULP energy -297471.284895 kJ/mol
# GULP energy per Si atom -12394.636871 kJ/mol
# Density = 1.989018 g / cm^3
# Si number density = 19.935553 Si / 1000 Ang^3
#
#
#
# Elastic Constant Matrix: (Units=GPa)
#
#
# Indices 1 2 3 4 5 6 
#
# 1 124.8855 53.2128 52.6310 0.0000 0.0000 0.0000
# 2 53.2128 162.0044 65.0515 0.0000 0.0000 0.0000
# 3 52.6310 65.0515 137.5620 0.0000 0.0000 0.0000
# 4 0.0000 0.0000 0.0000 57.7033 0.0000 0.0000
# 5 0.0000 0.0000 0.0000 0.0000 31.3154 0.0000
# 6 0.0000 0.0000 0.0000 0.0000 0.0000 33.9295
#
#
#
# Elastic Compliance Matrix: (Units=1/GPa)
#
#
# Indices 1 2 3 4 5 6 
#
# 1 0.010138 -0.002188 -0.002844 0.000000 0.000000 0.000000
# 2 -0.002188 0.008092 -0.002989 0.000000 0.000000 0.000000
# 3 -0.002844 -0.002989 0.009771 0.000000 0.000000 0.000000
# 4 0.000000 0.000000 0.000000 0.017330 0.000000 0.000000
# 5 0.000000 0.000000 0.000000 0.000000 0.031933 0.000000
# 6 0.000000 0.000000 0.000000 0.000000 0.000000 0.029473
#
#
# Mechanical properties :
#
#
# Convention : Reuss Voigt Hill
#
# Bulk Modulus (GPa) = 83.62512 85.13806 84.38159
# Shear Modulus (GPa) = 39.44262 41.49342 40.46802
#
# Velocity S-wave (km/s) = 4.45287 4.56716 4.51038
# Velocity P-wave (km/s) = 8.27503 8.40305 8.33929
#
# Compressibility (1/GPa) = 0.01195813
#
# Stress axis : x y z
#
# Youngs Moduli (GPa) = 98.63613 123.58337 102.34087
#
# Poissons Ratio (x) = 0.27040 0.29108
# Poissons Ratio (y) = 0.21582 0.30593
# Poissons Ratio (z) = 0.28054 0.36943
#
# Static dielectric constant tensor:
#      x y z
#    x 3.735610 0.000000 0.000000 
#    y 0.000000 3.809900 0.000000 
#    z 0.000000 0.000000 3.944770 
# 
# 
# High freq. dielectric constant tensor:
#      x y z
#    x 1.784860 0.000000 0.000000 
#    y 0.000000 1.794300 0.000000 
#    z 0.000000 0.000000 1.803720 
# 
# From -- ./inp_files/76350.got.cif
#   From: 2010.03.12/outbox.cif.g09.slc.cpg/sg65_39_cif.got.tgz:76350.got - 2010.04.10 20:52:16.
