data_PCOD8274933
_publ_section_title
;
Structure prediction by ZEFSAII (Michael W. Deem and Ramdas Pophale) SiO2 
 PCOD8274933
Probable space group: C M M M
;
_chemical_formula_sum "Si O2"
_cell_formula_units_Z 80
_cell_length_a 10.024328
_cell_length_b 40.100184
_cell_length_c 14.884994
_cell_angle_alpha 90.000000
_cell_angle_beta 90.000000
_cell_angle_gamma 90.000000
_cell_volume 5983.431147
_symmetry_space_group_name_H-M "C M M M"
_symmetry_group_IT_number 65
_symmetry_cell_setting 'orthorhombic'
loop_
_space_group_symop_operation_xyz
x,y,z
-x,-y,z
x,-y,-z
-x,y,-z
-x,-y,-z
x,y,-z
-x,y,z
x,-y,z
1/2+x,1/2+y,z
1/2-x,1/2-y,z
1/2+x,1/2-y,-z
1/2-x,1/2+y,-z
1/2-x,1/2-y,-z
1/2+x,1/2+y,-z
1/2-x,1/2+y,z
1/2+x,1/2-y,z
loop_
_atom_site_type_symbol
_atom_site_label
_atom_site_fract_x
_atom_site_fract_y
_atom_site_fract_z
Si Si1 0.350502 0.277249 0.393111
Si Si2 0.850652 0.148631 0.393304
Si Si3 0.652785 0.961611 0.748808
Si Si4 0.652762 0.907664 0.603447
Si Si5 0.850588 0.960416 0.099715
O O1 0.341919 0.276649 0.500000
O O2 0.500000 0.268092 0.361870
O O3 0.250000 0.250000 0.350926
O O4 0.312350 0.314329 0.358145
O O5 0.845714 0.148886 0.500000
O O6 0.744876 0.121814 0.356387
O O7 0.000000 0.139112 0.360714
O O8 0.500000 0.957741 0.780145
O O9 0.681451 0.941334 0.658073
O O10 0.744601 0.946621 0.828273
O O11 0.687848 0.000000 0.727672
O O12 0.687475 0.915520 0.500000
O O13 0.500000 0.895990 0.614016
O O14 0.000000 0.948986 0.127072
O O15 0.842491 0.000000 0.097749
O O16 0.815463 0.946661 0.000000
#
# Coordination Sequence:
#
# PCOD8274933 Si02
#       5
#    16  16  16  16  16
#     4   8  13  20  30  45  63  81 103 134 171 207
#     4   8  14  24  35  46  62  85 113 144 176 208
#     4   9  17  27  38  53  71  90 115 148 183 216
#     4   9  17  27  37  49  66  91 123 154 181 209
#     4   8  14  25  40  56  72  88 106 132 170 216
#
# _framework density 13.370253999999999
#
# number of rings (size 3 to 8) (size 9 to 14) (size 15 to 20)
#    0.000    3.600    0.000    1.800    0.000    2.400 
#    0.000    8.000    0.000    0.000    0.000    5.600 
#    0.000    0.000    0.000    0.000    0.000    1.000 
#
# Total GULP energy -495686.696336 kJ/mol
# GULP energy per Si atom -12392.167408 kJ/mol
# Density = 1.333982 g / cm^3
# Si number density = 13.370254 Si / 1000 Ang^3
#
#
#
# Elastic Constant Matrix: (Units=GPa)
#
#
# Indices 1 2 3 4 5 6 
#
# 1 90.3344 57.5014 40.7937 0.0000 0.0000 0.0000
# 2 57.5014 74.3373 29.3924 0.0000 0.0000 0.0000
# 3 40.7937 29.3924 46.7375 0.0000 0.0000 0.0000
# 4 0.0000 0.0000 0.0000 1.2559 0.0000 0.0000
# 5 0.0000 0.0000 0.0000 0.0000 16.5647 0.0000
# 6 0.0000 0.0000 0.0000 0.0000 0.0000 23.8821
#
#
#
# Elastic Compliance Matrix: (Units=1/GPa)
#
#
# Indices 1 2 3 4 5 6 
#
# 1 0.027345 -0.015592 -0.014062 0.000000 0.000000 0.000000
# 2 -0.015592 0.026795 -0.003242 0.000000 0.000000 0.000000
# 3 -0.014062 -0.003242 0.035708 0.000000 0.000000 0.000000
# 4 0.000000 0.000000 0.000000 0.796255 0.000000 0.000000
# 5 0.000000 0.000000 0.000000 0.000000 0.060369 0.000000
# 6 0.000000 0.000000 0.000000 0.000000 0.000000 0.041872
#
#
# Mechanical properties :
#
#
# Convention : Reuss Voigt Hill
#
# Bulk Modulus (GPa) = 41.56802 51.86490 46.71646
# Shear Modulus (GPa) = 4.70741 13.92199 9.31470
#
# Velocity S-wave (km/s) = 1.87842 3.23037 2.64232
# Velocity P-wave (km/s) = 5.98849 7.26561 6.65775
#
# Compressibility (1/GPa) = 0.02405696
#
# Stress axis : x y z
#
# Youngs Moduli (GPa) = 36.56970 37.32100 28.00466
#
# Poissons Ratio (x) = 0.58191 0.39380
# Poissons Ratio (y) = 0.57019 0.09078
# Poissons Ratio (z) = 0.51424 0.12098
#
# Static dielectric constant tensor:
#      x y z
#    x 2.918340 0.000000 0.000000 
#    y 0.000000 2.698060 0.000000 
#    z 0.000000 0.000000 2.406870 
# 
# 
# High freq. dielectric constant tensor:
#      x y z
#    x 1.520400 0.000000 0.000000 
#    y 0.000000 1.489720 0.000000 
#    z 0.000000 0.000000 1.456870 
# 
# From -- ./inp_files/22849.got.cif
#   From: 2010.03.12/outbox.cif.g09.slc.cpg/sg65_12_cif.got.tgz:22849.got - 2010.04.10 20:52:16.
