data_PCOD8274350
_publ_section_title
;
Structure prediction by ZEFSAII (Michael W. Deem and Ramdas Pophale) SiO2 
 PCOD8274350
Probable space group: C M M M
;
_chemical_formula_sum "Si O2"
_cell_formula_units_Z 56
_cell_length_a 11.157650
_cell_length_b 27.793444
_cell_length_c 9.280944
_cell_angle_alpha 90.000000
_cell_angle_beta 90.000000
_cell_angle_gamma 90.000000
_cell_volume 2878.109093
_symmetry_space_group_name_H-M "C M M M"
_symmetry_group_IT_number 65
_symmetry_cell_setting 'orthorhombic'
loop_
_space_group_symop_operation_xyz
x,y,z
-x,-y,z
x,-y,-z
-x,y,-z
-x,-y,-z
x,y,-z
-x,y,z
x,-y,z
1/2+x,1/2+y,z
1/2-x,1/2-y,z
1/2+x,1/2-y,-z
1/2-x,1/2+y,-z
1/2-x,1/2-y,-z
1/2+x,1/2+y,-z
1/2-x,1/2+y,z
1/2+x,1/2-y,z
loop_
_atom_site_type_symbol
_atom_site_label
_atom_site_fract_x
_atom_site_fract_y
_atom_site_fract_z
Si Si1 0.859607 0.553564 0.840002
Si Si2 0.805240 0.888396 0.669887
Si Si3 0.635704 0.280188 0.329380
Si Si4 0.500000 0.443443 0.839135
O O1 0.819081 0.500000 0.788428
O O2 0.825197 0.595749 0.726411
O O3 0.000000 0.555533 0.851617
O O4 0.804679 0.563431 0.000000
O O5 0.816929 0.894256 0.500000
O O6 0.840932 0.834879 0.717356
O O7 0.885579 0.926774 0.751288
O O8 0.636359 0.274500 0.500000
O O9 0.500000 0.264925 0.274252
O O10 0.750000 0.250000 0.265692
O O11 0.500000 0.500000 0.846912
O O12 0.500000 0.421353 0.000000
#
# Coordination Sequence:
#
# PCOD8274350 Si02
#       4
#    16  16  16   8
#     4   9  19  36  55  76 109 154 194 225 271 343
#     4  11  21  34  55  85 114 140 183 241 292 333
#     4   9  18  34  55  80 112 148 186 233 291 352
#     4  11  23  37  55  79 111 155 195 223 274 353
#
# _framework density 19.45722
#
# number of rings (size 3 to 8) (size 9 to 14) (size 15 to 20)
#    0.000    2.143    1.429    3.000    0.000    6.857 
#    0.000    4.286    0.000    3.429    0.000    0.000 
#    0.000    0.000    0.000    0.000    0.000    0.000 
#
# Total GULP energy -346885.901786 kJ/mol
# GULP energy per Si atom -12388.782207 kJ/mol
# Density = 1.941293 g / cm^3
# Si number density = 19.457220 Si / 1000 Ang^3
#
#
#
# Elastic Constant Matrix: (Units=GPa)
#
#
# Indices 1 2 3 4 5 6 
#
# 1 112.9575 61.5306 30.2397 0.0000 0.0000 0.0000
# 2 61.5306 90.2568 41.7987 0.0000 0.0000 0.0000
# 3 30.2397 41.7987 69.5868 0.0000 0.0000 0.0000
# 4 0.0000 0.0000 0.0000 8.3297 0.0000 0.0000
# 5 0.0000 0.0000 0.0000 0.0000 30.0007 0.0000
# 6 0.0000 0.0000 0.0000 0.0000 0.0000 26.7837
#
#
#
# Elastic Compliance Matrix: (Units=1/GPa)
#
#
# Indices 1 2 3 4 5 6 
#
# 1 0.014094 -0.009382 -0.000489 0.000000 0.000000 0.000000
# 2 -0.009382 0.021594 -0.008894 0.000000 0.000000 0.000000
# 3 -0.000489 -0.008894 0.019926 0.000000 0.000000 0.000000
# 4 0.000000 0.000000 0.000000 0.120053 0.000000 0.000000
# 5 0.000000 0.000000 0.000000 0.000000 0.033333 0.000000
# 6 0.000000 0.000000 0.000000 0.000000 0.000000 0.037336
#
#
# Mechanical properties :
#
#
# Convention : Reuss Voigt Hill
#
# Bulk Modulus (GPa) = 55.29884 59.99323 57.64603
# Shear Modulus (GPa) = 17.24763 22.30494 19.77628
#
# Velocity S-wave (km/s) = 2.98054 3.38946 3.19156
# Velocity P-wave (km/s) = 6.35038 6.79840 6.57820
#
# Compressibility (1/GPa) = 0.01808356
#
# Stress axis : x y z
#
# Youngs Moduli (GPa) = 70.94971 46.30845 50.18660
#
# Poissons Ratio (x) = 0.43446 0.02456
# Poissons Ratio (y) = 0.66565 0.44636
# Poissons Ratio (z) = 0.03473 0.41187
#
# Static dielectric constant tensor:
#      x y z
#    x 5.592280 0.000000 0.000000 
#    y 0.000000 3.577530 0.000000 
#    z 0.000000 0.000000 3.356030 
# 
# 
# High freq. dielectric constant tensor:
#      x y z
#    x 1.777130 0.000000 0.000000 
#    y 0.000000 1.748330 0.000000 
#    z 0.000000 0.000000 1.727770 
# 
# From -- ./inp_files/4391.got.cif
#   From: 2010.03.12/outbox.cif.g09.slc.cpg/sg65_3_cif.got.tgz:4391.got - 2010.04.10 20:52:16.
