data_PCOD8274096
_publ_section_title
;
Structure prediction by ZEFSAII (Michael W. Deem and Ramdas Pophale) SiO2 
 PCOD8274096
Probable space group: C M M M
;
_chemical_formula_sum "Si O2"
_cell_formula_units_Z 60
_cell_length_a 10.689301
_cell_length_b 24.048246
_cell_length_c 11.772473
_cell_angle_alpha 90.000000
_cell_angle_beta 90.000000
_cell_angle_gamma 90.000000
_cell_volume 3026.219431
_symmetry_space_group_name_H-M "C M M M"
_symmetry_group_IT_number 65
_symmetry_cell_setting 'orthorhombic'
loop_
_space_group_symop_operation_xyz
x,y,z
-x,-y,z
x,-y,-z
-x,y,-z
-x,-y,-z
x,y,-z
-x,y,z
x,-y,z
1/2+x,1/2+y,z
1/2-x,1/2-y,z
1/2+x,1/2-y,-z
1/2-x,1/2+y,-z
1/2-x,1/2-y,-z
1/2+x,1/2+y,-z
1/2-x,1/2+y,z
1/2+x,1/2-y,z
loop_
_atom_site_type_symbol
_atom_site_label
_atom_site_fract_x
_atom_site_fract_y
_atom_site_fract_z
Si Si1 0.353625 0.298665 0.768184
Si Si2 0.242329 0.183880 0.000000
Si Si3 0.500000 0.932892 0.759522
Si Si4 0.133181 0.000000 0.634179
Si Si5 0.732295 0.890926 0.366406
Si Si6 0.000000 0.616938 0.000000
O O1 0.500000 0.278678 0.757475
O O2 0.250000 0.250000 0.762738
O O3 0.320061 0.338691 0.663406
O O4 0.334582 0.332641 0.886424
O O5 0.250000 0.250000 0.000000
O O6 0.379329 0.156681 0.000000
O O7 0.391944 0.895315 0.705914
O O8 0.500000 0.925229 0.894298
O O9 0.500000 0.000000 0.728871
O O10 0.200079 0.054313 0.676792
O O11 0.121607 0.000000 0.500000
O O12 0.000000 0.000000 0.694271
O O13 0.702527 0.889914 0.500000
#
# Coordination Sequence:
#
# PCOD8274096 Si02
#       6
#    16   8   8   8  16   4
#     4  11  25  42  66  95 131 172 220 272 332 392
#     4  10  23  37  67  91 124 164 226 269 322 381
#     4  12  24  42  67  99 132 170 220 271 333 400
#     4   9  18  35  59  83 114 163 214 259 311 376
#     4  11  23  39  63  93 129 170 216 268 323 391
#     4  12  23  44  68  98 132 176 211 282 334 382
#
# _framework density 19.826716999999999
#
# number of rings (size 3 to 8) (size 9 to 14) (size 15 to 20)
#    0.000    1.200    4.000    1.800    9.333    2.667 
#    0.000    0.000    0.000    0.000    0.000    5.600 
#    0.000    0.000    0.000    0.000    0.000    0.000 
#
# Total GULP energy -371652.108639 kJ/mol
# GULP energy per Si atom -12388.403621 kJ/mol
# Density = 1.978159 g / cm^3
# Si number density = 19.826717 Si / 1000 Ang^3
#
#
#
# Elastic Constant Matrix: (Units=GPa)
#
#
# Indices 1 2 3 4 5 6 
#
# 1 169.1799 46.9586 39.6724 0.0000 0.0000 0.0000
# 2 46.9586 84.6628 31.7379 0.0000 0.0000 0.0000
# 3 39.6724 31.7379 107.6935 0.0000 0.0000 0.0000
# 4 0.0000 0.0000 0.0000 32.1442 0.0000 0.0000
# 5 0.0000 0.0000 0.0000 0.0000 24.5583 0.0000
# 6 0.0000 0.0000 0.0000 0.0000 0.0000 28.1406
#
#
#
# Elastic Compliance Matrix: (Units=1/GPa)
#
#
# Indices 1 2 3 4 5 6 
#
# 1 0.007244 -0.003392 -0.001669 0.000000 0.000000 0.000000
# 2 -0.003392 0.014867 -0.003132 0.000000 0.000000 0.000000
# 3 -0.001669 -0.003132 0.010823 0.000000 0.000000 0.000000
# 4 0.000000 0.000000 0.000000 0.031110 0.000000 0.000000
# 5 0.000000 0.000000 0.000000 0.000000 0.040720 0.000000
# 6 0.000000 0.000000 0.000000 0.000000 0.000000 0.035536
#
#
# Mechanical properties :
#
#
# Convention : Reuss Voigt Hill
#
# Bulk Modulus (GPa) = 60.42798 66.47490 63.45144
# Shear Modulus (GPa) = 30.82593 33.17976 32.00285
#
# Velocity S-wave (km/s) = 3.94733 4.09527 4.02198
# Velocity P-wave (km/s) = 7.16376 7.48080 7.32399
#
# Compressibility (1/GPa) = 0.01654863
#
# Stress axis : x y z
#
# Youngs Moduli (GPa) = 138.05005 67.26267 92.39314
#
# Poissons Ratio (x) = 0.22817 0.15418
# Poissons Ratio (y) = 0.46829 0.28936
# Poissons Ratio (z) = 0.23037 0.21065
#
# Static dielectric constant tensor:
#      x y z
#    x 5.033810 0.000000 0.000000 
#    y 0.000000 3.528510 0.000000 
#    z 0.000000 0.000000 3.841520 
# 
# 
# High freq. dielectric constant tensor:
#      x y z
#    x 1.787960 0.000000 0.000000 
#    y 0.000000 1.763030 0.000000 
#    z 0.000000 0.000000 1.772260 
# 
# From -- ./inp_files/22257.got.cif
#   From: 2010.03.12/outbox.cif.g09.slc.cpg/sg65_12_cif.got.tgz:22257.got - 2010.04.10 20:52:16.
