data_PCOD8274197
_publ_section_title
;
Structure prediction by ZEFSAII (Michael W. Deem and Ramdas Pophale) SiO2 
 PCOD8274197
Probable space group: C M M M
;
_chemical_formula_sum "Si O2"
_cell_formula_units_Z 80
_cell_length_a 15.179274
_cell_length_b 23.128792
_cell_length_c 11.561074
_cell_angle_alpha 90.000000
_cell_angle_beta 90.000000
_cell_angle_gamma 90.000000
_cell_volume 4058.841871
_symmetry_space_group_name_H-M "C M M M"
_symmetry_group_IT_number 65
_symmetry_cell_setting 'orthorhombic'
loop_
_space_group_symop_operation_xyz
x,y,z
-x,-y,z
x,-y,-z
-x,y,-z
-x,-y,-z
x,y,-z
-x,y,z
x,-y,z
1/2+x,1/2+y,z
1/2-x,1/2-y,z
1/2+x,1/2-y,-z
1/2-x,1/2+y,-z
1/2-x,1/2-y,-z
1/2+x,1/2+y,-z
1/2-x,1/2+y,z
1/2+x,1/2-y,z
loop_
_atom_site_type_symbol
_atom_site_label
_atom_site_fract_x
_atom_site_fract_y
_atom_site_fract_z
Si Si1 0.601572 0.751165 0.369504
Si Si2 0.148328 0.856686 0.227528
Si Si3 0.393507 0.707586 0.000000
Si Si4 0.103349 0.339129 0.000000
Si Si5 0.500000 0.567934 0.866041
Si Si6 0.343646 0.863678 0.751865
Si Si7 0.500000 0.933322 0.636535
O O1 0.638022 0.756101 0.500000
O O2 0.500000 0.768785 0.364085
O O3 0.612920 0.685503 0.327619
O O4 0.651411 0.796660 0.287700
O O5 0.152937 0.820085 0.110349
O O6 0.084445 0.910528 0.204998
O O7 0.242472 0.882776 0.266147
O O8 0.364430 0.773604 0.000000
O O9 0.500000 0.700075 0.000000
O O10 0.137269 0.371788 0.886987
O O11 0.000000 0.341530 0.000000
O O12 0.500000 0.500000 0.865570
O O13 0.500000 0.590881 0.000000
O O14 0.410824 0.903468 0.681258
O O15 0.500000 0.926964 0.500000
O O16 0.500000 0.000000 0.676099
#
# Coordination Sequence:
#
# PCOD8274197 Si02
#       7
#    16  16   8   8   8  16   8
#     4  11  22  38  61  92 129 167 204 250 311 375
#     4  12  22  38  64  92 130 162 204 256 310 374
#     4  11  19  35  59  91 133 174 203 236 300 387
#     4  11  21  35  59  91 135 168 193 240 314 377
#     4  11  24  43  65  89 122 166 213 259 307 365
#     4  12  24  38  64  97 127 161 203 256 312 375
#     4  11  26  50  71  85 114 165 220 267 311 367
#
# _framework density 19.710056000000002
#
# number of rings (size 3 to 8) (size 9 to 14) (size 15 to 20)
#    0.000    0.600    7.000    1.800    0.000    4.000 
#    0.000    1.000    0.000    1.200    0.000    0.000 
#    0.000    0.000    0.000    0.000    0.000    0.000 
#
# Total GULP energy -496061.441465 kJ/mol
# GULP energy per Si atom -12401.536037 kJ/mol
# Density = 1.966519 g / cm^3
# Si number density = 19.710056 Si / 1000 Ang^3
#
#
#
# Elastic Constant Matrix: (Units=GPa)
#
#
# Indices 1 2 3 4 5 6 
#
# 1 128.4080 42.2828 28.8814 0.0000 0.0000 0.0000
# 2 42.2828 91.6455 27.7116 0.0000 0.0000 0.0000
# 3 28.8814 27.7116 109.5152 0.0000 0.0000 0.0000
# 4 0.0000 0.0000 0.0000 29.4120 0.0000 0.0000
# 5 0.0000 0.0000 0.0000 0.0000 -3.3328 0.0000
# 6 0.0000 0.0000 0.0000 0.0000 0.0000 12.2224
#
#
#
# Elastic Compliance Matrix: (Units=1/GPa)
#
#
# Indices 1 2 3 4 5 6 
#
# 1 0.009404 -0.003886 -0.001497 0.000000 0.000000 0.000000
# 2 -0.003886 0.013422 -0.002371 0.000000 0.000000 0.000000
# 3 -0.001497 -0.002371 0.010126 0.000000 0.000000 0.000000
# 4 0.000000 0.000000 0.000000 0.034000 0.000000 0.000000
# 5 0.000000 0.000000 0.000000 0.000000 -0.300045 0.000000
# 6 0.000000 0.000000 0.000000 0.000000 0.000000 0.081817
#
#
# Mechanical properties :
#
#
# Convention : Reuss Voigt Hill
#
# Bulk Modulus (GPa) = 57.32914 58.59116 57.96015
# Shear Modulus (GPa) = -38.47515 23.03984 -7.71765
#
# Velocity S-wave (km/s) = -4.42300 3.42268 -1.98093
# Velocity P-wave (km/s) = 1.75085 6.73875 4.92322
#
# Compressibility (1/GPa) = 0.01744314
#
# Stress axis : x y z
#
# Youngs Moduli (GPa) = 106.33809 74.50660 98.75668
#
# Poissons Ratio (x) = 0.28955 0.14781
# Poissons Ratio (y) = 0.41325 0.23419
# Poissons Ratio (z) = 0.15915 0.17668
#
# Static dielectric constant tensor:
#      x y z
#    x 3.699350 0.000000 0.000000 
#    y 0.000000 3.348490 0.000000 
#    z 0.000000 0.000000 3.704340 
# 
# 
# High freq. dielectric constant tensor:
#      x y z
#    x 1.778810 0.000000 0.000000 
#    y 0.000000 1.739690 0.000000 
#    z 0.000000 0.000000 1.774550 
# 
# From -- ./inp_files/24722.got.cif
#   From: 2010.03.12/outbox.cif.g09.slc.cpg/sg65_13_cif.got.tgz:24722.got - 2010.04.10 20:52:16.
