data_PCOD8274117
_publ_section_title
;
Structure prediction by ZEFSAII (Michael W. Deem and Ramdas Pophale) SiO2 
 PCOD8274117
Probable space group: C M M M
;
_chemical_formula_sum "Si O2"
_cell_formula_units_Z 104
_cell_length_a 21.398235
_cell_length_b 28.039023
_cell_length_c 9.068103
_cell_angle_alpha 90.000000
_cell_angle_beta 90.000000
_cell_angle_gamma 90.000000
_cell_volume 5440.731249
_symmetry_space_group_name_H-M "C M M M"
_symmetry_group_IT_number 65
_symmetry_cell_setting 'orthorhombic'
loop_
_space_group_symop_operation_xyz
x,y,z
-x,-y,z
x,-y,-z
-x,y,-z
-x,-y,-z
x,y,-z
-x,y,z
x,-y,z
1/2+x,1/2+y,z
1/2-x,1/2-y,z
1/2+x,1/2-y,-z
1/2-x,1/2+y,-z
1/2-x,1/2-y,-z
1/2+x,1/2+y,-z
1/2-x,1/2+y,z
1/2+x,1/2-y,z
loop_
_atom_site_type_symbol
_atom_site_label
_atom_site_fract_x
_atom_site_fract_y
_atom_site_fract_z
Si Si1 0.427872 0.703085 0.174184
Si Si2 0.000000 0.444242 0.664555
Si Si3 0.257267 0.055046 0.673215
Si Si4 0.120632 0.406455 0.174876
Si Si5 0.072782 0.051762 0.839400
Si Si6 0.356048 0.377631 0.329483
Si Si7 0.431178 0.190919 0.826030
O O1 0.500000 0.689518 0.218953
O O2 0.373239 0.670974 0.245392
O O3 0.412206 0.756593 0.231867
O O4 0.421145 0.698360 0.000000
O O5 0.060388 0.430461 0.756754
O O6 0.000000 0.500000 0.644397
O O7 0.000000 0.420830 0.500000
O O8 0.269495 0.060632 0.500000
O O9 0.319231 0.068156 0.760139
O O10 0.205498 0.093754 0.726012
O O11 0.238131 0.000000 0.709291
O O12 0.118860 0.349853 0.217924
O O13 0.119665 0.413635 0.000000
O O14 0.087767 0.086403 0.704867
O O15 0.000000 0.045599 0.845650
O O16 0.103625 0.000000 0.810385
O O17 0.096085 0.071581 0.000000
O O18 0.351851 0.365449 0.500000
O O19 0.500000 0.176755 0.763341
O O20 0.436686 0.194649 0.000000
#
# Coordination Sequence:
#
# PCOD8274117 Si02
#       7
#    16   8  16  16  16  16  16
#     4   9  18  34  58  83 110 146 183 222 276 336
#     4  11  23  37  55  83 121 157 181 211 270 343
#     4  10  23  42  57  72 106 154 192 223 274 341
#     4  11  21  36  61  89 112 138 183 238 278 316
#     4   9  18  32  50  73 101 133 173 224 280 336
#     4  11  22  35  52  75 106 145 187 231 276 323
#     4   8  15  32  57  84 113 142 172 218 278 332
#
# _framework density 19.115078
#
# number of rings (size 3 to 8) (size 9 to 14) (size 15 to 20)
#    0.000    2.231    0.769    3.923    0.000    7.385 
#    0.000    3.077    0.000    4.615    0.000    0.000 
#    0.000    0.000    0.000    0.000    0.000    0.000 
#
# Total GULP energy -644226.861650 kJ/mol
# GULP energy per Si atom -12388.978109 kJ/mol
# Density = 1.907157 g / cm^3
# Si number density = 19.115078 Si / 1000 Ang^3
#
#
#
# Elastic Constant Matrix: (Units=GPa)
#
#
# Indices 1 2 3 4 5 6 
#
# 1 88.0943 53.4797 44.7352 0.0000 0.0000 0.0000
# 2 53.4797 116.1844 39.8266 0.0000 0.0000 0.0000
# 3 44.7352 39.8266 52.1183 0.0000 0.0000 0.0000
# 4 0.0000 0.0000 0.0000 16.7406 0.0000 0.0000
# 5 0.0000 0.0000 0.0000 0.0000 35.0468 0.0000
# 6 0.0000 0.0000 0.0000 0.0000 0.0000 15.6956
#
#
#
# Elastic Compliance Matrix: (Units=1/GPa)
#
#
# Indices 1 2 3 4 5 6 
#
# 1 0.022048 -0.004961 -0.015134 0.000000 0.000000 0.000000
# 2 -0.004961 0.012778 -0.005506 0.000000 0.000000 0.000000
# 3 -0.015134 -0.005506 0.036385 0.000000 0.000000 0.000000
# 4 0.000000 0.000000 0.000000 0.059735 0.000000 0.000000
# 5 0.000000 0.000000 0.000000 0.000000 0.028533 0.000000
# 6 0.000000 0.000000 0.000000 0.000000 0.000000 0.063712
#
#
# Mechanical properties :
#
#
# Convention : Reuss Voigt Hill
#
# Bulk Modulus (GPa) = 49.97801 59.16447 54.57124
# Shear Modulus (GPa) = 17.78958 21.38697 19.58827
#
# Velocity S-wave (km/s) = 3.05398 3.34856 3.20465
# Velocity P-wave (km/s) = 6.21597 6.78007 6.50414
#
# Compressibility (1/GPa) = 0.02000880
#
# Stress axis : x y z
#
# Youngs Moduli (GPa) = 45.35467 78.25918 27.48413
#
# Poissons Ratio (x) = 0.38826 0.41594
# Poissons Ratio (y) = 0.22501 0.15133
# Poissons Ratio (z) = 0.68639 0.43090
#
# Static dielectric constant tensor:
#      x y z
#    x 3.283060 0.000000 0.000000 
#    y 0.000000 3.895810 0.000000 
#    z 0.000000 0.000000 3.450720 
# 
# 
# High freq. dielectric constant tensor:
#      x y z
#    x 1.723800 0.000000 0.000000 
#    y 0.000000 1.758000 0.000000 
#    z 0.000000 0.000000 1.728020 
# 
# From -- ./inp_files/12764.got.cif
#   From: 2010.03.12/outbox.cif.g09.slc.cpg/sg65_7_cif.got.tgz:12764.got - 2010.04.10 20:52:16.
