data_PCOD8274978
_publ_section_title
;
Structure prediction by ZEFSAII (Michael W. Deem and Ramdas Pophale) SiO2 
 PCOD8274978
Probable space group: C M M M
;
_chemical_formula_sum "Si O2"
_cell_formula_units_Z 104
_cell_length_a 9.452931
_cell_length_b 25.729029
_cell_length_c 24.733812
_cell_angle_alpha 90.000000
_cell_angle_beta 90.000000
_cell_angle_gamma 90.000000
_cell_volume 6015.627552
_symmetry_space_group_name_H-M "C M M M"
_symmetry_group_IT_number 65
_symmetry_cell_setting 'orthorhombic'
loop_
_space_group_symop_operation_xyz
x,y,z
-x,-y,z
x,-y,-z
-x,y,-z
-x,-y,-z
x,y,-z
-x,y,z
x,-y,z
1/2+x,1/2+y,z
1/2-x,1/2-y,z
1/2+x,1/2-y,-z
1/2-x,1/2+y,-z
1/2-x,1/2-y,-z
1/2+x,1/2+y,-z
1/2-x,1/2+y,z
1/2+x,1/2-y,z
loop_
_atom_site_type_symbol
_atom_site_label
_atom_site_fract_x
_atom_site_fract_y
_atom_site_fract_z
Si Si1 0.847585 0.000000 0.169771
Si Si2 0.335525 0.699642 0.371206
Si Si3 0.247196 0.000000 0.057606
Si Si4 0.168515 0.887452 0.163802
Si Si5 0.160620 0.500000 0.435729
Si Si6 0.163908 0.200208 0.246916
Si Si7 0.836388 0.098794 0.436763
Si Si8 0.841740 0.387783 0.939666
O O1 0.771525 0.944738 0.183196
O O2 0.869495 0.000000 0.104624
O O3 0.000000 0.000000 0.198691
O O4 0.500000 0.711517 0.380420
O O5 0.250000 0.750000 0.391179
O O6 0.301135 0.686852 0.308944
O O7 0.285833 0.650443 0.406102
O O8 0.347931 0.950084 0.062316
O O9 0.165820 0.000000 0.000000
O O10 0.212008 0.848483 0.211165
O O11 0.236922 0.867446 0.107495
O O12 0.000000 0.890838 0.155197
O O13 0.162475 0.500000 0.500000
O O14 0.242407 0.551070 0.414696
O O15 0.000000 0.500000 0.413478
O O16 0.250000 0.250000 0.226871
O O17 0.000000 0.212949 0.238663
O O18 0.811903 0.108211 0.500000
O O19 0.000000 0.085935 0.424229
O O20 0.000000 0.366772 0.928406
O O21 0.791350 0.369244 0.000000
#
# Coordination Sequence:
#
# PCOD8274978 Si02
#       8
#     8  16   8  16   8  16  16  16
#     4   8  14  24  38  59  87 114 137 169 214 258
#     4   9  18  32  49  70  95 122 154 194 239 283
#     4   8  13  21  34  54  82 115 145 169 198 245
#     4   9  17  29  45  65  89 116 146 180 220 267
#     4   9  17  29  46  69  96 128 166 202 233 269
#     4   9  18  33  51  69  88 114 152 193 229 268
#     4   9  17  30  48  70  98 131 163 194 231 278
#     4   9  16  25  39  61  88 116 145 177 214 260
#
# _framework density 17.288304
#
# number of rings (size 3 to 8) (size 9 to 14) (size 15 to 20)
#    0.000    3.154    0.000    0.462    0.000    3.846 
#    0.000    3.846    0.000    4.154    0.000    0.000 
#    0.000    0.000    0.000    0.000    0.000    0.000 
#
# Total GULP energy -644313.304653 kJ/mol
# GULP energy per Si atom -12390.640474 kJ/mol
# Density = 1.724895 g / cm^3
# Si number density = 17.288304 Si / 1000 Ang^3
#
#
#
# Elastic Constant Matrix: (Units=GPa)
#
#
# Indices 1 2 3 4 5 6 
#
# 1 62.8283 54.7148 34.3522 0.0000 0.0000 0.0000
# 2 54.7148 141.1147 64.5026 0.0000 0.0000 0.0000
# 3 34.3522 64.5026 64.9960 0.0000 0.0000 0.0000
# 4 0.0000 0.0000 0.0000 30.7681 0.0000 0.0000
# 5 0.0000 0.0000 0.0000 0.0000 20.1721 0.0000
# 6 0.0000 0.0000 0.0000 0.0000 0.0000 26.1659
#
#
#
# Elastic Compliance Matrix: (Units=1/GPa)
#
#
# Indices 1 2 3 4 5 6 
#
# 1 0.025539 -0.006831 -0.006719 0.000000 0.000000 0.000000
# 2 -0.006831 0.014797 -0.011074 0.000000 0.000000 0.000000
# 3 -0.006719 -0.011074 0.029927 0.000000 0.000000 0.000000
# 4 0.000000 0.000000 0.000000 0.032501 0.000000 0.000000
# 5 0.000000 0.000000 0.000000 0.000000 0.049573 0.000000
# 6 0.000000 0.000000 0.000000 0.000000 0.000000 0.038218
#
#
# Mechanical properties :
#
#
# Convention : Reuss Voigt Hill
#
# Bulk Modulus (GPa) = 47.58626 64.00867 55.79746
# Shear Modulus (GPa) = 20.25861 23.11250 21.68556
#
# Velocity S-wave (km/s) = 3.42689 3.66031 3.54552
# Velocity P-wave (km/s) = 6.57594 7.41407 7.00755
#
# Compressibility (1/GPa) = 0.02101447
#
# Stress axis : x y z
#
# Youngs Moduli (GPa) = 39.15578 67.58084 33.41483
#
# Poissons Ratio (x) = 0.46166 0.22451
# Poissons Ratio (y) = 0.26748 0.37005
# Poissons Ratio (z) = 0.26308 0.74841
#
# Static dielectric constant tensor:
#      x y z
#    x 3.078100 0.000000 0.000000 
#    y 0.000000 3.234700 0.000000 
#    z 0.000000 0.000000 3.151310 
# 
# 
# High freq. dielectric constant tensor:
#      x y z
#    x 1.652540 0.000000 0.000000 
#    y 0.000000 1.655950 0.000000 
#    z 0.000000 0.000000 1.651060 
# 
# From -- ./inp_files/73814.got.cif
#   From: 2010.03.12/outbox.cif.g09.slc.cpg/sg65_37_cif.got.tgz:73814.got - 2010.04.10 20:52:16.
