data_PCOD8274083
_publ_section_title
;
Structure prediction by ZEFSAII (Michael W. Deem and Ramdas Pophale) SiO2 
 PCOD8274083
Probable space group: C M M M
;
_chemical_formula_sum "Si O2"
_cell_formula_units_Z 88
_cell_length_a 10.003446
_cell_length_b 22.860286
_cell_length_c 19.263369
_cell_angle_alpha 90.000000
_cell_angle_beta 90.000000
_cell_angle_gamma 90.000000
_cell_volume 4405.178748
_symmetry_space_group_name_H-M "C M M M"
_symmetry_group_IT_number 65
_symmetry_cell_setting 'orthorhombic'
loop_
_space_group_symop_operation_xyz
x,y,z
-x,-y,z
x,-y,-z
-x,y,-z
-x,-y,-z
x,y,-z
-x,y,z
x,-y,z
1/2+x,1/2+y,z
1/2-x,1/2-y,z
1/2+x,1/2-y,-z
1/2-x,1/2+y,-z
1/2-x,1/2-y,-z
1/2+x,1/2+y,-z
1/2-x,1/2+y,z
1/2+x,1/2-y,z
loop_
_atom_site_type_symbol
_atom_site_label
_atom_site_fract_x
_atom_site_fract_y
_atom_site_fract_z
Si Si1 0.346543 0.500000 0.394359
Si Si2 0.147688 0.799236 0.078244
Si Si3 0.227304 0.615708 0.826341
Si Si4 0.847837 0.695202 0.699014
Si Si5 0.000000 0.567939 0.918203
Si Si6 0.347646 0.106797 0.577913
Si Si7 0.147704 0.000000 0.231410
O O1 0.500000 0.500000 0.424950
O O2 0.262255 0.555891 0.418674
O O3 0.358879 0.500000 0.312964
O O4 0.250000 0.750000 0.103118
O O5 0.152933 0.851760 0.133551
O O6 0.000000 0.771900 0.081270
O O7 0.180913 0.820837 0.000000
O O8 0.162525 0.655600 0.767289
O O9 0.275445 0.556940 0.791609
O O10 0.126233 0.600632 0.887309
O O11 0.750000 0.750000 0.704515
O O12 0.807448 0.657688 0.631411
O O13 0.000000 0.718063 0.692715
O O14 0.000000 0.500000 0.896944
O O15 0.000000 0.576435 0.000000
O O16 0.343580 0.132824 0.500000
O O17 0.500000 0.084180 0.594559
O O18 0.000000 0.000000 0.198659
#
# Coordination Sequence:
#
# PCOD8274083 Si02
#       7
#     8  16  16  16   8  16   8
#     4  11  22  38  63  98 133 166 208 262 315 377
#     4  10  23  41  62  88 119 158 204 254 310 370
#     4  12  22  41  65  89 124 166 202 260 311 379
#     4  11  25  42  64  94 125 166 215 260 312 371
#     4  11  24  40  64  98 127 161 211 262 320 381
#     4  10  22  42  66  93 129 170 212 258 310 376
#     4  11  24  39  61  95 127 163 205 259 320 375
#
# _framework density 19.976488
#
# number of rings (size 3 to 8) (size 9 to 14) (size 15 to 20)
#    0.000    1.182    3.636    2.182    1.273    5.455 
#    1.636    0.000    0.000    2.182    0.000    0.000 
#    0.000    0.000    0.000    0.000    0.000    0.000 
#
# Total GULP energy -545554.274031 kJ/mol
# GULP energy per Si atom -12398.960773 kJ/mol
# Density = 1.993102 g / cm^3
# Si number density = 19.976488 Si / 1000 Ang^3
#
#
#
# Elastic Constant Matrix: (Units=GPa)
#
#
# Indices 1 2 3 4 5 6 
#
# 1 124.8527 59.2446 37.7283 0.0000 0.0000 0.0000
# 2 59.2446 118.4862 54.1552 0.0000 0.0000 0.0000
# 3 37.7283 54.1552 115.1055 0.0000 0.0000 0.0000
# 4 0.0000 0.0000 0.0000 5.4578 0.0000 0.0000
# 5 0.0000 0.0000 0.0000 0.0000 -15.6231 0.0000
# 6 0.0000 0.0000 0.0000 0.0000 0.0000 28.2414
#
#
#
# Elastic Compliance Matrix: (Units=1/GPa)
#
#
# Indices 1 2 3 4 5 6 
#
# 1 0.010641 -0.004747 -0.001254 0.000000 0.000000 0.000000
# 2 -0.004747 0.012870 -0.004499 0.000000 0.000000 0.000000
# 3 -0.001254 -0.004499 0.011215 0.000000 0.000000 0.000000
# 4 0.000000 0.000000 0.000000 0.183226 0.000000 0.000000
# 5 0.000000 0.000000 0.000000 0.000000 -0.064008 0.000000
# 6 0.000000 0.000000 0.000000 0.000000 0.000000 0.035409
#
#
# Mechanical properties :
#
#
# Convention : Reuss Voigt Hill
#
# Bulk Modulus (GPa) = 72.85899 73.41116 73.13507
# Shear Modulus (GPa) = 23.26338 17.43630 20.34984
#
# Velocity S-wave (km/s) = 3.41623 2.95759 3.19515
# Velocity P-wave (km/s) = 7.21889 6.96360 7.09239
#
# Compressibility (1/GPa) = 0.01372514
#
# Stress axis : x y z
#
# Youngs Moduli (GPa) = 93.97432 77.70079 89.16237
#
# Poissons Ratio (x) = 0.36888 0.11184
# Poissons Ratio (y) = 0.44614 0.40114
# Poissons Ratio (z) = 0.11787 0.34957
#
# Static dielectric constant tensor:
#      x y z
#    x 4.371110 0.000000 0.000000 
#    y 0.000000 3.497580 0.000000 
#    z 0.000000 0.000000 3.831930 
# 
# 
# High freq. dielectric constant tensor:
#      x y z
#    x 1.788530 0.000000 0.000000 
#    y 0.000000 1.769910 0.000000 
#    z 0.000000 0.000000 1.799000 
# 
# From -- ./inp_files/59855.got.cif
#   From: 2010.03.12/outbox.cif.g09.slc.cpg/sg65_30_cif.got.tgz:59855.got - 2010.04.10 20:52:16.
