data_PCOD8274490
_publ_section_title
;
Structure prediction by ZEFSAII (Michael W. Deem and Ramdas Pophale) SiO2 
 PCOD8274490
Probable space group: C M M M
;
_chemical_formula_sum "Si O2"
_cell_formula_units_Z 96
_cell_length_a 27.826374
_cell_length_b 20.217962
_cell_length_c 8.942924
_cell_angle_alpha 90.000000
_cell_angle_beta 90.000000
_cell_angle_gamma 90.000000
_cell_volume 5031.222616
_symmetry_space_group_name_H-M "C M M M"
_symmetry_group_IT_number 65
_symmetry_cell_setting 'orthorhombic'
loop_
_space_group_symop_operation_xyz
x,y,z
-x,-y,z
x,-y,-z
-x,y,-z
-x,-y,-z
x,y,-z
-x,y,z
x,-y,z
1/2+x,1/2+y,z
1/2-x,1/2-y,z
1/2+x,1/2-y,-z
1/2-x,1/2+y,-z
1/2-x,1/2-y,-z
1/2+x,1/2+y,-z
1/2-x,1/2+y,z
1/2+x,1/2-y,z
loop_
_atom_site_type_symbol
_atom_site_label
_atom_site_fract_x
_atom_site_fract_y
_atom_site_fract_z
Si Si1 0.445292 0.423467 0.326922
Si Si2 0.621880 0.927075 0.822036
Si Si3 0.785288 0.808767 0.676236
Si Si4 0.613146 0.312634 0.176274
Si Si5 0.946326 0.686692 0.177749
Si Si6 0.730290 0.076485 0.173211
O O1 0.437619 0.405826 0.500000
O O2 0.500000 0.407178 0.278934
O O3 0.434066 0.500000 0.297249
O O4 0.407955 0.382526 0.228337
O O5 0.585199 0.873391 0.754577
O O6 0.675960 0.909994 0.770996
O O7 0.607049 0.000000 0.763167
O O8 0.620602 0.926829 0.000000
O O9 0.791814 0.810032 0.500000
O O10 0.750000 0.750000 0.728093
O O11 0.836380 0.795631 0.750092
O O12 0.765582 0.879471 0.728494
O O13 0.576157 0.256039 0.228001
O O14 0.620480 0.314106 0.000000
O O15 0.000000 0.681695 0.243929
O O16 0.947323 0.681464 0.000000
O O17 0.744022 0.000000 0.198033
O O18 0.736183 0.095999 0.000000
#
# Coordination Sequence:
#
# PCOD8274490 Si02
#       6
#    16  16  16  16  16  16
#     4   9  19  37  59  81 108 143 179 217 265 319
#     4   8  14  26  46  72 102 136 170 203 243 295
#     4  11  24  39  55  77 105 138 179 226 274 326
#     4  11  22  35  54  78 106 141 178 220 269 318
#     4   9  17  28  44  71 105 136 168 207 249 294
#     4   9  18  34  56  80 106 138 176 215 259 316
#
# _framework density 19.080850000000002
#
# number of rings (size 3 to 8) (size 9 to 14) (size 15 to 20)
#    0.000    2.500    0.000    4.000    0.000    5.333 
#    0.000    2.500    0.000    0.000    0.000    0.000 
#    0.000    0.000    0.000   21.167    0.000   19.000 
#
# Total GULP energy -595237.293940 kJ/mol
# GULP energy per Si atom -12400.776957 kJ/mol
# Density = 1.903742 g / cm^3
# Si number density = 19.080850 Si / 1000 Ang^3
#
#
#
# Elastic Constant Matrix: (Units=GPa)
#
#
# Indices 1 2 3 4 5 6 
#
# 1 101.3136 41.7288 32.7679 0.0000 0.0000 0.0000
# 2 41.7288 91.3293 30.6779 0.0000 0.0000 0.0000
# 3 32.7679 30.6779 50.9198 0.0000 0.0000 0.0000
# 4 0.0000 0.0000 0.0000 20.1729 0.0000 0.0000
# 5 0.0000 0.0000 0.0000 0.0000 15.0742 0.0000
# 6 0.0000 0.0000 0.0000 0.0000 0.0000 40.2502
#
#
#
# Elastic Compliance Matrix: (Units=1/GPa)
#
#
# Indices 1 2 3 4 5 6 
#
# 1 0.013589 -0.004101 -0.006274 0.000000 0.000000 0.000000
# 2 -0.004101 0.014965 -0.006377 0.000000 0.000000 0.000000
# 3 -0.006274 -0.006377 0.027518 0.000000 0.000000 0.000000
# 4 0.000000 0.000000 0.000000 0.049571 0.000000 0.000000
# 5 0.000000 0.000000 0.000000 0.000000 0.066339 0.000000
# 6 0.000000 0.000000 0.000000 0.000000 0.000000 0.024845
#
#
# Mechanical properties :
#
#
# Convention : Reuss Voigt Hill
#
# Bulk Modulus (GPa) = 44.31042 50.43466 47.37254
# Shear Modulus (GPa) = 21.02136 24.32532 22.67334
#
# Velocity S-wave (km/s) = 3.32279 3.57438 3.45088
# Velocity P-wave (km/s) = 6.16393 6.59730 6.38430
#
# Compressibility (1/GPa) = 0.02256805
#
# Stress axis : x y z
#
# Youngs Moduli (GPa) = 73.59066 66.82087 36.34003
#
# Poissons Ratio (x) = 0.27406 0.22798
# Poissons Ratio (y) = 0.30183 0.23174
# Poissons Ratio (z) = 0.46168 0.42611
#
# Static dielectric constant tensor:
#      x y z
#    x 3.610710 0.000000 0.000000 
#    y 0.000000 3.653170 0.000000 
#    z 0.000000 0.000000 3.088690 
# 
# 
# High freq. dielectric constant tensor:
#      x y z
#    x 1.748430 0.000000 0.000000 
#    y 0.000000 1.754450 0.000000 
#    z 0.000000 0.000000 1.704240 
# 
# From -- ./inp_files/16356.got.cif
#   From: 2010.03.12/outbox.cif.g09.slc.cpg/sg65_9_cif.got.tgz:16356.got - 2010.04.10 20:52:16.
