data_PCOD8274508
_publ_section_title
;
Structure prediction by ZEFSAII (Michael W. Deem and Ramdas Pophale) SiO2 
 PCOD8274508
Probable space group: C M M M
;
_chemical_formula_sum "Si O2"
_cell_formula_units_Z 88
_cell_length_a 17.969902
_cell_length_b 8.653853
_cell_length_c 28.947525
_cell_angle_alpha 90.000000
_cell_angle_beta 90.000000
_cell_angle_gamma 90.000000
_cell_volume 4501.597491
_symmetry_space_group_name_H-M "C M M M"
_symmetry_group_IT_number 65
_symmetry_cell_setting 'orthorhombic'
loop_
_space_group_symop_operation_xyz
x,y,z
-x,-y,z
x,-y,-z
-x,y,-z
-x,-y,-z
x,y,-z
-x,y,z
x,-y,z
1/2+x,1/2+y,z
1/2-x,1/2-y,z
1/2+x,1/2-y,-z
1/2-x,1/2+y,-z
1/2-x,1/2-y,-z
1/2+x,1/2+y,-z
1/2-x,1/2+y,z
1/2+x,1/2-y,z
loop_
_atom_site_type_symbol
_atom_site_label
_atom_site_fract_x
_atom_site_fract_y
_atom_site_fract_z
Si Si1 0.087638 0.677633 0.177324
Si Si2 0.916320 0.183965 0.000000
Si Si3 0.331651 0.682703 0.090315
Si Si4 0.083773 0.815273 0.647719
Si Si5 0.668966 0.683384 0.737197
Si Si6 0.088429 0.826763 0.451119
O O1 0.113230 0.500000 0.176619
O O2 0.124474 0.766698 0.135306
O O3 0.112487 0.755479 0.224697
O O4 0.000000 0.695092 0.172710
O O5 0.874176 0.246929 0.954774
O O6 0.000000 0.250726 0.000000
O O7 0.918076 0.000000 0.000000
O O8 0.326606 0.500000 0.089258
O O9 0.250000 0.750000 0.091162
O O10 0.138904 0.756720 0.687677
O O11 0.113895 0.749305 0.597712
O O12 0.000000 0.754897 0.658050
O O13 0.082548 0.000000 0.645438
O O14 0.671777 0.500000 0.739485
O O15 0.750000 0.750000 0.746647
O O16 0.113152 0.743081 0.500000
O O17 0.000000 0.832619 0.448892
O O18 0.120344 0.000000 0.453119
#
# Coordination Sequence:
#
# PCOD8274508 Si02
#       6
#    16   8  16  16  16  16
#     4  11  24  41  60  83 110 138 174 221 270 321
#     4   9  19  36  59  87 116 149 190 231 268 310
#     4  11  22  38  61  87 118 152 186 223 265 315
#     4   8  14  25  43  68  95 125 165 211 258 310
#     4  11  22  36  54  75 103 139 178 219 264 315
#     4   7   9  15  31  58  91 122 153 197 253 306
#
# _framework density 19.548614000000001
#
# number of rings (size 3 to 8) (size 9 to 14) (size 15 to 20)
#    0.000    2.455    0.000    5.182    0.000    2.909 
#    0.000    1.364    0.000    3.818    0.000    0.000 
#    0.000    2.182    0.000   20.545    0.000   16.909 
#
# Total GULP energy -545234.959454 kJ/mol
# GULP energy per Si atom -12391.703624 kJ/mol
# Density = 1.950412 g / cm^3
# Si number density = 19.548614 Si / 1000 Ang^3
#
#
#
# Elastic Constant Matrix: (Units=GPa)
#
#
# Indices 1 2 3 4 5 6 
#
# 1 77.7269 22.4510 45.9210 0.0000 0.0000 0.0000
# 2 22.4510 50.1837 27.3151 0.0000 0.0000 0.0000
# 3 45.9210 27.3151 174.9612 0.0000 0.0000 0.0000
# 4 0.0000 0.0000 0.0000 -260.6333 0.0000 0.0000
# 5 0.0000 0.0000 0.0000 0.0000 7.5240 0.0000
# 6 0.0000 0.0000 0.0000 0.0000 0.0000 -14.4559
#
#
#
# Elastic Compliance Matrix: (Units=1/GPa)
#
#
# Indices 1 2 3 4 5 6 
#
# 1 0.016505 -0.005493 -0.003474 0.000000 0.000000 0.000000
# 2 -0.005493 0.023605 -0.002244 0.000000 0.000000 0.000000
# 3 -0.003474 -0.002244 0.006978 0.000000 0.000000 0.000000
# 4 0.000000 0.000000 0.000000 -0.003837 0.000000 0.000000
# 5 0.000000 0.000000 0.000000 0.000000 0.132909 0.000000
# 6 0.000000 0.000000 0.000000 0.000000 0.000000 -0.069176
#
#
# Mechanical properties :
#
#
# Convention : Reuss Voigt Hill
#
# Bulk Modulus (GPa) = 40.54109 54.91622 47.72865
# Shear Modulus (GPa) = 36.33002 -39.70074 -1.68536
#
# Velocity S-wave (km/s) = 4.31565 -4.51141 -0.92952
# Velocity P-wave (km/s) = 6.75401 1.00798 4.82870
#
# Compressibility (1/GPa) = 0.02466633
#
# Stress axis : x y z
#
# Youngs Moduli (GPa) = 60.58857 42.36333 143.31310
#
# Poissons Ratio (x) = 0.23269 0.49792
# Poissons Ratio (y) = 0.33280 0.32154
# Poissons Ratio (z) = 0.21051 0.09505
#
# Static dielectric constant tensor:
#      x y z
#    x 3.431600 0.000000 0.000000 
#    y 0.000000 3.221240 0.000000 
#    z 0.000000 0.000000 4.233610 
# 
# 
# High freq. dielectric constant tensor:
#      x y z
#    x 1.744680 0.000000 0.000000 
#    y 0.000000 1.719110 0.000000 
#    z 0.000000 0.000000 1.795410 
# 
# From -- ./inp_files/77972.got.cif
#   From: 2010.03.12/outbox.cif.g09.slc.cpg/sg65_39_cif.got.tgz:77972.got - 2010.04.10 20:52:16.
