data_PCOD8274251
_publ_section_title
;
Structure prediction by ZEFSAII (Michael W. Deem and Ramdas Pophale) SiO2 
 PCOD8274251
Probable space group: C M M M
;
_chemical_formula_sum "Si O2"
_cell_formula_units_Z 72
_cell_length_a 18.002351
_cell_length_b 15.153896
_cell_length_c 14.541257
_cell_angle_alpha 90.000000
_cell_angle_beta 90.000000
_cell_angle_gamma 90.000000
_cell_volume 3966.938592
_symmetry_space_group_name_H-M "C M M M"
_symmetry_group_IT_number 65
_symmetry_cell_setting 'orthorhombic'
loop_
_space_group_symop_operation_xyz
x,y,z
-x,-y,z
x,-y,-z
-x,y,-z
-x,-y,-z
x,y,-z
-x,y,z
x,-y,z
1/2+x,1/2+y,z
1/2-x,1/2-y,z
1/2+x,1/2-y,-z
1/2-x,1/2+y,-z
1/2-x,1/2-y,-z
1/2+x,1/2+y,-z
1/2-x,1/2+y,z
1/2+x,1/2-y,z
loop_
_atom_site_type_symbol
_atom_site_label
_atom_site_fract_x
_atom_site_fract_y
_atom_site_fract_z
Si Si1 0.414746 0.736081 0.211981
Si Si2 0.088469 0.688146 0.601487
Si Si3 0.080222 0.500000 0.392003
Si Si4 0.357687 0.899962 0.107150
Si Si5 0.185756 0.898596 0.894839
O O1 0.500000 0.706368 0.203105
O O2 0.390060 0.742401 0.319388
O O3 0.406670 0.831084 0.163612
O O4 0.363955 0.661595 0.169183
O O5 0.117447 0.718760 0.500000
O O6 0.123130 0.591920 0.631062
O O7 0.000000 0.676183 0.597713
O O8 0.066666 0.500000 0.500000
O O9 0.000000 0.500000 0.341291
O O10 0.271540 0.877321 0.123510
O O11 0.375234 0.000000 0.140543
O O12 0.377370 0.890990 0.000000
O O13 0.168119 0.000000 0.872285
O O14 0.165575 0.876933 0.000000
#
# Coordination Sequence:
#
# PCOD8274251 Si02
#       5
#    16  16   8  16  16
#     4  11  21  29  48  80 105 125 155 205 259 293
#     4   8  15  27  42  64  97 133 163 191 231 291
#     4   7  10  20  38  56  81 123 163 185 209 262
#     4   9  19  35  52  70  97 135 169 193 232 300
#     4   9  19  37  56  69  89 131 180 210 231 279
#
# _framework density 18.150016000000001
#
# number of rings (size 3 to 8) (size 9 to 14) (size 15 to 20)
#    0.000    3.000    0.000    4.000    1.556    4.444 
#    0.000    2.222    0.000    3.333    0.000    6.222 
#    0.000    0.000    0.000    0.000    0.000    0.000 
#
# Total GULP energy -446058.074727 kJ/mol
# GULP energy per Si atom -12390.502076 kJ/mol
# Density = 1.810871 g / cm^3
# Si number density = 18.150016 Si / 1000 Ang^3
#
#
#
# Elastic Constant Matrix: (Units=GPa)
#
#
# Indices 1 2 3 4 5 6 
#
# 1 25.8033 14.9661 19.4958 0.0000 0.0000 0.0000
# 2 14.9661 58.8780 36.0024 0.0000 0.0000 0.0000
# 3 19.4958 36.0024 82.0494 0.0000 0.0000 0.0000
# 4 0.0000 0.0000 0.0000 26.8505 0.0000 0.0000
# 5 0.0000 0.0000 0.0000 0.0000 -9.5654 0.0000
# 6 0.0000 0.0000 0.0000 0.0000 0.0000 24.6737
#
#
#
# Elastic Compliance Matrix: (Units=1/GPa)
#
#
# Indices 1 2 3 4 5 6 
#
# 1 0.049464 -0.007362 -0.008523 0.000000 0.000000 0.000000
# 2 -0.007362 0.024308 -0.008917 0.000000 0.000000 0.000000
# 3 -0.008523 -0.008917 0.018126 0.000000 0.000000 0.000000
# 4 0.000000 0.000000 0.000000 0.037243 0.000000 0.000000
# 5 0.000000 0.000000 0.000000 0.000000 -0.104544 0.000000
# 6 0.000000 0.000000 0.000000 0.000000 0.000000 0.040529
#
#
# Mechanical properties :
#
#
# Convention : Reuss Voigt Hill
#
# Bulk Modulus (GPa) = 23.64362 34.18438 28.91400
# Shear Modulus (GPa) = 38.81155 14.80951 26.81053
#
# Velocity S-wave (km/s) = 4.62927 2.85958 3.84756
# Velocity P-wave (km/s) = 6.45203 5.45694 5.97523
#
# Compressibility (1/GPa) = 0.04229471
#
# Stress axis : x y z
#
# Youngs Moduli (GPa) = 20.21662 41.13879 55.17067
#
# Poissons Ratio (x) = 0.30285 0.47022
# Poissons Ratio (y) = 0.14883 0.49195
# Poissons Ratio (z) = 0.17231 0.36683
#
# Static dielectric constant tensor:
#      x y z
#    x 2.927270 0.000000 0.000000 
#    y 0.000000 3.357460 0.000000 
#    z 0.000000 0.000000 3.491040 
# 
# 
# High freq. dielectric constant tensor:
#      x y z
#    x 1.660860 0.000000 0.000000 
#    y 0.000000 1.697240 0.000000 
#    z 0.000000 0.000000 1.705480 
# 
# From -- ./inp_files/39759.got.cif
#   From: 2010.03.12/outbox.cif.g09.slc.cpg/sg65_20_cif.got.tgz:39759.got - 2010.04.10 20:52:16.
