data_PCOD8274362
_publ_section_title
;
Structure prediction by ZEFSAII (Michael W. Deem and Ramdas Pophale) SiO2 
 PCOD8274362
Probable space group: C M M M
;
_chemical_formula_sum "Si O2"
_cell_formula_units_Z 72
_cell_length_a 29.288514
_cell_length_b 14.136395
_cell_length_c 8.870430
_cell_angle_alpha 90.000000
_cell_angle_beta 90.000000
_cell_angle_gamma 90.000000
_cell_volume 3672.659640
_symmetry_space_group_name_H-M "C M M M"
_symmetry_group_IT_number 65
_symmetry_cell_setting 'orthorhombic'
loop_
_space_group_symop_operation_xyz
x,y,z
-x,-y,z
x,-y,-z
-x,y,-z
-x,-y,-z
x,y,-z
-x,y,z
x,-y,z
1/2+x,1/2+y,z
1/2-x,1/2-y,z
1/2+x,1/2-y,-z
1/2-x,1/2+y,-z
1/2-x,1/2-y,-z
1/2+x,1/2+y,-z
1/2-x,1/2+y,z
1/2+x,1/2-y,z
loop_
_atom_site_type_symbol
_atom_site_label
_atom_site_fract_x
_atom_site_fract_y
_atom_site_fract_z
Si Si1 0.586818 0.203083 0.321365
Si Si2 0.180298 0.708627 0.178360
Si Si3 0.448917 0.602018 0.678768
Si Si4 0.771217 0.105284 0.178717
Si Si5 0.500000 0.111521 0.169976
O O1 0.585556 0.192311 0.500000
O O2 0.635179 0.168210 0.258272
O O3 0.582445 0.312190 0.265619
O O4 0.545367 0.143441 0.255639
O O5 0.191928 0.816335 0.233159
O O6 0.220926 0.638986 0.229365
O O7 0.173123 0.705911 0.000000
O O8 0.451257 0.602365 0.500000
O O9 0.500000 0.617572 0.742606
O O10 0.429753 0.500000 0.735983
O O11 0.781611 0.000000 0.245635
O O12 0.772310 0.101643 0.000000
O O13 0.500000 0.000000 0.167672
O O14 0.500000 0.152274 0.000000
#
# Coordination Sequence:
#
# PCOD8274362 Si02
#       5
#    16  16  16  16   8
#     4  11  21  35  56  82 112 144 178 222 274 322
#     4   9  18  32  52  79 106 137 180 224 267 319
#     4   8  14  27  48  72  99 135 175 208 248 310
#     4   8  15  31  54  76 102 139 181 224 268 316
#     4  11  25  43  60  77 102 142 189 231 268 311
#
# _framework density 19.604320000000001
#
# number of rings (size 3 to 8) (size 9 to 14) (size 15 to 20)
#    0.000    2.778    1.111    3.000    0.000    2.667 
#    0.000    4.444    0.000    4.000    0.000    0.000 
#    0.000    0.000    0.000    0.000    0.000    0.000 
#
# Total GULP energy -446110.802841 kJ/mol
# GULP energy per Si atom -12391.966746 kJ/mol
# Density = 1.955970 g / cm^3
# Si number density = 19.604320 Si / 1000 Ang^3
#
#
#
# Elastic Constant Matrix: (Units=GPa)
#
#
# Indices 1 2 3 4 5 6 
#
# 1 121.4510 21.0869 36.4448 0.0000 0.0000 0.0000
# 2 21.0869 78.4013 20.0111 0.0000 0.0000 0.0000
# 3 36.4448 20.0111 57.2678 0.0000 0.0000 0.0000
# 4 0.0000 0.0000 0.0000 17.0792 0.0000 0.0000
# 5 0.0000 0.0000 0.0000 0.0000 14.2748 0.0000
# 6 0.0000 0.0000 0.0000 0.0000 0.0000 15.1697
#
#
#
# Elastic Compliance Matrix: (Units=1/GPa)
#
#
# Indices 1 2 3 4 5 6 
#
# 1 0.010280 -0.001202 -0.006122 0.000000 0.000000 0.000000
# 2 -0.001202 0.014144 -0.004177 0.000000 0.000000 0.000000
# 3 -0.006122 -0.004177 0.022817 0.000000 0.000000 0.000000
# 4 0.000000 0.000000 0.000000 0.058551 0.000000 0.000000
# 5 0.000000 0.000000 0.000000 0.000000 0.070053 0.000000
# 6 0.000000 0.000000 0.000000 0.000000 0.000000 0.065921
#
#
# Mechanical properties :
#
#
# Convention : Reuss Voigt Hill
#
# Bulk Modulus (GPa) = 41.25650 45.80062 43.52856
# Shear Modulus (GPa) = 18.32518 21.27657 19.80087
#
# Velocity S-wave (km/s) = 3.06069 3.29796 3.18154
# Velocity P-wave (km/s) = 5.79489 6.15754 5.97896
#
# Compressibility (1/GPa) = 0.02423860
#
# Stress axis : x y z
#
# Youngs Moduli (GPa) = 97.28098 70.69887 43.82640
#
# Poissons Ratio (x) = 0.08500 0.26829
# Poissons Ratio (y) = 0.11696 0.18308
# Poissons Ratio (z) = 0.59552 0.29534
#
# Static dielectric constant tensor:
#      x y z
#    x 3.507080 0.000000 0.000000 
#    y 0.000000 4.095580 0.000000 
#    z 0.000000 0.000000 3.122510 
# 
# 
# High freq. dielectric constant tensor:
#      x y z
#    x 1.760780 0.000000 0.000000 
#    y 0.000000 1.771760 0.000000 
#    z 0.000000 0.000000 1.718720 
# 
# From -- ./inp_files/15769.got.cif
#   From: 2010.03.12/outbox.cif.g09.slc.cpg/sg65_8_cif.got.tgz:15769.got - 2010.04.10 20:52:16.
