data_PCOD8274016
_publ_section_title
;
Structure prediction by ZEFSAII (Michael W. Deem and Ramdas Pophale) SiO2 
 PCOD8274016
Probable space group: C M M M
;
_chemical_formula_sum "Si O2"
_cell_formula_units_Z 104
_cell_length_a 23.542664
_cell_length_b 8.870732
_cell_length_c 28.683410
_cell_angle_alpha 90.000000
_cell_angle_beta 90.000000
_cell_angle_gamma 90.000000
_cell_volume 5990.262359
_symmetry_space_group_name_H-M "C M M M"
_symmetry_group_IT_number 65
_symmetry_cell_setting 'orthorhombic'
loop_
_space_group_symop_operation_xyz
x,y,z
-x,-y,z
x,-y,-z
-x,y,-z
-x,-y,-z
x,y,-z
-x,y,z
x,-y,z
1/2+x,1/2+y,z
1/2-x,1/2-y,z
1/2+x,1/2-y,-z
1/2-x,1/2+y,-z
1/2-x,1/2-y,-z
1/2+x,1/2+y,-z
1/2-x,1/2+y,z
1/2+x,1/2-y,z
loop_
_atom_site_type_symbol
_atom_site_label
_atom_site_fract_x
_atom_site_fract_y
_atom_site_fract_z
Si Si1 0.000000 0.176793 0.667771
Si Si2 0.811303 0.819629 0.639260
Si Si3 0.562904 0.319732 0.000000
Si Si4 0.000000 0.323635 0.569745
Si Si5 0.392558 0.177428 0.711076
Si Si6 0.567917 0.330759 0.900562
Si Si7 0.614774 0.327658 0.550820
Si Si8 0.063715 0.674120 0.809018
O O1 0.944537 0.220300 0.695594
O O2 0.000000 0.278633 0.622852
O O3 0.000000 0.000000 0.655686
O O4 0.750000 0.750000 0.631874
O O5 0.836961 0.743634 0.685906
O O6 0.846669 0.768400 0.593438
O O7 0.808705 0.000000 0.644728
O O8 0.592459 0.269118 0.950831
O O9 0.558818 0.500000 0.000000
O O10 0.500000 0.249884 0.000000
O O11 0.056484 0.261990 0.545885
O O12 0.000000 0.500000 0.563414
O O13 0.391732 0.203133 0.766898
O O14 0.400474 0.000000 0.699026
O O15 0.500000 0.321701 0.902676
O O16 0.588980 0.500000 0.892815
O O17 0.591257 0.239276 0.856309
O O18 0.645831 0.311444 0.500000
O O19 0.599293 0.500000 0.561417
O O20 0.055782 0.500000 0.817452
O O21 0.000000 0.741936 0.798712
#
# Coordination Sequence:
#
# PCOD8274016 Si02
#       8
#     8  16   8   8  16  16  16  16
#     4  12  22  33  53  80 106 134 167 204 251 306
#     4  11  24  41  60  80 102 133 171 209 249 299
#     4   7  10  18  31  47  73 111 158 205 242 275
#     4  12  23  35  56  85 114 140 169 203 243 294
#     4  11  21  36  55  76 103 134 166 208 256 303
#     4   8  13  21  34  53  78 115 161 204 241 283
#     4  10  22  40  60  82 110 140 168 204 248 292
#     4   9  17  28  41  63  95 126 156 198 251 298
#
# _framework density 17.361509999999999
#
# number of rings (size 3 to 8) (size 9 to 14) (size 15 to 20)
#    0.000    2.077    2.308    3.462    0.000    3.385 
#    0.000    0.385    0.000    2.308    0.000    0.000 
#    0.000    0.000    0.000    0.692    0.000    9.000 
#
# Total GULP energy -644214.330093 kJ/mol
# GULP energy per Si atom -12388.737117 kJ/mol
# Density = 1.732199 g / cm^3
# Si number density = 17.361510 Si / 1000 Ang^3
#
#
#
# Elastic Constant Matrix: (Units=GPa)
#
#
# Indices 1 2 3 4 5 6 
#
# 1 72.3158 30.9450 41.6372 0.0000 0.0000 0.0000
# 2 30.9450 52.3862 43.3200 0.0000 0.0000 0.0000
# 3 41.6372 43.3200 165.1552 0.0000 0.0000 0.0000
# 4 0.0000 0.0000 0.0000 23.7645 0.0000 0.0000
# 5 0.0000 0.0000 0.0000 0.0000 7.1992 0.0000
# 6 0.0000 0.0000 0.0000 0.0000 0.0000 22.7331
#
#
#
# Elastic Compliance Matrix: (Units=1/GPa)
#
#
# Indices 1 2 3 4 5 6 
#
# 1 0.019214 -0.009378 -0.002384 0.000000 0.000000 0.000000
# 2 -0.009378 0.028954 -0.005230 0.000000 0.000000 0.000000
# 3 -0.002384 -0.005230 0.008028 0.000000 0.000000 0.000000
# 4 0.000000 0.000000 0.000000 0.042080 0.000000 0.000000
# 5 0.000000 0.000000 0.000000 0.000000 0.138903 0.000000
# 6 0.000000 0.000000 0.000000 0.000000 0.000000 0.043989
#
#
# Mechanical properties :
#
#
# Convention : Reuss Voigt Hill
#
# Bulk Modulus (GPa) = 45.02393 57.96240 51.49317
# Shear Modulus (GPa) = 15.50116 22.33637 18.91877
#
# Velocity S-wave (km/s) = 2.99130 3.59074 3.30464
# Velocity P-wave (km/s) = 6.15792 7.11683 6.65467
#
# Compressibility (1/GPa) = 0.02221041
#
# Stress axis : x y z
#
# Youngs Moduli (GPa) = 52.04507 34.53760 124.56651
#
# Poissons Ratio (x) = 0.32391 0.29698
# Poissons Ratio (y) = 0.48810 0.65151
# Poissons Ratio (z) = 0.12408 0.18064
#
# Static dielectric constant tensor:
#      x y z
#    x 2.861040 0.000000 0.000000 
#    y 0.000000 3.199310 0.000000 
#    z 0.000000 0.000000 3.728610 
# 
# 
# High freq. dielectric constant tensor:
#      x y z
#    x 1.605920 0.000000 0.000000 
#    y 0.000000 1.667460 0.000000 
#    z 0.000000 0.000000 1.693230 
# 
# From -- ./inp_files/75845.got.cif
#   From: 2010.03.12/outbox.cif.g09.slc.cpg/sg65_38_cif.got.tgz:75845.got - 2010.04.10 20:52:16.
