data_PCOD8274380
_publ_section_title
;
Structure prediction by ZEFSAII (Michael W. Deem and Ramdas Pophale) SiO2 
 PCOD8274380
Probable space group: C M M M
;
_chemical_formula_sum "Si O2"
_cell_formula_units_Z 80
_cell_length_a 26.659568
_cell_length_b 9.686032
_cell_length_c 17.233409
_cell_angle_alpha 90.000000
_cell_angle_beta 90.000000
_cell_angle_gamma 90.000000
_cell_volume 4450.104428
_symmetry_space_group_name_H-M "C M M M"
_symmetry_group_IT_number 65
_symmetry_cell_setting 'orthorhombic'
loop_
_space_group_symop_operation_xyz
x,y,z
-x,-y,z
x,-y,-z
-x,y,-z
-x,-y,-z
x,y,-z
-x,y,z
x,-y,z
1/2+x,1/2+y,z
1/2-x,1/2-y,z
1/2+x,1/2-y,-z
1/2-x,1/2+y,-z
1/2-x,1/2-y,-z
1/2+x,1/2+y,-z
1/2-x,1/2+y,z
1/2+x,1/2-y,z
loop_
_atom_site_type_symbol
_atom_site_label
_atom_site_fract_x
_atom_site_fract_y
_atom_site_fract_z
Si Si1 0.882799 0.842994 0.412343
Si Si2 0.701353 0.500000 0.093627
Si Si3 0.183633 0.500000 0.090158
Si Si4 0.944401 0.160209 0.264891
Si Si5 0.151523 0.252675 0.820399
Si Si6 0.299648 0.166225 0.660899
O O1 0.902713 0.827259 0.500000
O O2 0.928888 0.815183 0.354302
O O3 0.840824 0.727204 0.397814
O O4 0.861884 0.000000 0.398125
O O5 0.759150 0.500000 0.120718
O O6 0.674778 0.372764 0.133402
O O7 0.695019 0.500000 0.000000
O O8 0.151089 0.627790 0.117359
O O9 0.186938 0.500000 0.000000
O O10 0.905461 0.230627 0.206472
O O11 0.000000 0.223651 0.252774
O O12 0.944749 0.000000 0.244666
O O13 0.185978 0.295707 0.748365
O O14 0.250000 0.250000 0.638898
O O15 0.293933 0.000000 0.650460
#
# Coordination Sequence:
#
# PCOD8274380 Si02
#       6
#    16   8   8  16  16  16
#     4   9  19  35  55  82 113 141 178 229 281 332
#     4  11  22  36  57  85 116 151 185 221 273 331
#     4  11  22  36  55  83 118 149 181 223 277 329
#     4   9  18  35  60  84 106 141 187 233 279 324
#     4  11  21  36  56  83 113 148 186 232 272 328
#     4  11  22  34  54  79 109 153 193 227 270 326
#
# _framework density 17.977107
#
# number of rings (size 3 to 8) (size 9 to 14) (size 15 to 20)
#    0.000    1.800    2.000    3.000    2.800    2.800 
#    0.000    2.500    0.000    3.600    0.000    2.800 
#    0.000    0.000    0.000    0.000    0.000    0.000 
#
# Total GULP energy -495790.738384 kJ/mol
# GULP energy per Si atom -12394.768460 kJ/mol
# Density = 1.793619 g / cm^3
# Si number density = 17.977107 Si / 1000 Ang^3
#
#
#
# Elastic Constant Matrix: (Units=GPa)
#
#
# Indices 1 2 3 4 5 6 
#
# 1 143.3211 64.8159 55.8864 0.0000 0.0000 0.0000
# 2 64.8159 133.6700 43.9515 0.0000 0.0000 0.0000
# 3 55.8864 43.9515 71.8921 0.0000 0.0000 0.0000
# 4 0.0000 0.0000 0.0000 32.2460 0.0000 0.0000
# 5 0.0000 0.0000 0.0000 0.0000 17.7279 0.0000
# 6 0.0000 0.0000 0.0000 0.0000 0.0000 10.2348
#
#
#
# Elastic Compliance Matrix: (Units=1/GPa)
#
#
# Indices 1 2 3 4 5 6 
#
# 1 0.010979 -0.003151 -0.006609 0.000000 0.000000 0.000000
# 2 -0.003151 0.010268 -0.003828 0.000000 0.000000 0.000000
# 3 -0.006609 -0.003828 0.021387 0.000000 0.000000 0.000000
# 4 0.000000 0.000000 0.000000 0.031012 0.000000 0.000000
# 5 0.000000 0.000000 0.000000 0.000000 0.056408 0.000000
# 6 0.000000 0.000000 0.000000 0.000000 0.000000 0.097706
#
#
# Mechanical properties :
#
#
# Convention : Reuss Voigt Hill
#
# Bulk Modulus (GPa) = 64.68496 75.35453 70.01975
# Shear Modulus (GPa) = 19.22434 24.32371 21.77403
#
# Velocity S-wave (km/s) = 3.27368 3.68236 3.48402
# Velocity P-wave (km/s) = 7.09572 7.75162 7.43091
#
# Compressibility (1/GPa) = 0.01545954
#
# Stress axis : x y z
#
# Youngs Moduli (GPa) = 91.08119 97.39454 46.75708
#
# Poissons Ratio (x) = 0.30687 0.30900
# Poissons Ratio (y) = 0.28698 0.17897
# Poissons Ratio (z) = 0.60192 0.37280
#
# Static dielectric constant tensor:
#      x y z
#    x 3.369330 0.000000 0.000000 
#    y 0.000000 3.278280 0.000000 
#    z 0.000000 0.000000 3.368280 
# 
# 
# High freq. dielectric constant tensor:
#      x y z
#    x 1.682100 0.000000 0.000000 
#    y 0.000000 1.699520 0.000000 
#    z 0.000000 0.000000 1.699160 
# 
# From -- ./inp_files/50237.got.cif
#   From: 2010.03.12/outbox.cif.g09.slc.cpg/sg65_26_cif.got.tgz:50237.got - 2010.04.10 20:52:16.
