data_PCOD8274910
_publ_section_title
;
Structure prediction by ZEFSAII (Michael W. Deem and Ramdas Pophale) SiO2 
 PCOD8274910
Probable space group: C M M M
;
_chemical_formula_sum "Si O2"
_cell_formula_units_Z 80
_cell_length_a 10.030302
_cell_length_b 19.258004
_cell_length_c 25.323700
_cell_angle_alpha 90.000000
_cell_angle_beta 90.000000
_cell_angle_gamma 90.000000
_cell_volume 4891.616957
_symmetry_space_group_name_H-M "C M M M"
_symmetry_group_IT_number 65
_symmetry_cell_setting 'orthorhombic'
loop_
_space_group_symop_operation_xyz
x,y,z
-x,-y,z
x,-y,-z
-x,y,-z
-x,-y,-z
x,y,-z
-x,y,z
x,-y,z
1/2+x,1/2+y,z
1/2-x,1/2-y,z
1/2+x,1/2-y,-z
1/2-x,1/2+y,-z
1/2-x,1/2-y,-z
1/2+x,1/2+y,-z
1/2-x,1/2+y,z
1/2+x,1/2-y,z
loop_
_atom_site_type_symbol
_atom_site_label
_atom_site_fract_x
_atom_site_fract_y
_atom_site_fract_z
Si Si1 0.350679 0.082650 0.355042
Si Si2 0.350732 0.582645 0.441224
Si Si3 0.652575 0.419898 0.148738
Si Si4 0.350710 0.082486 0.762397
Si Si5 0.347601 0.688945 0.939556
O O1 0.500000 0.107116 0.369489
O O2 0.249632 0.115155 0.398008
O O3 0.312288 0.109391 0.296288
O O4 0.343083 0.000000 0.356230
O O5 0.308692 0.607570 0.500000
O O6 0.500000 0.608554 0.428081
O O7 0.346100 0.500000 0.439014
O O8 0.500000 0.410896 0.167153
O O9 0.686500 0.500000 0.137038
O O10 0.745109 0.388549 0.195212
O O11 0.682161 0.378855 0.095059
O O12 0.500000 0.107747 0.777374
O O13 0.345648 0.000000 0.762290
O O14 0.500000 0.714269 0.932343
O O15 0.250000 0.750000 0.920707
O O16 0.318288 0.668216 0.000000
#
# Coordination Sequence:
#
# PCOD8274910 Si02
#       5
#    16  16  16  16  16
#     4   8  13  20  29  41  58  83 116 152 190 232
#     4   8  13  19  25  35  53  78 111 152 194 232
#     4   9  17  28  43  64  86 107 135 171 208 245
#     4   8  14  24  36  51  73  99 126 159 200 243
#     4   9  18  32  48  65  86 112 140 169 202 243
#
# _framework density 16.354509
#
# number of rings (size 3 to 8) (size 9 to 14) (size 15 to 20)
#    0.000    3.600    0.000    1.800    0.000    2.400 
#    0.000    8.000    0.000    0.000    0.000    5.600 
#    0.000    0.000    0.000    0.000    0.000    1.000 
#
# Total GULP energy -495715.685048 kJ/mol
# GULP energy per Si atom -12392.892126 kJ/mol
# Density = 1.631729 g / cm^3
# Si number density = 16.354509 Si / 1000 Ang^3
#
#
#
# Elastic Constant Matrix: (Units=GPa)
#
#
# Indices 1 2 3 4 5 6 
#
# 1 110.5563 31.0163 89.7998 0.0000 0.0000 0.0000
# 2 31.0163 26.5507 33.1676 0.0000 0.0000 0.0000
# 3 89.7998 33.1676 128.8748 0.0000 0.0000 0.0000
# 4 0.0000 0.0000 0.0000 2.0855 0.0000 0.0000
# 5 0.0000 0.0000 0.0000 0.0000 35.7739 0.0000
# 6 0.0000 0.0000 0.0000 0.0000 0.0000 12.5938
#
#
#
# Elastic Compliance Matrix: (Units=1/GPa)
#
#
# Indices 1 2 3 4 5 6 
#
# 1 0.022464 -0.009858 -0.013116 0.000000 0.000000 0.000000
# 2 -0.009858 0.059836 -0.008531 0.000000 0.000000 0.000000
# 3 -0.013116 -0.008531 0.019094 0.000000 0.000000 0.000000
# 4 0.000000 0.000000 0.000000 0.479507 0.000000 0.000000
# 5 0.000000 0.000000 0.000000 0.000000 0.027953 0.000000
# 6 0.000000 0.000000 0.000000 0.000000 0.000000 0.079404
#
#
# Mechanical properties :
#
#
# Convention : Reuss Voigt Hill
#
# Bulk Modulus (GPa) = 26.05146 63.77212 44.91179
# Shear Modulus (GPa) = 6.54396 17.55718 12.05057
#
# Velocity S-wave (km/s) = 2.00250 3.28004 2.71741
# Velocity P-wave (km/s) = 4.61633 7.30911 6.11284
#
# Compressibility (1/GPa) = 0.03838556
#
# Stress axis : x y z
#
# Youngs Moduli (GPa) = 44.51498 16.71231 52.37177
#
# Poissons Ratio (x) = 0.16475 0.68691
# Poissons Ratio (y) = 0.43882 0.44677
# Poissons Ratio (z) = 0.58386 0.14257
#
# Static dielectric constant tensor:
#      x y z
#    x 3.361010 0.000000 0.000000 
#    y 0.000000 2.436710 0.000000 
#    z 0.000000 0.000000 3.398060 
# 
# 
# High freq. dielectric constant tensor:
#      x y z
#    x 1.637190 0.000000 0.000000 
#    y 0.000000 1.552900 0.000000 
#    z 0.000000 0.000000 1.638490 
# 
# From -- ./inp_files/69690.got.cif
#   From: 2010.03.12/outbox.cif.g09.slc.cpg/sg65_35_cif.got.tgz:69690.got - 2010.04.10 20:52:16.
