data_PCOD8274560
_publ_section_title
;
Structure prediction by ZEFSAII (Michael W. Deem and Ramdas Pophale) SiO2 
 PCOD8274560
Probable space group: C M M M
;
_chemical_formula_sum "Si O2"
_cell_formula_units_Z 80
_cell_length_a 8.717699
_cell_length_b 18.526136
_cell_length_c 25.766698
_cell_angle_alpha 90.000000
_cell_angle_beta 90.000000
_cell_angle_gamma 90.000000
_cell_volume 4161.457705
_symmetry_space_group_name_H-M "C M M M"
_symmetry_group_IT_number 65
_symmetry_cell_setting 'orthorhombic'
loop_
_space_group_symop_operation_xyz
x,y,z
-x,-y,z
x,-y,-z
-x,y,-z
-x,-y,-z
x,y,-z
-x,y,z
x,-y,z
1/2+x,1/2+y,z
1/2-x,1/2-y,z
1/2+x,1/2-y,-z
1/2-x,1/2+y,-z
1/2-x,1/2-y,-z
1/2+x,1/2+y,-z
1/2-x,1/2+y,z
1/2+x,1/2-y,z
loop_
_atom_site_type_symbol
_atom_site_label
_atom_site_fract_x
_atom_site_fract_y
_atom_site_fract_z
Si Si1 0.182911 0.579779 0.500000
Si Si2 0.818771 0.326651 0.710397
Si Si3 0.319452 0.415246 0.000000
Si Si4 0.817847 0.419287 0.194631
Si Si5 0.682373 0.829788 0.095510
Si Si6 0.181294 0.673741 0.594405
O O1 0.251738 0.500000 0.500000
O O2 0.244816 0.617450 0.552264
O O3 0.000000 0.579151 0.500000
O O4 0.750000 0.250000 0.726451
O O5 0.758768 0.386679 0.750745
O O6 0.766145 0.349628 0.652367
O O7 0.000000 0.319023 0.713614
O O8 0.244498 0.379431 0.950081
O O9 0.281086 0.500000 0.000000
O O10 0.500000 0.400499 0.000000
O O11 0.749082 0.500000 0.188102
O O12 0.760870 0.367362 0.148576
O O13 0.000000 0.423476 0.194069
O O14 0.500000 0.824930 0.091922
O O15 0.750000 0.750000 0.091700
O O16 0.250000 0.750000 0.578886
O O17 0.000000 0.679768 0.591558
#
# Coordination Sequence:
#
# PCOD8274560 Si02
#       6
#     8  16   8  16  16  16
#     4   9  17  28  43  67  96 123 158 204 248 289
#     4   9  17  30  49  72  97 126 162 203 246 294
#     4  11  24  41  60  83 111 139 170 211 256 303
#     4   9  18  32  51  76 103 131 166 208 252 298
#     4  11  22  37  58  81 107 139 175 213 253 300
#     4   9  17  29  47  69  93 125 162 201 245 292
#
# _framework density 19.224032999999999
#
# number of rings (size 3 to 8) (size 9 to 14) (size 15 to 20)
#    0.000    2.400    0.000    2.700    0.000    2.400 
#    0.000    5.000    0.000    4.200    0.000    5.600 
#    0.000    0.000    0.000    0.000    0.000    0.000 
#
# Total GULP energy -495943.618357 kJ/mol
# GULP energy per Si atom -12398.590459 kJ/mol
# Density = 1.918028 g / cm^3
# Si number density = 19.224033 Si / 1000 Ang^3
#
#
#
# Elastic Constant Matrix: (Units=GPa)
#
#
# Indices 1 2 3 4 5 6 
#
# 1 33.4717 34.5387 29.2682 0.0000 0.0000 0.0000
# 2 34.5387 169.9224 102.9898 0.0000 0.0000 0.0000
# 3 29.2682 102.9898 165.0473 0.0000 0.0000 0.0000
# 4 0.0000 0.0000 0.0000 32.3591 0.0000 0.0000
# 5 0.0000 0.0000 0.0000 0.0000 40.6102 0.0000
# 6 0.0000 0.0000 0.0000 0.0000 0.0000 22.7139
#
#
#
# Elastic Compliance Matrix: (Units=1/GPa)
#
#
# Indices 1 2 3 4 5 6 
#
# 1 0.038798 -0.005976 -0.003151 0.000000 0.000000 0.000000
# 2 -0.005976 0.010385 -0.005421 0.000000 0.000000 0.000000
# 3 -0.003151 -0.005421 0.010000 0.000000 0.000000 0.000000
# 4 0.000000 0.000000 0.000000 0.030903 0.000000 0.000000
# 5 0.000000 0.000000 0.000000 0.000000 0.024624 0.000000
# 6 0.000000 0.000000 0.000000 0.000000 0.000000 0.044026
#
#
# Mechanical properties :
#
#
# Convention : Reuss Voigt Hill
#
# Bulk Modulus (GPa) = 33.23627 78.00387 55.62007
# Shear Modulus (GPa) = 25.27018 32.57964 28.92491
#
# Velocity S-wave (km/s) = 3.62955 4.12118 3.88315
# Velocity P-wave (km/s) = 5.90689 7.95675 7.00718
#
# Compressibility (1/GPa) = 0.03008762
#
# Stress axis : x y z
#
# Youngs Moduli (GPa) = 25.77450 96.29070 99.99931
#
# Poissons Ratio (x) = 0.57547 0.31508
# Poissons Ratio (y) = 0.15404 0.54205
# Poissons Ratio (z) = 0.08121 0.52195
#
# Static dielectric constant tensor:
#      x y z
#    x 3.220540 0.000000 0.000000 
#    y 0.000000 3.589740 0.000000 
#    z 0.000000 0.000000 3.940650 
# 
# 
# High freq. dielectric constant tensor:
#      x y z
#    x 1.715280 0.000000 0.000000 
#    y 0.000000 1.753060 0.000000 
#    z 0.000000 0.000000 1.768360 
# 
# From -- ./inp_files/72904.got.cif
#   From: 2010.03.12/outbox.cif.g09.slc.cpg/sg65_37_cif.got.tgz:72904.got - 2010.04.10 20:52:16.
