data_PCOD8274468
_publ_section_title
;
Structure prediction by ZEFSAII (Michael W. Deem and Ramdas Pophale) SiO2 
 PCOD8274468
Probable space group: C M M M
;
_chemical_formula_sum "Si O2"
_cell_formula_units_Z 80
_cell_length_a 18.600086
_cell_length_b 9.377356
_cell_length_c 25.771543
_cell_angle_alpha 90.000000
_cell_angle_beta 90.000000
_cell_angle_gamma 90.000000
_cell_volume 4495.062944
_symmetry_space_group_name_H-M "C M M M"
_symmetry_group_IT_number 65
_symmetry_cell_setting 'orthorhombic'
loop_
_space_group_symop_operation_xyz
x,y,z
-x,-y,z
x,-y,-z
-x,y,-z
-x,-y,-z
x,y,-z
-x,y,z
x,-y,z
1/2+x,1/2+y,z
1/2-x,1/2-y,z
1/2+x,1/2-y,-z
1/2-x,1/2+y,-z
1/2-x,1/2-y,-z
1/2+x,1/2+y,-z
1/2-x,1/2+y,z
1/2+x,1/2-y,z
loop_
_atom_site_type_symbol
_atom_site_label
_atom_site_fract_x
_atom_site_fract_y
_atom_site_fract_z
Si Si1 0.914550 0.159715 0.556840
Si Si2 0.916626 0.838124 0.939768
Si Si3 0.414376 0.158038 0.650748
Si Si4 0.675018 0.829712 0.860140
Si Si5 0.920150 0.669526 0.764111
O O1 0.892255 0.221457 0.500000
O O2 0.880499 0.250631 0.603763
O O3 0.000000 0.159767 0.561439
O O4 0.884860 0.000000 0.562467
O O5 0.870958 0.721645 0.909062
O O6 0.000000 0.808490 0.928698
O O7 0.896716 0.000000 0.922954
O O8 0.898867 0.816909 0.000000
O O9 0.500000 0.152769 0.646839
O O10 0.393722 0.223881 0.707256
O O11 0.382100 0.000000 0.644888
O O12 0.750000 0.750000 0.861159
O O13 0.634932 0.779061 0.807833
O O14 0.685040 0.000000 0.863012
O O15 0.924465 0.500000 0.762110
O O16 0.000000 0.730113 0.776840
#
# Coordination Sequence:
#
# PCOD8274468 Si02
#       5
#    16  16  16  16  16
#     4   8  13  20  29  45  75 112 143 173 216 270
#     4   9  19  37  59  81 105 131 160 198 242 286
#     4   8  13  22  37  56  77 104 143 187 226 269
#     4  11  22  35  52  74 102 134 167 203 243 289
#     4   8  15  29  48  68  90 119 156 198 242 285
#
# _framework density 17.797305000000001
#
# number of rings (size 3 to 8) (size 9 to 14) (size 15 to 20)
#    0.000    3.200    0.000    3.600    0.000    2.400 
#    0.000    5.000    0.000    4.800    0.000    0.000 
#    0.000    0.800    0.000    1.800    0.000    4.800 
#
# Total GULP energy -495688.907600 kJ/mol
# GULP energy per Si atom -12392.222690 kJ/mol
# Density = 1.775680 g / cm^3
# Si number density = 17.797305 Si / 1000 Ang^3
#
#
#
# Elastic Constant Matrix: (Units=GPa)
#
#
# Indices 1 2 3 4 5 6 
#
# 1 58.6891 36.8903 56.3350 0.0000 0.0000 0.0000
# 2 36.8903 76.9290 63.0255 0.0000 0.0000 0.0000
# 3 56.3350 63.0255 147.8431 0.0000 0.0000 0.0000
# 4 0.0000 0.0000 0.0000 25.6629 0.0000 0.0000
# 5 0.0000 0.0000 0.0000 0.0000 0.2578 0.0000
# 6 0.0000 0.0000 0.0000 0.0000 0.0000 8.7142
#
#
#
# Elastic Compliance Matrix: (Units=1/GPa)
#
#
# Indices 1 2 3 4 5 6 
#
# 1 0.029488 -0.007584 -0.008003 0.000000 0.000000 0.000000
# 2 -0.007584 0.021926 -0.006457 0.000000 0.000000 0.000000
# 3 -0.008003 -0.006457 0.012566 0.000000 0.000000 0.000000
# 4 0.000000 0.000000 0.000000 0.038967 0.000000 0.000000
# 5 0.000000 0.000000 0.000000 0.000000 3.879622 0.000000
# 6 0.000000 0.000000 0.000000 0.000000 0.000000 0.114755
#
#
# Mechanical properties :
#
#
# Convention : Reuss Voigt Hill
#
# Bulk Modulus (GPa) = 50.27241 66.21811 58.24526
# Shear Modulus (GPa) = 1.20539 15.40766 8.30652
#
# Velocity S-wave (km/s) = 0.82387 2.94552 2.16274
# Velocity P-wave (km/s) = 5.40495 6.98969 6.24777
#
# Compressibility (1/GPa) = 0.01989163
#
# Stress axis : x y z
#
# Youngs Moduli (GPa) = 33.91180 45.60808 79.57772
#
# Poissons Ratio (x) = 0.34588 0.63689
# Poissons Ratio (y) = 0.25718 0.51385
# Poissons Ratio (z) = 0.27141 0.29450
#
# Static dielectric constant tensor:
#      x y z
#    x 2.885090 0.000000 0.000000 
#    y 0.000000 3.248360 0.000000 
#    z 0.000000 0.000000 3.715130 
# 
# 
# High freq. dielectric constant tensor:
#      x y z
#    x 1.637280 0.000000 0.000000 
#    y 0.000000 1.669590 0.000000 
#    z 0.000000 0.000000 1.708340 
# 
# From -- ./inp_files/72705.got.cif
#   From: 2010.03.12/outbox.cif.g09.slc.cpg/sg65_37_cif.got.tgz:72705.got - 2010.04.10 20:52:16.
