data_PCOD8274226
_publ_section_title
;
Structure prediction by ZEFSAII (Michael W. Deem and Ramdas Pophale) SiO2 
 PCOD8274226
Probable space group: C M M M
;
_chemical_formula_sum "Si O2"
_cell_formula_units_Z 72
_cell_length_a 27.679632
_cell_length_b 19.243743
_cell_length_c 8.881203
_cell_angle_alpha 90.000000
_cell_angle_beta 90.000000
_cell_angle_gamma 90.000000
_cell_volume 4730.659144
_symmetry_space_group_name_H-M "C M M M"
_symmetry_group_IT_number 65
_symmetry_cell_setting 'orthorhombic'
loop_
_space_group_symop_operation_xyz
x,y,z
-x,-y,z
x,-y,-z
-x,y,-z
-x,-y,-z
x,y,-z
-x,y,z
x,-y,z
1/2+x,1/2+y,z
1/2-x,1/2-y,z
1/2+x,1/2-y,-z
1/2-x,1/2+y,-z
1/2-x,1/2-y,-z
1/2+x,1/2+y,-z
1/2-x,1/2+y,z
1/2+x,1/2-y,z
loop_
_atom_site_type_symbol
_atom_site_label
_atom_site_fract_x
_atom_site_fract_y
_atom_site_fract_z
Si Si1 0.848283 0.500000 0.326724
Si Si2 0.234146 0.000000 0.670849
Si Si3 0.597045 0.124229 0.177373
Si Si4 0.500000 0.919379 0.678199
Si Si5 0.772198 0.858313 0.178135
Si Si6 0.820681 0.278529 0.176448
O O1 0.866435 0.500000 0.500000
O O2 0.791411 0.500000 0.313900
O O3 0.868231 0.434394 0.239640
O O4 0.212981 0.931080 0.747841
O O5 0.216772 0.000000 0.500000
O O6 0.545876 0.121973 0.259482
O O7 0.624942 0.196397 0.216350
O O8 0.589012 0.114468 0.000000
O O9 0.500000 0.916000 0.500000
O O10 0.500000 0.000000 0.732979
O O11 0.812049 0.800711 0.230023
O O12 0.720231 0.831200 0.241102
O O13 0.771684 0.869573 0.000000
O O14 0.811845 0.280649 0.000000
#
# Coordination Sequence:
#
# PCOD8274226 Si02
#       6
#     8   8  16   8  16  16
#     4  11  21  30  40  61  93 125 151 185 228 267
#     4  11  21  29  40  66  97 122 154 188 218 263
#     4  11  20  32  50  67  84 114 158 198 225 260
#     4  11  23  35  45  63  94 123 148 187 230 268
#     4   9  16  30  48  65  87 118 150 184 226 267
#     4   8  16  29  47  68  87 110 150 194 226 261
#
# _framework density 15.219866
#
# number of rings (size 3 to 8) (size 9 to 14) (size 15 to 20)
#    0.000    2.111    3.333    3.000    0.000    1.333 
#    0.000    4.444    0.000    0.000    0.000    0.000 
#    0.000    0.889    0.000   10.222    0.000    4.000 
#
# Total GULP energy -446189.905603 kJ/mol
# GULP energy per Si atom -12394.164045 kJ/mol
# Density = 1.518523 g / cm^3
# Si number density = 15.219866 Si / 1000 Ang^3
#
#
#
# Elastic Constant Matrix: (Units=GPa)
#
#
# Indices 1 2 3 4 5 6 
#
# 1 81.7003 50.4329 32.8835 0.0000 0.0000 0.0000
# 2 50.4329 129.5959 41.0177 0.0000 0.0000 0.0000
# 3 32.8835 41.0177 59.3562 0.0000 0.0000 0.0000
# 4 0.0000 0.0000 0.0000 -9.5458 0.0000 0.0000
# 5 0.0000 0.0000 0.0000 0.0000 17.9638 0.0000
# 6 0.0000 0.0000 0.0000 0.0000 0.0000 30.0393
#
#
#
# Elastic Compliance Matrix: (Units=1/GPa)
#
#
# Indices 1 2 3 4 5 6 
#
# 1 0.017889 -0.004896 -0.006528 0.000000 0.000000 0.000000
# 2 -0.004896 0.011216 -0.005039 0.000000 0.000000 0.000000
# 3 -0.006528 -0.005039 0.023946 0.000000 0.000000 0.000000
# 4 0.000000 0.000000 0.000000 -0.104758 0.000000 0.000000
# 5 0.000000 0.000000 0.000000 0.000000 0.055668 0.000000
# 6 0.000000 0.000000 0.000000 0.000000 0.000000 0.033290
#
#
# Mechanical properties :
#
#
# Convention : Reuss Voigt Hill
#
# Bulk Modulus (GPa) = 49.68379 57.70228 53.69303
# Shear Modulus (GPa) = 65.03346 17.44600 41.23973
#
# Velocity S-wave (km/s) = 6.54386 3.38933 5.21103
# Velocity P-wave (km/s) = 9.47687 7.30147 8.45939
#
# Compressibility (1/GPa) = 0.02012729
#
# Stress axis : x y z
#
# Youngs Moduli (GPa) = 55.89971 89.15643 41.76126
#
# Poissons Ratio (x) = 0.43648 0.27260
# Poissons Ratio (y) = 0.27367 0.21042
# Poissons Ratio (z) = 0.36489 0.44923
#
# Static dielectric constant tensor:
#      x y z
#    x 2.875740 0.000000 0.000000 
#    y 0.000000 2.912750 0.000000 
#    z 0.000000 0.000000 2.873170 
# 
# 
# High freq. dielectric constant tensor:
#      x y z
#    x 1.554070 0.000000 0.000000 
#    y 0.000000 1.574720 0.000000 
#    z 0.000000 0.000000 1.578010 
# 
# From -- ./inp_files/16222.got.cif
#   From: 2010.03.12/outbox.cif.g09.slc.cpg/sg65_9_cif.got.tgz:16222.got - 2010.04.10 20:52:16.
