data_PCOD8274885
_publ_section_title
;
Structure prediction by ZEFSAII (Michael W. Deem and Ramdas Pophale) SiO2 
 PCOD8274885
Probable space group: C M M M
;
_chemical_formula_sum "Si O2"
_cell_formula_units_Z 104
_cell_length_a 23.728028
_cell_length_b 13.968954
_cell_length_c 18.779410
_cell_angle_alpha 90.000000
_cell_angle_beta 90.000000
_cell_angle_gamma 90.000000
_cell_volume 6224.543081
_symmetry_space_group_name_H-M "C M M M"
_symmetry_group_IT_number 65
_symmetry_cell_setting 'orthorhombic'
loop_
_space_group_symop_operation_xyz
x,y,z
-x,-y,z
x,-y,-z
-x,y,-z
-x,-y,-z
x,y,-z
-x,y,z
x,-y,z
1/2+x,1/2+y,z
1/2-x,1/2-y,z
1/2+x,1/2-y,-z
1/2-x,1/2+y,-z
1/2-x,1/2-y,-z
1/2+x,1/2+y,-z
1/2-x,1/2+y,z
1/2+x,1/2-y,z
loop_
_atom_site_type_symbol
_atom_site_label
_atom_site_fract_x
_atom_site_fract_y
_atom_site_fract_z
Si Si1 0.234340 0.895409 0.168662
Si Si2 0.270715 0.394100 0.662587
Si Si3 0.935111 0.391035 0.416887
Si Si4 0.935458 0.207858 0.915644
Si Si5 0.839980 0.283981 0.336931
Si Si6 0.433752 0.500000 0.077219
Si Si7 0.339357 0.219754 0.168801
O O1 0.229691 0.897118 0.253005
O O2 0.298474 0.867771 0.147474
O O3 0.190476 0.817205 0.141182
O O4 0.220259 0.000000 0.136095
O O5 0.281362 0.500000 0.630160
O O6 0.209285 0.356746 0.639039
O O7 0.320435 0.322225 0.637497
O O8 0.922919 0.378898 0.500000
O O9 0.921220 0.500000 0.393163
O O10 0.897418 0.314914 0.374632
O O11 0.000000 0.367418 0.399641
O O12 0.918909 0.101084 0.884432
O O13 0.897785 0.286458 0.874576
O O14 0.000000 0.232646 0.898075
O O15 0.924708 0.212170 0.000000
O O16 0.851064 0.282772 0.252697
O O17 0.500000 0.500000 0.064301
O O18 0.403968 0.500000 0.000000
#
# Coordination Sequence:
#
# PCOD8274885 Si02
#       7
#    16  16  16  16  16   8  16
#     4   8  15  28  43  62  91 120 146 179 222 270
#     4   8  14  26  44  66  94 122 146 179 227 276
#     4   9  18  32  49  69  94 124 154 185 225 267
#     4   9  17  29  44  62  88 119 148 185 232 275
#     4   9  16  27  46  70  91 117 151 188 227 265
#     4   7  12  24  40  58  80 110 145 175 216 272
#     4   9  17  27  45  70  87 114 152 183 223 268
#
# _framework density 16.708054000000001
#
# number of rings (size 3 to 8) (size 9 to 14) (size 15 to 20)
#    0.000    3.462    0.000    3.692    1.077    1.231 
#    0.000    3.077    0.000    3.692    0.000    2.154 
#    0.000    0.000    0.000    0.000    0.000    0.000 
#
# Total GULP energy -644180.847549 kJ/mol
# GULP energy per Si atom -12388.093222 kJ/mol
# Density = 1.667003 g / cm^3
# Si number density = 16.708054 Si / 1000 Ang^3
#
#
#
# Elastic Constant Matrix: (Units=GPa)
#
#
# Indices 1 2 3 4 5 6 
#
# 1 96.8913 44.7385 37.8651 0.0000 0.0000 0.0000
# 2 44.7385 100.7054 22.1273 0.0000 0.0000 0.0000
# 3 37.8651 22.1273 33.1926 0.0000 0.0000 0.0000
# 4 0.0000 0.0000 0.0000 13.4741 0.0000 0.0000
# 5 0.0000 0.0000 0.0000 0.0000 11.6882 0.0000
# 6 0.0000 0.0000 0.0000 0.0000 0.0000 25.6112
#
#
#
# Elastic Compliance Matrix: (Units=1/GPa)
#
#
# Indices 1 2 3 4 5 6 
#
# 1 0.020295 -0.004603 -0.020083 0.000000 0.000000 0.000000
# 2 -0.004603 0.012678 -0.003200 0.000000 0.000000 0.000000
# 3 -0.020083 -0.003200 0.055171 0.000000 0.000000 0.000000
# 4 0.000000 0.000000 0.000000 0.074217 0.000000 0.000000
# 5 0.000000 0.000000 0.000000 0.000000 0.085556 0.000000
# 6 0.000000 0.000000 0.000000 0.000000 0.000000 0.039045
#
#
# Mechanical properties :
#
#
# Convention : Reuss Voigt Hill
#
# Bulk Modulus (GPa) = 30.89245 48.91679 39.90462
# Shear Modulus (GPa) = 14.14325 18.55858 16.35092
#
# Velocity S-wave (km/s) = 2.91261 3.33642 3.13169
# Velocity P-wave (km/s) = 5.46267 6.64704 6.08375
#
# Compressibility (1/GPa) = 0.03237037
#
# Stress axis : x y z
#
# Youngs Moduli (GPa) = 49.27379 78.87566 18.12557
#
# Poissons Ratio (x) = 0.36309 0.36401
# Poissons Ratio (y) = 0.22682 0.05801
# Poissons Ratio (z) = 0.98956 0.25243
#
# Static dielectric constant tensor:
#      x y z
#    x 3.032390 0.000000 0.000000 
#    y 0.000000 3.520320 0.000000 
#    z 0.000000 0.000000 2.668910 
# 
# 
# High freq. dielectric constant tensor:
#      x y z
#    x 1.639670 0.000000 0.000000 
#    y 0.000000 1.638940 0.000000 
#    z 0.000000 0.000000 1.597900 
# 
# From -- ./inp_files/65509.got.cif
#   From: 2010.03.12/outbox.cif.g09.slc.cpg/sg65_33_cif.got.tgz:65509.got - 2010.04.10 20:52:16.
