data_PCOD8274070
_publ_section_title
;
Structure prediction by ZEFSAII (Michael W. Deem and Ramdas Pophale) SiO2 
 PCOD8274070
Probable space group: C M M M
;
_chemical_formula_sum "Si O2"
_cell_formula_units_Z 112
_cell_length_a 13.968607
_cell_length_b 23.161901
_cell_length_c 17.189173
_cell_angle_alpha 90.000000
_cell_angle_beta 90.000000
_cell_angle_gamma 90.000000
_cell_volume 5561.376308
_symmetry_space_group_name_H-M "C M M M"
_symmetry_group_IT_number 65
_symmetry_cell_setting 'orthorhombic'
loop_
_space_group_symop_operation_xyz
x,y,z
-x,-y,z
x,-y,-z
-x,y,-z
-x,-y,-z
x,y,-z
-x,y,z
x,-y,z
1/2+x,1/2+y,z
1/2-x,1/2-y,z
1/2+x,1/2-y,-z
1/2-x,1/2+y,-z
1/2-x,1/2-y,-z
1/2+x,1/2+y,-z
1/2-x,1/2+y,z
1/2+x,1/2-y,z
loop_
_atom_site_type_symbol
_atom_site_label
_atom_site_fract_x
_atom_site_fract_y
_atom_site_fract_z
Si Si1 0.280998 0.934924 0.839691
Si Si2 0.897208 0.659715 0.915526
Si Si3 0.393250 0.717643 0.350073
Si Si4 0.144147 0.767545 0.178941
Si Si5 0.703657 0.167911 0.408564
Si Si6 0.112352 0.566743 0.680349
Si Si7 0.389134 0.618491 0.090829
O O1 0.321382 0.890121 0.901522
O O2 0.323253 0.918902 0.755590
O O3 0.166952 0.925655 0.850978
O O4 0.310022 0.000000 0.860732
O O5 0.904727 0.710150 0.852759
O O6 0.000000 0.628521 0.915326
O O7 0.873630 0.686997 0.000000
O O8 0.500000 0.706788 0.385936
O O9 0.405426 0.710300 0.257399
O O10 0.358599 0.782409 0.368184
O O11 0.315611 0.671854 0.383147
O O12 0.250000 0.750000 0.202164
O O13 0.139923 0.816187 0.112755
O O14 0.697521 0.176657 0.500000
O O15 0.656435 0.106435 0.387273
O O16 0.124242 0.500000 0.655412
O O17 0.000000 0.580751 0.695906
O O18 0.500000 0.607555 0.107400
O O19 0.365164 0.607813 0.000000
#
# Coordination Sequence:
#
# PCOD8274070 Si02
#       7
#    16  16  16  16  16  16  16
#     4  11  23  40  60  82 112 152 199 245 292 346
#     4  11  23  36  54  83 116 152 194 242 299 354
#     4  11  22  38  60  88 123 163 201 236 286 351
#     4  12  21  37  61  84 115 153 196 244 293 344
#     4  11  23  39  60  92 126 155 192 238 291 351
#     4  10  22  41  65  90 116 152 196 242 295 354
#     4  11  24  40  59  85 117 156 203 252 301 350
#
# _framework density 20.1389
#
# number of rings (size 3 to 8) (size 9 to 14) (size 15 to 20)
#    0.000    1.000    2.857    5.571    0.000    6.286 
#    0.000    2.143    0.000    1.286    0.000    1.000 
#    0.000    0.000    0.000    0.000    0.000    0.000 
#
# Total GULP energy -694224.344758 kJ/mol
# GULP energy per Si atom -12396.863299 kJ/mol
# Density = 2.009306 g / cm^3
# Si number density = 20.138900 Si / 1000 Ang^3
#
#
#
# Elastic Constant Matrix: (Units=GPa)
#
#
# Indices 1 2 3 4 5 6 
#
# 1 126.2653 27.7487 29.6551 0.0000 0.0000 0.0000
# 2 27.7487 83.5452 26.8833 0.0000 0.0000 0.0000
# 3 29.6551 26.8833 89.6103 0.0000 0.0000 0.0000
# 4 0.0000 0.0000 0.0000 23.8506 0.0000 0.0000
# 5 0.0000 0.0000 0.0000 0.0000 18.2840 0.0000
# 6 0.0000 0.0000 0.0000 0.0000 0.0000 20.3373
#
#
#
# Elastic Compliance Matrix: (Units=1/GPa)
#
#
# Indices 1 2 3 4 5 6 
#
# 1 0.008949 -0.002235 -0.002291 0.000000 0.000000 0.000000
# 2 -0.002235 0.013807 -0.003402 0.000000 0.000000 0.000000
# 3 -0.002291 -0.003402 0.012938 0.000000 0.000000 0.000000
# 4 0.000000 0.000000 0.000000 0.041928 0.000000 0.000000
# 5 0.000000 0.000000 0.000000 0.000000 0.054693 0.000000
# 6 0.000000 0.000000 0.000000 0.000000 0.000000 0.049171
#
#
# Mechanical properties :
#
#
# Convention : Reuss Voigt Hill
#
# Bulk Modulus (GPa) = 50.41052 51.99943 51.20497
# Shear Modulus (GPa) = 24.51524 26.83662 25.67593
#
# Velocity S-wave (km/s) = 3.49278 3.65441 3.57451
# Velocity P-wave (km/s) = 6.43053 6.60929 6.52052
#
# Compressibility (1/GPa) = 0.01983713
#
# Stress axis : x y z
#
# Youngs Moduli (GPa) = 111.74288 72.42820 77.28975
#
# Poissons Ratio (x) = 0.16189 0.17707
# Poissons Ratio (y) = 0.24976 0.26297
# Poissons Ratio (z) = 0.25600 0.24643
#
# Static dielectric constant tensor:
#      x y z
#    x 3.972260 0.000000 0.000000 
#    y 0.000000 3.511170 0.000000 
#    z 0.000000 0.000000 3.565970 
# 
# 
# High freq. dielectric constant tensor:
#      x y z
#    x 1.805980 0.000000 0.000000 
#    y 0.000000 1.766520 0.000000 
#    z 0.000000 0.000000 1.780030 
# 
# From -- ./inp_files/40859.got.cif
#   From: 2010.03.12/outbox.cif.g09.slc.cpg/sg65_21_cif.got.tgz:40859.got - 2010.04.10 20:52:16.
