data_PCOD8274338
_publ_section_title
;
Structure prediction by ZEFSAII (Michael W. Deem and Ramdas Pophale) SiO2 
 PCOD8274338
Probable space group: C M M M
;
_chemical_formula_sum "Si O2"
_cell_formula_units_Z 88
_cell_length_a 28.987381
_cell_length_b 10.685566
_cell_length_c 14.417151
_cell_angle_alpha 90.000000
_cell_angle_beta 90.000000
_cell_angle_gamma 90.000000
_cell_volume 4465.663112
_symmetry_space_group_name_H-M "C M M M"
_symmetry_group_IT_number 65
_symmetry_cell_setting 'orthorhombic'
loop_
_space_group_symop_operation_xyz
x,y,z
-x,-y,z
x,-y,-z
-x,y,-z
-x,-y,-z
x,y,-z
-x,y,z
x,-y,z
1/2+x,1/2+y,z
1/2-x,1/2-y,z
1/2+x,1/2-y,-z
1/2-x,1/2+y,-z
1/2-x,1/2-y,-z
1/2+x,1/2+y,-z
1/2-x,1/2+y,z
1/2+x,1/2-y,z
loop_
_atom_site_type_symbol
_atom_site_label
_atom_site_fract_x
_atom_site_fract_y
_atom_site_fract_z
Si Si1 0.054615 0.500000 0.895995
Si Si2 0.945504 0.729090 0.769489
Si Si3 0.884280 0.856924 0.100054
Si Si4 0.217219 0.360086 0.610409
Si Si5 0.216851 0.858098 0.109967
Si Si6 0.112919 0.645795 0.604525
O O1 0.071456 0.382085 0.836912
O O2 0.000000 0.500000 0.903074
O O3 0.076033 0.500000 0.000000
O O4 0.924309 0.847232 0.822702
O O5 0.923738 0.718013 0.667959
O O6 0.000000 0.740252 0.758709
O O7 0.834550 0.807870 0.135731
O O8 0.875681 0.000000 0.080011
O O9 0.898464 0.794837 0.000000
O O10 0.219509 0.360555 0.500000
O O11 0.231930 0.500000 0.645658
O O12 0.250000 0.250000 0.651322
O O13 0.164796 0.330393 0.640943
O O14 0.250000 0.750000 0.153148
O O15 0.227150 0.000000 0.149301
O O16 0.222855 0.863183 0.000000
O O17 0.106993 0.697389 0.500000
O O18 0.100864 0.500000 0.607392
#
# Coordination Sequence:
#
# PCOD8274338 Si02
#       6
#     8  16  16  16  16  16
#     4   9  18  32  49  73 105 135 164 214 281 327
#     4  11  21  34  53  77 106 139 179 230 276 320
#     4   9  19  36  56  77 104 141 183 225 271 326
#     4   8  14  27  50  78 106 138 174 216 270 328
#     4   8  14  28  50  75 105 140 178 220 267 322
#     4   9  18  34  55  79 109 144 180 218 266 330
#
# _framework density 19.705919000000002
#
# number of rings (size 3 to 8) (size 9 to 14) (size 15 to 20)
#    0.000    3.000    0.909    2.727    0.000    1.818 
#    1.636    3.636    0.000    6.000    0.000    1.273 
#    0.000    0.000    0.000    0.000    0.000    0.000 
#
# Total GULP energy -545134.996799 kJ/mol
# GULP energy per Si atom -12389.431745 kJ/mol
# Density = 1.966107 g / cm^3
# Si number density = 19.705919 Si / 1000 Ang^3
#
#
#
# Elastic Constant Matrix: (Units=GPa)
#
#
# Indices 1 2 3 4 5 6 
#
# 1 137.4877 54.6716 53.8782 0.0000 0.0000 0.0000
# 2 54.6716 71.5396 23.1038 0.0000 0.0000 0.0000
# 3 53.8782 23.1038 83.1962 0.0000 0.0000 0.0000
# 4 0.0000 0.0000 0.0000 6.9649 0.0000 0.0000
# 5 0.0000 0.0000 0.0000 0.0000 27.0192 0.0000
# 6 0.0000 0.0000 0.0000 0.0000 0.0000 25.5110
#
#
#
# Elastic Compliance Matrix: (Units=1/GPa)
#
#
# Indices 1 2 3 4 5 6 
#
# 1 0.012758 -0.007779 -0.006102 0.000000 0.000000 0.000000
# 2 -0.007779 0.020099 -0.000544 0.000000 0.000000 0.000000
# 3 -0.006102 -0.000544 0.016122 0.000000 0.000000 0.000000
# 4 0.000000 0.000000 0.000000 0.143576 0.000000 0.000000
# 5 0.000000 0.000000 0.000000 0.000000 0.037011 0.000000
# 6 0.000000 0.000000 0.000000 0.000000 0.000000 0.039199
#
#
# Mechanical properties :
#
#
# Convention : Reuss Voigt Hill
#
# Bulk Modulus (GPa) = 49.67770 61.72566 55.70168
# Shear Modulus (GPa) = 16.42986 22.60369 19.51677
#
# Velocity S-wave (km/s) = 2.89061 3.39049 3.15048
# Velocity P-wave (km/s) = 6.03366 6.83510 6.44685
#
# Compressibility (1/GPa) = 0.02012976
#
# Stress axis : x y z
#
# Youngs Moduli (GPa) = 78.38290 49.75416 62.02597
#
# Poissons Ratio (x) = 0.38705 0.37847
# Poissons Ratio (y) = 0.60976 0.03372
# Poissons Ratio (z) = 0.47827 0.02705
#
# Static dielectric constant tensor:
#      x y z
#    x 3.514490 0.000000 0.000000 
#    y 0.000000 3.633190 0.000000 
#    z 0.000000 0.000000 3.387020 
# 
# 
# High freq. dielectric constant tensor:
#      x y z
#    x 1.759210 0.000000 0.000000 
#    y 0.000000 1.749190 0.000000 
#    z 0.000000 0.000000 1.754360 
# 
# From -- ./inp_files/38409.got.cif
#   From: 2010.03.12/outbox.cif.g09.slc.cpg/sg65_20_cif.got.tgz:38409.got - 2010.04.10 20:52:16.
