data_PCOD8274609
_publ_section_title
;
Structure prediction by ZEFSAII (Michael W. Deem and Ramdas Pophale) SiO2 
 PCOD8274609
Probable space group: C M M M
;
_chemical_formula_sum "Si O2"
_cell_formula_units_Z 80
_cell_length_a 24.258242
_cell_length_b 19.622311
_cell_length_c 8.767828
_cell_angle_alpha 90.000000
_cell_angle_beta 90.000000
_cell_angle_gamma 90.000000
_cell_volume 4173.510405
_symmetry_space_group_name_H-M "C M M M"
_symmetry_group_IT_number 65
_symmetry_cell_setting 'orthorhombic'
loop_
_space_group_symop_operation_xyz
x,y,z
-x,-y,z
x,-y,-z
-x,y,-z
-x,-y,-z
x,y,-z
-x,y,z
x,-y,z
1/2+x,1/2+y,z
1/2-x,1/2-y,z
1/2+x,1/2-y,-z
1/2-x,1/2+y,-z
1/2-x,1/2-y,-z
1/2+x,1/2+y,-z
1/2-x,1/2+y,z
1/2+x,1/2-y,z
loop_
_atom_site_type_symbol
_atom_site_label
_atom_site_fract_x
_atom_site_fract_y
_atom_site_fract_z
Si Si1 0.000000 0.578190 0.680503
Si Si2 0.769118 0.000000 0.664548
Si Si3 0.335263 0.000000 0.824994
Si Si4 0.937890 0.000000 0.317934
Si Si5 0.813378 0.752733 0.179246
Si Si6 0.116205 0.631943 0.679848
Si Si7 0.642631 0.614599 0.671968
O O1 0.052697 0.622588 0.734338
O O2 0.000000 0.500000 0.748499
O O3 0.000000 0.570373 0.500000
O O4 0.730687 0.000000 0.812933
O O5 0.804361 0.067725 0.671031
O O6 0.737534 0.000000 0.500000
O O7 0.354189 0.935421 0.732582
O O8 0.354717 0.000000 0.000000
O O9 0.908152 0.069459 0.260957
O O10 0.934053 0.000000 0.500000
O O11 0.000000 0.000000 0.255750
O O12 0.750000 0.750000 0.243891
O O13 0.852555 0.694675 0.245374
O O14 0.844178 0.822619 0.219010
O O15 0.811035 0.742859 0.000000
O O16 0.119981 0.640840 0.500000
O O17 0.629547 0.640785 0.500000
#
# Coordination Sequence:
#
# PCOD8274609 Si02
#       7
#     8   8   8   8  16  16  16
#     4   9  18  38  64  88 112 139 186 243 286 330
#     4   9  18  33  55  82 111 146 193 240 280 333
#     4  12  23  34  52  84 118 147 185 230 288 347
#     4   8  15  32  59  87 112 139 182 236 280 327
#     4  11  24  40  56  81 120 158 190 232 288 347
#     4  11  22  39  63  85 110 149 195 240 283 335
#     4   9  18  34  57  84 111 145 189 235 282 333
#
# _framework density 19.168514999999999
#
# number of rings (size 3 to 8) (size 9 to 14) (size 15 to 20)
#    0.000    2.000    1.000    4.500    0.000    5.600 
#    1.800    4.000    0.000    0.600    0.000    0.000 
#    0.000    0.000    0.000    0.000    0.000    0.000 
#
# Total GULP energy -495723.079837 kJ/mol
# GULP energy per Si atom -12393.076996 kJ/mol
# Density = 1.912489 g / cm^3
# Si number density = 19.168515 Si / 1000 Ang^3
#
#
#
# Elastic Constant Matrix: (Units=GPa)
#
#
# Indices 1 2 3 4 5 6 
#
# 1 157.8139 73.5045 36.0995 0.0000 0.0000 0.0000
# 2 73.5045 148.6038 36.1575 0.0000 0.0000 0.0000
# 3 36.0995 36.1575 52.5324 0.0000 0.0000 0.0000
# 4 0.0000 0.0000 0.0000 2.8072 0.0000 0.0000
# 5 0.0000 0.0000 0.0000 0.0000 14.2617 0.0000
# 6 0.0000 0.0000 0.0000 0.0000 0.0000 -1.0487
#
#
#
# Elastic Compliance Matrix: (Units=1/GPa)
#
#
# Indices 1 2 3 4 5 6 
#
# 1 0.008782 -0.003454 -0.003658 0.000000 0.000000 0.000000
# 2 -0.003454 0.009441 -0.004125 0.000000 0.000000 0.000000
# 3 -0.003658 -0.004125 0.024388 0.000000 0.000000 0.000000
# 4 0.000000 0.000000 0.000000 0.356228 0.000000 0.000000
# 5 0.000000 0.000000 0.000000 0.000000 0.070118 0.000000
# 6 0.000000 0.000000 0.000000 0.000000 0.000000 -0.953543
#
#
# Mechanical properties :
#
#
# Convention : Reuss Voigt Hill
#
# Bulk Modulus (GPa) = 49.65487 72.27478 60.96482
# Shear Modulus (GPa) = -10.97937 17.41661 3.21862
#
# Velocity S-wave (km/s) = -2.39588 3.01758 1.29721
# Velocity P-wave (km/s) = 4.27866 7.06596 5.84101
#
# Compressibility (1/GPa) = 0.02013901
#
# Stress axis : x y z
#
# Youngs Moduli (GPa) = 113.86993 105.91662 41.00304
#
# Poissons Ratio (x) = 0.36583 0.14997
# Poissons Ratio (y) = 0.39330 0.16913
# Poissons Ratio (z) = 0.41648 0.43690
#
# Static dielectric constant tensor:
#      x y z
#    x 3.881370 0.000000 0.000000 
#    y 0.000000 3.692100 0.000000 
#    z 0.000000 0.000000 3.336520 
# 
# 
# High freq. dielectric constant tensor:
#      x y z
#    x 1.752070 0.000000 0.000000 
#    y 0.000000 1.750320 0.000000 
#    z 0.000000 0.000000 1.723300 
# 
# From -- ./inp_files/13903.got.cif
#   From: 2010.03.12/outbox.cif.g09.slc.cpg/sg65_7_cif.got.tgz:13903.got - 2010.04.10 20:52:16.
