data_PCOD8274965
_publ_section_title
;
Structure prediction by ZEFSAII (Michael W. Deem and Ramdas Pophale) SiO2 
 PCOD8274965
Probable space group: C M M M
;
_chemical_formula_sum "Si O2"
_cell_formula_units_Z 112
_cell_length_a 29.349825
_cell_length_b 22.738522
_cell_length_c 9.653601
_cell_angle_alpha 90.000000
_cell_angle_beta 90.000000
_cell_angle_gamma 90.000000
_cell_volume 6442.539545
_symmetry_space_group_name_H-M "C M M M"
_symmetry_group_IT_number 65
_symmetry_cell_setting 'orthorhombic'
loop_
_space_group_symop_operation_xyz
x,y,z
-x,-y,z
x,-y,-z
-x,y,-z
-x,-y,-z
x,y,-z
-x,y,z
x,-y,z
1/2+x,1/2+y,z
1/2-x,1/2-y,z
1/2+x,1/2-y,-z
1/2-x,1/2+y,-z
1/2-x,1/2-y,-z
1/2+x,1/2+y,-z
1/2-x,1/2+y,z
1/2+x,1/2-y,z
loop_
_atom_site_type_symbol
_atom_site_label
_atom_site_fract_x
_atom_site_fract_y
_atom_site_fract_z
Si Si1 0.105174 0.065477 0.342737
Si Si2 0.862321 0.366371 0.164110
Si Si3 0.551795 0.321203 0.660392
Si Si4 0.050326 0.433529 0.164687
Si Si5 0.180515 0.119397 0.838613
Si Si6 0.274819 0.933623 0.164480
Si Si7 0.872323 0.234298 0.161044
O O1 0.122531 0.073496 0.500000
O O2 0.064680 0.110920 0.310260
O O3 0.147743 0.075708 0.243090
O O4 0.085861 0.000000 0.317659
O O5 0.910184 0.391096 0.225219
O O6 0.820297 0.403629 0.226576
O O7 0.854952 0.298517 0.205930
O O8 0.862771 0.373432 0.000000
O O9 0.559188 0.305088 0.500000
O O10 0.500000 0.311853 0.706394
O O11 0.582463 0.278653 0.752334
O O12 0.060159 0.500000 0.215049
O O13 0.000000 0.413173 0.217485
O O14 0.050884 0.431562 0.000000
O O15 0.231878 0.106175 0.789360
O O16 0.167701 0.187354 0.806123
O O17 0.174357 0.105120 0.000000
O O18 0.270272 0.000000 0.223101
O O19 0.277859 0.935481 0.000000
O O20 0.885944 0.232499 0.000000
#
# Coordination Sequence:
#
# PCOD8274965 Si02
#       7
#    16  16  16  16  16  16  16
#     4   9  17  29  46  67  89 114 146 184 222 258
#     4   9  16  25  38  59  86 113 143 180 219 257
#     4   9  18  32  48  65  87 116 148 182 219 259
#     4   8  13  21  33  50  76 110 141 170 213 267
#     4   9  17  29  44  63  89 120 150 177 212 261
#     4   9  16  25  40  62  86 114 147 182 220 261
#     4   9  18  30  44  64  89 117 147 180 218 260
#
# _framework density 17.384449
#
# number of rings (size 3 to 8) (size 9 to 14) (size 15 to 20)
#    0.000    3.143    0.000    1.286    0.000    4.286 
#    0.000    5.714    0.000    0.857    0.000    8.000 
#    0.000    1.714    0.000    7.857    0.000    6.000 
#
# Total GULP energy -694148.186184 kJ/mol
# GULP energy per Si atom -12395.503325 kJ/mol
# Density = 1.734488 g / cm^3
# Si number density = 17.384449 Si / 1000 Ang^3
#
#
#
# Elastic Constant Matrix: (Units=GPa)
#
#
# Indices 1 2 3 4 5 6 
#
# 1 147.4059 73.5469 27.4484 0.0000 0.0000 0.0000
# 2 73.5469 121.8759 21.8880 0.0000 0.0000 0.0000
# 3 27.4484 21.8880 23.0802 0.0000 0.0000 0.0000
# 4 0.0000 0.0000 0.0000 11.6401 0.0000 0.0000
# 5 0.0000 0.0000 0.0000 0.0000 11.9016 0.0000
# 6 0.0000 0.0000 0.0000 0.0000 0.0000 24.3329
#
#
#
# Elastic Compliance Matrix: (Units=1/GPa)
#
#
# Indices 1 2 3 4 5 6 
#
# 1 0.010818 -0.005084 -0.008045 0.000000 0.000000 0.000000
# 2 -0.005084 0.012278 -0.005598 0.000000 0.000000 0.000000
# 3 -0.008045 -0.005598 0.058204 0.000000 0.000000 0.000000
# 4 0.000000 0.000000 0.000000 0.085910 0.000000 0.000000
# 5 0.000000 0.000000 0.000000 0.000000 0.084022 0.000000
# 6 0.000000 0.000000 0.000000 0.000000 0.000000 0.041097
#
#
# Mechanical properties :
#
#
# Convention : Reuss Voigt Hill
#
# Bulk Modulus (GPa) = 22.80662 59.79207 41.29935
# Shear Modulus (GPa) = 14.51805 20.87349 17.69577
#
# Velocity S-wave (km/s) = 2.89297 3.46887 3.19393
# Velocity P-wave (km/s) = 4.93017 7.10723 6.11634
#
# Compressibility (1/GPa) = 0.04384692
#
# Stress axis : x y z
#
# Youngs Moduli (GPa) = 92.43434 81.44469 17.18101
#
# Poissons Ratio (x) = 0.41404 0.13822
# Poissons Ratio (y) = 0.46991 0.09618
# Poissons Ratio (z) = 0.74362 0.45595
#
# Static dielectric constant tensor:
#      x y z
#    x 3.423170 0.000000 0.000000 
#    y 0.000000 3.366000 0.000000 
#    z 0.000000 0.000000 2.800970 
# 
# 
# High freq. dielectric constant tensor:
#      x y z
#    x 1.673530 0.000000 0.000000 
#    y 0.000000 1.677880 0.000000 
#    z 0.000000 0.000000 1.616440 
# 
# From -- ./inp_files/32778.got.cif
#   From: 2010.03.12/outbox.cif.g09.slc.cpg/sg65_17_cif.got.tgz:32778.got - 2010.04.10 20:52:16.
