data_PCOD8274790
_publ_section_title
;
Structure prediction by ZEFSAII (Michael W. Deem and Ramdas Pophale) SiO2 
 PCOD8274790
Probable space group: C M M M
;
_chemical_formula_sum "Si O2"
_cell_formula_units_Z 66
_cell_length_a 23.731280
_cell_length_b 8.925257
_cell_length_c 14.889516
_cell_angle_alpha 90.000000
_cell_angle_beta 90.000000
_cell_angle_gamma 90.000000
_cell_volume 3153.715224
_symmetry_space_group_name_H-M "C M M M"
_symmetry_group_IT_number 65
_symmetry_cell_setting 'orthorhombic'
loop_
_space_group_symop_operation_xyz
x,y,z
-x,-y,z
x,-y,-z
-x,y,-z
-x,-y,-z
x,y,-z
-x,y,z
x,-y,z
1/2+x,1/2+y,z
1/2-x,1/2-y,z
1/2+x,1/2-y,-z
1/2-x,1/2+y,-z
1/2-x,1/2-y,-z
1/2+x,1/2+y,-z
1/2-x,1/2+y,z
1/2+x,1/2-y,z
loop_
_atom_site_type_symbol
_atom_site_label
_atom_site_fract_x
_atom_site_fract_y
_atom_site_fract_z
Si Si1 0.880919 0.833340 0.102514
Si Si2 0.385165 0.328410 0.397928
Si Si3 0.500000 0.000000 0.000000
Si Si4 0.500000 0.245474 0.849132
Si Si5 0.500000 0.170695 0.354371
Si Si6 0.310595 0.822863 0.750288
O O1 0.845310 0.715971 0.160128
O O2 0.944233 0.845937 0.140045
O O3 0.854431 0.000000 0.108751
O O4 0.880292 0.774022 0.000000
O O5 0.363202 0.320996 0.500000
O O6 0.388497 0.500000 0.364000
O O7 0.446252 0.255519 0.393024
O O8 0.341195 0.238667 0.337613
O O9 0.500000 0.122376 0.076246
O O10 0.500000 0.168751 0.752481
O O11 0.500000 0.000000 0.389283
O O12 0.250000 0.750000 0.758351
O O13 0.305140 0.000000 0.742270
#
# Coordination Sequence:
#
# PCOD8274790 Si02
#       6
#    16  16   2   8   8  16
#     4  11  24  42  67  98 135 175 220 269 328 392
#     4  11  25  45  70  99 134 174 216 270 335 399
#     4  12  24  36  58 104 150 172 234 260 324 394
#     4  12  23  36  64  97 139 178 214 266 322 388
#     4  12  24  38  64 103 139 176 217 264 331 388
#     4  12  27  46  70  96 129 172 223 276 331 390
#
# _framework density 20.927696000000001
#
# number of rings (size 3 to 8) (size 9 to 14) (size 15 to 20)
#    0.000    0.485    4.242    4.000    1.697    6.788 
#    0.000    0.000    0.000    0.000    0.000    0.000 
#    0.000    0.000    0.000    0.000    0.000    0.000 
#
# Total GULP energy -408820.734078 kJ/mol
# GULP energy per Si atom -12388.507093 kJ/mol
# Density = 2.088006 g / cm^3
# Si number density = 20.927696 Si / 1000 Ang^3
#
#
#
# Elastic Constant Matrix: (Units=GPa)
#
#
# Indices 1 2 3 4 5 6 
#
# 1 139.7400 58.8612 51.8638 0.0000 0.0000 0.0000
# 2 58.8612 175.1632 49.8380 0.0000 0.0000 0.0000
# 3 51.8638 49.8380 120.0046 0.0000 0.0000 0.0000
# 4 0.0000 0.0000 0.0000 38.8963 0.0000 0.0000
# 5 0.0000 0.0000 0.0000 0.0000 3.2025 0.0000
# 6 0.0000 0.0000 0.0000 0.0000 0.0000 47.6781
#
#
#
# Elastic Compliance Matrix: (Units=1/GPa)
#
#
# Indices 1 2 3 4 5 6 
#
# 1 0.009233 -0.002231 -0.003064 0.000000 0.000000 0.000000
# 2 -0.002231 0.007013 -0.001948 0.000000 0.000000 0.000000
# 3 -0.003064 -0.001948 0.010466 0.000000 0.000000 0.000000
# 4 0.000000 0.000000 0.000000 0.025709 0.000000 0.000000
# 5 0.000000 0.000000 0.000000 0.000000 0.312251 0.000000
# 6 0.000000 0.000000 0.000000 0.000000 0.000000 0.020974
#
#
# Mechanical properties :
#
#
# Convention : Reuss Voigt Hill
#
# Bulk Modulus (GPa) = 81.79214 84.00375 82.89795
# Shear Modulus (GPa) = 12.36985 36.24503 24.30744
#
# Velocity S-wave (km/s) = 2.43384 4.16615 3.41177
# Velocity P-wave (km/s) = 6.86048 7.96050 7.43087
#
# Compressibility (1/GPa) = 0.01222611
#
# Stress axis : x y z
#
# Youngs Moduli (GPa) = 108.30757 142.59297 95.54474
#
# Poissons Ratio (x) = 0.31811 0.29273
# Poissons Ratio (y) = 0.24162 0.18615
# Poissons Ratio (z) = 0.33184 0.27782
#
# Static dielectric constant tensor:
#      x y z
#    x 3.615400 0.000000 0.000000 
#    y 0.000000 3.881940 0.000000 
#    z 0.000000 0.000000 4.096300 
# 
# 
# High freq. dielectric constant tensor:
#      x y z
#    x 1.805020 0.000000 0.000000 
#    y 0.000000 1.837290 0.000000 
#    z 0.000000 0.000000 1.843050 
# 
# From -- ./inp_files/45137.got.cif
#   From: 2010.03.12/outbox.cif.g09.slc.cpg/sg65_23_cif.got.tgz:45137.got - 2010.04.10 20:52:16.
