data_PCOD8274234
_publ_section_title
;
Structure prediction by ZEFSAII (Michael W. Deem and Ramdas Pophale) SiO2 
 PCOD8274234
Probable space group: C M M M
;
_chemical_formula_sum "Si O2"
_cell_formula_units_Z 72
_cell_length_a 21.341477
_cell_length_b 20.357728
_cell_length_c 8.901751
_cell_angle_alpha 90.000000
_cell_angle_beta 90.000000
_cell_angle_gamma 90.000000
_cell_volume 3867.490203
_symmetry_space_group_name_H-M "C M M M"
_symmetry_group_IT_number 65
_symmetry_cell_setting 'orthorhombic'
loop_
_space_group_symop_operation_xyz
x,y,z
-x,-y,z
x,-y,-z
-x,y,-z
-x,-y,-z
x,y,-z
-x,y,z
x,-y,z
1/2+x,1/2+y,z
1/2-x,1/2-y,z
1/2+x,1/2-y,-z
1/2-x,1/2+y,-z
1/2-x,1/2-y,-z
1/2+x,1/2+y,-z
1/2-x,1/2+y,z
1/2+x,1/2-y,z
loop_
_atom_site_type_symbol
_atom_site_label
_atom_site_fract_x
_atom_site_fract_y
_atom_site_fract_z
Si Si1 0.647397 0.500000 0.323759
Si Si2 0.569510 0.239263 0.822701
Si Si3 0.709013 0.000000 0.677325
Si Si4 0.927244 0.114967 0.173913
Si Si5 0.625507 0.891961 0.176731
Si Si6 0.500000 0.073826 0.663517
O O1 0.641684 0.500000 0.500000
O O2 0.719259 0.500000 0.271833
O O3 0.614920 0.434726 0.265136
O O4 0.500000 0.218021 0.758918
O O5 0.587652 0.311696 0.763247
O O6 0.624130 0.186476 0.782020
O O7 0.562197 0.244727 0.000000
O O8 0.679455 0.932540 0.740185
O O9 0.699499 0.000000 0.500000
O O10 0.000000 0.097937 0.198853
O O11 0.909275 0.108300 0.000000
O O12 0.558828 0.915770 0.230456
O O13 0.633483 0.903727 0.000000
O O14 0.500000 0.112424 0.500000
O O15 0.500000 0.000000 0.612396
#
# Coordination Sequence:
#
# PCOD8274234 Si02
#       6
#     8  16   8  16  16   8
#     4  11  24  40  56  75 108 147 182 224 269 320
#     4   8  15  30  53  84 115 136 163 217 277 320
#     4  11  25  41  51  69 108 153 189 226 271 317
#     4   9  18  35  62  89 111 135 167 215 276 331
#     4  11  20  33  56  81 106 141 186 231 265 308
#     4  11  21  31  47  75 114 149 178 219 270 320
#
# _framework density 18.616724000000001
#
# number of rings (size 3 to 8) (size 9 to 14) (size 15 to 20)
#    0.000    2.111    2.222    3.333    0.000    4.000 
#    0.000    3.333    0.000    6.667    0.000    0.000 
#    0.000    0.000    0.000    0.000    0.000    0.000 
#
# Total GULP energy -446039.319471 kJ/mol
# GULP energy per Si atom -12389.981096 kJ/mol
# Density = 1.857435 g / cm^3
# Si number density = 18.616724 Si / 1000 Ang^3
#
#
#
# Elastic Constant Matrix: (Units=GPa)
#
#
# Indices 1 2 3 4 5 6 
#
# 1 108.7553 75.2227 42.8937 0.0000 0.0000 0.0000
# 2 75.2227 151.4800 35.6831 0.0000 0.0000 0.0000
# 3 42.8937 35.6831 50.4318 0.0000 0.0000 0.0000
# 4 0.0000 0.0000 0.0000 -6.3170 0.0000 0.0000
# 5 0.0000 0.0000 0.0000 0.0000 31.3600 0.0000
# 6 0.0000 0.0000 0.0000 0.0000 0.0000 -13.3437
#
#
#
# Elastic Compliance Matrix: (Units=1/GPa)
#
#
# Indices 1 2 3 4 5 6 
#
# 1 0.017755 -0.006312 -0.010636 0.000000 0.000000 0.000000
# 2 -0.006312 0.010166 -0.001824 0.000000 0.000000 0.000000
# 3 -0.010636 -0.001824 0.030165 0.000000 0.000000 0.000000
# 4 0.000000 0.000000 0.000000 -0.158304 0.000000 0.000000
# 5 0.000000 0.000000 0.000000 0.000000 0.031888 0.000000
# 6 0.000000 0.000000 0.000000 0.000000 0.000000 -0.074942
#
#
# Mechanical properties :
#
#
# Convention : Reuss Voigt Hill
#
# Bulk Modulus (GPa) = 48.67825 68.69623 58.68724
# Shear Modulus (GPa) = -50.56627 12.79769 -18.88429
#
# Velocity S-wave (km/s) = -5.21735 2.62473 -3.18838
# Velocity P-wave (km/s) = 3.17646 6.79456 4.24712
#
# Compressibility (1/GPa) = 0.02054306
#
# Stress axis : x y z
#
# Youngs Moduli (GPa) = 56.32131 98.37126 33.15050
#
# Poissons Ratio (x) = 0.62089 0.35257
# Poissons Ratio (y) = 0.35548 0.06048
# Poissons Ratio (z) = 0.59901 0.17947
#
# Static dielectric constant tensor:
#      x y z
#    x 3.215350 0.000000 0.000000 
#    y 0.000000 3.929390 0.000000 
#    z 0.000000 0.000000 3.285930 
# 
# 
# High freq. dielectric constant tensor:
#      x y z
#    x 1.693920 0.000000 0.000000 
#    y 0.000000 1.740230 0.000000 
#    z 0.000000 0.000000 1.712840 
# 
# From -- ./inp_files/11306.got.cif
#   From: 2010.03.12/outbox.cif.g09.slc.cpg/sg65_6_cif.got.tgz:11306.got - 2010.04.10 20:52:16.
