data_PCOD8274595
_publ_section_title
;
Structure prediction by ZEFSAII (Michael W. Deem and Ramdas Pophale) SiO2 
 PCOD8274595
Probable space group: C M M M
;
_chemical_formula_sum "Si O2"
_cell_formula_units_Z 64
_cell_length_a 35.257439
_cell_length_b 11.856112
_cell_length_c 7.602697
_cell_angle_alpha 90.000000
_cell_angle_beta 90.000000
_cell_angle_gamma 90.000000
_cell_volume 3178.050096
_symmetry_space_group_name_H-M "C M M M"
_symmetry_group_IT_number 65
_symmetry_cell_setting 'orthorhombic'
loop_
_space_group_symop_operation_xyz
x,y,z
-x,-y,z
x,-y,-z
-x,y,-z
-x,-y,-z
x,y,-z
-x,y,z
x,-y,z
1/2+x,1/2+y,z
1/2-x,1/2-y,z
1/2+x,1/2-y,-z
1/2-x,1/2+y,-z
1/2-x,1/2-y,-z
1/2+x,1/2+y,-z
1/2-x,1/2+y,z
1/2+x,1/2-y,z
loop_
_atom_site_type_symbol
_atom_site_label
_atom_site_fract_x
_atom_site_fract_y
_atom_site_fract_z
Si Si1 0.674940 0.500000 0.707710
Si Si2 0.293217 0.737582 0.199782
Si Si3 0.956812 0.779203 0.802101
Si Si4 0.924040 0.368939 0.500000
Si Si5 0.335362 0.868480 0.500000
Si Si6 0.587163 0.500000 0.292832
O O1 0.680377 0.500000 0.500000
O O2 0.695094 0.607797 0.789923
O O3 0.631018 0.500000 0.760679
O O4 0.250000 0.750000 0.262480
O O5 0.319009 0.813688 0.324179
O O6 0.298219 0.781047 0.000000
O O7 0.942119 0.682509 0.674308
O O8 0.931792 0.890512 0.788574
O O9 0.000000 0.810467 0.753627
O O10 0.953733 0.731791 0.000000
O O11 0.933316 0.500000 0.500000
O O12 0.879689 0.342858 0.500000
O O13 0.325686 0.000000 0.500000
O O14 0.581176 0.500000 0.500000
#
# Coordination Sequence:
#
# PCOD8274595 Si02
#       6
#     8  16  16   8   8   8
#     4  11  23  40  66  96 128 169 209 258 319 373
#     4  11  25  42  65  95 127 164 210 261 317 379
#     4  11  24  41  65  96 129 167 209 258 318 378
#     4  11  25  44  64  91 125 168 219 263 307 367
#     4  11  25  43  66  92 123 168 214 260 318 374
#     4  11  22  38  65  99 131 164 207 257 318 385
#
# _framework density 20.138134000000001
#
# number of rings (size 3 to 8) (size 9 to 14) (size 15 to 20)
#    0.000    1.000    2.500    3.375    1.750    8.500 
#    0.000    3.750    0.000    0.000    0.000    0.000 
#    0.000    0.000    0.000    0.000    0.000    0.000 
#
# Total GULP energy -397013.668330 kJ/mol
# GULP energy per Si atom -12406.677135 kJ/mol
# Density = 2.009230 g / cm^3
# Si number density = 20.138134 Si / 1000 Ang^3
#
#
#
# Elastic Constant Matrix: (Units=GPa)
#
#
# Indices 1 2 3 4 5 6 
#
# 1 136.5423 82.0992 57.4751 0.0000 0.0000 0.0000
# 2 82.0992 114.9617 62.1428 0.0000 0.0000 0.0000
# 3 57.4751 62.1428 123.9980 0.0000 0.0000 0.0000
# 4 0.0000 0.0000 0.0000 20.2091 0.0000 0.0000
# 5 0.0000 0.0000 0.0000 0.0000 39.7369 0.0000
# 6 0.0000 0.0000 0.0000 0.0000 0.0000 -59.0444
#
#
#
# Elastic Compliance Matrix: (Units=1/GPa)
#
#
# Indices 1 2 3 4 5 6 
#
# 1 0.013155 -0.008365 -0.001906 0.000000 0.000000 0.000000
# 2 -0.008365 0.017249 -0.004767 0.000000 0.000000 0.000000
# 3 -0.001906 -0.004767 0.011337 0.000000 0.000000 0.000000
# 4 0.000000 0.000000 0.000000 0.049483 0.000000 0.000000
# 5 0.000000 0.000000 0.000000 0.000000 0.025166 0.000000
# 6 0.000000 0.000000 0.000000 0.000000 0.000000 -0.016936
#
#
# Mechanical properties :
#
#
# Convention : Reuss Voigt Hill
#
# Bulk Modulus (GPa) = 85.71810 86.54850 86.13330
# Shear Modulus (GPa) = 37.47620 11.76598 24.62109
#
# Velocity S-wave (km/s) = 4.31856 2.41978 3.50038
# Velocity P-wave (km/s) = 8.21730 7.13287 7.69422
#
# Compressibility (1/GPa) = 0.01166615
#
# Stress axis : x y z
#
# Youngs Moduli (GPa) = 76.01454 57.97366 88.20521
#
# Poissons Ratio (x) = 0.48493 0.16809
# Poissons Ratio (y) = 0.63584 0.42051
# Poissons Ratio (z) = 0.14486 0.27639
#
# Static dielectric constant tensor:
#      x y z
#    x 3.910510 0.000000 0.000000 
#    y 0.000000 3.708050 0.000000 
#    z 0.000000 0.000000 3.834660 
# 
# 
# High freq. dielectric constant tensor:
#      x y z
#    x 1.805200 0.000000 0.000000 
#    y 0.000000 1.785960 0.000000 
#    z 0.000000 0.000000 1.804410 
# 
# From -- ./inp_files/17849.got.cif
#   From: 2010.03.12/outbox.cif.g09.slc.cpg/sg65_9_cif.got.tgz:17849.got - 2010.04.10 20:52:16.
