data_PCOD8274604
_publ_section_title
;
Structure prediction by ZEFSAII (Michael W. Deem and Ramdas Pophale) SiO2 
 PCOD8274604
Probable space group: C M M M
;
_chemical_formula_sum "Si O2"
_cell_formula_units_Z 48
_cell_length_a 14.970608
_cell_length_b 7.481835
_cell_length_c 21.102433
_cell_angle_alpha 90.000000
_cell_angle_beta 90.000000
_cell_angle_gamma 90.000000
_cell_volume 2363.633273
_symmetry_space_group_name_H-M "C M M M"
_symmetry_group_IT_number 65
_symmetry_cell_setting 'orthorhombic'
loop_
_space_group_symop_operation_xyz
x,y,z
-x,-y,z
x,-y,-z
-x,y,-z
-x,-y,-z
x,y,-z
-x,y,z
x,-y,z
1/2+x,1/2+y,z
1/2-x,1/2-y,z
1/2+x,1/2-y,-z
1/2-x,1/2+y,-z
1/2-x,1/2-y,-z
1/2+x,1/2+y,-z
1/2-x,1/2+y,z
1/2+x,1/2-y,z
loop_
_atom_site_type_symbol
_atom_site_label
_atom_site_fract_x
_atom_site_fract_y
_atom_site_fract_z
Si Si1 0.847103 0.791621 0.831146
Si Si2 0.644499 0.291572 0.500000
Si Si3 0.000000 0.211109 0.261759
Si Si4 0.105407 0.500000 0.928627
Si Si5 0.000000 0.213156 0.597401
O O1 0.750000 0.750000 0.803031
O O2 0.859661 0.679388 0.895184
O O3 0.913852 0.723132 0.776861
O O4 0.861628 0.000000 0.847532
O O5 0.632830 0.500000 0.500000
O O6 0.750000 0.250000 0.500000
O O7 0.590535 0.218296 0.561677
O O8 0.000000 0.296478 0.331982
O O9 0.000000 0.000000 0.267810
O O10 0.000000 0.500000 0.927855
O O11 0.142982 0.500000 0.000000
O O12 0.000000 0.000000 0.600357
#
# Coordination Sequence:
#
# PCOD8274604 Si02
#       5
#    16   8   8   8   8
#     4  11  22  39  61  86 118 156 193 244 297 348
#     4   9  17  31  56  78 112 149 185 235 278 334
#     4   9  19  35  58  81 113 150 196 239 284 348
#     4  11  24  42  64  87 117 153 195 243 295 356
#     4   8  16  33  53  79 108 154 191 222 284 340
#
# _framework density 20.307721000000001
#
# number of rings (size 3 to 8) (size 9 to 14) (size 15 to 20)
#    0.000    2.167    3.333    1.000    0.000    2.667 
#    0.000    3.333    7.333    0.000    0.000    0.000 
#    0.000    0.000    0.000    0.000    0.000    0.000 
#
# Total GULP energy -297468.611259 kJ/mol
# GULP energy per Si atom -12394.525469 kJ/mol
# Density = 2.026150 g / cm^3
# Si number density = 20.307721 Si / 1000 Ang^3
#
#
#
# Elastic Constant Matrix: (Units=GPa)
#
#
# Indices 1 2 3 4 5 6 
#
# 1 189.3657 16.5102 96.3210 0.0000 0.0000 0.0000
# 2 16.5102 80.2665 41.6577 0.0000 0.0000 0.0000
# 3 96.3210 41.6577 199.0882 0.0000 0.0000 0.0000
# 4 0.0000 0.0000 0.0000 75.6566 0.0000 0.0000
# 5 0.0000 0.0000 0.0000 0.0000 -18.1737 0.0000
# 6 0.0000 0.0000 0.0000 0.0000 0.0000 22.5989
#
#
#
# Elastic Compliance Matrix: (Units=1/GPa)
#
#
# Indices 1 2 3 4 5 6 
#
# 1 0.007014 0.000357 -0.003468 0.000000 0.000000 0.000000
# 2 0.000357 0.013994 -0.003101 0.000000 0.000000 0.000000
# 3 -0.003468 -0.003101 0.007350 0.000000 0.000000 0.000000
# 4 0.000000 0.000000 0.000000 0.013218 0.000000 0.000000
# 5 0.000000 0.000000 0.000000 0.000000 -0.055025 0.000000
# 6 0.000000 0.000000 0.000000 0.000000 0.000000 0.044250
#
#
# Mechanical properties :
#
#
# Convention : Reuss Voigt Hill
#
# Bulk Modulus (GPa) = 62.75882 86.41093 74.58488
# Shear Modulus (GPa) = 103.01710 36.96515 69.99113
#
# Velocity S-wave (km/s) = 7.13009 4.27107 5.87708
# Velocity P-wave (km/s) = 9.93757 8.18327 9.10278
#
# Compressibility (1/GPa) = 0.01593402
#
# Stress axis : x y z
#
# Youngs Moduli (GPa) = 142.57895 71.45690 136.06104
#
# Poissons Ratio (x) = -0.02553 0.47186
# Poissons Ratio (y) = -0.05093 0.42193
# Poissons Ratio (z) = 0.49447 0.22159
#
# Static dielectric constant tensor:
#      x y z
#    x 6.648610 0.000000 0.000000 
#    y 0.000000 3.525600 0.000000 
#    z 0.000000 0.000000 4.000560 
# 
# 
# High freq. dielectric constant tensor:
#      x y z
#    x 1.803060 0.000000 0.000000 
#    y 0.000000 1.784820 0.000000 
#    z 0.000000 0.000000 1.786540 
# 
# From -- ./inp_files/52342.got.cif
#   From: 2010.03.12/outbox.cif.g09.slc.cpg/sg65_27_cif.got.tgz:52342.got - 2010.04.10 20:52:16.
