data_PCOD8274032
_publ_section_title
;
Structure prediction by ZEFSAII (Michael W. Deem and Ramdas Pophale) SiO2 
 PCOD8274032
Probable space group: C M M M
;
_chemical_formula_sum "Si O2"
_cell_formula_units_Z 66
_cell_length_a 20.231953
_cell_length_b 18.294380
_cell_length_c 8.674612
_cell_angle_alpha 90.000000
_cell_angle_beta 90.000000
_cell_angle_gamma 90.000000
_cell_volume 3210.743129
_symmetry_space_group_name_H-M "C M M M"
_symmetry_group_IT_number 65
_symmetry_cell_setting 'orthorhombic'
loop_
_space_group_symop_operation_xyz
x,y,z
-x,-y,z
x,-y,-z
-x,y,-z
-x,-y,-z
x,y,-z
-x,y,z
x,-y,z
1/2+x,1/2+y,z
1/2-x,1/2-y,z
1/2+x,1/2-y,-z
1/2-x,1/2+y,-z
1/2-x,1/2-y,-z
1/2+x,1/2+y,-z
1/2-x,1/2+y,z
1/2+x,1/2-y,z
loop_
_atom_site_type_symbol
_atom_site_label
_atom_site_fract_x
_atom_site_fract_y
_atom_site_fract_z
Si Si1 0.254545 0.417200 0.322277
Si Si2 0.500000 0.082845 0.682383
Si Si3 0.133747 0.804855 0.682045
Si Si4 0.500000 0.500000 0.000000
Si Si5 0.369165 0.149839 0.180393
Si Si6 0.500000 0.354584 0.167248
O O1 0.236882 0.401419 0.500000
O O2 0.279418 0.500000 0.298532
O O3 0.312828 0.364701 0.263698
O O4 0.189006 0.406193 0.221797
O O5 0.500000 0.081846 0.500000
O O6 0.563823 0.126026 0.737941
O O7 0.500000 0.000000 0.747913
O O8 0.134526 0.793999 0.500000
O O9 0.153316 0.729265 0.762014
O O10 0.062784 0.831590 0.734587
O O11 0.500000 0.441322 0.139854
O O12 0.381607 0.150102 0.000000
O O13 0.500000 0.312961 0.000000
#
# Coordination Sequence:
#
# PCOD8274032 Si02
#       6
#    16   8  16   2  16   8
#     4  10  23  42  64  90 123 162 208 257 307 363
#     4  11  24  43  69  93 121 161 205 254 308 366
#     4  11  23  41  66  92 123 165 212 259 303 360
#     4   8  24  40  62  88 132 172 188 258 320 364
#     4  12  25  41  62  94 128 163 202 252 312 373
#     4  10  22  40  61  91 125 162 202 247 313 366
#
# _framework density 20.555987999999999
#
# number of rings (size 3 to 8) (size 9 to 14) (size 15 to 20)
#    0.364    0.848    0.000    5.818    1.697    9.212 
#    0.000    0.606    0.000    0.000    0.000    0.000 
#    0.000    0.000    0.000    0.000    0.000    0.000 
#
# Total GULP energy -408863.702706 kJ/mol
# GULP energy per Si atom -12389.809173 kJ/mol
# Density = 2.050920 g / cm^3
# Si number density = 20.555988 Si / 1000 Ang^3
#
#
#
# Elastic Constant Matrix: (Units=GPa)
#
#
# Indices 1 2 3 4 5 6 
#
# 1 134.0794 39.0012 30.5155 0.0000 0.0000 0.0000
# 2 39.0012 127.8278 30.2580 0.0000 0.0000 0.0000
# 3 30.5155 30.2580 82.3702 0.0000 0.0000 0.0000
# 4 0.0000 0.0000 0.0000 29.6072 0.0000 0.0000
# 5 0.0000 0.0000 0.0000 0.0000 159.5822 0.0000
# 6 0.0000 0.0000 0.0000 0.0000 0.0000 28.8401
#
#
#
# Elastic Compliance Matrix: (Units=1/GPa)
#
#
# Indices 1 2 3 4 5 6 
#
# 1 0.008609 -0.002050 -0.002436 0.000000 0.000000 0.000000
# 2 -0.002050 0.009056 -0.002567 0.000000 0.000000 0.000000
# 3 -0.002436 -0.002567 0.013986 0.000000 0.000000 0.000000
# 4 0.000000 0.000000 0.000000 0.033776 0.000000 0.000000
# 5 0.000000 0.000000 0.000000 0.000000 0.006266 0.000000
# 6 0.000000 0.000000 0.000000 0.000000 0.000000 0.034674
#
#
# Mechanical properties :
#
#
# Convention : Reuss Voigt Hill
#
# Bulk Modulus (GPa) = 56.99940 60.42521 58.71230
# Shear Modulus (GPa) = 39.58131 59.90608 49.74370
#
# Velocity S-wave (km/s) = 4.39285 5.40427 4.92460
# Velocity P-wave (km/s) = 7.31564 8.27048 7.80767
#
# Compressibility (1/GPa) = 0.01754404
#
# Stress axis : x y z
#
# Youngs Moduli (GPa) = 116.15667 110.42184 71.50027
#
# Poissons Ratio (x) = 0.22636 0.17420
# Poissons Ratio (y) = 0.23812 0.18356
# Poissons Ratio (z) = 0.28300 0.28348
#
# Static dielectric constant tensor:
#      x y z
#    x 3.804950 0.000000 0.000000 
#    y 0.000000 3.969130 0.000000 
#    z 0.000000 0.000000 3.742230 
# 
# 
# High freq. dielectric constant tensor:
#      x y z
#    x 1.805050 0.000000 0.000000 
#    y 0.000000 1.823850 0.000000 
#    z 0.000000 0.000000 1.809880 
# 
# From -- ./inp_files/10966.got.cif
#   From: 2010.03.12/outbox.cif.g09.slc.cpg/sg65_6_cif.got.tgz:10966.got - 2010.04.10 20:52:16.
