data_PCOD8274654
_publ_section_title
;
Structure prediction by ZEFSAII (Michael W. Deem and Ramdas Pophale) SiO2 
 PCOD8274654
Probable space group: C M M M
;
_chemical_formula_sum "Si O2"
_cell_formula_units_Z 72
_cell_length_a 9.022745
_cell_length_b 32.198964
_cell_length_c 13.774208
_cell_angle_alpha 90.000000
_cell_angle_beta 90.000000
_cell_angle_gamma 90.000000
_cell_volume 4001.724802
_symmetry_space_group_name_H-M "C M M M"
_symmetry_group_IT_number 65
_symmetry_cell_setting 'orthorhombic'
loop_
_space_group_symop_operation_xyz
x,y,z
-x,-y,z
x,-y,-z
-x,y,-z
-x,-y,-z
x,y,-z
-x,y,z
x,-y,z
1/2+x,1/2+y,z
1/2-x,1/2-y,z
1/2+x,1/2-y,-z
1/2-x,1/2+y,-z
1/2-x,1/2-y,-z
1/2+x,1/2+y,-z
1/2-x,1/2+y,z
1/2+x,1/2-y,z
loop_
_atom_site_type_symbol
_atom_site_label
_atom_site_fract_x
_atom_site_fract_y
_atom_site_fract_z
Si Si1 0.675792 0.375897 0.106952
Si Si2 0.175556 0.164015 0.606220
Si Si3 0.174999 0.079061 0.296808
Si Si4 0.324446 0.000000 0.611432
Si Si5 0.324426 0.292241 0.204565
O O1 0.500000 0.374416 0.106175
O O2 0.724478 0.410323 0.185916
O O3 0.731153 0.329839 0.136259
O O4 0.738673 0.387432 0.000000
O O5 0.243224 0.174534 0.500000
O O6 0.222853 0.117627 0.636061
O O7 0.230372 0.197448 0.685481
O O8 0.000000 0.165369 0.603212
O O9 0.000000 0.070062 0.303333
O O10 0.264457 0.039758 0.332615
O O11 0.500000 0.000000 0.616077
O O12 0.268313 0.000000 0.500000
O O13 0.500000 0.287118 0.199595
O O14 0.250000 0.250000 0.168087
#
# Coordination Sequence:
#
# PCOD8274654 Si02
#       5
#    16  16  16   8  16
#     4   8  15  30  51  72  94 121 155 197 241 277
#     4   8  14  26  44  64  87 117 154 195 234 270
#     4   9  17  31  53  75  91 117 161 202 229 265
#     4  11  23  35  48  71 104 132 147 175 232 287
#     4   9  17  28  43  65  92 121 153 191 234 277
#
# _framework density 17.992242000000001
#
# number of rings (size 3 to 8) (size 9 to 14) (size 15 to 20)
#    0.000    3.222    0.000    3.667    0.000    2.667 
#    0.000    5.000    0.000    6.667    0.000    0.000 
#    0.000    0.000    0.000    0.000    0.000    0.000 
#
# Total GULP energy -446121.889628 kJ/mol
# GULP energy per Si atom -12392.274712 kJ/mol
# Density = 1.795129 g / cm^3
# Si number density = 17.992242 Si / 1000 Ang^3
#
#
#
# Elastic Constant Matrix: (Units=GPa)
#
#
# Indices 1 2 3 4 5 6 
#
# 1 29.0430 28.0787 21.1680 0.0000 0.0000 0.0000
# 2 28.0787 108.6409 47.5181 0.0000 0.0000 0.0000
# 3 21.1680 47.5181 146.7375 0.0000 0.0000 0.0000
# 4 0.0000 0.0000 0.0000 17.8386 0.0000 0.0000
# 5 0.0000 0.0000 0.0000 0.0000 12.5560 0.0000
# 6 0.0000 0.0000 0.0000 0.0000 0.0000 24.8916
#
#
#
# Elastic Compliance Matrix: (Units=1/GPa)
#
#
# Indices 1 2 3 4 5 6 
#
# 1 0.047261 -0.010756 -0.003335 0.000000 0.000000 0.000000
# 2 -0.010756 0.013172 -0.002714 0.000000 0.000000 0.000000
# 3 -0.003335 -0.002714 0.008175 0.000000 0.000000 0.000000
# 4 0.000000 0.000000 0.000000 0.056058 0.000000 0.000000
# 5 0.000000 0.000000 0.000000 0.000000 0.079643 0.000000
# 6 0.000000 0.000000 0.000000 0.000000 0.000000 0.040174
#
#
# Mechanical properties :
#
#
# Convention : Reuss Voigt Hill
#
# Bulk Modulus (GPa) = 28.57274 53.10569 40.83922
# Shear Modulus (GPa) = 17.25572 23.56767 20.41169
#
# Velocity S-wave (km/s) = 3.10024 3.62315 3.37185
# Velocity P-wave (km/s) = 5.36007 6.86170 6.15684
#
# Compressibility (1/GPa) = 0.03499839
#
# Stress axis : x y z
#
# Youngs Moduli (GPa) = 21.15893 75.92096 122.32869
#
# Poissons Ratio (x) = 0.81664 0.40791
# Poissons Ratio (y) = 0.22759 0.33196
# Poissons Ratio (z) = 0.07056 0.20602
#
# Static dielectric constant tensor:
#      x y z
#    x 2.788190 0.000000 0.000000 
#    y 0.000000 3.235400 0.000000 
#    z 0.000000 0.000000 4.067510 
# 
# 
# High freq. dielectric constant tensor:
#      x y z
#    x 1.643820 0.000000 0.000000 
#    y 0.000000 1.690410 0.000000 
#    z 0.000000 0.000000 1.708640 
# 
# From -- ./inp_files/36933.got.cif
#   From: 2010.03.12/outbox.cif.g09.slc.cpg/sg65_19_cif.got.tgz:36933.got - 2010.04.10 20:52:16.
