data_PCOD8274893
_publ_section_title
;
Structure prediction by ZEFSAII (Michael W. Deem and Ramdas Pophale) SiO2 
 PCOD8274893
Probable space group: C M M M
;
_chemical_formula_sum "Si O2"
_cell_formula_units_Z 80
_cell_length_a 14.154410
_cell_length_b 33.850902
_cell_length_c 10.068583
_cell_angle_alpha 90.000000
_cell_angle_beta 90.000000
_cell_angle_gamma 90.000000
_cell_volume 4824.256285
_symmetry_space_group_name_H-M "C M M M"
_symmetry_group_IT_number 65
_symmetry_cell_setting 'orthorhombic'
loop_
_space_group_symop_operation_xyz
x,y,z
-x,-y,z
x,-y,-z
-x,y,-z
-x,-y,-z
x,y,-z
-x,y,z
x,-y,z
1/2+x,1/2+y,z
1/2-x,1/2-y,z
1/2+x,1/2-y,-z
1/2-x,1/2+y,-z
1/2-x,1/2-y,-z
1/2+x,1/2+y,-z
1/2-x,1/2+y,z
1/2+x,1/2-y,z
loop_
_atom_site_type_symbol
_atom_site_label
_atom_site_fract_x
_atom_site_fract_y
_atom_site_fract_z
Si Si1 0.210292 0.190708 0.342050
Si Si2 0.895493 0.453144 0.147559
Si Si3 0.262307 0.545426 0.346754
Si Si4 0.395287 0.614741 0.656464
Si Si5 0.105091 0.731448 0.342053
O O1 0.211880 0.189653 0.500000
O O2 0.171401 0.149316 0.283447
O O3 0.140217 0.225471 0.293900
O O4 0.317999 0.198971 0.291792
O O5 0.899162 0.500000 0.153681
O O6 0.823531 0.437673 0.258679
O O7 0.000000 0.436181 0.178799
O O8 0.863087 0.439570 0.000000
O O9 0.232277 0.550397 0.500000
O O10 0.287501 0.500000 0.313598
O O11 0.353205 0.571656 0.311072
O O12 0.402585 0.621044 0.500000
O O13 0.500000 0.617039 0.719792
O O14 0.100549 0.730927 0.500000
O O15 0.000000 0.722764 0.283424
#
# Coordination Sequence:
#
# PCOD8274893 Si02
#       5
#    16  16  16  16  16
#     4   8  13  20  30  45  64  90 127 163 194 234
#     4   8  14  26  44  62  78 100 131 164 200 244
#     4   9  17  27  39  58  82 106 135 171 205 233
#     4   9  16  25  36  49  69 100 136 170 202 239
#     4   8  12  18  29  44  63  88 119 157 197 235
#
# _framework density 16.582867
#
# number of rings (size 3 to 8) (size 9 to 14) (size 15 to 20)
#    0.000    3.600    0.000    2.400    0.000    3.200 
#    0.000    5.000    0.000    4.200    0.000    2.800 
#    0.000    0.000    0.000    3.600    0.000   17.600 
#
# Total GULP energy -495559.974913 kJ/mol
# GULP energy per Si atom -12388.999373 kJ/mol
# Density = 1.654512 g / cm^3
# Si number density = 16.582867 Si / 1000 Ang^3
#
#
#
# Elastic Constant Matrix: (Units=GPa)
#
#
# Indices 1 2 3 4 5 6 
#
# 1 164.6975 67.5452 30.9372 0.0000 0.0000 0.0000
# 2 67.5452 88.8224 19.7633 0.0000 0.0000 0.0000
# 3 30.9372 19.7633 26.6738 0.0000 0.0000 0.0000
# 4 0.0000 0.0000 0.0000 3.3429 0.0000 0.0000
# 5 0.0000 0.0000 0.0000 0.0000 6.7051 0.0000
# 6 0.0000 0.0000 0.0000 0.0000 0.0000 24.1923
#
#
#
# Elastic Compliance Matrix: (Units=1/GPa)
#
#
# Indices 1 2 3 4 5 6 
#
# 1 0.009807 -0.005899 -0.007003 0.000000 0.000000 0.000000
# 2 -0.005899 0.017030 -0.005775 0.000000 0.000000 0.000000
# 3 -0.007003 -0.005775 0.049892 0.000000 0.000000 0.000000
# 4 0.000000 0.000000 0.000000 0.299144 0.000000 0.000000
# 5 0.000000 0.000000 0.000000 0.000000 0.149140 0.000000
# 6 0.000000 0.000000 0.000000 0.000000 0.000000 0.041335
#
#
# Mechanical properties :
#
#
# Convention : Reuss Voigt Hill
#
# Bulk Modulus (GPa) = 25.39873 57.40946 41.40409
# Shear Modulus (GPa) = 8.10600 17.64460 12.87530
#
# Velocity S-wave (km/s) = 2.21332 3.26548 2.78946
# Velocity P-wave (km/s) = 4.67774 6.99376 5.94953
#
# Compressibility (1/GPa) = 0.03937205
#
# Stress axis : x y z
#
# Youngs Moduli (GPa) = 101.97216 58.72141 20.04346
#
# Poissons Ratio (x) = 0.34641 0.14037
# Poissons Ratio (y) = 0.60156 0.11576
# Poissons Ratio (z) = 0.71412 0.33914
#
# Static dielectric constant tensor:
#      x y z
#    x 3.568790 0.000000 0.000000 
#    y 0.000000 3.059070 0.000000 
#    z 0.000000 0.000000 2.602150 
# 
# 
# High freq. dielectric constant tensor:
#      x y z
#    x 1.649240 0.000000 0.000000 
#    y 0.000000 1.622330 0.000000 
#    z 0.000000 0.000000 1.563230 
# 
# From -- ./inp_files/25280.got.cif
#   From: 2010.03.12/outbox.cif.g09.slc.cpg/sg65_13_cif.got.tgz:25280.got - 2010.04.10 20:52:16.
