data_PCOD8274861
_publ_section_title
;
Structure prediction by ZEFSAII (Michael W. Deem and Ramdas Pophale) SiO2 
 PCOD8274861
Probable space group: C M M M
;
_chemical_formula_sum "Si O2"
_cell_formula_units_Z 88
_cell_length_a 9.312341
_cell_length_b 19.735185
_cell_length_c 28.472189
_cell_angle_alpha 90.000000
_cell_angle_beta 90.000000
_cell_angle_gamma 90.000000
_cell_volume 5232.640887
_symmetry_space_group_name_H-M "C M M M"
_symmetry_group_IT_number 65
_symmetry_cell_setting 'orthorhombic'
loop_
_space_group_symop_operation_xyz
x,y,z
-x,-y,z
x,-y,-z
-x,y,-z
-x,-y,-z
x,y,-z
-x,y,z
x,-y,z
1/2+x,1/2+y,z
1/2-x,1/2-y,z
1/2+x,1/2-y,-z
1/2-x,1/2+y,-z
1/2-x,1/2-y,-z
1/2+x,1/2+y,-z
1/2-x,1/2+y,z
1/2+x,1/2-y,z
loop_
_atom_site_type_symbol
_atom_site_label
_atom_site_fract_x
_atom_site_fract_y
_atom_site_fract_z
Si Si1 0.337863 0.580858 0.688979
Si Si2 0.162286 0.580635 0.222018
Si Si3 0.333198 0.422148 0.131287
Si Si4 0.832813 0.816266 0.946702
Si Si5 0.170381 0.425813 0.500000
Si Si6 0.838318 0.418857 0.399279
O O1 0.500000 0.608433 0.692291
O O2 0.335928 0.500000 0.689313
O O3 0.247563 0.609396 0.732989
O O4 0.266979 0.608822 0.641034
O O5 0.162362 0.500000 0.223696
O O6 0.241494 0.605671 0.175008
O O7 0.000000 0.608987 0.222681
O O8 0.500000 0.413559 0.144344
O O9 0.296291 0.500000 0.119973
O O10 0.289523 0.379695 0.085473
O O11 0.750000 0.750000 0.928850
O O12 0.000000 0.799909 0.942839
O O13 0.788618 0.834738 0.000000
O O14 0.242853 0.500000 0.500000
O O15 0.213646 0.389423 0.549440
O O16 0.000000 0.434046 0.500000
O O17 0.835318 0.500000 0.401572
O O18 0.000000 0.394494 0.387526
#
# Coordination Sequence:
#
# PCOD8274861 Si02
#       6
#    16  16  16  16   8  16
#     4   9  15  21  29  42  61  85 113 147 190 238
#     4   9  16  25  37  53  73  97 125 158 198 244
#     4   9  17  29  45  65  88 112 139 174 214 251
#     4   9  18  32  49  68  90 117 146 174 206 246
#     4   7  10  16  25  35  47  67  99 141 186 229
#     4   8  12  18  27  37  50  72 105 144 186 232
#
# _framework density 16.817513000000002
#
# number of rings (size 3 to 8) (size 9 to 14) (size 15 to 20)
#    0.000    3.364    0.000    2.182    0.000    5.455 
#    0.000    2.273    0.000    2.727    0.000    5.091 
#    0.000    0.000    0.000    0.000    0.000    0.000 
#
# Total GULP energy -545260.530972 kJ/mol
# GULP energy per Si atom -12392.284795 kJ/mol
# Density = 1.677924 g / cm^3
# Si number density = 16.817513 Si / 1000 Ang^3
#
#
#
# Elastic Constant Matrix: (Units=GPa)
#
#
# Indices 1 2 3 4 5 6 
#
# 1 99.8441 23.3782 76.7503 0.0000 0.0000 0.0000
# 2 23.3782 28.8322 39.8764 0.0000 0.0000 0.0000
# 3 76.7503 39.8764 161.1698 0.0000 0.0000 0.0000
# 4 0.0000 0.0000 0.0000 1.1139 0.0000 0.0000
# 5 0.0000 0.0000 0.0000 0.0000 30.9787 0.0000
# 6 0.0000 0.0000 0.0000 0.0000 0.0000 11.3463
#
#
#
# Elastic Compliance Matrix: (Units=1/GPa)
#
#
# Indices 1 2 3 4 5 6 
#
# 1 0.016057 -0.003715 -0.006727 0.000000 0.000000 0.000000
# 2 -0.003715 0.053586 -0.011489 0.000000 0.000000 0.000000
# 3 -0.006727 -0.011489 0.012251 0.000000 0.000000 0.000000
# 4 0.000000 0.000000 0.000000 0.897738 0.000000 0.000000
# 5 0.000000 0.000000 0.000000 0.000000 0.032280 0.000000
# 6 0.000000 0.000000 0.000000 0.000000 0.000000 0.088135
#
#
# Mechanical properties :
#
#
# Convention : Reuss Voigt Hill
#
# Bulk Modulus (GPa) = 26.29471 63.31733 44.80602
# Shear Modulus (GPa) = 4.32307 18.67719 11.50013
#
# Velocity S-wave (km/s) = 1.60504 3.33615 2.61783
# Velocity P-wave (km/s) = 4.37083 7.25060 5.98646
#
# Compressibility (1/GPa) = 0.03803046
#
# Stress axis : x y z
#
# Youngs Moduli (GPa) = 62.27942 18.66169 81.62839
#
# Poissons Ratio (x) = 0.06934 0.54912
# Poissons Ratio (y) = 0.23140 0.93781
# Poissons Ratio (z) = 0.41896 0.21440
#
# Static dielectric constant tensor:
#      x y z
#    x 3.190600 0.000000 0.000000 
#    y 0.000000 2.457220 0.000000 
#    z 0.000000 0.000000 3.544820 
# 
# 
# High freq. dielectric constant tensor:
#      x y z
#    x 1.644720 0.000000 0.000000 
#    y 0.000000 1.559930 0.000000 
#    z 0.000000 0.000000 1.669700 
# 
# From -- ./inp_files/76654.got.cif
#   From: 2010.03.12/outbox.cif.g09.slc.cpg/sg65_39_cif.got.tgz:76654.got - 2010.04.10 20:52:16.
