data_PCOD8274498
_publ_section_title
;
Structure prediction by ZEFSAII (Michael W. Deem and Ramdas Pophale) SiO2 
 PCOD8274498
Probable space group: C M M M
;
_chemical_formula_sum "Si O2"
_cell_formula_units_Z 88
_cell_length_a 27.174422
_cell_length_b 19.219920
_cell_length_c 8.491186
_cell_angle_alpha 90.000000
_cell_angle_beta 90.000000
_cell_angle_gamma 90.000000
_cell_volume 4434.863378
_symmetry_space_group_name_H-M "C M M M"
_symmetry_group_IT_number 65
_symmetry_cell_setting 'orthorhombic'
loop_
_space_group_symop_operation_xyz
x,y,z
-x,-y,z
x,-y,-z
-x,y,-z
-x,-y,-z
x,y,-z
-x,y,z
x,-y,z
1/2+x,1/2+y,z
1/2-x,1/2-y,z
1/2+x,1/2-y,-z
1/2-x,1/2+y,-z
1/2-x,1/2-y,-z
1/2+x,1/2+y,-z
1/2-x,1/2+y,z
1/2+x,1/2-y,z
loop_
_atom_site_type_symbol
_atom_site_label
_atom_site_fract_x
_atom_site_fract_y
_atom_site_fract_z
Si Si1 0.444946 0.423760 0.812796
Si Si2 0.777088 0.177750 0.321631
Si Si3 0.379661 0.701044 0.183458
Si Si4 0.000000 0.420962 0.313186
Si Si5 0.100556 0.650319 0.315223
Si Si6 0.196588 0.419630 0.816964
O O1 0.500000 0.410405 0.750616
O O2 0.426541 0.500000 0.754679
O O3 0.410507 0.363287 0.745843
O O4 0.443977 0.422075 0.000000
O O5 0.795502 0.167337 0.500000
O O6 0.750000 0.250000 0.300936
O O7 0.823101 0.180184 0.205183
O O8 0.740376 0.115785 0.278982
O O9 0.396395 0.767980 0.281287
O O10 0.389999 0.714886 0.000000
O O11 0.951417 0.380368 0.253337
O O12 0.000000 0.500000 0.246630
O O13 0.000000 0.422467 0.500000
O O14 0.107306 0.637042 0.500000
O O15 0.143848 0.611742 0.224313
O O16 0.196329 0.500000 0.770225
O O17 0.206750 0.407495 0.000000
#
# Coordination Sequence:
#
# PCOD8274498 Si02
#       6
#    16  16  16   8  16  16
#     4   8  16  33  56  83 116 153 191 232 284 345
#     4  11  23  40  61  85 116 156 199 239 288 351
#     4  11  22  35  59  90 121 153 193 249 300 347
#     4   9  20  38  59  83 114 155 200 244 289 345
#     4  11  22  38  60  87 119 159 201 240 289 354
#     4  11  24  41  63  91 120 152 194 244 297 351
#
# _framework density 19.842773999999999
#
# number of rings (size 3 to 8) (size 9 to 14) (size 15 to 20)
#    0.000    1.727    1.818    3.273    1.273    3.636 
#    0.000    3.182    0.000    4.909    0.000    5.091 
#    0.000    0.000    0.000    0.000    0.000    0.000 
#
# Total GULP energy -545680.849652 kJ/mol
# GULP energy per Si atom -12401.837492 kJ/mol
# Density = 1.979761 g / cm^3
# Si number density = 19.842774 Si / 1000 Ang^3
#
#
#
# Elastic Constant Matrix: (Units=GPa)
#
#
# Indices 1 2 3 4 5 6 
#
# 1 114.3868 69.6382 5.3915 0.0000 0.0000 0.0000
# 2 69.6382 159.4637 23.3363 0.0000 0.0000 0.0000
# 3 5.3915 23.3363 23.1369 0.0000 0.0000 0.0000
# 4 0.0000 0.0000 0.0000 -461.7055 0.0000 0.0000
# 5 0.0000 0.0000 0.0000 0.0000 48.0118 0.0000
# 6 0.0000 0.0000 0.0000 0.0000 0.0000 29.7099
#
#
#
# Elastic Compliance Matrix: (Units=1/GPa)
#
#
# Indices 1 2 3 4 5 6 
#
# 1 0.012076 -0.005704 0.002939 0.000000 0.000000 0.000000
# 2 -0.005704 0.010051 -0.008808 0.000000 0.000000 0.000000
# 3 0.002939 -0.008808 0.051420 0.000000 0.000000 0.000000
# 4 0.000000 0.000000 0.000000 -0.002166 0.000000 0.000000
# 5 0.000000 0.000000 0.000000 0.000000 0.020828 0.000000
# 6 0.000000 0.000000 0.000000 0.000000 0.000000 0.033659
#
#
# Mechanical properties :
#
#
# Convention : Reuss Voigt Hill
#
# Bulk Modulus (GPa) = 19.84091 54.85773 37.34932
# Shear Modulus (GPa) = 30.15396 -63.55533 -16.70069
#
# Velocity S-wave (km/s) = 3.90249 -5.66560 -2.90427
# Velocity P-wave (km/s) = 5.50697 3.88490 2.75991
#
# Compressibility (1/GPa) = 0.05040092
#
# Stress axis : x y z
#
# Youngs Moduli (GPa) = 82.80760 99.49336 19.44751
#
# Poissons Ratio (x) = 0.56749 -0.05715
# Poissons Ratio (y) = 0.47232 0.17130
# Poissons Ratio (z) = -0.24336 0.87638
#
# Static dielectric constant tensor:
#      x y z
#    x 3.705140 0.000000 0.000000 
#    y 0.000000 3.993110 0.000000 
#    z 0.000000 0.000000 3.391640 
# 
# 
# High freq. dielectric constant tensor:
#      x y z
#    x 1.781030 0.000000 0.000000 
#    y 0.000000 1.788760 0.000000 
#    z 0.000000 0.000000 1.755640 
# 
# From -- ./inp_files/13948.got.cif
#   From: 2010.03.12/outbox.cif.g09.slc.cpg/sg65_7_cif.got.tgz:13948.got - 2010.04.10 20:52:16.
