data_PCOD8274208
_publ_section_title
;
Structure prediction by ZEFSAII (Michael W. Deem and Ramdas Pophale) SiO2 
 PCOD8274208
Probable space group: C M M M
;
_chemical_formula_sum "Si O2"
_cell_formula_units_Z 96
_cell_length_a 24.134029
_cell_length_b 23.779274
_cell_length_c 9.380017
_cell_angle_alpha 90.000000
_cell_angle_beta 90.000000
_cell_angle_gamma 90.000000
_cell_volume 5383.095033
_symmetry_space_group_name_H-M "C M M M"
_symmetry_group_IT_number 65
_symmetry_cell_setting 'orthorhombic'
loop_
_space_group_symop_operation_xyz
x,y,z
-x,-y,z
x,-y,-z
-x,y,-z
-x,-y,-z
x,y,-z
-x,y,z
x,-y,z
1/2+x,1/2+y,z
1/2-x,1/2-y,z
1/2+x,1/2-y,-z
1/2-x,1/2+y,-z
1/2-x,1/2-y,-z
1/2+x,1/2+y,-z
1/2-x,1/2+y,z
1/2+x,1/2-y,z
loop_
_atom_site_type_symbol
_atom_site_label
_atom_site_fract_x
_atom_site_fract_y
_atom_site_fract_z
Si Si1 0.640476 0.063835 0.664908
Si Si2 0.439620 0.565608 0.344701
Si Si3 0.438056 0.274031 0.169234
Si Si4 0.231605 0.064340 0.333321
Si Si5 0.358262 0.372099 0.168004
Si Si6 0.936568 0.647533 0.833701
O O1 0.629800 0.076146 0.500000
O O2 0.704400 0.074100 0.703362
O O3 0.603123 0.105113 0.754601
O O4 0.623931 0.000000 0.702579
O O5 0.416619 0.586797 0.500000
O O6 0.500000 0.592782 0.317236
O O7 0.445897 0.500000 0.351436
O O8 0.400348 0.579081 0.212469
O O9 0.500000 0.290929 0.225884
O O10 0.388365 0.314726 0.223806
O O11 0.423899 0.210889 0.219684
O O12 0.439933 0.276827 0.000000
O O13 0.219919 0.072901 0.500000
O O14 0.199223 0.112898 0.246250
O O15 0.214409 0.000000 0.290848
O O16 0.347631 0.371340 0.000000
O O17 0.000000 0.631752 0.799815
O O18 0.924254 0.642392 0.000000
#
# Coordination Sequence:
#
# PCOD8274208 Si02
#       6
#    16  16  16  16  16  16
#     4   9  19  36  56  77 102 132 163 197 242 294
#     4   9  18  31  44  60  88 126 163 202 253 307
#     4   8  16  32  50  69  99 136 167 199 245 296
#     4   9  19  36  53  68  95 136 172 202 245 300
#     4  11  20  29  47  73  96 124 167 214 253 287
#     4   9  18  34  56  79 103 132 163 195 237 293
#
# _framework density 17.833607000000001
#
# number of rings (size 3 to 8) (size 9 to 14) (size 15 to 20)
#    0.000    2.833    0.000    4.000    0.000    5.333 
#    0.000    6.667    0.000    7.000    0.000    0.000 
#    0.000    0.000    0.000    0.000    0.000    0.000 
#
# Total GULP energy -594721.230625 kJ/mol
# GULP energy per Si atom -12390.025638 kJ/mol
# Density = 1.779302 g / cm^3
# Si number density = 17.833607 Si / 1000 Ang^3
#
#
#
# Elastic Constant Matrix: (Units=GPa)
#
#
# Indices 1 2 3 4 5 6 
#
# 1 112.1447 78.2632 53.7972 0.0000 0.0000 0.0000
# 2 78.2632 107.2484 48.6898 0.0000 0.0000 0.0000
# 3 53.7972 48.6898 57.9965 0.0000 0.0000 0.0000
# 4 0.0000 0.0000 0.0000 11.0293 0.0000 0.0000
# 5 0.0000 0.0000 0.0000 0.0000 32.6762 0.0000
# 6 0.0000 0.0000 0.0000 0.0000 0.0000 38.0115
#
#
#
# Elastic Compliance Matrix: (Units=1/GPa)
#
#
# Indices 1 2 3 4 5 6 
#
# 1 0.021864 -0.010903 -0.011127 0.000000 0.000000 0.000000
# 2 -0.010903 0.020504 -0.007100 0.000000 0.000000 0.000000
# 3 -0.011127 -0.007100 0.033525 0.000000 0.000000 0.000000
# 4 0.000000 0.000000 0.000000 0.090668 0.000000 0.000000
# 5 0.000000 0.000000 0.000000 0.000000 0.030603 0.000000
# 6 0.000000 0.000000 0.000000 0.000000 0.000000 0.026308
#
#
# Mechanical properties :
#
#
# Convention : Reuss Voigt Hill
#
# Bulk Modulus (GPa) = 56.71615 70.98777 63.85196
# Shear Modulus (GPa) = 17.38464 22.78601 20.08532
#
# Velocity S-wave (km/s) = 3.12560 3.57837 3.35962
# Velocity P-wave (km/s) = 6.70059 7.54752 7.13663
#
# Compressibility (1/GPa) = 0.01763166
#
# Stress axis : x y z
#
# Youngs Moduli (GPa) = 45.73671 48.77088 29.82883
#
# Poissons Ratio (x) = 0.53177 0.33192
# Poissons Ratio (y) = 0.49869 0.21178
# Poissons Ratio (z) = 0.50893 0.34626
#
# Static dielectric constant tensor:
#      x y z
#    x 3.347920 0.000000 0.000000 
#    y 0.000000 3.352140 0.000000 
#    z 0.000000 0.000000 3.171190 
# 
# 
# High freq. dielectric constant tensor:
#      x y z
#    x 1.690530 0.000000 0.000000 
#    y 0.000000 1.680750 0.000000 
#    z 0.000000 0.000000 1.672780 
# 
# From -- ./inp_files/14324.got.cif
#   From: 2010.03.12/outbox.cif.g09.slc.cpg/sg65_8_cif.got.tgz:14324.got - 2010.04.10 20:52:16.
