data_PCOD8274867
_publ_section_title
;
Structure prediction by ZEFSAII (Michael W. Deem and Ramdas Pophale) SiO2 
 PCOD8274867
Probable space group: C M M M
;
_chemical_formula_sum "Si O2"
_cell_formula_units_Z 104
_cell_length_a 24.079031
_cell_length_b 26.560907
_cell_length_c 9.372803
_cell_angle_alpha 90.000000
_cell_angle_beta 90.000000
_cell_angle_gamma 90.000000
_cell_volume 5994.478351
_symmetry_space_group_name_H-M "C M M M"
_symmetry_group_IT_number 65
_symmetry_cell_setting 'orthorhombic'
loop_
_space_group_symop_operation_xyz
x,y,z
-x,-y,z
x,-y,-z
-x,y,-z
-x,-y,-z
x,y,-z
-x,y,z
x,-y,z
1/2+x,1/2+y,z
1/2-x,1/2-y,z
1/2+x,1/2-y,-z
1/2-x,1/2+y,-z
1/2-x,1/2-y,-z
1/2+x,1/2+y,-z
1/2-x,1/2+y,z
1/2+x,1/2-y,z
loop_
_atom_site_type_symbol
_atom_site_label
_atom_site_fract_x
_atom_site_fract_y
_atom_site_fract_z
Si Si1 0.367019 0.791207 0.163337
Si Si2 0.843502 0.180108 0.830090
Si Si3 0.436654 0.134292 0.333703
Si Si4 0.841567 0.557804 0.332753
Si Si5 0.065644 0.000000 0.844936
Si Si6 0.561845 0.392603 0.829029
Si Si7 0.769051 0.630825 0.163537
O O1 0.350865 0.736762 0.227775
O O2 0.417522 0.815622 0.251015
O O3 0.312660 0.824560 0.177961
O O4 0.386893 0.786534 0.000000
O O5 0.896298 0.149323 0.772133
O O6 0.788194 0.152792 0.771806
O O7 0.839847 0.181507 0.000000
O O8 0.430878 0.146145 0.500000
O O9 0.500000 0.121228 0.291965
O O10 0.398513 0.086570 0.290412
O O11 0.829995 0.562015 0.500000
O O12 0.847914 0.500000 0.284085
O O13 0.789024 0.582458 0.252879
O O14 0.081354 0.947475 0.766051
O O15 0.000000 0.000000 0.867073
O O16 0.095038 0.000000 0.000000
O O17 0.500000 0.378578 0.775354
O O18 0.562547 0.395844 0.000000
O O19 0.761926 0.613522 0.000000
#
# Coordination Sequence:
#
# PCOD8274867 Si02
#       7
#    16  16  16  16   8  16  16
#     4   9  17  29  46  65  91 124 153 185 228 275
#     4   9  16  26  41  63  88 118 155 189 222 268
#     4   9  18  32  49  70  95 122 155 194 234 278
#     4   9  18  33  51  69  92 123 156 192 236 283
#     4   7  10  18  30  42  64 100 131 159 204 251
#     4   8  13  21  33  51  77 108 141 177 216 257
#     4   9  17  30  46  66  92 121 152 188 230 273
#
# _framework density 17.349298999999998
#
# number of rings (size 3 to 8) (size 9 to 14) (size 15 to 20)
#    0.000    3.308    0.000    1.385    0.000    3.385 
#    1.385    3.846    0.000    3.692    0.000    4.308 
#    0.000    0.000    0.000    1.692    0.000    1.385 
#
# Total GULP energy -644450.641276 kJ/mol
# GULP energy per Si atom -12393.281563 kJ/mol
# Density = 1.730981 g / cm^3
# Si number density = 17.349299 Si / 1000 Ang^3
#
#
#
# Elastic Constant Matrix: (Units=GPa)
#
#
# Indices 1 2 3 4 5 6 
#
# 1 104.1194 71.5403 29.2660 0.0000 0.0000 0.0000
# 2 71.5403 142.6894 35.8136 0.0000 0.0000 0.0000
# 3 29.2660 35.8136 26.8276 0.0000 0.0000 0.0000
# 4 0.0000 0.0000 0.0000 19.0869 0.0000 0.0000
# 5 0.0000 0.0000 0.0000 0.0000 17.9035 0.0000
# 6 0.0000 0.0000 0.0000 0.0000 0.0000 19.3389
#
#
#
# Elastic Compliance Matrix: (Units=1/GPa)
#
#
# Indices 1 2 3 4 5 6 
#
# 1 0.016372 -0.005603 -0.010380 0.000000 0.000000 0.000000
# 2 -0.005603 0.012457 -0.010517 0.000000 0.000000 0.000000
# 3 -0.010380 -0.010517 0.062639 0.000000 0.000000 0.000000
# 4 0.000000 0.000000 0.000000 0.052392 0.000000 0.000000
# 5 0.000000 0.000000 0.000000 0.000000 0.055855 0.000000
# 6 0.000000 0.000000 0.000000 0.000000 0.000000 0.051709
#
#
# Mechanical properties :
#
#
# Convention : Reuss Voigt Hill
#
# Bulk Modulus (GPa) = 25.99649 60.76403 43.38026
# Shear Modulus (GPa) = 15.76057 20.40032 18.08045
#
# Velocity S-wave (km/s) = 3.01728 3.43280 3.23173
# Velocity P-wave (km/s) = 5.21108 7.12826 6.24369
#
# Compressibility (1/GPa) = 0.03846673
#
# Stress axis : x y z
#
# Youngs Moduli (GPa) = 61.08039 80.27472 15.96453
#
# Poissons Ratio (x) = 0.44979 0.16571
# Poissons Ratio (y) = 0.34224 0.16791
# Poissons Ratio (z) = 0.63402 0.84429
#
# Static dielectric constant tensor:
#      x y z
#    x 3.272510 0.000000 0.000000 
#    y 0.000000 3.500160 0.000000 
#    z 0.000000 0.000000 2.825250 
# 
# 
# High freq. dielectric constant tensor:
#      x y z
#    x 1.665830 0.000000 0.000000 
#    y 0.000000 1.680400 0.000000 
#    z 0.000000 0.000000 1.616170 
# 
# From -- ./inp_files/14762.got.cif
#   From: 2010.03.12/outbox.cif.g09.slc.cpg/sg65_8_cif.got.tgz:14762.got - 2010.04.10 20:52:16.
