data_PCOD8274946
_publ_section_title
;
Structure prediction by ZEFSAII (Michael W. Deem and Ramdas Pophale) SiO2 
 PCOD8274946
Probable space group: C M M M
;
_chemical_formula_sum "Si O2"
_cell_formula_units_Z 120
_cell_length_a 9.806165
_cell_length_b 29.219289
_cell_length_c 28.494758
_cell_angle_alpha 90.000000
_cell_angle_beta 90.000000
_cell_angle_gamma 90.000000
_cell_volume 8164.579334
_symmetry_space_group_name_H-M "C M M M"
_symmetry_group_IT_number 65
_symmetry_cell_setting 'orthorhombic'
loop_
_space_group_symop_operation_xyz
x,y,z
-x,-y,z
x,-y,-z
-x,y,-z
-x,-y,-z
x,y,-z
-x,y,z
x,-y,z
1/2+x,1/2+y,z
1/2-x,1/2-y,z
1/2+x,1/2-y,-z
1/2-x,1/2+y,-z
1/2-x,1/2-y,-z
1/2+x,1/2+y,-z
1/2-x,1/2+y,z
1/2+x,1/2-y,z
loop_
_atom_site_type_symbol
_atom_site_label
_atom_site_fract_x
_atom_site_fract_y
_atom_site_fract_z
Si Si1 0.840659 0.946764 0.177927
Si Si2 0.837890 0.550664 0.364989
Si Si3 0.337172 0.888199 0.448180
Si Si4 0.651692 0.054393 0.737611
Si Si5 0.149553 0.286797 0.445021
Si Si6 0.342367 0.707285 0.944919
Si Si7 0.661469 0.608742 0.912524
Si Si8 0.336968 0.551807 0.000000
O O1 0.758905 0.929389 0.223430
O O2 0.789127 0.914335 0.135804
O O3 0.000000 0.939959 0.188081
O O4 0.809476 0.000000 0.165862
O O5 0.775532 0.500000 0.369960
O O6 0.774455 0.579958 0.407571
O O7 0.800696 0.572214 0.313928
O O8 0.000000 0.548675 0.369434
O O9 0.285449 0.903887 0.500000
O O10 0.500000 0.888940 0.448040
O O11 0.287403 0.836975 0.436865
O O12 0.500000 0.072988 0.750104
O O13 0.646395 0.000000 0.734659
O O14 0.135117 0.277043 0.500000
O O15 0.250000 0.250000 0.421117
O O16 0.000000 0.282334 0.421508
O O17 0.500000 0.718658 0.933461
O O18 0.250000 0.750000 0.928449
O O19 0.291931 0.661772 0.917190
O O20 0.323560 0.697470 0.000000
O O21 0.500000 0.607005 0.916013
O O22 0.721751 0.578154 0.954660
O O23 0.280915 0.500000 0.000000
O O24 0.500000 0.551588 0.000000
#
# Coordination Sequence:
#
# PCOD8274946 Si02
#       8
#    16  16  16  16  16  16  16   8
#     4   9  16  25  39  60  82 101 125 158 192 226
#     4   8  13  21  34  52  74 101 130 156 184 223
#     4   8  13  20  31  51  77 100 123 154 190 225
#     4   8  14  25  39  54  74 101 131 160 189 221
#     4   8  13  21  33  49  70  95 120 147 180 216
#     4   9  16  27  42  58  78 103 131 162 194 226
#     4   9  15  24  37  57  82 105 127 155 192 228
#     4   9  14  20  33  54  81 109 131 149 176 223
#
# _framework density 14.697634000000001
#
# number of rings (size 3 to 8) (size 9 to 14) (size 15 to 20)
#    0.000    3.533    0.667    2.000    0.000    1.867 
#    0.000    2.000    0.000    0.800    0.000    0.933 
#    0.000    9.600    0.000   10.400    0.000   10.667 
#
# Total GULP energy -743440.391280 kJ/mol
# GULP energy per Si atom -12390.673188 kJ/mol
# Density = 1.466418 g / cm^3
# Si number density = 14.697634 Si / 1000 Ang^3
#
#
#
# Elastic Constant Matrix: (Units=GPa)
#
#
# Indices 1 2 3 4 5 6 
#
# 1 33.4732 30.4238 32.8672 0.0000 0.0000 0.0000
# 2 30.4238 96.3561 61.7793 0.0000 0.0000 0.0000
# 3 32.8672 61.7793 115.9700 0.0000 0.0000 0.0000
# 4 0.0000 0.0000 0.0000 8.0441 0.0000 0.0000
# 5 0.0000 0.0000 0.0000 0.0000 14.0953 0.0000
# 6 0.0000 0.0000 0.0000 0.0000 0.0000 15.9021
#
#
#
# Elastic Compliance Matrix: (Units=1/GPa)
#
#
# Indices 1 2 3 4 5 6 
#
# 1 0.046448 -0.009455 -0.008127 0.000000 0.000000 0.000000
# 2 -0.009455 0.017686 -0.006742 0.000000 0.000000 0.000000
# 3 -0.008127 -0.006742 0.014518 0.000000 0.000000 0.000000
# 4 0.000000 0.000000 0.000000 0.124315 0.000000 0.000000
# 5 0.000000 0.000000 0.000000 0.000000 0.070945 0.000000
# 6 0.000000 0.000000 0.000000 0.000000 0.000000 0.062885
#
#
# Mechanical properties :
#
#
# Convention : Reuss Voigt Hill
#
# Bulk Modulus (GPa) = 33.32897 55.10442 44.21669
# Shear Modulus (GPa) = 12.64392 15.65691 14.15042
#
# Velocity S-wave (km/s) = 2.93622 3.26738 3.10622
# Velocity P-wave (km/s) = 5.84986 7.19777 6.55853
#
# Compressibility (1/GPa) = 0.03000393
#
# Stress axis : x y z
#
# Youngs Moduli (GPa) = 21.52936 56.54102 68.88047
#
# Poissons Ratio (x) = 0.53459 0.55980
# Poissons Ratio (y) = 0.20356 0.46440
# Poissons Ratio (z) = 0.17497 0.38121
#
# Static dielectric constant tensor:
#      x y z
#    x 2.633450 0.000000 0.000000 
#    y 0.000000 2.916370 0.000000 
#    z 0.000000 0.000000 2.967710 
# 
# 
# High freq. dielectric constant tensor:
#      x y z
#    x 1.518110 0.000000 0.000000 
#    y 0.000000 1.549150 0.000000 
#    z 0.000000 0.000000 1.546810 
# 
# From -- ./inp_files/74509.got.cif
#   From: 2010.03.12/outbox.cif.g09.slc.cpg/sg65_38_cif.got.tgz:74509.got - 2010.04.10 20:52:16.
