data_PCOD8274938
_publ_section_title
;
Structure prediction by ZEFSAII (Michael W. Deem and Ramdas Pophale) SiO2 
 PCOD8274938
Probable space group: C M M M
;
_chemical_formula_sum "Si O2"
_cell_formula_units_Z 80
_cell_length_a 30.378138
_cell_length_b 7.861712
_cell_length_c 23.999824
_cell_angle_alpha 90.000000
_cell_angle_beta 90.000000
_cell_angle_gamma 90.000000
_cell_volume 5731.738096
_symmetry_space_group_name_H-M "C M M M"
_symmetry_group_IT_number 65
_symmetry_cell_setting 'orthorhombic'
loop_
_space_group_symop_operation_xyz
x,y,z
-x,-y,z
x,-y,-z
-x,y,-z
-x,-y,-z
x,y,-z
-x,y,z
x,-y,z
1/2+x,1/2+y,z
1/2-x,1/2-y,z
1/2+x,1/2-y,-z
1/2-x,1/2+y,-z
1/2-x,1/2-y,-z
1/2+x,1/2+y,-z
1/2-x,1/2+y,z
1/2+x,1/2-y,z
loop_
_atom_site_type_symbol
_atom_site_label
_atom_site_fract_x
_atom_site_fract_y
_atom_site_fract_z
Si Si1 0.611203 0.193427 0.561245
Si Si2 0.796021 0.189780 0.565733
Si Si3 0.948416 0.697716 0.339567
Si Si4 0.448076 0.500000 0.739979
Si Si5 0.447307 0.500000 0.864653
Si Si6 0.552314 0.811137 0.062614
O O1 0.607328 0.284849 0.500000
O O2 0.661222 0.204381 0.584876
O O3 0.576902 0.268136 0.605762
O O4 0.598297 0.000000 0.552972
O O5 0.790756 0.207162 0.500000
O O6 0.750000 0.250000 0.593683
O O7 0.805181 0.000000 0.585435
O O8 0.936359 0.500000 0.324866
O O9 0.000000 0.715061 0.351769
O O10 0.933234 0.824960 0.290348
O O11 0.500000 0.500000 0.744345
O O12 0.427964 0.500000 0.802089
O O13 0.500000 0.500000 0.864807
O O14 0.428826 0.668188 0.895725
O O15 0.500000 0.804254 0.062965
O O16 0.568005 0.000000 0.081715
O O17 0.569294 0.773205 0.000000
#
# Coordination Sequence:
#
# PCOD8274938 Si02
#       6
#    16  16  16   8   8  16
#     4   9  17  28  42  58  73  91 116 145 183 233
#     4   9  16  25  38  56  77  96 111 131 164 214
#     4   9  18  31  43  54  71  94 120 156 196 228
#     4   9  18  29  39  51  67  90 123 159 191 223
#     4   9  15  22  33  47  62  85 115 145 179 219
#     4   8  13  20  30  46  67  87 107 136 177 221
#
# _framework density 13.957373
#
# number of rings (size 3 to 8) (size 9 to 14) (size 15 to 20)
#    0.000    3.200    0.000    1.500    1.400    4.800 
#    0.000    6.000    0.000    1.800    0.000    0.000 
#    0.000    0.000    0.000    0.000    0.000    0.000 
#
# Total GULP energy -495522.033941 kJ/mol
# GULP energy per Si atom -12388.050849 kJ/mol
# Density = 1.392561 g / cm^3
# Si number density = 13.957373 Si / 1000 Ang^3
#
#
#
# Elastic Constant Matrix: (Units=GPa)
#
#
# Indices 1 2 3 4 5 6 
#
# 1 27.4309 23.2645 32.3202 0.0000 0.0000 0.0000
# 2 23.2645 84.1680 53.8097 0.0000 0.0000 0.0000
# 3 32.3202 53.8097 95.6986 0.0000 0.0000 0.0000
# 4 0.0000 0.0000 0.0000 17.6831 0.0000 0.0000
# 5 0.0000 0.0000 0.0000 0.0000 0.7946 0.0000
# 6 0.0000 0.0000 0.0000 0.0000 0.0000 12.6568
#
#
#
# Elastic Compliance Matrix: (Units=1/GPa)
#
#
# Indices 1 2 3 4 5 6 
#
# 1 0.062365 -0.005890 -0.017751 0.000000 0.000000 0.000000
# 2 -0.005890 0.019105 -0.008753 0.000000 0.000000 0.000000
# 3 -0.017751 -0.008753 0.021366 0.000000 0.000000 0.000000
# 4 0.000000 0.000000 0.000000 0.056551 0.000000 0.000000
# 5 0.000000 0.000000 0.000000 0.000000 1.258483 0.000000
# 6 0.000000 0.000000 0.000000 0.000000 0.000000 0.079009
#
#
# Mechanical properties :
#
#
# Convention : Reuss Voigt Hill
#
# Bulk Modulus (GPa) = 26.28204 47.34291 36.81247
# Shear Modulus (GPa) = 3.17591 12.75379 7.96485
#
# Velocity S-wave (km/s) = 1.51009 3.02614 2.39143
# Velocity P-wave (km/s) = 4.68098 6.79730 5.83588
#
# Compressibility (1/GPa) = 0.03804880
#
# Stress axis : x y z
#
# Youngs Moduli (GPa) = 16.03456 52.34214 46.80270
#
# Poissons Ratio (x) = 0.30828 0.83079
# Poissons Ratio (y) = 0.09444 0.40968
# Poissons Ratio (z) = 0.28463 0.45817
#
# Static dielectric constant tensor:
#      x y z
#    x 2.466810 0.000000 0.000000 
#    y 0.000000 2.945490 0.000000 
#    z 0.000000 0.000000 2.812000 
# 
# 
# High freq. dielectric constant tensor:
#      x y z
#    x 1.479170 0.000000 0.000000 
#    y 0.000000 1.547260 0.000000 
#    z 0.000000 0.000000 1.501200 
# 
# From -- ./inp_files/65665.got.cif
#   From: 2010.03.12/outbox.cif.g09.slc.cpg/sg65_33_cif.got.tgz:65665.got - 2010.04.10 20:52:16.
