data_PCOD8274301
_publ_section_title
;
Structure prediction by ZEFSAII (Michael W. Deem and Ramdas Pophale) SiO2 
 PCOD8274301
Probable space group: C M M M
;
_chemical_formula_sum "Si O2"
_cell_formula_units_Z 88
_cell_length_a 27.469894
_cell_length_b 14.205579
_cell_length_c 11.501126
_cell_angle_alpha 90.000000
_cell_angle_beta 90.000000
_cell_angle_gamma 90.000000
_cell_volume 4488.035512
_symmetry_space_group_name_H-M "C M M M"
_symmetry_group_IT_number 65
_symmetry_cell_setting 'orthorhombic'
loop_
_space_group_symop_operation_xyz
x,y,z
-x,-y,z
x,-y,-z
-x,y,-z
-x,-y,-z
x,y,-z
-x,y,z
x,-y,z
1/2+x,1/2+y,z
1/2-x,1/2-y,z
1/2+x,1/2-y,-z
1/2-x,1/2+y,-z
1/2-x,1/2-y,-z
1/2+x,1/2+y,-z
1/2-x,1/2+y,z
1/2+x,1/2-y,z
loop_
_atom_site_type_symbol
_atom_site_label
_atom_site_fract_x
_atom_site_fract_y
_atom_site_fract_z
Si Si1 0.500000 0.606437 0.362166
Si Si2 0.264529 0.857356 0.367135
Si Si3 0.215657 0.887259 0.000000
Si Si4 0.634262 0.892226 0.755065
Si Si5 0.593651 0.722719 0.361241
Si Si6 0.174719 0.611011 0.000000
Si Si7 0.673587 0.397523 0.762493
O O1 0.500000 0.500000 0.310634
O O2 0.500000 0.600530 0.500000
O O3 0.547145 0.663349 0.318832
O O4 0.263954 0.888078 0.500000
O O5 0.250000 0.750000 0.348720
O O6 0.317173 0.881352 0.318964
O O7 0.225010 0.918085 0.298869
O O8 0.270655 0.844129 0.000000
O O9 0.184902 0.851731 0.111456
O O10 0.218734 0.000000 0.000000
O O11 0.592527 0.826167 0.697549
O O12 0.644501 0.857842 0.886592
O O13 0.615676 0.000000 0.751521
O O14 0.596023 0.732006 0.500000
O O15 0.641835 0.671149 0.316317
O O16 0.181776 0.500000 0.000000
O O17 0.647749 0.500000 0.774715
#
# Coordination Sequence:
#
# PCOD8274301 Si02
#       7
#     8  16   8  16  16   8  16
#     4   9  20  42  69  90 113 146 181 230 293 349
#     4  11  21  33  47  75 118 157 192 230 278 338
#     4   9  18  33  51  77 113 155 204 242 275 326
#     4  11  22  37  57  81 116 158 194 238 286 331
#     4  11  23  39  59  88 116 142 189 240 288 357
#     4   9  18  35  55  77 110 157 209 238 262 324
#     4  11  21  34  54  79 112 152 193 240 284 331
#
# _framework density 19.607688
#
# number of rings (size 3 to 8) (size 9 to 14) (size 15 to 20)
#    0.000    1.545    3.636    2.182    0.000    5.091 
#    0.000    2.273    0.000    3.818    0.000    6.364 
#    0.000    0.000    0.000    0.000    0.000    0.000 
#
# Total GULP energy -545548.189693 kJ/mol
# GULP energy per Si atom -12398.822493 kJ/mol
# Density = 1.956306 g / cm^3
# Si number density = 19.607688 Si / 1000 Ang^3
#
#
#
# Elastic Constant Matrix: (Units=GPa)
#
#
# Indices 1 2 3 4 5 6 
#
# 1 74.9609 42.9051 24.4681 0.0000 0.0000 0.0000
# 2 42.9051 112.0701 38.1160 0.0000 0.0000 0.0000
# 3 24.4681 38.1160 129.6144 0.0000 0.0000 0.0000
# 4 0.0000 0.0000 0.0000 26.2558 0.0000 0.0000
# 5 0.0000 0.0000 0.0000 0.0000 5.7593 0.0000
# 6 0.0000 0.0000 0.0000 0.0000 0.0000 23.9341
#
#
#
# Elastic Compliance Matrix: (Units=1/GPa)
#
#
# Indices 1 2 3 4 5 6 
#
# 1 0.017331 -0.006136 -0.001467 0.000000 0.000000 0.000000
# 2 -0.006136 0.012087 -0.002396 0.000000 0.000000 0.000000
# 3 -0.001467 -0.002396 0.008697 0.000000 0.000000 0.000000
# 4 0.000000 0.000000 0.000000 0.038087 0.000000 0.000000
# 5 0.000000 0.000000 0.000000 0.000000 0.173632 0.000000
# 6 0.000000 0.000000 0.000000 0.000000 0.000000 0.041781
#
#
# Mechanical properties :
#
#
# Convention : Reuss Voigt Hill
#
# Bulk Modulus (GPa) = 55.19924 58.62486 56.91205
# Shear Modulus (GPa) = 15.74044 25.26693 20.50368
#
# Velocity S-wave (km/s) = 2.83639 3.59363 3.23723
# Velocity P-wave (km/s) = 6.24017 6.86897 6.56211
#
# Compressibility (1/GPa) = 0.01811619
#
# Stress axis : x y z
#
# Youngs Moduli (GPa) = 57.69891 82.73282 114.98465
#
# Poissons Ratio (x) = 0.50766 0.16871
# Poissons Ratio (y) = 0.35405 0.27552
# Poissons Ratio (z) = 0.08466 0.19824
#
# Static dielectric constant tensor:
#      x y z
#    x 3.284180 0.000000 0.000000 
#    y 0.000000 3.885770 0.000000 
#    z 0.000000 0.000000 3.771910 
# 
# 
# High freq. dielectric constant tensor:
#      x y z
#    x 1.716300 0.000000 0.000000 
#    y 0.000000 1.780590 0.000000 
#    z 0.000000 0.000000 1.767570 
# 
# From -- ./inp_files/32276.got.cif
#   From: 2010.03.12/outbox.cif.g09.slc.cpg/sg65_17_cif.got.tgz:32276.got - 2010.04.10 20:52:16.
