data_PCOD8274116
_publ_section_title
;
Structure prediction by ZEFSAII (Michael W. Deem and Ramdas Pophale) SiO2 
 PCOD8274116
Probable space group: C M M M
;
_chemical_formula_sum "Si O2"
_cell_formula_units_Z 72
_cell_length_a 14.551581
_cell_length_b 26.632845
_cell_length_c 9.709140
_cell_angle_alpha 90.000000
_cell_angle_beta 90.000000
_cell_angle_gamma 90.000000
_cell_volume 3762.777219
_symmetry_space_group_name_H-M "C M M M"
_symmetry_group_IT_number 65
_symmetry_cell_setting 'orthorhombic'
loop_
_space_group_symop_operation_xyz
x,y,z
-x,-y,z
x,-y,-z
-x,y,-z
-x,-y,-z
x,y,-z
-x,y,z
x,-y,z
1/2+x,1/2+y,z
1/2-x,1/2-y,z
1/2+x,1/2-y,-z
1/2-x,1/2+y,-z
1/2-x,1/2-y,-z
1/2+x,1/2+y,-z
1/2-x,1/2+y,z
1/2+x,1/2-y,z
loop_
_atom_site_type_symbol
_atom_site_label
_atom_site_fract_x
_atom_site_fract_y
_atom_site_fract_z
Si Si1 0.604627 0.940925 0.500000
Si Si2 0.500000 0.191496 0.336443
Si Si3 0.000000 0.940065 0.664318
Si Si4 0.159975 0.618539 0.251952
Si Si5 0.137794 0.875613 0.839346
Si Si6 0.103624 0.553718 0.000000
Si Si7 0.500000 0.287737 0.846724
O O1 0.500000 0.918449 0.500000
O O2 0.662806 0.921675 0.627064
O O3 0.599872 0.000000 0.500000
O O4 0.500000 0.197244 0.500000
O O5 0.593180 0.164628 0.286931
O O6 0.500000 0.246172 0.270062
O O7 0.089355 0.917283 0.742113
O O8 0.000000 0.926288 0.500000
O O9 0.000000 0.000000 0.682984
O O10 0.261666 0.637088 0.217870
O O11 0.121625 0.587598 0.128134
O O12 0.088699 0.822363 0.827872
O O13 0.138949 0.894194 0.000000
O O14 0.159173 0.500000 0.000000
O O15 0.000000 0.537398 0.000000
O O16 0.500000 0.263275 0.000000
#
# Coordination Sequence:
#
# PCOD8274116 Si02
#       7
#     8   8   8  16  16   8   8
#     4  11  22  40  60  84 130 178 210 247 304 369
#     4  12  25  43  63  93 127 160 210 258 318 376
#     4  10  23  41  64  93 125 166 213 258 306 366
#     4  12  22  40  62  93 127 166 207 257 308 371
#     4  10  23  44  65  92 127 162 207 257 317 371
#     4  11  22  36  58  92 130 166 210 251 300 363
#     4   9  23  45  68  87 114 162 205 260 322 377
#
# _framework density 19.134803000000002
#
# number of rings (size 3 to 8) (size 9 to 14) (size 15 to 20)
#    0.000    1.222    4.444    1.667    3.111    7.111 
#    0.000    3.333    0.000    0.000    0.000    0.000 
#    0.000    0.000    0.000    0.000    0.000    0.000 
#
# Total GULP energy -446224.201474 kJ/mol
# GULP energy per Si atom -12395.116708 kJ/mol
# Density = 1.909125 g / cm^3
# Si number density = 19.134803 Si / 1000 Ang^3
#
#
#
# Elastic Constant Matrix: (Units=GPa)
#
#
# Indices 1 2 3 4 5 6 
#
# 1 150.5096 53.0162 62.1828 0.0000 0.0000 0.0000
# 2 53.0162 116.2290 77.6104 0.0000 0.0000 0.0000
# 3 62.1828 77.6104 183.3828 0.0000 0.0000 0.0000
# 4 0.0000 0.0000 0.0000 42.7238 0.0000 0.0000
# 5 0.0000 0.0000 0.0000 0.0000 42.9798 0.0000
# 6 0.0000 0.0000 0.0000 0.0000 0.0000 13.0418
#
#
#
# Elastic Compliance Matrix: (Units=1/GPa)
#
#
# Indices 1 2 3 4 5 6 
#
# 1 0.008273 -0.002649 -0.001684 0.000000 0.000000 0.000000
# 2 -0.002649 0.012841 -0.004536 0.000000 0.000000 0.000000
# 3 -0.001684 -0.004536 0.007944 0.000000 0.000000 0.000000
# 4 0.000000 0.000000 0.000000 0.023406 0.000000 0.000000
# 5 0.000000 0.000000 0.000000 0.000000 0.023267 0.000000
# 6 0.000000 0.000000 0.000000 0.000000 0.000000 0.076676
#
#
# Mechanical properties :
#
#
# Convention : Reuss Voigt Hill
#
# Bulk Modulus (GPa) = 88.34627 92.86002 90.60314
# Shear Modulus (GPa) = 28.74897 36.90322 32.82609
#
# Velocity S-wave (km/s) = 3.88034 4.39634 4.14637
# Velocity P-wave (km/s) = 8.14535 8.62584 8.38904
#
# Compressibility (1/GPa) = 0.01131910
#
# Stress axis : x y z
#
# Youngs Moduli (GPa) = 120.87494 77.87510 125.88150
#
# Poissons Ratio (x) = 0.20629 0.21200
# Poissons Ratio (y) = 0.32020 0.57103
# Poissons Ratio (z) = 0.20357 0.35326
#
# Static dielectric constant tensor:
#      x y z
#    x 3.868950 0.000000 0.000000 
#    y 0.000000 3.374610 0.000000 
#    z 0.000000 0.000000 3.914790 
# 
# 
# High freq. dielectric constant tensor:
#      x y z
#    x 1.745510 0.000000 0.000000 
#    y 0.000000 1.742310 0.000000 
#    z 0.000000 0.000000 1.765960 
# 
# From -- ./inp_files/7453.got.cif
#   From: 2010.03.12/outbox.cif.g09.slc.cpg/sg65_4_cif.got.tgz:7453.got - 2010.04.10 20:52:16.
