data_PCOD8274614
_publ_section_title
;
Structure prediction by ZEFSAII (Michael W. Deem and Ramdas Pophale) SiO2 
 PCOD8274614
Probable space group: C M M M
;
_chemical_formula_sum "Si O2"
_cell_formula_units_Z 88
_cell_length_a 24.568564
_cell_length_b 19.871746
_cell_length_c 9.031587
_cell_angle_alpha 90.000000
_cell_angle_beta 90.000000
_cell_angle_gamma 90.000000
_cell_volume 4409.403784
_symmetry_space_group_name_H-M "C M M M"
_symmetry_group_IT_number 65
_symmetry_cell_setting 'orthorhombic'
loop_
_space_group_symop_operation_xyz
x,y,z
-x,-y,z
x,-y,-z
-x,y,-z
-x,-y,-z
x,y,-z
-x,y,z
x,-y,z
1/2+x,1/2+y,z
1/2-x,1/2-y,z
1/2+x,1/2-y,-z
1/2-x,1/2+y,-z
1/2-x,1/2-y,-z
1/2+x,1/2+y,-z
1/2-x,1/2+y,z
1/2+x,1/2-y,z
loop_
_atom_site_type_symbol
_atom_site_label
_atom_site_fract_x
_atom_site_fract_y
_atom_site_fract_z
Si Si1 0.500000 0.922634 0.175661
Si Si2 0.755704 0.074444 0.837050
Si Si3 0.384025 0.425858 0.835587
Si Si4 0.060248 0.811693 0.335072
Si Si5 0.591039 0.182474 0.175248
Si Si6 0.291830 0.807823 0.327257
O O1 0.444980 0.882622 0.227798
O O2 0.500000 0.000000 0.238151
O O3 0.500000 0.924693 0.000000
O O4 0.819832 0.072109 0.837022
O O5 0.735763 0.121051 0.704719
O O6 0.731916 0.000000 0.807880
O O7 0.735475 0.099718 0.000000
O O8 0.406223 0.500000 0.790851
O O9 0.400712 0.370754 0.717363
O O10 0.405722 0.406920 0.000000
O O11 0.079020 0.789356 0.500000
O O12 0.059216 0.748642 0.225325
O O13 0.000000 0.842228 0.338414
O O14 0.650559 0.189808 0.245515
O O15 0.597420 0.181452 0.000000
O O16 0.302546 0.797986 0.500000
O O17 0.250000 0.750000 0.268732
#
# Coordination Sequence:
#
# PCOD8274614 Si02
#       6
#     8  16  16  16  16  16
#     4   9  20  40  65  93 120 149 194 253 313 368
#     4   9  19  37  59  83 112 148 192 239 288 344
#     4   9  19  36  58  84 114 150 195 244 288 337
#     4  11  23  37  55  80 115 154 191 237 291 349
#     4  11  22  39  64  89 116 153 200 251 303 363
#     4  11  24  39  57  87 125 160 198 245 301 367
#
# _framework density 19.957348
#
# number of rings (size 3 to 8) (size 9 to 14) (size 15 to 20)
#    0.000    1.909    0.909    3.818    0.000    8.000 
#    0.000    5.455    0.000    3.818    0.000    0.000 
#    0.000    0.000    0.000    0.000    0.000    0.000 
#
# Total GULP energy -545310.721033 kJ/mol
# GULP energy per Si atom -12393.425478 kJ/mol
# Density = 1.991192 g / cm^3
# Si number density = 19.957348 Si / 1000 Ang^3
#
#
#
# Elastic Constant Matrix: (Units=GPa)
#
#
# Indices 1 2 3 4 5 6 
#
# 1 96.9908 54.8779 42.8612 0.0000 0.0000 0.0000
# 2 54.8779 123.7368 42.8361 0.0000 0.0000 0.0000
# 3 42.8612 42.8361 74.7157 0.0000 0.0000 0.0000
# 4 0.0000 0.0000 0.0000 19.2809 0.0000 0.0000
# 5 0.0000 0.0000 0.0000 0.0000 28.5721 0.0000
# 6 0.0000 0.0000 0.0000 0.0000 0.0000 34.9136
#
#
#
# Elastic Compliance Matrix: (Units=1/GPa)
#
#
# Indices 1 2 3 4 5 6 
#
# 1 0.015837 -0.004839 -0.006311 0.000000 0.000000 0.000000
# 2 -0.004839 0.011562 -0.003852 0.000000 0.000000 0.000000
# 3 -0.006311 -0.003852 0.019213 0.000000 0.000000 0.000000
# 4 0.000000 0.000000 0.000000 0.051865 0.000000 0.000000
# 5 0.000000 0.000000 0.000000 0.000000 0.034999 0.000000
# 6 0.000000 0.000000 0.000000 0.000000 0.000000 0.028642
#
#
# Mechanical properties :
#
#
# Convention : Reuss Voigt Hill
#
# Bulk Modulus (GPa) = 60.21566 64.06595 62.14081
# Shear Modulus (GPa) = 25.29625 26.87786 26.08706
#
# Velocity S-wave (km/s) = 3.56408 3.67381 3.61936
# Velocity P-wave (km/s) = 6.86838 7.08287 6.97644
#
# Compressibility (1/GPa) = 0.01660698
#
# Stress axis : x y z
#
# Youngs Moduli (GPa) = 63.14328 86.49389 52.04832
#
# Poissons Ratio (x) = 0.41855 0.32846
# Poissons Ratio (y) = 0.30556 0.20051
# Poissons Ratio (z) = 0.39848 0.33321
#
# Static dielectric constant tensor:
#      x y z
#    x 3.726990 0.000000 0.000000 
#    y 0.000000 4.454660 0.000000 
#    z 0.000000 0.000000 3.833730 
# 
# 
# High freq. dielectric constant tensor:
#      x y z
#    x 1.780280 0.000000 0.000000 
#    y 0.000000 1.783380 0.000000 
#    z 0.000000 0.000000 1.768680 
# 
# From -- ./inp_files/11704.got.cif
#   From: 2010.03.12/outbox.cif.g09.slc.cpg/sg65_6_cif.got.tgz:11704.got - 2010.04.10 20:52:16.
