data_PCOD8274098
_publ_section_title
;
Structure prediction by ZEFSAII (Michael W. Deem and Ramdas Pophale) SiO2 
 PCOD8274098
Probable space group: C M M M
;
_chemical_formula_sum "Si O2"
_cell_formula_units_Z 72
_cell_length_a 28.052226
_cell_length_b 14.698635
_cell_length_c 9.408286
_cell_angle_alpha 90.000000
_cell_angle_beta 90.000000
_cell_angle_gamma 90.000000
_cell_volume 3879.313212
_symmetry_space_group_name_H-M "C M M M"
_symmetry_group_IT_number 65
_symmetry_cell_setting 'orthorhombic'
loop_
_space_group_symop_operation_xyz
x,y,z
-x,-y,z
x,-y,-z
-x,y,-z
-x,-y,-z
x,y,-z
-x,y,z
x,-y,z
1/2+x,1/2+y,z
1/2-x,1/2-y,z
1/2+x,1/2-y,-z
1/2-x,1/2+y,-z
1/2-x,1/2-y,-z
1/2+x,1/2+y,-z
1/2-x,1/2+y,z
1/2+x,1/2-y,z
loop_
_atom_site_type_symbol
_atom_site_label
_atom_site_fract_x
_atom_site_fract_y
_atom_site_fract_z
Si Si1 0.133990 0.324866 0.832274
Si Si2 0.946939 0.394071 0.656945
Si Si3 0.632181 0.645752 0.662605
Si Si4 0.806173 0.500000 0.168190
Si Si5 0.712386 0.500000 0.343513
Si Si6 0.555260 0.500000 0.668940
O O1 0.080497 0.344650 0.782741
O O2 0.147272 0.230453 0.759301
O O3 0.167041 0.408553 0.778931
O O4 0.136419 0.313106 0.000000
O O5 0.924771 0.374719 0.500000
O O6 0.947288 0.500000 0.689052
O O7 0.000000 0.354301 0.660626
O O8 0.622934 0.676378 0.500000
O O9 0.679407 0.586872 0.674708
O O10 0.585138 0.589989 0.718451
O O11 0.753039 0.500000 0.226177
O O12 0.803827 0.500000 0.000000
O O13 0.736214 0.500000 0.500000
O O14 0.500000 0.500000 0.726756
O O15 0.555014 0.500000 0.500000
#
# Coordination Sequence:
#
# PCOD8274098 Si02
#       6
#    16  16  16   8   8   8
#     4  11  22  36  53  79 113 148 183 221 271 327
#     4   9  18  33  53  76 103 139 182 223 262 308
#     4   9  19  36  57  83 111 138 177 227 274 325
#     4  10  23  39  54  75 108 146 184 223 270 333
#     4   9  20  39  60  80 104 137 180 232 286 330
#     4   8  15  32  59  85 109 140 175 216 268 320
#
# _framework density 18.559985999999999
#
# number of rings (size 3 to 8) (size 9 to 14) (size 15 to 20)
#    0.000    2.556    1.111    2.667    0.000    4.889 
#    0.000    9.444    0.000    0.667    0.000    0.000 
#    0.000    0.000    0.000    0.000    0.000    0.000 
#
# Total GULP energy -446136.687484 kJ/mol
# GULP energy per Si atom -12392.685763 kJ/mol
# Density = 1.851774 g / cm^3
# Si number density = 18.559986 Si / 1000 Ang^3
#
#
#
# Elastic Constant Matrix: (Units=GPa)
#
#
# Indices 1 2 3 4 5 6 
#
# 1 81.4058 46.5810 32.9591 0.0000 0.0000 0.0000
# 2 46.5810 128.8879 50.3889 0.0000 0.0000 0.0000
# 3 32.9591 50.3889 58.2709 0.0000 0.0000 0.0000
# 4 0.0000 0.0000 0.0000 29.5308 0.0000 0.0000
# 5 0.0000 0.0000 0.0000 0.0000 27.6107 0.0000
# 6 0.0000 0.0000 0.0000 0.0000 0.0000 7.1425
#
#
#
# Elastic Compliance Matrix: (Units=1/GPa)
#
#
# Indices 1 2 3 4 5 6 
#
# 1 0.016969 -0.003596 -0.006488 0.000000 0.000000 0.000000
# 2 -0.003596 0.012483 -0.008761 0.000000 0.000000 0.000000
# 3 -0.006488 -0.008761 0.028407 0.000000 0.000000 0.000000
# 4 0.000000 0.000000 0.000000 0.033863 0.000000 0.000000
# 5 0.000000 0.000000 0.000000 0.000000 0.036218 0.000000
# 6 0.000000 0.000000 0.000000 0.000000 0.000000 0.140007
#
#
# Mechanical properties :
#
#
# Convention : Reuss Voigt Hill
#
# Bulk Modulus (GPa) = 49.58147 58.71362 54.14754
# Shear Modulus (GPa) = 16.00718 22.09917 19.05318
#
# Velocity S-wave (km/s) = 2.93995 3.45438 3.20749
# Velocity P-wave (km/s) = 6.18842 6.90025 6.55401
#
# Compressibility (1/GPa) = 0.02016883
#
# Stress axis : x y z
#
# Youngs Moduli (GPa) = 58.93193 80.10657 35.20271
#
# Poissons Ratio (x) = 0.28807 0.22840
# Poissons Ratio (y) = 0.21192 0.30840
# Poissons Ratio (z) = 0.38236 0.70180
#
# Static dielectric constant tensor:
#      x y z
#    x 3.508530 0.000000 0.000000 
#    y 0.000000 3.604910 0.000000 
#    z 0.000000 0.000000 3.239570 
# 
# 
# High freq. dielectric constant tensor:
#      x y z
#    x 1.717040 0.000000 0.000000 
#    y 0.000000 1.725490 0.000000 
#    z 0.000000 0.000000 1.700600 
# 
# From -- ./inp_files/7352.got.cif
#   From: 2010.03.12/outbox.cif.g09.slc.cpg/sg65_4_cif.got.tgz:7352.got - 2010.04.10 20:52:16.
