data_PCOD8274019
_publ_section_title
;
Structure prediction by ZEFSAII (Michael W. Deem and Ramdas Pophale) SiO2 
 PCOD8274019
Probable space group: C M M M
;
_chemical_formula_sum "Si O2"
_cell_formula_units_Z 80
_cell_length_a 8.745605
_cell_length_b 23.775327
_cell_length_c 20.316226
_cell_angle_alpha 90.000000
_cell_angle_beta 90.000000
_cell_angle_gamma 90.000000
_cell_volume 4224.345125
_symmetry_space_group_name_H-M "C M M M"
_symmetry_group_IT_number 65
_symmetry_cell_setting 'orthorhombic'
loop_
_space_group_symop_operation_xyz
x,y,z
-x,-y,z
x,-y,-z
-x,y,-z
-x,-y,-z
x,y,-z
-x,y,z
x,-y,z
1/2+x,1/2+y,z
1/2-x,1/2-y,z
1/2+x,1/2-y,-z
1/2-x,1/2+y,-z
1/2-x,1/2-y,-z
1/2+x,1/2+y,-z
1/2-x,1/2+y,z
1/2+x,1/2-y,z
loop_
_atom_site_type_symbol
_atom_site_label
_atom_site_fract_x
_atom_site_fract_y
_atom_site_fract_z
Si Si1 0.319144 0.115509 0.192691
Si Si2 0.680423 0.500000 0.772126
Si Si3 0.674932 0.392397 0.574480
Si Si4 0.320886 0.311329 0.691393
Si Si5 0.820277 0.691653 0.073628
Si Si6 0.822309 0.500000 0.630290
O O1 0.500000 0.111620 0.200962
O O2 0.254057 0.151520 0.252273
O O3 0.269618 0.142977 0.123479
O O4 0.248385 0.053907 0.191643
O O5 0.500000 0.500000 0.779235
O O6 0.722302 0.500000 0.695756
O O7 0.701939 0.371674 0.500000
O O8 0.500000 0.411859 0.585741
O O9 0.715591 0.340353 0.621597
O O10 0.784444 0.444993 0.588064
O O11 0.500000 0.306801 0.705280
O O12 0.250000 0.250000 0.690922
O O13 0.750000 0.750000 0.098634
O O14 0.000000 0.699539 0.074333
O O15 0.761643 0.676507 0.000000
O O16 0.000000 0.500000 0.649356
#
# Coordination Sequence:
#
# PCOD8274019 Si02
#       6
#    16   8  16  16  16   8
#     4  11  22  38  61  88 117 150 193 241 287 340
#     4  12  24  39  60  85 116 153 190 235 292 348
#     4  10  22  40  60  82 113 154 194 236 290 347
#     4  11  23  38  58  83 115 153 194 239 288 343
#     4   9  19  36  59  88 121 156 193 233 280 333
#     4  12  23  37  60  88 115 145 190 242 291 342
#
# _framework density 18.937847000000001
#
# number of rings (size 3 to 8) (size 9 to 14) (size 15 to 20)
#    0.000    1.400    2.000    3.900    0.000    6.000 
#    0.000    0.500    0.000    3.000    0.000    0.000 
#    0.000    0.000    0.000    0.000    0.000    0.000 
#
# Total GULP energy -496173.535613 kJ/mol
# GULP energy per Si atom -12404.338390 kJ/mol
# Density = 1.889474 g / cm^3
# Si number density = 18.937847 Si / 1000 Ang^3
#
#
#
# Elastic Constant Matrix: (Units=GPa)
#
#
# Indices 1 2 3 4 5 6 
#
# 1 92.8611 65.0010 53.2316 0.0000 0.0000 0.0000
# 2 65.0010 173.7765 85.0455 0.0000 0.0000 0.0000
# 3 53.2316 85.0455 137.5608 0.0000 0.0000 0.0000
# 4 0.0000 0.0000 0.0000 59.2681 0.0000 0.0000
# 5 0.0000 0.0000 0.0000 0.0000 25.2185 0.0000
# 6 0.0000 0.0000 0.0000 0.0000 0.0000 271.7733
#
#
#
# Elastic Compliance Matrix: (Units=1/GPa)
#
#
# Indices 1 2 3 4 5 6 
#
# 1 0.015683 -0.004152 -0.003501 0.000000 0.000000 0.000000
# 2 -0.004152 0.009350 -0.004174 0.000000 0.000000 0.000000
# 3 -0.003501 -0.004174 0.011205 0.000000 0.000000 0.000000
# 4 0.000000 0.000000 0.000000 0.016872 0.000000 0.000000
# 5 0.000000 0.000000 0.000000 0.000000 0.039654 0.000000
# 6 0.000000 0.000000 0.000000 0.000000 0.000000 0.003680
#
#
# Mechanical properties :
#
#
# Convention : Reuss Voigt Hill
#
# Bulk Modulus (GPa) = 79.47683 90.08385 84.78034
# Shear Modulus (GPa) = 40.22742 84.64667 62.43704
#
# Velocity S-wave (km/s) = 4.61388 6.69284 5.74813
# Velocity P-wave (km/s) = 8.39299 10.36325 9.42972
#
# Compressibility (1/GPa) = 0.01258228
#
# Stress axis : x y z
#
# Youngs Moduli (GPa) = 63.76499 106.94658 89.24627
#
# Poissons Ratio (x) = 0.44409 0.31249
# Poissons Ratio (y) = 0.26478 0.37251
# Poissons Ratio (z) = 0.22327 0.44639
#
# Static dielectric constant tensor:
#      x y z
#    x 3.550500 0.000000 0.000000 
#    y 0.000000 3.564610 0.000000 
#    z 0.000000 0.000000 3.761750 
# 
# 
# High freq. dielectric constant tensor:
#      x y z
#    x 1.743300 0.000000 0.000000 
#    y 0.000000 1.738640 0.000000 
#    z 0.000000 0.000000 1.742220 
# 
# From -- ./inp_files/59698.got.cif
#   From: 2010.03.12/outbox.cif.g09.slc.cpg/sg65_30_cif.got.tgz:59698.got - 2010.04.10 20:52:16.
