data_PCOD8274523
_publ_section_title
;
Structure prediction by ZEFSAII (Michael W. Deem and Ramdas Pophale) SiO2 
 PCOD8274523
Probable space group: C M M M
;
_chemical_formula_sum "Si O2"
_cell_formula_units_Z 56
_cell_length_a 7.903763
_cell_length_b 28.496608
_cell_length_c 13.642593
_cell_angle_alpha 90.000000
_cell_angle_beta 90.000000
_cell_angle_gamma 90.000000
_cell_volume 3072.727169
_symmetry_space_group_name_H-M "C M M M"
_symmetry_group_IT_number 65
_symmetry_cell_setting 'orthorhombic'
loop_
_space_group_symop_operation_xyz
x,y,z
-x,-y,z
x,-y,-z
-x,y,-z
-x,-y,-z
x,y,-z
-x,y,z
x,-y,z
1/2+x,1/2+y,z
1/2-x,1/2-y,z
1/2+x,1/2-y,-z
1/2-x,1/2+y,-z
1/2-x,1/2-y,-z
1/2+x,1/2+y,-z
1/2-x,1/2+y,z
1/2+x,1/2-y,z
loop_
_atom_site_type_symbol
_atom_site_label
_atom_site_fract_x
_atom_site_fract_y
_atom_site_fract_z
Si Si1 0.802845 0.300335 0.890947
Si Si2 0.693484 0.894523 0.206826
Si Si3 0.000000 0.051768 0.885104
Si Si4 0.197961 0.946638 0.387888
O O1 0.750000 0.250000 0.846913
O O2 0.749460 0.340702 0.813680
O O3 0.000000 0.301138 0.904791
O O4 0.720179 0.308185 0.000000
O O5 0.500000 0.902764 0.170456
O O6 0.704249 0.908698 0.321265
O O7 0.824541 0.925680 0.147566
O O8 0.000000 0.000000 0.839484
O O9 0.000000 0.051265 0.000000
O O10 0.236079 0.933295 0.500000
O O11 0.000000 0.942791 0.364293
O O12 0.259889 0.000000 0.367104
#
# Coordination Sequence:
#
# PCOD8274523 Si02
#       4
#    16  16   8  16
#     4   9  19  34  53  79 107 139 182 230 279 328
#     4  11  22  36  56  82 112 145 184 232 279 333
#     4  11  24  38  53  77 111 153 192 222 268 331
#     4   9  18  34  56  81 109 142 184 231 276 327
#
# _framework density 18.224853
#
# number of rings (size 3 to 8) (size 9 to 14) (size 15 to 20)
#    0.000    2.143    1.429    2.571    2.000    4.571 
#    0.000    2.857    0.000    0.857    0.000    0.000 
#    0.000    0.000    0.000    0.000    0.000    0.000 
#
# Total GULP energy -347005.029215 kJ/mol
# GULP energy per Si atom -12393.036758 kJ/mol
# Density = 1.818337 g / cm^3
# Si number density = 18.224853 Si / 1000 Ang^3
#
#
#
# Elastic Constant Matrix: (Units=GPa)
#
#
# Indices 1 2 3 4 5 6 
#
# 1 80.5278 51.4758 29.7878 0.0000 0.0000 0.0000
# 2 51.4758 171.0203 77.3210 0.0000 0.0000 0.0000
# 3 29.7878 77.3210 85.0070 0.0000 0.0000 0.0000
# 4 0.0000 0.0000 0.0000 37.4974 0.0000 0.0000
# 5 0.0000 0.0000 0.0000 0.0000 17.3622 0.0000
# 6 0.0000 0.0000 0.0000 0.0000 0.0000 28.0987
#
#
#
# Elastic Compliance Matrix: (Units=1/GPa)
#
#
# Indices 1 2 3 4 5 6 
#
# 1 0.015580 -0.003773 -0.002028 0.000000 0.000000 0.000000
# 2 -0.003773 0.010845 -0.008542 0.000000 0.000000 0.000000
# 3 -0.002028 -0.008542 0.020244 0.000000 0.000000 0.000000
# 4 0.000000 0.000000 0.000000 0.026669 0.000000 0.000000
# 5 0.000000 0.000000 0.000000 0.000000 0.057596 0.000000
# 6 0.000000 0.000000 0.000000 0.000000 0.000000 0.035589
#
#
# Mechanical properties :
#
#
# Convention : Reuss Voigt Hill
#
# Bulk Modulus (GPa) = 55.60723 72.63604 64.12163
# Shear Modulus (GPa) = 24.85050 28.45635 26.65342
#
# Velocity S-wave (km/s) = 3.69663 3.95575 3.82838
# Velocity P-wave (km/s) = 6.98557 7.79781 7.40284
#
# Compressibility (1/GPa) = 0.01798327
#
# Stress axis : x y z
#
# Youngs Moduli (GPa) = 64.18592 92.20915 49.39635
#
# Poissons Ratio (x) = 0.34786 0.10017
# Poissons Ratio (y) = 0.24214 0.42196
# Poissons Ratio (z) = 0.13017 0.78769
#
# Static dielectric constant tensor:
#      x y z
#    x 3.337340 0.000000 0.000000 
#    y 0.000000 4.445120 0.000000 
#    z 0.000000 0.000000 3.504660 
# 
# 
# High freq. dielectric constant tensor:
#      x y z
#    x 1.709160 0.000000 0.000000 
#    y 0.000000 1.698760 0.000000 
#    z 0.000000 0.000000 1.694400 
# 
# From -- ./inp_files/35776.got.cif
#   From: 2010.03.12/outbox.cif.g09.slc.cpg/sg65_18_cif.got.tgz:35776.got - 2010.04.10 20:52:16.
