data_PCOD8274905
_publ_section_title
;
Structure prediction by ZEFSAII (Michael W. Deem and Ramdas Pophale) SiO2 
 PCOD8274905
Probable space group: C M M M
;
_chemical_formula_sum "Si O2"
_cell_formula_units_Z 112
_cell_length_a 29.518601
_cell_length_b 10.097626
_cell_length_c 30.172246
_cell_angle_alpha 90.000000
_cell_angle_beta 90.000000
_cell_angle_gamma 90.000000
_cell_volume 8993.374773
_symmetry_space_group_name_H-M "C M M M"
_symmetry_group_IT_number 65
_symmetry_cell_setting 'orthorhombic'
loop_
_space_group_symop_operation_xyz
x,y,z
-x,-y,z
x,-y,-z
-x,y,-z
-x,-y,-z
x,y,-z
-x,y,z
x,-y,z
1/2+x,1/2+y,z
1/2-x,1/2-y,z
1/2+x,1/2-y,-z
1/2-x,1/2+y,-z
1/2-x,1/2-y,-z
1/2+x,1/2+y,-z
1/2-x,1/2+y,z
1/2+x,1/2-y,z
loop_
_atom_site_type_symbol
_atom_site_label
_atom_site_fract_x
_atom_site_fract_y
_atom_site_fract_z
Si Si1 0.053867 0.353254 0.790495
Si Si2 0.053057 0.347632 0.890431
Si Si3 0.388087 0.347584 0.948103
Si Si4 0.553909 0.351989 0.280318
Si Si5 0.446093 0.148138 0.549448
Si Si6 0.714083 0.353376 0.052692
Si Si7 0.446096 0.351852 0.379214
O O1 0.071983 0.500000 0.778522
O O2 0.068533 0.314729 0.840244
O O3 0.075005 0.249290 0.755504
O O4 0.000000 0.353160 0.787714
O O5 0.064777 0.500000 0.901972
O O6 0.078620 0.249920 0.923002
O O7 0.000000 0.321997 0.896355
O O8 0.399684 0.500000 0.936517
O O9 0.336772 0.314120 0.933186
O O10 0.394395 0.322264 0.000000
O O11 0.500000 0.348480 0.278158
O O12 0.571097 0.500000 0.269016
O O13 0.569961 0.311165 0.329764
O O14 0.429910 0.188438 0.500000
O O15 0.500000 0.152096 0.551463
O O16 0.424972 0.250043 0.585103
O O17 0.429118 0.000000 0.560948
O O18 0.726034 0.500000 0.070680
O O19 0.750000 0.250000 0.073374
O O20 0.717185 0.353917 0.000000
O O21 0.500000 0.348174 0.381335
O O22 0.429033 0.500000 0.390589
#
# Coordination Sequence:
#
# PCOD8274905 Si02
#       7
#    16  16  16  16  16  16  16
#     4   8  14  24  35  45  57  73  94 121 151 180
#     4   9  18  30  40  51  68  89 114 141 164 189
#     4   9  18  30  41  55  74  92 111 135 160 188
#     4   8  13  20  29  41  54  65  81 108 140 174
#     4   8  13  19  24  30  41  57  77  99 122 153
#     4   8  14  25  40  57  75  91 107 129 156 186
#     4   8  13  19  25  34  47  60  75  98 128 162
#
# _framework density 12.453613000000001
#
# number of rings (size 3 to 8) (size 9 to 14) (size 15 to 20)
#    0.000    3.714    0.000    3.000    0.000    2.857 
#    0.000    8.571    0.000    0.000    0.000    0.000 
#    0.000    0.000    0.000    0.000    0.000    0.000 
#
# Total GULP energy -693876.385510 kJ/mol
# GULP energy per Si atom -12390.649741 kJ/mol
# Density = 1.242527 g / cm^3
# Si number density = 12.453613 Si / 1000 Ang^3
#
#
#
# Elastic Constant Matrix: (Units=GPa)
#
#
# Indices 1 2 3 4 5 6 
#
# 1 26.6233 33.0418 22.9977 0.0000 0.0000 0.0000
# 2 33.0418 105.0409 69.9640 0.0000 0.0000 0.0000
# 3 22.9977 69.9640 79.5314 0.0000 0.0000 0.0000
# 4 0.0000 0.0000 0.0000 28.2042 0.0000 0.0000
# 5 0.0000 0.0000 0.0000 0.0000 -0.2304 0.0000
# 6 0.0000 0.0000 0.0000 0.0000 0.0000 14.1186
#
#
#
# Elastic Compliance Matrix: (Units=1/GPa)
#
#
# Indices 1 2 3 4 5 6 
#
# 1 0.061729 -0.018182 -0.001855 0.000000 0.000000 0.000000
# 2 -0.018182 0.028347 -0.019680 0.000000 0.000000 0.000000
# 3 -0.001855 -0.019680 0.030422 0.000000 0.000000 0.000000
# 4 0.000000 0.000000 0.000000 0.035456 0.000000 0.000000
# 5 0.000000 0.000000 0.000000 0.000000 -4.339802 0.000000
# 6 0.000000 0.000000 0.000000 0.000000 0.000000 0.070828
#
#
# Mechanical properties :
#
#
# Convention : Reuss Voigt Hill
#
# Bulk Modulus (GPa) = 24.35158 51.46697 37.90927
# Shear Modulus (GPa) = -1.24381 14.09794 6.42706
#
# Velocity S-wave (km/s) = -1.00046 3.36822 2.27420
# Velocity P-wave (km/s) = 4.27337 7.51952 6.11576
#
# Compressibility (1/GPa) = 0.04106510
#
# Stress axis : x y z
#
# Youngs Moduli (GPa) = 16.19988 35.27670 32.87051
#
# Poissons Ratio (x) = 0.64139 0.06098
# Poissons Ratio (y) = 0.29454 0.64688
# Poissons Ratio (z) = 0.03006 0.69423
#
# Static dielectric constant tensor:
#      x y z
#    x 2.055970 0.000000 0.000000 
#    y 0.000000 2.849910 0.000000 
#    z 0.000000 0.000000 2.629740 
# 
# 
# High freq. dielectric constant tensor:
#      x y z
#    x 1.397910 0.000000 0.000000 
#    y 0.000000 1.486740 0.000000 
#    z 0.000000 0.000000 1.464890 
# 
# From -- ./inp_files/75906.got.cif
#   From: 2010.03.12/outbox.cif.g09.slc.cpg/sg65_38_cif.got.tgz:75906.got - 2010.04.10 20:52:16.
