data_PCOD8274906
_publ_section_title
;
Structure prediction by ZEFSAII (Michael W. Deem and Ramdas Pophale) SiO2 
 PCOD8274906
Probable space group: C M M M
;
_chemical_formula_sum "Si O2"
_cell_formula_units_Z 96
_cell_length_a 10.014522
_cell_length_b 19.951790
_cell_length_c 30.647890
_cell_angle_alpha 90.000000
_cell_angle_beta 90.000000
_cell_angle_gamma 90.000000
_cell_volume 6123.682569
_symmetry_space_group_name_H-M "C M M M"
_symmetry_group_IT_number 65
_symmetry_cell_setting 'orthorhombic'
loop_
_space_group_symop_operation_xyz
x,y,z
-x,-y,z
x,-y,-z
-x,y,-z
-x,-y,-z
x,y,-z
-x,y,z
x,-y,z
1/2+x,1/2+y,z
1/2-x,1/2-y,z
1/2+x,1/2-y,-z
1/2-x,1/2+y,-z
1/2-x,1/2-y,-z
1/2+x,1/2+y,-z
1/2-x,1/2+y,z
1/2+x,1/2-y,z
loop_
_atom_site_type_symbol
_atom_site_label
_atom_site_fract_x
_atom_site_fract_y
_atom_site_fract_z
Si Si1 0.649326 0.420250 0.119941
Si Si2 0.850566 0.079749 0.782803
Si Si3 0.648709 0.079720 0.288620
Si Si4 0.158296 0.425998 0.385088
Si Si5 0.149425 0.579762 0.951420
Si Si6 0.845460 0.688693 0.449618
O O1 0.500000 0.394647 0.109345
O O2 0.652579 0.500000 0.117642
O O3 0.692139 0.396903 0.168555
O O4 0.750092 0.388869 0.084304
O O5 0.748159 0.110778 0.747564
O O6 0.000000 0.105529 0.772201
O O7 0.848027 0.000000 0.780307
O O8 0.500000 0.108949 0.280405
O O9 0.702300 0.099234 0.336892
O O10 0.643476 0.000000 0.285088
O O11 0.218813 0.500000 0.395169
O O12 0.207466 0.374066 0.421551
O O13 0.000000 0.431581 0.385620
O O14 0.152738 0.500000 0.949176
O O15 0.000000 0.605305 0.940917
O O16 0.192563 0.603256 0.000000
O O17 0.829433 0.668673 0.500000
O O18 0.750000 0.750000 0.437219
O O19 0.000000 0.706856 0.438957
#
# Coordination Sequence:
#
# PCOD8274906 Si02
#       6
#    16  16  16  16  16  16
#     4   8  13  19  25  33  45  63  88 117 151 195
#     4   8  13  20  28  39  57  78  99 126 162 206
#     4   8  13  21  33  48  65  85 109 138 173 212
#     4   8  14  25  41  61  82 102 129 165 198 229
#     4   8  13  19  24  30  41  57  80 115 158 199
#     4   9  17  29  45  63  83 108 135 163 196 233
#
# _framework density 15.676842000000001
#
# number of rings (size 3 to 8) (size 9 to 14) (size 15 to 20)
#    0.000    3.833    0.000    2.500    0.000    1.333 
#    0.000    7.500    0.000    1.500    0.000    2.333 
#    0.000    0.000    0.000    0.000    0.000    0.000 
#
# Total GULP energy -594716.513645 kJ/mol
# GULP energy per Si atom -12389.927368 kJ/mol
# Density = 1.564116 g / cm^3
# Si number density = 15.676842 Si / 1000 Ang^3
#
#
#
# Elastic Constant Matrix: (Units=GPa)
#
#
# Indices 1 2 3 4 5 6 
#
# 1 82.1836 27.2006 76.2765 0.0000 0.0000 0.0000
# 2 27.2006 30.2118 41.3470 0.0000 0.0000 0.0000
# 3 76.2765 41.3470 139.1189 0.0000 0.0000 0.0000
# 4 0.0000 0.0000 0.0000 0.8610 0.0000 0.0000
# 5 0.0000 0.0000 0.0000 0.0000 24.8107 0.0000
# 6 0.0000 0.0000 0.0000 0.0000 0.0000 8.5055
#
#
#
# Elastic Compliance Matrix: (Units=1/GPa)
#
#
# Indices 1 2 3 4 5 6 
#
# 1 0.025499 -0.006446 -0.012065 0.000000 0.000000 0.000000
# 2 -0.006446 0.057423 -0.013532 0.000000 0.000000 0.000000
# 3 -0.012065 -0.013532 0.017825 0.000000 0.000000 0.000000
# 4 0.000000 0.000000 0.000000 1.161459 0.000000 0.000000
# 5 0.000000 0.000000 0.000000 0.000000 0.040305 0.000000
# 6 0.000000 0.000000 0.000000 0.000000 0.000000 0.117570
#
#
# Mechanical properties :
#
#
# Convention : Reuss Voigt Hill
#
# Bulk Modulus (GPa) = 27.27706 60.12915 43.70310
# Shear Modulus (GPa) = 3.34138 13.94812 8.64475
#
# Velocity S-wave (km/s) = 1.46152 2.98607 2.35081
# Velocity P-wave (km/s) = 4.50393 7.09418 5.94192
#
# Compressibility (1/GPa) = 0.03666084
#
# Stress axis : x y z
#
# Youngs Moduli (GPa) = 39.21719 17.41462 56.10097
#
# Poissons Ratio (x) = 0.11225 0.67686
# Poissons Ratio (y) = 0.25279 0.75918
# Poissons Ratio (z) = 0.47315 0.23566
#
# Static dielectric constant tensor:
#      x y z
#    x 3.140070 0.000000 0.000000 
#    y 0.000000 2.455110 0.000000 
#    z 0.000000 0.000000 3.365910 
# 
# 
# High freq. dielectric constant tensor:
#      x y z
#    x 1.591690 0.000000 0.000000 
#    y 0.000000 1.519350 0.000000 
#    z 0.000000 0.000000 1.615700 
# 
# From -- ./inp_files/74445.got.cif
#   From: 2010.03.12/outbox.cif.g09.slc.cpg/sg65_38_cif.got.tgz:74445.got - 2010.04.10 20:52:16.
