data_PCOD8274948
_publ_section_title
;
Structure prediction by ZEFSAII (Michael W. Deem and Ramdas Pophale) SiO2 
 PCOD8274948
Probable space group: C M M M
;
_chemical_formula_sum "Si O2"
_cell_formula_units_Z 96
_cell_length_a 9.673633
_cell_length_b 29.178066
_cell_length_c 20.804338
_cell_angle_alpha 90.000000
_cell_angle_beta 90.000000
_cell_angle_gamma 90.000000
_cell_volume 5872.188799
_symmetry_space_group_name_H-M "C M M M"
_symmetry_group_IT_number 65
_symmetry_cell_setting 'orthorhombic'
loop_
_space_group_symop_operation_xyz
x,y,z
-x,-y,z
x,-y,-z
-x,y,-z
-x,-y,-z
x,y,-z
-x,y,z
x,-y,z
1/2+x,1/2+y,z
1/2-x,1/2-y,z
1/2+x,1/2-y,-z
1/2-x,1/2+y,-z
1/2-x,1/2-y,-z
1/2+x,1/2+y,-z
1/2-x,1/2+y,z
1/2+x,1/2-y,z
loop_
_atom_site_type_symbol
_atom_site_label
_atom_site_fract_x
_atom_site_fract_y
_atom_site_fract_z
Si Si1 0.834973 0.448273 0.311722
Si Si2 0.664696 0.891489 0.190142
Si Si3 0.158134 0.707940 0.622212
Si Si4 0.335632 0.111340 0.428641
Si Si5 0.835579 0.448495 0.071173
Si Si6 0.658006 0.207868 0.773761
O O1 0.778049 0.500000 0.308178
O O2 0.777216 0.420049 0.250782
O O3 0.777369 0.425079 0.377118
O O4 0.000000 0.448003 0.311470
O O5 0.500000 0.893353 0.192216
O O6 0.724356 0.913865 0.124659
O O7 0.713215 0.838701 0.193022
O O8 0.250000 0.750000 0.597400
O O9 0.216013 0.662362 0.588279
O O10 0.172861 0.700755 0.698022
O O11 0.000000 0.717916 0.602960
O O12 0.283501 0.097747 0.500000
O O13 0.500000 0.111240 0.425159
O O14 0.783353 0.500000 0.086245
O O15 0.000000 0.447925 0.073581
O O16 0.784848 0.433256 0.000000
O O17 0.500000 0.218132 0.792915
O O18 0.750000 0.250000 0.798936
#
# Coordination Sequence:
#
# PCOD8274948 Si02
#       6
#    16  16  16  16  16  16
#     4   9  15  22  33  50  72  99 130 159 190 234
#     4   9  14  22  36  53  75 103 131 160 195 233
#     4   9  16  27  41  57  78 103 131 164 201 239
#     4   9  16  25  35  49  73 102 128 158 198 237
#     4   8  13  20  31  51  79 107 132 158 192 235
#     4   9  16  26  41  59  80 105 134 166 199 236
#
# _framework density 16.348248000000002
#
# number of rings (size 3 to 8) (size 9 to 14) (size 15 to 20)
#    0.000    3.167    1.667    1.000    0.000    2.667 
#    0.000    1.667    0.000    0.500    0.000    0.000 
#    0.000    4.667    0.000    3.333    0.000    3.333 
#
# Total GULP energy -594937.848748 kJ/mol
# GULP energy per Si atom -12394.538516 kJ/mol
# Density = 1.631104 g / cm^3
# Si number density = 16.348248 Si / 1000 Ang^3
#
#
#
# Elastic Constant Matrix: (Units=GPa)
#
#
# Indices 1 2 3 4 5 6 
#
# 1 18.3944 26.7060 13.8225 0.0000 0.0000 0.0000
# 2 26.7060 156.5282 83.1601 0.0000 0.0000 0.0000
# 3 13.8225 83.1601 117.1416 0.0000 0.0000 0.0000
# 4 0.0000 0.0000 0.0000 29.7886 0.0000 0.0000
# 5 0.0000 0.0000 0.0000 0.0000 4.8184 0.0000
# 6 0.0000 0.0000 0.0000 0.0000 0.0000 16.7479
#
#
#
# Elastic Compliance Matrix: (Units=1/GPa)
#
#
# Indices 1 2 3 4 5 6 
#
# 1 0.072275 -0.012524 0.000362 0.000000 0.000000 0.000000
# 2 -0.012524 0.012427 -0.007345 0.000000 0.000000 0.000000
# 3 0.000362 -0.007345 0.013708 0.000000 0.000000 0.000000
# 4 0.000000 0.000000 0.000000 0.033570 0.000000 0.000000
# 5 0.000000 0.000000 0.000000 0.000000 0.207537 0.000000
# 6 0.000000 0.000000 0.000000 0.000000 0.000000 0.059709
#
#
# Mechanical properties :
#
#
# Convention : Reuss Voigt Hill
#
# Bulk Modulus (GPa) = 16.83551 59.93793 38.38672
# Shear Modulus (GPa) = 10.91616 21.49603 16.20610
#
# Velocity S-wave (km/s) = 2.58684 3.63007 3.15191
# Velocity P-wave (km/s) = 4.38666 7.36971 6.06446
#
# Compressibility (1/GPa) = 0.05939826
#
# Stress axis : x y z
#
# Youngs Moduli (GPa) = 13.83612 80.46791 72.95082
#
# Poissons Ratio (x) = 1.00775 -0.02643
# Poissons Ratio (y) = 0.17328 0.53579
# Poissons Ratio (z) = -0.00501 0.59100
#
# Static dielectric constant tensor:
#      x y z
#    x 2.452110 0.000000 0.000000 
#    y 0.000000 3.290810 0.000000 
#    z 0.000000 0.000000 3.256290 
# 
# 
# High freq. dielectric constant tensor:
#      x y z
#    x 1.547390 0.000000 0.000000 
#    y 0.000000 1.638470 0.000000 
#    z 0.000000 0.000000 1.624720 
# 
# From -- ./inp_files/60174.got.cif
#   From: 2010.03.12/outbox.cif.g09.slc.cpg/sg65_31_cif.got.tgz:60174.got - 2010.04.10 20:52:16.
