data_PCOD8274243
_publ_section_title
;
Structure prediction by ZEFSAII (Michael W. Deem and Ramdas Pophale) SiO2 
 PCOD8274243
Probable space group: C M M M
;
_chemical_formula_sum "Si O2"
_cell_formula_units_Z 56
_cell_length_a 10.121425
_cell_length_b 27.567528
_cell_length_c 10.862222
_cell_angle_alpha 90.000000
_cell_angle_beta 90.000000
_cell_angle_gamma 90.000000
_cell_volume 3030.806153
_symmetry_space_group_name_H-M "C M M M"
_symmetry_group_IT_number 65
_symmetry_cell_setting 'orthorhombic'
loop_
_space_group_symop_operation_xyz
x,y,z
-x,-y,z
x,-y,-z
-x,y,-z
-x,-y,-z
x,y,-z
-x,y,z
x,-y,z
1/2+x,1/2+y,z
1/2-x,1/2-y,z
1/2+x,1/2-y,-z
1/2-x,1/2+y,-z
1/2-x,1/2-y,-z
1/2+x,1/2+y,-z
1/2-x,1/2+y,z
1/2+x,1/2-y,z
loop_
_atom_site_type_symbol
_atom_site_label
_atom_site_fract_x
_atom_site_fract_y
_atom_site_fract_z
Si Si1 0.658693 0.201814 0.500000
Si Si2 0.768396 0.350461 0.749326
Si Si3 0.000000 0.705501 0.862411
Si Si4 0.843677 0.445817 0.860493
Si Si5 0.000000 0.188111 0.148187
O O1 0.500000 0.213838 0.500000
O O2 0.750000 0.250000 0.500000
O O3 0.696308 0.168168 0.614311
O O4 0.782342 0.408567 0.761637
O O5 0.623521 0.337954 0.792182
O O6 0.870025 0.325412 0.841529
O O7 0.000000 0.757355 0.793615
O O8 0.000000 0.723312 0.000000
O O9 0.794968 0.500000 0.825973
O O10 0.000000 0.443016 0.852293
O O11 0.798293 0.432918 0.000000
O O12 0.000000 0.183647 0.000000
#
# Coordination Sequence:
#
# PCOD8274243 Si02
#       5
#     8  16   8  16   8
#     4  12  26  42  63  87 120 168 215 250 292 356
#     4  12  23  38  59  85 123 158 204 251 297 358
#     4  11  20  35  58  82 113 153 195 250 306 358
#     4   9  17  33  60  90 117 151 199 254 311 365
#     4  11  24  37  56  90 123 157 197 248 316 374
#
# _framework density 18.476931
#
# number of rings (size 3 to 8) (size 9 to 14) (size 15 to 20)
#    0.000    1.143    2.857    6.000    2.000    2.286 
#    0.000    1.429    0.000    5.143    0.000    2.000 
#    0.000    0.000    0.000    0.000    0.000    0.000 
#
# Total GULP energy -347069.074856 kJ/mol
# GULP energy per Si atom -12395.324102 kJ/mol
# Density = 1.843488 g / cm^3
# Si number density = 18.476931 Si / 1000 Ang^3
#
#
#
# Elastic Constant Matrix: (Units=GPa)
#
#
# Indices 1 2 3 4 5 6 
#
# 1 136.8127 57.2171 43.5327 0.0000 0.0000 0.0000
# 2 57.2171 174.0531 58.4044 0.0000 0.0000 0.0000
# 3 43.5327 58.4044 92.0758 0.0000 0.0000 0.0000
# 4 0.0000 0.0000 0.0000 30.2406 0.0000 0.0000
# 5 0.0000 0.0000 0.0000 0.0000 896.4118 0.0000
# 6 0.0000 0.0000 0.0000 0.0000 0.0000 18.5671
#
#
#
# Elastic Compliance Matrix: (Units=1/GPa)
#
#
# Indices 1 2 3 4 5 6 
#
# 1 0.009105 -0.001967 -0.003057 0.000000 0.000000 0.000000
# 2 -0.001967 0.007724 -0.003969 0.000000 0.000000 0.000000
# 3 -0.003057 -0.003969 0.014824 0.000000 0.000000 0.000000
# 4 0.000000 0.000000 0.000000 0.033068 0.000000 0.000000
# 5 0.000000 0.000000 0.000000 0.000000 0.001116 0.000000
# 6 0.000000 0.000000 0.000000 0.000000 0.000000 0.053859
#
#
# Mechanical properties :
#
#
# Convention : Reuss Voigt Hill
#
# Bulk Modulus (GPa) = 73.17645 80.13889 76.65767
# Shear Modulus (GPa) = 35.15277 205.29640 120.22459
#
# Velocity S-wave (km/s) = 4.36652 10.55229 8.07519
# Velocity P-wave (km/s) = 8.06922 13.85403 11.33681
#
# Compressibility (1/GPa) = 0.01366560
#
# Stress axis : x y z
#
# Youngs Moduli (GPa) = 109.83403 129.46660 67.46014
#
# Poissons Ratio (x) = 0.25470 0.20621
# Poissons Ratio (y) = 0.21608 0.26777
# Poissons Ratio (z) = 0.33573 0.51389
#
# Static dielectric constant tensor:
#      x y z
#    x 3.171410 0.000000 0.000000 
#    y 0.000000 3.738000 0.000000 
#    z 0.000000 0.000000 4.281260 
# 
# 
# High freq. dielectric constant tensor:
#      x y z
#    x 1.710580 0.000000 0.000000 
#    y 0.000000 1.726060 0.000000 
#    z 0.000000 0.000000 1.705080 
# 
# From -- ./inp_files/20526.got.cif
#   From: 2010.03.12/outbox.cif.g09.slc.cpg/sg65_11_cif.got.tgz:20526.got - 2010.04.10 20:52:16.
