data_PCOD8274583
_publ_section_title
;
Structure prediction by ZEFSAII (Michael W. Deem and Ramdas Pophale) SiO2 
 PCOD8274583
Probable space group: C M M M
;
_chemical_formula_sum "Si O2"
_cell_formula_units_Z 64
_cell_length_a 30.431118
_cell_length_b 8.704398
_cell_length_c 11.852659
_cell_angle_alpha 90.000000
_cell_angle_beta 90.000000
_cell_angle_gamma 90.000000
_cell_volume 3139.586396
_symmetry_space_group_name_H-M "C M M M"
_symmetry_group_IT_number 65
_symmetry_cell_setting 'orthorhombic'
loop_
_space_group_symop_operation_xyz
x,y,z
-x,-y,z
x,-y,-z
-x,y,-z
-x,-y,-z
x,y,-z
-x,y,z
x,-y,z
1/2+x,1/2+y,z
1/2-x,1/2-y,z
1/2+x,1/2-y,-z
1/2-x,1/2+y,-z
1/2-x,1/2-y,-z
1/2+x,1/2+y,-z
1/2-x,1/2+y,z
1/2+x,1/2-y,z
loop_
_atom_site_type_symbol
_atom_site_label
_atom_site_fract_x
_atom_site_fract_y
_atom_site_fract_z
Si Si1 0.294950 0.319170 0.766786
Si Si2 0.322937 0.820990 0.000000
Si Si3 0.950096 0.176088 0.232842
Si Si4 0.073905 0.320615 0.000000
Si Si5 0.873616 0.322447 0.632149
O O1 0.290960 0.500000 0.772693
O O2 0.250000 0.250000 0.715846
O O3 0.334733 0.275288 0.685637
O O4 0.301616 0.254409 0.891286
O O5 0.374488 0.788963 0.000000
O O6 0.311907 0.000000 0.000000
O O7 0.920193 0.272280 0.317789
O O8 0.000000 0.189129 0.276433
O O9 0.934098 0.000000 0.231061
O O10 0.947640 0.243341 0.107970
O O11 0.062892 0.500000 0.000000
O O12 0.874465 0.291480 0.500000
O O13 0.865733 0.500000 0.662227
#
# Coordination Sequence:
#
# PCOD8274583 Si02
#       5
#    16   8  16   8  16
#     4  12  25  42  67  96 129 167 208 256 313 374
#     4  11  22  39  64  96 132 166 206 255 312 374
#     4  11  24  41  64  95 130 167 209 258 313 375
#     4  11  22  37  64  95 129 168 207 255 312 375
#     4  11  25  45  67  92 124 164 213 265 314 369
#
# _framework density 20.38485
#
# number of rings (size 3 to 8) (size 9 to 14) (size 15 to 20)
#    0.000    0.750    2.500    5.250    0.000    7.500 
#    0.000    2.500    0.000    0.000    0.000    0.000 
#    0.000    0.000    0.000    0.000    0.000    0.000 
#
# Total GULP energy -397047.510066 kJ/mol
# GULP energy per Si atom -12407.734690 kJ/mol
# Density = 2.033845 g / cm^3
# Si number density = 20.384850 Si / 1000 Ang^3
#
#
#
# Elastic Constant Matrix: (Units=GPa)
#
#
# Indices 1 2 3 4 5 6 
#
# 1 119.5271 50.4815 46.4177 0.0000 0.0000 0.0000
# 2 50.4815 117.7090 51.7878 0.0000 0.0000 0.0000
# 3 46.4177 51.7878 102.5570 0.0000 0.0000 0.0000
# 4 0.0000 0.0000 0.0000 39.6175 0.0000 0.0000
# 5 0.0000 0.0000 0.0000 0.0000 -4.6488 0.0000
# 6 0.0000 0.0000 0.0000 0.0000 0.0000 38.4502
#
#
#
# Elastic Compliance Matrix: (Units=1/GPa)
#
#
# Indices 1 2 3 4 5 6 
#
# 1 0.011046 -0.003262 -0.003352 0.000000 0.000000 0.000000
# 2 -0.003262 0.011886 -0.004525 0.000000 0.000000 0.000000
# 3 -0.003352 -0.004525 0.013553 0.000000 0.000000 0.000000
# 4 0.000000 0.000000 0.000000 0.025241 0.000000 0.000000
# 5 0.000000 0.000000 0.000000 0.000000 -0.215111 0.000000
# 6 0.000000 0.000000 0.000000 0.000000 0.000000 0.026008
#
#
# Mechanical properties :
#
#
# Convention : Reuss Voigt Hill
#
# Bulk Modulus (GPa) = 70.39750 70.79635 70.59693
# Shear Modulus (GPa) = -49.81910 27.42420 -11.19745
#
# Velocity S-wave (km/s) = -4.94897 3.67184 -2.34626
# Velocity P-wave (km/s) = 1.39741 7.26511 5.23138
#
# Compressibility (1/GPa) = 0.01420505
#
# Stress axis : x y z
#
# Youngs Moduli (GPa) = 90.53117 84.13514 73.78498
#
# Poissons Ratio (x) = 0.27449 0.24733
# Poissons Ratio (y) = 0.29536 0.33389
# Poissons Ratio (z) = 0.30346 0.38073
#
# Static dielectric constant tensor:
#      x y z
#    x 4.169480 0.000000 0.000000 
#    y 0.000000 3.912160 0.000000 
#    z 0.000000 0.000000 3.598800 
# 
# 
# High freq. dielectric constant tensor:
#      x y z
#    x 1.815600 0.000000 0.000000 
#    y 0.000000 1.816500 0.000000 
#    z 0.000000 0.000000 1.793210 
# 
# From -- ./inp_files/33264.got.cif
#   From: 2010.03.12/outbox.cif.g09.slc.cpg/sg65_17_cif.got.tgz:33264.got - 2010.04.10 20:52:16.
