data_PCOD8274904
_publ_section_title
;
Structure prediction by ZEFSAII (Michael W. Deem and Ramdas Pophale) SiO2 
 PCOD8274904
Probable space group: C M M M
;
_chemical_formula_sum "Si O2"
_cell_formula_units_Z 104
_cell_length_a 14.368944
_cell_length_b 24.263671
_cell_length_c 15.927020
_cell_angle_alpha 90.000000
_cell_angle_beta 90.000000
_cell_angle_gamma 90.000000
_cell_volume 5552.849287
_symmetry_space_group_name_H-M "C M M M"
_symmetry_group_IT_number 65
_symmetry_cell_setting 'orthorhombic'
loop_
_space_group_symop_operation_xyz
x,y,z
-x,-y,z
x,-y,-z
-x,y,-z
-x,-y,-z
x,y,-z
-x,y,z
x,-y,z
1/2+x,1/2+y,z
1/2-x,1/2-y,z
1/2+x,1/2-y,-z
1/2-x,1/2+y,-z
1/2-x,1/2-y,-z
1/2+x,1/2+y,-z
1/2-x,1/2+y,z
1/2+x,1/2-y,z
loop_
_atom_site_type_symbol
_atom_site_label
_atom_site_fract_x
_atom_site_fract_y
_atom_site_fract_z
Si Si1 0.212298 0.935944 0.909018
Si Si2 0.104584 0.436715 0.177565
Si Si3 0.610137 0.760586 0.593807
Si Si4 0.390127 0.563679 0.745431
Si Si5 0.110901 0.861286 0.594482
Si Si6 0.110583 0.627026 0.660349
Si Si7 0.388638 0.062346 0.500000
O O1 0.323591 0.927413 0.898251
O O2 0.154796 0.910843 0.830723
O O3 0.187363 0.000000 0.912124
O O4 0.185115 0.909457 0.000000
O O5 0.105207 0.500000 0.208071
O O6 0.144436 0.400001 0.253483
O O7 0.000000 0.419515 0.149398
O O8 0.643064 0.775911 0.500000
O O9 0.500000 0.757881 0.596403
O O10 0.649000 0.700075 0.618275
O O11 0.645688 0.809315 0.655311
O O12 0.500000 0.570889 0.753695
O O13 0.361550 0.500000 0.733130
O O14 0.350149 0.596572 0.664504
O O15 0.143768 0.877885 0.500000
O O16 0.000000 0.861879 0.596581
O O17 0.151871 0.593052 0.581974
O O18 0.000000 0.623926 0.656427
O O19 0.500000 0.063979 0.500000
O O20 0.351660 0.000000 0.500000
#
# Coordination Sequence:
#
# PCOD8274904 Si02
#       7
#    16  16  16  16  16  16   8
#     4   9  18  32  49  68  92 121 149 184 233 282
#     4   9  17  28  43  65  92 120 153 191 227 267
#     4   8  12  20  35  58  87 118 157 196 221 255
#     4   9  17  29  47  72  97 118 145 183 228 283
#     4   8  14  24  41  66  94 123 152 184 224 267
#     4   9  14  21  35  57  85 120 157 190 223 258
#     4   9  14  18  28  50  82 119 156 190 226 265
#
# _framework density 18.729123000000001
#
# number of rings (size 3 to 8) (size 9 to 14) (size 15 to 20)
#    0.000    3.308    0.769    1.385    0.000    2.769 
#    0.000    4.615    1.692    0.923    0.000    4.308 
#    0.000    6.154    0.000    0.000    0.000    0.000 
#
# Total GULP energy -644278.458232 kJ/mol
# GULP energy per Si atom -12389.970351 kJ/mol
# Density = 1.868649 g / cm^3
# Si number density = 18.729123 Si / 1000 Ang^3
#
#
#
# Elastic Constant Matrix: (Units=GPa)
#
#
# Indices 1 2 3 4 5 6 
#
# 1 20.5474 9.5543 19.7314 0.0000 0.0000 0.0000
# 2 9.5543 89.0576 63.0160 0.0000 0.0000 0.0000
# 3 19.7314 63.0160 137.4720 0.0000 0.0000 0.0000
# 4 0.0000 0.0000 0.0000 12.5812 0.0000 0.0000
# 5 0.0000 0.0000 0.0000 0.0000 16.4899 0.0000
# 6 0.0000 0.0000 0.0000 0.0000 0.0000 -0.2746
#
#
#
# Elastic Compliance Matrix: (Units=1/GPa)
#
#
# Indices 1 2 3 4 5 6 
#
# 1 0.056462 -0.000478 -0.007885 0.000000 0.000000 0.000000
# 2 -0.000478 0.016623 -0.007551 0.000000 0.000000 0.000000
# 3 -0.007885 -0.007551 0.011867 0.000000 0.000000 0.000000
# 4 0.000000 0.000000 0.000000 0.079484 0.000000 0.000000
# 5 0.000000 0.000000 0.000000 0.000000 0.060643 0.000000
# 6 0.000000 0.000000 0.000000 0.000000 0.000000 -3.642001
#
#
# Mechanical properties :
#
#
# Convention : Reuss Voigt Hill
#
# Bulk Modulus (GPa) = 18.82392 47.96449 33.39421
# Shear Modulus (GPa) = -1.48483 16.07765 7.29641
#
# Velocity S-wave (km/s) = -0.89136 2.93308 1.97591
# Velocity P-wave (km/s) = 3.00218 6.09391 4.80358
#
# Compressibility (1/GPa) = 0.05312390
#
# Stress axis : x y z
#
# Youngs Moduli (GPa) = 17.71105 60.15697 84.26478
#
# Poissons Ratio (x) = 0.02877 0.66441
# Poissons Ratio (y) = 0.00847 0.63631
# Poissons Ratio (z) = 0.13965 0.45426
#
# Static dielectric constant tensor:
#      x y z
#    x 3.188850 0.000000 0.000000 
#    y 0.000000 3.564890 0.000000 
#    z 0.000000 0.000000 3.539880 
# 
# 
# High freq. dielectric constant tensor:
#      x y z
#    x 1.718550 0.000000 0.000000 
#    y 0.000000 1.699330 0.000000 
#    z 0.000000 0.000000 1.705110 
# 
# From -- ./inp_files/43114.got.cif
#   From: 2010.03.12/outbox.cif.g09.slc.cpg/sg65_22_cif.got.tgz:43114.got - 2010.04.10 20:52:16.
