data_PCOD8274699
_publ_section_title
;
Structure prediction by ZEFSAII (Michael W. Deem and Ramdas Pophale) SiO2 
 PCOD8274699
Probable space group: C M M M
;
_chemical_formula_sum "Si O2"
_cell_formula_units_Z 72
_cell_length_a 15.536401
_cell_length_b 7.993122
_cell_length_c 28.270183
_cell_angle_alpha 90.000000
_cell_angle_beta 90.000000
_cell_angle_gamma 90.000000
_cell_volume 3510.714262
_symmetry_space_group_name_H-M "C M M M"
_symmetry_group_IT_number 65
_symmetry_cell_setting 'orthorhombic'
loop_
_space_group_symop_operation_xyz
x,y,z
-x,-y,z
x,-y,-z
-x,y,-z
-x,-y,-z
x,y,-z
-x,y,z
x,-y,z
1/2+x,1/2+y,z
1/2-x,1/2-y,z
1/2+x,1/2-y,-z
1/2-x,1/2+y,-z
1/2-x,1/2-y,-z
1/2+x,1/2+y,-z
1/2-x,1/2+y,z
1/2+x,1/2-y,z
loop_
_atom_site_type_symbol
_atom_site_label
_atom_site_fract_x
_atom_site_fract_y
_atom_site_fract_z
Si Si1 0.843833 0.305755 0.219783
Si Si2 0.000000 0.799484 0.614159
Si Si3 0.102390 0.000000 0.946884
Si Si4 0.157522 0.197353 0.446993
Si Si5 0.601959 0.809543 0.115862
Si Si6 0.000000 0.189516 0.718170
O O1 0.857140 0.500000 0.225991
O O2 0.750000 0.250000 0.237212
O O3 0.855839 0.254582 0.165195
O O4 0.914843 0.221415 0.251980
O O5 0.084100 0.729222 0.587219
O O6 0.000000 0.718912 0.667131
O O7 0.000000 0.000000 0.613828
O O8 0.135056 0.828871 0.921718
O O9 0.000000 0.000000 0.947324
O O10 0.139510 0.000000 0.000000
O O11 0.145843 0.271812 0.500000
O O12 0.250000 0.250000 0.426086
O O13 0.150057 0.000000 0.448973
O O14 0.500000 0.801336 0.121860
O O15 0.629110 0.000000 0.100818
O O16 0.000000 0.000000 0.703605
#
# Coordination Sequence:
#
# PCOD8274699 Si02
#       6
#    16   8   8  16  16   8
#     4  11  23  39  60  87 113 148 198 246 291 353
#     4   9  19  35  54  80 110 148 189 227 288 356
#     4   9  18  30  52  86 118 151 191 235 291 360
#     4   9  17  32  55  80 109 146 191 238 279 334
#     4   9  18  33  55  81 113 150 190 242 293 348
#     4  11  23  38  59  84 118 153 189 244 303 353
#
# _framework density 20.508648000000001
#
# number of rings (size 3 to 8) (size 9 to 14) (size 15 to 20)
#    0.000    2.333    1.111    1.333    3.111    2.667 
#    0.000    7.222    0.000    3.333    0.000    0.000 
#    0.000    0.000    0.000    0.000    0.000    0.000 
#
# Total GULP energy -446299.820211 kJ/mol
# GULP energy per Si atom -12397.217228 kJ/mol
# Density = 2.046197 g / cm^3
# Si number density = 20.508648 Si / 1000 Ang^3
#
#
#
# Elastic Constant Matrix: (Units=GPa)
#
#
# Indices 1 2 3 4 5 6 
#
# 1 134.4922 24.4557 78.2605 0.0000 0.0000 0.0000
# 2 24.4557 66.0800 52.7880 0.0000 0.0000 0.0000
# 3 78.2605 52.7880 135.7557 0.0000 0.0000 0.0000
# 4 0.0000 0.0000 0.0000 14.8073 0.0000 0.0000
# 5 0.0000 0.0000 0.0000 0.0000 -8.9070 0.0000
# 6 0.0000 0.0000 0.0000 0.0000 0.0000 23.2590
#
#
#
# Elastic Compliance Matrix: (Units=1/GPa)
#
#
# Indices 1 2 3 4 5 6 
#
# 1 0.011288 0.001481 -0.007083 0.000000 0.000000 0.000000
# 2 0.001481 0.022146 -0.009465 0.000000 0.000000 0.000000
# 3 -0.007083 -0.009465 0.015130 0.000000 0.000000 0.000000
# 4 0.000000 0.000000 0.000000 0.067534 0.000000 0.000000
# 5 0.000000 0.000000 0.000000 0.000000 -0.112271 0.000000
# 6 0.000000 0.000000 0.000000 0.000000 0.000000 0.042994
#
#
# Mechanical properties :
#
#
# Convention : Reuss Voigt Hill
#
# Bulk Modulus (GPa) = 54.26168 71.92625 63.09397
# Shear Modulus (GPa) = 60.16941 17.88676 39.02809
#
# Velocity S-wave (km/s) = 5.42238 2.95643 4.36708
# Velocity P-wave (km/s) = 8.10669 6.84115 7.50066
#
# Compressibility (1/GPa) = 0.01842921
#
# Stress axis : x y z
#
# Youngs Moduli (GPa) = 88.59269 45.15405 66.09488
#
# Poissons Ratio (x) = -0.06686 0.46814
# Poissons Ratio (y) = -0.13118 0.62560
# Poissons Ratio (z) = 0.62749 0.42739
#
# Static dielectric constant tensor:
#      x y z
#    x 3.941750 0.000000 0.000000 
#    y 0.000000 3.681720 0.000000 
#    z 0.000000 0.000000 3.873420 
# 
# 
# High freq. dielectric constant tensor:
#      x y z
#    x 1.797260 0.000000 0.000000 
#    y 0.000000 1.794630 0.000000 
#    z 0.000000 0.000000 1.795040 
# 
# From -- ./inp_files/74684.got.cif
#   From: 2010.03.12/outbox.cif.g09.slc.cpg/sg65_38_cif.got.tgz:74684.got - 2010.04.10 20:52:16.
