data_PCOD8274486
_publ_section_title
;
Structure prediction by ZEFSAII (Michael W. Deem and Ramdas Pophale) SiO2 
 PCOD8274486
Probable space group: C M M M
;
_chemical_formula_sum "Si O2"
_cell_formula_units_Z 72
_cell_length_a 8.709857
_cell_length_b 16.153599
_cell_length_c 24.570397
_cell_angle_alpha 90.000000
_cell_angle_beta 90.000000
_cell_angle_gamma 90.000000
_cell_volume 3456.945208
_symmetry_space_group_name_H-M "C M M M"
_symmetry_group_IT_number 65
_symmetry_cell_setting 'orthorhombic'
loop_
_space_group_symop_operation_xyz
x,y,z
-x,-y,z
x,-y,-z
-x,y,-z
-x,-y,-z
x,y,-z
-x,y,z
x,-y,z
1/2+x,1/2+y,z
1/2-x,1/2-y,z
1/2+x,1/2-y,-z
1/2-x,1/2+y,-z
1/2-x,1/2-y,-z
1/2+x,1/2+y,-z
1/2-x,1/2+y,z
1/2+x,1/2-y,z
loop_
_atom_site_type_symbol
_atom_site_label
_atom_site_fract_x
_atom_site_fract_y
_atom_site_fract_z
Si Si1 0.324255 0.593765 0.772203
Si Si2 0.682534 0.000000 0.061712
Si Si3 0.182337 0.406886 0.559026
Si Si4 0.182240 0.336314 0.329320
Si Si5 0.818270 0.663614 0.124099
O O1 0.500000 0.623347 0.768201
O O2 0.312484 0.500000 0.793463
O O3 0.245259 0.596438 0.712993
O O4 0.234754 0.653141 0.813649
O O5 0.744238 0.915625 0.090000
O O6 0.500000 0.000000 0.064601
O O7 0.742797 0.000000 0.000000
O O8 0.236049 0.370276 0.500000
O O9 0.245268 0.500000 0.564704
O O10 0.246788 0.354492 0.609774
O O11 0.000000 0.408166 0.561569
O O12 0.250000 0.250000 0.309500
O O13 0.000000 0.336377 0.328133
O O14 0.750000 0.750000 0.100760
O O15 0.000000 0.669183 0.121021
#
# Coordination Sequence:
#
# PCOD8274486 Si02
#       5
#    16   8  16  16  16
#     4  11  23  39  60  85 116 151 193 246 300 354
#     4   9  20  40  65  93 127 167 208 249 296 353
#     4   8  15  30  52  76 101 134 180 232 284 342
#     4  11  22  35  53  79 112 148 189 234 287 349
#     4  11  22  39  64  93 126 164 206 250 300 356
#
# _framework density 20.827636999999999
#
# number of rings (size 3 to 8) (size 9 to 14) (size 15 to 20)
#    0.000    1.889    1.111    4.000    0.000    3.111 
#    0.000    0.000    0.000    6.667    0.000    7.778 
#    0.000    0.000    0.000    0.000    0.000    0.000 
#
# Total GULP energy -446333.107012 kJ/mol
# GULP energy per Si atom -12398.141861 kJ/mol
# Density = 2.078023 g / cm^3
# Si number density = 20.827637 Si / 1000 Ang^3
#
#
#
# Elastic Constant Matrix: (Units=GPa)
#
#
# Indices 1 2 3 4 5 6 
#
# 1 71.7667 35.6050 31.5195 0.0000 0.0000 0.0000
# 2 35.6050 123.9798 53.4730 0.0000 0.0000 0.0000
# 3 31.5195 53.4730 135.8305 0.0000 0.0000 0.0000
# 4 0.0000 0.0000 0.0000 33.6999 0.0000 0.0000
# 5 0.0000 0.0000 0.0000 0.0000 16.6697 0.0000
# 6 0.0000 0.0000 0.0000 0.0000 0.0000 26.2840
#
#
#
# Elastic Compliance Matrix: (Units=1/GPa)
#
#
# Indices 1 2 3 4 5 6 
#
# 1 0.016885 -0.003805 -0.002420 0.000000 0.000000 0.000000
# 2 -0.003805 0.010573 -0.003279 0.000000 0.000000 0.000000
# 3 -0.002420 -0.003279 0.009215 0.000000 0.000000 0.000000
# 4 0.000000 0.000000 0.000000 0.029674 0.000000 0.000000
# 5 0.000000 0.000000 0.000000 0.000000 0.059989 0.000000
# 6 0.000000 0.000000 0.000000 0.000000 0.000000 0.038046
#
#
# Mechanical properties :
#
#
# Convention : Reuss Voigt Hill
#
# Bulk Modulus (GPa) = 56.61494 63.64133 60.12813
# Shear Modulus (GPa) = 26.41612 29.39602 27.90607
#
# Velocity S-wave (km/s) = 3.56521 3.76093 3.66438
# Velocity P-wave (km/s) = 6.64750 7.03434 6.84366
#
# Compressibility (1/GPa) = 0.01766318
#
# Stress axis : x y z
#
# Youngs Moduli (GPa) = 59.22488 94.58038 108.52243
#
# Poissons Ratio (x) = 0.35990 0.26263
# Poissons Ratio (y) = 0.22537 0.35588
# Poissons Ratio (z) = 0.14333 0.31016
#
# Static dielectric constant tensor:
#      x y z
#    x 3.398380 0.000000 0.000000 
#    y 0.000000 3.788480 0.000000 
#    z 0.000000 0.000000 3.973630 
# 
# 
# High freq. dielectric constant tensor:
#      x y z
#    x 1.785130 0.000000 0.000000 
#    y 0.000000 1.818190 0.000000 
#    z 0.000000 0.000000 1.821560 
# 
# From -- ./inp_files/72508.got.cif
#   From: 2010.03.12/outbox.cif.g09.slc.cpg/sg65_37_cif.got.tgz:72508.got - 2010.04.10 20:52:16.
