data_PCOD8274457
_publ_section_title
;
Structure prediction by ZEFSAII (Michael W. Deem and Ramdas Pophale) SiO2 
 PCOD8274457
Probable space group: C M M M
;
_chemical_formula_sum "Si O2"
_cell_formula_units_Z 80
_cell_length_a 8.798094
_cell_length_b 18.642605
_cell_length_c 26.198780
_cell_angle_alpha 90.000000
_cell_angle_beta 90.000000
_cell_angle_gamma 90.000000
_cell_volume 4297.107946
_symmetry_space_group_name_H-M "C M M M"
_symmetry_group_IT_number 65
_symmetry_cell_setting 'orthorhombic'
loop_
_space_group_symop_operation_xyz
x,y,z
-x,-y,z
x,-y,-z
-x,y,-z
-x,-y,-z
x,y,-z
-x,y,z
x,-y,z
1/2+x,1/2+y,z
1/2-x,1/2-y,z
1/2+x,1/2-y,-z
1/2-x,1/2+y,-z
1/2-x,1/2-y,-z
1/2+x,1/2+y,-z
1/2-x,1/2+y,z
1/2+x,1/2-y,z
loop_
_atom_site_type_symbol
_atom_site_label
_atom_site_fract_x
_atom_site_fract_y
_atom_site_fract_z
Si Si1 0.320599 0.325245 0.057265
Si Si2 0.318920 0.082814 0.335544
Si Si3 0.330100 0.085046 0.553929
Si Si4 0.319279 0.419957 0.149567
Si Si5 0.819847 0.171860 0.245268
O O1 0.500000 0.316788 0.060563
O O2 0.250000 0.250000 0.073888
O O3 0.261507 0.385359 0.096520
O O4 0.269146 0.347074 0.000000
O O5 0.500000 0.093116 0.331938
O O6 0.256781 0.108487 0.391884
O O7 0.233441 0.132915 0.296203
O O8 0.275554 0.000000 0.324843
O O9 0.247179 0.109135 0.500000
O O10 0.500000 0.116361 0.552054
O O11 0.338591 0.000000 0.555645
O O12 0.500000 0.422965 0.150450
O O13 0.250915 0.500000 0.153535
O O14 0.259188 0.373473 0.197013
O O15 0.750000 0.250000 0.241781
O O16 0.000000 0.178128 0.245271
#
# Coordination Sequence:
#
# PCOD8274457 Si02
#       5
#    16  16  16  16  16
#     4   9  17  30  50  74  99 128 160 194 232 277
#     4   9  17  30  50  76 103 128 158 198 240 286
#     4   7  10  19  39  68  98 125 153 187 230 280
#     4   9  18  32  50  73  98 123 156 199 244 288
#     4  11  22  35  51  69  94 129 166 204 246 293
#
# _framework density 18.617173000000001
#
# number of rings (size 3 to 8) (size 9 to 14) (size 15 to 20)
#    0.000    3.000    0.000    3.600    0.000    1.600 
#    0.000    3.000    0.000    4.200    0.000    5.600 
#    0.000    0.000    0.000    0.000    0.000    0.000 
#
# Total GULP energy -495533.858531 kJ/mol
# GULP energy per Si atom -12388.346463 kJ/mol
# Density = 1.857480 g / cm^3
# Si number density = 18.617173 Si / 1000 Ang^3
#
#
#
# Elastic Constant Matrix: (Units=GPa)
#
#
# Indices 1 2 3 4 5 6 
#
# 1 26.5677 28.1637 28.1641 0.0000 0.0000 0.0000
# 2 28.1637 134.3900 97.0599 0.0000 0.0000 0.0000
# 3 28.1641 97.0599 189.1554 0.0000 0.0000 0.0000
# 4 0.0000 0.0000 0.0000 10.8929 0.0000 0.0000
# 5 0.0000 0.0000 0.0000 0.0000 18.3822 0.0000
# 6 0.0000 0.0000 0.0000 0.0000 0.0000 6.7339
#
#
#
# Elastic Compliance Matrix: (Units=1/GPa)
#
#
# Indices 1 2 3 4 5 6 
#
# 1 0.049624 -0.008044 -0.003261 0.000000 0.000000 0.000000
# 2 -0.008044 0.013126 -0.005538 0.000000 0.000000 0.000000
# 3 -0.003261 -0.005538 0.008614 0.000000 0.000000 0.000000
# 4 0.000000 0.000000 0.000000 0.091803 0.000000 0.000000
# 5 0.000000 0.000000 0.000000 0.000000 0.054400 0.000000
# 6 0.000000 0.000000 0.000000 0.000000 0.000000 0.148503
#
#
# Mechanical properties :
#
#
# Convention : Reuss Voigt Hill
#
# Bulk Modulus (GPa) = 26.54053 72.98760 49.76406
# Shear Modulus (GPa) = 12.12662 20.31683 16.22173
#
# Velocity S-wave (km/s) = 2.55496 3.30706 2.95503
# Velocity P-wave (km/s) = 4.79486 7.33974 6.19929
#
# Compressibility (1/GPa) = 0.03767823
#
# Stress axis : x y z
#
# Youngs Moduli (GPa) = 20.15138 76.18298 116.09447
#
# Poissons Ratio (x) = 0.61285 0.37858
# Poissons Ratio (y) = 0.16211 0.64289
# Poissons Ratio (z) = 0.06571 0.42187
#
# Static dielectric constant tensor:
#      x y z
#    x 2.979470 0.000000 0.000000 
#    y 0.000000 3.420800 0.000000 
#    z 0.000000 0.000000 4.105060 
# 
# 
# High freq. dielectric constant tensor:
#      x y z
#    x 1.674800 0.000000 0.000000 
#    y 0.000000 1.698950 0.000000 
#    z 0.000000 0.000000 1.753590 
# 
# From -- ./inp_files/68829.got.cif
#   From: 2010.03.12/outbox.cif.g09.slc.cpg/sg65_35_cif.got.tgz:68829.got - 2010.04.10 20:52:16.
