data_PCOD8274739
_publ_section_title
;
Structure prediction by ZEFSAII (Michael W. Deem and Ramdas Pophale) SiO2 
 PCOD8274739
Probable space group: C M M M
;
_chemical_formula_sum "Si O2"
_cell_formula_units_Z 80
_cell_length_a 16.709960
_cell_length_b 12.867918
_cell_length_c 18.303169
_cell_angle_alpha 90.000000
_cell_angle_beta 90.000000
_cell_angle_gamma 90.000000
_cell_volume 3935.591236
_symmetry_space_group_name_H-M "C M M M"
_symmetry_group_IT_number 65
_symmetry_cell_setting 'orthorhombic'
loop_
_space_group_symop_operation_xyz
x,y,z
-x,-y,z
x,-y,-z
-x,y,-z
-x,-y,-z
x,y,-z
-x,y,z
x,-y,z
1/2+x,1/2+y,z
1/2-x,1/2-y,z
1/2+x,1/2-y,-z
1/2-x,1/2+y,-z
1/2-x,1/2-y,-z
1/2+x,1/2+y,-z
1/2-x,1/2+y,z
1/2+x,1/2-y,z
loop_
_atom_site_type_symbol
_atom_site_label
_atom_site_fract_x
_atom_site_fract_y
_atom_site_fract_z
Si Si1 0.904317 0.302838 0.417649
Si Si2 0.404876 0.384199 0.322912
Si Si3 0.405455 0.000000 0.329967
Si Si4 0.907201 0.112393 0.838678
Si Si5 0.903771 0.500000 0.160643
Si Si6 0.165008 0.704581 0.085035
O O1 0.871252 0.310266 0.500000
O O2 0.869746 0.197997 0.380719
O O3 0.870506 0.398871 0.370437
O O4 0.000000 0.303477 0.417839
O O5 0.500000 0.376897 0.324427
O O6 0.376515 0.500000 0.345208
O O7 0.372690 0.356605 0.241324
O O8 0.500000 0.000000 0.336788
O O9 0.380993 0.000000 0.245439
O O10 0.894860 0.201016 0.898732
O O11 0.000000 0.096089 0.828286
O O12 0.870350 0.000000 0.863698
O O13 0.862860 0.398317 0.126643
O O14 0.000000 0.500000 0.146931
O O15 0.250000 0.750000 0.112045
O O16 0.165508 0.677322 0.000000
#
# Coordination Sequence:
#
# PCOD8274739 Si02
#       6
#    16  16   8  16   8  16
#     4   9  15  22  36  63 103 144 174 211 273 334
#     4   8  14  25  41  64  96 135 178 221 264 314
#     4   9  17  29  47  71 101 138 183 231 272 316
#     4   9  18  34  57  81 106 144 191 233 274 332
#     4  11  23  41  65  87 112 155 203 239 279 343
#     4  11  25  40  57  82 116 149 179 230 296 345
#
# _framework density 20.327314999999999
#
# number of rings (size 3 to 8) (size 9 to 14) (size 15 to 20)
#    0.000    2.600    0.000    3.600    1.400    7.200 
#    0.000    3.000    0.000    0.000    0.000    0.000 
#    0.000   20.000    0.000    0.000    0.000    0.000 
#
# Total GULP energy -495701.216893 kJ/mol
# GULP energy per Si atom -12392.530422 kJ/mol
# Density = 2.028105 g / cm^3
# Si number density = 20.327315 Si / 1000 Ang^3
#
#
#
# Elastic Constant Matrix: (Units=GPa)
#
#
# Indices 1 2 3 4 5 6 
#
# 1 31.6277 32.0336 31.4327 0.0000 0.0000 0.0000
# 2 32.0336 170.7191 65.9502 0.0000 0.0000 0.0000
# 3 31.4327 65.9502 98.7778 0.0000 0.0000 0.0000
# 4 0.0000 0.0000 0.0000 -119.1327 0.0000 0.0000
# 5 0.0000 0.0000 0.0000 0.0000 2.9202 0.0000
# 6 0.0000 0.0000 0.0000 0.0000 0.0000 20.2048
#
#
#
# Elastic Compliance Matrix: (Units=1/GPa)
#
#
# Indices 1 2 3 4 5 6 
#
# 1 0.048398 -0.004220 -0.012583 0.000000 0.000000 0.000000
# 2 -0.004220 0.008262 -0.004173 0.000000 0.000000 0.000000
# 3 -0.012583 -0.004173 0.016914 0.000000 0.000000 0.000000
# 4 0.000000 0.000000 0.000000 -0.008394 0.000000 0.000000
# 5 0.000000 0.000000 0.000000 0.000000 0.342440 0.000000
# 6 0.000000 0.000000 0.000000 0.000000 0.000000 0.049493
#
#
# Mechanical properties :
#
#
# Convention : Reuss Voigt Hill
#
# Bulk Modulus (GPa) = 31.62501 62.21750 46.92125
# Shear Modulus (GPa) = 9.81150 -7.75433 1.02859
#
# Velocity S-wave (km/s) = 2.19937 -1.95525 0.71212
# Velocity P-wave (km/s) = 4.69482 5.05736 4.87946
#
# Compressibility (1/GPa) = 0.03162054
#
# Stress axis : x y z
#
# Youngs Moduli (GPa) = 20.66198 121.04328 59.12252
#
# Poissons Ratio (x) = 0.51084 0.74395
# Poissons Ratio (y) = 0.08720 0.24671
# Poissons Ratio (z) = 0.26000 0.50510
#
# Static dielectric constant tensor:
#      x y z
#    x 3.134770 0.000000 0.000000 
#    y 0.000000 3.542090 0.000000 
#    z 0.000000 0.000000 3.789860 
# 
# 
# High freq. dielectric constant tensor:
#      x y z
#    x 1.735340 0.000000 0.000000 
#    y 0.000000 1.815060 0.000000 
#    z 0.000000 0.000000 1.796550 
# 
# From -- ./inp_files/55611.got.cif
#   From: 2010.03.12/outbox.cif.g09.slc.cpg/sg65_28_cif.got.tgz:55611.got - 2010.04.10 20:52:16.
