data_PCOD8274714
_publ_section_title
;
Structure prediction by ZEFSAII (Michael W. Deem and Ramdas Pophale) SiO2 
 PCOD8274714
Probable space group: C M M M
;
_chemical_formula_sum "Si O2"
_cell_formula_units_Z 80
_cell_length_a 15.373136
_cell_length_b 7.983384
_cell_length_c 31.432544
_cell_angle_alpha 90.000000
_cell_angle_beta 90.000000
_cell_angle_gamma 90.000000
_cell_volume 3857.705060
_symmetry_space_group_name_H-M "C M M M"
_symmetry_group_IT_number 65
_symmetry_cell_setting 'orthorhombic'
loop_
_space_group_symop_operation_xyz
x,y,z
-x,-y,z
x,-y,-z
-x,y,-z
-x,-y,-z
x,y,-z
-x,y,z
x,-y,z
1/2+x,1/2+y,z
1/2-x,1/2-y,z
1/2+x,1/2-y,-z
1/2-x,1/2+y,-z
1/2-x,1/2-y,-z
1/2+x,1/2+y,-z
1/2-x,1/2+y,z
1/2+x,1/2-y,z
loop_
_atom_site_type_symbol
_atom_site_label
_atom_site_fract_x
_atom_site_fract_y
_atom_site_fract_z
Si Si1 0.896409 0.500000 0.547877
Si Si2 0.500000 0.810241 0.755062
Si Si3 0.103227 0.190366 0.604106
Si Si4 0.344702 0.694897 0.302272
Si Si5 0.151919 0.696719 0.000000
Si Si6 0.848722 0.301616 0.908227
Si Si7 0.500000 0.200617 0.848538
O O1 0.859723 0.500000 0.500000
O O2 0.862741 0.671247 0.570381
O O3 0.000000 0.500000 0.548121
O O4 0.585595 0.777630 0.728054
O O5 0.500000 0.718247 0.800948
O O6 0.500000 0.000000 0.768187
O O7 0.141953 0.250374 0.648990
O O8 0.000000 0.193699 0.607581
O O9 0.133612 0.000000 0.591713
O O10 0.358724 0.500000 0.298267
O O11 0.250000 0.750000 0.286592
O O12 0.250000 0.750000 0.000000
O O13 0.115864 0.766184 0.954650
O O14 0.139472 0.500000 0.000000
O O15 0.851870 0.500000 0.908859
O O16 0.750000 0.250000 0.897797
O O17 0.913594 0.230711 0.872278
O O18 0.500000 0.000000 0.848898
#
# Coordination Sequence:
#
# PCOD8274714 Si02
#       7
#     8   8  16  16   8  16   8
#     4   9  18  30  52  86 120 157 199 237 289 354
#     4  11  23  39  60  83 116 151 187 240 301 352
#     4   9  18  33  55  82 116 153 193 244 296 346
#     4  11  23  39  61  90 115 147 194 245 296 350
#     4   8  14  25  47  75 100 136 178 229 275 315
#     4   9  17  32  52  75 107 141 184 228 274 333
#     4   9  20  36  53  78 108 144 181 223 280 349
#
# _framework density 20.737717
#
# number of rings (size 3 to 8) (size 9 to 14) (size 15 to 20)
#    0.000    2.500    1.000    0.900    2.800    1.600 
#    0.000    8.500    0.000    0.600    0.000    7.000 
#    0.000    0.000    0.000    0.000    0.000    0.000 
#
# Total GULP energy -495597.309463 kJ/mol
# GULP energy per Si atom -12389.932737 kJ/mol
# Density = 2.069052 g / cm^3
# Si number density = 20.737717 Si / 1000 Ang^3
#
#
#
# Elastic Constant Matrix: (Units=GPa)
#
#
# Indices 1 2 3 4 5 6 
#
# 1 106.8244 20.7150 76.1219 0.0000 0.0000 0.0000
# 2 20.7150 59.9676 54.6759 0.0000 0.0000 0.0000
# 3 76.1219 54.6759 172.5680 0.0000 0.0000 0.0000
# 4 0.0000 0.0000 0.0000 14.6993 0.0000 0.0000
# 5 0.0000 0.0000 0.0000 0.0000 0.5806 0.0000
# 6 0.0000 0.0000 0.0000 0.0000 0.0000 20.2242
#
#
#
# Elastic Compliance Matrix: (Units=1/GPa)
#
#
# Indices 1 2 3 4 5 6 
#
# 1 0.013703 0.001094 -0.006391 0.000000 0.000000 0.000000
# 2 0.001094 0.023537 -0.007940 0.000000 0.000000 0.000000
# 3 -0.006391 -0.007940 0.011130 0.000000 0.000000 0.000000
# 4 0.000000 0.000000 0.000000 0.068030 0.000000 0.000000
# 5 0.000000 0.000000 0.000000 0.000000 1.722493 0.000000
# 6 0.000000 0.000000 0.000000 0.000000 0.000000 0.049446
#
#
# Mechanical properties :
#
#
# Convention : Reuss Voigt Hill
#
# Bulk Modulus (GPa) = 45.67192 71.37618 58.52405
# Shear Modulus (GPa) = 2.60130 19.62395 11.11263
#
# Velocity S-wave (km/s) = 1.12121 3.07952 2.31739
# Velocity P-wave (km/s) = 4.87315 6.86570 5.95338
#
# Compressibility (1/GPa) = 0.02189529
#
# Stress axis : x y z
#
# Youngs Moduli (GPa) = 72.97447 42.48613 89.84961
#
# Poissons Ratio (x) = -0.04646 0.57425
# Poissons Ratio (y) = -0.07981 0.71339
# Poissons Ratio (z) = 0.46640 0.33733
#
# Static dielectric constant tensor:
#      x y z
#    x -5.392960 0.000000 0.000000 
#    y 0.000000 3.738180 0.000000 
#    z 0.000000 0.000000 4.236560 
# 
# 
# High freq. dielectric constant tensor:
#      x y z
#    x 1.796340 0.000000 0.000000 
#    y 0.000000 1.800390 0.000000 
#    z 0.000000 0.000000 1.816160 
# 
# From -- ./inp_files/75142.got.cif
#   From: 2010.03.12/outbox.cif.g09.slc.cpg/sg65_38_cif.got.tgz:75142.got - 2010.04.10 20:52:16.
