data_PCOD8274046
_publ_section_title
;
Structure prediction by ZEFSAII (Michael W. Deem and Ramdas Pophale) SiO2 
 PCOD8274046
Probable space group: C M M M
;
_chemical_formula_sum "Si O2"
_cell_formula_units_Z 72
_cell_length_a 17.563546
_cell_length_b 24.251996
_cell_length_c 7.929163
_cell_angle_alpha 90.000000
_cell_angle_beta 90.000000
_cell_angle_gamma 90.000000
_cell_volume 3377.435284
_symmetry_space_group_name_H-M "C M M M"
_symmetry_group_IT_number 65
_symmetry_cell_setting 'orthorhombic'
loop_
_space_group_symop_operation_xyz
x,y,z
-x,-y,z
x,-y,-z
-x,y,-z
-x,-y,-z
x,y,-z
-x,y,z
x,-y,z
1/2+x,1/2+y,z
1/2-x,1/2-y,z
1/2+x,1/2-y,-z
1/2-x,1/2+y,-z
1/2-x,1/2-y,-z
1/2+x,1/2+y,-z
1/2-x,1/2+y,z
1/2+x,1/2-y,z
loop_
_atom_site_type_symbol
_atom_site_label
_atom_site_fract_x
_atom_site_fract_y
_atom_site_fract_z
Si Si1 0.694342 0.654311 0.813566
Si Si2 0.089017 0.564687 0.000000
Si Si3 0.585089 0.747173 0.696782
Si Si4 0.413482 0.562593 0.305245
Si Si5 0.854501 0.365516 0.690626
O O1 0.647416 0.710205 0.788174
O O2 0.639297 0.601976 0.802513
O O3 0.764664 0.648615 0.686434
O O4 0.729526 0.655883 0.000000
O O5 0.126120 0.588195 0.171609
O O6 0.105445 0.500000 0.000000
O O7 0.000000 0.578300 0.000000
O O8 0.593325 0.735741 0.500000
O O9 0.500000 0.731595 0.758760
O O10 0.598967 0.810929 0.739819
O O11 0.407573 0.579805 0.500000
O O12 0.500000 0.569203 0.242645
O O13 0.385775 0.500000 0.278842
O O14 0.876218 0.385264 0.500000
#
# Coordination Sequence:
#
# PCOD8274046 Si02
#       5
#    16   8  16  16  16
#     4  12  24  37  58  94 133 172 217 267 323 383
#     4  11  26  48  73 102 133 165 211 272 328 392
#     4  10  22  40  64  94 128 171 222 269 319 387
#     4   9  19  37  59  82 115 165 220 270 321 379
#     4  11  24  45  70  97 132 175 216 266 330 387
#
# _framework density 21.31795
#
# number of rings (size 3 to 8) (size 9 to 14) (size 15 to 20)
#    0.000    1.444    1.111    4.667    1.556    9.333 
#    0.000    2.222    0.000    0.000    0.000    0.000 
#    0.000    0.000    0.000    0.000    0.000    0.000 
#
# Total GULP energy -446505.237086 kJ/mol
# GULP energy per Si atom -12402.923252 kJ/mol
# Density = 2.126943 g / cm^3
# Si number density = 21.317950 Si / 1000 Ang^3
#
#
#
# Elastic Constant Matrix: (Units=GPa)
#
#
# Indices 1 2 3 4 5 6 
#
# 1 97.3468 33.8065 30.4920 0.0000 0.0000 0.0000
# 2 33.8065 100.1991 52.4271 0.0000 0.0000 0.0000
# 3 30.4920 52.4271 104.6323 0.0000 0.0000 0.0000
# 4 0.0000 0.0000 0.0000 34.9153 0.0000 0.0000
# 5 0.0000 0.0000 0.0000 0.0000 27.0648 0.0000
# 6 0.0000 0.0000 0.0000 0.0000 0.0000 -1.5530
#
#
#
# Elastic Compliance Matrix: (Units=1/GPa)
#
#
# Indices 1 2 3 4 5 6 
#
# 1 0.011931 -0.002990 -0.001979 0.000000 0.000000 0.000000
# 2 -0.002990 0.014276 -0.006282 0.000000 0.000000 0.000000
# 3 -0.001979 -0.006282 0.013281 0.000000 0.000000 0.000000
# 4 0.000000 0.000000 0.000000 0.028641 0.000000 0.000000
# 5 0.000000 0.000000 0.000000 0.000000 0.036948 0.000000
# 6 0.000000 0.000000 0.000000 0.000000 0.000000 -0.643908
#
#
# Mechanical properties :
#
#
# Convention : Reuss Voigt Hill
#
# Bulk Modulus (GPa) = 58.86815 59.51436 59.19125
# Shear Modulus (GPa) = -9.79110 24.44891 7.32891
#
# Velocity S-wave (km/s) = -2.14543 3.39022 1.85617
# Velocity P-wave (km/s) = 4.64081 6.58049 5.69386
#
# Compressibility (1/GPa) = 0.01698711
#
# Stress axis : x y z
#
# Youngs Moduli (GPa) = 83.81736 70.04927 75.29344
#
# Poissons Ratio (x) = 0.20945 0.14898
# Poissons Ratio (y) = 0.25062 0.47296
# Poissons Ratio (z) = 0.16585 0.44002
#
# Static dielectric constant tensor:
#      x y z
#    x 3.896820 0.000000 0.000000 
#    y 0.000000 3.788380 0.000000 
#    z 0.000000 0.000000 3.795690 
# 
# 
# High freq. dielectric constant tensor:
#      x y z
#    x 1.842600 0.000000 0.000000 
#    y 0.000000 1.834640 0.000000 
#    z 0.000000 0.000000 1.835400 
# 
# From -- ./inp_files/9205.got.cif
#   From: 2010.03.12/outbox.cif.g09.slc.cpg/sg65_5_cif.got.tgz:9205.got - 2010.04.10 20:52:16.
