data_PCOD8274084
_publ_section_title
;
Structure prediction by ZEFSAII (Michael W. Deem and Ramdas Pophale) SiO2 
 PCOD8274084
Probable space group: C M M M
;
_chemical_formula_sum "Si O2"
_cell_formula_units_Z 56
_cell_length_a 27.567622
_cell_length_b 11.075380
_cell_length_c 9.071599
_cell_angle_alpha 90.000000
_cell_angle_beta 90.000000
_cell_angle_gamma 90.000000
_cell_volume 2769.757746
_symmetry_space_group_name_H-M "C M M M"
_symmetry_group_IT_number 65
_symmetry_cell_setting 'orthorhombic'
loop_
_space_group_symop_operation_xyz
x,y,z
-x,-y,z
x,-y,-z
-x,y,-z
-x,-y,-z
x,y,-z
-x,y,z
x,-y,z
1/2+x,1/2+y,z
1/2-x,1/2-y,z
1/2+x,1/2-y,-z
1/2-x,1/2+y,-z
1/2-x,1/2-y,-z
1/2+x,1/2+y,-z
1/2-x,1/2+y,z
1/2+x,1/2-y,z
loop_
_atom_site_type_symbol
_atom_site_label
_atom_site_fract_x
_atom_site_fract_y
_atom_site_fract_z
Si Si1 0.553766 0.858659 0.336251
Si Si2 0.615911 0.306317 0.826219
Si Si3 0.443092 0.500000 0.335625
Si Si4 0.715423 0.362006 0.328912
O O1 0.562552 0.802201 0.500000
O O2 0.500000 0.818432 0.279601
O O3 0.598043 0.825472 0.225458
O O4 0.555482 0.000000 0.350096
O O5 0.573511 0.384848 0.755399
O O6 0.667574 0.347000 0.766520
O O7 0.617400 0.318905 0.000000
O O8 0.500000 0.500000 0.346239
O O9 0.420105 0.500000 0.500000
O O10 0.702454 0.347501 0.500000
O O11 0.736309 0.500000 0.300472
O O12 0.750000 0.250000 0.280596
#
# Coordination Sequence:
#
# PCOD8274084 Si02
#       4
#    16  16   8  16
#     4   9  19  37  60  85 117 162 212 255 297 359
#     4  12  24  37  58  90 126 160 196 249 318 379
#     4  11  23  39  61  87 119 163 211 255 300 361
#     4  10  22  42  67  91 118 159 212 266 317 378
#
# _framework density 20.218375000000002
#
# number of rings (size 3 to 8) (size 9 to 14) (size 15 to 20)
#    0.000    1.571    1.429    4.714    0.000    7.429 
#    0.000    4.286    0.000    0.000    0.000    0.000 
#    0.000    0.000    0.000    0.000    0.000    0.000 
#
# Total GULP energy -346949.723982 kJ/mol
# GULP energy per Si atom -12391.061571 kJ/mol
# Density = 2.017236 g / cm^3
# Si number density = 20.218375 Si / 1000 Ang^3
#
#
#
# Elastic Constant Matrix: (Units=GPa)
#
#
# Indices 1 2 3 4 5 6 
#
# 1 85.4794 53.2165 52.1669 0.0000 0.0000 0.0000
# 2 53.2165 104.2497 43.6129 0.0000 0.0000 0.0000
# 3 52.1669 43.6129 117.7394 0.0000 0.0000 0.0000
# 4 0.0000 0.0000 0.0000 -127.7336 0.0000 0.0000
# 5 0.0000 0.0000 0.0000 0.0000 8.4791 0.0000
# 6 0.0000 0.0000 0.0000 0.0000 0.0000 -126.3821
#
#
#
# Elastic Compliance Matrix: (Units=1/GPa)
#
#
# Indices 1 2 3 4 5 6 
#
# 1 0.020273 -0.007800 -0.006093 0.000000 0.000000 0.000000
# 2 -0.007800 0.014352 -0.001860 0.000000 0.000000 0.000000
# 3 -0.006093 -0.001860 0.011882 0.000000 0.000000 0.000000
# 4 0.000000 0.000000 0.000000 -0.007829 0.000000 0.000000
# 5 0.000000 0.000000 0.000000 0.000000 0.117938 0.000000
# 6 0.000000 0.000000 0.000000 0.000000 0.000000 -0.007913
#
#
# Mechanical properties :
#
#
# Convention : Reuss Voigt Hill
#
# Bulk Modulus (GPa) = 66.66391 67.27345 66.96868
# Shear Modulus (GPa) = 26.99617 -38.56252 -5.78317
#
# Velocity S-wave (km/s) = 3.65804 -4.37200 -1.69309
# Velocity P-wave (km/s) = 7.13339 2.80353 5.41964
#
# Compressibility (1/GPa) = 0.01500062
#
# Stress axis : x y z
#
# Youngs Moduli (GPa) = 49.32609 69.67543 84.15904
#
# Poissons Ratio (x) = 0.54345 0.51281
# Poissons Ratio (y) = 0.38473 0.15658
# Poissons Ratio (z) = 0.30056 0.12963
#
# Static dielectric constant tensor:
#      x y z
#    x 3.573200 0.000000 0.000000 
#    y 0.000000 5.332060 0.000000 
#    z 0.000000 0.000000 3.650370 
# 
# 
# High freq. dielectric constant tensor:
#      x y z
#    x 1.778430 0.000000 0.000000 
#    y 0.000000 1.807780 0.000000 
#    z 0.000000 0.000000 1.778450 
# 
# From -- ./inp_files/4409.got.cif
#   From: 2010.03.12/outbox.cif.g09.slc.cpg/sg65_3_cif.got.tgz:4409.got - 2010.04.10 20:52:16.
