data_PCOD8274610
_publ_section_title
;
Structure prediction by ZEFSAII (Michael W. Deem and Ramdas Pophale) SiO2 
 PCOD8274610
Probable space group: C M M M
;
_chemical_formula_sum "Si O2"
_cell_formula_units_Z 72
_cell_length_a 27.305873
_cell_length_b 10.237009
_cell_length_c 13.681064
_cell_angle_alpha 90.000000
_cell_angle_beta 90.000000
_cell_angle_gamma 90.000000
_cell_volume 3824.274218
_symmetry_space_group_name_H-M "C M M M"
_symmetry_group_IT_number 65
_symmetry_cell_setting 'orthorhombic'
loop_
_space_group_symop_operation_xyz
x,y,z
-x,-y,z
x,-y,-z
-x,y,-z
-x,-y,-z
x,y,-z
-x,y,z
x,-y,z
1/2+x,1/2+y,z
1/2-x,1/2-y,z
1/2+x,1/2-y,-z
1/2-x,1/2+y,-z
1/2-x,1/2-y,-z
1/2+x,1/2+y,-z
1/2-x,1/2+y,z
1/2+x,1/2-y,z
loop_
_atom_site_type_symbol
_atom_site_label
_atom_site_fract_x
_atom_site_fract_y
_atom_site_fract_z
Si Si1 0.399190 0.267288 0.295951
Si Si2 0.736585 0.000000 0.318263
Si Si3 0.250000 0.250000 0.187440
Si Si4 0.368103 0.000000 0.611078
Si Si5 0.657821 0.500000 0.609922
Si Si6 0.149954 0.848324 0.111033
Si Si7 0.500000 0.653739 0.388970
O O1 0.388929 0.123460 0.332550
O O2 0.360596 0.368093 0.340910
O O3 0.390456 0.276246 0.179032
O O4 0.453864 0.301970 0.326141
O O5 0.734103 0.128407 0.252718
O O6 0.783829 0.000000 0.387016
O O7 0.690460 0.000000 0.390093
O O8 0.203767 0.213971 0.120450
O O9 0.387199 0.000000 0.500000
O O10 0.638128 0.500000 0.500000
O O11 0.153384 0.000000 0.142029
O O12 0.131904 0.831963 0.000000
O O13 0.500000 0.500000 0.397803
O O14 0.500000 0.712508 0.500000
#
# Coordination Sequence:
#
# PCOD8274610 Si02
#       7
#    16   8   8   8   8  16   8
#     4  12  23  42  61  91 124 157 208 260 303 366
#     4  12  21  36  59  84 128 162 207 240 305 364
#     4  12  19  38  57  86 120 166 205 254 297 360
#     4  12  25  39  58  89 133 169 194 245 312 373
#     4  12  21  37  62  85 119 167 210 251 300 365
#     4  11  22  39  63  89 120 160 205 260 313 355
#     4  11  22  39  68  94 115 156 211 262 307 357
#
# _framework density 18.827102
#
# number of rings (size 3 to 8) (size 9 to 14) (size 15 to 20)
#    0.000    0.333    7.778    2.667    0.000    0.444 
#    0.000    6.667    0.000    2.000    0.000    1.556 
#    0.000    0.000    0.000    0.000    0.000    0.000 
#
# Total GULP energy -446523.399530 kJ/mol
# GULP energy per Si atom -12403.427765 kJ/mol
# Density = 1.878425 g / cm^3
# Si number density = 18.827102 Si / 1000 Ang^3
#
#
#
# Elastic Constant Matrix: (Units=GPa)
#
#
# Indices 1 2 3 4 5 6 
#
# 1 130.2535 28.5056 51.0276 0.0000 0.0000 0.0000
# 2 28.5056 138.5750 54.6848 0.0000 0.0000 0.0000
# 3 51.0276 54.6848 136.4489 0.0000 0.0000 0.0000
# 4 0.0000 0.0000 0.0000 4.1976 0.0000 0.0000
# 5 0.0000 0.0000 0.0000 0.0000 20.9020 0.0000
# 6 0.0000 0.0000 0.0000 0.0000 0.0000 2.7987
#
#
#
# Elastic Compliance Matrix: (Units=1/GPa)
#
#
# Indices 1 2 3 4 5 6 
#
# 1 0.009040 -0.000624 -0.003131 0.000000 0.000000 0.000000
# 2 -0.000624 0.008615 -0.003219 0.000000 0.000000 0.000000
# 3 -0.003131 -0.003219 0.009790 0.000000 0.000000 0.000000
# 4 0.000000 0.000000 0.000000 0.238233 0.000000 0.000000
# 5 0.000000 0.000000 0.000000 0.000000 0.047842 0.000000
# 6 0.000000 0.000000 0.000000 0.000000 0.000000 0.357309
#
#
# Mechanical properties :
#
#
# Convention : Reuss Voigt Hill
#
# Bulk Modulus (GPa) = 74.09082 74.85703 74.47392
# Shear Modulus (GPa) = 7.25398 23.65030 15.45214
#
# Velocity S-wave (km/s) = 1.96502 3.54811 2.86796
# Velocity P-wave (km/s) = 6.67736 7.52543 7.11404
#
# Compressibility (1/GPa) = 0.01349695
#
# Stress axis : x y z
#
# Youngs Moduli (GPa) = 110.61456 116.07530 102.14824
#
# Poissons Ratio (x) = 0.07246 0.31979
# Poissons Ratio (y) = 0.06905 0.32884
# Poissons Ratio (z) = 0.34630 0.37367
#
# Static dielectric constant tensor:
#      x y z
#    x 3.178640 0.000000 0.000000 
#    y 0.000000 3.911520 0.000000 
#    z 0.000000 0.000000 3.527510 
# 
# 
# High freq. dielectric constant tensor:
#      x y z
#    x 1.722780 0.000000 0.000000 
#    y 0.000000 1.740530 0.000000 
#    z 0.000000 0.000000 1.733110 
# 
# From -- ./inp_files/46608.got.cif
#   From: 2010.03.12/outbox.cif.g09.slc.cpg/sg65_24_cif.got.tgz:46608.got - 2010.04.10 20:52:16.
