data_PCOD8274170
_publ_section_title
;
Structure prediction by ZEFSAII (Michael W. Deem and Ramdas Pophale) SiO2 
 PCOD8274170
Probable space group: C M M M
;
_chemical_formula_sum "Si O2"
_cell_formula_units_Z 82
_cell_length_a 21.158675
_cell_length_b 23.029463
_cell_length_c 10.109341
_cell_angle_alpha 90.000000
_cell_angle_beta 90.000000
_cell_angle_gamma 90.000000
_cell_volume 4926.008139
_symmetry_space_group_name_H-M "C M M M"
_symmetry_group_IT_number 65
_symmetry_cell_setting 'orthorhombic'
loop_
_space_group_symop_operation_xyz
x,y,z
-x,-y,z
x,-y,-z
-x,y,-z
-x,-y,-z
x,y,-z
-x,y,z
x,-y,z
1/2+x,1/2+y,z
1/2-x,1/2-y,z
1/2+x,1/2-y,-z
1/2-x,1/2+y,-z
1/2-x,1/2-y,-z
1/2+x,1/2+y,-z
1/2-x,1/2+y,z
1/2+x,1/2-y,z
loop_
_atom_site_type_symbol
_atom_site_label
_atom_site_fract_x
_atom_site_fract_y
_atom_site_fract_z
Si Si1 0.424549 0.098347 0.000000
Si Si2 0.603318 0.900017 0.500000
Si Si3 0.757087 0.332914 0.846209
Si Si4 0.426514 0.230060 0.000000
Si Si5 0.927125 0.733256 0.500000
Si Si6 0.146853 0.762974 0.241150
Si Si7 0.162731 0.566156 0.230708
Si Si8 0.500000 0.000000 0.500000
O O1 0.397730 0.068370 0.132351
O O2 0.500000 0.091385 0.000000
O O3 0.398835 0.164379 0.000000
O O4 0.572272 0.836444 0.500000
O O5 0.646156 0.905422 0.629689
O O6 0.552555 0.950436 0.500000
O O7 0.810676 0.293928 0.778467
O O8 0.690906 0.320306 0.771009
O O9 0.777150 0.399920 0.830090
O O10 0.749440 0.315920 0.000000
O O11 0.405841 0.265415 0.872031
O O12 0.500000 0.222785 0.000000
O O13 0.890030 0.760760 0.622368
O O14 0.000000 0.754086 0.500000
O O15 0.183702 0.500000 0.249236
#
# Coordination Sequence:
#
# PCOD8274170 Si02
#       8
#     8   8  16   8   8  16  16   2
#     4  11  23  33  49  73 105 140 188 233 269 301
#     4  12  24  37  51  72 107 152 197 221 266 302
#     4  11  20  36  58  78 106 138 187 230 278 332
#     4  11  18  33  53  75 103 142 181 222 268 326
#     4  12  24  36  53  83 114 139 183 238 272 316
#     4  11  20  35  55  77 104 141 180 221 285 328
#     4  12  23  37  52  76 105 144 189 231 265 312
#     4  12  24  40  52  66 108 176 192 230 244 312
#
# _framework density 16.646338
#
# number of rings (size 3 to 8) (size 9 to 14) (size 15 to 20)
#    0.000    0.585    8.293    1.463    1.366    4.683 
#    0.000    0.000    0.000    0.000    0.000    0.000 
#    0.000    4.683    0.000    0.000    0.000    0.000 
#
# Total GULP energy -507916.572948 kJ/mol
# GULP energy per Si atom -12388.209096 kJ/mol
# Density = 1.660845 g / cm^3
# Si number density = 16.646338 Si / 1000 Ang^3
#
#
#
# Elastic Constant Matrix: (Units=GPa)
#
#
# Indices 1 2 3 4 5 6 
#
# 1 76.2844 39.2131 45.5940 0.0000 0.0000 0.0000
# 2 39.2131 58.6061 19.8214 0.0000 0.0000 0.0000
# 3 45.5940 19.8214 135.2990 0.0000 0.0000 0.0000
# 4 0.0000 0.0000 0.0000 18.1279 0.0000 0.0000
# 5 0.0000 0.0000 0.0000 0.0000 72.8024 0.0000
# 6 0.0000 0.0000 0.0000 0.0000 0.0000 29.6063
#
#
#
# Elastic Compliance Matrix: (Units=1/GPa)
#
#
# Indices 1 2 3 4 5 6 
#
# 1 0.023856 -0.013933 -0.005998 0.000000 0.000000 0.000000
# 2 -0.013933 0.026091 0.000873 0.000000 0.000000 0.000000
# 3 -0.005998 0.000873 0.009284 0.000000 0.000000 0.000000
# 4 0.000000 0.000000 0.000000 0.055164 0.000000 0.000000
# 5 0.000000 0.000000 0.000000 0.000000 0.013736 0.000000
# 6 0.000000 0.000000 0.000000 0.000000 0.000000 0.033777
#
#
# Mechanical properties :
#
#
# Convention : Reuss Voigt Hill
#
# Bulk Modulus (GPa) = 47.36085 53.27183 50.31634
# Shear Modulus (GPa) = 24.14742 35.14470 29.64606
#
# Velocity S-wave (km/s) = 3.81283 4.59983 4.22469
# Velocity P-wave (km/s) = 6.92073 7.76420 7.35457
#
# Compressibility (1/GPa) = 0.02111449
#
# Stress axis : x y z
#
# Youngs Moduli (GPa) = 41.91819 38.32806 107.70809
#
# Poissons Ratio (x) = 0.53404 0.64602
# Poissons Ratio (y) = 0.58406 -0.09404
# Poissons Ratio (z) = 0.25142 -0.03346
#
# Static dielectric constant tensor:
#      x y z
#    x 3.098000 0.000000 0.000000 
#    y 0.000000 3.056590 0.000000 
#    z 0.000000 0.000000 3.227700 
# 
# 
# High freq. dielectric constant tensor:
#      x y z
#    x 1.630260 0.000000 0.000000 
#    y 0.000000 1.614770 0.000000 
#    z 0.000000 0.000000 1.651690 
# 
# From -- ./inp_files/11686.got.cif
#   From: 2010.03.12/outbox.cif.g09.slc.cpg/sg65_6_cif.got.tgz:11686.got - 2010.04.10 20:52:16.
