data_PCOD8274023
_publ_section_title
;
Structure prediction by ZEFSAII (Michael W. Deem and Ramdas Pophale) SiO2 
 PCOD8274023
Probable space group: C M M M
;
_chemical_formula_sum "Si O2"
_cell_formula_units_Z 88
_cell_length_a 9.371418
_cell_length_b 18.937265
_cell_length_c 25.316626
_cell_angle_alpha 90.000000
_cell_angle_beta 90.000000
_cell_angle_gamma 90.000000
_cell_volume 4492.916960
_symmetry_space_group_name_H-M "C M M M"
_symmetry_group_IT_number 65
_symmetry_cell_setting 'orthorhombic'
loop_
_space_group_symop_operation_xyz
x,y,z
-x,-y,z
x,-y,-z
-x,y,-z
-x,-y,-z
x,y,-z
-x,y,z
x,-y,z
1/2+x,1/2+y,z
1/2-x,1/2-y,z
1/2+x,1/2-y,-z
1/2-x,1/2+y,-z
1/2-x,1/2-y,-z
1/2+x,1/2+y,-z
1/2-x,1/2+y,z
1/2+x,1/2-y,z
loop_
_atom_site_type_symbol
_atom_site_label
_atom_site_fract_x
_atom_site_fract_y
_atom_site_fract_z
Si Si1 0.000000 0.078283 0.938786
Si Si2 0.834301 0.680979 0.559415
Si Si3 0.336328 0.081938 0.653745
Si Si4 0.725786 0.832328 0.057817
Si Si5 0.157459 0.679202 0.830135
Si Si6 0.835007 0.083424 0.244615
O O1 0.865547 0.125528 0.923426
O O2 0.000000 0.000000 0.910626
O O3 0.000000 0.063613 0.000000
O O4 0.792113 0.657242 0.500000
O O5 0.750000 0.750000 0.577061
O O6 0.791827 0.619014 0.599315
O O7 0.000000 0.699493 0.562932
O O8 0.500000 0.098533 0.669529
O O9 0.233136 0.109372 0.700180
O O10 0.312706 0.000000 0.643377
O O11 0.750000 0.750000 0.049609
O O12 0.624905 0.841867 0.108478
O O13 0.668643 0.860708 0.000000
O O14 0.250000 0.750000 0.825195
O O15 0.245150 0.617179 0.802541
O O16 0.000000 0.688972 0.804229
O O17 0.000000 0.107361 0.242157
O O18 0.819613 0.000000 0.238618
#
# Coordination Sequence:
#
# PCOD8274023 Si02
#       6
#     8  16  16  16  16  16
#     4   9  18  34  56  84 115 149 191 235 279 337
#     4   9  18  32  51  78 112 149 186 224 272 329
#     4   9  18  34  56  80 108 143 186 235 282 331
#     4   9  20  35  57  85 115 150 189 233 285 347
#     4  11  24  39  59  85 115 148 187 236 286 340
#     4  10  22  40  61  83 110 147 190 236 287 345
#
# _framework density 19.586383999999999
#
# number of rings (size 3 to 8) (size 9 to 14) (size 15 to 20)
#    0.000    2.455    0.000    1.091    6.364    4.000 
#    0.000    3.636    0.000    0.000    0.000    8.909 
#    0.000    0.000    0.000    0.000    0.000    0.000 
#
# Total GULP energy -545190.425853 kJ/mol
# GULP energy per Si atom -12390.691497 kJ/mol
# Density = 1.954180 g / cm^3
# Si number density = 19.586384 Si / 1000 Ang^3
#
#
#
# Elastic Constant Matrix: (Units=GPa)
#
#
# Indices 1 2 3 4 5 6 
#
# 1 116.3004 45.8094 47.4430 0.0000 0.0000 0.0000
# 2 45.8094 74.8534 40.8483 0.0000 0.0000 0.0000
# 3 47.4430 40.8483 127.4020 0.0000 0.0000 0.0000
# 4 0.0000 0.0000 0.0000 36.7337 0.0000 0.0000
# 5 0.0000 0.0000 0.0000 0.0000 26.7433 0.0000
# 6 0.0000 0.0000 0.0000 0.0000 0.0000 31.3934
#
#
#
# Elastic Compliance Matrix: (Units=1/GPa)
#
#
# Indices 1 2 3 4 5 6 
#
# 1 0.011980 -0.005936 -0.002558 0.000000 0.000000 0.000000
# 2 -0.005936 0.019134 -0.003924 0.000000 0.000000 0.000000
# 3 -0.002558 -0.003924 0.010060 0.000000 0.000000 0.000000
# 4 0.000000 0.000000 0.000000 0.027223 0.000000 0.000000
# 5 0.000000 0.000000 0.000000 0.000000 0.037393 0.000000
# 6 0.000000 0.000000 0.000000 0.000000 0.000000 0.031854
#
#
# Mechanical properties :
#
#
# Convention : Reuss Voigt Hill
#
# Bulk Modulus (GPa) = 61.20921 65.19525 63.20223
# Shear Modulus (GPa) = 29.77526 31.27109 30.52318
#
# Velocity S-wave (km/s) = 3.90321 4.00005 3.95192
# Velocity P-wave (km/s) = 7.18555 7.39541 7.29124
#
# Compressibility (1/GPa) = 0.01633741
#
# Stress axis : x y z
#
# Youngs Moduli (GPa) = 83.47299 52.26429 99.40352
#
# Poissons Ratio (x) = 0.31022 0.25428
# Poissons Ratio (y) = 0.49546 0.39009
# Poissons Ratio (z) = 0.21353 0.20510
#
# Static dielectric constant tensor:
#      x y z
#    x 3.619240 0.000000 0.000000 
#    y 0.000000 3.540090 0.000000 
#    z 0.000000 0.000000 3.819230 
# 
# 
# High freq. dielectric constant tensor:
#      x y z
#    x 1.760540 0.000000 0.000000 
#    y 0.000000 1.750270 0.000000 
#    z 0.000000 0.000000 1.768340 
# 
# From -- ./inp_files/67537.got.cif
#   From: 2010.03.12/outbox.cif.g09.slc.cpg/sg65_34_cif.got.tgz:67537.got - 2010.04.10 20:52:16.
