data_PCOD8274512
_publ_section_title
;
Structure prediction by ZEFSAII (Michael W. Deem and Ramdas Pophale) SiO2 
 PCOD8274512
Probable space group: C M M M
;
_chemical_formula_sum "Si O2"
_cell_formula_units_Z 56
_cell_length_a 9.073192
_cell_length_b 15.033817
_cell_length_c 21.566629
_cell_angle_alpha 90.000000
_cell_angle_beta 90.000000
_cell_angle_gamma 90.000000
_cell_volume 2941.789734
_symmetry_space_group_name_H-M "C M M M"
_symmetry_group_IT_number 65
_symmetry_cell_setting 'orthorhombic'
loop_
_space_group_symop_operation_xyz
x,y,z
-x,-y,z
x,-y,-z
-x,y,-z
-x,-y,-z
x,y,-z
-x,y,z
x,-y,z
1/2+x,1/2+y,z
1/2-x,1/2-y,z
1/2+x,1/2-y,-z
1/2-x,1/2+y,-z
1/2-x,1/2-y,-z
1/2+x,1/2+y,-z
1/2-x,1/2+y,z
1/2+x,1/2-y,z
loop_
_atom_site_type_symbol
_atom_site_label
_atom_site_fract_x
_atom_site_fract_y
_atom_site_fract_z
Si Si1 0.673842 0.336682 0.687892
Si Si2 0.824771 0.000000 0.231269
Si Si3 0.825230 0.152398 0.000000
Si Si4 0.332420 0.104706 0.430390
Si Si5 0.325110 0.500000 0.092487
O O1 0.500000 0.327568 0.690586
O O2 0.750000 0.250000 0.716181
O O3 0.733556 0.415399 0.731110
O O4 0.721153 0.348434 0.616538
O O5 0.758777 0.000000 0.161854
O O6 0.000000 0.000000 0.228671
O O7 0.750000 0.250000 0.000000
O O8 0.774718 0.091798 0.941143
O O9 0.000000 0.168541 0.000000
O O10 0.294423 0.136821 0.500000
O O11 0.500000 0.130854 0.413228
O O12 0.310602 0.000000 0.425562
O O13 0.500000 0.500000 0.092662
#
# Coordination Sequence:
#
# PCOD8274512 Si02
#       5
#    16   8   8  16   8
#     4  11  22  36  54  78 104 138 179 221 268 318
#     4   9  19  36  55  75 106 142 181 220 256 310
#     4   9  17  31  56  84 110 141 177 215 258 304
#     4   9  18  34  56  79 103 133 170 218 274 324
#     4   8  16  33  54  77 107 147 181 208 255 316
#
# _framework density 19.036031000000001
#
# number of rings (size 3 to 8) (size 9 to 14) (size 15 to 20)
#    0.000    2.571    1.429    2.571    0.000    2.286 
#    0.000    2.857    0.000    5.143    0.000    0.000 
#    0.000    0.000    0.000    0.000    0.000    0.000 
#
# Total GULP energy -347083.571394 kJ/mol
# GULP energy per Si atom -12395.841835 kJ/mol
# Density = 1.899270 g / cm^3
# Si number density = 19.036031 Si / 1000 Ang^3
#
#
#
# Elastic Constant Matrix: (Units=GPa)
#
#
# Indices 1 2 3 4 5 6 
#
# 1 57.5755 46.1404 34.3437 0.0000 0.0000 0.0000
# 2 46.1404 162.1321 77.2945 0.0000 0.0000 0.0000
# 3 34.3437 77.2945 144.6420 0.0000 0.0000 0.0000
# 4 0.0000 0.0000 0.0000 0.5743 0.0000 0.0000
# 5 0.0000 0.0000 0.0000 0.0000 14.9157 0.0000
# 6 0.0000 0.0000 0.0000 0.0000 0.0000 32.2394
#
#
#
# Elastic Compliance Matrix: (Units=1/GPa)
#
#
# Indices 1 2 3 4 5 6 
#
# 1 0.023239 -0.005345 -0.002662 0.000000 0.000000 0.000000
# 2 -0.005345 0.009505 -0.003811 0.000000 0.000000 0.000000
# 3 -0.002662 -0.003811 0.009582 0.000000 0.000000 0.000000
# 4 0.000000 0.000000 0.000000 1.741223 0.000000 0.000000
# 5 0.000000 0.000000 0.000000 0.000000 0.067043 0.000000
# 6 0.000000 0.000000 0.000000 0.000000 0.000000 0.031018
#
#
# Mechanical properties :
#
#
# Convention : Reuss Voigt Hill
#
# Bulk Modulus (GPa) = 53.49659 75.54521 64.52090
# Shear Modulus (GPa) = 2.61578 23.31729 12.96654
#
# Velocity S-wave (km/s) = 1.17350 3.50366 2.61273
# Velocity P-wave (km/s) = 5.47722 7.49260 6.56274
#
# Compressibility (1/GPa) = 0.01869278
#
# Stress axis : x y z
#
# Youngs Moduli (GPa) = 43.03036 105.20307 104.36283
#
# Poissons Ratio (x) = 0.56227 0.27780
# Poissons Ratio (y) = 0.22998 0.39768
# Poissons Ratio (z) = 0.11454 0.40088
#
# Static dielectric constant tensor:
#      x y z
#    x 3.132320 0.000000 0.000000 
#    y 0.000000 3.617220 0.000000 
#    z 0.000000 0.000000 3.802430 
# 
# 
# High freq. dielectric constant tensor:
#      x y z
#    x 1.707740 0.000000 0.000000 
#    y 0.000000 1.750140 0.000000 
#    z 0.000000 0.000000 1.738430 
# 
# From -- ./inp_files/58643.got.cif
#   From: 2010.03.12/outbox.cif.g09.slc.cpg/sg65_30_cif.got.tgz:58643.got - 2010.04.10 20:52:16.
