data_PCOD8274693
_publ_section_title
;
Structure prediction by ZEFSAII (Michael W. Deem and Ramdas Pophale) SiO2 
 PCOD8274693
Probable space group: C M M M
;
_chemical_formula_sum "Si O2"
_cell_formula_units_Z 64
_cell_length_a 14.476605
_cell_length_b 30.009798
_cell_length_c 8.382673
_cell_angle_alpha 90.000000
_cell_angle_beta 90.000000
_cell_angle_gamma 90.000000
_cell_volume 3641.768389
_symmetry_space_group_name_H-M "C M M M"
_symmetry_group_IT_number 65
_symmetry_cell_setting 'orthorhombic'
loop_
_space_group_symop_operation_xyz
x,y,z
-x,-y,z
x,-y,-z
-x,y,-z
-x,-y,-z
x,y,-z
-x,y,z
x,-y,z
1/2+x,1/2+y,z
1/2-x,1/2-y,z
1/2+x,1/2-y,-z
1/2-x,1/2+y,-z
1/2-x,1/2-y,-z
1/2+x,1/2+y,-z
1/2-x,1/2+y,z
1/2+x,1/2-y,z
loop_
_atom_site_type_symbol
_atom_site_label
_atom_site_fract_x
_atom_site_fract_y
_atom_site_fract_z
Si Si1 0.500000 0.826180 0.684533
Si Si2 0.000000 0.232466 0.183087
Si Si3 0.105574 0.449808 0.687725
Si Si4 0.687981 0.707976 0.314651
Si Si5 0.314941 0.135153 0.816022
O O1 0.500000 0.841775 0.500000
O O2 0.500000 0.773151 0.693250
O O3 0.587472 0.843723 0.777184
O O4 0.907459 0.204467 0.217224
O O5 0.000000 0.248456 0.000000
O O6 0.119479 0.446346 0.500000
O O7 0.125585 0.500000 0.747007
O O8 0.179124 0.417206 0.772075
O O9 0.000000 0.436300 0.731936
O O10 0.666044 0.714029 0.500000
O O11 0.750000 0.750000 0.254243
O O12 0.738788 0.661019 0.287008
O O13 0.289852 0.141061 0.000000
#
# Coordination Sequence:
#
# PCOD8274693 Si02
#       5
#     8   8  16  16  16
#     4  12  22  34  51  73 106 147 185 217 260 321
#     4  12  24  38  56  79 108 137 178 232 274 308
#     4   9  18  33  53  76 106 144 181 217 263 323
#     4  11  23  38  57  77 105 146 185 218 261 322
#     4  12  23  34  52  80 109 141 181 227 271 312
#
# _framework density 17.573881
#
# number of rings (size 3 to 8) (size 9 to 14) (size 15 to 20)
#    0.000    1.000    3.750    6.000    0.000    1.500 
#    0.000    1.250    0.000    0.000    0.000    0.875 
#    0.000    7.000    0.000    0.000    0.000    0.000 
#
# Total GULP energy -396859.182727 kJ/mol
# GULP energy per Si atom -12401.849460 kJ/mol
# Density = 1.753388 g / cm^3
# Si number density = 17.573881 Si / 1000 Ang^3
#
#
#
# Elastic Constant Matrix: (Units=GPa)
#
#
# Indices 1 2 3 4 5 6 
#
# 1 97.2928 38.7915 19.3038 0.0000 0.0000 0.0000
# 2 38.7915 100.9942 16.8211 0.0000 0.0000 0.0000
# 3 19.3038 16.8211 68.1355 0.0000 0.0000 0.0000
# 4 0.0000 0.0000 0.0000 23.9229 0.0000 0.0000
# 5 0.0000 0.0000 0.0000 0.0000 22.6853 0.0000
# 6 0.0000 0.0000 0.0000 0.0000 0.0000 30.9023
#
#
#
# Elastic Compliance Matrix: (Units=1/GPa)
#
#
# Indices 1 2 3 4 5 6 
#
# 1 0.012521 -0.004399 -0.002461 0.000000 0.000000 0.000000
# 2 -0.004399 0.011872 -0.001685 0.000000 0.000000 0.000000
# 3 -0.002461 -0.001685 0.015790 0.000000 0.000000 0.000000
# 4 0.000000 0.000000 0.000000 0.041801 0.000000 0.000000
# 5 0.000000 0.000000 0.000000 0.000000 0.044081 0.000000
# 6 0.000000 0.000000 0.000000 0.000000 0.000000 0.032360
#
#
# Mechanical properties :
#
#
# Convention : Reuss Voigt Hill
#
# Bulk Modulus (GPa) = 43.30433 46.25059 44.77746
# Shear Modulus (GPa) = 27.29079 28.26916 27.77997
#
# Velocity S-wave (km/s) = 3.94498 4.01507 3.98018
# Velocity P-wave (km/s) = 6.74131 6.91877 6.83062
#
# Compressibility (1/GPa) = 0.02309238
#
# Stress axis : x y z
#
# Youngs Moduli (GPa) = 79.86856 84.23302 63.33195
#
# Poissons Ratio (x) = 0.37056 0.15587
# Poissons Ratio (y) = 0.35136 0.10669
# Poissons Ratio (z) = 0.19657 0.14189
#
# Static dielectric constant tensor:
#      x y z
#    x 3.098620 0.000000 0.000000 
#    y 0.000000 3.457960 0.000000 
#    z 0.000000 0.000000 3.206410 
# 
# 
# High freq. dielectric constant tensor:
#      x y z
#    x 1.650630 0.000000 0.000000 
#    y 0.000000 1.673290 0.000000 
#    z 0.000000 0.000000 1.686860 
# 
# From -- ./inp_files/4955.got.cif
#   From: 2010.03.12/outbox.cif.g09.slc.cpg/sg65_3_cif.got.tgz:4955.got - 2010.04.10 20:52:16.
