data_PCOD8274767
_publ_section_title
;
Structure prediction by ZEFSAII (Michael W. Deem and Ramdas Pophale) SiO2 
 PCOD8274767
Probable space group: C M M M
;
_chemical_formula_sum "Si O2"
_cell_formula_units_Z 88
_cell_length_a 14.229338
_cell_length_b 25.880055
_cell_length_c 14.541510
_cell_angle_alpha 90.000000
_cell_angle_beta 90.000000
_cell_angle_gamma 90.000000
_cell_volume 5354.999034
_symmetry_space_group_name_H-M "C M M M"
_symmetry_group_IT_number 65
_symmetry_cell_setting 'orthorhombic'
loop_
_space_group_symop_operation_xyz
x,y,z
-x,-y,z
x,-y,-z
-x,y,-z
-x,-y,-z
x,y,-z
-x,y,z
x,-y,z
1/2+x,1/2+y,z
1/2-x,1/2-y,z
1/2+x,1/2-y,-z
1/2-x,1/2+y,-z
1/2-x,1/2-y,-z
1/2+x,1/2+y,-z
1/2-x,1/2+y,z
1/2+x,1/2-y,z
loop_
_atom_site_type_symbol
_atom_site_label
_atom_site_fract_x
_atom_site_fract_y
_atom_site_fract_z
Si Si1 0.780945 0.882527 0.840562
Si Si2 0.397867 0.173747 0.893211
Si Si3 0.252795 0.561017 0.649898
Si Si4 0.610468 0.712429 0.894375
Si Si5 0.108866 0.061140 0.000000
Si Si6 0.897575 0.938977 0.500000
Si Si7 0.394404 0.938627 0.500000
O O1 0.675753 0.871543 0.875709
O O2 0.764991 0.909554 0.744253
O O3 0.836418 0.828644 0.829807
O O4 0.838176 0.919223 0.909309
O O5 0.500000 0.158885 0.849740
O O6 0.363417 0.230194 0.857373
O O7 0.413105 0.182215 0.000000
O O8 0.249249 0.500000 0.668803
O O9 0.343048 0.577916 0.591137
O O10 0.160173 0.579034 0.592770
O O11 0.500000 0.703128 0.886895
O O12 0.644538 0.703091 0.000000
O O13 0.000000 0.080380 0.000000
O O14 0.112871 0.000000 0.000000
O O15 0.000000 0.912533 0.500000
O O16 0.906212 0.000000 0.500000
O O17 0.500000 0.915351 0.500000
O O18 0.396669 0.000000 0.500000
#
# Coordination Sequence:
#
# PCOD8274767 Si02
#       7
#    16  16  16  16   8   8   8
#     4  12  19  30  50  71  99 135 165 197 238 288
#     4   9  18  32  49  70  94 123 164 213 254 282
#     4   9  19  31  46  73  99 122 159 199 237 287
#     4   9  17  30  48  70  95 125 168 213 247 278
#     4  11  24  36  44  63 101 145 178 196 222 277
#     4   8  15  31  50  65  87 118 152 198 248 280
#     4   8  15  33  56  71  89 118 156 210 262 294
#
# _framework density 16.433243000000001
#
# number of rings (size 3 to 8) (size 9 to 14) (size 15 to 20)
#    0.000    2.455    1.818    3.818    0.000    3.636 
#    0.000    1.818    0.000    2.182    0.000   10.182 
#    0.000   17.455    0.000    0.000    0.000    0.000 
#
# Total GULP energy -545282.103081 kJ/mol
# GULP energy per Si atom -12392.775070 kJ/mol
# Density = 1.639584 g / cm^3
# Si number density = 16.433243 Si / 1000 Ang^3
#
#
#
# Elastic Constant Matrix: (Units=GPa)
#
#
# Indices 1 2 3 4 5 6 
#
# 1 132.6633 50.3808 58.0625 0.0000 0.0000 0.0000
# 2 50.3808 64.5923 42.7101 0.0000 0.0000 0.0000
# 3 58.0625 42.7101 100.3400 0.0000 0.0000 0.0000
# 4 0.0000 0.0000 0.0000 12.3183 0.0000 0.0000
# 5 0.0000 0.0000 0.0000 0.0000 10.8128 0.0000
# 6 0.0000 0.0000 0.0000 0.0000 0.0000 21.1724
#
#
#
# Elastic Compliance Matrix: (Units=1/GPa)
#
#
# Indices 1 2 3 4 5 6 
#
# 1 0.011783 -0.006516 -0.004045 0.000000 0.000000 0.000000
# 2 -0.006516 0.025149 -0.006934 0.000000 0.000000 0.000000
# 3 -0.004045 -0.006934 0.015258 0.000000 0.000000 0.000000
# 4 0.000000 0.000000 0.000000 0.081180 0.000000 0.000000
# 5 0.000000 0.000000 0.000000 0.000000 0.092483 0.000000
# 6 0.000000 0.000000 0.000000 0.000000 0.000000 0.047231
#
#
# Mechanical properties :
#
#
# Convention : Reuss Voigt Hill
#
# Bulk Modulus (GPa) = 58.13849 66.65582 62.39715
# Shear Modulus (GPa) = 15.93333 18.62350 17.27842
#
# Velocity S-wave (km/s) = 3.11719 3.37008 3.24610
# Velocity P-wave (km/s) = 6.95781 7.46946 7.21817
#
# Compressibility (1/GPa) = 0.01720031
#
# Stress axis : x y z
#
# Youngs Moduli (GPa) = 84.87149 39.76281 65.53846
#
# Poissons Ratio (x) = 0.25908 0.26508
# Poissons Ratio (y) = 0.55300 0.45447
# Poissons Ratio (z) = 0.34327 0.27573
#
# Static dielectric constant tensor:
#      x y z
#    x 3.653440 0.000000 0.000000 
#    y 0.000000 2.945320 0.000000 
#    z 0.000000 0.000000 2.854290 
# 
# 
# High freq. dielectric constant tensor:
#      x y z
#    x 1.654420 0.000000 0.000000 
#    y 0.000000 1.610310 0.000000 
#    z 0.000000 0.000000 1.599070 
# 
# From -- ./inp_files/40964.got.cif
#   From: 2010.03.12/outbox.cif.g09.slc.cpg/sg65_21_cif.got.tgz:40964.got - 2010.04.10 20:52:16.
