data_PCOD8274449
_publ_section_title
;
Structure prediction by ZEFSAII (Michael W. Deem and Ramdas Pophale) SiO2 
 PCOD8274449
Probable space group: C M M M
;
_chemical_formula_sum "Si O2"
_cell_formula_units_Z 104
_cell_length_a 13.639328
_cell_length_b 21.987071
_cell_length_c 18.675464
_cell_angle_alpha 90.000000
_cell_angle_beta 90.000000
_cell_angle_gamma 90.000000
_cell_volume 5600.563854
_symmetry_space_group_name_H-M "C M M M"
_symmetry_group_IT_number 65
_symmetry_cell_setting 'orthorhombic'
loop_
_space_group_symop_operation_xyz
x,y,z
-x,-y,z
x,-y,-z
-x,y,-z
-x,-y,-z
x,y,-z
-x,y,z
x,-y,z
1/2+x,1/2+y,z
1/2-x,1/2-y,z
1/2+x,1/2-y,-z
1/2-x,1/2+y,-z
1/2-x,1/2-y,-z
1/2+x,1/2+y,-z
1/2-x,1/2+y,z
1/2+x,1/2-y,z
loop_
_atom_site_type_symbol
_atom_site_label
_atom_site_fract_x
_atom_site_fract_y
_atom_site_fract_z
Si Si1 0.695185 0.342595 0.915383
Si Si2 0.885388 0.000000 0.421712
Si Si3 0.111327 0.641111 0.417184
Si Si4 0.392151 0.215287 0.915195
Si Si5 0.612557 0.717373 0.419848
Si Si6 0.385595 0.571531 0.802092
Si Si7 0.295197 0.389358 0.659643
O O1 0.636465 0.282857 0.889299
O O2 0.809573 0.333686 0.892034
O O3 0.647617 0.401030 0.877914
O O4 0.685676 0.352971 0.000000
O O5 0.857885 0.939947 0.379717
O O6 0.835171 0.000000 0.500000
O O7 0.000000 0.000000 0.430293
O O8 0.135998 0.626189 0.500000
O O9 0.127207 0.712249 0.401893
O O10 0.181080 0.603254 0.363174
O O11 0.000000 0.622057 0.400022
O O12 0.500000 0.197696 0.884109
O O13 0.395046 0.216998 0.000000
O O14 0.651426 0.703372 0.500000
O O15 0.500000 0.698607 0.414249
O O16 0.673011 0.677944 0.363764
O O17 0.500000 0.585414 0.786422
O O18 0.366102 0.500000 0.803891
O O19 0.314797 0.603024 0.743683
#
# Coordination Sequence:
#
# PCOD8274449 Si02
#       7
#    16   8  16  16  16  16  16
#     4   9  18  34  58  86 113 144 185 224 266 326
#     4  11  22  34  53  79 100 130 181 226 261 313
#     4   9  19  36  57  82 110 139 177 226 273 321
#     4   8  14  29  56  88 118 141 167 216 273 321
#     4   9  17  31  54  82 108 134 169 216 268 322
#     4  11  24  40  55  74 107 146 181 227 283 325
#     4  12  21  35  54  74 108 146 177 218 272 326
#
# _framework density 18.569559000000002
#
# number of rings (size 3 to 8) (size 9 to 14) (size 15 to 20)
#    0.000    2.231    0.769    5.538    0.000    3.692 
#    5.538    1.923    0.000    2.769    0.000    2.154 
#    0.000    0.000    0.000    0.000    0.000    0.000 
#
# Total GULP energy -644627.992039 kJ/mol
# GULP energy per Si atom -12396.692155 kJ/mol
# Density = 1.852729 g / cm^3
# Si number density = 18.569559 Si / 1000 Ang^3
#
#
#
# Elastic Constant Matrix: (Units=GPa)
#
#
# Indices 1 2 3 4 5 6 
#
# 1 125.0995 44.9158 42.9092 0.0000 0.0000 0.0000
# 2 44.9158 38.5342 27.8486 0.0000 0.0000 0.0000
# 3 42.9092 27.8486 76.4973 0.0000 0.0000 0.0000
# 4 0.0000 0.0000 0.0000 57.5418 0.0000 0.0000
# 5 0.0000 0.0000 0.0000 0.0000 24.0692 0.0000
# 6 0.0000 0.0000 0.0000 0.0000 0.0000 21.1743
#
#
#
# Elastic Compliance Matrix: (Units=1/GPa)
#
#
# Indices 1 2 3 4 5 6 
#
# 1 0.014123 -0.014570 -0.002618 0.000000 0.000000 0.000000
# 2 -0.014570 0.050247 -0.010120 0.000000 0.000000 0.000000
# 3 -0.002618 -0.010120 0.018225 0.000000 0.000000 0.000000
# 4 0.000000 0.000000 0.000000 0.017379 0.000000 0.000000
# 5 0.000000 0.000000 0.000000 0.000000 0.041547 0.000000
# 6 0.000000 0.000000 0.000000 0.000000 0.000000 0.047227
#
#
# Mechanical properties :
#
#
# Convention : Reuss Voigt Hill
#
# Bulk Modulus (GPa) = 35.73962 52.38648 44.06305
# Shear Modulus (GPa) = 19.78724 28.85423 24.32073
#
# Velocity S-wave (km/s) = 3.26785 3.94616 3.62292
# Velocity P-wave (km/s) = 5.79022 7.00251 6.42502
#
# Compressibility (1/GPa) = 0.02798016
#
# Stress axis : x y z
#
# Youngs Moduli (GPa) = 70.80854 19.90164 54.87040
#
# Poissons Ratio (x) = 0.28996 0.14363
# Poissons Ratio (y) = 1.03166 0.55528
# Poissons Ratio (z) = 0.18535 0.20140
#
# Static dielectric constant tensor:
#      x y z
#    x 3.848660 0.000000 0.000000 
#    y 0.000000 3.398670 0.000000 
#    z 0.000000 0.000000 3.181700 
# 
# 
# High freq. dielectric constant tensor:
#      x y z
#    x 1.733840 0.000000 0.000000 
#    y 0.000000 1.701200 0.000000 
#    z 0.000000 0.000000 1.692660 
# 
# From -- ./inp_files/53345.got.cif
#   From: 2010.03.12/outbox.cif.g09.slc.cpg/sg65_27_cif.got.tgz:53345.got - 2010.04.10 20:52:16.
