data_PCOD8274942
_publ_section_title
;
Structure prediction by ZEFSAII (Michael W. Deem and Ramdas Pophale) SiO2 
 PCOD8274942
Probable space group: C M M M
;
_chemical_formula_sum "Si O2"
_cell_formula_units_Z 104
_cell_length_a 9.586494
_cell_length_b 30.688594
_cell_length_c 22.839745
_cell_angle_alpha 90.000000
_cell_angle_beta 90.000000
_cell_angle_gamma 90.000000
_cell_volume 6719.362128
_symmetry_space_group_name_H-M "C M M M"
_symmetry_group_IT_number 65
_symmetry_cell_setting 'orthorhombic'
loop_
_space_group_symop_operation_xyz
x,y,z
-x,-y,z
x,-y,-z
-x,y,-z
-x,-y,-z
x,y,-z
-x,y,z
x,-y,z
1/2+x,1/2+y,z
1/2-x,1/2-y,z
1/2+x,1/2-y,-z
1/2-x,1/2+y,-z
1/2-x,1/2-y,-z
1/2+x,1/2+y,-z
1/2-x,1/2+y,z
1/2+x,1/2-y,z
loop_
_atom_site_type_symbol
_atom_site_label
_atom_site_fract_x
_atom_site_fract_y
_atom_site_fract_z
Si Si1 0.334466 0.884131 0.210704
Si Si2 0.837393 0.449281 0.110415
Si Si3 0.845167 0.711626 0.795768
Si Si4 0.154195 0.287843 0.656686
Si Si5 0.666656 0.883970 0.659242
Si Si6 0.658227 0.448370 0.000000
Si Si7 0.334024 0.951258 0.434774
O O1 0.500000 0.881392 0.214696
O O2 0.286596 0.921874 0.166542
O O3 0.282096 0.836337 0.188982
O O4 0.275896 0.895202 0.275611
O O5 0.811555 0.500000 0.124347
O O6 0.000000 0.440907 0.095474
O O7 0.743273 0.432475 0.056766
O O8 0.750000 0.750000 0.822983
O O9 0.852771 0.716112 0.726276
O O10 0.000000 0.717035 0.822625
O O11 0.250000 0.250000 0.629282
O O12 0.214867 0.335474 0.640132
O O13 0.000000 0.281780 0.630021
O O14 0.500000 0.885684 0.659747
O O15 0.730489 0.918248 0.612963
O O16 0.653341 0.500000 0.000000
O O17 0.500000 0.429443 0.000000
O O18 0.283504 0.937951 0.500000
O O19 0.500000 0.949737 0.432317
O O20 0.282031 0.000000 0.419718
#
# Coordination Sequence:
#
# PCOD8274942 Si02
#       7
#    16  16  16  16  16   8  16
#     4   8  14  23  35  54  78 100 123 156 197 233
#     4   9  16  26  41  60  80 102 130 160 187 222
#     4   8  13  22  35  51  73  99 126 155 187 224
#     4   8  13  21  34  51  71  97 126 154 186 226
#     4   8  13  21  33  50  74 102 128 156 194 235
#     4   9  17  29  43  57  76 105 136 161 188 221
#     4   8  13  20  30  46  70 101 134 163 191 228
#
# _framework density 15.47766
#
# number of rings (size 3 to 8) (size 9 to 14) (size 15 to 20)
#    0.000    3.769    0.000    2.538    0.000    1.538 
#    0.000    3.846    0.000    1.385    0.000    0.538 
#    0.000    0.615    0.000    1.692    0.000    3.692 
#
# Total GULP energy -644278.413688 kJ/mol
# GULP energy per Si atom -12389.969494 kJ/mol
# Density = 1.544243 g / cm^3
# Si number density = 15.477660 Si / 1000 Ang^3
#
#
#
# Elastic Constant Matrix: (Units=GPa)
#
#
# Indices 1 2 3 4 5 6 
#
# 1 39.2761 35.0078 28.7003 0.0000 0.0000 0.0000
# 2 35.0078 120.9678 72.0297 0.0000 0.0000 0.0000
# 3 28.7003 72.0297 88.9372 0.0000 0.0000 0.0000
# 4 0.0000 0.0000 0.0000 4.9515 0.0000 0.0000
# 5 0.0000 0.0000 0.0000 0.0000 6.0222 0.0000
# 6 0.0000 0.0000 0.0000 0.0000 0.0000 17.5827
#
#
#
# Elastic Compliance Matrix: (Units=1/GPa)
#
#
# Indices 1 2 3 4 5 6 
#
# 1 0.035965 -0.006755 -0.006135 0.000000 0.000000 0.000000
# 2 -0.006755 0.017235 -0.011779 0.000000 0.000000 0.000000
# 3 -0.006135 -0.011779 0.022763 0.000000 0.000000 0.000000
# 4 0.000000 0.000000 0.000000 0.201959 0.000000 0.000000
# 5 0.000000 0.000000 0.000000 0.000000 0.166053 0.000000
# 6 0.000000 0.000000 0.000000 0.000000 0.000000 0.056874
#
#
# Mechanical properties :
#
#
# Convention : Reuss Voigt Hill
#
# Bulk Modulus (GPa) = 37.55807 57.85074 47.70441
# Shear Modulus (GPa) = 8.94356 13.27416 11.10886
#
# Velocity S-wave (km/s) = 2.40643 2.93172 2.68196
# Velocity P-wave (km/s) = 5.66038 6.99414 6.36231
#
# Compressibility (1/GPa) = 0.02662544
#
# Stress axis : x y z
#
# Youngs Moduli (GPa) = 27.80497 58.02077 43.93031
#
# Poissons Ratio (x) = 0.39193 0.26952
# Poissons Ratio (y) = 0.18782 0.51745
# Poissons Ratio (z) = 0.17059 0.68342
#
# Static dielectric constant tensor:
#      x y z
#    x 2.752680 0.000000 0.000000 
#    y 0.000000 3.213220 0.000000 
#    z 0.000000 0.000000 2.903240 
# 
# 
# High freq. dielectric constant tensor:
#      x y z
#    x 1.546350 0.000000 0.000000 
#    y 0.000000 1.596200 0.000000 
#    z 0.000000 0.000000 1.561160 
# 
# From -- ./inp_files/68483.got.cif
#   From: 2010.03.12/outbox.cif.g09.slc.cpg/sg65_35_cif.got.tgz:68483.got - 2010.04.10 20:52:16.
