data_PCOD8274182
_publ_section_title
;
Structure prediction by ZEFSAII (Michael W. Deem and Ramdas Pophale) SiO2 
 PCOD8274182
Probable space group: C M M M
;
_chemical_formula_sum "Si O2"
_cell_formula_units_Z 72
_cell_length_a 18.980666
_cell_length_b 27.600965
_cell_length_c 8.895258
_cell_angle_alpha 90.000000
_cell_angle_beta 90.000000
_cell_angle_gamma 90.000000
_cell_volume 4660.089550
_symmetry_space_group_name_H-M "C M M M"
_symmetry_group_IT_number 65
_symmetry_cell_setting 'orthorhombic'
loop_
_space_group_symop_operation_xyz
x,y,z
-x,-y,z
x,-y,-z
-x,y,-z
-x,-y,-z
x,y,-z
-x,y,z
x,-y,z
1/2+x,1/2+y,z
1/2-x,1/2-y,z
1/2+x,1/2-y,-z
1/2-x,1/2+y,-z
1/2-x,1/2-y,-z
1/2+x,1/2+y,-z
1/2-x,1/2+y,z
1/2+x,1/2-y,z
loop_
_atom_site_type_symbol
_atom_site_label
_atom_site_fract_x
_atom_site_fract_y
_atom_site_fract_z
Si Si1 0.717497 0.325106 0.675939
Si Si2 0.000000 0.265410 0.177597
Si Si3 0.858502 0.727705 0.324652
Si Si4 0.500000 0.656965 0.177748
Si Si5 0.367525 0.403491 0.178119
Si Si6 0.581759 0.500000 0.321510
O O1 0.706359 0.334531 0.500000
O O2 0.798198 0.311495 0.710793
O O3 0.667364 0.280830 0.730315
O O4 0.701570 0.374281 0.767928
O O5 0.071330 0.290025 0.238599
O O6 0.000000 0.210859 0.243328
O O7 0.000000 0.268557 0.000000
O O8 0.874863 0.729504 0.500000
O O9 0.567690 0.628677 0.236719
O O10 0.500000 0.659315 0.000000
O O11 0.374779 0.454797 0.258284
O O12 0.366177 0.411246 0.000000
O O13 0.500000 0.500000 0.264984
O O14 0.584369 0.500000 0.500000
#
# Coordination Sequence:
#
# PCOD8274182 Si02
#       6
#    16   8  16   8  16   8
#     4   9  18  32  47  65  90 121 158 194 229 276
#     4  11  19  29  44  68  95 121 158 196 232 277
#     4   9  18  31  46  65  91 123 156 191 232 275
#     4   9  18  28  40  63  92 122 152 188 233 274
#     4  11  20  33  49  65  91 123 157 196 239 279
#     4  11  23  35  47  67  91 120 161 200 233 271
#
# _framework density 15.450347000000001
#
# number of rings (size 3 to 8) (size 9 to 14) (size 15 to 20)
#    0.000    2.111    3.333    2.667    0.000    1.333 
#    0.000    2.222    0.000    0.000    0.000    0.000 
#    0.000    0.889    0.000    9.333    0.000    4.444 
#
# Total GULP energy -446363.063401 kJ/mol
# GULP energy per Si atom -12398.973983 kJ/mol
# Density = 1.541518 g / cm^3
# Si number density = 15.450347 Si / 1000 Ang^3
#
#
#
# Elastic Constant Matrix: (Units=GPa)
#
#
# Indices 1 2 3 4 5 6 
#
# 1 106.7082 40.1272 43.8413 0.0000 0.0000 0.0000
# 2 40.1272 85.9914 35.7439 0.0000 0.0000 0.0000
# 3 43.8413 35.7439 63.5069 0.0000 0.0000 0.0000
# 4 0.0000 0.0000 0.0000 22.7436 0.0000 0.0000
# 5 0.0000 0.0000 0.0000 0.0000 24.0890 0.0000
# 6 0.0000 0.0000 0.0000 0.0000 0.0000 21.6574
#
#
#
# Elastic Compliance Matrix: (Units=1/GPa)
#
#
# Indices 1 2 3 4 5 6 
#
# 1 0.013733 -0.003221 -0.007667 0.000000 0.000000 0.000000
# 2 -0.003221 0.015936 -0.006746 0.000000 0.000000 0.000000
# 3 -0.007667 -0.006746 0.024836 0.000000 0.000000 0.000000
# 4 0.000000 0.000000 0.000000 0.043968 0.000000 0.000000
# 5 0.000000 0.000000 0.000000 0.000000 0.041513 0.000000
# 6 0.000000 0.000000 0.000000 0.000000 0.000000 0.046174
#
#
# Mechanical properties :
#
#
# Convention : Reuss Voigt Hill
#
# Bulk Modulus (GPa) = 51.98414 55.07014 53.52714
# Shear Modulus (GPa) = 21.94517 22.79760 22.37139
#
# Velocity S-wave (km/s) = 3.77287 3.84544 3.80933
# Velocity P-wave (km/s) = 7.25936 7.44562 7.35308
#
# Compressibility (1/GPa) = 0.01923664
#
# Stress axis : x y z
#
# Youngs Moduli (GPa) = 72.81837 62.75011 40.26408
#
# Poissons Ratio (x) = 0.20213 0.30871
# Poissons Ratio (y) = 0.23457 0.27161
# Poissons Ratio (z) = 0.55832 0.42329
#
# Static dielectric constant tensor:
#      x y z
#    x 2.948680 0.000000 0.000000 
#    y 0.000000 2.791000 0.000000 
#    z 0.000000 0.000000 2.811200 
# 
# 
# High freq. dielectric constant tensor:
#      x y z
#    x 1.581930 0.000000 0.000000 
#    y 0.000000 1.562000 0.000000 
#    z 0.000000 0.000000 1.593310 
# 
# From -- ./inp_files/9538.got.cif
#   From: 2010.03.12/outbox.cif.g09.slc.cpg/sg65_5_cif.got.tgz:9538.got - 2010.04.10 20:52:16.
