data_PCOD8274178
_publ_section_title
;
Structure prediction by ZEFSAII (Michael W. Deem and Ramdas Pophale) SiO2 
 PCOD8274178
Probable space group: C M M M
;
_chemical_formula_sum "Si O2"
_cell_formula_units_Z 72
_cell_length_a 19.551776
_cell_length_b 27.525116
_cell_length_c 8.934590
_cell_angle_alpha 90.000000
_cell_angle_beta 90.000000
_cell_angle_gamma 90.000000
_cell_volume 4808.282755
_symmetry_space_group_name_H-M "C M M M"
_symmetry_group_IT_number 65
_symmetry_cell_setting 'orthorhombic'
loop_
_space_group_symop_operation_xyz
x,y,z
-x,-y,z
x,-y,-z
-x,y,-z
-x,-y,-z
x,y,-z
-x,y,z
x,-y,z
1/2+x,1/2+y,z
1/2-x,1/2-y,z
1/2+x,1/2-y,-z
1/2-x,1/2+y,-z
1/2-x,1/2-y,-z
1/2+x,1/2+y,-z
1/2-x,1/2+y,z
1/2+x,1/2-y,z
loop_
_atom_site_type_symbol
_atom_site_label
_atom_site_fract_x
_atom_site_fract_y
_atom_site_fract_z
Si Si1 0.278735 0.674422 0.676684
Si Si2 0.000000 0.265542 0.666551
Si Si3 0.852855 0.728524 0.677694
Si Si4 0.627404 0.396860 0.177308
Si Si5 0.577262 0.500000 0.177178
Si Si6 0.500000 0.650732 0.331962
O O1 0.287478 0.667192 0.500000
O O2 0.199504 0.685258 0.719475
O O3 0.324105 0.719780 0.735372
O O4 0.301689 0.625173 0.759925
O O5 0.928789 0.282404 0.746868
O O6 0.000000 0.208004 0.659511
O O7 0.000000 0.287781 0.500000
O O8 0.859044 0.733384 0.500000
O O9 0.618890 0.452606 0.231214
O O10 0.566240 0.365690 0.243375
O O11 0.626247 0.392955 0.000000
O O12 0.500000 0.500000 0.244687
O O13 0.570775 0.500000 0.000000
O O14 0.500000 0.628871 0.500000
#
# Coordination Sequence:
#
# PCOD8274178 Si02
#       6
#    16   8  16  16   8   8
#     4   9  16  28  43  61  84 111 140 173 209 244
#     4   9  14  23  42  64  81 109 147 172 193 240
#     4   8  14  24  41  62  85 111 141 171 203 245
#     4  11  20  31  45  59  81 112 146 178 211 249
#     4   9  18  32  44  56  80 113 142 171 209 254
#     4  11  19  28  44  63  84 110 143 179 210 244
#
# _framework density 14.974161
#
# number of rings (size 3 to 8) (size 9 to 14) (size 15 to 20)
#    0.000    2.556    3.333    2.333    0.000    0.000 
#    0.000    5.000    0.000    0.000    0.000    0.000 
#    0.000    0.889    0.000   11.111    0.000    0.889 
#
# Total GULP energy -446049.608932 kJ/mol
# GULP energy per Si atom -12390.266915 kJ/mol
# Density = 1.494008 g / cm^3
# Si number density = 14.974161 Si / 1000 Ang^3
#
#
#
# Elastic Constant Matrix: (Units=GPa)
#
#
# Indices 1 2 3 4 5 6 
#
# 1 141.5147 55.4626 22.9721 0.0000 0.0000 0.0000
# 2 55.4626 81.6270 23.0538 0.0000 0.0000 0.0000
# 3 22.9721 23.0538 36.9132 0.0000 0.0000 0.0000
# 4 0.0000 0.0000 0.0000 14.7406 0.0000 0.0000
# 5 0.0000 0.0000 0.0000 0.0000 14.8544 0.0000
# 6 0.0000 0.0000 0.0000 0.0000 0.0000 -3.8479
#
#
#
# Elastic Compliance Matrix: (Units=1/GPa)
#
#
# Indices 1 2 3 4 5 6 
#
# 1 0.009797 -0.005992 -0.002355 0.000000 0.000000 0.000000
# 2 -0.005992 0.018539 -0.007850 0.000000 0.000000 0.000000
# 3 -0.002355 -0.007850 0.033459 0.000000 0.000000 0.000000
# 4 0.000000 0.000000 0.000000 0.067840 0.000000 0.000000
# 5 0.000000 0.000000 0.000000 0.000000 0.067320 0.000000
# 6 0.000000 0.000000 0.000000 0.000000 0.000000 -0.259879
#
#
# Mechanical properties :
#
#
# Convention : Reuss Voigt Hill
#
# Bulk Modulus (GPa) = 34.01110 51.44800 42.72955
# Shear Modulus (GPa) = -241.17377 15.72049 -112.72664
#
# Velocity S-wave (km/s) = -12.70471 3.24364 -8.68586
# Velocity P-wave (km/s) = 13.87265 6.96137 8.48497
#
# Compressibility (1/GPa) = 0.02940217
#
# Stress axis : x y z
#
# Youngs Moduli (GPa) = 102.07319 53.94081 29.88776
#
# Poissons Ratio (x) = 0.32319 0.07038
# Poissons Ratio (y) = 0.61158 0.23461
# Poissons Ratio (z) = 0.24037 0.42341
#
# Static dielectric constant tensor:
#      x y z
#    x 3.311050 0.000000 0.000000 
#    y 0.000000 2.819220 0.000000 
#    z 0.000000 0.000000 2.634060 
# 
# 
# High freq. dielectric constant tensor:
#      x y z
#    x 1.573220 0.000000 0.000000 
#    y 0.000000 1.540090 0.000000 
#    z 0.000000 0.000000 1.543420 
# 
# From -- ./inp_files/12045.got.cif
#   From: 2010.03.12/outbox.cif.g09.slc.cpg/sg65_7_cif.got.tgz:12045.got - 2010.04.10 20:52:16.
