data_PCOD8274575
_publ_section_title
;
Structure prediction by ZEFSAII (Michael W. Deem and Ramdas Pophale) SiO2 
 PCOD8274575
Probable space group: C M M M
;
_chemical_formula_sum "Si O2"
_cell_formula_units_Z 64
_cell_length_a 26.020073
_cell_length_b 14.904413
_cell_length_c 8.539578
_cell_angle_alpha 90.000000
_cell_angle_beta 90.000000
_cell_angle_gamma 90.000000
_cell_volume 3311.767170
_symmetry_space_group_name_H-M "C M M M"
_symmetry_group_IT_number 65
_symmetry_cell_setting 'orthorhombic'
loop_
_space_group_symop_operation_xyz
x,y,z
-x,-y,z
x,-y,-z
-x,y,-z
-x,-y,-z
x,y,-z
-x,y,z
x,-y,z
1/2+x,1/2+y,z
1/2-x,1/2-y,z
1/2+x,1/2-y,-z
1/2-x,1/2+y,-z
1/2-x,1/2-y,-z
1/2+x,1/2+y,-z
1/2-x,1/2+y,z
1/2+x,1/2-y,z
loop_
_atom_site_type_symbol
_atom_site_label
_atom_site_fract_x
_atom_site_fract_y
_atom_site_fract_z
Si Si1 0.330784 0.500000 0.317086
Si Si2 0.056639 0.500000 0.186981
Si Si3 0.606923 0.664147 0.814351
Si Si4 0.363971 0.858173 0.185274
Si Si5 0.719191 0.000000 0.814548
Si Si6 0.500000 0.397373 0.314670
O O1 0.342745 0.500000 0.500000
O O2 0.355633 0.586817 0.241120
O O3 0.270591 0.500000 0.285179
O O4 0.086443 0.587950 0.248145
O O5 0.000000 0.500000 0.261068
O O6 0.054314 0.500000 0.000000
O O7 0.632408 0.756730 0.751009
O O8 0.549958 0.653772 0.746917
O O9 0.602880 0.663351 0.000000
O O10 0.312117 0.910348 0.235985
O O11 0.365510 0.857783 0.000000
O O12 0.731087 0.000000 0.000000
O O13 0.500000 0.500000 0.252706
O O14 0.500000 0.395945 0.500000
#
# Coordination Sequence:
#
# PCOD8274575 Si02
#       6
#     8   8  16  16   8   8
#     4  12  25  40  56  80 113 151 193 233 285 342
#     4   8  13  24  46  78 117 146 169 217 284 333
#     4  11  22  37  60  88 113 145 192 237 279 330
#     4   8  17  32  54  86 115 142 181 233 282 328
#     4   9  18  39  63  84 114 147 184 234 288 332
#     4  11  23  39  57  80 118 157 187 228 282 336
#
# _framework density 19.325030000000002
#
# number of rings (size 3 to 8) (size 9 to 14) (size 15 to 20)
#    0.000    2.250    1.250    3.750    1.750    1.500 
#    0.000    7.500    0.000    0.000    0.000    1.750 
#    0.000    0.000    0.000    0.000    0.000    0.000 
#
# Total GULP energy -396709.280413 kJ/mol
# GULP energy per Si atom -12397.165013 kJ/mol
# Density = 1.928105 g / cm^3
# Si number density = 19.325030 Si / 1000 Ang^3
#
#
#
# Elastic Constant Matrix: (Units=GPa)
#
#
# Indices 1 2 3 4 5 6 
#
# 1 147.6959 74.6408 17.5201 0.0000 0.0000 0.0000
# 2 74.6408 182.4432 24.9581 0.0000 0.0000 0.0000
# 3 17.5201 24.9581 43.3629 0.0000 0.0000 0.0000
# 4 0.0000 0.0000 0.0000 -3.5355 0.0000 0.0000
# 5 0.0000 0.0000 0.0000 0.0000 -3.9287 0.0000
# 6 0.0000 0.0000 0.0000 0.0000 0.0000 47.4734
#
#
#
# Elastic Compliance Matrix: (Units=1/GPa)
#
#
# Indices 1 2 3 4 5 6 
#
# 1 0.008634 -0.003316 -0.001580 0.000000 0.000000 0.000000
# 2 -0.003316 0.007223 -0.002818 0.000000 0.000000 0.000000
# 3 -0.001580 -0.002818 0.025321 0.000000 0.000000 0.000000
# 4 0.000000 0.000000 0.000000 -0.282843 0.000000 0.000000
# 5 0.000000 0.000000 0.000000 0.000000 -0.254540 0.000000
# 6 0.000000 0.000000 0.000000 0.000000 0.000000 0.021064
#
#
# Mechanical properties :
#
#
# Convention : Reuss Voigt Hill
#
# Bulk Modulus (GPa) = 38.83292 67.52667 53.17979
# Shear Modulus (GPa) = -11.08330 25.09404 7.00537
#
# Velocity S-wave (km/s) = -2.39743 3.60742 1.90602
# Velocity P-wave (km/s) = 3.53196 7.23669 5.69405
#
# Compressibility (1/GPa) = 0.02575135
#
# Stress axis : x y z
#
# Youngs Moduli (GPa) = 115.82168 138.44038 39.49262
#
# Poissons Ratio (x) = 0.45910 0.06239
# Poissons Ratio (y) = 0.38409 0.11128
# Poissons Ratio (z) = 0.18297 0.39007
#
# Static dielectric constant tensor:
#      x y z
#    x 3.646430 0.000000 0.000000 
#    y 0.000000 4.121830 0.000000 
#    z 0.000000 0.000000 3.181460 
# 
# 
# High freq. dielectric constant tensor:
#      x y z
#    x 1.760810 0.000000 0.000000 
#    y 0.000000 1.764190 0.000000 
#    z 0.000000 0.000000 1.718340 
# 
# From -- ./inp_files/13421.got.cif
#   From: 2010.03.12/outbox.cif.g09.slc.cpg/sg65_7_cif.got.tgz:13421.got - 2010.04.10 20:52:16.
