data_PCOD8274332
_publ_section_title
;
Structure prediction by ZEFSAII (Michael W. Deem and Ramdas Pophale) SiO2 
 PCOD8274332
Probable space group: C M M M
;
_chemical_formula_sum "Si O2"
_cell_formula_units_Z 104
_cell_length_a 28.814460
_cell_length_b 9.308001
_cell_length_c 22.736352
_cell_angle_alpha 90.000000
_cell_angle_beta 90.000000
_cell_angle_gamma 90.000000
_cell_volume 6098.003800
_symmetry_space_group_name_H-M "C M M M"
_symmetry_group_IT_number 65
_symmetry_cell_setting 'orthorhombic'
loop_
_space_group_symop_operation_xyz
x,y,z
-x,-y,z
x,-y,-z
-x,y,-z
-x,-y,-z
x,y,-z
-x,y,z
x,-y,z
1/2+x,1/2+y,z
1/2-x,1/2-y,z
1/2+x,1/2-y,-z
1/2-x,1/2+y,-z
1/2-x,1/2-y,-z
1/2+x,1/2+y,-z
1/2-x,1/2+y,z
1/2+x,1/2-y,z
loop_
_atom_site_type_symbol
_atom_site_label
_atom_site_fract_x
_atom_site_fract_y
_atom_site_fract_z
Si Si1 0.945953 0.832992 0.293493
Si Si2 0.103737 0.329511 0.393792
Si Si3 0.290932 0.842833 0.930635
Si Si4 0.445395 0.657967 0.839698
Si Si5 0.944936 0.168091 0.500000
Si Si6 0.294573 0.166303 0.567702
Si Si7 0.392799 0.829261 0.065529
O O1 0.914344 0.726854 0.331469
O O2 0.931480 0.798859 0.226455
O O3 0.000000 0.798281 0.304685
O O4 0.936314 0.000000 0.308852
O O5 0.095152 0.500000 0.400851
O O6 0.075493 0.244999 0.443090
O O7 0.158532 0.293776 0.397483
O O8 0.250000 0.750000 0.901331
O O9 0.341210 0.772512 0.918338
O O10 0.288099 0.000000 0.901572
O O11 0.283332 0.856106 0.000000
O O12 0.500000 0.653266 0.844342
O O13 0.425147 0.500000 0.854645
O O14 0.427983 0.772622 0.886371
O O15 0.000000 0.186999 0.500000
O O16 0.931193 0.000000 0.500000
O O17 0.302995 0.209940 0.500000
O O18 0.250000 0.250000 0.593848
O O19 0.282837 0.000000 0.573984
O O20 0.392795 0.000000 0.066538
O O21 0.407103 0.775919 0.000000
#
# Coordination Sequence:
#
# PCOD8274332 Si02
#       7
#    16  16  16  16   8  16  16
#     4   9  19  36  54  72  97 130 168 206 245 296
#     4  11  21  34  52  77 105 130 162 207 253 292
#     4   8  14  25  41  63  92 123 153 187 230 281
#     4   9  19  35  52  70  95 128 167 209 246 287
#     4  11  23  35  48  71 104 139 170 199 238 291
#     4   9  18  33  50  72 102 132 164 203 245 291
#     4   9  18  31  47  71 102 130 158 199 250 300
#
# _framework density 17.054760999999999
#
# number of rings (size 3 to 8) (size 9 to 14) (size 15 to 20)
#    0.000    2.692    0.769    3.000    0.000    6.154 
#    0.000    4.615    0.000    0.923    0.000    0.000 
#    0.000    0.000    0.000    0.000    0.000    0.000 
#
# Total GULP energy -644587.265957 kJ/mol
# GULP energy per Si atom -12395.908961 kJ/mol
# Density = 1.701594 g / cm^3
# Si number density = 17.054761 Si / 1000 Ang^3
#
#
#
# Elastic Constant Matrix: (Units=GPa)
#
#
# Indices 1 2 3 4 5 6 
#
# 1 83.9848 50.4175 52.5167 0.0000 0.0000 0.0000
# 2 50.4175 75.0116 45.6141 0.0000 0.0000 0.0000
# 3 52.5167 45.6141 88.7461 0.0000 0.0000 0.0000
# 4 0.0000 0.0000 0.0000 17.6330 0.0000 0.0000
# 5 0.0000 0.0000 0.0000 0.0000 2.6021 0.0000
# 6 0.0000 0.0000 0.0000 0.0000 0.0000 33.2834
#
#
#
# Elastic Compliance Matrix: (Units=1/GPa)
#
#
# Indices 1 2 3 4 5 6 
#
# 1 0.023659 -0.010748 -0.008477 0.000000 0.000000 0.000000
# 2 -0.010748 0.024275 -0.006117 0.000000 0.000000 0.000000
# 3 -0.008477 -0.006117 0.019428 0.000000 0.000000 0.000000
# 4 0.000000 0.000000 0.000000 0.056712 0.000000 0.000000
# 5 0.000000 0.000000 0.000000 0.000000 0.384310 0.000000
# 6 0.000000 0.000000 0.000000 0.000000 0.000000 0.030045
#
#
# Mechanical properties :
#
#
# Convention : Reuss Voigt Hill
#
# Bulk Modulus (GPa) = 59.95130 60.53768 60.24449
# Shear Modulus (GPa) = 8.40800 17.31665 12.86233
#
# Velocity S-wave (km/s) = 2.22277 3.18992 2.74921
# Velocity P-wave (km/s) = 6.46654 7.01003 6.74377
#
# Compressibility (1/GPa) = 0.01668021
#
# Stress axis : x y z
#
# Youngs Moduli (GPa) = 42.26646 41.19542 51.47149
#
# Poissons Ratio (x) = 0.44275 0.43631
# Poissons Ratio (y) = 0.45426 0.31484
# Poissons Ratio (z) = 0.35828 0.25198
#
# Static dielectric constant tensor:
#      x y z
#    x 3.281250 0.000000 0.000000 
#    y 0.000000 3.182040 0.000000 
#    z 0.000000 0.000000 3.048170 
# 
# 
# High freq. dielectric constant tensor:
#      x y z
#    x 1.659460 0.000000 0.000000 
#    y 0.000000 1.659360 0.000000 
#    z 0.000000 0.000000 1.631020 
# 
# From -- ./inp_files/71850.got.cif
#   From: 2010.03.12/outbox.cif.g09.slc.cpg/sg65_36_cif.got.tgz:71850.got - 2010.04.10 20:52:16.
