data_PCOD8274005
_publ_section_title
;
Structure prediction by ZEFSAII (Michael W. Deem and Ramdas Pophale) SiO2 
 PCOD8274005
Probable space group: C M M M
;
_chemical_formula_sum "Si O2"
_cell_formula_units_Z 72
_cell_length_a 22.080272
_cell_length_b 19.109224
_cell_length_c 9.154986
_cell_angle_alpha 90.000000
_cell_angle_beta 90.000000
_cell_angle_gamma 90.000000
_cell_volume 3862.826079
_symmetry_space_group_name_H-M "C M M M"
_symmetry_group_IT_number 65
_symmetry_cell_setting 'orthorhombic'
loop_
_space_group_symop_operation_xyz
x,y,z
-x,-y,z
x,-y,-z
-x,y,-z
-x,-y,-z
x,y,-z
-x,y,z
x,-y,z
1/2+x,1/2+y,z
1/2-x,1/2-y,z
1/2+x,1/2-y,-z
1/2-x,1/2+y,-z
1/2-x,1/2-y,-z
1/2+x,1/2+y,-z
1/2-x,1/2+y,z
1/2+x,1/2-y,z
loop_
_atom_site_type_symbol
_atom_site_label
_atom_site_fract_x
_atom_site_fract_y
_atom_site_fract_z
Si Si1 0.431286 0.806322 0.671223
Si Si2 0.714875 0.581137 0.168337
Si Si3 0.353736 0.920529 0.169763
Si Si4 0.500000 0.582745 0.166194
Si Si5 0.890151 0.846317 0.327858
O O1 0.430485 0.818574 0.500000
O O2 0.500000 0.801948 0.729516
O O3 0.398173 0.871238 0.742760
O O4 0.397375 0.734869 0.713598
O O5 0.701236 0.500000 0.200655
O O6 0.784344 0.599125 0.203400
O O7 0.675517 0.629386 0.274293
O O8 0.699457 0.598083 0.000000
O O9 0.366494 0.000000 0.218810
O O10 0.367401 0.911343 0.000000
O O11 0.500000 0.500000 0.169339
O O12 0.559445 0.608641 0.247503
O O13 0.500000 0.610615 0.000000
O O14 0.896989 0.858514 0.500000
#
# Coordination Sequence:
#
# PCOD8274005 Si02
#       5
#    16  16  16   8  16
#     4  10  22  40  57  78 114 152 186 229 282 336
#     4   9  19  37  58  82 115 149 184 231 283 334
#     4   9  20  39  61  85 112 143 184 235 285 335
#     4  11  23  37  55  81 112 149 192 233 277 328
#     4  11  22  37  56  81 115 151 189 231 275 329
#
# _framework density 18.639202999999998
#
# number of rings (size 3 to 8) (size 9 to 14) (size 15 to 20)
#    0.000    2.111    1.111    3.000    0.000    8.889 
#    0.000    8.889    0.000    0.000    0.000    0.000 
#    0.000    0.000    0.000    0.000    0.000    0.000 
#
# Total GULP energy -446505.953185 kJ/mol
# GULP energy per Si atom -12402.943144 kJ/mol
# Density = 1.859678 g / cm^3
# Si number density = 18.639203 Si / 1000 Ang^3
#
#
#
# Elastic Constant Matrix: (Units=GPa)
#
#
# Indices 1 2 3 4 5 6 
#
# 1 104.3104 71.7387 55.3794 0.0000 0.0000 0.0000
# 2 71.7387 113.3798 56.3622 0.0000 0.0000 0.0000
# 3 55.3794 56.3622 68.7174 0.0000 0.0000 0.0000
# 4 0.0000 0.0000 0.0000 38.0650 0.0000 0.0000
# 5 0.0000 0.0000 0.0000 0.0000 37.5818 0.0000
# 6 0.0000 0.0000 0.0000 0.0000 0.0000 1.3560
#
#
#
# Elastic Compliance Matrix: (Units=1/GPa)
#
#
# Indices 1 2 3 4 5 6 
#
# 1 0.020257 -0.007938 -0.009814 0.000000 0.000000 0.000000
# 2 -0.007938 0.018003 -0.008368 0.000000 0.000000 0.000000
# 3 -0.009814 -0.008368 0.029325 0.000000 0.000000 0.000000
# 4 0.000000 0.000000 0.000000 0.026271 0.000000 0.000000
# 5 0.000000 0.000000 0.000000 0.000000 0.026609 0.000000
# 6 0.000000 0.000000 0.000000 0.000000 0.000000 0.737490
#
#
# Mechanical properties :
#
#
# Convention : Reuss Voigt Hill
#
# Bulk Modulus (GPa) = 65.17457 72.59647 68.88552
# Shear Modulus (GPa) = 5.46264 22.26238 13.86251
#
# Velocity S-wave (km/s) = 1.71379 3.45974 2.73010
# Velocity P-wave (km/s) = 6.24167 7.41569 6.85387
#
# Compressibility (1/GPa) = 0.01534341
#
# Stress axis : x y z
#
# Youngs Moduli (GPa) = 49.36675 55.54695 34.10073
#
# Poissons Ratio (x) = 0.44096 0.33465
# Poissons Ratio (y) = 0.39190 0.28537
# Poissons Ratio (z) = 0.48447 0.46483
#
# Static dielectric constant tensor:
#      x y z
#    x 3.567400 0.000000 0.000000 
#    y 0.000000 3.437410 0.000000 
#    z 0.000000 0.000000 3.398080 
# 
# 
# High freq. dielectric constant tensor:
#      x y z
#    x 1.731660 0.000000 0.000000 
#    y 0.000000 1.727290 0.000000 
#    z 0.000000 0.000000 1.722950 
# 
# From -- ./inp_files/9230.got.cif
#   From: 2010.03.12/outbox.cif.g09.slc.cpg/sg65_5_cif.got.tgz:9230.got - 2010.04.10 20:52:16.
