data_PCOD8274306
_publ_section_title
;
Structure prediction by ZEFSAII (Michael W. Deem and Ramdas Pophale) SiO2 
 PCOD8274306
Probable space group: C M M M
;
_chemical_formula_sum "Si O2"
_cell_formula_units_Z 120
_cell_length_a 22.471647
_cell_length_b 22.966552
_cell_length_c 12.751465
_cell_angle_alpha 90.000000
_cell_angle_beta 90.000000
_cell_angle_gamma 90.000000
_cell_volume 6580.983260
_symmetry_space_group_name_H-M "C M M M"
_symmetry_group_IT_number 65
_symmetry_cell_setting 'orthorhombic'
loop_
_space_group_symop_operation_xyz
x,y,z
-x,-y,z
x,-y,-z
-x,y,-z
-x,-y,-z
x,y,-z
-x,y,z
x,-y,z
1/2+x,1/2+y,z
1/2-x,1/2-y,z
1/2+x,1/2-y,-z
1/2-x,1/2+y,-z
1/2-x,1/2-y,-z
1/2+x,1/2+y,-z
1/2-x,1/2+y,z
1/2+x,1/2-y,z
loop_
_atom_site_type_symbol
_atom_site_label
_atom_site_fract_x
_atom_site_fract_y
_atom_site_fract_z
Si Si1 0.814844 0.264580 0.619830
Si Si2 0.860262 0.153220 0.289982
Si Si3 0.261548 0.567363 0.376219
Si Si4 0.431214 0.850835 0.119148
Si Si5 0.360614 0.884305 0.310291
Si Si6 0.429813 0.934046 0.500000
Si Si7 0.931446 0.061833 0.386501
Si Si8 0.432219 0.714638 0.878554
O O1 0.809168 0.284027 0.500000
O O2 0.750000 0.250000 0.667669
O O3 0.855049 0.207265 0.630845
O O4 0.842491 0.317105 0.683344
O O5 0.804460 0.109117 0.306393
O O6 0.918493 0.116289 0.314692
O O7 0.877775 0.178623 0.175852
O O8 0.260719 0.585747 0.500000
O O9 0.280928 0.500000 0.364278
O O10 0.196289 0.574401 0.326216
O O11 0.500000 0.867202 0.137376
O O12 0.390773 0.890762 0.195842
O O13 0.421387 0.782720 0.142534
O O14 0.412342 0.865376 0.000000
O O15 0.408991 0.899873 0.397439
O O16 0.500000 0.934543 0.500000
O O17 0.404299 0.000000 0.500000
O O18 0.898689 0.068881 0.500000
O O19 0.000000 0.059751 0.407713
O O20 0.910345 0.000000 0.336309
O O21 0.500000 0.698639 0.840873
O O22 0.426301 0.699578 0.000000
#
# Coordination Sequence:
#
# PCOD8274306 Si02
#       8
#    16  16  16  16  16   8  16  16
#     4  11  21  33  49  79 119 154 177 221 286 346
#     4  12  20  32  55  80 108 145 191 230 279 339
#     4  11  23  38  58  82 112 154 197 232 272 337
#     4   9  19  37  60  85 114 149 189 234 287 346
#     4  12  20  37  59  84 116 149 190 235 283 344
#     4  11  24  40  59  84 116 156 195 234 282 341
#     4   9  18  32  48  70 104 142 180 224 270 321
#     4   9  19  36  56  80 112 149 190 235 287 346
#
# _framework density 18.234356999999999
#
# number of rings (size 3 to 8) (size 9 to 14) (size 15 to 20)
#    0.000    1.533    4.000    4.000    0.000    1.067 
#    0.000    0.667    0.000    6.400    0.000    9.333 
#    0.000    0.000    0.000    0.000    0.000    0.000 
#
# Total GULP energy -743397.483663 kJ/mol
# GULP energy per Si atom -12389.958061 kJ/mol
# Density = 1.819285 g / cm^3
# Si number density = 18.234357 Si / 1000 Ang^3
#
#
#
# Elastic Constant Matrix: (Units=GPa)
#
#
# Indices 1 2 3 4 5 6 
#
# 1 85.0667 25.5055 51.2997 0.0000 0.0000 0.0000
# 2 25.5055 72.0332 24.6007 0.0000 0.0000 0.0000
# 3 51.2997 24.6007 101.9512 0.0000 0.0000 0.0000
# 4 0.0000 0.0000 0.0000 13.7372 0.0000 0.0000
# 5 0.0000 0.0000 0.0000 0.0000 24.2585 0.0000
# 6 0.0000 0.0000 0.0000 0.0000 0.0000 27.0873
#
#
#
# Elastic Compliance Matrix: (Units=1/GPa)
#
#
# Indices 1 2 3 4 5 6 
#
# 1 0.017653 -0.003506 -0.008037 0.000000 0.000000 0.000000
# 2 -0.003506 0.015826 -0.002055 0.000000 0.000000 0.000000
# 3 -0.008037 -0.002055 0.014348 0.000000 0.000000 0.000000
# 4 0.000000 0.000000 0.000000 0.072795 0.000000 0.000000
# 5 0.000000 0.000000 0.000000 0.000000 0.041223 0.000000
# 6 0.000000 0.000000 0.000000 0.000000 0.000000 0.036918
#
#
# Mechanical properties :
#
#
# Convention : Reuss Voigt Hill
#
# Bulk Modulus (GPa) = 48.46710 51.31809 49.89259
# Shear Modulus (GPa) = 21.47446 23.52629 22.50037
#
# Velocity S-wave (km/s) = 3.43548 3.59586 3.51658
# Velocity P-wave (km/s) = 6.50957 6.74129 6.62644
#
# Compressibility (1/GPa) = 0.02063255
#
# Stress axis : x y z
#
# Youngs Moduli (GPa) = 56.64679 63.18895 69.69462
#
# Poissons Ratio (x) = 0.22154 0.56012
# Poissons Ratio (y) = 0.19860 0.14319
# Poissons Ratio (z) = 0.45526 0.12983
#
# Static dielectric constant tensor:
#      x y z
#    x 3.441540 0.000000 0.000000 
#    y 0.000000 3.436570 0.000000 
#    z 0.000000 0.000000 3.159300 
# 
# 
# High freq. dielectric constant tensor:
#      x y z
#    x 1.713860 0.000000 0.000000 
#    y 0.000000 1.709610 0.000000 
#    z 0.000000 0.000000 1.676980 
# 
# From -- ./inp_files/44797.got.cif
#   From: 2010.03.12/outbox.cif.g09.slc.cpg/sg65_23_cif.got.tgz:44797.got - 2010.04.10 20:52:16.
