data_PCOD8274957
_publ_section_title
;
Structure prediction by ZEFSAII (Michael W. Deem and Ramdas Pophale) SiO2 
 PCOD8274957
Probable space group: C M M M
;
_chemical_formula_sum "Si O2"
_cell_formula_units_Z 80
_cell_length_a 9.359206
_cell_length_b 30.103544
_cell_length_c 20.375308
_cell_angle_alpha 90.000000
_cell_angle_beta 90.000000
_cell_angle_gamma 90.000000
_cell_volume 5740.646646
_symmetry_space_group_name_H-M "C M M M"
_symmetry_group_IT_number 65
_symmetry_cell_setting 'orthorhombic'
loop_
_space_group_symop_operation_xyz
x,y,z
-x,-y,z
x,-y,-z
-x,y,-z
-x,-y,-z
x,y,-z
-x,y,z
x,-y,z
1/2+x,1/2+y,z
1/2-x,1/2-y,z
1/2+x,1/2-y,-z
1/2-x,1/2+y,-z
1/2-x,1/2-y,-z
1/2+x,1/2+y,-z
1/2-x,1/2+y,z
1/2+x,1/2-y,z
loop_
_atom_site_type_symbol
_atom_site_label
_atom_site_fract_x
_atom_site_fract_y
_atom_site_fract_z
Si Si1 0.339421 0.447072 0.193512
Si Si2 0.160417 0.447172 0.072551
Si Si3 0.334660 0.050717 0.318863
Si Si4 0.161685 0.791774 0.578102
Si Si5 0.165025 0.377120 0.575277
O O1 0.500000 0.428469 0.196354
O O2 0.337510 0.500000 0.191038
O O3 0.264646 0.427343 0.128151
O O4 0.255434 0.430587 0.257731
O O5 0.160784 0.500000 0.076200
O O6 0.000000 0.429672 0.085547
O O7 0.212595 0.431862 0.000000
O O8 0.500000 0.054566 0.299147
O O9 0.297651 0.079365 0.382862
O O10 0.293355 0.000000 0.335547
O O11 0.160909 0.789613 0.500000
O O12 0.250000 0.750000 0.606610
O O13 0.238828 0.836713 0.601608
O O14 0.000000 0.790625 0.605615
O O15 0.200869 0.388746 0.500000
O O16 0.000000 0.363029 0.583025
#
# Coordination Sequence:
#
# PCOD8274957 Si02
#       5
#    16  16  16  16  16
#     4   9  16  24  34  48  66  89 118 152 186 219
#     4   8  13  21  33  48  65  85 110 142 180 220
#     4   9  17  28  40  52  69  97 130 161 192 225
#     4   9  16  26  41  59  77  95 114 140 179 227
#     4   9  17  28  41  57  75  94 121 158 195 229
#
# _framework density 13.935712000000001
#
# number of rings (size 3 to 8) (size 9 to 14) (size 15 to 20)
#    0.000    3.200    0.000    1.800    0.000    6.400 
#    0.000    4.000    0.000    0.000    0.000    5.600 
#    0.000    0.000    0.000    0.000    0.000    1.000 
#
# Total GULP energy -495846.168118 kJ/mol
# GULP energy per Si atom -12396.154203 kJ/mol
# Density = 1.390399 g / cm^3
# Si number density = 13.935712 Si / 1000 Ang^3
#
#
#
# Elastic Constant Matrix: (Units=GPa)
#
#
# Indices 1 2 3 4 5 6 
#
# 1 95.8849 40.1539 53.7449 0.0000 0.0000 0.0000
# 2 40.1539 54.8444 37.0899 0.0000 0.0000 0.0000
# 3 53.7449 37.0899 87.2818 0.0000 0.0000 0.0000
# 4 0.0000 0.0000 0.0000 0.9515 0.0000 0.0000
# 5 0.0000 0.0000 0.0000 0.0000 15.5539 0.0000
# 6 0.0000 0.0000 0.0000 0.0000 0.0000 16.4809
#
#
#
# Elastic Compliance Matrix: (Units=1/GPa)
#
#
# Indices 1 2 3 4 5 6 
#
# 1 0.018142 -0.008038 -0.007756 0.000000 0.000000 0.000000
# 2 -0.008038 0.029147 -0.007437 0.000000 0.000000 0.000000
# 3 -0.007756 -0.007437 0.019393 0.000000 0.000000 0.000000
# 4 0.000000 0.000000 0.000000 1.050965 0.000000 0.000000
# 5 0.000000 0.000000 0.000000 0.000000 0.064292 0.000000
# 6 0.000000 0.000000 0.000000 0.000000 0.000000 0.060676
#
#
# Mechanical properties :
#
#
# Convention : Reuss Voigt Hill
#
# Bulk Modulus (GPa) = 49.45015 55.55427 52.50221
# Shear Modulus (GPa) = 3.85857 13.73209 8.79533
#
# Velocity S-wave (km/s) = 1.66579 3.14250 2.51497
# Velocity P-wave (km/s) = 6.26588 7.28823 6.79631
#
# Compressibility (1/GPa) = 0.02022239
#
# Stress axis : x y z
#
# Youngs Moduli (GPa) = 55.11951 34.30834 51.56484
#
# Poissons Ratio (x) = 0.27576 0.39993
# Poissons Ratio (y) = 0.44304 0.38347
# Poissons Ratio (z) = 0.42750 0.25514
#
# Static dielectric constant tensor:
#      x y z
#    x 2.943760 0.000000 0.000000 
#    y 0.000000 2.397330 0.000000 
#    z 0.000000 0.000000 2.723280 
# 
# 
# High freq. dielectric constant tensor:
#      x y z
#    x 1.542160 0.000000 0.000000 
#    y 0.000000 1.477130 0.000000 
#    z 0.000000 0.000000 1.514350 
# 
# From -- ./inp_files/60501.got.cif
#   From: 2010.03.12/outbox.cif.g09.slc.cpg/sg65_31_cif.got.tgz:60501.got - 2010.04.10 20:52:16.
