data_PCOD8274529
_publ_section_title
;
Structure prediction by ZEFSAII (Michael W. Deem and Ramdas Pophale) SiO2 
 PCOD8274529
Probable space group: C M M M
;
_chemical_formula_sum "Si O2"
_cell_formula_units_Z 80
_cell_length_a 8.592051
_cell_length_b 23.820087
_cell_length_c 20.429843
_cell_angle_alpha 90.000000
_cell_angle_beta 90.000000
_cell_angle_gamma 90.000000
_cell_volume 4181.241177
_symmetry_space_group_name_H-M "C M M M"
_symmetry_group_IT_number 65
_symmetry_cell_setting 'orthorhombic'
loop_
_space_group_symop_operation_xyz
x,y,z
-x,-y,z
x,-y,-z
-x,y,-z
-x,-y,-z
x,y,-z
-x,y,z
x,-y,z
1/2+x,1/2+y,z
1/2-x,1/2-y,z
1/2+x,1/2-y,-z
1/2-x,1/2+y,-z
1/2-x,1/2-y,-z
1/2+x,1/2+y,-z
1/2-x,1/2+y,z
1/2+x,1/2-y,z
loop_
_atom_site_type_symbol
_atom_site_label
_atom_site_fract_x
_atom_site_fract_y
_atom_site_fract_z
Si Si1 0.817752 0.610329 0.304068
Si Si2 0.183453 0.063593 0.427108
Si Si3 0.820764 0.886762 0.927719
Si Si4 0.681829 0.000000 0.106879
Si Si5 0.184802 0.311961 0.812134
Si Si6 0.180330 0.000000 0.755890
O O1 0.747134 0.610940 0.377341
O O2 0.760850 0.661146 0.257343
O O3 0.765859 0.553848 0.270441
O O4 0.000000 0.612403 0.311619
O O5 0.248580 0.076205 0.500000
O O6 0.000000 0.067791 0.427755
O O7 0.233166 0.000000 0.405748
O O8 0.721569 0.944005 0.933008
O O9 0.752156 0.845833 0.873236
O O10 0.000000 0.899870 0.910174
O O11 0.808579 0.858506 0.000000
O O12 0.500000 0.000000 0.127205
O O13 0.799872 0.000000 0.167165
O O14 0.250000 0.250000 0.814741
O O15 0.000000 0.312165 0.818097
O O16 0.000000 0.000000 0.734806
#
# Coordination Sequence:
#
# PCOD8274529 Si02
#       6
#    16  16  16   8  16   8
#     4  11  22  36  57  87 119 150 190 242 291 341
#     4   9  18  32  52  83 122 160 194 227 274 342
#     4  11  24  41  62  88 118 154 194 236 290 354
#     4  12  23  37  58  88 123 155 190 235 289 348
#     4  11  25  43  63  85 113 149 196 249 296 347
#     4  12  22  33  56  85 116 156 192 232 286 347
#
# _framework density 19.133075000000002
#
# number of rings (size 3 to 8) (size 9 to 14) (size 15 to 20)
#    0.000    1.200    3.000    4.500    0.000    6.000 
#    0.000    1.000    0.000    0.600    0.000    0.000 
#    0.000    0.000    0.000    0.000    0.000    0.000 
#
# Total GULP energy -495868.686901 kJ/mol
# GULP energy per Si atom -12396.717173 kJ/mol
# Density = 1.908953 g / cm^3
# Si number density = 19.133075 Si / 1000 Ang^3
#
#
#
# Elastic Constant Matrix: (Units=GPa)
#
#
# Indices 1 2 3 4 5 6 
#
# 1 54.4081 40.4702 45.3655 0.0000 0.0000 0.0000
# 2 40.4702 123.4732 66.3470 0.0000 0.0000 0.0000
# 3 45.3655 66.3470 153.4898 0.0000 0.0000 0.0000
# 4 0.0000 0.0000 0.0000 10.8261 0.0000 0.0000
# 5 0.0000 0.0000 0.0000 0.0000 31.4583 0.0000
# 6 0.0000 0.0000 0.0000 0.0000 0.0000 25.2954
#
#
#
# Elastic Compliance Matrix: (Units=1/GPa)
#
#
# Indices 1 2 3 4 5 6 
#
# 1 0.027466 -0.006044 -0.005505 0.000000 0.000000 0.000000
# 2 -0.006044 0.011879 -0.003348 0.000000 0.000000 0.000000
# 3 -0.005505 -0.003348 0.009590 0.000000 0.000000 0.000000
# 4 0.000000 0.000000 0.000000 0.092369 0.000000 0.000000
# 5 0.000000 0.000000 0.000000 0.000000 0.031788 0.000000
# 6 0.000000 0.000000 0.000000 0.000000 0.000000 0.039533
#
#
# Mechanical properties :
#
#
# Convention : Reuss Voigt Hill
#
# Bulk Modulus (GPa) = 52.24949 70.63742 61.44345
# Shear Modulus (GPa) = 20.09648 25.46185 22.77917
#
# Velocity S-wave (km/s) = 3.24443 3.65194 3.45420
# Velocity P-wave (km/s) = 6.43451 7.40144 6.93485
#
# Compressibility (1/GPa) = 0.01913894
#
# Stress axis : x y z
#
# Youngs Moduli (GPa) = 36.40920 84.18037 104.27975
#
# Poissons Ratio (x) = 0.50880 0.57407
# Poissons Ratio (y) = 0.22006 0.34918
# Poissons Ratio (z) = 0.20044 0.28188
#
# Static dielectric constant tensor:
#      x y z
#    x 3.571590 0.000000 0.000000 
#    y 0.000000 3.400190 0.000000 
#    z 0.000000 0.000000 4.023430 
# 
# 
# High freq. dielectric constant tensor:
#      x y z
#    x 1.752190 0.000000 0.000000 
#    y 0.000000 1.712550 0.000000 
#    z 0.000000 0.000000 1.763290 
# 
# From -- ./inp_files/59694.got.cif
#   From: 2010.03.12/outbox.cif.g09.slc.cpg/sg65_30_cif.got.tgz:59694.got - 2010.04.10 20:52:16.
