data_PCOD8274254
_publ_section_title
;
Structure prediction by ZEFSAII (Michael W. Deem and Ramdas Pophale) SiO2 
 PCOD8274254
Probable space group: C M M M
;
_chemical_formula_sum "Si O2"
_cell_formula_units_Z 88
_cell_length_a 17.258431
_cell_length_b 13.905406
_cell_length_c 21.700506
_cell_angle_alpha 90.000000
_cell_angle_beta 90.000000
_cell_angle_gamma 90.000000
_cell_volume 5207.806565
_symmetry_space_group_name_H-M "C M M M"
_symmetry_group_IT_number 65
_symmetry_cell_setting 'orthorhombic'
loop_
_space_group_symop_operation_xyz
x,y,z
-x,-y,z
x,-y,-z
-x,y,-z
-x,-y,-z
x,y,-z
-x,y,z
x,-y,z
1/2+x,1/2+y,z
1/2-x,1/2-y,z
1/2+x,1/2-y,-z
1/2-x,1/2+y,-z
1/2-x,1/2-y,-z
1/2+x,1/2+y,-z
1/2-x,1/2+y,z
1/2+x,1/2-y,z
loop_
_atom_site_type_symbol
_atom_site_label
_atom_site_fract_x
_atom_site_fract_y
_atom_site_fract_z
Si Si1 0.589476 0.609243 0.149808
Si Si2 0.839379 0.225476 0.743791
Si Si3 0.416051 0.386974 0.500000
Si Si4 0.092619 0.889828 0.366531
Si Si5 0.591840 0.107004 0.184500
Si Si6 0.409536 0.218237 0.932519
O O1 0.500000 0.620801 0.171336
O O2 0.609953 0.500000 0.133401
O O3 0.643964 0.644581 0.205010
O O4 0.605195 0.671977 0.088780
O O5 0.750000 0.250000 0.740470
O O6 0.867786 0.185487 0.678780
O O7 0.883532 0.324442 0.759574
O O8 0.429700 0.500000 0.500000
O O9 0.500000 0.335796 0.500000
O O10 0.374526 0.360892 0.564945
O O11 0.000000 0.879444 0.364036
O O12 0.115671 0.000000 0.349792
O O13 0.500000 0.106702 0.181285
O O14 0.625746 0.146625 0.119179
O O15 0.624792 0.000000 0.195624
O O16 0.500000 0.197610 0.938433
O O17 0.370572 0.202293 0.000000
#
# Coordination Sequence:
#
# PCOD8274254 Si02
#       6
#    16  16   8  16  16  16
#     4   9  17  30  48  68  90 116 146 182 227 278
#     4  11  21  30  43  66  93 121 152 186 223 264
#     4   7  12  24  45  74  99 117 141 175 216 263
#     4   9  16  29  51  75  97 119 145 180 222 267
#     4   9  18  32  47  62  84 117 156 193 224 258
#     4   8  14  25  43  69  94 110 134 180 234 281
#
# _framework density 16.897708999999999
#
# number of rings (size 3 to 8) (size 9 to 14) (size 15 to 20)
#    0.000    3.000    0.000    4.364    0.000    3.636 
#    0.000    4.091    0.000    8.727    0.000   10.818 
#    0.000    3.636    0.000    0.000    0.000    0.545 
#
# Total GULP energy -545168.240556 kJ/mol
# GULP energy per Si atom -12390.187285 kJ/mol
# Density = 1.685925 g / cm^3
# Si number density = 16.897709 Si / 1000 Ang^3
#
#
#
# Elastic Constant Matrix: (Units=GPa)
#
#
# Indices 1 2 3 4 5 6 
#
# 1 38.0717 24.6957 31.0052 0.0000 0.0000 0.0000
# 2 24.6957 129.7684 62.1609 0.0000 0.0000 0.0000
# 3 31.0052 62.1609 140.6295 0.0000 0.0000 0.0000
# 4 0.0000 0.0000 0.0000 20.3857 0.0000 0.0000
# 5 0.0000 0.0000 0.0000 0.0000 0.6898 0.0000
# 6 0.0000 0.0000 0.0000 0.0000 0.0000 11.7509
#
#
#
# Elastic Compliance Matrix: (Units=1/GPa)
#
#
# Indices 1 2 3 4 5 6 
#
# 1 0.033272 -0.003575 -0.005756 0.000000 0.000000 0.000000
# 2 -0.003575 0.010160 -0.003703 0.000000 0.000000 0.000000
# 3 -0.005756 -0.003703 0.010017 0.000000 0.000000 0.000000
# 4 0.000000 0.000000 0.000000 0.049054 0.000000 0.000000
# 5 0.000000 0.000000 0.000000 0.000000 1.449622 0.000000
# 6 0.000000 0.000000 0.000000 0.000000 0.000000 0.085100
#
#
# Mechanical properties :
#
#
# Convention : Reuss Voigt Hill
#
# Bulk Modulus (GPa) = 36.51965 60.46591 48.49278
# Shear Modulus (GPa) = 2.98968 19.27249 11.13109
#
# Velocity S-wave (km/s) = 1.33159 3.38085 2.56936
# Velocity P-wave (km/s) = 4.90135 7.14852 6.12881
#
# Compressibility (1/GPa) = 0.02738252
#
# Stress axis : x y z
#
# Youngs Moduli (GPa) = 30.05492 98.42486 99.83518
#
# Poissons Ratio (x) = 0.35187 0.57460
# Poissons Ratio (y) = 0.10745 0.36966
# Poissons Ratio (z) = 0.17298 0.36444
#
# Static dielectric constant tensor:
#      x y z
#    x 2.769060 0.000000 0.000000 
#    y 0.000000 3.316380 0.000000 
#    z 0.000000 0.000000 3.491810 
# 
# 
# High freq. dielectric constant tensor:
#      x y z
#    x 1.606610 0.000000 0.000000 
#    y 0.000000 1.643930 0.000000 
#    z 0.000000 0.000000 1.652960 
# 
# From -- ./inp_files/63735.got.cif
#   From: 2010.03.12/outbox.cif.g09.slc.cpg/sg65_32_cif.got.tgz:63735.got - 2010.04.10 20:52:16.
