data_PCOD8274554
_publ_section_title
;
Structure prediction by ZEFSAII (Michael W. Deem and Ramdas Pophale) SiO2 
 PCOD8274554
Probable space group: C M M M
;
_chemical_formula_sum "Si O2"
_cell_formula_units_Z 88
_cell_length_a 18.542549
_cell_length_b 8.968610
_cell_length_c 28.677015
_cell_angle_alpha 90.000000
_cell_angle_beta 90.000000
_cell_angle_gamma 90.000000
_cell_volume 4769.013128
_symmetry_space_group_name_H-M "C M M M"
_symmetry_group_IT_number 65
_symmetry_cell_setting 'orthorhombic'
loop_
_space_group_symop_operation_xyz
x,y,z
-x,-y,z
x,-y,-z
-x,y,-z
-x,-y,-z
x,y,-z
-x,y,z
x,-y,z
1/2+x,1/2+y,z
1/2-x,1/2-y,z
1/2+x,1/2-y,-z
1/2-x,1/2+y,-z
1/2-x,1/2-y,-z
1/2+x,1/2+y,-z
1/2-x,1/2+y,z
1/2+x,1/2-y,z
loop_
_atom_site_type_symbol
_atom_site_label
_atom_site_fract_x
_atom_site_fract_y
_atom_site_fract_z
Si Si1 0.419540 0.677132 0.670880
Si Si2 0.914127 0.834206 0.227524
Si Si3 0.585405 0.824963 0.500000
Si Si4 0.325711 0.175146 0.948230
Si Si5 0.581430 0.824151 0.862987
Si Si6 0.828322 0.821679 0.582924
O O1 0.500000 0.740554 0.659336
O O2 0.424939 0.500000 0.672824
O O3 0.392034 0.733909 0.721829
O O4 0.361846 0.728242 0.632444
O O5 0.882770 0.736935 0.184794
O O6 0.000000 0.836891 0.226105
O O7 0.882457 0.000000 0.221552
O O8 0.500000 0.799130 0.500000
O O9 0.618514 0.744922 0.544716
O O10 0.604950 0.000000 0.500000
O O11 0.250000 0.250000 0.939304
O O12 0.379234 0.238404 0.908942
O O13 0.315412 0.000000 0.942828
O O14 0.355667 0.214581 0.000000
O O15 0.500000 0.766497 0.867072
O O16 0.585690 0.000000 0.860842
O O17 0.750000 0.750000 0.577314
O O18 0.823279 0.000000 0.577482
#
# Coordination Sequence:
#
# PCOD8274554 Si02
#       6
#    16  16   8  16  16  16
#     4   8  15  30  53  77  98 127 170 211 244 288
#     4   8  14  27  48  72  97 126 161 200 242 288
#     4  11  24  41  60  83 109 135 170 215 258 303
#     4   9  18  32  48  65  88 121 158 195 237 286
#     4   9  17  29  46  70  97 122 153 196 244 291
#     4  11  22  37  57  80 109 142 175 211 254 301
#
# _framework density 18.452456000000002
#
# number of rings (size 3 to 8) (size 9 to 14) (size 15 to 20)
#    0.000    2.818    0.000    2.727    0.000    2.545 
#    0.000    4.545    0.000    8.727    0.000    5.091 
#    0.000    0.000    0.000    0.000    0.000    0.000 
#
# Total GULP energy -545322.113483 kJ/mol
# GULP energy per Si atom -12393.684397 kJ/mol
# Density = 1.841046 g / cm^3
# Si number density = 18.452456 Si / 1000 Ang^3
#
#
#
# Elastic Constant Matrix: (Units=GPa)
#
#
# Indices 1 2 3 4 5 6 
#
# 1 80.8873 32.9858 71.4213 0.0000 0.0000 0.0000
# 2 32.9858 46.8629 48.6868 0.0000 0.0000 0.0000
# 3 71.4213 48.6868 190.4894 0.0000 0.0000 0.0000
# 4 0.0000 0.0000 0.0000 27.5683 0.0000 0.0000
# 5 0.0000 0.0000 0.0000 0.0000 7.3982 0.0000
# 6 0.0000 0.0000 0.0000 0.0000 0.0000 19.1451
#
#
#
# Elastic Compliance Matrix: (Units=1/GPa)
#
#
# Indices 1 2 3 4 5 6 
#
# 1 0.020919 -0.008953 -0.005555 0.000000 0.000000 0.000000
# 2 -0.008953 0.032886 -0.005048 0.000000 0.000000 0.000000
# 3 -0.005555 -0.005048 0.008623 0.000000 0.000000 0.000000
# 4 0.000000 0.000000 0.000000 0.036274 0.000000 0.000000
# 5 0.000000 0.000000 0.000000 0.000000 0.135167 0.000000
# 6 0.000000 0.000000 0.000000 0.000000 0.000000 0.052233
#
#
# Mechanical properties :
#
#
# Convention : Reuss Voigt Hill
#
# Bulk Modulus (GPa) = 42.89224 69.38083 56.13653
# Shear Modulus (GPa) = 15.01570 21.83204 18.42387
#
# Velocity S-wave (km/s) = 2.85573 3.44343 3.16326
# Velocity P-wave (km/s) = 5.84540 7.31375 6.62041
#
# Compressibility (1/GPa) = 0.02331424
#
# Stress axis : x y z
#
# Youngs Moduli (GPa) = 47.80394 30.40849 115.97393
#
# Poissons Ratio (x) = 0.27225 0.64422
# Poissons Ratio (y) = 0.42800 0.58547
# Poissons Ratio (z) = 0.26554 0.15351
#
# Static dielectric constant tensor:
#      x y z
#    x 3.220690 0.000000 0.000000 
#    y 0.000000 3.283260 0.000000 
#    z 0.000000 0.000000 4.035830 
# 
# 
# High freq. dielectric constant tensor:
#      x y z
#    x 1.690180 0.000000 0.000000 
#    y 0.000000 1.694540 0.000000 
#    z 0.000000 0.000000 1.739900 
# 
# From -- ./inp_files/77932.got.cif
#   From: 2010.03.12/outbox.cif.g09.slc.cpg/sg65_39_cif.got.tgz:77932.got - 2010.04.10 20:52:16.
