data_PCOD8274940
_publ_section_title
;
Structure prediction by ZEFSAII (Michael W. Deem and Ramdas Pophale) SiO2 
 PCOD8274940
Probable space group: C M M M
;
_chemical_formula_sum "Si O2"
_cell_formula_units_Z 80
_cell_length_a 10.010414
_cell_length_b 51.129039
_cell_length_c 9.189903
_cell_angle_alpha 90.000000
_cell_angle_beta 90.000000
_cell_angle_gamma 90.000000
_cell_volume 4703.602325
_symmetry_space_group_name_H-M "C M M M"
_symmetry_group_IT_number 65
_symmetry_cell_setting 'orthorhombic'
loop_
_space_group_symop_operation_xyz
x,y,z
-x,-y,z
x,-y,-z
-x,y,-z
-x,-y,-z
x,y,-z
-x,y,z
x,-y,z
1/2+x,1/2+y,z
1/2-x,1/2-y,z
1/2+x,1/2-y,-z
1/2-x,1/2+y,-z
1/2-x,1/2-y,-z
1/2+x,1/2+y,-z
1/2-x,1/2+y,z
1/2+x,1/2-y,z
loop_
_atom_site_type_symbol
_atom_site_label
_atom_site_fract_x
_atom_site_fract_y
_atom_site_fract_z
Si Si1 0.350394 0.271413 0.673186
Si Si2 0.850408 0.170422 0.327084
Si Si3 0.653103 0.926691 0.829222
Si Si4 0.653042 0.873857 0.670851
Si Si5 0.850409 0.970934 0.172858
O O1 0.342927 0.270771 0.500000
O O2 0.500000 0.264438 0.724988
O O3 0.250000 0.250000 0.741425
O O4 0.311121 0.300505 0.728607
O O5 0.846321 0.170261 0.500000
O O6 0.744732 0.149471 0.265753
O O7 0.000000 0.163187 0.273415
O O8 0.500000 0.933785 0.793485
O O9 0.697606 0.900287 0.749883
O O10 0.744391 0.950065 0.765607
O O11 0.675484 0.922597 0.000000
O O12 0.674839 0.877915 0.500000
O O13 0.500000 0.866758 0.707105
O O14 0.000000 0.963220 0.224089
O O15 0.814041 0.000000 0.231200
O O16 0.843632 0.971142 0.000000
#
# Coordination Sequence:
#
# PCOD8274940 Si02
#       5
#    16  16  16  16  16
#     4   8  13  20  30  46  69  96 125 157 192 229
#     4   8  14  24  36  51  73 101 132 163 194 230
#     4   9  17  28  42  61  83 104 128 161 197 230
#     4   9  17  28  41  57  78 105 135 163 191 228
#     4   8  14  25  41  61  83 104 127 158 195 232
#
# _framework density 17.008239
#
# number of rings (size 3 to 8) (size 9 to 14) (size 15 to 20)
#    0.000    3.600    0.000    1.800    0.000    2.000 
#    0.000    6.000    0.000    0.600    0.000    4.200 
#    0.000    0.800    0.000    1.800    0.000    3.600 
#
# Total GULP energy -495730.985172 kJ/mol
# GULP energy per Si atom -12393.274629 kJ/mol
# Density = 1.696953 g / cm^3
# Si number density = 17.008239 Si / 1000 Ang^3
#
#
#
# Elastic Constant Matrix: (Units=GPa)
#
#
# Indices 1 2 3 4 5 6 
#
# 1 125.9106 119.1970 15.4190 0.0000 0.0000 0.0000
# 2 119.1970 176.7096 20.2065 0.0000 0.0000 0.0000
# 3 15.4190 20.2065 9.0672 0.0000 0.0000 0.0000
# 4 0.0000 0.0000 0.0000 -13.9433 0.0000 0.0000
# 5 0.0000 0.0000 0.0000 0.0000 9.4013 0.0000
# 6 0.0000 0.0000 0.0000 0.0000 0.0000 44.3611
#
#
#
# Elastic Compliance Matrix: (Units=1/GPa)
#
#
# Indices 1 2 3 4 5 6 
#
# 1 0.022205 -0.014306 -0.005880 0.000000 0.000000 0.000000
# 2 -0.014306 0.016811 -0.013136 0.000000 0.000000 0.000000
# 3 -0.005880 -0.013136 0.149561 0.000000 0.000000 0.000000
# 4 0.000000 0.000000 0.000000 -0.071719 0.000000 0.000000
# 5 0.000000 0.000000 0.000000 0.000000 0.106369 0.000000
# 6 0.000000 0.000000 0.000000 0.000000 0.000000 0.022542
#
#
# Mechanical properties :
#
#
# Convention : Reuss Voigt Hill
#
# Bulk Modulus (GPa) = 8.20117 69.03693 38.61905
# Shear Modulus (GPa) = 14.16201 18.42146 16.29174
#
# Velocity S-wave (km/s) = 2.88871 3.29460 3.09831
# Velocity P-wave (km/s) = 3.99481 7.42637 5.96278
#
# Compressibility (1/GPa) = 0.12193383
#
# Stress axis : x y z
#
# Youngs Moduli (GPa) = 45.03430 59.48496 6.68624
#
# Poissons Ratio (x) = 0.85099 0.03931
# Poissons Ratio (y) = 0.64426 0.08783
# Poissons Ratio (z) = 0.26478 0.78140
#
# Static dielectric constant tensor:
#      x y z
#    x 3.422930 0.000000 0.000000 
#    y 0.000000 3.559160 0.000000 
#    z 0.000000 0.000000 2.555700 
# 
# 
# High freq. dielectric constant tensor:
#      x y z
#    x 1.661030 0.000000 0.000000 
#    y 0.000000 1.665710 0.000000 
#    z 0.000000 0.000000 1.585800 
# 
# From -- ./inp_files/22848.got.cif
#   From: 2010.03.12/outbox.cif.g09.slc.cpg/sg65_12_cif.got.tgz:22848.got - 2010.04.10 20:52:16.
