data_PCOD8274808
_publ_section_title
;
Structure prediction by ZEFSAII (Michael W. Deem and Ramdas Pophale) SiO2 
 PCOD8274808
Probable space group: C M M M
;
_chemical_formula_sum "Si O2"
_cell_formula_units_Z 88
_cell_length_a 23.927787
_cell_length_b 19.625517
_cell_length_c 8.761967
_cell_angle_alpha 90.000000
_cell_angle_beta 90.000000
_cell_angle_gamma 90.000000
_cell_volume 4114.577563
_symmetry_space_group_name_H-M "C M M M"
_symmetry_group_IT_number 65
_symmetry_cell_setting 'orthorhombic'
loop_
_space_group_symop_operation_xyz
x,y,z
-x,-y,z
x,-y,-z
-x,y,-z
-x,-y,-z
x,y,-z
-x,y,z
x,-y,z
1/2+x,1/2+y,z
1/2-x,1/2-y,z
1/2+x,1/2-y,-z
1/2-x,1/2+y,-z
1/2-x,1/2-y,-z
1/2+x,1/2+y,-z
1/2-x,1/2+y,z
1/2+x,1/2-y,z
loop_
_atom_site_type_symbol
_atom_site_label
_atom_site_fract_x
_atom_site_fract_y
_atom_site_fract_z
Si Si1 0.828284 0.575823 0.674288
Si Si2 0.435824 0.500000 0.180631
Si Si3 0.936957 0.767320 0.828755
Si Si4 0.368473 0.623703 0.323033
Si Si5 0.937743 0.391574 0.175712
Si Si6 0.243231 0.171801 0.178706
O O1 0.821060 0.599609 0.500000
O O2 0.802730 0.500000 0.696774
O O3 0.893683 0.571208 0.716305
O O4 0.799688 0.630790 0.784968
O O5 0.500000 0.500000 0.242668
O O6 0.402706 0.566067 0.235651
O O7 0.436419 0.500000 0.000000
O O8 0.898618 0.804487 0.705537
O O9 0.934433 0.688367 0.792208
O O10 0.000000 0.794946 0.815027
O O11 0.914276 0.782014 0.000000
O O12 0.367441 0.605176 0.500000
O O13 0.305288 0.630935 0.265345
O O14 0.000000 0.417995 0.215490
O O15 0.923886 0.407886 0.000000
O O16 0.250000 0.250000 0.235109
O O17 0.230643 0.170470 0.000000
#
# Coordination Sequence:
#
# PCOD8274808 Si02
#       6
#    16   8  16  16  16  16
#     4  11  25  42  61  89 127 164 202 254 315 374
#     4  11  25  45  67  91 125 173 224 269 318 385
#     4   9  18  35  59  87 121 160 204 254 305 363
#     4  12  25  39  61  92 128 164 204 261 325 384
#     4   9  19  37  62  91 122 160 208 256 302 362
#     4  11  25  45  69  94 122 163 216 267 317 382
#
# _framework density 21.387371999999999
#
# number of rings (size 3 to 8) (size 9 to 14) (size 15 to 20)
#    0.000    1.545    0.000    5.727    1.273   12.000 
#    0.000    3.636    0.000    0.000    0.000    0.000 
#    0.000    0.000    0.000    0.000    0.000    0.000 
#
# Total GULP energy -545722.178446 kJ/mol
# GULP energy per Si atom -12402.776783 kJ/mol
# Density = 2.133869 g / cm^3
# Si number density = 21.387372 Si / 1000 Ang^3
#
#
#
# Elastic Constant Matrix: (Units=GPa)
#
#
# Indices 1 2 3 4 5 6 
#
# 1 110.6086 40.5752 32.1644 0.0000 0.0000 0.0000
# 2 40.5752 89.8324 33.8877 0.0000 0.0000 0.0000
# 3 32.1644 33.8877 80.5349 0.0000 0.0000 0.0000
# 4 0.0000 0.0000 0.0000 24.3669 0.0000 0.0000
# 5 0.0000 0.0000 0.0000 0.0000 24.3690 0.0000
# 6 0.0000 0.0000 0.0000 0.0000 0.0000 32.2473
#
#
#
# Elastic Compliance Matrix: (Units=1/GPa)
#
#
# Indices 1 2 3 4 5 6 
#
# 1 0.011352 -0.004062 -0.002825 0.000000 0.000000 0.000000
# 2 -0.004062 0.014686 -0.004557 0.000000 0.000000 0.000000
# 3 -0.002825 -0.004557 0.015463 0.000000 0.000000 0.000000
# 4 0.000000 0.000000 0.000000 0.041039 0.000000 0.000000
# 5 0.000000 0.000000 0.000000 0.000000 0.041036 0.000000
# 6 0.000000 0.000000 0.000000 0.000000 0.000000 0.031010
#
#
# Mechanical properties :
#
#
# Convention : Reuss Voigt Hill
#
# Bulk Modulus (GPa) = 53.72615 54.91451 54.32033
# Shear Modulus (GPa) = 27.22148 27.81986 27.52067
#
# Velocity S-wave (km/s) = 3.57148 3.61052 3.59105
# Velocity P-wave (km/s) = 6.49479 6.56605 6.53052
#
# Compressibility (1/GPa) = 0.01861291
#
# Stress axis : x y z
#
# Youngs Moduli (GPa) = 88.08712 68.09360 64.67172
#
# Poissons Ratio (x) = 0.27660 0.18268
# Poissons Ratio (y) = 0.35781 0.29472
# Poissons Ratio (z) = 0.24882 0.31031
#
# Static dielectric constant tensor:
#      x y z
#    x 4.029300 0.000000 0.000000 
#    y 0.000000 3.867990 0.000000 
#    z 0.000000 0.000000 3.695070 
# 
# 
# High freq. dielectric constant tensor:
#      x y z
#    x 1.849690 0.000000 0.000000 
#    y 0.000000 1.846170 0.000000 
#    z 0.000000 0.000000 1.828990 
# 
# From -- ./inp_files/13967.got.cif
#   From: 2010.03.12/outbox.cif.g09.slc.cpg/sg65_7_cif.got.tgz:13967.got - 2010.04.10 20:52:16.
