data_PCOD8274470
_publ_section_title
;
Structure prediction by ZEFSAII (Michael W. Deem and Ramdas Pophale) SiO2 
 PCOD8274470
Probable space group: C M M M
;
_chemical_formula_sum "Si O2"
_cell_formula_units_Z 88
_cell_length_a 9.163419
_cell_length_b 18.705888
_cell_length_c 28.319379
_cell_angle_alpha 90.000000
_cell_angle_beta 90.000000
_cell_angle_gamma 90.000000
_cell_volume 4854.221625
_symmetry_space_group_name_H-M "C M M M"
_symmetry_group_IT_number 65
_symmetry_cell_setting 'orthorhombic'
loop_
_space_group_symop_operation_xyz
x,y,z
-x,-y,z
x,-y,-z
-x,y,-z
-x,-y,-z
x,y,-z
-x,y,z
x,-y,z
1/2+x,1/2+y,z
1/2-x,1/2-y,z
1/2+x,1/2-y,-z
1/2-x,1/2+y,-z
1/2-x,1/2-y,-z
1/2+x,1/2+y,-z
1/2-x,1/2+y,z
1/2+x,1/2-y,z
loop_
_atom_site_type_symbol
_atom_site_label
_atom_site_fract_x
_atom_site_fract_y
_atom_site_fract_z
Si Si1 0.662553 0.085098 0.319511
Si Si2 0.166481 0.082599 0.054730
Si Si3 0.335445 0.085228 0.500000
Si Si4 0.826445 0.420482 0.215967
Si Si5 0.663955 0.414686 0.408925
Si Si6 0.326629 0.825649 0.870634
O O1 0.500000 0.116158 0.327547
O O2 0.724471 0.107373 0.267792
O O3 0.766255 0.115698 0.360578
O O4 0.655919 0.000000 0.321786
O O5 0.279720 0.130072 0.083595
O O6 0.000000 0.100780 0.069133
O O7 0.200458 0.000000 0.065125
O O8 0.191201 0.100132 0.000000
O O9 0.500000 0.114691 0.500000
O O10 0.254283 0.114662 0.546448
O O11 0.334489 0.000000 0.500000
O O12 0.763056 0.500000 0.205797
O O13 0.769719 0.366711 0.176027
O O14 0.000000 0.424708 0.215776
O O15 0.500000 0.385335 0.412743
O O16 0.665721 0.500000 0.408665
O O17 0.500000 0.816192 0.871042
O O18 0.250000 0.750000 0.871549
#
# Coordination Sequence:
#
# PCOD8274470 Si02
#       6
#    16  16   8  16  16  16
#     4   8  13  23  39  56  74 100 138 182 225 272
#     4   9  19  37  59  81 105 132 163 202 247 293
#     4   9  15  21  29  41  61  97 142 179 214 263
#     4   8  15  29  49  70  90 117 157 202 243 285
#     4   9  15  21  29  45  71 100 132 174 223 271
#     4  11  22  35  52  75 104 136 169 205 246 292
#
# _framework density 18.128549
#
# number of rings (size 3 to 8) (size 9 to 14) (size 15 to 20)
#    0.000    3.000    0.000    3.545    0.000    5.091 
#    0.000    2.727    0.000    4.364    0.000    0.000 
#    0.000    0.000    0.000    0.818    0.000   10.727 
#
# Total GULP energy -545434.132297 kJ/mol
# GULP energy per Si atom -12396.230279 kJ/mol
# Density = 1.808729 g / cm^3
# Si number density = 18.128549 Si / 1000 Ang^3
#
#
#
# Elastic Constant Matrix: (Units=GPa)
#
#
# Indices 1 2 3 4 5 6 
#
# 1 106.5568 34.5399 69.1126 0.0000 0.0000 0.0000
# 2 34.5399 54.7728 53.3777 0.0000 0.0000 0.0000
# 3 69.1126 53.3777 153.6371 0.0000 0.0000 0.0000
# 4 0.0000 0.0000 0.0000 0.8206 0.0000 0.0000
# 5 0.0000 0.0000 0.0000 0.0000 23.5470 0.0000
# 6 0.0000 0.0000 0.0000 0.0000 0.0000 5.1792
#
#
#
# Elastic Compliance Matrix: (Units=1/GPa)
#
#
# Indices 1 2 3 4 5 6 
#
# 1 0.013811 -0.004014 -0.004818 0.000000 0.000000 0.000000
# 2 -0.004014 0.028769 -0.008190 0.000000 0.000000 0.000000
# 3 -0.004818 -0.008190 0.011522 0.000000 0.000000 0.000000
# 4 0.000000 0.000000 0.000000 1.218551 0.000000 0.000000
# 5 0.000000 0.000000 0.000000 0.000000 0.042468 0.000000
# 6 0.000000 0.000000 0.000000 0.000000 0.000000 0.193080
#
#
# Mechanical properties :
#
#
# Convention : Reuss Voigt Hill
#
# Bulk Modulus (GPa) = 49.85394 69.89190 59.87292
# Shear Modulus (GPa) = 3.22803 16.43847 9.83325
#
# Velocity S-wave (km/s) = 1.33585 3.01453 2.33151
# Velocity P-wave (km/s) = 5.47168 7.12417 6.35189
#
# Compressibility (1/GPa) = 0.02005860
#
# Stress axis : x y z
#
# Youngs Moduli (GPa) = 72.40735 34.75908 86.79296
#
# Poissons Ratio (x) = 0.13951 0.41819
# Poissons Ratio (y) = 0.29061 0.71082
# Poissons Ratio (z) = 0.34888 0.28467
#
# Static dielectric constant tensor:
#      x y z
#    x 3.291900 0.000000 0.000000 
#    y 0.000000 2.850840 0.000000 
#    z 0.000000 0.000000 3.695220 
# 
# 
# High freq. dielectric constant tensor:
#      x y z
#    x 1.691300 0.000000 0.000000 
#    y 0.000000 1.641070 0.000000 
#    z 0.000000 0.000000 1.721790 
# 
# From -- ./inp_files/76494.got.cif
#   From: 2010.03.12/outbox.cif.g09.slc.cpg/sg65_39_cif.got.tgz:76494.got - 2010.04.10 20:52:16.
