data_PCOD8274727
_publ_section_title
;
Structure prediction by ZEFSAII (Michael W. Deem and Ramdas Pophale) SiO2 
 PCOD8274727
Probable space group: C M M M
;
_chemical_formula_sum "Si O2"
_cell_formula_units_Z 52
_cell_length_a 9.856890
_cell_length_b 16.546860
_cell_length_c 16.855579
_cell_angle_alpha 90.000000
_cell_angle_beta 90.000000
_cell_angle_gamma 90.000000
_cell_volume 2749.154692
_symmetry_space_group_name_H-M "C M M M"
_symmetry_group_IT_number 65
_symmetry_cell_setting 'orthorhombic'
loop_
_space_group_symop_operation_xyz
x,y,z
-x,-y,z
x,-y,-z
-x,y,-z
-x,-y,-z
x,y,-z
-x,y,z
x,-y,z
1/2+x,1/2+y,z
1/2-x,1/2-y,z
1/2+x,1/2-y,-z
1/2-x,1/2+y,-z
1/2-x,1/2-y,-z
1/2+x,1/2+y,-z
1/2-x,1/2+y,z
1/2+x,1/2-y,z
loop_
_atom_site_type_symbol
_atom_site_label
_atom_site_fract_x
_atom_site_fract_y
_atom_site_fract_z
Si Si1 0.718679 0.908210 0.409255
Si Si2 0.000000 0.685935 0.313732
Si Si3 0.270230 0.000000 0.908680
Si Si4 0.500000 0.624381 0.332447
Si Si5 0.500000 0.500000 0.805228
Si Si6 0.000000 0.585159 0.835272
O O1 0.701044 0.880630 0.500000
O O2 0.633674 0.847962 0.355086
O O3 0.873751 0.902488 0.384743
O O4 0.667321 0.000000 0.398140
O O5 0.000000 0.781200 0.316374
O O6 0.000000 0.662360 0.220955
O O7 0.362562 0.080174 0.889224
O O8 0.133751 0.000000 0.858273
O O9 0.228045 0.000000 0.000000
O O10 0.500000 0.580147 0.248088
O O11 0.000000 0.500000 0.783886
#
# Coordination Sequence:
#
# PCOD8274727 Si02
#       6
#    16   8   8   8   4   8
#     4  11  23  40  59  81 116 158 200 245 291 335
#     4  12  23  37  59  91 114 149 201 246 283 333
#     4   9  19  35  63  89 108 148 188 223 271 351
#     4  12  25  38  59  82 121 158 193 238 294 343
#     4  12  21  38  59  80 118 152 188 228 283 350
#     4   8  18  35  61  84 115 144 181 237 276 342
#
# _framework density 18.914906999999999
#
# number of rings (size 3 to 8) (size 9 to 14) (size 15 to 20)
#    0.923    0.308    1.538    6.231    0.000    6.154 
#    0.000    0.000    0.000    5.538    0.000    0.000 
#    0.000    0.000    0.000    0.000    0.000    0.000 
#
# Total GULP energy -322276.498562 kJ/mol
# GULP energy per Si atom -12395.249945 kJ/mol
# Density = 1.887186 g / cm^3
# Si number density = 18.914907 Si / 1000 Ang^3
#
#
#
# Elastic Constant Matrix: (Units=GPa)
#
#
# Indices 1 2 3 4 5 6 
#
# 1 125.3873 23.5271 35.2959 0.0000 0.0000 0.0000
# 2 23.5271 105.5585 51.5268 0.0000 0.0000 0.0000
# 3 35.2959 51.5268 111.3285 0.0000 0.0000 0.0000
# 4 0.0000 0.0000 0.0000 9.6091 0.0000 0.0000
# 5 0.0000 0.0000 0.0000 0.0000 46.4309 0.0000
# 6 0.0000 0.0000 0.0000 0.0000 0.0000 20.7283
#
#
#
# Elastic Compliance Matrix: (Units=1/GPa)
#
#
# Indices 1 2 3 4 5 6 
#
# 1 0.008806 -0.000775 -0.002433 0.000000 0.000000 0.000000
# 2 -0.000775 0.012307 -0.005450 0.000000 0.000000 0.000000
# 3 -0.002433 -0.005450 0.012276 0.000000 0.000000 0.000000
# 4 0.000000 0.000000 0.000000 0.104068 0.000000 0.000000
# 5 0.000000 0.000000 0.000000 0.000000 0.021537 0.000000
# 6 0.000000 0.000000 0.000000 0.000000 0.000000 0.048243
#
#
# Mechanical properties :
#
#
# Convention : Reuss Voigt Hill
#
# Bulk Modulus (GPa) = 62.21980 62.55264 62.38622
# Shear Modulus (GPa) = 21.74758 30.81530 26.28144
#
# Velocity S-wave (km/s) = 3.39449 4.04066 3.73159
# Velocity P-wave (km/s) = 6.95193 7.41023 7.18474
#
# Compressibility (1/GPa) = 0.01607205
#
# Stress axis : x y z
#
# Youngs Moduli (GPa) = 113.56411 81.25726 81.45723
#
# Poissons Ratio (x) = 0.06297 0.19819
# Poissons Ratio (y) = 0.08800 0.44396
# Poissons Ratio (z) = 0.27631 0.44287
#
# Static dielectric constant tensor:
#      x y z
#    x 3.603400 0.000000 0.000000 
#    y 0.000000 3.337270 0.000000 
#    z 0.000000 0.000000 3.331060 
# 
# 
# High freq. dielectric constant tensor:
#      x y z
#    x 1.756000 0.000000 0.000000 
#    y 0.000000 1.711950 0.000000 
#    z 0.000000 0.000000 1.728590 
# 
# From -- ./inp_files/58527.got.cif
#   From: 2010.03.12/outbox.cif.g09.slc.cpg/sg65_30_cif.got.tgz:58527.got - 2010.04.10 20:52:16.
