data_PCOD8274543
_publ_section_title
;
Structure prediction by ZEFSAII (Michael W. Deem and Ramdas Pophale) SiO2 
 PCOD8274543
Probable space group: C M M M
;
_chemical_formula_sum "Si O2"
_cell_formula_units_Z 104
_cell_length_a 26.890710
_cell_length_b 8.867014
_cell_length_c 22.922235
_cell_angle_alpha 90.000000
_cell_angle_beta 90.000000
_cell_angle_gamma 90.000000
_cell_volume 5465.584637
_symmetry_space_group_name_H-M "C M M M"
_symmetry_group_IT_number 65
_symmetry_cell_setting 'orthorhombic'
loop_
_space_group_symop_operation_xyz
x,y,z
-x,-y,z
x,-y,-z
-x,y,-z
-x,-y,-z
x,y,-z
-x,y,z
x,-y,z
1/2+x,1/2+y,z
1/2-x,1/2-y,z
1/2+x,1/2-y,-z
1/2-x,1/2+y,-z
1/2-x,1/2-y,-z
1/2+x,1/2+y,-z
1/2-x,1/2+y,z
1/2+x,1/2-y,z
loop_
_atom_site_type_symbol
_atom_site_label
_atom_site_fract_x
_atom_site_fract_y
_atom_site_fract_z
Si Si1 0.886969 0.674572 0.239670
Si Si2 0.599198 0.821678 0.371379
Si Si3 0.500000 0.179737 0.433463
Si Si4 0.800999 0.677081 0.567497
Si Si5 0.446395 0.175282 0.128200
Si Si6 0.300200 0.677548 0.172636
Si Si7 0.349584 0.820939 0.066337
O O1 0.869792 0.500000 0.238363
O O2 0.903765 0.725056 0.303762
O O3 0.932852 0.701453 0.195968
O O4 0.841888 0.778168 0.219045
O O5 0.549952 0.755224 0.402766
O O6 0.650482 0.757423 0.399044
O O7 0.599283 0.000000 0.379704
O O8 0.500000 0.235365 0.500000
O O9 0.500000 0.000000 0.429481
O O10 0.808099 0.719392 0.500000
O O11 0.796254 0.500000 0.577396
O O12 0.750000 0.750000 0.592082
O O13 0.500000 0.253350 0.116076
O O14 0.404122 0.240931 0.085297
O O15 0.451141 0.000000 0.114757
O O16 0.295310 0.500000 0.168397
O O17 0.250000 0.750000 0.196978
O O18 0.309558 0.742739 0.107792
O O19 0.346300 0.000000 0.075569
O O20 0.338898 0.773711 0.000000
#
# Coordination Sequence:
#
# PCOD8274543 Si02
#       7
#    16  16   8  16  16  16  16
#     4   9  18  32  49  73 103 132 170 214 256 303
#     4   9  17  28  46  73 105 138 173 213 261 314
#     4   9  16  26  44  76 115 147 174 215 272 323
#     4   9  17  30  47  68  96 130 167 209 256 307
#     4   8  14  25  45  72 100 130 163 205 251 291
#     4  11  22  37  56  75 100 134 171 211 261 313
#     4   9  18  33  52  77 108 137 170 211 252 300
#
# _framework density 19.028155999999999
#
# number of rings (size 3 to 8) (size 9 to 14) (size 15 to 20)
#    0.000    2.846    0.000    2.769    1.077    3.385 
#    0.000    3.846    0.000    7.385    0.000    5.923 
#    0.000    4.923    0.000    0.000    0.000    0.000 
#
# Total GULP energy -644598.223087 kJ/mol
# GULP energy per Si atom -12396.119675 kJ/mol
# Density = 1.898485 g / cm^3
# Si number density = 19.028156 Si / 1000 Ang^3
#
#
#
# Elastic Constant Matrix: (Units=GPa)
#
#
# Indices 1 2 3 4 5 6 
#
# 1 117.2796 24.0682 30.4697 0.0000 0.0000 0.0000
# 2 24.0682 43.4728 23.1694 0.0000 0.0000 0.0000
# 3 30.4697 23.1694 102.8688 0.0000 0.0000 0.0000
# 4 0.0000 0.0000 0.0000 15.5542 0.0000 0.0000
# 5 0.0000 0.0000 0.0000 0.0000 11.1272 0.0000
# 6 0.0000 0.0000 0.0000 0.0000 0.0000 20.2847
#
#
#
# Elastic Compliance Matrix: (Units=1/GPa)
#
#
# Indices 1 2 3 4 5 6 
#
# 1 0.009949 -0.004475 -0.001939 0.000000 0.000000 0.000000
# 2 -0.004475 0.028153 -0.005016 0.000000 0.000000 0.000000
# 3 -0.001939 -0.005016 0.011425 0.000000 0.000000 0.000000
# 4 0.000000 0.000000 0.000000 0.064291 0.000000 0.000000
# 5 0.000000 0.000000 0.000000 0.000000 0.089870 0.000000
# 6 0.000000 0.000000 0.000000 0.000000 0.000000 0.049298
#
#
# Mechanical properties :
#
#
# Convention : Reuss Voigt Hill
#
# Bulk Modulus (GPa) = 37.49711 46.55951 42.02831
# Shear Modulus (GPa) = 17.56022 21.78749 19.67385
#
# Velocity S-wave (km/s) = 3.04115 3.38748 3.21897
# Velocity P-wave (km/s) = 5.66395 6.31046 5.99592
#
# Compressibility (1/GPa) = 0.02666872
#
# Stress axis : x y z
#
# Youngs Moduli (GPa) = 100.51615 35.51978 87.52631
#
# Poissons Ratio (x) = 0.15893 0.16971
# Poissons Ratio (y) = 0.44976 0.43900
# Poissons Ratio (z) = 0.19490 0.17816
#
# Static dielectric constant tensor:
#      x y z
#    x 3.847620 0.000000 0.000000 
#    y 0.000000 2.973860 0.000000 
#    z 0.000000 0.000000 3.501170 
# 
# 
# High freq. dielectric constant tensor:
#      x y z
#    x 1.752490 0.000000 0.000000 
#    y 0.000000 1.684430 0.000000 
#    z 0.000000 0.000000 1.739490 
# 
# From -- ./inp_files/71867.got.cif
#   From: 2010.03.12/outbox.cif.g09.slc.cpg/sg65_36_cif.got.tgz:71867.got - 2010.04.10 20:52:16.
