data_PCOD8274186
_publ_section_title
;
Structure prediction by ZEFSAII (Michael W. Deem and Ramdas Pophale) SiO2 
 PCOD8274186
Probable space group: C M M M
;
_chemical_formula_sum "Si O2"
_cell_formula_units_Z 104
_cell_length_a 31.510414
_cell_length_b 13.866137
_cell_length_c 16.127845
_cell_angle_alpha 90.000000
_cell_angle_beta 90.000000
_cell_angle_gamma 90.000000
_cell_volume 7046.702503
_symmetry_space_group_name_H-M "C M M M"
_symmetry_group_IT_number 65
_symmetry_cell_setting 'orthorhombic'
loop_
_space_group_symop_operation_xyz
x,y,z
-x,-y,z
x,-y,-z
-x,y,-z
-x,-y,-z
x,y,-z
-x,y,z
x,-y,z
1/2+x,1/2+y,z
1/2-x,1/2-y,z
1/2+x,1/2-y,-z
1/2-x,1/2+y,-z
1/2-x,1/2-y,-z
1/2+x,1/2+y,-z
1/2-x,1/2+y,z
1/2+x,1/2-y,z
loop_
_atom_site_type_symbol
_atom_site_label
_atom_site_fract_x
_atom_site_fract_y
_atom_site_fract_z
Si Si1 0.550421 0.890184 0.755491
Si Si2 0.759214 0.605413 0.098269
Si Si3 0.949855 0.890055 0.000000
Si Si4 0.912427 0.789711 0.159654
Si Si5 0.450973 0.391244 0.311999
Si Si6 0.680339 0.271720 0.098085
Si Si7 0.049612 0.292256 0.590278
O O1 0.500000 0.877291 0.759768
O O2 0.570803 0.818810 0.823166
O O3 0.567335 0.861262 0.663337
O O4 0.564047 0.000000 0.775013
O O5 0.765256 0.500000 0.137932
O O6 0.713568 0.646198 0.125720
O O7 0.798789 0.670568 0.126175
O O8 0.759148 0.602131 0.000000
O O9 0.934379 0.831412 0.078862
O O10 0.000000 0.893614 0.000000
O O11 0.931709 0.000000 0.000000
O O12 0.922424 0.862072 0.234219
O O13 0.862065 0.786781 0.149591
O O14 0.500000 0.381205 0.284320
O O15 0.440174 0.500000 0.339907
O O16 0.441192 0.319835 0.388239
O O17 0.670590 0.274717 0.000000
O O18 0.070573 0.315159 0.500000
O O19 0.000000 0.310911 0.583040
#
# Coordination Sequence:
#
# PCOD8274186 Si02
#       7
#    16  16   8  16  16  16  16
#     4   9  18  31  44  58  81 114 145 175 214 249
#     4   8  15  28  45  59  78 100 119 158 216 264
#     4  11  22  32  43  58  77 107 148 190 223 243
#     4  11  19  30  43  59  82 109 144 185 212 243
#     4   9  17  28  40  56  83 116 143 171 213 255
#     4   9  17  29  41  61  80  98 134 173 210 252
#     4   8  14  25  42  62  80 101 135 177 214 250
#
# _framework density 14.758677
#
# number of rings (size 3 to 8) (size 9 to 14) (size 15 to 20)
#    0.000    2.846    0.769    3.692    0.000    3.692 
#    0.000    3.462    0.000    1.385    0.000    0.000 
#    0.000    0.000    0.000   44.308    0.000   96.000 
#
# Total GULP energy -644464.535387 kJ/mol
# GULP energy per Si atom -12393.548757 kJ/mol
# Density = 1.472509 g / cm^3
# Si number density = 14.758677 Si / 1000 Ang^3
#
#
#
# Elastic Constant Matrix: (Units=GPa)
#
#
# Indices 1 2 3 4 5 6 
#
# 1 65.3814 22.7912 21.1886 0.0000 0.0000 0.0000
# 2 22.7912 102.5139 25.7444 0.0000 0.0000 0.0000
# 3 21.1886 25.7444 66.4533 0.0000 0.0000 0.0000
# 4 0.0000 0.0000 0.0000 12.9962 0.0000 0.0000
# 5 0.0000 0.0000 0.0000 0.0000 -10.7114 0.0000
# 6 0.0000 0.0000 0.0000 0.0000 0.0000 14.1557
#
#
#
# Elastic Compliance Matrix: (Units=1/GPa)
#
#
# Indices 1 2 3 4 5 6 
#
# 1 0.017753 -0.002798 -0.004577 0.000000 0.000000 0.000000
# 2 -0.002798 0.011247 -0.003465 0.000000 0.000000 0.000000
# 3 -0.004577 -0.003465 0.017850 0.000000 0.000000 0.000000
# 4 0.000000 0.000000 0.000000 0.076946 0.000000 0.000000
# 5 0.000000 0.000000 0.000000 0.000000 -0.093359 0.000000
# 6 0.000000 0.000000 0.000000 0.000000 0.000000 0.070643
#
#
# Mechanical properties :
#
#
# Convention : Reuss Voigt Hill
#
# Bulk Modulus (GPa) = 39.72816 41.53300 40.63058
# Shear Modulus (GPa) = 38.12445 14.26306 26.19376
#
# Velocity S-wave (km/s) = 5.08802 3.11210 4.21741
# Velocity P-wave (km/s) = 7.84183 6.41218 7.16276
#
# Compressibility (1/GPa) = 0.02517106
#
# Stress axis : x y z
#
# Youngs Moduli (GPa) = 56.32748 88.91304 56.02274
#
# Poissons Ratio (x) = 0.24874 0.25641
# Poissons Ratio (y) = 0.15758 0.19413
# Poissons Ratio (z) = 0.25780 0.30809
#
# Static dielectric constant tensor:
#      x y z
#    x 2.620580 0.000000 0.000000 
#    y 0.000000 3.307640 0.000000 
#    z 0.000000 0.000000 2.735340 
# 
# 
# High freq. dielectric constant tensor:
#      x y z
#    x 1.532320 0.000000 0.000000 
#    y 0.000000 1.579690 0.000000 
#    z 0.000000 0.000000 1.536400 
# 
# From -- ./inp_files/48015.got.cif
#   From: 2010.03.12/outbox.cif.g09.slc.cpg/sg65_25_cif.got.tgz:48015.got - 2010.04.10 20:52:16.
