data_PCOD8274719
_publ_section_title
;
Structure prediction by ZEFSAII (Michael W. Deem and Ramdas Pophale) SiO2 
 PCOD8274719
Probable space group: C M M M
;
_chemical_formula_sum "Si O2"
_cell_formula_units_Z 88
_cell_length_a 17.249908
_cell_length_b 9.643076
_cell_length_c 26.905242
_cell_angle_alpha 90.000000
_cell_angle_beta 90.000000
_cell_angle_gamma 90.000000
_cell_volume 4475.476442
_symmetry_space_group_name_H-M "C M M M"
_symmetry_group_IT_number 65
_symmetry_cell_setting 'orthorhombic'
loop_
_space_group_symop_operation_xyz
x,y,z
-x,-y,z
x,-y,-z
-x,y,-z
-x,-y,-z
x,y,-z
-x,y,z
x,-y,z
1/2+x,1/2+y,z
1/2-x,1/2-y,z
1/2+x,1/2-y,-z
1/2-x,1/2+y,-z
1/2-x,1/2-y,-z
1/2+x,1/2+y,-z
1/2-x,1/2+y,z
1/2+x,1/2-y,z
loop_
_atom_site_type_symbol
_atom_site_label
_atom_site_fract_x
_atom_site_fract_y
_atom_site_fract_z
Si Si1 0.870322 0.000000 0.559412
Si Si2 0.407617 0.844748 0.089233
Si Si3 0.586702 0.779396 0.392099
Si Si4 0.085729 0.664090 0.801523
Si Si5 0.673188 0.165380 0.295486
Si Si6 0.808609 0.500000 0.441954
Si Si7 0.592575 0.343007 0.000000
O O1 0.912655 0.872088 0.584807
O O2 0.882328 0.000000 0.500000
O O3 0.780293 0.000000 0.574604
O O4 0.500000 0.849454 0.087746
O O5 0.381388 0.792597 0.144119
O O6 0.375213 0.737061 0.048544
O O7 0.375799 0.000000 0.077885
O O8 0.500000 0.840553 0.398452
O O9 0.607318 0.786424 0.333939
O O10 0.650635 0.864217 0.421780
O O11 0.077560 0.500000 0.799774
O O12 0.144515 0.713583 0.758929
O O13 0.000000 0.729162 0.792746
O O14 0.750000 0.250000 0.308414
O O15 0.688007 0.000000 0.299433
O O16 0.816856 0.500000 0.500000
O O17 0.624731 0.500000 0.000000
O O18 0.500000 0.343150 0.000000
#
# Coordination Sequence:
#
# PCOD8274719 Si02
#       7
#     8  16  16  16  16   8   8
#     4  11  25  45  65  89 123 161 191 232 293 350
#     4   8  13  23  41  65  93 131 177 224 268 320
#     4  12  25  40  63  91 120 154 195 243 290 339
#     4   8  15  30  53  78 105 138 183 234 280 328
#     4  11  23  39  61  85 114 149 189 235 289 349
#     4  11  23  41  65  91 121 157 199 236 279 342
#     4   9  15  21  33  59 100 141 174 211 269 335
#
# _framework density 19.662710000000001
#
# number of rings (size 3 to 8) (size 9 to 14) (size 15 to 20)
#    0.000    2.091    0.909    4.636    1.273    5.455 
#    0.000    0.909    0.000    1.091    0.000    0.636 
#    0.000    0.000    0.000    0.000    0.000    0.000 
#
# Total GULP energy -545484.265755 kJ/mol
# GULP energy per Si atom -12397.369676 kJ/mol
# Density = 1.961796 g / cm^3
# Si number density = 19.662710 Si / 1000 Ang^3
#
#
#
# Elastic Constant Matrix: (Units=GPa)
#
#
# Indices 1 2 3 4 5 6 
#
# 1 69.2539 16.0325 40.2461 0.0000 0.0000 0.0000
# 2 16.0325 95.3749 42.3548 0.0000 0.0000 0.0000
# 3 40.2461 42.3548 118.8175 0.0000 0.0000 0.0000
# 4 0.0000 0.0000 0.0000 25.7502 0.0000 0.0000
# 5 0.0000 0.0000 0.0000 0.0000 2.3278 0.0000
# 6 0.0000 0.0000 0.0000 0.0000 0.0000 16.8048
#
#
#
# Elastic Compliance Matrix: (Units=1/GPa)
#
#
# Indices 1 2 3 4 5 6 
#
# 1 0.017990 -0.000378 -0.005959 0.000000 0.000000 0.000000
# 2 -0.000378 0.012465 -0.004315 0.000000 0.000000 0.000000
# 3 -0.005959 -0.004315 0.011973 0.000000 0.000000 0.000000
# 4 0.000000 0.000000 0.000000 0.038835 0.000000 0.000000
# 5 0.000000 0.000000 0.000000 0.000000 0.429582 0.000000
# 6 0.000000 0.000000 0.000000 0.000000 0.000000 0.059507
#
#
# Mechanical properties :
#
#
# Convention : Reuss Voigt Hill
#
# Bulk Modulus (GPa) = 47.34034 53.41257 50.37646
# Shear Modulus (GPa) = 8.35147 21.29742 14.82444
#
# Velocity S-wave (km/s) = 2.06315 3.29468 2.74877
# Velocity P-wave (km/s) = 5.45930 6.45729 5.97915
#
# Compressibility (1/GPa) = 0.02112363
#
# Stress axis : x y z
#
# Youngs Moduli (GPa) = 55.58620 80.22557 83.52127
#
# Poissons Ratio (x) = 0.03031 0.49770
# Poissons Ratio (y) = 0.02100 0.36042
# Poissons Ratio (z) = 0.33124 0.34620
#
# Static dielectric constant tensor:
#      x y z
#    x 3.315690 0.000000 0.000000 
#    y 0.000000 3.736060 0.000000 
#    z 0.000000 0.000000 4.040990 
# 
# 
# High freq. dielectric constant tensor:
#      x y z
#    x 1.738020 0.000000 0.000000 
#    y 0.000000 1.749080 0.000000 
#    z 0.000000 0.000000 1.784710 
# 
# From -- ./inp_files/78005.got.cif
#   From: 2010.03.12/outbox.cif.g09.slc.cpg/sg65_40_cif.got.tgz:78005.got - 2010.04.10 20:52:16.
