data_PCOD8274114
_publ_section_title
;
Structure prediction by ZEFSAII (Michael W. Deem and Ramdas Pophale) SiO2 
 PCOD8274114
Probable space group: C M M M
;
_chemical_formula_sum "Si O2"
_cell_formula_units_Z 56
_cell_length_a 24.221115
_cell_length_b 10.531007
_cell_length_c 11.570017
_cell_angle_alpha 90.000000
_cell_angle_beta 90.000000
_cell_angle_gamma 90.000000
_cell_volume 2951.195841
_symmetry_space_group_name_H-M "C M M M"
_symmetry_group_IT_number 65
_symmetry_cell_setting 'orthorhombic'
loop_
_space_group_symop_operation_xyz
x,y,z
-x,-y,z
x,-y,-z
-x,y,-z
-x,-y,-z
x,y,-z
-x,y,z
x,-y,z
1/2+x,1/2+y,z
1/2-x,1/2-y,z
1/2+x,1/2-y,-z
1/2-x,1/2+y,-z
1/2-x,1/2-y,-z
1/2+x,1/2+y,-z
1/2-x,1/2+y,z
1/2+x,1/2-y,z
loop_
_atom_site_type_symbol
_atom_site_label
_atom_site_fract_x
_atom_site_fract_y
_atom_site_fract_z
Si Si1 0.000000 0.357817 0.375385
Si Si2 0.202656 0.646602 0.132891
Si Si3 0.934602 0.000000 0.636134
Si Si4 0.902474 0.753636 0.238531
Si Si5 0.936241 0.138528 0.000000
O O1 0.945891 0.336188 0.300527
O O2 0.000000 0.500000 0.414060
O O3 0.000000 0.279936 0.500000
O O4 0.222291 0.500000 0.154308
O O5 0.250000 0.750000 0.155597
O O6 0.155677 0.681020 0.226999
O O7 0.181856 0.660244 0.000000
O O8 0.901037 0.118224 0.686898
O O9 0.929508 0.000000 0.500000
O O10 0.000000 0.000000 0.674876
O O11 0.920783 0.780289 0.109607
O O12 0.000000 0.111135 0.000000
O O13 0.905945 0.000000 0.000000
#
# Coordination Sequence:
#
# PCOD8274114 Si02
#       5
#     8  16   8  16   8
#     4  11  24  40  59  84 118 166 210 249 306 367
#     4  10  23  41  62  91 126 163 204 251 311 378
#     4  11  22  37  61  93 127 166 210 251 298 363
#     4  12  21  37  60  90 124 158 201 253 308 367
#     4  11  20  32  51  90 129 158 190 240 307 372
#
# _framework density 18.975359999999998
#
# number of rings (size 3 to 8) (size 9 to 14) (size 15 to 20)
#    0.000    1.000    5.714    1.714    2.000    0.000 
#    0.000    0.714    0.000    3.429    0.000    0.000 
#    0.000    0.000    0.000    0.000    0.000    0.000 
#
# Total GULP energy -346970.560532 kJ/mol
# GULP energy per Si atom -12391.805733 kJ/mol
# Density = 1.893217 g / cm^3
# Si number density = 18.975360 Si / 1000 Ang^3
#
#
#
# Elastic Constant Matrix: (Units=GPa)
#
#
# Indices 1 2 3 4 5 6 
#
# 1 111.8106 60.6552 47.7050 0.0000 0.0000 0.0000
# 2 60.6552 133.4723 46.5408 0.0000 0.0000 0.0000
# 3 47.7050 46.5408 123.8015 0.0000 0.0000 0.0000
# 4 0.0000 0.0000 0.0000 84.4050 0.0000 0.0000
# 5 0.0000 0.0000 0.0000 0.0000 16.6289 0.0000
# 6 0.0000 0.0000 0.0000 0.0000 0.0000 35.0553
#
#
#
# Elastic Compliance Matrix: (Units=1/GPa)
#
#
# Indices 1 2 3 4 5 6 
#
# 1 0.012871 -0.004741 -0.003177 0.000000 0.000000 0.000000
# 2 -0.004741 0.010369 -0.002071 0.000000 0.000000 0.000000
# 3 -0.003177 -0.002071 0.010080 0.000000 0.000000 0.000000
# 4 0.000000 0.000000 0.000000 0.011848 0.000000 0.000000
# 5 0.000000 0.000000 0.000000 0.000000 0.060136 0.000000
# 6 0.000000 0.000000 0.000000 0.000000 0.000000 0.028526
#
#
# Mechanical properties :
#
#
# Convention : Reuss Voigt Hill
#
# Bulk Modulus (GPa) = 74.95534 75.43181 75.19357
# Shear Modulus (GPa) = 31.59403 41.49675 36.54539
#
# Velocity S-wave (km/s) = 4.08487 4.68148 4.39331
# Velocity P-wave (km/s) = 7.86355 8.31026 8.08999
#
# Compressibility (1/GPa) = 0.01334128
#
# Stress axis : x y z
#
# Youngs Moduli (GPa) = 77.69119 96.44121 99.20284
#
# Poissons Ratio (x) = 0.45726 0.31521
# Poissons Ratio (y) = 0.36836 0.20545
# Poissons Ratio (z) = 0.24685 0.19973
#
# Static dielectric constant tensor:
#      x y z
#    x 3.379890 0.000000 0.000000 
#    y 0.000000 3.729890 0.000000 
#    z 0.000000 0.000000 3.578740 
# 
# 
# High freq. dielectric constant tensor:
#      x y z
#    x 1.711830 0.000000 0.000000 
#    y 0.000000 1.755170 0.000000 
#    z 0.000000 0.000000 1.739380 
# 
# From -- ./inp_files/30073.got.cif
#   From: 2010.03.12/outbox.cif.g09.slc.cpg/sg65_16_cif.got.tgz:30073.got - 2010.04.10 20:52:16.
