data_PCOD8274619
_publ_section_title
;
Structure prediction by ZEFSAII (Michael W. Deem and Ramdas Pophale) SiO2 
 PCOD8274619
Probable space group: C M M M
;
_chemical_formula_sum "Si O2"
_cell_formula_units_Z 72
_cell_length_a 8.812777
_cell_length_b 16.056982
_cell_length_c 24.197358
_cell_angle_alpha 90.000000
_cell_angle_beta 90.000000
_cell_angle_gamma 90.000000
_cell_volume 3424.085900
_symmetry_space_group_name_H-M "C M M M"
_symmetry_group_IT_number 65
_symmetry_cell_setting 'orthorhombic'
loop_
_space_group_symop_operation_xyz
x,y,z
-x,-y,z
x,-y,-z
-x,y,-z
-x,-y,-z
x,y,-z
-x,y,z
x,-y,z
1/2+x,1/2+y,z
1/2-x,1/2-y,z
1/2+x,1/2-y,-z
1/2-x,1/2+y,-z
1/2-x,1/2-y,-z
1/2+x,1/2+y,-z
1/2-x,1/2+y,z
1/2+x,1/2-y,z
loop_
_atom_site_type_symbol
_atom_site_label
_atom_site_fract_x
_atom_site_fract_y
_atom_site_fract_z
Si Si1 0.326646 0.905776 0.730951
Si Si2 0.320122 0.664024 0.626644
Si Si3 0.319644 0.500000 0.437467
Si Si4 0.173219 0.597749 0.937823
Si Si5 0.321801 0.663354 0.832495
O O1 0.500000 0.874883 0.733896
O O2 0.233724 0.846724 0.689711
O O3 0.252108 0.904328 0.791779
O O4 0.317056 0.000000 0.709150
O O5 0.500000 0.670777 0.624232
O O6 0.250000 0.750000 0.602624
O O7 0.259638 0.584562 0.591664
O O8 0.500000 0.500000 0.435316
O O9 0.258596 0.500000 0.500000
O O10 0.198716 0.500000 0.932353
O O11 0.284517 0.644295 0.896189
O O12 0.000000 0.621075 0.923221
O O13 0.212631 0.626956 0.000000
O O14 0.500000 0.664887 0.824430
O O15 0.250000 0.750000 0.814204
#
# Coordination Sequence:
#
# PCOD8274619 Si02
#       5
#    16  16   8  16  16
#     4  11  23  40  63  89 121 158 200 251 309 370
#     4  11  22  39  64  94 129 168 213 261 313 371
#     4   9  20  40  65  93 129 173 216 259 310 369
#     4   9  19  38  62  85 112 148 190 238 296 361
#     4  12  25  39  57  83 117 154 197 246 300 361
#
# _framework density 21.027511000000001
#
# number of rings (size 3 to 8) (size 9 to 14) (size 15 to 20)
#    0.000    1.444    1.111    5.333    0.000    5.778 
#    0.000    1.111    0.000    4.667    0.000    0.000 
#    0.000    0.000    0.000    0.000    0.000    0.000 
#
# Total GULP energy -446529.627793 kJ/mol
# GULP energy per Si atom -12403.600772 kJ/mol
# Density = 2.097965 g / cm^3
# Si number density = 21.027511 Si / 1000 Ang^3
#
#
#
# Elastic Constant Matrix: (Units=GPa)
#
#
# Indices 1 2 3 4 5 6 
#
# 1 119.8191 49.1333 39.2018 0.0000 0.0000 0.0000
# 2 49.1333 118.8308 47.4048 0.0000 0.0000 0.0000
# 3 39.2018 47.4048 115.0004 0.0000 0.0000 0.0000
# 4 0.0000 0.0000 0.0000 27.2733 0.0000 0.0000
# 5 0.0000 0.0000 0.0000 0.0000 24.1674 0.0000
# 6 0.0000 0.0000 0.0000 0.0000 0.0000 32.9534
#
#
#
# Elastic Compliance Matrix: (Units=1/GPa)
#
#
# Indices 1 2 3 4 5 6 
#
# 1 0.010471 -0.003477 -0.002136 0.000000 0.000000 0.000000
# 2 -0.003477 0.011226 -0.003442 0.000000 0.000000 0.000000
# 3 -0.002136 -0.003442 0.010843 0.000000 0.000000 0.000000
# 4 0.000000 0.000000 0.000000 0.036666 0.000000 0.000000
# 5 0.000000 0.000000 0.000000 0.000000 0.041378 0.000000
# 6 0.000000 0.000000 0.000000 0.000000 0.000000 0.030346
#
#
# Mechanical properties :
#
#
# Convention : Reuss Voigt Hill
#
# Bulk Modulus (GPa) = 69.30629 69.45891 69.38260
# Shear Modulus (GPa) = 30.51574 31.40619 30.96097
#
# Velocity S-wave (km/s) = 3.81363 3.86887 3.84135
# Velocity P-wave (km/s) = 7.24038 7.28435 7.26240
#
# Compressibility (1/GPa) = 0.01442870
#
# Stress axis : x y z
#
# Youngs Moduli (GPa) = 95.50541 89.07656 92.22809
#
# Poissons Ratio (x) = 0.30974 0.19699
# Poissons Ratio (y) = 0.33210 0.31748
# Poissons Ratio (z) = 0.20399 0.30663
#
# Static dielectric constant tensor:
#      x y z
#    x 3.617780 0.000000 0.000000 
#    y 0.000000 3.849740 0.000000 
#    z 0.000000 0.000000 3.802010 
# 
# 
# High freq. dielectric constant tensor:
#      x y z
#    x 1.814620 0.000000 0.000000 
#    y 0.000000 1.830290 0.000000 
#    z 0.000000 0.000000 1.823000 
# 
# From -- ./inp_files/72504.got.cif
#   From: 2010.03.12/outbox.cif.g09.slc.cpg/sg65_37_cif.got.tgz:72504.got - 2010.04.10 20:52:16.
