data_PCOD8274291
_publ_section_title
;
Structure prediction by ZEFSAII (Michael W. Deem and Ramdas Pophale) SiO2 
 PCOD8274291
Probable space group: C M M M
;
_chemical_formula_sum "Si O2"
_cell_formula_units_Z 80
_cell_length_a 18.505131
_cell_length_b 16.369869
_cell_length_c 13.952057
_cell_angle_alpha 90.000000
_cell_angle_beta 90.000000
_cell_angle_gamma 90.000000
_cell_volume 4226.448776
_symmetry_space_group_name_H-M "C M M M"
_symmetry_group_IT_number 65
_symmetry_cell_setting 'orthorhombic'
loop_
_space_group_symop_operation_xyz
x,y,z
-x,-y,z
x,-y,-z
-x,y,-z
-x,-y,-z
x,y,-z
-x,y,z
x,-y,z
1/2+x,1/2+y,z
1/2-x,1/2-y,z
1/2+x,1/2-y,-z
1/2-x,1/2+y,-z
1/2-x,1/2-y,-z
1/2+x,1/2+y,-z
1/2-x,1/2+y,z
1/2+x,1/2-y,z
loop_
_atom_site_type_symbol
_atom_site_label
_atom_site_fract_x
_atom_site_fract_y
_atom_site_fract_z
Si Si1 0.282521 0.338650 0.207105
Si Si2 0.778797 0.596804 0.392335
Si Si3 0.079041 0.402804 0.710098
Si Si4 0.582493 0.405398 0.111522
Si Si5 0.653384 0.906056 0.104370
O O1 0.250000 0.250000 0.186477
O O2 0.277143 0.360325 0.320044
O O3 0.365559 0.347277 0.174673
O O4 0.235364 0.400556 0.142862
O O5 0.761379 0.625986 0.500000
O O6 0.771065 0.500000 0.382216
O O7 0.860795 0.624957 0.366571
O O8 0.077815 0.500000 0.715284
O O9 0.100027 0.367317 0.815512
O O10 0.000000 0.368932 0.680325
O O11 0.500000 0.382589 0.137261
O O12 0.597203 0.500000 0.136697
O O13 0.597570 0.389264 0.000000
O O14 0.634198 0.000000 0.091279
O O15 0.644157 0.862545 0.000000
#
# Coordination Sequence:
#
# PCOD8274291 Si02
#       5
#    16  16  16  16  16
#     4  11  21  32  49  74 104 132 160 203 262 321
#     4   9  18  33  52  71  91 122 167 213 255 304
#     4   8  14  25  42  66  93 119 153 196 236 275
#     4   9  18  34  57  81 103 134 179 223 256 293
#     4   9  17  29  45  65  92 129 169 203 237 288
#
# _framework density 18.928422000000001
#
# number of rings (size 3 to 8) (size 9 to 14) (size 15 to 20)
#    0.000    2.800    0.000    4.200    0.000    4.400 
#    0.000    8.000    0.000    0.600    0.000    2.800 
#    0.000    0.000    0.000    0.000    0.000    0.000 
#
# Total GULP energy -495724.532799 kJ/mol
# GULP energy per Si atom -12393.113320 kJ/mol
# Density = 1.888534 g / cm^3
# Si number density = 18.928422 Si / 1000 Ang^3
#
#
#
# Elastic Constant Matrix: (Units=GPa)
#
#
# Indices 1 2 3 4 5 6 
#
# 1 131.6250 33.4075 57.6051 0.0000 0.0000 0.0000
# 2 33.4075 39.6973 30.7788 0.0000 0.0000 0.0000
# 3 57.6051 30.7788 127.1281 0.0000 0.0000 0.0000
# 4 0.0000 0.0000 0.0000 10.5538 0.0000 0.0000
# 5 0.0000 0.0000 0.0000 0.0000 21.1609 0.0000
# 6 0.0000 0.0000 0.0000 0.0000 0.0000 18.0060
#
#
#
# Elastic Compliance Matrix: (Units=1/GPa)
#
#
# Indices 1 2 3 4 5 6 
#
# 1 0.010664 -0.006436 -0.003274 0.000000 0.000000 0.000000
# 2 -0.006436 0.034896 -0.005533 0.000000 0.000000 0.000000
# 3 -0.003274 -0.005533 0.010689 0.000000 0.000000 0.000000
# 4 0.000000 0.000000 0.000000 0.094753 0.000000 0.000000
# 5 0.000000 0.000000 0.000000 0.000000 0.047257 0.000000
# 6 0.000000 0.000000 0.000000 0.000000 0.000000 0.055537
#
#
# Mechanical properties :
#
#
# Convention : Reuss Voigt Hill
#
# Bulk Modulus (GPa) = 38.81265 60.22589 49.51927
# Shear Modulus (GPa) = 17.07255 21.72141 19.39698
#
# Velocity S-wave (km/s) = 3.00651 3.39123 3.20465
# Velocity P-wave (km/s) = 5.70978 6.87173 6.31753
#
# Compressibility (1/GPa) = 0.02576479
#
# Stress axis : x y z
#
# Youngs Moduli (GPa) = 93.77768 28.65643 93.55422
#
# Poissons Ratio (x) = 0.18442 0.30628
# Poissons Ratio (y) = 0.60352 0.51759
# Poissons Ratio (z) = 0.30701 0.15854
#
# Static dielectric constant tensor:
#      x y z
#    x 3.530090 0.000000 0.000000 
#    y 0.000000 3.069030 0.000000 
#    z 0.000000 0.000000 3.624470 
# 
# 
# High freq. dielectric constant tensor:
#      x y z
#    x 1.724770 0.000000 0.000000 
#    y 0.000000 1.696320 0.000000 
#    z 0.000000 0.000000 1.729850 
# 
# From -- ./inp_files/40033.got.cif
#   From: 2010.03.12/outbox.cif.g09.slc.cpg/sg65_21_cif.got.tgz:40033.got - 2010.04.10 20:52:16.
