data_PCOD8274463
_publ_section_title
;
Structure prediction by ZEFSAII (Michael W. Deem and Ramdas Pophale) SiO2 
 PCOD8274463
Probable space group: C M M M
;
_chemical_formula_sum "Si O2"
_cell_formula_units_Z 56
_cell_length_a 18.881522
_cell_length_b 9.107277
_cell_length_c 19.293461
_cell_angle_alpha 90.000000
_cell_angle_beta 90.000000
_cell_angle_gamma 90.000000
_cell_volume 3317.689103
_symmetry_space_group_name_H-M "C M M M"
_symmetry_group_IT_number 65
_symmetry_cell_setting 'orthorhombic'
loop_
_space_group_symop_operation_xyz
x,y,z
-x,-y,z
x,-y,-z
-x,y,-z
-x,-y,-z
x,y,-z
-x,y,z
x,-y,z
1/2+x,1/2+y,z
1/2-x,1/2-y,z
1/2+x,1/2-y,-z
1/2-x,1/2+y,-z
1/2-x,1/2-y,-z
1/2+x,1/2+y,-z
1/2-x,1/2+y,z
1/2+x,1/2-y,z
loop_
_atom_site_type_symbol
_atom_site_label
_atom_site_fract_x
_atom_site_fract_y
_atom_site_fract_z
Si Si1 0.581488 0.832079 0.580334
Si Si2 0.674655 0.325555 0.310370
Si Si3 0.500000 0.826985 0.921032
Si Si4 0.422200 0.335867 0.186593
O O1 0.599613 0.809545 0.500000
O O2 0.500000 0.792311 0.594952
O O3 0.631134 0.723070 0.622603
O O4 0.596647 0.000000 0.602338
O O5 0.682792 0.500000 0.311936
O O6 0.750000 0.250000 0.310789
O O7 0.634141 0.271712 0.240939
O O8 0.429051 0.764765 0.882676
O O9 0.500000 0.000000 0.915639
O O10 0.500000 0.772421 0.000000
O O11 0.500000 0.338670 0.223253
O O12 0.400032 0.500000 0.163654
#
# Coordination Sequence:
#
# PCOD8274463 Si02
#       4
#    16  16   8  16
#     4   9  19  36  56  77 101 131 170 215 262 309
#     4  11  22  35  51  74 104 137 175 214 255 305
#     4   9  17  29  51  83 108 127 160 205 247 292
#     4   8  17  33  51  73 101 132 166 205 248 300
#
# _framework density 16.879218999999999
#
# number of rings (size 3 to 8) (size 9 to 14) (size 15 to 20)
#    0.857    1.857    0.000    2.571    0.000    6.286 
#    0.000    1.429    0.000    0.857    0.000    0.000 
#    0.000    0.000    0.000    0.000    0.000    0.000 
#
# Total GULP energy -346994.221606 kJ/mol
# GULP energy per Si atom -12392.650772 kJ/mol
# Density = 1.684080 g / cm^3
# Si number density = 16.879219 Si / 1000 Ang^3
#
#
#
# Elastic Constant Matrix: (Units=GPa)
#
#
# Indices 1 2 3 4 5 6 
#
# 1 94.5224 46.7652 64.9243 0.0000 0.0000 0.0000
# 2 46.7652 76.8190 58.8776 0.0000 0.0000 0.0000
# 3 64.9243 58.8776 120.1757 0.0000 0.0000 0.0000
# 4 0.0000 0.0000 0.0000 30.7625 0.0000 0.0000
# 5 0.0000 0.0000 0.0000 0.0000 5.5164 0.0000
# 6 0.0000 0.0000 0.0000 0.0000 0.0000 13.2245
#
#
#
# Elastic Compliance Matrix: (Units=1/GPa)
#
#
# Indices 1 2 3 4 5 6 
#
# 1 0.018253 -0.005691 -0.007073 0.000000 0.000000 0.000000
# 2 -0.005691 0.022619 -0.008007 0.000000 0.000000 0.000000
# 3 -0.007073 -0.008007 0.016065 0.000000 0.000000 0.000000
# 4 0.000000 0.000000 0.000000 0.032507 0.000000 0.000000
# 5 0.000000 0.000000 0.000000 0.000000 0.181277 0.000000
# 6 0.000000 0.000000 0.000000 0.000000 0.000000 0.075617
#
#
# Mechanical properties :
#
#
# Convention : Reuss Voigt Hill
#
# Bulk Modulus (GPa) = 64.95522 70.29458 67.62490
# Shear Modulus (GPa) = 12.72220 17.96403 15.34311
#
# Velocity S-wave (km/s) = 2.74837 3.26585 3.01822
# Velocity P-wave (km/s) = 6.97405 7.48045 7.23168
#
# Compressibility (1/GPa) = 0.01539522
#
# Stress axis : x y z
#
# Youngs Moduli (GPa) = 54.78416 44.21006 62.24552
#
# Poissons Ratio (x) = 0.25160 0.44027
# Poissons Ratio (y) = 0.31178 0.49842
# Poissons Ratio (z) = 0.38750 0.35400
#
# Static dielectric constant tensor:
#      x y z
#    x 3.015350 0.000000 0.000000 
#    y 0.000000 3.120190 0.000000 
#    z 0.000000 0.000000 3.092240 
# 
# 
# High freq. dielectric constant tensor:
#      x y z
#    x 1.632030 0.000000 0.000000 
#    y 0.000000 1.655380 0.000000 
#    z 0.000000 0.000000 1.642310 
# 
# From -- ./inp_files/53896.got.cif
#   From: 2010.03.12/outbox.cif.g09.slc.cpg/sg65_27_cif.got.tgz:53896.got - 2010.04.10 20:52:16.
