data_PCOD8274711
_publ_section_title
;
Structure prediction by ZEFSAII (Michael W. Deem and Ramdas Pophale) SiO2 
 PCOD8274711
Probable space group: C M M M
;
_chemical_formula_sum "Si O2"
_cell_formula_units_Z 72
_cell_length_a 18.515563
_cell_length_b 8.882858
_cell_length_c 23.284463
_cell_angle_alpha 90.000000
_cell_angle_beta 90.000000
_cell_angle_gamma 90.000000
_cell_volume 3829.621636
_symmetry_space_group_name_H-M "C M M M"
_symmetry_group_IT_number 65
_symmetry_cell_setting 'orthorhombic'
loop_
_space_group_symop_operation_xyz
x,y,z
-x,-y,z
x,-y,-z
-x,y,-z
-x,-y,-z
x,y,-z
-x,y,z
x,-y,z
1/2+x,1/2+y,z
1/2-x,1/2-y,z
1/2+x,1/2-y,-z
1/2-x,1/2+y,-z
1/2-x,1/2-y,-z
1/2+x,1/2+y,-z
1/2-x,1/2+y,z
1/2+x,1/2-y,z
loop_
_atom_site_type_symbol
_atom_site_label
_atom_site_fract_x
_atom_site_fract_y
_atom_site_fract_z
Si Si1 0.328980 0.320951 0.896456
Si Si2 0.417990 0.177413 0.669481
Si Si3 0.082174 0.823129 0.214873
Si Si4 0.173712 0.322661 0.436352
Si Si5 0.085152 0.677024 0.000000
O O1 0.323625 0.500000 0.904009
O O2 0.250000 0.250000 0.900765
O O3 0.365382 0.273910 0.836445
O O4 0.380225 0.253446 0.944737
O O5 0.500000 0.229486 0.663289
O O6 0.385414 0.249368 0.727336
O O7 0.379365 0.240233 0.612490
O O8 0.409576 0.000000 0.674524
O O9 0.000000 0.766313 0.202710
O O10 0.082609 0.000000 0.223188
O O11 0.144531 0.278634 0.500000
O O12 0.182335 0.500000 0.431255
O O13 0.250000 0.250000 0.424376
O O14 0.102069 0.500000 0.000000
O O15 0.000000 0.709680 0.000000
#
# Coordination Sequence:
#
# PCOD8274711 Si02
#       5
#    16  16  16  16   8
#     4  11  23  39  59  83 113 146 181 221 265 314
#     4   9  18  32  51  75 101 131 169 214 261 307
#     4   9  19  36  56  77 103 138 177 215 259 312
#     4   9  18  32  49  70  98 132 169 209 255 309
#     4  11  24  41  62  87 113 143 180 221 266 315
#
# _framework density 18.800813999999999
#
# number of rings (size 3 to 8) (size 9 to 14) (size 15 to 20)
#    0.000    2.333    0.000    2.000    0.000    5.778 
#    0.000    8.889    0.000    0.000    0.000    6.222 
#    0.000    0.000    0.000    0.000    0.000    0.000 
#
# Total GULP energy -446379.417745 kJ/mol
# GULP energy per Si atom -12399.428271 kJ/mol
# Density = 1.875802 g / cm^3
# Si number density = 18.800814 Si / 1000 Ang^3
#
#
#
# Elastic Constant Matrix: (Units=GPa)
#
#
# Indices 1 2 3 4 5 6 
#
# 1 107.9175 42.9734 92.4565 0.0000 0.0000 0.0000
# 2 42.9734 48.9233 57.2495 0.0000 0.0000 0.0000
# 3 92.4565 57.2495 195.8913 0.0000 0.0000 0.0000
# 4 0.0000 0.0000 0.0000 31.6404 0.0000 0.0000
# 5 0.0000 0.0000 0.0000 0.0000 17.2861 0.0000
# 6 0.0000 0.0000 0.0000 0.0000 0.0000 26.1600
#
#
#
# Elastic Compliance Matrix: (Units=1/GPa)
#
#
# Indices 1 2 3 4 5 6 
#
# 1 0.017738 -0.008790 -0.005803 0.000000 0.000000 0.000000
# 2 -0.008790 0.035420 -0.006203 0.000000 0.000000 0.000000
# 3 -0.005803 -0.006203 0.009657 0.000000 0.000000 0.000000
# 4 0.000000 0.000000 0.000000 0.031605 0.000000 0.000000
# 5 0.000000 0.000000 0.000000 0.000000 0.057850 0.000000
# 6 0.000000 0.000000 0.000000 0.000000 0.000000 0.038226
#
#
# Mechanical properties :
#
#
# Convention : Reuss Voigt Hill
#
# Bulk Modulus (GPa) = 47.11992 82.01011 64.56501
# Shear Modulus (GPa) = 20.90627 25.68748 23.29688
#
# Velocity S-wave (km/s) = 3.33827 3.70035 3.52396
# Velocity P-wave (km/s) = 6.32264 7.87223 7.13960
#
# Compressibility (1/GPa) = 0.02122245
#
# Stress axis : x y z
#
# Youngs Moduli (GPa) = 56.37456 28.23286 103.55655
#
# Poissons Ratio (x) = 0.24818 0.60096
# Poissons Ratio (y) = 0.49555 0.64232
# Poissons Ratio (z) = 0.32715 0.17512
#
# Static dielectric constant tensor:
#      x y z
#    x 3.488370 0.000000 0.000000 
#    y 0.000000 3.419780 0.000000 
#    z 0.000000 0.000000 3.853480 
# 
# 
# High freq. dielectric constant tensor:
#      x y z
#    x 1.726290 0.000000 0.000000 
#    y 0.000000 1.725830 0.000000 
#    z 0.000000 0.000000 1.749490 
# 
# From -- ./inp_files/64352.got.cif
#   From: 2010.03.12/outbox.cif.g09.slc.cpg/sg65_33_cif.got.tgz:64352.got - 2010.04.10 20:52:16.
