data_PCOD8274089
_publ_section_title
;
Structure prediction by ZEFSAII (Michael W. Deem and Ramdas Pophale) SiO2 
 PCOD8274089
Probable space group: C M M M
;
_chemical_formula_sum "Si O2"
_cell_formula_units_Z 72
_cell_length_a 10.087991
_cell_length_b 14.811829
_cell_length_c 23.700062
_cell_angle_alpha 90.000000
_cell_angle_beta 90.000000
_cell_angle_gamma 90.000000
_cell_volume 3541.301128
_symmetry_space_group_name_H-M "C M M M"
_symmetry_group_IT_number 65
_symmetry_cell_setting 'orthorhombic'
loop_
_space_group_symop_operation_xyz
x,y,z
-x,-y,z
x,-y,-z
-x,y,-z
-x,-y,-z
x,y,-z
-x,y,z
x,-y,z
1/2+x,1/2+y,z
1/2-x,1/2-y,z
1/2+x,1/2-y,-z
1/2-x,1/2+y,-z
1/2-x,1/2-y,-z
1/2+x,1/2+y,-z
1/2-x,1/2+y,z
1/2+x,1/2-y,z
loop_
_atom_site_type_symbol
_atom_site_label
_atom_site_fract_x
_atom_site_fract_y
_atom_site_fract_z
Si Si1 0.151660 0.666516 0.439141
Si Si2 0.500000 0.597126 0.735246
Si Si3 0.500000 0.263455 0.836300
Si Si4 0.763192 0.356639 0.322707
Si Si5 0.657503 0.893721 0.000000
Si Si6 0.500000 0.100557 0.240308
Si Si7 0.750000 0.250000 0.089024
O O1 0.162715 0.614566 0.500000
O O2 0.250000 0.750000 0.441455
O O3 0.192841 0.606112 0.384754
O O4 0.000000 0.700059 0.430367
O O5 0.500000 0.500000 0.766326
O O6 0.500000 0.674820 0.781201
O O7 0.624753 0.600716 0.693991
O O8 0.500000 0.160620 0.815748
O O9 0.370850 0.283362 0.872862
O O10 0.750000 0.250000 0.324844
O O11 0.870044 0.383327 0.276638
O O12 0.712457 0.839412 0.053835
O O13 0.500000 0.888065 0.000000
O O14 0.703011 0.000000 0.000000
O O15 0.500000 0.000000 0.216309
#
# Coordination Sequence:
#
# PCOD8274089 Si02
#       7
#    16   8   8  16   8   8   8
#     4   9  18  31  54  88 117 150 202 263 325 389
#     4  12  26  42  62  89 128 171 212 263 318 374
#     4  12  24  43  64  98 137 170 218 262 316 356
#     4  11  20  39  62  86 121 165 208 261 325 390
#     4  10  22  45  74 105 136 175 215 252 310 368
#     4  12  24  40  64  91 122 169 222 261 310 380
#     4  11  24  42  72 102 136 172 213 264 306 362
#
# _framework density 20.331510000000002
#
# number of rings (size 3 to 8) (size 9 to 14) (size 15 to 20)
#    0.000    1.222    4.444    2.000    4.667    1.778 
#    0.000    0.556    0.000    4.000    0.000    0.000 
#    0.000    0.000    0.000    0.000    0.000    0.000 
#
# Total GULP energy -446187.983114 kJ/mol
# GULP energy per Si atom -12394.110642 kJ/mol
# Density = 2.028524 g / cm^3
# Si number density = 20.331510 Si / 1000 Ang^3
#
#
#
# Elastic Constant Matrix: (Units=GPa)
#
#
# Indices 1 2 3 4 5 6 
#
# 1 169.9339 26.4654 66.6454 0.0000 0.0000 0.0000
# 2 26.4654 119.6224 41.1905 0.0000 0.0000 0.0000
# 3 66.6454 41.1905 132.7779 0.0000 0.0000 0.0000
# 4 0.0000 0.0000 0.0000 1404.5533 0.0000 0.0000
# 5 0.0000 0.0000 0.0000 0.0000 45.9422 0.0000
# 6 0.0000 0.0000 0.0000 0.0000 0.0000 32.0388
#
#
#
# Elastic Compliance Matrix: (Units=1/GPa)
#
#
# Indices 1 2 3 4 5 6 
#
# 1 0.007344 -0.000398 -0.003563 0.000000 0.000000 0.000000
# 2 -0.000398 0.009381 -0.002710 0.000000 0.000000 0.000000
# 3 -0.003563 -0.002710 0.010160 0.000000 0.000000 0.000000
# 4 0.000000 0.000000 0.000000 0.000712 0.000000 0.000000
# 5 0.000000 0.000000 0.000000 0.000000 0.021766 0.000000
# 6 0.000000 0.000000 0.000000 0.000000 0.000000 0.031212
#
#
# Mechanical properties :
#
#
# Convention : Reuss Voigt Hill
#
# Bulk Modulus (GPa) = 73.83822 76.77077 75.30449
# Shear Modulus (GPa) = 50.79634 315.70905 183.25269
#
# Velocity S-wave (km/s) = 5.00383 12.47469 9.50411
# Velocity P-wave (km/s) = 8.35346 15.66307 12.55213
#
# Compressibility (1/GPa) = 0.01354312
#
# Stress axis : x y z
#
# Youngs Moduli (GPa) = 136.16869 106.59862 98.42143
#
# Poissons Ratio (x) = 0.04243 0.35064
# Poissons Ratio (y) = 0.05420 0.26676
# Poissons Ratio (z) = 0.48512 0.28892
#
# Static dielectric constant tensor:
#      x y z
#    x 3.854250 0.000000 0.000000 
#    y 0.000000 3.596570 0.000000 
#    z 0.000000 0.000000 4.251200 
# 
# 
# High freq. dielectric constant tensor:
#      x y z
#    x 1.815180 0.000000 0.000000 
#    y 0.000000 1.771290 0.000000 
#    z 0.000000 0.000000 1.809200 
# 
# From -- ./inp_files/72666.got.cif
#   From: 2010.03.12/outbox.cif.g09.slc.cpg/sg65_37_cif.got.tgz:72666.got - 2010.04.10 20:52:16.
