data_PCOD8274567
_publ_section_title
;
Structure prediction by ZEFSAII (Michael W. Deem and Ramdas Pophale) SiO2 
 PCOD8274567
Probable space group: C M M M
;
_chemical_formula_sum "Si O2"
_cell_formula_units_Z 68
_cell_length_a 14.858701
_cell_length_b 22.997101
_cell_length_c 11.066009
_cell_angle_alpha 90.000000
_cell_angle_beta 90.000000
_cell_angle_gamma 90.000000
_cell_volume 3781.333264
_symmetry_space_group_name_H-M "C M M M"
_symmetry_group_IT_number 65
_symmetry_cell_setting 'orthorhombic'
loop_
_space_group_symop_operation_xyz
x,y,z
-x,-y,z
x,-y,-z
-x,y,-z
-x,-y,-z
x,y,-z
-x,y,z
x,-y,z
1/2+x,1/2+y,z
1/2-x,1/2-y,z
1/2+x,1/2-y,-z
1/2-x,1/2+y,-z
1/2-x,1/2-y,-z
1/2+x,1/2+y,-z
1/2-x,1/2+y,z
1/2+x,1/2-y,z
loop_
_atom_site_type_symbol
_atom_site_label
_atom_site_fract_x
_atom_site_fract_y
_atom_site_fract_z
Si Si1 0.895988 0.000000 0.643176
Si Si2 0.500000 0.668601 0.142051
Si Si3 0.803228 0.308177 0.858927
Si Si4 0.000000 0.706966 0.235468
Si Si5 0.167492 0.121150 0.269314
Si Si6 0.000000 0.280887 0.500000
Si Si7 0.328929 0.702982 0.500000
O O1 0.840145 0.054754 0.690958
O O2 0.895765 0.000000 0.500000
O O3 0.000000 0.000000 0.688731
O O4 0.500000 0.723590 0.230582
O O5 0.587963 0.632284 0.173992
O O6 0.500000 0.685960 0.000000
O O7 0.750000 0.250000 0.810036
O O8 0.760404 0.365852 0.799984
O O9 0.908959 0.312418 0.830647
O O10 0.788787 0.310878 0.000000
O O11 0.000000 0.682590 0.374241
O O12 0.168121 0.162322 0.384546
O O13 0.084386 0.240808 0.500000
O O14 0.250000 0.750000 0.500000
#
# Coordination Sequence:
#
# PCOD8274567 Si02
#       7
#     8   8  16   8  16   4   8
#     4  11  24  40  62  89 124 165 205 247 303 361
#     4  12  22  35  56  85 122 160 199 246 293 361
#     4  11  22  37  58  87 124 162 201 248 304 368
#     4  12  22  36  57  89 127 160 199 242 311 376
#     4  12  22  39  58  87 120 162 203 244 296 359
#     4  12  20  32  52  85 120 153 186 242 282 346
#     4  12  22  35  56  87 123 154 192 241 295 353
#
# _framework density 17.983074999999999
#
# number of rings (size 3 to 8) (size 9 to 14) (size 15 to 20)
#    0.000    0.353    7.059    3.882    0.000    0.000 
#    0.000    2.941    0.000    0.706    0.000    2.471 
#    0.000    0.000    0.000    0.000    0.000    0.000 
#
# Total GULP energy -421415.132189 kJ/mol
# GULP energy per Si atom -12394.562711 kJ/mol
# Density = 1.794214 g / cm^3
# Si number density = 17.983075 Si / 1000 Ang^3
#
#
#
# Elastic Constant Matrix: (Units=GPa)
#
#
# Indices 1 2 3 4 5 6 
#
# 1 148.1543 48.8496 26.9012 0.0000 0.0000 0.0000
# 2 48.8496 88.9621 21.3634 0.0000 0.0000 0.0000
# 3 26.9012 21.3634 91.5715 0.0000 0.0000 0.0000
# 4 0.0000 0.0000 0.0000 21.7013 0.0000 0.0000
# 5 0.0000 0.0000 0.0000 0.0000 32.9189 0.0000
# 6 0.0000 0.0000 0.0000 0.0000 0.0000 30.3493
#
#
#
# Elastic Compliance Matrix: (Units=1/GPa)
#
#
# Indices 1 2 3 4 5 6 
#
# 1 0.008427 -0.004272 -0.001479 0.000000 0.000000 0.000000
# 2 -0.004272 0.014074 -0.002028 0.000000 0.000000 0.000000
# 3 -0.001479 -0.002028 0.011828 0.000000 0.000000 0.000000
# 4 0.000000 0.000000 0.000000 0.046080 0.000000 0.000000
# 5 0.000000 0.000000 0.000000 0.000000 0.030378 0.000000
# 6 0.000000 0.000000 0.000000 0.000000 0.000000 0.032950
#
#
# Mechanical properties :
#
#
# Convention : Reuss Voigt Hill
#
# Bulk Modulus (GPa) = 53.27662 58.10180 55.68921
# Shear Modulus (GPa) = 30.20211 32.43216 31.31713
#
# Velocity S-wave (km/s) = 4.10258 4.25135 4.17763
# Velocity P-wave (km/s) = 7.22024 7.51518 7.36919
#
# Compressibility (1/GPa) = 0.01876996
#
# Stress axis : x y z
#
# Youngs Moduli (GPa) = 118.66831 71.05478 84.54447
#
# Poissons Ratio (x) = 0.30355 0.12503
# Poissons Ratio (y) = 0.50696 0.17148
# Poissons Ratio (z) = 0.17550 0.14412
#
# Static dielectric constant tensor:
#      x y z
#    x 3.425110 0.000000 0.000000 
#    y 0.000000 3.103510 0.000000 
#    z 0.000000 0.000000 3.525250 
# 
# 
# High freq. dielectric constant tensor:
#      x y z
#    x 1.706260 0.000000 0.000000 
#    y 0.000000 1.650000 0.000000 
#    z 0.000000 0.000000 1.719680 
# 
# From -- ./inp_files/24346.got.cif
#   From: 2010.03.12/outbox.cif.g09.slc.cpg/sg65_13_cif.got.tgz:24346.got - 2010.04.10 20:52:16.
