data_PCOD8274782
_publ_section_title
;
Structure prediction by ZEFSAII (Michael W. Deem and Ramdas Pophale) SiO2 
 PCOD8274782
Probable space group: C M M M
;
_chemical_formula_sum "Si O2"
_cell_formula_units_Z 96
_cell_length_a 16.526332
_cell_length_b 21.863569
_cell_length_c 13.550737
_cell_angle_alpha 90.000000
_cell_angle_beta 90.000000
_cell_angle_gamma 90.000000
_cell_volume 4896.214626
_symmetry_space_group_name_H-M "C M M M"
_symmetry_group_IT_number 65
_symmetry_cell_setting 'orthorhombic'
loop_
_space_group_symop_operation_xyz
x,y,z
-x,-y,z
x,-y,-z
-x,y,-z
-x,-y,-z
x,y,-z
-x,y,z
x,-y,z
1/2+x,1/2+y,z
1/2-x,1/2-y,z
1/2+x,1/2-y,-z
1/2-x,1/2+y,-z
1/2-x,1/2-y,-z
1/2+x,1/2+y,-z
1/2-x,1/2+y,z
1/2+x,1/2-y,z
loop_
_atom_site_type_symbol
_atom_site_label
_atom_site_fract_x
_atom_site_fract_y
_atom_site_fract_z
Si Si1 0.648202 0.138427 0.707444
Si Si2 0.904502 0.759045 0.613367
Si Si3 0.000000 0.567902 0.384221
Si Si4 0.832730 0.881401 0.301301
Si Si5 0.905670 0.430878 0.113027
Si Si6 0.405964 0.428974 0.887788
Si Si7 0.088673 0.000000 0.614866
O O1 0.636018 0.210089 0.686957
O O2 0.582023 0.101190 0.646321
O O3 0.738248 0.122195 0.674933
O O4 0.639958 0.120069 0.822428
O O5 0.875643 0.749225 0.500000
O O6 0.879062 0.824769 0.651710
O O7 0.000000 0.751890 0.619967
O O8 0.000000 0.500000 0.337414
O O9 0.000000 0.564794 0.500000
O O10 0.852488 0.886594 0.184364
O O11 0.862834 0.940841 0.355615
O O12 0.873800 0.500000 0.134345
O O13 0.000000 0.427738 0.139347
O O14 0.889861 0.413586 0.000000
O O15 0.500000 0.412313 0.874927
O O16 0.391185 0.500000 0.861049
O O17 0.378260 0.415934 0.000000
O O18 0.076175 0.000000 0.500000
O O19 0.000000 0.000000 0.666795
#
# Coordination Sequence:
#
# PCOD8274782 Si02
#       7
#    16  16   8  16  16  16   8
#     4  12  24  40  62  92 128 163 209 263 312 374
#     4  11  24  45  68  87 117 169 219 259 315 385
#     4  11  24  40  61  87 123 168 211 258 314 375
#     4  12  25  38  63  96 127 160 207 269 316 374
#     4   9  18  35  62  91 123 165 209 252 306 371
#     4   9  18  36  63  93 127 166 206 252 312 380
#     4  11  24  42  61  88 126 163 203 258 319 380
#
# _framework density 19.606983
#
# number of rings (size 3 to 8) (size 9 to 14) (size 15 to 20)
#    0.000    1.333    2.500    4.500    2.333    5.333 
#    0.000    2.500    0.000    5.000    0.000    0.000 
#    0.000    0.000    0.000    0.000    0.000    0.000 
#
# Total GULP energy -595240.750059 kJ/mol
# GULP energy per Si atom -12400.848960 kJ/mol
# Density = 1.956236 g / cm^3
# Si number density = 19.606983 Si / 1000 Ang^3
#
#
#
# Elastic Constant Matrix: (Units=GPa)
#
#
# Indices 1 2 3 4 5 6 
#
# 1 102.1079 42.9861 35.0045 0.0000 0.0000 0.0000
# 2 42.9861 138.6868 54.2968 0.0000 0.0000 0.0000
# 3 35.0045 54.2968 99.2691 0.0000 0.0000 0.0000
# 4 0.0000 0.0000 0.0000 25.2827 0.0000 0.0000
# 5 0.0000 0.0000 0.0000 0.0000 9.8353 0.0000
# 6 0.0000 0.0000 0.0000 0.0000 0.0000 17.9613
#
#
#
# Elastic Compliance Matrix: (Units=1/GPa)
#
#
# Indices 1 2 3 4 5 6 
#
# 1 0.011827 -0.002587 -0.002756 0.000000 0.000000 0.000000
# 2 -0.002587 0.009741 -0.004416 0.000000 0.000000 0.000000
# 3 -0.002756 -0.004416 0.013461 0.000000 0.000000 0.000000
# 4 0.000000 0.000000 0.000000 0.039553 0.000000 0.000000
# 5 0.000000 0.000000 0.000000 0.000000 0.101675 0.000000
# 6 0.000000 0.000000 0.000000 0.000000 0.000000 0.055675
#
#
# Mechanical properties :
#
#
# Convention : Reuss Voigt Hill
#
# Bulk Modulus (GPa) = 64.46533 67.18208 65.82371
# Shear Modulus (GPa) = 19.48410 24.46761 21.97585
#
# Velocity S-wave (km/s) = 3.15577 3.53640 3.35149
# Velocity P-wave (km/s) = 6.79917 7.14238 6.97288
#
# Compressibility (1/GPa) = 0.01551221
#
# Stress axis : x y z
#
# Youngs Moduli (GPa) = 84.54988 102.65688 74.29091
#
# Poissons Ratio (x) = 0.26558 0.20471
# Poissons Ratio (y) = 0.21874 0.32806
# Poissons Ratio (z) = 0.23298 0.45332
#
# Static dielectric constant tensor:
#      x y z
#    x 3.555900 0.000000 0.000000 
#    y 0.000000 3.561230 0.000000 
#    z 0.000000 0.000000 3.815280 
# 
# 
# High freq. dielectric constant tensor:
#      x y z
#    x 1.764740 0.000000 0.000000 
#    y 0.000000 1.754270 0.000000 
#    z 0.000000 0.000000 1.777430 
# 
# From -- ./inp_files/40426.got.cif
#   From: 2010.03.12/outbox.cif.g09.slc.cpg/sg65_21_cif.got.tgz:40426.got - 2010.04.10 20:52:16.
