data_PCOD8274606
_publ_section_title
;
Structure prediction by ZEFSAII (Michael W. Deem and Ramdas Pophale) SiO2 
 PCOD8274606
Probable space group: C M M M
;
_chemical_formula_sum "Si O2"
_cell_formula_units_Z 56
_cell_length_a 10.047022
_cell_length_b 27.548499
_cell_length_c 11.112305
_cell_angle_alpha 90.000000
_cell_angle_beta 90.000000
_cell_angle_gamma 90.000000
_cell_volume 3075.667951
_symmetry_space_group_name_H-M "C M M M"
_symmetry_group_IT_number 65
_symmetry_cell_setting 'orthorhombic'
loop_
_space_group_symop_operation_xyz
x,y,z
-x,-y,z
x,-y,-z
-x,y,-z
-x,-y,-z
x,y,-z
-x,y,z
x,-y,z
1/2+x,1/2+y,z
1/2-x,1/2-y,z
1/2+x,1/2-y,-z
1/2-x,1/2+y,-z
1/2-x,1/2-y,-z
1/2+x,1/2+y,-z
1/2-x,1/2+y,z
1/2+x,1/2-y,z
loop_
_atom_site_type_symbol
_atom_site_label
_atom_site_fract_x
_atom_site_fract_y
_atom_site_fract_z
Si Si1 0.341597 0.796745 0.500000
Si Si2 0.000000 0.808881 0.145441
Si Si3 0.735888 0.850208 0.742133
Si Si4 0.000000 0.700005 0.136776
Si Si5 0.344068 0.054630 0.362638
O O1 0.500000 0.784705 0.500000
O O2 0.250000 0.750000 0.500000
O O3 0.302224 0.827610 0.385076
O O4 0.876165 0.835721 0.204338
O O5 0.000000 0.753611 0.197398
O O6 0.000000 0.813407 0.000000
O O7 0.628827 0.831528 0.836797
O O8 0.732793 0.908474 0.725694
O O9 0.000000 0.714084 0.000000
O O10 0.294874 0.060759 0.500000
O O11 0.500000 0.066330 0.356097
O O12 0.314380 0.000000 0.317742
#
# Coordination Sequence:
#
# PCOD8274606 Si02
#       5
#     8   8  16   8  16
#     4  12  24  36  57  91 128 158 189 240 310 368
#     4  11  26  43  58  83 118 167 211 240 286 352
#     4  12  22  38  61  87 123 153 197 249 297 350
#     4  11  22  39  62  83 112 161 211 248 282 340
#     4   9  17  34  60  89 118 150 190 238 297 362
#
# _framework density 18.207426000000002
#
# number of rings (size 3 to 8) (size 9 to 14) (size 15 to 20)
#    0.000    1.143    4.286    4.286    2.000    2.286 
#    0.000    0.714    0.000    6.857    0.000    0.000 
#    0.000    0.000    0.000    0.000    0.000    0.000 
#
# Total GULP energy -347125.804459 kJ/mol
# GULP energy per Si atom -12397.350159 kJ/mol
# Density = 1.816598 g / cm^3
# Si number density = 18.207426 Si / 1000 Ang^3
#
#
#
# Elastic Constant Matrix: (Units=GPa)
#
#
# Indices 1 2 3 4 5 6 
#
# 1 143.2081 62.5041 42.9480 0.0000 0.0000 0.0000
# 2 62.5041 160.2946 37.7406 0.0000 0.0000 0.0000
# 3 42.9480 37.7406 65.1548 0.0000 0.0000 0.0000
# 4 0.0000 0.0000 0.0000 -5.8735 0.0000 0.0000
# 5 0.0000 0.0000 0.0000 0.0000 43.6857 0.0000
# 6 0.0000 0.0000 0.0000 0.0000 0.0000 19.0380
#
#
#
# Elastic Compliance Matrix: (Units=1/GPa)
#
#
# Indices 1 2 3 4 5 6 
#
# 1 0.009554 -0.002597 -0.004793 0.000000 0.000000 0.000000
# 2 -0.002597 0.007929 -0.002881 0.000000 0.000000 0.000000
# 3 -0.004793 -0.002881 0.020177 0.000000 0.000000 0.000000
# 4 0.000000 0.000000 0.000000 -0.170256 0.000000 0.000000
# 5 0.000000 0.000000 0.000000 0.000000 0.022891 0.000000
# 6 0.000000 0.000000 0.000000 0.000000 0.000000 0.052527
#
#
# Mechanical properties :
#
#
# Convention : Reuss Voigt Hill
#
# Bulk Modulus (GPa) = 58.42179 72.78255 65.60217
# Shear Modulus (GPa) = -161.65582 26.40103 -67.62739
#
# Velocity S-wave (km/s) = -9.43284 3.81204 -6.10110
# Velocity P-wave (km/s) = 9.29954 7.70950 3.67730
#
# Compressibility (1/GPa) = 0.01711690
#
# Stress axis : x y z
#
# Youngs Moduli (GPa) = 104.67107 126.11163 49.56197
#
# Poissons Ratio (x) = 0.32748 0.23757
# Poissons Ratio (y) = 0.27180 0.14281
# Poissons Ratio (z) = 0.50173 0.36338
#
# Static dielectric constant tensor:
#      x y z
#    x 2.168820 0.000000 0.000000 
#    y 0.000000 3.609570 0.000000 
#    z 0.000000 0.000000 3.659950 
# 
# 
# High freq. dielectric constant tensor:
#      x y z
#    x 1.695730 0.000000 0.000000 
#    y 0.000000 1.714710 0.000000 
#    z 0.000000 0.000000 1.699890 
# 
# From -- ./inp_files/20522.got.cif
#   From: 2010.03.12/outbox.cif.g09.slc.cpg/sg65_11_cif.got.tgz:20522.got - 2010.04.10 20:52:16.
