data_PCOD8274855
_publ_section_title
;
Structure prediction by ZEFSAII (Michael W. Deem and Ramdas Pophale) SiO2 
 PCOD8274855
Probable space group: C M M M
;
_chemical_formula_sum "Si O2"
_cell_formula_units_Z 80
_cell_length_a 8.885010
_cell_length_b 19.140653
_cell_length_c 25.377530
_cell_angle_alpha 90.000000
_cell_angle_beta 90.000000
_cell_angle_gamma 90.000000
_cell_volume 4315.826932
_symmetry_space_group_name_H-M "C M M M"
_symmetry_group_IT_number 65
_symmetry_cell_setting 'orthorhombic'
loop_
_space_group_symop_operation_xyz
x,y,z
-x,-y,z
x,-y,-z
-x,y,-z
-x,-y,-z
x,y,-z
-x,y,z
x,-y,z
1/2+x,1/2+y,z
1/2-x,1/2-y,z
1/2+x,1/2-y,-z
1/2-x,1/2+y,-z
1/2-x,1/2-y,-z
1/2+x,1/2+y,-z
1/2-x,1/2+y,z
1/2+x,1/2-y,z
loop_
_atom_site_type_symbol
_atom_site_label
_atom_site_fract_x
_atom_site_fract_y
_atom_site_fract_z
Si Si1 0.325205 0.081753 0.733414
Si Si2 0.822862 0.825945 0.354278
Si Si3 0.173762 0.420378 0.438695
Si Si4 0.823286 0.323849 0.941287
Si Si5 0.178110 0.423275 0.851497
O O1 0.500000 0.096429 0.721418
O O2 0.224192 0.128575 0.695884
O O3 0.282951 0.104438 0.793045
O O4 0.289728 0.000000 0.724496
O O5 0.750000 0.750000 0.352003
O O6 0.775115 0.866148 0.407107
O O7 0.000000 0.816096 0.354317
O O8 0.201084 0.406039 0.500000
O O9 0.219320 0.500000 0.424453
O O10 0.000000 0.408239 0.423680
O O11 0.750000 0.250000 0.931652
O O12 0.753068 0.374792 0.897212
O O13 0.000000 0.315347 0.933508
O O14 0.785913 0.352466 0.000000
O O15 0.248622 0.500000 0.859276
O O16 0.000000 0.428041 0.857614
#
# Coordination Sequence:
#
# PCOD8274855 Si02
#       5
#    16  16  16  16  16
#     4   9  18  35  57  77 102 136 171 211 261 316
#     4  12  25  38  54  78 109 142 177 218 261 306
#     4   9  19  38  63  87 111 141 175 210 253 307
#     4   9  17  29  46  69  98 131 166 205 249 299
#     4   8  15  29  50  75  99 126 164 208 253 300
#
# _framework density 18.536422999999999
#
# number of rings (size 3 to 8) (size 9 to 14) (size 15 to 20)
#    0.000    2.600    0.000    4.200    0.000    5.200 
#    0.000    6.000    0.000    1.800    0.000    2.800 
#    0.000    0.000    0.000    0.000    0.000    0.000 
#
# Total GULP energy -495901.938600 kJ/mol
# GULP energy per Si atom -12397.548465 kJ/mol
# Density = 1.849423 g / cm^3
# Si number density = 18.536423 Si / 1000 Ang^3
#
#
#
# Elastic Constant Matrix: (Units=GPa)
#
#
# Indices 1 2 3 4 5 6 
#
# 1 80.3880 57.0106 51.4899 0.0000 0.0000 0.0000
# 2 57.0106 110.5657 81.5520 0.0000 0.0000 0.0000
# 3 51.4899 81.5520 139.5020 0.0000 0.0000 0.0000
# 4 0.0000 0.0000 0.0000 17.7119 0.0000 0.0000
# 5 0.0000 0.0000 0.0000 0.0000 21.6119 0.0000
# 6 0.0000 0.0000 0.0000 0.0000 0.0000 28.4043
#
#
#
# Elastic Compliance Matrix: (Units=1/GPa)
#
#
# Indices 1 2 3 4 5 6 
#
# 1 0.020053 -0.008580 -0.002385 0.000000 0.000000 0.000000
# 2 -0.008580 0.019572 -0.008275 0.000000 0.000000 0.000000
# 3 -0.002385 -0.008275 0.012886 0.000000 0.000000 0.000000
# 4 0.000000 0.000000 0.000000 0.056459 0.000000 0.000000
# 5 0.000000 0.000000 0.000000 0.000000 0.046271 0.000000
# 6 0.000000 0.000000 0.000000 0.000000 0.000000 0.035206
#
#
# Mechanical properties :
#
#
# Convention : Reuss Voigt Hill
#
# Bulk Modulus (GPa) = 71.27577 78.95117 75.11347
# Shear Modulus (GPa) = 21.40378 22.90584 22.15481
#
# Velocity S-wave (km/s) = 3.40176 3.51910 3.46092
# Velocity P-wave (km/s) = 7.34605 7.69396 7.52202
#
# Compressibility (1/GPa) = 0.01403001
#
# Stress axis : x y z
#
# Youngs Moduli (GPa) = 49.86893 51.09379 77.60271
#
# Poissons Ratio (x) = 0.43839 0.18512
# Poissons Ratio (y) = 0.42788 0.64214
# Poissons Ratio (z) = 0.11896 0.42278
#
# Static dielectric constant tensor:
#      x y z
#    x 3.123520 0.000000 0.000000 
#    y 0.000000 3.520800 0.000000 
#    z 0.000000 0.000000 3.675280 
# 
# 
# High freq. dielectric constant tensor:
#      x y z
#    x 1.689990 0.000000 0.000000 
#    y 0.000000 1.717680 0.000000 
#    z 0.000000 0.000000 1.736490 
# 
# From -- ./inp_files/72800.got.cif
#   From: 2010.03.12/outbox.cif.g09.slc.cpg/sg65_37_cif.got.tgz:72800.got - 2010.04.10 20:52:16.
