data_PCOD8274493
_publ_section_title
;
Structure prediction by ZEFSAII (Michael W. Deem and Ramdas Pophale) SiO2 
 PCOD8274493
Probable space group: C M M M
;
_chemical_formula_sum "Si O2"
_cell_formula_units_Z 96
_cell_length_a 23.757686
_cell_length_b 8.689986
_cell_length_c 25.300089
_cell_angle_alpha 90.000000
_cell_angle_beta 90.000000
_cell_angle_gamma 90.000000
_cell_volume 5223.303530
_symmetry_space_group_name_H-M "C M M M"
_symmetry_group_IT_number 65
_symmetry_cell_setting 'orthorhombic'
loop_
_space_group_symop_operation_xyz
x,y,z
-x,-y,z
x,-y,-z
-x,y,-z
-x,-y,-z
x,y,-z
-x,y,z
x,-y,z
1/2+x,1/2+y,z
1/2-x,1/2-y,z
1/2+x,1/2-y,-z
1/2-x,1/2+y,-z
1/2-x,1/2-y,-z
1/2+x,1/2+y,-z
1/2-x,1/2+y,z
1/2+x,1/2-y,z
loop_
_atom_site_type_symbol
_atom_site_label
_atom_site_fract_x
_atom_site_fract_y
_atom_site_fract_z
Si Si1 0.434800 0.820304 0.440058
Si Si2 0.309311 0.818566 0.941210
Si Si3 0.500000 0.823012 0.714893
Si Si4 0.617401 0.182075 0.155935
Si Si5 0.897470 0.177389 0.340219
Si Si6 0.811597 0.178626 0.748787
Si Si7 0.000000 0.820607 0.825261
O O1 0.419268 0.775725 0.500000
O O2 0.500000 0.778475 0.428587
O O3 0.393043 0.722045 0.402155
O O4 0.424661 0.000000 0.430310
O O5 0.250000 0.750000 0.924198
O O6 0.353599 0.760960 0.898015
O O7 0.303653 0.000000 0.940218
O O8 0.327202 0.761482 0.000000
O O9 0.555381 0.792631 0.681251
O O10 0.500000 0.704670 0.762878
O O11 0.500000 0.000000 0.734443
O O12 0.648265 0.249605 0.206980
O O13 0.554470 0.242288 0.149789
O O14 0.617718 0.000000 0.161903
O O15 0.839251 0.207446 0.308908
O O16 0.915765 0.000000 0.333613
O O17 0.750000 0.250000 0.749774
O O18 0.805801 0.000000 0.761625
O O19 0.000000 0.000000 0.838070
#
# Coordination Sequence:
#
# PCOD8274493 Si02
#       7
#    16  16   8  16  16  16   8
#     4   9  18  32  51  78 111 145 182 224 270 325
#     4   9  19  36  58  84 112 144 186 233 278 326
#     4  12  22  34  55  80 109 148 186 219 268 333
#     4  11  22  37  59  84 112 148 186 225 279 336
#     4  11  22  35  54  81 113 145 180 228 277 324
#     4  11  24  39  56  80 113 146 183 231 277 327
#     4  12  24  38  55  80 115 149 184 227 274 330
#
# _framework density 18.379173999999999
#
# number of rings (size 3 to 8) (size 9 to 14) (size 15 to 20)
#    0.000    1.500    2.500    4.000    0.000    5.000 
#    0.000    1.250    0.000    3.000    0.000    0.000 
#    0.000    0.000    0.000    0.000    0.000    0.000 
#
# Total GULP energy -595218.281708 kJ/mol
# GULP energy per Si atom -12400.380869 kJ/mol
# Density = 1.833734 g / cm^3
# Si number density = 18.379174 Si / 1000 Ang^3
#
#
#
# Elastic Constant Matrix: (Units=GPa)
#
#
# Indices 1 2 3 4 5 6 
#
# 1 128.0225 44.3961 69.8601 0.0000 0.0000 0.0000
# 2 44.3961 77.4441 43.6559 0.0000 0.0000 0.0000
# 3 69.8601 43.6559 131.9012 0.0000 0.0000 0.0000
# 4 0.0000 0.0000 0.0000 23.5328 0.0000 0.0000
# 5 0.0000 0.0000 0.0000 0.0000 1.0126 0.0000
# 6 0.0000 0.0000 0.0000 0.0000 0.0000 28.5230
#
#
#
# Elastic Compliance Matrix: (Units=1/GPa)
#
#
# Indices 1 2 3 4 5 6 
#
# 1 0.011928 -0.004028 -0.004984 0.000000 0.000000 0.000000
# 2 -0.004028 0.017235 -0.003571 0.000000 0.000000 0.000000
# 3 -0.004984 -0.003571 0.011403 0.000000 0.000000 0.000000
# 4 0.000000 0.000000 0.000000 0.042494 0.000000 0.000000
# 5 0.000000 0.000000 0.000000 0.000000 0.987592 0.000000
# 6 0.000000 0.000000 0.000000 0.000000 0.000000 0.035059
#
#
# Mechanical properties :
#
#
# Convention : Reuss Voigt Hill
#
# Bulk Modulus (GPa) = 64.93815 72.57688 68.75752
# Shear Modulus (GPa) = 4.40137 22.57739 13.48938
#
# Velocity S-wave (km/s) = 1.54918 3.50869 2.71209
# Velocity P-wave (km/s) = 6.21362 7.48257 6.87743
#
# Compressibility (1/GPa) = 0.01539927
#
# Stress axis : x y z
#
# Youngs Moduli (GPa) = 83.83722 58.02282 87.69542
#
# Poissons Ratio (x) = 0.23373 0.43710
# Poissons Ratio (y) = 0.33771 0.31314
# Poissons Ratio (z) = 0.41787 0.20718
#
# Static dielectric constant tensor:
#      x y z
#    x 3.316340 0.000000 0.000000 
#    y 0.000000 3.418030 0.000000 
#    z 0.000000 0.000000 3.683710 
# 
# 
# High freq. dielectric constant tensor:
#      x y z
#    x 1.692960 0.000000 0.000000 
#    y 0.000000 1.721030 0.000000 
#    z 0.000000 0.000000 1.719840 
# 
# From -- ./inp_files/75738.got.cif
#   From: 2010.03.12/outbox.cif.g09.slc.cpg/sg65_38_cif.got.tgz:75738.got - 2010.04.10 20:52:16.
