data_PCOD8274962
_publ_section_title
;
Structure prediction by ZEFSAII (Michael W. Deem and Ramdas Pophale) SiO2 
 PCOD8274962
Probable space group: C M M M
;
_chemical_formula_sum "Si O2"
_cell_formula_units_Z 104
_cell_length_a 9.444508
_cell_length_b 19.702332
_cell_length_c 32.925966
_cell_angle_alpha 90.000000
_cell_angle_beta 90.000000
_cell_angle_gamma 90.000000
_cell_volume 6126.825302
_symmetry_space_group_name_H-M "C M M M"
_symmetry_group_IT_number 65
_symmetry_cell_setting 'orthorhombic'
loop_
_space_group_symop_operation_xyz
x,y,z
-x,-y,z
x,-y,-z
-x,y,-z
-x,-y,-z
x,y,-z
-x,y,z
x,-y,z
1/2+x,1/2+y,z
1/2-x,1/2-y,z
1/2+x,1/2-y,-z
1/2-x,1/2+y,-z
1/2-x,1/2-y,-z
1/2+x,1/2+y,-z
1/2-x,1/2+y,z
1/2+x,1/2-y,z
loop_
_atom_site_type_symbol
_atom_site_label
_atom_site_fract_x
_atom_site_fract_y
_atom_site_fract_z
Si Si1 0.335894 0.577940 0.196184
Si Si2 0.840578 0.419146 0.119098
Si Si3 0.339748 0.080669 0.500000
Si Si4 0.341083 0.580732 0.045011
Si Si5 0.164147 0.184770 0.644242
Si Si6 0.336022 0.421794 0.423143
Si Si7 0.164287 0.815259 0.263372
O O1 0.500000 0.586385 0.184390
O O2 0.299457 0.500000 0.206123
O O3 0.244356 0.605817 0.158604
O O4 0.294757 0.620510 0.235930
O O5 0.840137 0.500000 0.117537
O O6 0.765201 0.389206 0.078769
O O7 0.000000 0.390540 0.120910
O O8 0.500000 0.109110 0.500000
O O9 0.257992 0.106872 0.460139
O O10 0.338165 0.000000 0.500000
O O11 0.500000 0.607149 0.053883
O O12 0.340531 0.500000 0.047144
O O13 0.291848 0.604462 0.000000
O O14 0.250000 0.250000 0.628833
O O15 0.204161 0.120290 0.616880
O O16 0.205456 0.166028 0.690426
O O17 0.000000 0.203222 0.640431
O O18 0.500000 0.412882 0.435236
O O19 0.300803 0.500000 0.413541
O O20 0.250000 0.750000 0.248024
O O21 0.000000 0.797166 0.259472
#
# Coordination Sequence:
#
# PCOD8274962 Si02
#       7
#    16  16   8  16  16  16  16
#     4   9  17  29  45  64  87 116 149 184 221 263
#     4   9  16  24  35  54  81 111 142 179 223 265
#     4   9  17  29  46  69  96 123 151 185 224 265
#     4   8  13  21  33  49  72 106 145 179 213 259
#     4   9  18  32  49  69  93 120 149 183 225 270
#     4   9  17  30  49  71  94 121 153 188 224 263
#     4   9  18  32  49  68  90 118 150 184 224 268
#
# _framework density 16.974533000000001
#
# number of rings (size 3 to 8) (size 9 to 14) (size 15 to 20)
#    0.000    3.154    0.000    1.154    0.000    4.923 
#    0.000    5.000    0.000    0.000    0.000    8.615 
#    0.000    0.615    0.000    2.000    0.000    4.000 
#
# Total GULP energy -644698.531549 kJ/mol
# GULP energy per Si atom -12398.048684 kJ/mol
# Density = 1.693590 g / cm^3
# Si number density = 16.974533 Si / 1000 Ang^3
#
#
#
# Elastic Constant Matrix: (Units=GPa)
#
#
# Indices 1 2 3 4 5 6 
#
# 1 88.7007 39.2131 71.2153 0.0000 0.0000 0.0000
# 2 39.2131 57.8865 57.0599 0.0000 0.0000 0.0000
# 3 71.2153 57.0599 133.6810 0.0000 0.0000 0.0000
# 4 0.0000 0.0000 0.0000 4.8151 0.0000 0.0000
# 5 0.0000 0.0000 0.0000 0.0000 24.3457 0.0000
# 6 0.0000 0.0000 0.0000 0.0000 0.0000 19.1849
#
#
#
# Elastic Compliance Matrix: (Units=1/GPa)
#
#
# Indices 1 2 3 4 5 6 
#
# 1 0.020642 -0.005427 -0.008680 0.000000 0.000000 0.000000
# 2 -0.005427 0.031250 -0.010447 0.000000 0.000000 0.000000
# 3 -0.008680 -0.010447 0.016564 0.000000 0.000000 0.000000
# 4 0.000000 0.000000 0.000000 0.207681 0.000000 0.000000
# 5 0.000000 0.000000 0.000000 0.000000 0.041075 0.000000
# 6 0.000000 0.000000 0.000000 0.000000 0.000000 0.052124
#
#
# Mechanical properties :
#
#
# Convention : Reuss Voigt Hill
#
# Bulk Modulus (GPa) = 51.68853 68.36052 60.02453
# Shear Modulus (GPa) = 11.76764 17.18780 14.47772
#
# Velocity S-wave (km/s) = 2.63583 3.18553 2.92363
# Velocity P-wave (km/s) = 6.30715 7.34098 6.84362
#
# Compressibility (1/GPa) = 0.01934665
#
# Stress axis : x y z
#
# Youngs Moduli (GPa) = 48.44471 32.00027 60.37212
#
# Poissons Ratio (x) = 0.17367 0.52404
# Poissons Ratio (y) = 0.26291 0.63073
# Poissons Ratio (z) = 0.42050 0.33432
#
# Static dielectric constant tensor:
#      x y z
#    x 3.295940 0.000000 0.000000 
#    y 0.000000 2.772800 0.000000 
#    z 0.000000 0.000000 3.362520 
# 
# 
# High freq. dielectric constant tensor:
#      x y z
#    x 1.656150 0.000000 0.000000 
#    y 0.000000 1.603760 0.000000 
#    z 0.000000 0.000000 1.664100 
# 
# From -- ./inp_files/77013.got.cif
#   From: 2010.03.12/outbox.cif.g09.slc.cpg/sg65_39_cif.got.tgz:77013.got - 2010.04.10 20:52:16.
