data_PCOD8274252
_publ_section_title
;
Structure prediction by ZEFSAII (Michael W. Deem and Ramdas Pophale) SiO2 
 PCOD8274252
Probable space group: C M M M
;
_chemical_formula_sum "Si O2"
_cell_formula_units_Z 72
_cell_length_a 29.171990
_cell_length_b 15.270851
_cell_length_c 9.212616
_cell_angle_alpha 90.000000
_cell_angle_beta 90.000000
_cell_angle_gamma 90.000000
_cell_volume 4104.046426
_symmetry_space_group_name_H-M "C M M M"
_symmetry_group_IT_number 65
_symmetry_cell_setting 'orthorhombic'
loop_
_space_group_symop_operation_xyz
x,y,z
-x,-y,z
x,-y,-z
-x,y,-z
-x,-y,-z
x,y,-z
-x,y,z
x,-y,z
1/2+x,1/2+y,z
1/2-x,1/2-y,z
1/2+x,1/2-y,-z
1/2-x,1/2+y,-z
1/2-x,1/2-y,-z
1/2+x,1/2+y,-z
1/2-x,1/2+y,z
1/2+x,1/2-y,z
loop_
_atom_site_type_symbol
_atom_site_label
_atom_site_fract_x
_atom_site_fract_y
_atom_site_fract_z
Si Si1 0.053737 0.500000 0.843422
Si Si2 0.804262 0.400010 0.331381
Si Si3 0.198231 0.899762 0.333728
Si Si4 0.644979 0.253155 0.170852
Si Si5 0.449575 0.812931 0.172464
O O1 0.065113 0.408576 0.759997
O O2 0.000000 0.500000 0.870534
O O3 0.079319 0.500000 0.000000
O O4 0.813136 0.379851 0.500000
O O5 0.818371 0.500000 0.294745
O O6 0.751081 0.384786 0.293875
O O7 0.833146 0.334702 0.234036
O O8 0.189562 0.873304 0.500000
O O9 0.166823 0.840577 0.233085
O O10 0.184238 0.000000 0.306280
O O11 0.590622 0.255328 0.212200
O O12 0.652806 0.252013 0.000000
O O13 0.500000 0.782037 0.230833
O O14 0.452646 0.825229 0.000000
#
# Coordination Sequence:
#
# PCOD8274252 Si02
#       5
#     8  16  16  16  16
#     4   7  10  20  38  56  81 123 163 185 207 259
#     4   9  19  35  52  70  97 135 171 197 229 287
#     4   9  19  37  56  69  89 130 175 204 235 291
#     4  11  21  29  48  80 105 125 156 205 256 291
#     4   8  15  27  42  64  97 133 163 190 229 287
#
# _framework density 17.543659999999999
#
# number of rings (size 3 to 8) (size 9 to 14) (size 15 to 20)
#    0.000    3.000    0.000    4.000    1.556    4.444 
#    0.000    2.222    0.000    3.333    0.000    6.222 
#    0.000    0.000    0.000    0.000    0.000    0.000 
#
# Total GULP energy -446014.630022 kJ/mol
# GULP energy per Si atom -12389.295278 kJ/mol
# Density = 1.750373 g / cm^3
# Si number density = 17.543660 Si / 1000 Ang^3
#
#
#
# Elastic Constant Matrix: (Units=GPa)
#
#
# Indices 1 2 3 4 5 6 
#
# 1 106.8773 60.8960 47.5472 0.0000 0.0000 0.0000
# 2 60.8960 83.6905 41.4263 0.0000 0.0000 0.0000
# 3 47.5472 41.4263 57.9753 0.0000 0.0000 0.0000
# 4 0.0000 0.0000 0.0000 21.9098 0.0000 0.0000
# 5 0.0000 0.0000 0.0000 0.0000 -10.0309 0.0000
# 6 0.0000 0.0000 0.0000 0.0000 0.0000 24.7032
#
#
#
# Elastic Compliance Matrix: (Units=1/GPa)
#
#
# Indices 1 2 3 4 5 6 
#
# 1 0.018354 -0.009135 -0.008525 0.000000 0.000000 0.000000
# 2 -0.009135 0.023035 -0.008967 0.000000 0.000000 0.000000
# 3 -0.008525 -0.008967 0.030648 0.000000 0.000000 0.000000
# 4 0.000000 0.000000 0.000000 0.045642 0.000000 0.000000
# 5 0.000000 0.000000 0.000000 0.000000 -0.099692 0.000000
# 6 0.000000 0.000000 0.000000 0.000000 0.000000 0.040481
#
#
# Mechanical properties :
#
#
# Convention : Reuss Voigt Hill
#
# Bulk Modulus (GPa) = 53.24427 60.92025 57.08226
# Shear Modulus (GPa) = 42.37871 13.89466 28.13668
#
# Velocity S-wave (km/s) = 4.92022 2.81731 4.00910
# Velocity P-wave (km/s) = 7.91793 6.73671 7.35108
#
# Compressibility (1/GPa) = 0.01878136
#
# Stress axis : x y z
#
# Youngs Moduli (GPa) = 54.48345 43.41274 32.62834
#
# Poissons Ratio (x) = 0.39658 0.27816
# Poissons Ratio (y) = 0.49772 0.29259
# Poissons Ratio (z) = 0.46448 0.38930
#
# Static dielectric constant tensor:
#      x y z
#    x 3.384600 0.000000 0.000000 
#    y 0.000000 3.310060 0.000000 
#    z 0.000000 0.000000 2.921910 
# 
# 
# High freq. dielectric constant tensor:
#      x y z
#    x 1.677240 0.000000 0.000000 
#    y 0.000000 1.669230 0.000000 
#    z 0.000000 0.000000 1.644650 
# 
# From -- ./inp_files/7664.got.cif
#   From: 2010.03.12/outbox.cif.g09.slc.cpg/sg65_4_cif.got.tgz:7664.got - 2010.04.10 20:52:16.
