data_PCOD8274209
_publ_section_title
;
Structure prediction by ZEFSAII (Michael W. Deem and Ramdas Pophale) SiO2 
 PCOD8274209
Probable space group: C M M M
;
_chemical_formula_sum "Si O2"
_cell_formula_units_Z 80
_cell_length_a 10.901196
_cell_length_b 30.552618
_cell_length_c 13.399841
_cell_angle_alpha 90.000000
_cell_angle_beta 90.000000
_cell_angle_gamma 90.000000
_cell_volume 4462.952077
_symmetry_space_group_name_H-M "C M M M"
_symmetry_group_IT_number 65
_symmetry_cell_setting 'orthorhombic'
loop_
_space_group_symop_operation_xyz
x,y,z
-x,-y,z
x,-y,-z
-x,y,-z
-x,-y,-z
x,y,-z
-x,y,z
x,-y,z
1/2+x,1/2+y,z
1/2-x,1/2-y,z
1/2+x,1/2-y,-z
1/2-x,1/2+y,-z
1/2-x,1/2-y,-z
1/2+x,1/2+y,-z
1/2-x,1/2+y,z
1/2+x,1/2-y,z
loop_
_atom_site_type_symbol
_atom_site_label
_atom_site_fract_x
_atom_site_fract_y
_atom_site_fract_z
Si Si1 0.140148 0.331115 0.110739
Si Si2 0.000000 0.947972 0.116043
Si Si3 0.250401 0.584447 0.197299
Si Si4 0.140321 0.500000 0.891351
Si Si5 0.640756 0.782120 0.305776
Si Si6 0.640462 0.122740 0.387311
O O1 0.219705 0.374211 0.128409
O O2 0.168603 0.293015 0.189812
O O3 0.000000 0.346241 0.123817
O O4 0.166999 0.312700 0.000000
O O5 0.889161 0.927562 0.176862
O O6 0.000000 0.000000 0.125931
O O7 0.000000 0.933794 0.000000
O O8 0.168588 0.542960 0.170987
O O9 0.228974 0.596071 0.313430
O O10 0.000000 0.500000 0.916500
O O11 0.211250 0.500000 0.000000
O O12 0.500000 0.763139 0.317572
O O13 0.750000 0.750000 0.342125
O O14 0.653798 0.825395 0.371924
O O15 0.679103 0.111112 0.500000
O O16 0.500000 0.109010 0.365912
#
# Coordination Sequence:
#
# PCOD8274209 Si02
#       6
#    16   8  16   8  16  16
#     4   9  17  31  51  74 103 139 175 219 273 323
#     4  11  22  36  53  75 111 155 182 208 258 320
#     4  11  20  34  53  75 107 140 181 221 260 315
#     4  11  20  29  50  82 107 129 169 224 268 310
#     4   9  18  33  53  78 108 138 175 219 269 327
#     4   9  19  38  61  81 104 137 177 225 281 324
#
# _framework density 17.925355
#
# number of rings (size 3 to 8) (size 9 to 14) (size 15 to 20)
#    0.000    2.200    1.000    4.800    0.000    2.400 
#    7.200    1.000    0.000    2.400    0.000    0.000 
#    0.000    0.000    0.000    0.000    0.000    0.000 
#
# Total GULP energy -495829.161295 kJ/mol
# GULP energy per Si atom -12395.729032 kJ/mol
# Density = 1.788456 g / cm^3
# Si number density = 17.925355 Si / 1000 Ang^3
#
#
#
# Elastic Constant Matrix: (Units=GPa)
#
#
# Indices 1 2 3 4 5 6 
#
# 1 114.0202 45.8877 43.5835 0.0000 0.0000 0.0000
# 2 45.8877 64.0598 27.4871 0.0000 0.0000 0.0000
# 3 43.5835 27.4871 126.0675 0.0000 0.0000 0.0000
# 4 0.0000 0.0000 0.0000 14.9341 0.0000 0.0000
# 5 0.0000 0.0000 0.0000 0.0000 22.2264 0.0000
# 6 0.0000 0.0000 0.0000 0.0000 0.0000 39.3526
#
#
#
# Elastic Compliance Matrix: (Units=1/GPa)
#
#
# Indices 1 2 3 4 5 6 
#
# 1 0.013131 -0.008228 -0.002746 0.000000 0.000000 0.000000
# 2 -0.008228 0.022377 -0.002034 0.000000 0.000000 0.000000
# 3 -0.002746 -0.002034 0.009325 0.000000 0.000000 0.000000
# 4 0.000000 0.000000 0.000000 0.066961 0.000000 0.000000
# 5 0.000000 0.000000 0.000000 0.000000 0.044992 0.000000
# 6 0.000000 0.000000 0.000000 0.000000 0.000000 0.025411
#
#
# Mechanical properties :
#
#
# Convention : Reuss Voigt Hill
#
# Bulk Modulus (GPa) = 53.14282 59.78487 56.46385
# Shear Modulus (GPa) = 23.31149 27.78190 25.54669
#
# Velocity S-wave (km/s) = 3.61012 3.94110 3.77924
# Velocity P-wave (km/s) = 6.86210 7.35760 7.11417
#
# Compressibility (1/GPa) = 0.01881722
#
# Stress axis : x y z
#
# Youngs Moduli (GPa) = 76.15362 44.68786 107.23790
#
# Poissons Ratio (x) = 0.36770 0.29444
# Poissons Ratio (y) = 0.62661 0.21817
# Poissons Ratio (z) = 0.20909 0.09091
#
# Static dielectric constant tensor:
#      x y z
#    x 3.264840 0.000000 0.000000 
#    y 0.000000 3.113350 0.000000 
#    z 0.000000 0.000000 3.386240 
# 
# 
# High freq. dielectric constant tensor:
#      x y z
#    x 1.686670 0.000000 0.000000 
#    y 0.000000 1.677520 0.000000 
#    z 0.000000 0.000000 1.695950 
# 
# From -- ./inp_files/38319.got.cif
#   From: 2010.03.12/outbox.cif.g09.slc.cpg/sg65_20_cif.got.tgz:38319.got - 2010.04.10 20:52:16.
