data_PCOD8274405
_publ_section_title
;
Structure prediction by ZEFSAII (Michael W. Deem and Ramdas Pophale) SiO2 
 PCOD8274405
Probable space group: C M M M
;
_chemical_formula_sum "Si O2"
_cell_formula_units_Z 72
_cell_length_a 14.621663
_cell_length_b 9.995380
_cell_length_c 27.374170
_cell_angle_alpha 90.000000
_cell_angle_beta 90.000000
_cell_angle_gamma 90.000000
_cell_volume 4000.709704
_symmetry_space_group_name_H-M "C M M M"
_symmetry_group_IT_number 65
_symmetry_cell_setting 'orthorhombic'
loop_
_space_group_symop_operation_xyz
x,y,z
-x,-y,z
x,-y,-z
-x,y,-z
-x,-y,-z
x,y,-z
-x,y,z
x,-y,z
1/2+x,1/2+y,z
1/2-x,1/2-y,z
1/2+x,1/2-y,-z
1/2-x,1/2+y,-z
1/2-x,1/2-y,-z
1/2+x,1/2+y,-z
1/2-x,1/2+y,z
1/2+x,1/2-y,z
loop_
_atom_site_type_symbol
_atom_site_label
_atom_site_fract_x
_atom_site_fract_y
_atom_site_fract_z
Si Si1 0.394564 0.500000 0.054002
Si Si2 0.848733 0.255097 0.117005
Si Si3 0.000000 0.657806 0.299510
Si Si4 0.657473 0.160140 0.372277
Si Si5 0.000000 0.659562 0.810717
Si Si6 0.000000 0.657960 0.554272
Si Si7 0.897094 0.500000 0.057440
O O1 0.500000 0.500000 0.042482
O O2 0.371051 0.625416 0.086584
O O3 0.345140 0.500000 0.000000
O O4 0.750000 0.250000 0.141713
O O5 0.846163 0.371164 0.076905
O O6 0.913036 0.279785 0.162626
O O7 0.094313 0.702420 0.325938
O O8 0.000000 0.500000 0.299879
O O9 0.000000 0.714184 0.244532
O O10 0.750000 0.250000 0.372514
O O11 0.594121 0.200379 0.418677
O O12 0.681171 0.000000 0.371964
O O13 0.000000 0.500000 0.813118
O O14 0.000000 0.500000 0.551787
O O15 0.000000 0.721845 0.500000
O O16 0.000000 0.500000 0.078637
O O17 0.896798 0.500000 0.000000
#
# Coordination Sequence:
#
# PCOD8274405 Si02
#       7
#     8  16   8  16   8   8   8
#     4  11  23  39  57  78 111 143 162 199 259 314
#     4  12  23  37  58  81 105 135 168 209 257 310
#     4   8  18  35  58  74  99 139 180 220 271 328
#     4   9  17  32  55  81 107 143 188 233 272 318
#     4  11  21  41  59  78 103 135 177 221 260 315
#     4   8  15  29  49  77 115 160 197 223 264 323
#     4  11  21  39  61  80 103 135 176 209 241 300
#
# _framework density 17.996807
#
# number of rings (size 3 to 8) (size 9 to 14) (size 15 to 20)
#    0.000    1.889    3.333    2.667    0.000    5.778 
#    0.000    2.222    4.889    0.667    0.000    0.000 
#    0.000    0.000    0.000    0.000    0.000    0.000 
#
# Total GULP energy -446096.503459 kJ/mol
# GULP energy per Si atom -12391.569541 kJ/mol
# Density = 1.795585 g / cm^3
# Si number density = 17.996807 Si / 1000 Ang^3
#
#
#
# Elastic Constant Matrix: (Units=GPa)
#
#
# Indices 1 2 3 4 5 6 
#
# 1 164.1575 46.4833 72.5358 0.0000 0.0000 0.0000
# 2 46.4833 101.1416 48.8772 0.0000 0.0000 0.0000
# 3 72.5358 48.8772 164.1854 0.0000 0.0000 0.0000
# 4 0.0000 0.0000 0.0000 18.1910 0.0000 0.0000
# 5 0.0000 0.0000 0.0000 0.0000 -4.6131 0.0000
# 6 0.0000 0.0000 0.0000 0.0000 0.0000 28.5681
#
#
#
# Elastic Compliance Matrix: (Units=1/GPa)
#
#
# Indices 1 2 3 4 5 6 
#
# 1 0.008003 -0.002300 -0.002851 0.000000 0.000000 0.000000
# 2 -0.002300 0.012210 -0.002619 0.000000 0.000000 0.000000
# 3 -0.002851 -0.002619 0.008130 0.000000 0.000000 0.000000
# 4 0.000000 0.000000 0.000000 0.054972 0.000000 0.000000
# 5 0.000000 0.000000 0.000000 0.000000 -0.216776 0.000000
# 6 0.000000 0.000000 0.000000 0.000000 0.000000 0.035004
#
#
# Mechanical properties :
#
#
# Convention : Reuss Voigt Hill
#
# Bulk Modulus (GPa) = 78.10708 85.03079 81.56894
# Shear Modulus (GPa) = -63.57247 25.86840 -18.85203
#
# Velocity S-wave (km/s) = -5.94987 3.79540 -3.24005
# Velocity P-wave (km/s) = 1.92525 8.15825 5.60582
#
# Compressibility (1/GPa) = 0.01280294
#
# Stress axis : x y z
#
# Youngs Moduli (GPa) = 124.95741 81.90192 123.00672
#
# Poissons Ratio (x) = 0.18840 0.35066
# Poissons Ratio (y) = 0.28744 0.32210
# Poissons Ratio (z) = 0.35622 0.21446
#
# Static dielectric constant tensor:
#      x y z
#    x 3.552890 0.000000 0.000000 
#    y 0.000000 3.202120 0.000000 
#    z 0.000000 0.000000 3.805760 
# 
# 
# High freq. dielectric constant tensor:
#      x y z
#    x 1.708820 0.000000 0.000000 
#    y 0.000000 1.678140 0.000000 
#    z 0.000000 0.000000 1.696140 
# 
# From -- ./inp_files/74710.got.cif
#   From: 2010.03.12/outbox.cif.g09.slc.cpg/sg65_38_cif.got.tgz:74710.got - 2010.04.10 20:52:16.
