data_PCOD8274118
_publ_section_title
;
Structure prediction by ZEFSAII (Michael W. Deem and Ramdas Pophale) SiO2 
 PCOD8274118
Probable space group: C M M M
;
_chemical_formula_sum "Si O2"
_cell_formula_units_Z 96
_cell_length_a 16.312744
_cell_length_b 18.559760
_cell_length_c 14.580463
_cell_angle_alpha 90.000000
_cell_angle_beta 90.000000
_cell_angle_gamma 90.000000
_cell_volume 4414.389924
_symmetry_space_group_name_H-M "C M M M"
_symmetry_group_IT_number 65
_symmetry_cell_setting 'orthorhombic'
loop_
_space_group_symop_operation_xyz
x,y,z
-x,-y,z
x,-y,-z
-x,y,-z
-x,-y,-z
x,y,-z
-x,y,z
x,-y,z
1/2+x,1/2+y,z
1/2-x,1/2-y,z
1/2+x,1/2-y,-z
1/2-x,1/2+y,-z
1/2-x,1/2-y,-z
1/2+x,1/2+y,-z
1/2-x,1/2+y,z
1/2+x,1/2-y,z
loop_
_atom_site_type_symbol
_atom_site_label
_atom_site_fract_x
_atom_site_fract_y
_atom_site_fract_z
Si Si1 0.328133 0.079554 0.107155
Si Si2 0.500000 0.919507 0.159073
Si Si3 0.317725 0.416367 0.392200
Si Si4 0.658024 0.828728 0.398839
Si Si5 0.191269 0.182711 0.103120
Si Si6 0.595230 0.699269 0.718013
Si Si7 0.500000 0.080639 0.373611
O O1 0.415629 0.119678 0.127210
O O2 0.249374 0.120506 0.146769
O O3 0.330330 0.000000 0.152353
O O4 0.315104 0.075738 0.000000
O O5 0.500000 0.921872 0.266059
O O6 0.500000 0.000000 0.115023
O O7 0.336364 0.408824 0.500000
O O8 0.315874 0.500000 0.362970
O O9 0.231672 0.379527 0.364889
O O10 0.388556 0.375637 0.335030
O O11 0.676491 0.796169 0.500000
O O12 0.648085 0.762979 0.328291
O O13 0.578971 0.878179 0.408930
O O14 0.250000 0.250000 0.094390
O O15 0.117295 0.193553 0.174180
O O16 0.156996 0.164967 0.000000
O O17 0.500000 0.719325 0.710289
O O18 0.500000 0.000000 0.414438
#
# Coordination Sequence:
#
# PCOD8274118 Si02
#       7
#    16   8  16  16  16  16   8
#     4   9  18  35  60  88 121 162 205 253 310 370
#     4   9  19  31  53  93 131 160 195 242 300 371
#     4  10  23  43  68  97 129 168 215 267 319 374
#     4  11  23  42  66  94 129 168 212 261 317 382
#     4  10  23  42  62  89 124 165 212 261 314 373
#     4  12  26  42  66  95 127 170 216 265 323 381
#     4  11  23  35  57  97 138 173 204 245 311 385
#
# _framework density 21.747059
#
# number of rings (size 3 to 8) (size 9 to 14) (size 15 to 20)
#    0.000    1.667    0.833    3.000    4.667    6.000 
#    0.000    0.833    0.000    0.000    0.000    3.500 
#    0.000    0.000    0.000    0.000    0.000    0.000 
#
# Total GULP energy -595091.811968 kJ/mol
# GULP energy per Si atom -12397.746083 kJ/mol
# Density = 2.169756 g / cm^3
# Si number density = 21.747059 Si / 1000 Ang^3
#
#
#
# Elastic Constant Matrix: (Units=GPa)
#
#
# Indices 1 2 3 4 5 6 
#
# 1 64.8800 25.1783 29.0206 0.0000 0.0000 0.0000
# 2 25.1783 108.6291 41.1736 0.0000 0.0000 0.0000
# 3 29.0206 41.1736 97.5935 0.0000 0.0000 0.0000
# 4 0.0000 0.0000 0.0000 30.2499 0.0000 0.0000
# 5 0.0000 0.0000 0.0000 0.0000 32.3815 0.0000
# 6 0.0000 0.0000 0.0000 0.0000 0.0000 32.5439
#
#
#
# Elastic Compliance Matrix: (Units=1/GPa)
#
#
# Indices 1 2 3 4 5 6 
#
# 1 0.018377 -0.002605 -0.004366 0.000000 0.000000 0.000000
# 2 -0.002605 0.011327 -0.004004 0.000000 0.000000 0.000000
# 3 -0.004366 -0.004004 0.013234 0.000000 0.000000 0.000000
# 4 0.000000 0.000000 0.000000 0.033058 0.000000 0.000000
# 5 0.000000 0.000000 0.000000 0.000000 0.030882 0.000000
# 6 0.000000 0.000000 0.000000 0.000000 0.000000 0.030728
#
#
# Mechanical properties :
#
#
# Convention : Reuss Voigt Hill
#
# Bulk Modulus (GPa) = 47.64462 51.31639 49.48050
# Shear Modulus (GPa) = 30.02090 30.75040 30.38565
#
# Velocity S-wave (km/s) = 3.71948 3.76440 3.74201
# Velocity P-wave (km/s) = 6.35627 6.52246 6.43990
#
# Compressibility (1/GPa) = 0.02098873
#
# Stress axis : x y z
#
# Youngs Moduli (GPa) = 54.41699 88.28408 75.56243
#
# Poissons Ratio (x) = 0.22995 0.32988
# Poissons Ratio (y) = 0.14174 0.30257
# Poissons Ratio (z) = 0.23756 0.35351
#
# Static dielectric constant tensor:
#      x y z
#    x 4.643420 0.000000 0.000000 
#    y 0.000000 4.496290 0.000000 
#    z 0.000000 0.000000 3.953050 
# 
# 
# High freq. dielectric constant tensor:
#      x y z
#    x 1.842170 0.000000 0.000000 
#    y 0.000000 1.848420 0.000000 
#    z 0.000000 0.000000 1.863760 
# 
# From -- ./inp_files/40465.got.cif
#   From: 2010.03.12/outbox.cif.g09.slc.cpg/sg65_21_cif.got.tgz:40465.got - 2010.04.10 20:52:16.
