data_PCOD8274937
_publ_section_title
;
Structure prediction by ZEFSAII (Michael W. Deem and Ramdas Pophale) SiO2 
 PCOD8274937
Probable space group: C M M M
;
_chemical_formula_sum "Si O2"
_cell_formula_units_Z 80
_cell_length_a 29.603854
_cell_length_b 10.052353
_cell_length_c 19.958189
_cell_angle_alpha 90.000000
_cell_angle_beta 90.000000
_cell_angle_gamma 90.000000
_cell_volume 5939.325343
_symmetry_space_group_name_H-M "C M M M"
_symmetry_group_IT_number 65
_symmetry_cell_setting 'orthorhombic'
loop_
_space_group_symop_operation_xyz
x,y,z
-x,-y,z
x,-y,-z
-x,y,-z
-x,-y,-z
x,y,-z
-x,y,z
x,-y,z
1/2+x,1/2+y,z
1/2-x,1/2-y,z
1/2+x,1/2-y,-z
1/2-x,1/2+y,-z
1/2-x,1/2-y,-z
1/2+x,1/2+y,-z
1/2-x,1/2+y,z
1/2+x,1/2-y,z
loop_
_atom_site_type_symbol
_atom_site_label
_atom_site_fract_x
_atom_site_fract_y
_atom_site_fract_z
Si Si1 0.713843 0.647276 0.920345
Si Si2 0.553711 0.147397 0.682733
Si Si3 0.387943 0.653356 0.921616
Si Si4 0.553746 0.351290 0.425324
Si Si5 0.947147 0.346692 0.166304
O O1 0.725330 0.500000 0.892878
O O2 0.750000 0.750000 0.889065
O O3 0.663194 0.688006 0.899228
O O4 0.717039 0.646230 0.000000
O O5 0.500000 0.146918 0.678337
O O6 0.574812 0.250788 0.629362
O O7 0.568161 0.187389 0.757863
O O8 0.571976 0.000000 0.665268
O O9 0.399086 0.500000 0.904368
O O10 0.421357 0.749917 0.883242
O O11 0.394463 0.679443 0.000000
O O12 0.569421 0.308481 0.500000
O O13 0.500000 0.348584 0.421607
O O14 0.571175 0.500000 0.409167
O O15 0.935638 0.500000 0.149478
O O16 0.000000 0.320274 0.156984
#
# Coordination Sequence:
#
# PCOD8274937 Si02
#       5
#    16  16  16  16  16
#     4   8  14  25  40  57  75  91 108 135 173 218
#     4   8  14  24  35  46  62  85 114 147 179 210
#     4   9  18  30  41  55  74  93 117 151 187 223
#     4   8  13  20  30  46  66  84 105 137 174 210
#     4   9  18  30  40  51  69  94 126 161 190 216
#
# _framework density 13.469543
#
# number of rings (size 3 to 8) (size 9 to 14) (size 15 to 20)
#    0.000    3.600    0.000    3.000    0.000    3.200 
#    0.000    8.000    0.000    0.000    0.000    0.000 
#    0.000    0.000    0.000    0.000    0.000    1.000 
#
# Total GULP energy -495678.181783 kJ/mol
# GULP energy per Si atom -12391.954545 kJ/mol
# Density = 1.343889 g / cm^3
# Si number density = 13.469543 Si / 1000 Ang^3
#
#
#
# Elastic Constant Matrix: (Units=GPa)
#
#
# Indices 1 2 3 4 5 6 
#
# 1 45.0901 48.7816 32.3431 0.0000 0.0000 0.0000
# 2 48.7816 108.5338 66.6878 0.0000 0.0000 0.0000
# 3 32.3431 66.6878 72.3436 0.0000 0.0000 0.0000
# 4 0.0000 0.0000 0.0000 27.9500 0.0000 0.0000
# 5 0.0000 0.0000 0.0000 0.0000 -0.4928 0.0000
# 6 0.0000 0.0000 0.0000 0.0000 0.0000 21.3428
#
#
#
# Elastic Compliance Matrix: (Units=1/GPa)
#
#
# Indices 1 2 3 4 5 6 
#
# 1 0.043505 -0.017535 -0.003287 0.000000 0.000000 0.000000
# 2 -0.017535 0.028317 -0.018264 0.000000 0.000000 0.000000
# 3 -0.003287 -0.018264 0.032128 0.000000 0.000000 0.000000
# 4 0.000000 0.000000 0.000000 0.035778 0.000000 0.000000
# 5 0.000000 0.000000 0.000000 0.000000 -2.029077 0.000000
# 6 0.000000 0.000000 0.000000 0.000000 0.000000 0.046854
#
#
# Mechanical properties :
#
#
# Convention : Reuss Voigt Hill
#
# Bulk Modulus (GPa) = 38.78874 57.95474 48.37174
# Shear Modulus (GPa) = -2.84782 14.97032 6.06125
#
# Velocity S-wave (km/s) = -1.45563 3.33741 2.12361
# Velocity P-wave (km/s) = 5.10243 7.61387 6.48096
#
# Compressibility (1/GPa) = 0.02578068
#
# Stress axis : x y z
#
# Youngs Moduli (GPa) = 22.98569 35.31472 31.12538
#
# Poissons Ratio (x) = 0.61923 0.10229
# Poissons Ratio (y) = 0.40304 0.56847
# Poissons Ratio (z) = 0.07554 0.64498
#
# Static dielectric constant tensor:
#      x y z
#    x 2.351700 0.000000 0.000000 
#    y 0.000000 2.973380 0.000000 
#    z 0.000000 0.000000 2.638260 
# 
# 
# High freq. dielectric constant tensor:
#      x y z
#    x 1.461220 0.000000 0.000000 
#    y 0.000000 1.525680 0.000000 
#    z 0.000000 0.000000 1.493980 
# 
# From -- ./inp_files/38537.got.cif
#   From: 2010.03.12/outbox.cif.g09.slc.cpg/sg65_20_cif.got.tgz:38537.got - 2010.04.10 20:52:16.
