data_PCOD8274428
_publ_section_title
;
Structure prediction by ZEFSAII (Michael W. Deem and Ramdas Pophale) SiO2 
 PCOD8274428
Probable space group: C M M M
;
_chemical_formula_sum "Si O2"
_cell_formula_units_Z 72
_cell_length_a 19.076119
_cell_length_b 8.054236
_cell_length_c 24.713680
_cell_angle_alpha 90.000000
_cell_angle_beta 90.000000
_cell_angle_gamma 90.000000
_cell_volume 3797.097884
_symmetry_space_group_name_H-M "C M M M"
_symmetry_group_IT_number 65
_symmetry_cell_setting 'orthorhombic'
loop_
_space_group_symop_operation_xyz
x,y,z
-x,-y,z
x,-y,-z
-x,y,-z
-x,-y,-z
x,y,-z
-x,y,z
x,-y,z
1/2+x,1/2+y,z
1/2-x,1/2-y,z
1/2+x,1/2-y,-z
1/2-x,1/2+y,-z
1/2-x,1/2-y,-z
1/2+x,1/2+y,-z
1/2-x,1/2+y,z
1/2+x,1/2-y,z
loop_
_atom_site_type_symbol
_atom_site_label
_atom_site_fract_x
_atom_site_fract_y
_atom_site_fract_z
Si Si1 0.079268 0.307168 0.250106
Si Si2 0.916727 0.315589 0.127550
Si Si3 0.671875 0.689220 0.345106
Si Si4 0.578531 0.302223 0.560020
Si Si5 0.583625 0.500000 0.061437
O O1 0.082302 0.500000 0.264733
O O2 0.105848 0.276660 0.188995
O O3 0.130570 0.208971 0.289245
O O4 0.000000 0.239648 0.257204
O O5 0.888613 0.500000 0.109938
O O6 0.000000 0.319998 0.124188
O O7 0.886711 0.167899 0.089757
O O8 0.676432 0.500000 0.360758
O O9 0.750000 0.750000 0.337708
O O10 0.630729 0.777247 0.395073
O O11 0.602925 0.245114 0.500000
O O12 0.500000 0.235647 0.571742
O O13 0.577621 0.500000 0.563326
O O14 0.500000 0.500000 0.064538
O O15 0.610507 0.500000 0.000000
#
# Coordination Sequence:
#
# PCOD8274428 Si02
#       5
#    16  16  16  16   8
#     4   9  18  33  52  72  96 129 167 211 258 305
#     4   8  15  27  42  63  93 130 168 207 254 304
#     4  11  22  33  48  72 101 134 167 208 257 308
#     4   8  15  30  51  73  96 124 165 212 253 301
#     4   9  16  24  38  64  98 134 169 207 250 301
#
# _framework density 18.961850999999999
#
# number of rings (size 3 to 8) (size 9 to 14) (size 15 to 20)
#    0.000    3.000    0.000    3.333    1.556    2.222 
#    0.000    2.222    0.000    2.000    0.000    7.778 
#    0.000    0.889    0.444    0.000    0.000    0.000 
#
# Total GULP energy -446139.643211 kJ/mol
# GULP energy per Si atom -12392.767867 kJ/mol
# Density = 1.891869 g / cm^3
# Si number density = 18.961851 Si / 1000 Ang^3
#
#
#
# Elastic Constant Matrix: (Units=GPa)
#
#
# Indices 1 2 3 4 5 6 
#
# 1 74.3485 24.5774 50.5230 0.0000 0.0000 0.0000
# 2 24.5774 77.9390 56.2268 0.0000 0.0000 0.0000
# 3 50.5230 56.2268 139.5655 0.0000 0.0000 0.0000
# 4 0.0000 0.0000 0.0000 15.1760 0.0000 0.0000
# 5 0.0000 0.0000 0.0000 0.0000 19.8761 0.0000
# 6 0.0000 0.0000 0.0000 0.0000 0.0000 7.0382
#
#
#
# Elastic Compliance Matrix: (Units=1/GPa)
#
#
# Indices 1 2 3 4 5 6 
#
# 1 0.017942 -0.001370 -0.005943 0.000000 0.000000 0.000000
# 2 -0.001370 0.018192 -0.006833 0.000000 0.000000 0.000000
# 3 -0.005943 -0.006833 0.012069 0.000000 0.000000 0.000000
# 4 0.000000 0.000000 0.000000 0.065894 0.000000 0.000000
# 5 0.000000 0.000000 0.000000 0.000000 0.050312 0.000000
# 6 0.000000 0.000000 0.000000 0.000000 0.000000 0.142082
#
#
# Mechanical properties :
#
#
# Convention : Reuss Voigt Hill
#
# Bulk Modulus (GPa) = 50.22478 61.61194 55.91836
# Shear Modulus (GPa) = 14.64475 19.11978 16.88226
#
# Velocity S-wave (km/s) = 2.78209 3.17886 2.98707
# Velocity P-wave (km/s) = 6.07164 6.78503 6.43823
#
# Compressibility (1/GPa) = 0.01991049
#
# Stress axis : x y z
#
# Youngs Moduli (GPa) = 55.73643 54.96880 82.85570
#
# Poissons Ratio (x) = 0.07533 0.49239
# Poissons Ratio (y) = 0.07639 0.56615
# Poissons Ratio (z) = 0.33123 0.37560
#
# Static dielectric constant tensor:
#      x y z
#    x 2.122970 0.000000 0.000000 
#    y 0.000000 3.501350 0.000000 
#    z 0.000000 0.000000 3.625860 
# 
# 
# High freq. dielectric constant tensor:
#      x y z
#    x 1.686970 0.000000 0.000000 
#    y 0.000000 1.726290 0.000000 
#    z 0.000000 0.000000 1.742620 
# 
# From -- ./inp_files/67083.got.cif
#   From: 2010.03.12/outbox.cif.g09.slc.cpg/sg65_34_cif.got.tgz:67083.got - 2010.04.10 20:52:16.
