data_PCOD8274462
_publ_section_title
;
Structure prediction by ZEFSAII (Michael W. Deem and Ramdas Pophale) SiO2 
 PCOD8274462
Probable space group: C M M M
;
_chemical_formula_sum "Si O2"
_cell_formula_units_Z 88
_cell_length_a 8.124040
_cell_length_b 19.072135
_cell_length_c 30.023142
_cell_angle_alpha 90.000000
_cell_angle_beta 90.000000
_cell_angle_gamma 90.000000
_cell_volume 4651.869315
_symmetry_space_group_name_H-M "C M M M"
_symmetry_group_IT_number 65
_symmetry_cell_setting 'orthorhombic'
loop_
_space_group_symop_operation_xyz
x,y,z
-x,-y,z
x,-y,-z
-x,y,-z
-x,-y,-z
x,y,-z
-x,y,z
x,-y,z
1/2+x,1/2+y,z
1/2-x,1/2-y,z
1/2+x,1/2-y,-z
1/2-x,1/2+y,-z
1/2-x,1/2-y,-z
1/2+x,1/2+y,-z
1/2-x,1/2+y,z
1/2+x,1/2-y,z
loop_
_atom_site_type_symbol
_atom_site_label
_atom_site_fract_x
_atom_site_fract_y
_atom_site_fract_z
Si Si1 0.182993 0.416656 0.804564
Si Si2 0.681744 0.583430 0.103634
Si Si3 0.196988 0.578542 0.707466
Si Si4 0.807105 0.920444 0.449325
Si Si5 0.188466 0.671819 0.371221
Si Si6 0.500000 0.916431 0.050591
O O1 0.172272 0.500000 0.804305
O O2 0.296426 0.390482 0.845287
O O3 0.254611 0.393199 0.756273
O O4 0.000000 0.385830 0.812165
O O5 0.500000 0.609396 0.087099
O O6 0.687708 0.500000 0.101627
O O7 0.832678 0.613076 0.073749
O O8 0.264828 0.500000 0.698546
O O9 0.273756 0.629156 0.669440
O O10 0.000000 0.576677 0.706604
O O11 0.757586 0.902910 0.500000
O O12 0.711830 0.867358 0.417822
O O13 0.000000 0.910227 0.442296
O O14 0.755224 0.000000 0.437755
O O15 0.250000 0.750000 0.375398
O O16 0.000000 0.675392 0.359237
O O17 0.500000 0.000000 0.053331
O O18 0.500000 0.889663 0.000000
#
# Coordination Sequence:
#
# PCOD8274462 Si02
#       6
#    16  16  16  16  16   8
#     4   8  12  22  40  58  77 102 135 183 240 286
#     4   9  15  22  33  50  72 100 139 188 236 282
#     4   8  15  28  48  71  91 117 157 203 246 292
#     4   9  19  37  59  80 101 126 159 203 255 303
#     4  11  22  35  51  73 103 137 170 203 243 298
#     4   9  16  24  32  44  68 106 148 188 233 283
#
# _framework density 18.917126
#
# number of rings (size 3 to 8) (size 9 to 14) (size 15 to 20)
#    0.000    3.000    0.909    2.727    0.000    2.182 
#    0.000    4.545    0.000    4.364    0.000    0.000 
#    0.000    0.000    0.000    0.000    0.000    0.909 
#
# Total GULP energy -545194.567381 kJ/mol
# GULP energy per Si atom -12390.785622 kJ/mol
# Density = 1.887407 g / cm^3
# Si number density = 18.917126 Si / 1000 Ang^3
#
#
#
# Elastic Constant Matrix: (Units=GPa)
#
#
# Indices 1 2 3 4 5 6 
#
# 1 84.4501 20.6829 49.7426 0.0000 0.0000 0.0000
# 2 20.6829 60.2861 46.2916 0.0000 0.0000 0.0000
# 3 49.7426 46.2916 146.1394 0.0000 0.0000 0.0000
# 4 0.0000 0.0000 0.0000 4.2210 0.0000 0.0000
# 5 0.0000 0.0000 0.0000 0.0000 17.2303 0.0000
# 6 0.0000 0.0000 0.0000 0.0000 0.0000 1.3229
#
#
#
# Elastic Compliance Matrix: (Units=1/GPa)
#
#
# Indices 1 2 3 4 5 6 
#
# 1 0.014928 -0.001612 -0.004571 0.000000 0.000000 0.000000
# 2 -0.001612 0.022093 -0.006450 0.000000 0.000000 0.000000
# 3 -0.004571 -0.006450 0.010442 0.000000 0.000000 0.000000
# 4 0.000000 0.000000 0.000000 0.236910 0.000000 0.000000
# 5 0.000000 0.000000 0.000000 0.000000 0.058037 0.000000
# 6 0.000000 0.000000 0.000000 0.000000 0.000000 0.755898
#
#
# Mechanical properties :
#
#
# Convention : Reuss Voigt Hill
#
# Bulk Modulus (GPa) = 45.04816 58.25663 51.65239
# Shear Modulus (GPa) = 4.42098 16.16542 10.29320
#
# Velocity S-wave (km/s) = 1.53039 2.92642 2.33517
# Velocity P-wave (km/s) = 5.19499 6.50240 5.88511
#
# Compressibility (1/GPa) = 0.02219847
#
# Stress axis : x y z
#
# Youngs Moduli (GPa) = 66.98687 45.26324 95.77151
#
# Poissons Ratio (x) = 0.07296 0.43774
# Poissons Ratio (y) = 0.10798 0.61769
# Poissons Ratio (z) = 0.30617 0.29193
#
# Static dielectric constant tensor:
#      x y z
#    x 3.411420 0.000000 0.000000 
#    y 0.000000 2.679140 0.000000 
#    z 0.000000 0.000000 3.794160 
# 
# 
# High freq. dielectric constant tensor:
#      x y z
#    x 1.722420 0.000000 0.000000 
#    y 0.000000 1.664810 0.000000 
#    z 0.000000 0.000000 1.748220 
# 
# From -- ./inp_files/76684.got.cif
#   From: 2010.03.12/outbox.cif.g09.slc.cpg/sg65_39_cif.got.tgz:76684.got - 2010.04.10 20:52:16.
