data_PCOD8274622
_publ_section_title
;
Structure prediction by ZEFSAII (Michael W. Deem and Ramdas Pophale) SiO2 
 PCOD8274622
Probable space group: C M M M
;
_chemical_formula_sum "Si O2"
_cell_formula_units_Z 64
_cell_length_a 12.221264
_cell_length_b 27.207288
_cell_length_c 9.626742
_cell_angle_alpha 90.000000
_cell_angle_beta 90.000000
_cell_angle_gamma 90.000000
_cell_volume 3200.963428
_symmetry_space_group_name_H-M "C M M M"
_symmetry_group_IT_number 65
_symmetry_cell_setting 'orthorhombic'
loop_
_space_group_symop_operation_xyz
x,y,z
-x,-y,z
x,-y,-z
-x,y,-z
-x,-y,-z
x,y,-z
-x,y,z
x,-y,z
1/2+x,1/2+y,z
1/2-x,1/2-y,z
1/2+x,1/2-y,-z
1/2-x,1/2+y,-z
1/2-x,1/2-y,-z
1/2+x,1/2+y,-z
1/2-x,1/2+y,z
1/2+x,1/2-y,z
loop_
_atom_site_type_symbol
_atom_site_label
_atom_site_fract_x
_atom_site_fract_y
_atom_site_fract_z
Si Si1 0.720820 0.604147 0.758912
Si Si2 0.500000 0.647648 0.847428
Si Si3 0.630827 0.058567 0.000000
Si Si4 0.622157 0.556312 0.500000
Si Si5 0.677240 0.202802 0.651149
Si Si6 0.500000 0.755570 0.164537
O O1 0.605170 0.613350 0.832006
O O2 0.811520 0.581548 0.863124
O O3 0.696416 0.567356 0.633505
O O4 0.755282 0.655294 0.692852
O O5 0.500000 0.700313 0.766316
O O6 0.500000 0.669414 0.000000
O O7 0.500000 0.070820 0.000000
O O8 0.649105 0.000000 0.000000
O O9 0.595187 0.500000 0.500000
O O10 0.500000 0.583248 0.500000
O O11 0.619935 0.193116 0.500000
O O12 0.750000 0.250000 0.631417
O O13 0.600614 0.213249 0.780322
O O14 0.500000 0.758484 0.000000
#
# Coordination Sequence:
#
# PCOD8274622 Si02
#       6
#    16   8   8   8  16   8
#     4  12  23  43  70  99 135 180 220 276 342 399
#     4  11  22  40  63 105 141 168 214 277 341 395
#     4  11  28  51  72  95 131 177 232 287 336 398
#     4  11  24  42  68 103 137 169 220 285 354 413
#     4  11  24  40  61  94 135 181 221 265 324 401
#     4  11  25  39  61  92 133 179 222 276 323 390
#
# _framework density 19.993981000000002
#
# number of rings (size 3 to 8) (size 9 to 14) (size 15 to 20)
#    0.000    0.750    6.250    1.125    3.500    0.500 
#    2.250    1.250    0.000    2.250    0.000    0.000 
#    0.000    0.000    0.000    0.000    0.000    0.000 
#
# Total GULP energy -396442.462571 kJ/mol
# GULP energy per Si atom -12388.826955 kJ/mol
# Density = 1.994847 g / cm^3
# Si number density = 19.993981 Si / 1000 Ang^3
#
#
#
# Elastic Constant Matrix: (Units=GPa)
#
#
# Indices 1 2 3 4 5 6 
#
# 1 132.8810 46.0383 66.3087 0.0000 0.0000 0.0000
# 2 46.0383 109.1376 44.1054 0.0000 0.0000 0.0000
# 3 66.3087 44.1054 151.6667 0.0000 0.0000 0.0000
# 4 0.0000 0.0000 0.0000 35.8666 0.0000 0.0000
# 5 0.0000 0.0000 0.0000 0.0000 32.1980 0.0000
# 6 0.0000 0.0000 0.0000 0.0000 0.0000 4.3217
#
#
#
# Elastic Compliance Matrix: (Units=1/GPa)
#
#
# Indices 1 2 3 4 5 6 
#
# 1 0.010367 -0.002880 -0.003695 0.000000 0.000000 0.000000
# 2 -0.002880 0.011183 -0.001993 0.000000 0.000000 0.000000
# 3 -0.003695 -0.001993 0.008788 0.000000 0.000000 0.000000
# 4 0.000000 0.000000 0.000000 0.027881 0.000000 0.000000
# 5 0.000000 0.000000 0.000000 0.000000 0.031058 0.000000
# 6 0.000000 0.000000 0.000000 0.000000 0.000000 0.231391
#
#
# Mechanical properties :
#
#
# Convention : Reuss Voigt Hill
#
# Bulk Modulus (GPa) = 75.74196 78.50999 77.12598
# Shear Modulus (GPa) = 14.61111 30.29279 22.45195
#
# Velocity S-wave (km/s) = 2.70622 3.89665 3.35466
# Velocity P-wave (km/s) = 6.90865 7.71992 7.32552
#
# Compressibility (1/GPa) = 0.01320272
#
# Stress axis : x y z
#
# Youngs Moduli (GPa) = 96.45816 89.42115 113.78612
#
# Poissons Ratio (x) = 0.25753 0.42044
# Poissons Ratio (y) = 0.27780 0.22677
# Poissons Ratio (z) = 0.35641 0.17821
#
# Static dielectric constant tensor:
#      x y z
#    x 3.736340 0.000000 0.000000 
#    y 0.000000 3.873940 0.000000 
#    z 0.000000 0.000000 3.829100 
# 
# 
# High freq. dielectric constant tensor:
#      x y z
#    x 1.779450 0.000000 0.000000 
#    y 0.000000 1.786190 0.000000 
#    z 0.000000 0.000000 1.792600 
# 
# From -- ./inp_files/5025.got.cif
#   From: 2010.03.12/outbox.cif.g09.slc.cpg/sg65_3_cif.got.tgz:5025.got - 2010.04.10 20:52:16.
