data_PCOD8274822
_publ_section_title
;
Structure prediction by ZEFSAII (Michael W. Deem and Ramdas Pophale) SiO2 
 PCOD8274822
Probable space group: C M M M
;
_chemical_formula_sum "Si O2"
_cell_formula_units_Z 64
_cell_length_a 27.192292
_cell_length_b 13.876849
_cell_length_c 10.341546
_cell_angle_alpha 90.000000
_cell_angle_beta 90.000000
_cell_angle_gamma 90.000000
_cell_volume 3902.313405
_symmetry_space_group_name_H-M "C M M M"
_symmetry_group_IT_number 65
_symmetry_cell_setting 'orthorhombic'
loop_
_space_group_symop_operation_xyz
x,y,z
-x,-y,z
x,-y,-z
-x,y,-z
-x,-y,-z
x,y,-z
-x,y,z
x,-y,z
1/2+x,1/2+y,z
1/2-x,1/2-y,z
1/2+x,1/2-y,-z
1/2-x,1/2+y,-z
1/2-x,1/2-y,-z
1/2+x,1/2+y,-z
1/2-x,1/2+y,z
1/2+x,1/2-y,z
loop_
_atom_site_type_symbol
_atom_site_label
_atom_site_fract_x
_atom_site_fract_y
_atom_site_fract_z
Si Si1 0.850206 0.195923 0.251741
Si Si2 0.707942 0.500000 0.249781
Si Si3 0.444296 0.388680 0.650454
Si Si4 0.725823 0.000000 0.500000
Si Si5 0.693800 0.788632 0.000000
Si Si6 0.195022 0.290371 0.500000
Si Si7 0.274773 0.000000 0.000000
O O1 0.908814 0.178558 0.263021
O O2 0.836207 0.253122 0.123546
O O3 0.832375 0.256625 0.372831
O O4 0.825711 0.092496 0.250686
O O5 0.740635 0.500000 0.375352
O O6 0.741158 0.500000 0.124704
O O7 0.430369 0.376651 0.500000
O O8 0.500000 0.354393 0.676090
O O9 0.438186 0.500000 0.690702
O O10 0.692138 0.905771 0.500000
O O11 0.750000 0.750000 0.000000
O O12 0.691916 0.904446 0.000000
O O13 0.250000 0.250000 0.500000
#
# Coordination Sequence:
#
# PCOD8274822 Si02
#       7
#    16   8  16   4   8   8   4
#     4  12  21  35  55  81 109 149 181 215 275 329
#     4  12  20  32  55  75 112 143 184 218 263 324
#     4   9  18  33  56  85 114 142 177 222 273 331
#     4  12  24  32  48  78 108 140 182 244 258 296
#     4  12  24  38  53  77 109 151 189 217 266 325
#     4  12  22  34  51  77 107 143 189 225 266 321
#     4  12  24  40  52  70 110 158 188 222 254 316
#
# _framework density 16.400528999999999
#
# number of rings (size 3 to 8) (size 9 to 14) (size 15 to 20)
#    0.000    0.750    7.500    3.000    0.000    0.000 
#    0.000    0.625    0.000    1.500    0.000    5.250 
#    0.000    0.000    0.000    0.000    0.000    0.000 
#
# Total GULP energy -396836.642157 kJ/mol
# GULP energy per Si atom -12401.145067 kJ/mol
# Density = 1.636320 g / cm^3
# Si number density = 16.400529 Si / 1000 Ang^3
#
#
#
# Elastic Constant Matrix: (Units=GPa)
#
#
# Indices 1 2 3 4 5 6 
#
# 1 119.0506 54.4920 60.8830 0.0000 0.0000 0.0000
# 2 54.4920 138.9768 51.1700 0.0000 0.0000 0.0000
# 3 60.8830 51.1700 134.6578 0.0000 0.0000 0.0000
# 4 0.0000 0.0000 0.0000 46.2397 0.0000 0.0000
# 5 0.0000 0.0000 0.0000 0.0000 28.4006 0.0000
# 6 0.0000 0.0000 0.0000 0.0000 0.0000 33.3176
#
#
#
# Elastic Compliance Matrix: (Units=1/GPa)
#
#
# Indices 1 2 3 4 5 6 
#
# 1 0.012005 -0.003149 -0.004231 0.000000 0.000000 0.000000
# 2 -0.003149 0.009192 -0.002069 0.000000 0.000000 0.000000
# 3 -0.004231 -0.002069 0.010126 0.000000 0.000000 0.000000
# 4 0.000000 0.000000 0.000000 0.021626 0.000000 0.000000
# 5 0.000000 0.000000 0.000000 0.000000 0.035210 0.000000
# 6 0.000000 0.000000 0.000000 0.000000 0.000000 0.030014
#
#
# Mechanical properties :
#
#
# Convention : Reuss Voigt Hill
#
# Bulk Modulus (GPa) = 80.49164 80.64169 80.56666
# Shear Modulus (GPa) = 35.40722 36.66759 36.03741
#
# Velocity S-wave (km/s) = 4.65145 4.73351 4.69266
# Velocity P-wave (km/s) = 8.83364 8.89673 8.86524
#
# Compressibility (1/GPa) = 0.01242365
#
# Stress axis : x y z
#
# Youngs Moduli (GPa) = 83.29787 108.78936 98.76012
#
# Poissons Ratio (x) = 0.34261 0.41787
# Poissons Ratio (y) = 0.26233 0.20435
# Poissons Ratio (z) = 0.35245 0.22510
#
# Static dielectric constant tensor:
#      x y z
#    x 3.063510 0.000000 0.000000 
#    y 0.000000 3.281860 0.000000 
#    z 0.000000 0.000000 3.012650 
# 
# 
# High freq. dielectric constant tensor:
#      x y z
#    x 1.615500 0.000000 0.000000 
#    y 0.000000 1.629410 0.000000 
#    z 0.000000 0.000000 1.639230 
# 
# From -- ./inp_files/17891.got.cif
#   From: 2010.03.12/outbox.cif.g09.slc.cpg/sg65_9_cif.got.tgz:17891.got - 2010.04.10 20:52:16.
