data_PCOD8274328
_publ_section_title
;
Structure prediction by ZEFSAII (Michael W. Deem and Ramdas Pophale) SiO2 
 PCOD8274328
Probable space group: C M M M
;
_chemical_formula_sum "Si O2"
_cell_formula_units_Z 88
_cell_length_a 22.598164
_cell_length_b 24.418052
_cell_length_c 9.127505
_cell_angle_alpha 90.000000
_cell_angle_beta 90.000000
_cell_angle_gamma 90.000000
_cell_volume 5036.585953
_symmetry_space_group_name_H-M "C M M M"
_symmetry_group_IT_number 65
_symmetry_cell_setting 'orthorhombic'
loop_
_space_group_symop_operation_xyz
x,y,z
-x,-y,z
x,-y,-z
-x,y,-z
-x,-y,-z
x,y,-z
-x,y,z
x,-y,z
1/2+x,1/2+y,z
1/2-x,1/2-y,z
1/2+x,1/2-y,-z
1/2-x,1/2+y,-z
1/2-x,1/2-y,-z
1/2+x,1/2+y,-z
1/2-x,1/2+y,z
1/2+x,1/2-y,z
loop_
_atom_site_type_symbol
_atom_site_label
_atom_site_fract_x
_atom_site_fract_y
_atom_site_fract_z
Si Si1 0.432041 0.237637 0.831724
Si Si2 0.000000 0.564734 0.331455
Si Si3 0.652792 0.439611 0.326222
Si Si4 0.713212 0.936195 0.331629
Si Si5 0.890920 0.619573 0.171946
Si Si6 0.932491 0.845750 0.673253
O O1 0.500000 0.223863 0.793952
O O2 0.394162 0.184108 0.792445
O O3 0.408638 0.288423 0.736377
O O4 0.424733 0.254340 0.000000
O O5 0.941622 0.587127 0.255375
O O6 0.000000 0.500000 0.316781
O O7 0.000000 0.583473 0.500000
O O8 0.647851 0.441745 0.500000
O O9 0.636707 0.500000 0.263396
O O10 0.719613 0.423823 0.282592
O O11 0.607319 0.394967 0.261733
O O12 0.702493 0.918817 0.500000
O O13 0.672588 0.900738 0.225313
O O14 0.698313 0.000000 0.311969
O O15 0.898887 0.608663 0.000000
O O16 0.927053 0.842740 0.500000
O O17 0.000000 0.856164 0.723459
#
# Coordination Sequence:
#
# PCOD8274328 Si02
#       6
#    16   8  16  16  16  16
#     4   9  18  34  50  66  95 133 165 197 247 301
#     4  11  23  35  49  73 103 131 162 205 254 301
#     4   8  15  30  51  74 103 134 160 196 249 303
#     4   9  18  33  51  70  96 133 170 201 245 303
#     4  11  21  34  51  72  97 130 171 211 250 290
#     4   9  17  29  50  80 103 123 162 208 246 292
#
# _framework density 17.472152999999999
#
# number of rings (size 3 to 8) (size 9 to 14) (size 15 to 20)
#    0.000    2.636    0.909    2.455    0.000    5.091 
#    0.000    3.636    0.000    7.091    0.000    2.545 
#    0.000    0.000    0.000    0.000    0.000    0.000 
#
# Total GULP energy -545581.251990 kJ/mol
# GULP energy per Si atom -12399.573909 kJ/mol
# Density = 1.743239 g / cm^3
# Si number density = 17.472153 Si / 1000 Ang^3
#
#
#
# Elastic Constant Matrix: (Units=GPa)
#
#
# Indices 1 2 3 4 5 6 
#
# 1 101.2625 81.1488 41.6827 0.0000 0.0000 0.0000
# 2 81.1488 132.9984 54.4239 0.0000 0.0000 0.0000
# 3 41.6827 54.4239 58.5785 0.0000 0.0000 0.0000
# 4 0.0000 0.0000 0.0000 1.1148 0.0000 0.0000
# 5 0.0000 0.0000 0.0000 0.0000 15.0117 0.0000
# 6 0.0000 0.0000 0.0000 0.0000 0.0000 18.5228
#
#
#
# Elastic Compliance Matrix: (Units=1/GPa)
#
#
# Indices 1 2 3 4 5 6 
#
# 1 0.020092 -0.010340 -0.004690 0.000000 0.000000 0.000000
# 2 -0.010340 0.017452 -0.008857 0.000000 0.000000 0.000000
# 3 -0.004690 -0.008857 0.028637 0.000000 0.000000 0.000000
# 4 0.000000 0.000000 0.000000 0.897032 0.000000 0.000000
# 5 0.000000 0.000000 0.000000 0.000000 0.066615 0.000000
# 6 0.000000 0.000000 0.000000 0.000000 0.000000 0.053987
#
#
# Mechanical properties :
#
#
# Convention : Reuss Voigt Hill
#
# Bulk Modulus (GPa) = 54.32612 71.92780 63.12696
# Shear Modulus (GPa) = 4.39474 14.63546 9.51510
#
# Velocity S-wave (km/s) = 1.58768 2.89735 2.33617
# Velocity P-wave (km/s) = 5.87550 7.24219 6.59435
#
# Compressibility (1/GPa) = 0.01840735
#
# Stress axis : x y z
#
# Youngs Moduli (GPa) = 49.77094 57.30034 34.91963
#
# Poissons Ratio (x) = 0.59247 0.16379
# Poissons Ratio (y) = 0.51462 0.30927
# Poissons Ratio (z) = 0.23345 0.50749
#
# Static dielectric constant tensor:
#      x y z
#    x 3.301820 0.000000 0.000000 
#    y 0.000000 3.461220 0.000000 
#    z 0.000000 0.000000 3.073570 
# 
# 
# High freq. dielectric constant tensor:
#      x y z
#    x 1.666910 0.000000 0.000000 
#    y 0.000000 1.679790 0.000000 
#    z 0.000000 0.000000 1.657000 
# 
# From -- ./inp_files/11713.got.cif
#   From: 2010.03.12/outbox.cif.g09.slc.cpg/sg65_6_cif.got.tgz:11713.got - 2010.04.10 20:52:16.
