data_PCOD8274763
_publ_section_title
;
Structure prediction by ZEFSAII (Michael W. Deem and Ramdas Pophale) SiO2 
 PCOD8274763
Probable space group: C M M M
;
_chemical_formula_sum "Si O2"
_cell_formula_units_Z 56
_cell_length_a 17.134103
_cell_length_b 9.642568
_cell_length_c 16.277985
_cell_angle_alpha 90.000000
_cell_angle_beta 90.000000
_cell_angle_gamma 90.000000
_cell_volume 2689.395832
_symmetry_space_group_name_H-M "C M M M"
_symmetry_group_IT_number 65
_symmetry_cell_setting 'orthorhombic'
loop_
_space_group_symop_operation_xyz
x,y,z
-x,-y,z
x,-y,-z
-x,y,-z
-x,-y,-z
x,y,-z
-x,y,z
x,-y,z
1/2+x,1/2+y,z
1/2-x,1/2-y,z
1/2+x,1/2-y,-z
1/2-x,1/2+y,-z
1/2-x,1/2-y,-z
1/2+x,1/2+y,-z
1/2-x,1/2+y,z
1/2+x,1/2-y,z
loop_
_atom_site_type_symbol
_atom_site_label
_atom_site_fract_x
_atom_site_fract_y
_atom_site_fract_z
Si Si1 0.408088 0.157493 0.139699
Si Si2 0.341330 0.759841 0.686351
Si Si3 0.092647 0.000000 0.594386
Si Si4 0.413300 0.000000 0.404828
Si Si5 0.169058 0.169759 0.000000
O O1 0.500000 0.159163 0.130638
O O2 0.384518 0.198887 0.230725
O O3 0.377492 0.000000 0.119539
O O4 0.375351 0.276530 0.080413
O O5 0.250000 0.750000 0.704439
O O6 0.375549 0.623602 0.647832
O O7 0.360136 0.871433 0.617814
O O8 0.123924 0.000000 0.500000
O O9 0.000000 0.000000 0.592961
O O10 0.500000 0.000000 0.362139
O O11 0.428154 0.000000 0.500000
O O12 0.250000 0.250000 0.000000
O O13 0.175849 0.000000 0.000000
#
# Coordination Sequence:
#
# PCOD8274763 Si02
#       5
#    16  16   8   8   8
#     4  11  24  45  72 100 137 182 232 284 343 415
#     4  12  25  41  67  99 136 178 228 287 347 406
#     4  11  25  43  63  94 137 182 229 287 351 411
#     4  11  23  43  69  94 127 178 235 283 341 421
#     4  12  27  46  73 105 143 181 225 282 341 408
#
# _framework density 20.822520000000001
#
# number of rings (size 3 to 8) (size 9 to 14) (size 15 to 20)
#    0.000    0.571    1.429    6.857    2.000    8.000 
#    0.000    0.000    0.000    0.000    0.000    0.000 
#    0.000    0.000    0.000    0.000    0.000    0.000 
#
# Total GULP energy -347095.290750 kJ/mol
# GULP energy per Si atom -12396.260384 kJ/mol
# Density = 2.077513 g / cm^3
# Si number density = 20.822520 Si / 1000 Ang^3
#
#
#
# Elastic Constant Matrix: (Units=GPa)
#
#
# Indices 1 2 3 4 5 6 
#
# 1 79.2348 51.4802 33.6977 0.0000 0.0000 0.0000
# 2 51.4802 203.1436 60.6484 0.0000 0.0000 0.0000
# 3 33.6977 60.6484 106.4462 0.0000 0.0000 0.0000
# 4 0.0000 0.0000 0.0000 30.2279 0.0000 0.0000
# 5 0.0000 0.0000 0.0000 0.0000 99.2056 0.0000
# 6 0.0000 0.0000 0.0000 0.0000 0.0000 19.4254
#
#
#
# Elastic Compliance Matrix: (Units=1/GPa)
#
#
# Indices 1 2 3 4 5 6 
#
# 1 0.016029 -0.003069 -0.003326 0.000000 0.000000 0.000000
# 2 -0.003069 0.006519 -0.002743 0.000000 0.000000 0.000000
# 3 -0.003326 -0.002743 0.012010 0.000000 0.000000 0.000000
# 4 0.000000 0.000000 0.000000 0.033082 0.000000 0.000000
# 5 0.000000 0.000000 0.000000 0.000000 0.010080 0.000000
# 6 0.000000 0.000000 0.000000 0.000000 0.000000 0.051479
#
#
# Mechanical properties :
#
#
# Convention : Reuss Voigt Hill
#
# Bulk Modulus (GPa) = 61.41337 75.60860 68.51098
# Shear Modulus (GPa) = 32.70056 45.97167 39.33611
#
# Velocity S-wave (km/s) = 3.96718 4.70381 4.35111
# Velocity P-wave (km/s) = 7.10932 8.11732 7.62998
#
# Compressibility (1/GPa) = 0.01628310
#
# Stress axis : x y z
#
# Youngs Moduli (GPa) = 62.38613 153.39130 83.26435
#
# Poissons Ratio (x) = 0.47079 0.27691
# Poissons Ratio (y) = 0.19148 0.22838
# Poissons Ratio (z) = 0.20748 0.42072
#
# Static dielectric constant tensor:
#      x y z
#    x 4.003420 0.000000 0.000000 
#    y 0.000000 4.067020 0.000000 
#    z 0.000000 0.000000 3.932590 
# 
# 
# High freq. dielectric constant tensor:
#      x y z
#    x 1.829760 0.000000 0.000000 
#    y 0.000000 1.833870 0.000000 
#    z 0.000000 0.000000 1.831050 
# 
# From -- ./inp_files/53928.got.cif
#   From: 2010.03.12/outbox.cif.g09.slc.cpg/sg65_27_cif.got.tgz:53928.got - 2010.04.10 20:52:16.
