data_PCOD8274976
_publ_section_title
;
Structure prediction by ZEFSAII (Michael W. Deem and Ramdas Pophale) SiO2 
 PCOD8274976
Probable space group: C M M M
;
_chemical_formula_sum "Si O2"
_cell_formula_units_Z 128
_cell_length_a 28.041426
_cell_length_b 28.402615
_cell_length_c 9.797722
_cell_angle_alpha 90.000000
_cell_angle_beta 90.000000
_cell_angle_gamma 90.000000
_cell_volume 7803.393989
_symmetry_space_group_name_H-M "C M M M"
_symmetry_group_IT_number 65
_symmetry_cell_setting 'orthorhombic'
loop_
_space_group_symop_operation_xyz
x,y,z
-x,-y,z
x,-y,-z
-x,y,-z
-x,-y,-z
x,y,-z
-x,y,z
x,-y,z
1/2+x,1/2+y,z
1/2-x,1/2-y,z
1/2+x,1/2-y,-z
1/2-x,1/2+y,-z
1/2-x,1/2-y,-z
1/2+x,1/2+y,-z
1/2-x,1/2+y,z
1/2+x,1/2-y,z
loop_
_atom_site_type_symbol
_atom_site_label
_atom_site_fract_x
_atom_site_fract_y
_atom_site_fract_z
Si Si1 0.351791 0.864625 0.338693
Si Si2 0.122998 0.053942 0.657627
Si Si3 0.052520 0.315009 0.661367
Si Si4 0.812245 0.445397 0.159153
Si Si5 0.300391 0.769192 0.661914
Si Si6 0.947291 0.132506 0.661360
Si Si7 0.895755 0.776381 0.662684
Si Si8 0.704731 0.444272 0.850733
O O1 0.347246 0.874549 0.500000
O O2 0.406082 0.851454 0.297347
O O3 0.343534 0.912326 0.255287
O O4 0.314720 0.822837 0.295401
O O5 0.136191 0.060663 0.500000
O O6 0.075921 0.082519 0.699044
O O7 0.167731 0.075297 0.739836
O O8 0.112286 0.000000 0.694390
O O9 0.049131 0.313126 0.500000
O O10 0.067685 0.263467 0.715430
O O11 0.000000 0.328484 0.721854
O O12 0.821586 0.500000 0.197211
O O13 0.758014 0.430345 0.191227
O O14 0.824188 0.436977 0.000000
O O15 0.297654 0.767521 0.500000
O O16 0.250000 0.750000 0.723803
O O17 0.342130 0.734324 0.715622
O O18 0.951159 0.138747 0.500000
O O19 0.914237 0.174027 0.721912
O O20 0.000000 0.134286 0.726820
O O21 0.894608 0.776421 0.500000
O O22 0.701384 0.500000 0.856950
O O23 0.692050 0.423424 0.000000
#
# Coordination Sequence:
#
# PCOD8274976 Si02
#       8
#    16  16  16  16  16  16  16  16
#     4   9  17  27  43  69  92 113 146 182 216 256
#     4   9  17  27  39  59  86 111 137 176 223 260
#     4   8  13  23  40  61  86 112 138 176 221 255
#     4   9  18  32  48  65  88 119 148 174 211 257
#     4   8  14  24  37  58  91 121 140 169 219 268
#     4   9  16  24  35  54  81 113 147 179 213 256
#     4   8  13  21  34  54  80 111 145 175 206 250
#     4   8  15  29  46  60  76 104 141 173 202 243
#
# _framework density 16.403119
#
# number of rings (size 3 to 8) (size 9 to 14) (size 15 to 20)
#    0.000    3.500    0.000    2.625    0.000    3.500 
#    0.000    5.000    0.000    1.500    0.000    7.875 
#    0.000    4.000    0.000    0.000    0.000    0.000 
#
# Total GULP energy -792929.044278 kJ/mol
# GULP energy per Si atom -12389.516317 kJ/mol
# Density = 1.636578 g / cm^3
# Si number density = 16.403119 Si / 1000 Ang^3
#
#
#
# Elastic Constant Matrix: (Units=GPa)
#
#
# Indices 1 2 3 4 5 6 
#
# 1 141.3421 67.4351 33.1927 0.0000 0.0000 0.0000
# 2 67.4351 99.9046 35.5400 0.0000 0.0000 0.0000
# 3 33.1927 35.5400 29.0047 0.0000 0.0000 0.0000
# 4 0.0000 0.0000 0.0000 9.8493 0.0000 0.0000
# 5 0.0000 0.0000 0.0000 0.0000 8.0662 0.0000
# 6 0.0000 0.0000 0.0000 0.0000 0.0000 23.1171
#
#
#
# Elastic Compliance Matrix: (Units=1/GPa)
#
#
# Indices 1 2 3 4 5 6 
#
# 1 0.011032 -0.005239 -0.006205 0.000000 0.000000 0.000000
# 2 -0.005239 0.020232 -0.018795 0.000000 0.000000 0.000000
# 3 -0.006205 -0.018795 0.064609 0.000000 0.000000 0.000000
# 4 0.000000 0.000000 0.000000 0.101530 0.000000 0.000000
# 5 0.000000 0.000000 0.000000 0.000000 0.123975 0.000000
# 6 0.000000 0.000000 0.000000 0.000000 0.000000 0.043258
#
#
# Mechanical properties :
#
#
# Convention : Reuss Voigt Hill
#
# Bulk Modulus (GPa) = 28.25383 60.28746 44.27065
# Shear Modulus (GPa) = 11.44395 17.14543 14.29469
#
# Velocity S-wave (km/s) = 2.64421 3.23655 2.95526
# Velocity P-wave (km/s) = 5.15602 7.12744 6.22033
#
# Compressibility (1/GPa) = 0.03539343
#
# Stress axis : x y z
#
# Youngs Moduli (GPa) = 90.64691 49.42655 15.47777
#
# Poissons Ratio (x) = 0.25894 0.09604
# Poissons Ratio (y) = 0.47489 0.29091
# Poissons Ratio (z) = 0.56250 0.92899
#
# Static dielectric constant tensor:
#      x y z
#    x 3.534090 0.000000 0.000000 
#    y 0.000000 3.002320 0.000000 
#    z 0.000000 0.000000 2.701530 
# 
# 
# High freq. dielectric constant tensor:
#      x y z
#    x 1.636360 0.000000 0.000000 
#    y 0.000000 1.621360 0.000000 
#    z 0.000000 0.000000 1.573420 
# 
# From -- ./inp_files/32944.got.cif
#   From: 2010.03.12/outbox.cif.g09.slc.cpg/sg65_17_cif.got.tgz:32944.got - 2010.04.10 20:52:16.
