data_PCOD8274094
_publ_section_title
;
Structure prediction by ZEFSAII (Michael W. Deem and Ramdas Pophale) SiO2 
 PCOD8274094
Probable space group: C M M M
;
_chemical_formula_sum "Si O2"
_cell_formula_units_Z 72
_cell_length_a 27.801465
_cell_length_b 15.554899
_cell_length_c 7.770494
_cell_angle_alpha 90.000000
_cell_angle_beta 90.000000
_cell_angle_gamma 90.000000
_cell_volume 3360.342205
_symmetry_space_group_name_H-M "C M M M"
_symmetry_group_IT_number 65
_symmetry_cell_setting 'orthorhombic'
loop_
_space_group_symop_operation_xyz
x,y,z
-x,-y,z
x,-y,-z
-x,y,-z
-x,-y,-z
x,y,-z
-x,y,z
x,-y,z
1/2+x,1/2+y,z
1/2-x,1/2-y,z
1/2+x,1/2-y,-z
1/2-x,1/2+y,-z
1/2-x,1/2-y,-z
1/2+x,1/2+y,-z
1/2-x,1/2+y,z
1/2+x,1/2-y,z
loop_
_atom_site_type_symbol
_atom_site_label
_atom_site_fract_x
_atom_site_fract_y
_atom_site_fract_z
Si Si1 0.052526 0.398479 0.805378
Si Si2 0.350358 0.843323 0.689559
Si Si3 0.791061 0.500000 0.186735
Si Si4 0.626913 0.343447 0.707072
Si Si5 0.811961 0.000000 0.307782
Si Si6 0.443356 0.602260 0.000000
O O1 0.053682 0.500000 0.794635
O O2 0.092511 0.360223 0.680720
O O3 0.000000 0.364785 0.746863
O O4 0.063447 0.368149 0.000000
O O5 0.328381 0.853389 0.500000
O O6 0.323513 0.914408 0.802805
O O7 0.345482 0.745494 0.754507
O O8 0.745880 0.500000 0.312941
O O9 0.767129 0.500000 0.000000
O O10 0.614535 0.346146 0.500000
O O11 0.665273 0.414262 0.773276
O O12 0.579419 0.356507 0.825064
O O13 0.830970 0.000000 0.500000
O O14 0.434970 0.500000 0.000000
O O15 0.500000 0.624581 0.000000
#
# Coordination Sequence:
#
# PCOD8274094 Si02
#       6
#    16  16   8  16   8   8
#     4   9  18  33  54  80 115 160 205 252 309 370
#     4  11  23  40  61  90 128 171 217 266 319 388
#     4  12  26  40  63  97 129 165 213 274 331 390
#     4  10  24  44  69  96 133 177 218 270 329 390
#     4  10  22  46  70  90 123 167 213 273 336 393
#     4  11  24  42  72 104 136 176 220 271 324 393
#
# _framework density 21.426390000000001
#
# number of rings (size 3 to 8) (size 9 to 14) (size 15 to 20)
#    0.000    1.667    2.222    2.333    4.667    2.667 
#    0.000    8.889    0.000    0.000    0.000    0.000 
#    0.000    0.000    0.000    0.000    0.000    0.000 
#
# Total GULP energy -446098.921109 kJ/mol
# GULP energy per Si atom -12391.636697 kJ/mol
# Density = 2.137762 g / cm^3
# Si number density = 21.426390 Si / 1000 Ang^3
#
#
#
# Elastic Constant Matrix: (Units=GPa)
#
#
# Indices 1 2 3 4 5 6 
#
# 1 119.9707 60.9862 22.0729 0.0000 0.0000 0.0000
# 2 60.9862 144.6296 38.5352 0.0000 0.0000 0.0000
# 3 22.0729 38.5352 73.8868 0.0000 0.0000 0.0000
# 4 0.0000 0.0000 0.0000 21.2424 0.0000 0.0000
# 5 0.0000 0.0000 0.0000 0.0000 30.3302 0.0000
# 6 0.0000 0.0000 0.0000 0.0000 0.0000 12.9211
#
#
#
# Elastic Compliance Matrix: (Units=1/GPa)
#
#
# Indices 1 2 3 4 5 6 
#
# 1 0.010670 -0.004239 -0.000977 0.000000 0.000000 0.000000
# 2 -0.004239 0.009714 -0.003800 0.000000 0.000000 0.000000
# 3 -0.000977 -0.003800 0.015808 0.000000 0.000000 0.000000
# 4 0.000000 0.000000 0.000000 0.047076 0.000000 0.000000
# 5 0.000000 0.000000 0.000000 0.000000 0.032970 0.000000
# 6 0.000000 0.000000 0.000000 0.000000 0.000000 0.077393
#
#
# Mechanical properties :
#
#
# Convention : Reuss Voigt Hill
#
# Bulk Modulus (GPa) = 55.06441 64.63064 59.84753
# Shear Modulus (GPa) = 22.96575 27.35825 25.16200
#
# Velocity S-wave (km/s) = 3.27745 3.57718 3.43059
# Velocity P-wave (km/s) = 6.33067 6.87685 6.60941
#
# Compressibility (1/GPa) = 0.01816055
#
# Stress axis : x y z
#
# Youngs Moduli (GPa) = 93.72148 102.94270 63.25958
#
# Poissons Ratio (x) = 0.43637 0.06179
# Poissons Ratio (y) = 0.39728 0.24039
# Poissons Ratio (z) = 0.09154 0.39118
#
# Static dielectric constant tensor:
#      x y z
#    x 4.544280 0.000000 0.000000 
#    y 0.000000 4.040510 0.000000 
#    z 0.000000 0.000000 3.791940 
# 
# 
# High freq. dielectric constant tensor:
#      x y z
#    x 1.827910 0.000000 0.000000 
#    y 0.000000 1.849970 0.000000 
#    z 0.000000 0.000000 1.835020 
# 
# From -- ./inp_files/15843.got.cif
#   From: 2010.03.12/outbox.cif.g09.slc.cpg/sg65_8_cif.got.tgz:15843.got - 2010.04.10 20:52:16.
