data_PCOD8274806
_publ_section_title
;
Structure prediction by ZEFSAII (Michael W. Deem and Ramdas Pophale) SiO2 
 PCOD8274806
Probable space group: C M M M
;
_chemical_formula_sum "Si O2"
_cell_formula_units_Z 88
_cell_length_a 29.283687
_cell_length_b 9.673621
_cell_length_c 17.366702
_cell_angle_alpha 90.000000
_cell_angle_beta 90.000000
_cell_angle_gamma 90.000000
_cell_volume 4919.627004
_symmetry_space_group_name_H-M "C M M M"
_symmetry_group_IT_number 65
_symmetry_cell_setting 'orthorhombic'
loop_
_space_group_symop_operation_xyz
x,y,z
-x,-y,z
x,-y,-z
-x,y,-z
-x,-y,-z
x,y,-z
-x,y,z
x,-y,z
1/2+x,1/2+y,z
1/2-x,1/2-y,z
1/2+x,1/2-y,-z
1/2-x,1/2+y,-z
1/2-x,1/2-y,-z
1/2+x,1/2+y,-z
1/2-x,1/2+y,z
1/2+x,1/2-y,z
loop_
_atom_site_type_symbol
_atom_site_label
_atom_site_fract_x
_atom_site_fract_y
_atom_site_fract_z
Si Si1 0.946144 0.155778 0.086287
Si Si2 0.609714 0.838285 0.799671
Si Si3 0.289095 0.847836 0.620228
Si Si4 0.445792 0.662389 0.500000
Si Si5 0.211078 0.347179 0.802883
Si Si6 0.607849 0.162455 0.378501
O O1 0.925552 0.258664 0.147905
O O2 0.000000 0.166504 0.093170
O O3 0.929949 0.000000 0.104532
O O4 0.930614 0.197476 0.000000
O O5 0.660800 0.790397 0.823250
O O6 0.599412 0.804585 0.710893
O O7 0.604170 0.000000 0.814824
O O8 0.250000 0.750000 0.584161
O O9 0.284487 0.853458 0.711525
O O10 0.340113 0.798564 0.597819
O O11 0.280758 0.000000 0.585882
O O12 0.432181 0.500000 0.500000
O O13 0.500000 0.679752 0.500000
O O14 0.426093 0.738953 0.424970
O O15 0.218169 0.500000 0.837535
O O16 0.250000 0.250000 0.839500
O O17 0.598647 0.000000 0.395933
#
# Coordination Sequence:
#
# PCOD8274806 Si02
#       6
#    16  16  16   8  16  16
#     4   9  19  35  52  72 101 134 165 201 250 304
#     4   9  18  32  52  79 105 129 164 208 247 289
#     4   8  14  26  46  72 100 128 158 194 238 289
#     4  11  25  41  54  71  96 127 168 217 260 295
#     4   8  14  25  42  68 101 131 160 196 237 283
#     4   9  19  36  55  75 101 133 168 204 246 299
#
# _framework density 17.887535
#
# number of rings (size 3 to 8) (size 9 to 14) (size 15 to 20)
#    0.000    3.182    0.000    3.000    0.000    4.364 
#    0.000    8.636    0.000    0.545    0.000    0.000 
#    0.000    0.000    0.000    0.000    0.000    0.000 
#
# Total GULP energy -545339.743084 kJ/mol
# GULP energy per Si atom -12394.085070 kJ/mol
# Density = 1.784682 g / cm^3
# Si number density = 17.887535 Si / 1000 Ang^3
#
#
#
# Elastic Constant Matrix: (Units=GPa)
#
#
# Indices 1 2 3 4 5 6 
#
# 1 95.5334 66.2637 45.5223 0.0000 0.0000 0.0000
# 2 66.2637 94.9313 53.2589 0.0000 0.0000 0.0000
# 3 45.5223 53.2589 78.3354 0.0000 0.0000 0.0000
# 4 0.0000 0.0000 0.0000 9.7064 0.0000 0.0000
# 5 0.0000 0.0000 0.0000 0.0000 -27.7540 0.0000
# 6 0.0000 0.0000 0.0000 0.0000 0.0000 39.6897
#
#
#
# Elastic Compliance Matrix: (Units=1/GPa)
#
#
# Indices 1 2 3 4 5 6 
#
# 1 0.020902 -0.012570 -0.003600 0.000000 0.000000 0.000000
# 2 -0.012570 0.024589 -0.009413 0.000000 0.000000 0.000000
# 3 -0.003600 -0.009413 0.021258 0.000000 0.000000 0.000000
# 4 0.000000 0.000000 0.000000 0.103024 0.000000 0.000000
# 5 0.000000 0.000000 0.000000 0.000000 -0.036031 0.000000
# 6 0.000000 0.000000 0.000000 0.000000 0.000000 0.025195
#
#
# Mechanical properties :
#
#
# Convention : Reuss Voigt Hill
#
# Bulk Modulus (GPa) = 64.17748 66.54333 65.36040
# Shear Modulus (GPa) = 23.22363 11.24544 17.23454
#
# Velocity S-wave (km/s) = 3.60712 2.51006 3.10739
# Velocity P-wave (km/s) = 7.30100 6.75886 7.03516
#
# Compressibility (1/GPa) = 0.01558179
#
# Stress axis : x y z
#
# Youngs Moduli (GPa) = 47.84240 40.66878 47.04206
#
# Poissons Ratio (x) = 0.51121 0.16937
# Poissons Ratio (y) = 0.60138 0.44280
# Poissons Ratio (z) = 0.17225 0.38281
#
# Static dielectric constant tensor:
#      x y z
#    x 3.381710 0.000000 0.000000 
#    y 0.000000 3.517470 0.000000 
#    z 0.000000 0.000000 3.019620 
# 
# 
# High freq. dielectric constant tensor:
#      x y z
#    x 1.693850 0.000000 0.000000 
#    y 0.000000 1.690290 0.000000 
#    z 0.000000 0.000000 1.667030 
# 
# From -- ./inp_files/50330.got.cif
#   From: 2010.03.12/outbox.cif.g09.slc.cpg/sg65_26_cif.got.tgz:50330.got - 2010.04.10 20:52:16.
