data_PCOD8274298
_publ_section_title
;
Structure prediction by ZEFSAII (Michael W. Deem and Ramdas Pophale) SiO2 
 PCOD8274298
Probable space group: C M M M
;
_chemical_formula_sum "Si O2"
_cell_formula_units_Z 80
_cell_length_a 28.275810
_cell_length_b 8.612344
_cell_length_c 21.145126
_cell_angle_alpha 90.000000
_cell_angle_beta 90.000000
_cell_angle_gamma 90.000000
_cell_volume 5149.282284
_symmetry_space_group_name_H-M "C M M M"
_symmetry_group_IT_number 65
_symmetry_cell_setting 'orthorhombic'
loop_
_space_group_symop_operation_xyz
x,y,z
-x,-y,z
x,-y,-z
-x,y,-z
-x,-y,-z
x,y,-z
-x,y,z
x,-y,z
1/2+x,1/2+y,z
1/2-x,1/2-y,z
1/2+x,1/2-y,-z
1/2-x,1/2+y,-z
1/2-x,1/2-y,-z
1/2+x,1/2+y,-z
1/2-x,1/2+y,z
1/2+x,1/2-y,z
loop_
_atom_site_type_symbol
_atom_site_label
_atom_site_fract_x
_atom_site_fract_y
_atom_site_fract_z
Si Si1 0.801480 0.818899 0.500000
Si Si2 0.446597 0.180358 0.926667
Si Si3 0.144712 0.181350 0.880926
Si Si4 0.698081 0.817335 0.000000
Si Si5 0.197676 0.183591 0.635012
Si Si6 0.197262 0.316645 0.237244
O O1 0.750000 0.750000 0.500000
O O2 0.827774 0.775329 0.566820
O O3 0.792974 0.000000 0.500000
O O4 0.500000 0.219009 0.905189
O O5 0.411223 0.283595 0.884935
O O6 0.435214 0.000000 0.915659
O O7 0.439785 0.222923 0.000000
O O8 0.170840 0.265138 0.937982
O O9 0.163610 0.245862 0.815320
O O10 0.154589 0.000000 0.885318
O O11 0.750000 0.750000 0.000000
O O12 0.701613 0.000000 0.000000
O O13 0.250000 0.250000 0.630449
O O14 0.173755 0.267960 0.695147
O O15 0.198559 0.000000 0.647862
O O16 0.199207 0.500000 0.230279
O O17 0.250000 0.250000 0.229988
#
# Coordination Sequence:
#
# PCOD8274298 Si02
#       6
#     8  16  16   8  16  16
#     4   8  14  22  36  56  80 108 141 182 223 258
#     4   9  18  34  55  75  94 115 140 176 224 273
#     4  12  23  35  50  70  91 116 149 186 226 269
#     4  12  24  38  51  66  89 116 150 189 227 265
#     4   9  15  25  39  58  82 111 147 185 222 262
#     4  11  21  33  46  62  87 121 156 191 228 268
#
# _framework density 15.536144999999999
#
# number of rings (size 3 to 8) (size 9 to 14) (size 15 to 20)
#    0.000    1.800    1.000    7.500    0.000    1.200 
#    0.000    1.000    0.000    0.000    0.000    0.000 
#    0.000    0.000    0.000    0.900    0.000   17.500 
#
# Total GULP energy -495661.653376 kJ/mol
# GULP energy per Si atom -12391.541334 kJ/mol
# Density = 1.550078 g / cm^3
# Si number density = 15.536145 Si / 1000 Ang^3
#
#
#
# Elastic Constant Matrix: (Units=GPa)
#
#
# Indices 1 2 3 4 5 6 
#
# 1 67.3533 32.2401 44.3517 0.0000 0.0000 0.0000
# 2 32.2401 107.7374 42.2085 0.0000 0.0000 0.0000
# 3 44.3517 42.2085 136.4464 0.0000 0.0000 0.0000
# 4 0.0000 0.0000 0.0000 10.0915 0.0000 0.0000
# 5 0.0000 0.0000 0.0000 0.0000 -3.6931 0.0000
# 6 0.0000 0.0000 0.0000 0.0000 0.0000 21.3615
#
#
#
# Elastic Compliance Matrix: (Units=1/GPa)
#
#
# Indices 1 2 3 4 5 6 
#
# 1 0.020278 -0.003967 -0.005364 0.000000 0.000000 0.000000
# 2 -0.003967 0.011338 -0.002218 0.000000 0.000000 0.000000
# 3 -0.005364 -0.002218 0.009759 0.000000 0.000000 0.000000
# 4 0.000000 0.000000 0.000000 0.099093 0.000000 0.000000
# 5 0.000000 0.000000 0.000000 0.000000 -0.270772 0.000000
# 6 0.000000 0.000000 0.000000 0.000000 0.000000 0.046813
#
#
# Mechanical properties :
#
#
# Convention : Reuss Voigt Hill
#
# Bulk Modulus (GPa) = 54.71394 61.01529 57.86462
# Shear Modulus (GPa) = -92.07862 18.40110 -36.83876
#
# Velocity S-wave (km/s) = -7.70688 3.44525 -4.87474
# Velocity P-wave (km/s) = 6.62579 7.42864 2.37526
#
# Compressibility (1/GPa) = 0.01827688
#
# Stress axis : x y z
#
# Youngs Moduli (GPa) = 49.31412 88.20119 102.47311
#
# Poissons Ratio (x) = 0.34986 0.54970
# Poissons Ratio (y) = 0.19561 0.22728
# Poissons Ratio (z) = 0.26454 0.19562
#
# Static dielectric constant tensor:
#      x y z
#    x 2.712350 0.000000 0.000000 
#    y 0.000000 2.085240 0.000000 
#    z 0.000000 0.000000 3.443880 
# 
# 
# High freq. dielectric constant tensor:
#      x y z
#    x 1.542100 0.000000 0.000000 
#    y 0.000000 1.613540 0.000000 
#    z 0.000000 0.000000 1.606140 
# 
# From -- ./inp_files/66157.got.cif
#   From: 2010.03.12/outbox.cif.g09.slc.cpg/sg65_34_cif.got.tgz:66157.got - 2010.04.10 20:52:16.
