data_PCOD8274556
_publ_section_title
;
Structure prediction by ZEFSAII (Michael W. Deem and Ramdas Pophale) SiO2 
 PCOD8274556
Probable space group: C M M M
;
_chemical_formula_sum "Si O2"
_cell_formula_units_Z 88
_cell_length_a 14.567681
_cell_length_b 18.401126
_cell_length_c 16.053263
_cell_angle_alpha 90.000000
_cell_angle_beta 90.000000
_cell_angle_gamma 90.000000
_cell_volume 4303.265510
_symmetry_space_group_name_H-M "C M M M"
_symmetry_group_IT_number 65
_symmetry_cell_setting 'orthorhombic'
loop_
_space_group_symop_operation_xyz
x,y,z
-x,-y,z
x,-y,-z
-x,y,-z
-x,-y,-z
x,y,-z
-x,y,z
x,-y,z
1/2+x,1/2+y,z
1/2-x,1/2-y,z
1/2+x,1/2-y,-z
1/2-x,1/2+y,-z
1/2-x,1/2-y,-z
1/2+x,1/2+y,-z
1/2-x,1/2+y,z
1/2+x,1/2-y,z
loop_
_atom_site_type_symbol
_atom_site_label
_atom_site_fract_x
_atom_site_fract_y
_atom_site_fract_z
Si Si1 0.775600 0.080674 0.402298
Si Si2 0.391282 0.413990 0.000000
Si Si3 0.224065 0.826595 0.130816
Si Si4 0.098437 0.334081 0.405889
Si Si5 0.604224 0.915838 0.902248
Si Si6 0.160920 0.208736 0.687676
O O1 0.792195 0.082445 0.500000
O O2 0.674002 0.107704 0.376708
O O3 0.851246 0.131167 0.357603
O O4 0.787913 0.000000 0.366532
O O5 0.345603 0.376851 0.920020
O O6 0.369744 0.500000 0.000000
O O7 0.500000 0.399278 0.000000
O O8 0.250000 0.750000 0.085577
O O9 0.319691 0.869686 0.148397
O O10 0.169462 0.804680 0.214111
O O11 0.120897 0.306297 0.500000
O O12 0.084190 0.265579 0.342170
O O13 0.000000 0.374597 0.404564
O O14 0.500000 0.890193 0.880599
O O15 0.615624 0.000000 0.878760
O O16 0.623863 0.903974 0.000000
O O17 0.250000 0.250000 0.650830
#
# Coordination Sequence:
#
# PCOD8274556 Si02
#       6
#    16   8  16  16  16  16
#     4   9  17  30  50  78 108 136 170 211 260 319
#     4  11  25  42  57  75 105 147 186 221 270 332
#     4  11  22  37  57  83 109 139 184 232 276 322
#     4   9  17  31  53  78 105 141 181 220 264 313
#     4   9  18  34  58  84 108 137 172 216 275 337
#     4   9  19  34  52  74 105 141 177 215 260 316
#
# _framework density 20.449587000000001
#
# number of rings (size 3 to 8) (size 9 to 14) (size 15 to 20)
#    0.000    2.455    0.909    1.909    0.000    5.455 
#    0.000    9.091    0.000    0.545    0.000    2.545 
#    0.000    0.000    0.000    0.000    0.000    0.000 
#
# Total GULP energy -545144.837815 kJ/mol
# GULP energy per Si atom -12389.655405 kJ/mol
# Density = 2.040304 g / cm^3
# Si number density = 20.449587 Si / 1000 Ang^3
#
#
#
# Elastic Constant Matrix: (Units=GPa)
#
#
# Indices 1 2 3 4 5 6 
#
# 1 63.3621 18.9900 1.6287 0.0000 0.0000 0.0000
# 2 18.9900 124.2390 24.9377 0.0000 0.0000 0.0000
# 3 1.6287 24.9377 56.1910 0.0000 0.0000 0.0000
# 4 0.0000 0.0000 0.0000 21.1845 0.0000 0.0000
# 5 0.0000 0.0000 0.0000 0.0000 12.8841 0.0000
# 6 0.0000 0.0000 0.0000 0.0000 0.0000 23.1461
#
#
#
# Elastic Compliance Matrix: (Units=1/GPa)
#
#
# Indices 1 2 3 4 5 6 
#
# 1 0.016566 -0.002674 0.000707 0.000000 0.000000 0.000000
# 2 -0.002674 0.009268 -0.004036 0.000000 0.000000 0.000000
# 3 0.000707 -0.004036 0.019567 0.000000 0.000000 0.000000
# 4 0.000000 0.000000 0.000000 0.047204 0.000000 0.000000
# 5 0.000000 0.000000 0.000000 0.000000 0.077615 0.000000
# 6 0.000000 0.000000 0.000000 0.000000 0.000000 0.043204
#
#
# Mechanical properties :
#
#
# Convention : Reuss Voigt Hill
#
# Bulk Modulus (GPa) = 29.94512 37.21164 33.57838
# Shear Modulus (GPa) = 21.13625 24.65867 22.89746
#
# Velocity S-wave (km/s) = 3.21842 3.47627 3.34983
# Velocity P-wave (km/s) = 5.33724 5.86079 5.60513
#
# Compressibility (1/GPa) = 0.03339443
#
# Stress axis : x y z
#
# Youngs Moduli (GPa) = 60.36640 107.90131 51.10661
#
# Poissons Ratio (x) = 0.28851 -0.03611
# Poissons Ratio (y) = 0.16141 0.20624
# Poissons Ratio (z) = -0.04265 0.43544
#
# Static dielectric constant tensor:
#      x y z
#    x 3.605640 0.000000 0.000000 
#    y 0.000000 3.956230 0.000000 
#    z 0.000000 0.000000 3.428010 
# 
# 
# High freq. dielectric constant tensor:
#      x y z
#    x 1.782540 0.000000 0.000000 
#    y 0.000000 1.802510 0.000000 
#    z 0.000000 0.000000 1.782810 
# 
# From -- ./inp_files/53057.got.cif
#   From: 2010.03.12/outbox.cif.g09.slc.cpg/sg65_27_cif.got.tgz:53057.got - 2010.04.10 20:52:16.
