data_PCOD8274871
_publ_section_title
;
Structure prediction by ZEFSAII (Michael W. Deem and Ramdas Pophale) SiO2 
 PCOD8274871
Probable space group: C M M M
;
_chemical_formula_sum "Si O2"
_cell_formula_units_Z 80
_cell_length_a 9.728288
_cell_length_b 28.475955
_cell_length_c 20.962824
_cell_angle_alpha 90.000000
_cell_angle_beta 90.000000
_cell_angle_gamma 90.000000
_cell_volume 5807.169537
_symmetry_space_group_name_H-M "C M M M"
_symmetry_group_IT_number 65
_symmetry_cell_setting 'orthorhombic'
loop_
_space_group_symop_operation_xyz
x,y,z
-x,-y,z
x,-y,-z
-x,y,-z
-x,-y,-z
x,y,-z
-x,y,z
x,-y,z
1/2+x,1/2+y,z
1/2-x,1/2-y,z
1/2+x,1/2-y,-z
1/2-x,1/2+y,-z
1/2-x,1/2-y,-z
1/2+x,1/2+y,-z
1/2-x,1/2+y,z
1/2+x,1/2-y,z
loop_
_atom_site_type_symbol
_atom_site_label
_atom_site_fract_x
_atom_site_fract_y
_atom_site_fract_z
Si Si1 0.837104 0.448688 0.500000
Si Si2 0.154203 0.443922 0.363282
Si Si3 0.158371 0.206481 0.074222
Si Si4 0.839735 0.054814 0.752556
Si Si5 0.337383 0.606959 0.122079
Si Si6 0.335720 0.552982 0.000000
O O1 0.766607 0.500000 0.500000
O O2 0.796872 0.423136 0.567119
O O3 0.000000 0.454822 0.500000
O O4 0.155805 0.500000 0.368103
O O5 0.258339 0.426405 0.309121
O O6 0.000000 0.426509 0.346507
O O7 0.250000 0.250000 0.096966
O O8 0.204285 0.161567 0.115957
O O9 0.000000 0.219451 0.086515
O O10 0.182820 0.194423 0.000000
O O11 0.782437 0.084733 0.812215
O O12 0.000000 0.063980 0.740243
O O13 0.811086 0.000000 0.766207
O O14 0.500000 0.601533 0.119749
O O15 0.274845 0.578320 0.062593
O O16 0.281840 0.500000 0.000000
O O17 0.500000 0.555236 0.000000
#
# Coordination Sequence:
#
# PCOD8274871 Si02
#       6
#     8  16  16  16  16   8
#     4   7  10  18  33  49  63  85 122 159 180 199
#     4   8  13  22  35  49  66  92 125 155 180 207
#     4   9  16  27  42  57  72  89 114 150 190 227
#     4   9  16  24  34  51  75  99 122 149 181 215
#     4   9  15  24  36  52  73  96 120 150 186 218
#     4   9  14  20  33  52  71  93 125 157 178 203
#
# _framework density 13.776073999999999
#
# number of rings (size 3 to 8) (size 9 to 14) (size 15 to 20)
#    0.000    3.400    1.000    1.800    0.000    2.400 
#    0.000    1.500    0.000    3.000    0.000    0.000 
#    0.000    4.800    0.000    0.900    0.000   10.900 
#
# Total GULP energy -495609.317799 kJ/mol
# GULP energy per Si atom -12390.232945 kJ/mol
# Density = 1.374472 g / cm^3
# Si number density = 13.776074 Si / 1000 Ang^3
#
#
#
# Elastic Constant Matrix: (Units=GPa)
#
#
# Indices 1 2 3 4 5 6 
#
# 1 36.6631 27.3035 41.7323 0.0000 0.0000 0.0000
# 2 27.3035 66.7165 50.5423 0.0000 0.0000 0.0000
# 3 41.7323 50.5423 138.8831 0.0000 0.0000 0.0000
# 4 0.0000 0.0000 0.0000 5.6378 0.0000 0.0000
# 5 0.0000 0.0000 0.0000 0.0000 18.3062 0.0000
# 6 0.0000 0.0000 0.0000 0.0000 0.0000 12.6707
#
#
#
# Elastic Compliance Matrix: (Units=1/GPa)
#
#
# Indices 1 2 3 4 5 6 
#
# 1 0.047427 -0.011892 -0.009923 0.000000 0.000000 0.000000
# 2 -0.011892 0.023676 -0.005043 0.000000 0.000000 0.000000
# 3 -0.009923 -0.005043 0.012017 0.000000 0.000000 0.000000
# 4 0.000000 0.000000 0.000000 0.177376 0.000000 0.000000
# 5 0.000000 0.000000 0.000000 0.000000 0.054626 0.000000
# 6 0.000000 0.000000 0.000000 0.000000 0.000000 0.078922
#
#
# Mechanical properties :
#
#
# Convention : Reuss Voigt Hill
#
# Bulk Modulus (GPa) = 34.00892 53.49099 43.74996
# Shear Modulus (GPa) = 10.92752 15.50191 13.21472
#
# Velocity S-wave (km/s) = 2.81948 3.35816 3.10054
# Velocity P-wave (km/s) = 5.94473 7.34503 6.68167
#
# Compressibility (1/GPa) = 0.02940405
#
# Stress axis : x y z
#
# Youngs Moduli (GPa) = 21.08522 42.23749 83.21320
#
# Poissons Ratio (x) = 0.50227 0.82576
# Poissons Ratio (y) = 0.25074 0.41963
# Poissons Ratio (z) = 0.20924 0.21300
#
# Static dielectric constant tensor:
#      x y z
#    x 2.461670 0.000000 0.000000 
#    y 0.000000 2.476620 0.000000 
#    z 0.000000 0.000000 3.049110 
# 
# 
# High freq. dielectric constant tensor:
#      x y z
#    x 1.492060 0.000000 0.000000 
#    y 0.000000 1.482930 0.000000 
#    z 0.000000 0.000000 1.528830 
# 
# From -- ./inp_files/60574.got.cif
#   From: 2010.03.12/outbox.cif.g09.slc.cpg/sg65_31_cif.got.tgz:60574.got - 2010.04.10 20:52:16.
