data_PCOD8274102
_publ_section_title
;
Structure prediction by ZEFSAII (Michael W. Deem and Ramdas Pophale) SiO2 
 PCOD8274102
Probable space group: C M M M
;
_chemical_formula_sum "Si O2"
_cell_formula_units_Z 80
_cell_length_a 9.029502
_cell_length_b 26.196339
_cell_length_c 17.291352
_cell_angle_alpha 90.000000
_cell_angle_beta 90.000000
_cell_angle_gamma 90.000000
_cell_volume 4090.094593
_symmetry_space_group_name_H-M "C M M M"
_symmetry_group_IT_number 65
_symmetry_cell_setting 'orthorhombic'
loop_
_space_group_symop_operation_xyz
x,y,z
-x,-y,z
x,-y,-z
-x,y,-z
-x,-y,-z
x,y,-z
-x,y,z
x,-y,z
1/2+x,1/2+y,z
1/2-x,1/2-y,z
1/2+x,1/2-y,-z
1/2-x,1/2+y,-z
1/2-x,1/2-y,-z
1/2+x,1/2+y,-z
1/2-x,1/2+y,z
1/2+x,1/2-y,z
loop_
_atom_site_type_symbol
_atom_site_label
_atom_site_fract_x
_atom_site_fract_y
_atom_site_fract_z
Si Si1 0.326719 0.803556 0.808102
Si Si2 0.672411 0.851420 0.644058
Si Si3 0.326772 0.102055 0.910266
Si Si4 0.325816 0.303419 0.500000
Si Si5 0.332146 0.500000 0.091928
Si Si6 0.329713 0.558623 0.589464
O O1 0.500000 0.795319 0.819691
O O2 0.250000 0.750000 0.827621
O O3 0.288421 0.821268 0.721667
O O4 0.268459 0.847729 0.865678
O O5 0.500000 0.845994 0.623379
O O6 0.777380 0.831203 0.577257
O O7 0.720512 0.910839 0.647801
O O8 0.500000 0.093984 0.895434
O O9 0.246868 0.051379 0.877231
O O10 0.289953 0.110591 0.000000
O O11 0.500000 0.297023 0.500000
O O12 0.250000 0.250000 0.500000
O O13 0.500000 0.500000 0.122209
O O14 0.322872 0.500000 0.000000
O O15 0.300634 0.573959 0.500000
O O16 0.500000 0.570033 0.610470
O O17 0.291239 0.500000 0.602728
#
# Coordination Sequence:
#
# PCOD8274102 Si02
#       6
#    16  16  16   8   8  16
#     4  10  23  40  57  82 115 149 188 235 283 334
#     4  11  22  37  56  81 111 144 185 230 279 331
#     4   9  18  36  61  85 113 152 191 227 277 338
#     4  12  24  38  57  80 105 138 184 231 275 329
#     4   9  17  31  55  89 121 146 183 234 279 325
#     4   9  18  34  56  81 110 143 181 227 277 332
#
# _framework density 19.559449999999998
#
# number of rings (size 3 to 8) (size 9 to 14) (size 15 to 20)
#    0.000    2.100    1.000    3.000    0.000    6.000 
#    1.800    1.000    0.000    0.000    0.000    0.000 
#    0.000    0.000    0.000    0.000    0.000    0.000 
#
# Total GULP energy -495957.990828 kJ/mol
# GULP energy per Si atom -12398.949771 kJ/mol
# Density = 1.951493 g / cm^3
# Si number density = 19.559450 Si / 1000 Ang^3
#
#
#
# Elastic Constant Matrix: (Units=GPa)
#
#
# Indices 1 2 3 4 5 6 
#
# 1 93.9292 69.2545 44.4371 0.0000 0.0000 0.0000
# 2 69.2545 171.5329 64.2243 0.0000 0.0000 0.0000
# 3 44.4371 64.2243 67.6296 0.0000 0.0000 0.0000
# 4 0.0000 0.0000 0.0000 31.3078 0.0000 0.0000
# 5 0.0000 0.0000 0.0000 0.0000 15.1212 0.0000
# 6 0.0000 0.0000 0.0000 0.0000 0.0000 42.7111
#
#
#
# Elastic Compliance Matrix: (Units=1/GPa)
#
#
# Indices 1 2 3 4 5 6 
#
# 1 0.017209 -0.004212 -0.007308 0.000000 0.000000 0.000000
# 2 -0.004212 0.010077 -0.006802 0.000000 0.000000 0.000000
# 3 -0.007308 -0.006802 0.026048 0.000000 0.000000 0.000000
# 4 0.000000 0.000000 0.000000 0.031941 0.000000 0.000000
# 5 0.000000 0.000000 0.000000 0.000000 0.066132 0.000000
# 6 0.000000 0.000000 0.000000 0.000000 0.000000 0.023413
#
#
# Mechanical properties :
#
#
# Convention : Reuss Voigt Hill
#
# Bulk Modulus (GPa) = 59.91485 76.54705 68.23095
# Shear Modulus (GPa) = 23.03861 28.17307 25.60584
#
# Velocity S-wave (km/s) = 3.43574 3.79935 3.62211
# Velocity P-wave (km/s) = 6.81453 7.64639 7.24241
#
# Compressibility (1/GPa) = 0.01669035
#
# Stress axis : x y z
#
# Youngs Moduli (GPa) = 58.10954 99.23456 38.39093
#
# Poissons Ratio (x) = 0.41796 0.28055
# Poissons Ratio (y) = 0.24475 0.26115
# Poissons Ratio (z) = 0.42464 0.67502
#
# Static dielectric constant tensor:
#      x y z
#    x 3.417590 0.000000 0.000000 
#    y 0.000000 3.847210 0.000000 
#    z 0.000000 0.000000 3.405240 
# 
# 
# High freq. dielectric constant tensor:
#      x y z
#    x 1.757490 0.000000 0.000000 
#    y 0.000000 1.783210 0.000000 
#    z 0.000000 0.000000 1.740160 
# 
# From -- ./inp_files/49891.got.cif
#   From: 2010.03.12/outbox.cif.g09.slc.cpg/sg65_25_cif.got.tgz:49891.got - 2010.04.10 20:52:16.
