data_PCOD8274257
_publ_section_title
;
Structure prediction by ZEFSAII (Michael W. Deem and Ramdas Pophale) SiO2 
 PCOD8274257
Probable space group: C M M M
;
_chemical_formula_sum "Si O2"
_cell_formula_units_Z 96
_cell_length_a 25.127903
_cell_length_b 25.372875
_cell_length_c 9.057554
_cell_angle_alpha 90.000000
_cell_angle_beta 90.000000
_cell_angle_gamma 90.000000
_cell_volume 5774.798816
_symmetry_space_group_name_H-M "C M M M"
_symmetry_group_IT_number 65
_symmetry_cell_setting 'orthorhombic'
loop_
_space_group_symop_operation_xyz
x,y,z
-x,-y,z
x,-y,-z
-x,y,-z
-x,-y,-z
x,y,-z
-x,y,z
x,-y,z
1/2+x,1/2+y,z
1/2-x,1/2-y,z
1/2+x,1/2-y,-z
1/2-x,1/2+y,-z
1/2-x,1/2-y,-z
1/2+x,1/2+y,-z
1/2-x,1/2+y,z
1/2+x,1/2-y,z
loop_
_atom_site_type_symbol
_atom_site_label
_atom_site_fract_x
_atom_site_fract_y
_atom_site_fract_z
Si Si1 0.744537 0.312399 0.837367
Si Si2 0.140634 0.806170 0.325330
Si Si3 0.061814 0.114256 0.825223
Si Si4 0.937141 0.000000 0.838750
Si Si5 0.360340 0.805256 0.826128
Si Si6 0.561015 0.103544 0.172600
Si Si7 0.563283 0.000000 0.666275
O O1 0.750000 0.250000 0.844487
O O2 0.698298 0.328971 0.724151
O O3 0.803144 0.332465 0.787908
O O4 0.729523 0.334452 0.000000
O O5 0.138494 0.804863 0.500000
O O6 0.094733 0.843225 0.264188
O O7 0.130409 0.747970 0.263837
O O8 0.000000 0.125389 0.793453
O O9 0.078668 0.055705 0.762307
O O10 0.073386 0.118208 0.000000
O O11 0.000000 0.000000 0.859344
O O12 0.910362 0.000000 0.000000
O O13 0.405862 0.845673 0.776868
O O14 0.363082 0.791654 0.000000
O O15 0.500000 0.114244 0.217246
O O16 0.584737 0.052311 0.253663
O O17 0.567045 0.092947 0.000000
O O18 0.500000 0.000000 0.674590
O O19 0.584677 0.000000 0.500000
#
# Coordination Sequence:
#
# PCOD8274257 Si02
#       7
#    16  16  16   8  16  16   8
#     4   8  15  30  49  65  85 117 159 199 228 263
#     4  11  21  30  44  69  99 126 152 185 229 281
#     4   9  17  31  51  71  92 120 154 191 230 273
#     4   7  12  26  49  72  87 108 151 196 224 255
#     4   9  18  32  49  69  92 121 158 196 231 269
#     4   9  17  30  49  71  93 118 151 191 232 272
#     4   9  17  29  45  66  93 124 155 184 220 271
#
# _framework density 16.623956
#
# number of rings (size 3 to 8) (size 9 to 14) (size 15 to 20)
#    0.000    3.000    0.000    3.750    0.000    5.667 
#    0.000    2.083    0.000    2.500    0.000    3.500 
#    0.000    0.000    0.000    0.000    0.000    0.000 
#
# Total GULP energy -594803.994393 kJ/mol
# GULP energy per Si atom -12391.749883 kJ/mol
# Density = 1.658612 g / cm^3
# Si number density = 16.623956 Si / 1000 Ang^3
#
#
#
# Elastic Constant Matrix: (Units=GPa)
#
#
# Indices 1 2 3 4 5 6 
#
# 1 94.6977 66.7572 52.2600 0.0000 0.0000 0.0000
# 2 66.7572 109.3390 62.3188 0.0000 0.0000 0.0000
# 3 52.2600 62.3188 87.3638 0.0000 0.0000 0.0000
# 4 0.0000 0.0000 0.0000 7.0289 0.0000 0.0000
# 5 0.0000 0.0000 0.0000 0.0000 9.3396 0.0000
# 6 0.0000 0.0000 0.0000 0.0000 0.0000 0.4852
#
#
#
# Elastic Compliance Matrix: (Units=1/GPa)
#
#
# Indices 1 2 3 4 5 6 
#
# 1 0.019983 -0.009079 -0.005477 0.000000 0.000000 0.000000
# 2 -0.009079 0.019536 -0.008505 0.000000 0.000000 0.000000
# 3 -0.005477 -0.008505 0.020790 0.000000 0.000000 0.000000
# 4 0.000000 0.000000 0.000000 0.142270 0.000000 0.000000
# 5 0.000000 0.000000 0.000000 0.000000 0.107071 0.000000
# 6 0.000000 0.000000 0.000000 0.000000 0.000000 2.061099
#
#
# Mechanical properties :
#
#
# Convention : Reuss Voigt Hill
#
# Bulk Modulus (GPa) = 70.48865 72.67472 71.58169
# Shear Modulus (GPa) = 2.06475 10.70837 6.38656
#
# Velocity S-wave (km/s) = 1.11567 2.54077 1.96217
# Velocity P-wave (km/s) = 6.64481 7.24010 6.94884
#
# Compressibility (1/GPa) = 0.01418668
#
# Stress axis : x y z
#
# Youngs Moduli (GPa) = 50.04354 51.18660 48.10048
#
# Poissons Ratio (x) = 0.46470 0.26347
# Poissons Ratio (y) = 0.45432 0.40910
# Poissons Ratio (z) = 0.27411 0.43535
#
# Static dielectric constant tensor:
#      x y z
#    x 3.337980 0.000000 0.000000 
#    y 0.000000 3.145990 0.000000 
#    z 0.000000 0.000000 2.973730 
# 
# 
# High freq. dielectric constant tensor:
#      x y z
#    x 1.628320 0.000000 0.000000 
#    y 0.000000 1.627400 0.000000 
#    z 0.000000 0.000000 1.624070 
# 
# From -- ./inp_files/14355.got.cif
#   From: 2010.03.12/outbox.cif.g09.slc.cpg/sg65_8_cif.got.tgz:14355.got - 2010.04.10 20:52:16.
