data_PCOD8274326
_publ_section_title
;
Structure prediction by ZEFSAII (Michael W. Deem and Ramdas Pophale) SiO2 
 PCOD8274326
Probable space group: C M M M
;
_chemical_formula_sum "Si O2"
_cell_formula_units_Z 112
_cell_length_a 15.098867
_cell_length_b 15.568306
_cell_length_c 22.756561
_cell_angle_alpha 90.000000
_cell_angle_beta 90.000000
_cell_angle_gamma 90.000000
_cell_volume 5349.243287
_symmetry_space_group_name_H-M "C M M M"
_symmetry_group_IT_number 65
_symmetry_cell_setting 'orthorhombic'
loop_
_space_group_symop_operation_xyz
x,y,z
-x,-y,z
x,-y,-z
-x,y,-z
-x,-y,-z
x,y,-z
-x,y,z
x,-y,z
1/2+x,1/2+y,z
1/2-x,1/2-y,z
1/2+x,1/2-y,-z
1/2-x,1/2+y,-z
1/2-x,1/2-y,-z
1/2+x,1/2+y,-z
1/2-x,1/2+y,z
1/2+x,1/2-y,z
loop_
_atom_site_type_symbol
_atom_site_label
_atom_site_fract_x
_atom_site_fract_y
_atom_site_fract_z
Si Si1 0.860793 0.404864 0.344762
Si Si2 0.900864 0.102209 0.066279
Si Si3 0.599077 0.831660 0.777571
Si Si4 0.402708 0.637318 0.250211
Si Si5 0.736313 0.595182 0.160073
Si Si6 0.161700 0.904748 0.370703
Si Si7 0.900070 0.744801 0.434909
O O1 0.890804 0.500000 0.366220
O O2 0.897715 0.392522 0.279243
O O3 0.756123 0.398890 0.339915
O O4 0.895131 0.334645 0.390548
O O5 0.824472 0.140415 0.109305
O O6 0.000000 0.135652 0.083478
O O7 0.900248 0.000000 0.071461
O O8 0.878411 0.131360 0.000000
O O9 0.500000 0.839157 0.805294
O O10 0.620081 0.737250 0.754484
O O11 0.673230 0.853489 0.826633
O O12 0.500000 0.616631 0.223448
O O13 0.326711 0.585373 0.216810
O O14 0.407617 0.611410 0.318495
O O15 0.765665 0.500000 0.140484
O O16 0.157483 0.828642 0.418347
O O17 0.146125 0.000000 0.398933
O O18 0.869771 0.714384 0.500000
O O19 0.000000 0.778217 0.435834
#
# Coordination Sequence:
#
# PCOD8274326 Si02
#       7
#    16  16  16  16  16  16  16
#     4  11  23  40  62  86 113 150 200 253 302 356
#     4   8  15  30  53  83 122 163 200 246 303 357
#     4  11  23  38  56  80 116 161 202 244 300 360
#     4  11  22  36  56  83 117 154 191 239 298 359
#     4  11  21  33  55  89 119 150 197 248 299 357
#     4  11  23  39  61  88 117 150 191 242 302 370
#     4  11  25  43  62  86 116 153 196 243 301 366
#
# _framework density 20.937539999999998
#
# number of rings (size 3 to 8) (size 9 to 14) (size 15 to 20)
#    0.000    1.429    2.857    3.429    0.000    6.286 
#    0.000    2.857    0.000    2.143    0.000    4.000 
#    0.000    0.000    0.000    0.000    0.000    0.000 
#
# Total GULP energy -694167.005501 kJ/mol
# GULP energy per Si atom -12395.839384 kJ/mol
# Density = 2.088989 g / cm^3
# Si number density = 20.937540 Si / 1000 Ang^3
#
#
#
# Elastic Constant Matrix: (Units=GPa)
#
#
# Indices 1 2 3 4 5 6 
#
# 1 121.3990 32.7784 43.0255 0.0000 0.0000 0.0000
# 2 32.7784 104.1605 22.7505 0.0000 0.0000 0.0000
# 3 43.0255 22.7505 107.5257 0.0000 0.0000 0.0000
# 4 0.0000 0.0000 0.0000 20.4328 0.0000 0.0000
# 5 0.0000 0.0000 0.0000 0.0000 32.4670 0.0000
# 6 0.0000 0.0000 0.0000 0.0000 0.0000 -55.3486
#
#
#
# Elastic Compliance Matrix: (Units=1/GPa)
#
#
# Indices 1 2 3 4 5 6 
#
# 1 0.010148 -0.002418 -0.003549 0.000000 0.000000 0.000000
# 2 -0.002418 0.010642 -0.001284 0.000000 0.000000 0.000000
# 3 -0.003549 -0.001284 0.010992 0.000000 0.000000 0.000000
# 4 0.000000 0.000000 0.000000 0.048941 0.000000 0.000000
# 5 0.000000 0.000000 0.000000 0.000000 0.030801 0.000000
# 6 0.000000 0.000000 0.000000 0.000000 0.000000 -0.018067
#
#
# Mechanical properties :
#
#
# Convention : Reuss Voigt Hill
#
# Bulk Modulus (GPa) = 57.87254 58.91043 58.39148
# Shear Modulus (GPa) = 43.96821 15.14563 29.55692
#
# Velocity S-wave (km/s) = 4.58751 2.69248 3.76130
# Velocity P-wave (km/s) = 7.46733 6.15331 6.84194
#
# Compressibility (1/GPa) = 0.01727935
#
# Stress axis : x y z
#
# Youngs Moduli (GPa) = 98.54079 93.96690 90.97635
#
# Poissons Ratio (x) = 0.22725 0.32287
# Poissons Ratio (y) = 0.23831 0.11681
# Poissons Ratio (z) = 0.34972 0.12065
#
# Static dielectric constant tensor:
#      x y z
#    x 3.948650 0.000000 0.000000 
#    y 0.000000 3.701830 0.000000 
#    z 0.000000 0.000000 3.701980 
# 
# 
# High freq. dielectric constant tensor:
#      x y z
#    x 1.829680 0.000000 0.000000 
#    y 0.000000 1.808880 0.000000 
#    z 0.000000 0.000000 1.791230 
# 
# From -- ./inp_files/69971.got.cif
#   From: 2010.03.12/outbox.cif.g09.slc.cpg/sg65_35_cif.got.tgz:69971.got - 2010.04.10 20:52:16.
