data_PCOD8274006
_publ_section_title
;
Structure prediction by ZEFSAII (Michael W. Deem and Ramdas Pophale) SiO2 
 PCOD8274006
Probable space group: C M M M
;
_chemical_formula_sum "Si O2"
_cell_formula_units_Z 64
_cell_length_a 13.676254
_cell_length_b 18.450134
_cell_length_c 13.469009
_cell_angle_alpha 90.000000
_cell_angle_beta 90.000000
_cell_angle_gamma 90.000000
_cell_volume 3398.617786
_symmetry_space_group_name_H-M "C M M M"
_symmetry_group_IT_number 65
_symmetry_cell_setting 'orthorhombic'
loop_
_space_group_symop_operation_xyz
x,y,z
-x,-y,z
x,-y,-z
-x,y,-z
-x,-y,-z
x,y,-z
-x,y,z
x,-y,z
1/2+x,1/2+y,z
1/2-x,1/2-y,z
1/2+x,1/2-y,-z
1/2-x,1/2+y,-z
1/2-x,1/2-y,-z
1/2+x,1/2+y,-z
1/2-x,1/2+y,z
1/2+x,1/2-y,z
loop_
_atom_site_type_symbol
_atom_site_label
_atom_site_fract_x
_atom_site_fract_y
_atom_site_fract_z
Si Si1 0.889200 0.718549 0.116065
Si Si2 0.787867 0.585372 0.615389
Si Si3 0.500000 0.085317 0.391920
Si Si4 0.792799 0.142247 0.195799
Si Si5 0.108427 0.000000 0.883727
O O1 0.866043 0.791575 0.177019
O O2 0.813836 0.656223 0.147759
O O3 0.000000 0.693563 0.140127
O O4 0.876459 0.736077 0.000000
O O5 0.774141 0.607488 0.500000
O O6 0.768396 0.500000 0.628296
O O7 0.896729 0.606867 0.658047
O O8 0.714358 0.630489 0.684904
O O9 0.500000 0.122096 0.500000
O O10 0.500000 0.000000 0.406772
O O11 0.832742 0.070299 0.147176
O O12 0.000000 0.000000 0.834876
O O13 0.097106 0.000000 0.000000
#
# Coordination Sequence:
#
# PCOD8274006 Si02
#       5
#    16  16   8  16   8
#     4  10  22  40  58  77 111 156 194 231 282 342
#     4   9  17  31  52  81 116 149 182 227 281 337
#     4   7  12  24  44  70 104 144 180 209 256 325
#     4  11  20  35  59  85 110 147 192 233 278 339
#     4  11  22  36  58  88 115 140 182 240 287 331
#
# _framework density 18.831185000000001
#
# number of rings (size 3 to 8) (size 9 to 14) (size 15 to 20)
#    0.000    2.250    1.250    5.250    1.750    2.000 
#    0.000    3.125    0.000    7.500    0.000    0.000 
#    0.000    0.000    0.000    0.000    0.000    0.000 
#
# Total GULP energy -396514.181672 kJ/mol
# GULP energy per Si atom -12391.068177 kJ/mol
# Density = 1.878832 g / cm^3
# Si number density = 18.831185 Si / 1000 Ang^3
#
#
#
# Elastic Constant Matrix: (Units=GPa)
#
#
# Indices 1 2 3 4 5 6 
#
# 1 117.1954 59.9112 45.3704 0.0000 0.0000 0.0000
# 2 59.9112 95.1295 33.5996 0.0000 0.0000 0.0000
# 3 45.3704 33.5996 102.5004 0.0000 0.0000 0.0000
# 4 0.0000 0.0000 0.0000 27.4752 0.0000 0.0000
# 5 0.0000 0.0000 0.0000 0.0000 22.5416 0.0000
# 6 0.0000 0.0000 0.0000 0.0000 0.0000 25.9562
#
#
#
# Elastic Compliance Matrix: (Units=1/GPa)
#
#
# Indices 1 2 3 4 5 6 
#
# 1 0.013699 -0.007335 -0.003659 0.000000 0.000000 0.000000
# 2 -0.007335 0.015816 -0.001938 0.000000 0.000000 0.000000
# 3 -0.003659 -0.001938 0.012011 0.000000 0.000000 0.000000
# 4 0.000000 0.000000 0.000000 0.036396 0.000000 0.000000
# 5 0.000000 0.000000 0.000000 0.000000 0.044362 0.000000
# 6 0.000000 0.000000 0.000000 0.000000 0.000000 0.038526
#
#
# Mechanical properties :
#
#
# Convention : Reuss Voigt Hill
#
# Bulk Modulus (GPa) = 63.84920 65.84308 64.84614
# Shear Modulus (GPa) = 26.05577 26.92421 26.48999
#
# Velocity S-wave (km/s) = 3.72378 3.78533 3.75468
# Velocity P-wave (km/s) = 7.24351 7.35838 7.30117
#
# Compressibility (1/GPa) = 0.01566190
#
# Stress axis : x y z
#
# Youngs Moduli (GPa) = 72.99721 63.22751 83.25728
#
# Poissons Ratio (x) = 0.46378 0.30466
# Poissons Ratio (y) = 0.53544 0.16133
# Poissons Ratio (z) = 0.26712 0.12251
#
# Static dielectric constant tensor:
#      x y z
#    x 3.725980 0.000000 0.000000 
#    y 0.000000 3.141320 0.000000 
#    z 0.000000 0.000000 3.436490 
# 
# 
# High freq. dielectric constant tensor:
#      x y z
#    x 1.735870 0.000000 0.000000 
#    y 0.000000 1.709560 0.000000 
#    z 0.000000 0.000000 1.727230 
# 
# From -- ./inp_files/39693.got.cif
#   From: 2010.03.12/outbox.cif.g09.slc.cpg/sg65_20_cif.got.tgz:39693.got - 2010.04.10 20:52:16.
