data_PCOD8274042
_publ_section_title
;
Structure prediction by ZEFSAII (Michael W. Deem and Ramdas Pophale) SiO2 
 PCOD8274042
Probable space group: C M M M
;
_chemical_formula_sum "Si O2"
_cell_formula_units_Z 64
_cell_length_a 8.820459
_cell_length_b 23.886787
_cell_length_c 15.262955
_cell_angle_alpha 90.000000
_cell_angle_beta 90.000000
_cell_angle_gamma 90.000000
_cell_volume 3215.789007
_symmetry_space_group_name_H-M "C M M M"
_symmetry_group_IT_number 65
_symmetry_cell_setting 'orthorhombic'
loop_
_space_group_symop_operation_xyz
x,y,z
-x,-y,z
x,-y,-z
-x,y,-z
-x,-y,-z
x,y,-z
-x,y,z
x,-y,z
1/2+x,1/2+y,z
1/2-x,1/2-y,z
1/2+x,1/2-y,-z
1/2-x,1/2+y,-z
1/2-x,1/2-y,-z
1/2+x,1/2+y,-z
1/2-x,1/2+y,z
1/2+x,1/2-y,z
loop_
_atom_site_type_symbol
_atom_site_label
_atom_site_fract_x
_atom_site_fract_y
_atom_site_fract_z
Si Si1 0.321252 0.310503 0.500000
Si Si2 0.825172 0.884549 0.853008
Si Si3 0.673791 0.000000 0.896066
Si Si4 0.673822 0.611106 0.655738
Si Si5 0.679408 0.810834 0.000000
Si Si6 0.678558 0.000000 0.401589
O O1 0.500000 0.303290 0.500000
O O2 0.250000 0.250000 0.500000
O O3 0.264510 0.343650 0.586163
O O4 0.760035 0.946615 0.859075
O O5 0.808728 0.863475 0.753049
O O6 0.000000 0.884622 0.883358
O O7 0.730309 0.843032 0.913246
O O8 0.500000 0.000000 0.863116
O O9 0.680257 0.000000 0.000000
O O10 0.500000 0.596303 0.634692
O O11 0.768040 0.554374 0.650225
O O12 0.750000 0.750000 0.000000
O O13 0.500000 0.806185 0.000000
O O14 0.500000 0.000000 0.404332
O O15 0.746372 0.000000 0.500000
#
# Coordination Sequence:
#
# PCOD8274042 Si02
#       6
#     8  16   8  16   8   8
#     4  10  22  41  62  85 117 156 200 246 295 352
#     4  11  23  40  64  94 123 157 204 254 303 362
#     4  11  22  37  60  91 126 162 198 241 304 367
#     4  10  22  40  63  89 121 161 201 244 302 362
#     4  12  26  45  66  89 120 162 204 252 306 360
#     4  11  22  35  58  93 127 159 200 249 301 354
#
# _framework density 19.901802
#
# number of rings (size 3 to 8) (size 9 to 14) (size 15 to 20)
#    0.000    1.250    2.500    3.375    0.000    8.000 
#    0.000    2.500    0.000    0.000    0.000    0.000 
#    0.000    0.000    0.000    0.000    0.000    0.000 
#
# Total GULP energy -396966.783925 kJ/mol
# GULP energy per Si atom -12405.211998 kJ/mol
# Density = 1.985651 g / cm^3
# Si number density = 19.901802 Si / 1000 Ang^3
#
#
#
# Elastic Constant Matrix: (Units=GPa)
#
#
# Indices 1 2 3 4 5 6 
#
# 1 119.2007 58.5636 50.9633 0.0000 0.0000 0.0000
# 2 58.5636 162.0642 62.8690 0.0000 0.0000 0.0000
# 3 50.9633 62.8690 134.2105 0.0000 0.0000 0.0000
# 4 0.0000 0.0000 0.0000 20.7723 0.0000 0.0000
# 5 0.0000 0.0000 0.0000 0.0000 26.5329 0.0000
# 6 0.0000 0.0000 0.0000 0.0000 0.0000 39.1216
#
#
#
# Elastic Compliance Matrix: (Units=1/GPa)
#
#
# Indices 1 2 3 4 5 6 
#
# 1 0.011016 -0.002882 -0.002833 0.000000 0.000000 0.000000
# 2 -0.002882 0.008295 -0.002791 0.000000 0.000000 0.000000
# 3 -0.002833 -0.002791 0.009834 0.000000 0.000000 0.000000
# 4 0.000000 0.000000 0.000000 0.048141 0.000000 0.000000
# 5 0.000000 0.000000 0.000000 0.000000 0.037689 0.000000
# 6 0.000000 0.000000 0.000000 0.000000 0.000000 0.025561
#
#
# Mechanical properties :
#
#
# Convention : Reuss Voigt Hill
#
# Bulk Modulus (GPa) = 82.42130 84.47414 83.44772
# Shear Modulus (GPa) = 30.94185 33.49066 32.21625
#
# Velocity S-wave (km/s) = 3.94728 4.10664 4.02775
# Velocity P-wave (km/s) = 7.89168 8.06372 7.97816
#
# Compressibility (1/GPa) = 0.01213279
#
# Stress axis : x y z
#
# Youngs Moduli (GPa) = 90.77394 120.56147 101.68456
#
# Poissons Ratio (x) = 0.34743 0.28810
# Poissons Ratio (y) = 0.26159 0.28382
# Poissons Ratio (z) = 0.25719 0.33651
#
# Static dielectric constant tensor:
#      x y z
#    x 3.688910 0.000000 0.000000 
#    y 0.000000 3.477420 0.000000 
#    z 0.000000 0.000000 3.939080 
# 
# 
# High freq. dielectric constant tensor:
#      x y z
#    x 1.781600 0.000000 0.000000 
#    y 0.000000 1.770010 0.000000 
#    z 0.000000 0.000000 1.795390 
# 
# From -- ./inp_files/36110.got.cif
#   From: 2010.03.12/outbox.cif.g09.slc.cpg/sg65_19_cif.got.tgz:36110.got - 2010.04.10 20:52:16.
