data_PCOD8274907
_publ_section_title
;
Structure prediction by ZEFSAII (Michael W. Deem and Ramdas Pophale) SiO2 
 PCOD8274907
Probable space group: C M M M
;
_chemical_formula_sum "Si O2"
_cell_formula_units_Z 96
_cell_length_a 9.661435
_cell_length_b 19.543711
_cell_length_c 30.739812
_cell_angle_alpha 90.000000
_cell_angle_beta 90.000000
_cell_angle_gamma 90.000000
_cell_volume 5804.300324
_symmetry_space_group_name_H-M "C M M M"
_symmetry_group_IT_number 65
_symmetry_cell_setting 'orthorhombic'
loop_
_space_group_symop_operation_xyz
x,y,z
-x,-y,z
x,-y,-z
-x,y,-z
-x,-y,-z
x,y,-z
-x,y,z
x,-y,z
1/2+x,1/2+y,z
1/2-x,1/2-y,z
1/2+x,1/2-y,-z
1/2-x,1/2+y,-z
1/2-x,1/2-y,-z
1/2+x,1/2+y,-z
1/2-x,1/2+y,z
1/2+x,1/2-y,z
loop_
_atom_site_type_symbol
_atom_site_label
_atom_site_fract_x
_atom_site_fract_y
_atom_site_fract_z
Si Si1 0.659367 0.313613 0.549558
Si Si2 0.840837 0.921105 0.622065
Si Si3 0.155070 0.418604 0.952050
Si Si4 0.345352 0.418608 0.876470
Si Si5 0.343236 0.918546 0.297467
Si Si6 0.655773 0.418618 0.779962
O O1 0.696795 0.333230 0.500000
O O2 0.500000 0.291954 0.554057
O O3 0.750000 0.250000 0.565914
O O4 0.694166 0.379289 0.578678
O O5 0.741127 0.894024 0.660237
O O6 0.000000 0.910800 0.636912
O O7 0.810976 0.000000 0.611163
O O8 0.156401 0.500000 0.948889
O O9 0.248898 0.386109 0.913936
O O10 0.000000 0.391088 0.945140
O O11 0.209692 0.396310 0.000000
O O12 0.500000 0.391872 0.885065
O O13 0.341697 0.500000 0.879036
O O14 0.296196 0.395241 0.828296
O O15 0.500000 0.889540 0.298862
O O16 0.264415 0.888687 0.255017
O O17 0.345436 0.000000 0.295578
O O18 0.500000 0.391700 0.770172
O O19 0.654027 0.500000 0.777159
#
# Coordination Sequence:
#
# PCOD8274907 Si02
#       6
#    16  16  16  16  16  16
#     4   9  18  32  49  68  89 114 143 173 206 244
#     4   9  17  29  45  64  86 112 140 170 205 244
#     4   8  13  19  24  30  42  61  86 120 165 214
#     4   8  13  19  26  36  48  65  93 128 166 211
#     4   9  16  24  35  53  75  97 122 153 190 232
#     4   8  13  21  31  42  59  83 109 138 176 224
#
# _framework density 16.539460999999999
#
# number of rings (size 3 to 8) (size 9 to 14) (size 15 to 20)
#    0.000    3.500    0.000    2.000    0.000    4.000 
#    0.000    6.667    0.000    0.000    0.000    4.667 
#    0.000    0.000    0.000    0.000    0.000    0.000 
#
# Total GULP energy -594849.728737 kJ/mol
# GULP energy per Si atom -12392.702682 kJ/mol
# Density = 1.650182 g / cm^3
# Si number density = 16.539461 Si / 1000 Ang^3
#
#
#
# Elastic Constant Matrix: (Units=GPa)
#
#
# Indices 1 2 3 4 5 6 
#
# 1 106.4210 24.3282 86.6739 0.0000 0.0000 0.0000
# 2 24.3282 23.2345 32.8955 0.0000 0.0000 0.0000
# 3 86.6739 32.8955 147.2191 0.0000 0.0000 0.0000
# 4 0.0000 0.0000 0.0000 1.1069 0.0000 0.0000
# 5 0.0000 0.0000 0.0000 0.0000 30.1364 0.0000
# 6 0.0000 0.0000 0.0000 0.0000 0.0000 10.4966
#
#
#
# Elastic Compliance Matrix: (Units=1/GPa)
#
#
# Indices 1 2 3 4 5 6 
#
# 1 0.018573 -0.005801 -0.009638 0.000000 0.000000 0.000000
# 2 -0.005801 0.064768 -0.011057 0.000000 0.000000 0.000000
# 3 -0.009638 -0.011057 0.014938 0.000000 0.000000 0.000000
# 4 0.000000 0.000000 0.000000 0.903455 0.000000 0.000000
# 5 0.000000 0.000000 0.000000 0.000000 0.033183 0.000000
# 6 0.000000 0.000000 0.000000 0.000000 0.000000 0.095269
#
#
# Mechanical properties :
#
#
# Convention : Reuss Voigt Hill
#
# Bulk Modulus (GPa) = 22.08188 62.74106 42.41147
# Shear Modulus (GPa) = 4.17268 17.21309 10.69288
#
# Velocity S-wave (km/s) = 1.59007 3.22953 2.54541
# Velocity P-wave (km/s) = 4.09281 7.20576 5.85978
#
# Compressibility (1/GPa) = 0.04528600
#
# Stress axis : x y z
#
# Youngs Moduli (GPa) = 53.84293 15.43976 66.94512
#
# Poissons Ratio (x) = 0.08957 0.64523
# Poissons Ratio (y) = 0.31234 0.74020
# Poissons Ratio (z) = 0.51895 0.17071
#
# Static dielectric constant tensor:
#      x y z
#    x 3.357760 0.000000 0.000000 
#    y 0.000000 2.385660 0.000000 
#    z 0.000000 0.000000 3.432590 
# 
# 
# High freq. dielectric constant tensor:
#      x y z
#    x 1.640870 0.000000 0.000000 
#    y 0.000000 1.549190 0.000000 
#    z 0.000000 0.000000 1.652170 
# 
# From -- ./inp_files/73446.got.cif
#   From: 2010.03.12/outbox.cif.g09.slc.cpg/sg65_37_cif.got.tgz:73446.got - 2010.04.10 20:52:16.
