data_PCOD8274189
_publ_section_title
;
Structure prediction by ZEFSAII (Michael W. Deem and Ramdas Pophale) SiO2 
 PCOD8274189
Probable space group: C M M M
;
_chemical_formula_sum "Si O2"
_cell_formula_units_Z 96
_cell_length_a 27.430475
_cell_length_b 22.534592
_cell_length_c 9.218866
_cell_angle_alpha 90.000000
_cell_angle_beta 90.000000
_cell_angle_gamma 90.000000
_cell_volume 5698.499702
_symmetry_space_group_name_H-M "C M M M"
_symmetry_group_IT_number 65
_symmetry_cell_setting 'orthorhombic'
loop_
_space_group_symop_operation_xyz
x,y,z
-x,-y,z
x,-y,-z
-x,y,-z
-x,-y,-z
x,y,-z
-x,y,z
x,-y,z
1/2+x,1/2+y,z
1/2-x,1/2-y,z
1/2+x,1/2-y,-z
1/2-x,1/2+y,-z
1/2-x,1/2-y,-z
1/2+x,1/2+y,-z
1/2-x,1/2+y,z
1/2+x,1/2-y,z
loop_
_atom_site_type_symbol
_atom_site_label
_atom_site_fract_x
_atom_site_fract_y
_atom_site_fract_z
Si Si1 0.354910 0.302868 0.833137
Si Si2 0.372450 0.000000 0.327729
Si Si3 0.216019 0.122658 0.328817
Si Si4 0.554381 0.231507 0.172698
Si Si5 0.261047 0.000000 0.672004
Si Si6 0.895302 0.385908 0.834213
Si Si7 0.202731 0.683647 0.838589
O O1 0.335881 0.359259 0.741727
O O2 0.407486 0.281180 0.770575
O O3 0.316425 0.249819 0.813846
O O4 0.359828 0.322083 0.000000
O O5 0.401067 0.057069 0.267521
O O6 0.374949 0.000000 0.500000
O O7 0.316572 0.000000 0.269477
O O8 0.210465 0.124331 0.500000
O O9 0.256786 0.169830 0.280817
O O10 0.231853 0.057658 0.271926
O O11 0.500000 0.247502 0.226799
O O12 0.568809 0.165544 0.226332
O O13 0.558616 0.230368 0.000000
O O14 0.263380 0.000000 0.500000
O O15 0.840363 0.363197 0.822612
O O16 0.908221 0.402870 0.000000
O O17 0.225801 0.678516 0.000000
#
# Coordination Sequence:
#
# PCOD8274189 Si02
#       7
#    16   8  16  16   8  16  16
#     4   9  18  31  47  70  96 118 146 187 234 279
#     4  11  19  31  46  62  91 131 167 196 233 271
#     4  11  20  31  45  64  92 125 160 189 220 267
#     4   8  15  31  54  74  92 117 150 192 242 289
#     4   9  20  33  43  60  91 130 164 193 219 257
#     4   9  17  29  47  70  91 118 161 201 230 270
#     4   9  17  29  44  64  94 124 148 185 231 271
#
# _framework density 16.846539
#
# number of rings (size 3 to 8) (size 9 to 14) (size 15 to 20)
#    0.000    2.667    1.667    3.250    0.000    2.667 
#    0.000    4.583    0.000    4.500    0.000    0.583 
#    0.000    4.667    0.000    0.000    0.000    0.000 
#
# Total GULP energy -595024.725476 kJ/mol
# GULP energy per Si atom -12396.348447 kJ/mol
# Density = 1.680820 g / cm^3
# Si number density = 16.846539 Si / 1000 Ang^3
#
#
#
# Elastic Constant Matrix: (Units=GPa)
#
#
# Indices 1 2 3 4 5 6 
#
# 1 97.6412 41.8936 25.8710 0.0000 0.0000 0.0000
# 2 41.8936 45.8070 19.1866 0.0000 0.0000 0.0000
# 3 25.8710 19.1866 49.4545 0.0000 0.0000 0.0000
# 4 0.0000 0.0000 0.0000 23.5155 0.0000 0.0000
# 5 0.0000 0.0000 0.0000 0.0000 10.9769 0.0000
# 6 0.0000 0.0000 0.0000 0.0000 0.0000 13.9898
#
#
#
# Elastic Compliance Matrix: (Units=1/GPa)
#
#
# Indices 1 2 3 4 5 6 
#
# 1 0.017345 -0.014403 -0.003486 0.000000 0.000000 0.000000
# 2 -0.014403 0.038027 -0.007218 0.000000 0.000000 0.000000
# 3 -0.003486 -0.007218 0.024845 0.000000 0.000000 0.000000
# 4 0.000000 0.000000 0.000000 0.042525 0.000000 0.000000
# 5 0.000000 0.000000 0.000000 0.000000 0.091101 0.000000
# 6 0.000000 0.000000 0.000000 0.000000 0.000000 0.071480
#
#
# Mechanical properties :
#
#
# Convention : Reuss Voigt Hill
#
# Bulk Modulus (GPa) = 33.33126 40.75611 37.04369
# Shear Modulus (GPa) = 14.47019 16.75986 15.61503
#
# Velocity S-wave (km/s) = 2.93395 3.15755 3.04780
# Velocity P-wave (km/s) = 5.59514 6.12688 5.86704
#
# Compressibility (1/GPa) = 0.03000187
#
# Stress axis : x y z
#
# Youngs Moduli (GPa) = 57.65391 26.29721 40.25023
#
# Poissons Ratio (x) = 0.37876 0.14030
# Poissons Ratio (y) = 0.83039 0.29055
# Poissons Ratio (z) = 0.20096 0.18983
#
# Static dielectric constant tensor:
#      x y z
#    x 3.168120 0.000000 0.000000 
#    y 0.000000 3.189990 0.000000 
#    z 0.000000 0.000000 2.895240 
# 
# 
# High freq. dielectric constant tensor:
#      x y z
#    x 1.630270 0.000000 0.000000 
#    y 0.000000 1.637920 0.000000 
#    z 0.000000 0.000000 1.624400 
# 
# From -- ./inp_files/16681.got.cif
#   From: 2010.03.12/outbox.cif.g09.slc.cpg/sg65_9_cif.got.tgz:16681.got - 2010.04.10 20:52:16.
