data_PCOD8274494
_publ_section_title
;
Structure prediction by ZEFSAII (Michael W. Deem and Ramdas Pophale) SiO2 
 PCOD8274494
Probable space group: C M M M
;
_chemical_formula_sum "Si O2"
_cell_formula_units_Z 72
_cell_length_a 31.976636
_cell_length_b 8.890808
_cell_length_c 13.574691
_cell_angle_alpha 90.000000
_cell_angle_beta 90.000000
_cell_angle_gamma 90.000000
_cell_volume 3859.259282
_symmetry_space_group_name_H-M "C M M M"
_symmetry_group_IT_number 65
_symmetry_cell_setting 'orthorhombic'
loop_
_space_group_symop_operation_xyz
x,y,z
-x,-y,z
x,-y,-z
-x,y,-z
-x,-y,-z
x,y,-z
-x,y,z
x,-y,z
1/2+x,1/2+y,z
1/2-x,1/2-y,z
1/2+x,1/2-y,-z
1/2-x,1/2+y,-z
1/2-x,1/2-y,-z
1/2+x,1/2+y,-z
1/2-x,1/2+y,z
1/2+x,1/2-y,z
loop_
_atom_site_type_symbol
_atom_site_label
_atom_site_fract_x
_atom_site_fract_y
_atom_site_fract_z
Si Si1 0.841273 0.826440 0.889340
Si Si2 0.621113 0.676787 0.612134
Si Si3 0.418651 0.822322 0.206633
Si Si4 0.292613 0.326775 0.298638
Si Si5 0.500000 0.677982 0.885805
O O1 0.880649 0.722771 0.864574
O O2 0.803031 0.790193 0.815812
O O3 0.855362 0.000000 0.876296
O O4 0.825968 0.792571 0.000000
O O5 0.609731 0.715809 0.500000
O O6 0.616767 0.500000 0.634678
O O7 0.589355 0.766318 0.681921
O O8 0.668662 0.729193 0.634495
O O9 0.459916 0.745285 0.166841
O O10 0.424353 0.000000 0.206253
O O11 0.284829 0.500000 0.316616
O O12 0.250000 0.250000 0.332251
O O13 0.500000 0.500000 0.873151
O O14 0.500000 0.725166 0.000000
#
# Coordination Sequence:
#
# PCOD8274494 Si02
#       5
#    16  16  16  16   8
#     4   9  18  34  53  71  99 143 186 218 256 315
#     4   9  19  38  60  77 100 140 183 218 259 317
#     4  11  22  35  54  83 114 137 167 219 271 311
#     4   9  18  31  48  74 105 136 174 220 267 314
#     4  11  23  39  60  83 110 147 183 210 244 301
#
# _framework density 18.656431000000001
#
# number of rings (size 3 to 8) (size 9 to 14) (size 15 to 20)
#    0.000    2.333    0.000    4.333    0.000    8.889 
#    0.000    0.556    0.000    3.333    0.000    0.000 
#    0.000    0.000    0.000    0.000    0.000    0.000 
#
# Total GULP energy -446395.476278 kJ/mol
# GULP energy per Si atom -12399.874341 kJ/mol
# Density = 1.861397 g / cm^3
# Si number density = 18.656431 Si / 1000 Ang^3
#
#
#
# Elastic Constant Matrix: (Units=GPa)
#
#
# Indices 1 2 3 4 5 6 
#
# 1 107.9872 49.0393 36.2710 0.0000 0.0000 0.0000
# 2 49.0393 77.4929 40.5430 0.0000 0.0000 0.0000
# 3 36.2710 40.5430 112.4795 0.0000 0.0000 0.0000
# 4 0.0000 0.0000 0.0000 15.5083 0.0000 0.0000
# 5 0.0000 0.0000 0.0000 0.0000 -0.1701 0.0000
# 6 0.0000 0.0000 0.0000 0.0000 0.0000 3.8400
#
#
#
# Elastic Compliance Matrix: (Units=1/GPa)
#
#
# Indices 1 2 3 4 5 6 
#
# 1 0.013207 -0.007554 -0.001536 0.000000 0.000000 0.000000
# 2 -0.007554 0.020224 -0.004854 0.000000 0.000000 0.000000
# 3 -0.001536 -0.004854 0.011135 0.000000 0.000000 0.000000
# 4 0.000000 0.000000 0.000000 0.064482 0.000000 0.000000
# 5 0.000000 0.000000 0.000000 0.000000 -5.879385 0.000000
# 6 0.000000 0.000000 0.000000 0.000000 0.000000 0.260418
#
#
# Mechanical properties :
#
#
# Convention : Reuss Voigt Hill
#
# Bulk Modulus (GPa) = 59.95643 61.07401 60.51522
# Shear Modulus (GPa) = -0.91300 15.30939 7.19820
#
# Velocity S-wave (km/s) = -0.70031 2.86771 1.96638
# Velocity P-wave (km/s) = 5.61721 6.61606 6.13699
#
# Compressibility (1/GPa) = 0.01667878
#
# Stress axis : x y z
#
# Youngs Moduli (GPa) = 75.71952 49.44581 89.80400
#
# Poissons Ratio (x) = 0.37351 0.13793
# Poissons Ratio (y) = 0.57198 0.43590
# Poissons Ratio (z) = 0.11630 0.24000
#
# Static dielectric constant tensor:
#      x y z
#    x 3.566770 0.000000 0.000000 
#    y 0.000000 3.339710 0.000000 
#    z 0.000000 0.000000 3.579930 
# 
# 
# High freq. dielectric constant tensor:
#      x y z
#    x 1.713090 0.000000 0.000000 
#    y 0.000000 1.717450 0.000000 
#    z 0.000000 0.000000 1.730960 
# 
# From -- ./inp_files/36602.got.cif
#   From: 2010.03.12/outbox.cif.g09.slc.cpg/sg65_19_cif.got.tgz:36602.got - 2010.04.10 20:52:16.
