data_PCOD8274240
_publ_section_title
;
Structure prediction by ZEFSAII (Michael W. Deem and Ramdas Pophale) SiO2 
 PCOD8274240
Probable space group: C M M M
;
_chemical_formula_sum "Si O2"
_cell_formula_units_Z 120
_cell_length_a 20.403840
_cell_length_b 17.113059
_cell_length_c 19.368826
_cell_angle_alpha 90.000000
_cell_angle_beta 90.000000
_cell_angle_gamma 90.000000
_cell_volume 6763.053993
_symmetry_space_group_name_H-M "C M M M"
_symmetry_group_IT_number 65
_symmetry_cell_setting 'orthorhombic'
loop_
_space_group_symop_operation_xyz
x,y,z
-x,-y,z
x,-y,-z
-x,y,-z
-x,-y,-z
x,y,-z
-x,y,z
x,-y,z
1/2+x,1/2+y,z
1/2-x,1/2-y,z
1/2+x,1/2-y,-z
1/2-x,1/2+y,-z
1/2-x,1/2-y,-z
1/2+x,1/2+y,-z
1/2-x,1/2+y,z
1/2+x,1/2-y,z
loop_
_atom_site_type_symbol
_atom_site_label
_atom_site_fract_x
_atom_site_fract_y
_atom_site_fract_z
Si Si1 0.309801 0.191363 0.196706
Si Si2 0.262004 0.911909 0.078985
Si Si3 0.137392 0.135691 0.661733
Si Si4 0.676460 0.220340 0.422825
Si Si5 0.426045 0.307942 0.797165
Si Si6 0.712934 0.909485 0.325849
Si Si7 0.108781 0.089752 0.921836
Si Si8 0.076772 0.000000 0.423894
O O1 0.250000 0.250000 0.215013
O O2 0.301067 0.151345 0.122827
O O3 0.379379 0.233704 0.193556
O O4 0.313224 0.124645 0.254148
O O5 0.185513 0.898952 0.091775
O O6 0.281376 0.000000 0.100638
O O7 0.280770 0.896792 0.000000
O O8 0.135872 0.220945 0.625993
O O9 0.101884 0.138811 0.735487
O O10 0.209482 0.101737 0.671275
O O11 0.097603 0.078034 0.613975
O O12 0.645849 0.215976 0.500000
O O13 0.750000 0.250000 0.427518
O O14 0.676481 0.134462 0.388838
O O15 0.500000 0.280009 0.780215
O O16 0.429726 0.357864 0.867366
O O17 0.694353 0.000000 0.331114
O O18 0.088399 0.000000 0.911041
O O19 0.090986 0.115711 0.000000
O O20 0.109262 0.000000 0.500000
O O21 0.000000 0.000000 0.430181
#
# Coordination Sequence:
#
# PCOD8274240 Si02
#       8
#    16  16  16  16  16  16  16   8
#     4  12  20  36  57  81 112 146 187 235 286 340
#     4   9  18  33  57  87 112 142 187 237 284 333
#     4  11  20  38  56  81 115 151 191 231 274 333
#     4   9  18  33  54  82 114 145 179 227 282 331
#     4  12  25  37  55  81 113 151 193 234 278 335
#     4  11  20  34  57  84 111 143 184 237 293 339
#     4   9  19  36  56  82 117 153 188 226 274 330
#     4  11  24  38  54  82 121 163 194 220 269 344
#
# _framework density 17.743463999999999
#
# number of rings (size 3 to 8) (size 9 to 14) (size 15 to 20)
#    0.000    1.533    4.667    2.400    0.933    3.200 
#    0.000    0.667    0.000    1.600    0.000    0.933 
#    0.000    1.067    0.000    0.000    0.000    0.000 
#
# Total GULP energy -744088.617965 kJ/mol
# GULP energy per Si atom -12401.476966 kJ/mol
# Density = 1.770308 g / cm^3
# Si number density = 17.743464 Si / 1000 Ang^3
#
#
#
# Elastic Constant Matrix: (Units=GPa)
#
#
# Indices 1 2 3 4 5 6 
#
# 1 54.3441 32.9927 22.7137 0.0000 0.0000 0.0000
# 2 32.9927 123.8434 56.4060 0.0000 0.0000 0.0000
# 3 22.7137 56.4060 117.8602 0.0000 0.0000 0.0000
# 4 0.0000 0.0000 0.0000 41.1578 0.0000 0.0000
# 5 0.0000 0.0000 0.0000 0.0000 -14.4753 0.0000
# 6 0.0000 0.0000 0.0000 0.0000 0.0000 7.3235
#
#
#
# Elastic Compliance Matrix: (Units=1/GPa)
#
#
# Indices 1 2 3 4 5 6 
#
# 1 0.022265 -0.005086 -0.001857 0.000000 0.000000 0.000000
# 2 -0.005086 0.011487 -0.004517 0.000000 0.000000 0.000000
# 3 -0.001857 -0.004517 0.011004 0.000000 0.000000 0.000000
# 4 0.000000 0.000000 0.000000 0.024297 0.000000 0.000000
# 5 0.000000 0.000000 0.000000 0.000000 -0.069083 0.000000
# 6 0.000000 0.000000 0.000000 0.000000 0.000000 0.136548
#
#
# Mechanical properties :
#
#
# Convention : Reuss Voigt Hill
#
# Bulk Modulus (GPa) = 45.79519 57.80807 51.80163
# Shear Modulus (GPa) = 29.99100 19.06355 24.52727
#
# Velocity S-wave (km/s) = 4.11573 3.28136 3.72200
# Velocity P-wave (km/s) = 6.96070 6.85617 6.90863
#
# Compressibility (1/GPa) = 0.02183636
#
# Stress axis : x y z
#
# Youngs Moduli (GPa) = 44.91359 87.05394 90.87236
#
# Poissons Ratio (x) = 0.44274 0.16874
# Poissons Ratio (y) = 0.22842 0.41051
# Poissons Ratio (z) = 0.08340 0.39326
#
# Static dielectric constant tensor:
#      x y z
#    x 2.984470 0.000000 0.000000 
#    y 0.000000 3.254940 0.000000 
#    z 0.000000 0.000000 3.578010 
# 
# 
# High freq. dielectric constant tensor:
#      x y z
#    x 1.647360 0.000000 0.000000 
#    y 0.000000 1.683370 0.000000 
#    z 0.000000 0.000000 1.707090 
# 
# From -- ./inp_files/56115.got.cif
#   From: 2010.03.12/outbox.cif.g09.slc.cpg/sg65_29_cif.got.tgz:56115.got - 2010.04.10 20:52:16.
