data_PCOD8274272
_publ_section_title
;
Structure prediction by ZEFSAII (Michael W. Deem and Ramdas Pophale) SiO2 
 PCOD8274272
Probable space group: C M M M
;
_chemical_formula_sum "Si O2"
_cell_formula_units_Z 104
_cell_length_a 8.302810
_cell_length_b 23.917871
_cell_length_c 29.182061
_cell_angle_alpha 90.000000
_cell_angle_beta 90.000000
_cell_angle_gamma 90.000000
_cell_volume 5795.135299
_symmetry_space_group_name_H-M "C M M M"
_symmetry_group_IT_number 65
_symmetry_cell_setting 'orthorhombic'
loop_
_space_group_symop_operation_xyz
x,y,z
-x,-y,z
x,-y,-z
-x,y,-z
-x,-y,-z
x,y,-z
-x,y,z
x,-y,z
1/2+x,1/2+y,z
1/2-x,1/2-y,z
1/2+x,1/2-y,-z
1/2-x,1/2+y,-z
1/2-x,1/2-y,-z
1/2+x,1/2+y,-z
1/2-x,1/2+y,z
1/2+x,1/2-y,z
loop_
_atom_site_type_symbol
_atom_site_label
_atom_site_fract_x
_atom_site_fract_y
_atom_site_fract_z
Si Si1 0.184046 0.434625 0.108173
Si Si2 0.690801 0.811132 0.449436
Si Si3 0.813191 0.187582 0.720286
Si Si4 0.689277 0.118567 0.365439
Si Si5 0.500000 0.565875 0.949088
Si Si6 0.689404 0.500000 0.751807
Si Si7 0.183162 0.388357 0.205567
Si Si8 0.309596 0.500000 0.649657
O O1 0.206024 0.500000 0.122457
O O2 0.330814 0.415883 0.074856
O O3 0.202442 0.392006 0.150768
O O4 0.000000 0.427355 0.087655
O O5 0.754125 0.829635 0.500000
O O6 0.500000 0.812538 0.448926
O O7 0.750000 0.750000 0.437195
O O8 0.762985 0.850021 0.409582
O O9 0.750000 0.250000 0.713530
O O10 0.749452 0.144589 0.682229
O O11 0.774235 0.164087 0.771265
O O12 0.000000 0.190741 0.713630
O O13 0.500000 0.123452 0.364874
O O14 0.742258 0.055181 0.374085
O O15 0.500000 0.500000 0.952478
O O16 0.500000 0.592435 0.000000
O O17 0.500000 0.500000 0.751793
O O18 0.749782 0.445969 0.776842
O O19 0.758698 0.500000 0.700958
O O20 0.000000 0.381608 0.220516
O O21 0.500000 0.500000 0.647616
#
# Coordination Sequence:
#
# PCOD8274272 Si02
#       8
#    16  16  16  16   8   8  16   8
#     4   9  18  30  47  73 104 141 183 225 270 323
#     4   9  19  36  58  83 106 132 171 218 268 321
#     4  12  25  39  54  76 107 144 178 217 264 320
#     4  11  22  37  58  80 106 140 176 218 266 319
#     4   9  18  30  46  70 104 146 186 226 273 324
#     4  11  21  31  51  78 103 141 182 222 262 307
#     4  11  21  34  53  77 106 141 181 225 267 317
#     4  11  23  37  52  78 108 139 180 219 262 315
#
# _framework density 17.946086999999999
#
# number of rings (size 3 to 8) (size 9 to 14) (size 15 to 20)
#    0.000    1.615    2.308    3.231    2.154    3.385 
#    0.000    1.923    0.000    2.308    0.000    0.000 
#    0.000    0.615    0.308    0.000    0.000    0.000 
#
# Total GULP energy -644478.266703 kJ/mol
# GULP energy per Si atom -12393.812821 kJ/mol
# Density = 1.790524 g / cm^3
# Si number density = 17.946087 Si / 1000 Ang^3
#
#
#
# Elastic Constant Matrix: (Units=GPa)
#
#
# Indices 1 2 3 4 5 6 
#
# 1 84.5925 32.3207 48.8735 0.0000 0.0000 0.0000
# 2 32.3207 98.4464 45.9340 0.0000 0.0000 0.0000
# 3 48.8735 45.9340 108.1918 0.0000 0.0000 0.0000
# 4 0.0000 0.0000 0.0000 19.4405 0.0000 0.0000
# 5 0.0000 0.0000 0.0000 0.0000 21.1596 0.0000
# 6 0.0000 0.0000 0.0000 0.0000 0.0000 33.6408
#
#
#
# Elastic Compliance Matrix: (Units=1/GPa)
#
#
# Indices 1 2 3 4 5 6 
#
# 1 0.016442 -0.002410 -0.006404 0.000000 0.000000 0.000000
# 2 -0.002410 0.013020 -0.004439 0.000000 0.000000 0.000000
# 3 -0.006404 -0.004439 0.014021 0.000000 0.000000 0.000000
# 4 0.000000 0.000000 0.000000 0.051439 0.000000 0.000000
# 5 0.000000 0.000000 0.000000 0.000000 0.047260 0.000000
# 6 0.000000 0.000000 0.000000 0.000000 0.000000 0.029726
#
#
# Mechanical properties :
#
#
# Convention : Reuss Voigt Hill
#
# Bulk Modulus (GPa) = 58.90615 60.60967 59.75791
# Shear Modulus (GPa) = 24.50097 25.78834 25.14465
#
# Velocity S-wave (km/s) = 3.69894 3.79488 3.74722
# Velocity P-wave (km/s) = 7.15109 7.28340 7.21755
#
# Compressibility (1/GPa) = 0.01697616
#
# Stress axis : x y z
#
# Youngs Moduli (GPa) = 60.81891 76.80296 71.32368
#
# Poissons Ratio (x) = 0.18509 0.45678
# Poissons Ratio (y) = 0.14657 0.31663
# Poissons Ratio (z) = 0.38950 0.34095
#
# Static dielectric constant tensor:
#      x y z
#    x 3.522360 0.000000 0.000000 
#    y 0.000000 3.148100 0.000000 
#    z 0.000000 0.000000 3.586140 
# 
# 
# High freq. dielectric constant tensor:
#      x y z
#    x 1.712000 0.000000 0.000000 
#    y 0.000000 1.669390 0.000000 
#    z 0.000000 0.000000 1.686070 
# 
# From -- ./inp_files/73429.got.cif
#   From: 2010.03.12/outbox.cif.g09.slc.cpg/sg65_37_cif.got.tgz:73429.got - 2010.04.10 20:52:16.
