data_PCOD8274838
_publ_section_title
;
Structure prediction by ZEFSAII (Michael W. Deem and Ramdas Pophale) SiO2 
 PCOD8274838
Probable space group: C M M M
;
_chemical_formula_sum "Si O2"
_cell_formula_units_Z 72
_cell_length_a 9.022592
_cell_length_b 27.427762
_cell_length_c 16.103642
_cell_angle_alpha 90.000000
_cell_angle_beta 90.000000
_cell_angle_gamma 90.000000
_cell_volume 3985.160331
_symmetry_space_group_name_H-M "C M M M"
_symmetry_group_IT_number 65
_symmetry_cell_setting 'orthorhombic'
loop_
_space_group_symop_operation_xyz
x,y,z
-x,-y,z
x,-y,-z
-x,y,-z
-x,-y,-z
x,y,-z
-x,y,z
x,-y,z
1/2+x,1/2+y,z
1/2-x,1/2-y,z
1/2+x,1/2-y,-z
1/2-x,1/2+y,-z
1/2-x,1/2-y,-z
1/2+x,1/2+y,-z
1/2-x,1/2+y,z
1/2+x,1/2-y,z
loop_
_atom_site_type_symbol
_atom_site_label
_atom_site_fract_x
_atom_site_fract_y
_atom_site_fract_z
Si Si1 0.823175 0.396268 0.408425
Si Si2 0.323757 0.053687 0.245806
Si Si3 0.675578 0.302745 0.000000
Si Si4 0.829706 0.299600 0.675289
Si Si5 0.328095 0.148944 0.153220
O O1 0.762425 0.410470 0.500000
O O2 0.764057 0.433999 0.338715
O O3 0.767023 0.342256 0.383991
O O4 0.000000 0.396541 0.407759
O O5 0.500000 0.054542 0.248883
O O6 0.273321 0.094612 0.179704
O O7 0.264483 0.000000 0.219782
O O8 0.750000 0.250000 0.000000
O O9 0.723857 0.333409 0.079752
O O10 0.500000 0.295655 0.000000
O O11 0.750000 0.250000 0.652776
O O12 0.805336 0.314085 0.770942
O O13 0.000000 0.290950 0.656356
O O14 0.500000 0.148244 0.124934
#
# Coordination Sequence:
#
# PCOD8274838 Si02
#       5
#    16  16   8  16  16
#     4   8  14  24  38  61  94 125 154 194 240 279
#     4   8  14  26  46  70  94 124 162 199 235 277
#     4  12  24  36  53  76  99 123 154 191 233 282
#     4   9  17  28  43  63  89 124 160 192 231 280
#     4   9  18  33  50  70  98 127 157 195 236 280
#
# _framework density 18.067025999999998
#
# number of rings (size 3 to 8) (size 9 to 14) (size 15 to 20)
#    0.000    3.111    0.000    4.333    0.000    3.556 
#    0.000    2.778    0.000    4.000    0.000    0.000 
#    0.000    0.000    0.000    9.778    0.000    9.778 
#
# Total GULP energy -446136.309003 kJ/mol
# GULP energy per Si atom -12392.675250 kJ/mol
# Density = 1.802591 g / cm^3
# Si number density = 18.067026 Si / 1000 Ang^3
#
#
#
# Elastic Constant Matrix: (Units=GPa)
#
#
# Indices 1 2 3 4 5 6 
#
# 1 44.6338 27.2264 31.8117 0.0000 0.0000 0.0000
# 2 27.2264 139.9162 48.2412 0.0000 0.0000 0.0000
# 3 31.8117 48.2412 100.1199 0.0000 0.0000 0.0000
# 4 0.0000 0.0000 0.0000 16.4597 0.0000 0.0000
# 5 0.0000 0.0000 0.0000 0.0000 12.0632 0.0000
# 6 0.0000 0.0000 0.0000 0.0000 0.0000 19.0405
#
#
#
# Elastic Compliance Matrix: (Units=1/GPa)
#
#
# Indices 1 2 3 4 5 6 
#
# 1 0.030019 -0.003061 -0.008063 0.000000 0.000000 0.000000
# 2 -0.003061 0.008883 -0.003308 0.000000 0.000000 0.000000
# 3 -0.008063 -0.003308 0.014144 0.000000 0.000000 0.000000
# 4 0.000000 0.000000 0.000000 0.060754 0.000000 0.000000
# 5 0.000000 0.000000 0.000000 0.000000 0.082897 0.000000
# 6 0.000000 0.000000 0.000000 0.000000 0.000000 0.052520
#
#
# Mechanical properties :
#
#
# Convention : Reuss Voigt Hill
#
# Bulk Modulus (GPa) = 41.35339 55.46981 48.41160
# Shear Modulus (GPa) = 17.47391 21.33871 19.40631
#
# Velocity S-wave (km/s) = 3.11331 3.44042 3.28095
# Velocity P-wave (km/s) = 5.98850 6.82282 6.41923
#
# Compressibility (1/GPa) = 0.02418182
#
# Stress axis : x y z
#
# Youngs Moduli (GPa) = 33.31263 112.57153 70.70345
#
# Poissons Ratio (x) = 0.34462 0.57008
# Poissons Ratio (y) = 0.10198 0.23385
# Poissons Ratio (z) = 0.26860 0.37234
#
# Static dielectric constant tensor:
#      x y z
#    x 2.816730 0.000000 0.000000 
#    y 0.000000 3.653870 0.000000 
#    z 0.000000 0.000000 3.419940 
# 
# 
# High freq. dielectric constant tensor:
#      x y z
#    x 1.642850 0.000000 0.000000 
#    y 0.000000 1.707040 0.000000 
#    z 0.000000 0.000000 1.698130 
# 
# From -- ./inp_files/36945.got.cif
#   From: 2010.03.12/outbox.cif.g09.slc.cpg/sg65_19_cif.got.tgz:36945.got - 2010.04.10 20:52:16.
