data_PCOD8274323
_publ_section_title
;
Structure prediction by ZEFSAII (Michael W. Deem and Ramdas Pophale) SiO2 
 PCOD8274323
Probable space group: C M M M
;
_chemical_formula_sum "Si O2"
_cell_formula_units_Z 72
_cell_length_a 14.257862
_cell_length_b 29.627774
_cell_length_c 8.938960
_cell_angle_alpha 90.000000
_cell_angle_beta 90.000000
_cell_angle_gamma 90.000000
_cell_volume 3776.073369
_symmetry_space_group_name_H-M "C M M M"
_symmetry_group_IT_number 65
_symmetry_cell_setting 'orthorhombic'
loop_
_space_group_symop_operation_xyz
x,y,z
-x,-y,z
x,-y,-z
-x,y,-z
-x,-y,-z
x,y,-z
-x,y,z
x,-y,z
1/2+x,1/2+y,z
1/2-x,1/2-y,z
1/2+x,1/2-y,-z
1/2-x,1/2+y,-z
1/2-x,1/2-y,-z
1/2+x,1/2+y,-z
1/2-x,1/2+y,z
1/2+x,1/2-y,z
loop_
_atom_site_type_symbol
_atom_site_label
_atom_site_fract_x
_atom_site_fract_y
_atom_site_fract_z
Si Si1 0.391852 0.500000 0.675715
Si Si2 0.894761 0.553278 0.331012
Si Si3 0.283804 0.418650 0.824763
Si Si4 0.604160 0.766655 0.821819
Si Si5 0.217321 0.181673 0.822606
O O1 0.500000 0.500000 0.721762
O O2 0.376055 0.500000 0.500000
O O3 0.345882 0.454846 0.738857
O O4 0.870178 0.568595 0.500000
O O5 0.883830 0.500000 0.318672
O O6 0.825804 0.575988 0.212475
O O7 0.000000 0.568251 0.288890
O O8 0.312080 0.368399 0.769567
O O9 0.299800 0.425575 0.000000
O O10 0.500000 0.776020 0.755487
O O11 0.678694 0.803991 0.762920
O O12 0.639439 0.717263 0.766516
O O13 0.600140 0.767024 0.000000
O O14 0.223033 0.182497 0.000000
#
# Coordination Sequence:
#
# PCOD8274323 Si02
#       5
#     8  16  16  16  16
#     4  11  25  43  58  71  96 141 189 222 254 307
#     4   9  18  33  52  72  99 139 180 212 249 307
#     4  11  21  33  53  82 112 136 167 222 276 308
#     4   8  13  25  44  64  96 140 171 194 238 307
#     4   8  16  27  41  70 105 133 165 203 251 309
#
# _framework density 19.067426000000001
#
# number of rings (size 3 to 8) (size 9 to 14) (size 15 to 20)
#    0.000    2.778    1.111    3.000    0.000    3.111 
#    0.000    5.556    0.000    0.000    0.000   12.444 
#    0.000   21.333    0.000    0.000    0.000    0.000 
#
# Total GULP energy -446171.543802 kJ/mol
# GULP energy per Si atom -12393.653994 kJ/mol
# Density = 1.902403 g / cm^3
# Si number density = 19.067426 Si / 1000 Ang^3
#
#
#
# Elastic Constant Matrix: (Units=GPa)
#
#
# Indices 1 2 3 4 5 6 
#
# 1 114.0113 50.6655 23.9434 0.0000 0.0000 0.0000
# 2 50.6655 128.4933 23.4297 0.0000 0.0000 0.0000
# 3 23.9434 23.4297 27.5258 0.0000 0.0000 0.0000
# 4 0.0000 0.0000 0.0000 -1.0892 0.0000 0.0000
# 5 0.0000 0.0000 0.0000 0.0000 20.1228 0.0000
# 6 0.0000 0.0000 0.0000 0.0000 0.0000 15.7617
#
#
#
# Elastic Compliance Matrix: (Units=1/GPa)
#
#
# Indices 1 2 3 4 5 6 
#
# 1 0.011802 -0.003293 -0.007463 0.000000 0.000000 0.000000
# 2 -0.003293 0.010131 -0.005759 0.000000 0.000000 0.000000
# 3 -0.007463 -0.005759 0.047724 0.000000 0.000000 0.000000
# 4 0.000000 0.000000 0.000000 -0.918104 0.000000 0.000000
# 5 0.000000 0.000000 0.000000 0.000000 0.049695 0.000000
# 6 0.000000 0.000000 0.000000 0.000000 0.000000 0.063445
#
#
# Mechanical properties :
#
#
# Convention : Reuss Voigt Hill
#
# Bulk Modulus (GPa) = 27.30279 51.78971 39.54625
# Shear Modulus (GPa) = -7.24565 18.42517 5.58976
#
# Velocity S-wave (km/s) = -1.95148 3.11194 1.71404
# Velocity P-wave (km/s) = 3.04507 6.33502 4.97016
#
# Compressibility (1/GPa) = 0.03662629
#
# Stress axis : x y z
#
# Youngs Moduli (GPa) = 84.73462 98.70741 20.95402
#
# Poissons Ratio (x) = 0.32500 0.15638
# Poissons Ratio (y) = 0.27900 0.12068
# Poissons Ratio (z) = 0.63237 0.56848
#
# Static dielectric constant tensor:
#      x y z
#    x 3.798520 0.000000 0.000000 
#    y 0.000000 3.741680 0.000000 
#    z 0.000000 0.000000 3.049310 
# 
# 
# High freq. dielectric constant tensor:
#      x y z
#    x 1.746960 0.000000 0.000000 
#    y 0.000000 1.742700 0.000000 
#    z 0.000000 0.000000 1.692960 
# 
# From -- ./inp_files/7655.got.cif
#   From: 2010.03.12/outbox.cif.g09.slc.cpg/sg65_4_cif.got.tgz:7655.got - 2010.04.10 20:52:16.
