data_PCOD8274385
_publ_section_title
;
Structure prediction by ZEFSAII (Michael W. Deem and Ramdas Pophale) SiO2 
 PCOD8274385
Probable space group: C M M M
;
_chemical_formula_sum "Si O2"
_cell_formula_units_Z 88
_cell_length_a 9.403404
_cell_length_b 22.601412
_cell_length_c 21.371030
_cell_angle_alpha 90.000000
_cell_angle_beta 90.000000
_cell_angle_gamma 90.000000
_cell_volume 4541.989451
_symmetry_space_group_name_H-M "C M M M"
_symmetry_group_IT_number 65
_symmetry_cell_setting 'orthorhombic'
loop_
_space_group_symop_operation_xyz
x,y,z
-x,-y,z
x,-y,-z
-x,y,-z
-x,-y,-z
x,y,-z
-x,y,z
x,-y,z
1/2+x,1/2+y,z
1/2-x,1/2-y,z
1/2+x,1/2-y,-z
1/2-x,1/2+y,-z
1/2-x,1/2-y,-z
1/2+x,1/2+y,-z
1/2-x,1/2+y,z
1/2+x,1/2-y,z
loop_
_atom_site_type_symbol
_atom_site_label
_atom_site_fract_x
_atom_site_fract_y
_atom_site_fract_z
Si Si1 0.834712 0.189178 0.731700
Si Si2 0.261502 0.127804 0.855270
Si Si3 0.000000 0.304055 0.926405
Si Si4 0.333128 0.602039 0.378067
Si Si5 0.838627 0.500000 0.826811
Si Si6 0.170802 0.428666 0.500000
Si Si7 0.828003 0.500000 0.690368
Si Si8 0.500000 0.335314 0.928558
O O1 0.750000 0.250000 0.732587
O O2 0.762714 0.145605 0.782824
O O3 0.823733 0.162653 0.661685
O O4 0.000000 0.199682 0.749863
O O5 0.366756 0.172141 0.889293
O O6 0.125479 0.131624 0.896241
O O7 0.306533 0.059730 0.864126
O O8 0.000000 0.234287 0.918258
O O9 0.000000 0.322047 0.000000
O O10 0.500000 0.584126 0.387396
O O11 0.249354 0.605072 0.443375
O O12 0.240822 0.556330 0.340084
O O13 0.762928 0.500000 0.759899
O O14 0.000000 0.500000 0.807530
O O15 0.199865 0.500000 0.500000
O O16 0.000000 0.417061 0.500000
O O17 0.000000 0.500000 0.681549
O O18 0.500000 0.352335 0.000000
#
# Coordination Sequence:
#
# PCOD8274385 Si02
#       8
#    16  16   8  16   8   8   8   8
#     4  11  25  42  65  98 130 165 214 269 323 383
#     4  12  23  42  65  97 128 169 217 265 327 386
#     4  11  24  43  69  93 127 171 217 270 320 390
#     4  11  23  40  62  95 129 167 213 262 319 372
#     4  11  24  42  62  92 131 173 212 264 325 390
#     4  11  23  39  62  95 131 170 217 261 312 382
#     4  11  21  36  58  90 128 168 208 257 316 381
#     4  11  24  43  65  95 129 165 215 270 328 382
#
# _framework density 19.374769000000001
#
# number of rings (size 3 to 8) (size 9 to 14) (size 15 to 20)
#    0.000    0.818    4.545    3.273    1.273    3.636 
#    1.636    3.182    0.000    0.000    0.000    0.000 
#    0.000    0.000    0.000    0.000    0.000    0.000 
#
# Total GULP energy -545230.432122 kJ/mol
# GULP energy per Si atom -12391.600730 kJ/mol
# Density = 1.933067 g / cm^3
# Si number density = 19.374769 Si / 1000 Ang^3
#
#
#
# Elastic Constant Matrix: (Units=GPa)
#
#
# Indices 1 2 3 4 5 6 
#
# 1 101.6173 15.1843 27.9124 0.0000 0.0000 0.0000
# 2 15.1843 78.7371 32.4511 0.0000 0.0000 0.0000
# 3 27.9124 32.4511 117.9084 0.0000 0.0000 0.0000
# 4 0.0000 0.0000 0.0000 41.5963 0.0000 0.0000
# 5 0.0000 0.0000 0.0000 0.0000 43.7739 0.0000
# 6 0.0000 0.0000 0.0000 0.0000 0.0000 37.3101
#
#
#
# Elastic Compliance Matrix: (Units=1/GPa)
#
#
# Indices 1 2 3 4 5 6 
#
# 1 0.010615 -0.001141 -0.002199 0.000000 0.000000 0.000000
# 2 -0.001141 0.014448 -0.003706 0.000000 0.000000 0.000000
# 3 -0.002199 -0.003706 0.010022 0.000000 0.000000 0.000000
# 4 0.000000 0.000000 0.000000 0.024041 0.000000 0.000000
# 5 0.000000 0.000000 0.000000 0.000000 0.022845 0.000000
# 6 0.000000 0.000000 0.000000 0.000000 0.000000 0.026802
#
#
# Mechanical properties :
#
#
# Convention : Reuss Voigt Hill
#
# Bulk Modulus (GPa) = 47.63533 49.92870 48.78201
# Shear Modulus (GPa) = 38.50217 39.38374 38.94296
#
# Velocity S-wave (km/s) = 4.46267 4.51348 4.48815
# Velocity P-wave (km/s) = 7.15497 7.27928 7.21739
#
# Compressibility (1/GPa) = 0.02099282
#
# Stress axis : x y z
#
# Youngs Moduli (GPa) = 94.20334 69.21342 99.78244
#
# Poissons Ratio (x) = 0.07896 0.21942
# Poissons Ratio (y) = 0.10747 0.36983
# Poissons Ratio (z) = 0.20715 0.25653
#
# Static dielectric constant tensor:
#      x y z
#    x 3.738970 0.000000 0.000000 
#    y 0.000000 3.134210 0.000000 
#    z 0.000000 0.000000 3.901050 
# 
# 
# High freq. dielectric constant tensor:
#      x y z
#    x 1.773640 0.000000 0.000000 
#    y 0.000000 1.745300 0.000000 
#    z 0.000000 0.000000 1.766550 
# 
# From -- ./inp_files/59969.got.cif
#   From: 2010.03.12/outbox.cif.g09.slc.cpg/sg65_30_cif.got.tgz:59969.got - 2010.04.10 20:52:16.
