data_PCOD8274286
_publ_section_title
;
Structure prediction by ZEFSAII (Michael W. Deem and Ramdas Pophale) SiO2 
 PCOD8274286
Probable space group: C M M M
;
_chemical_formula_sum "Si O2"
_cell_formula_units_Z 80
_cell_length_a 9.242482
_cell_length_b 25.549911
_cell_length_c 21.991529
_cell_angle_alpha 90.000000
_cell_angle_beta 90.000000
_cell_angle_gamma 90.000000
_cell_volume 5193.180655
_symmetry_space_group_name_H-M "C M M M"
_symmetry_group_IT_number 65
_symmetry_cell_setting 'orthorhombic'
loop_
_space_group_symop_operation_xyz
x,y,z
-x,-y,z
x,-y,-z
-x,y,-z
-x,-y,-z
x,y,-z
-x,y,z
x,-y,z
1/2+x,1/2+y,z
1/2-x,1/2-y,z
1/2+x,1/2-y,-z
1/2-x,1/2+y,-z
1/2-x,1/2-y,-z
1/2+x,1/2+y,-z
1/2-x,1/2+y,z
1/2+x,1/2-y,z
loop_
_atom_site_type_symbol
_atom_site_label
_atom_site_fract_x
_atom_site_fract_y
_atom_site_fract_z
Si Si1 0.838584 0.062552 0.500000
Si Si2 0.660326 0.937869 0.386760
Si Si3 0.831854 0.800852 0.930739
Si Si4 0.328941 0.593526 0.136902
Si Si5 0.331952 0.061305 0.251177
Si Si6 0.667489 0.000000 0.071938
O O1 0.763001 0.085062 0.560724
O O2 0.000000 0.084457 0.500000
O O3 0.834983 0.000000 0.500000
O O4 0.500000 0.915074 0.397679
O O5 0.715687 0.922319 0.319482
O O6 0.654067 0.000000 0.391020
O O7 0.750000 0.750000 0.905204
O O8 0.789447 0.850143 0.889923
O O9 0.000000 0.788480 0.926664
O O10 0.784556 0.812919 0.000000
O O11 0.500000 0.582119 0.135108
O O12 0.270946 0.593101 0.205819
O O13 0.246041 0.551015 0.097049
O O14 0.500000 0.075284 0.240472
O O15 0.306414 0.000000 0.239675
O O16 0.500000 0.000000 0.093180
O O17 0.680938 0.000000 0.000000
#
# Coordination Sequence:
#
# PCOD8274286 Si02
#       6
#     8  16  16  16  16   8
#     4   9  15  21  31  51  75 101 138 185 222 251
#     4   8  14  24  37  51  72 107 145 180 214 250
#     4   9  19  35  52  69  88 111 143 182 225 273
#     4  11  21  32  48  69  92 117 144 182 229 270
#     4   9  17  29  43  60  85 117 152 184 214 260
#     4  11  23  35  47  65  89 118 151 182 215 263
#
# _framework density 15.404818000000001
#
# number of rings (size 3 to 8) (size 9 to 14) (size 15 to 20)
#    0.000    2.600    1.000    3.000    0.000    5.200 
#    0.000    4.000    0.000    0.000    0.000    0.000 
#    0.000    0.000    0.000    0.900    0.000   11.900 
#
# Total GULP energy -495908.710061 kJ/mol
# GULP energy per Si atom -12397.717752 kJ/mol
# Density = 1.536976 g / cm^3
# Si number density = 15.404818 Si / 1000 Ang^3
#
#
#
# Elastic Constant Matrix: (Units=GPa)
#
#
# Indices 1 2 3 4 5 6 
#
# 1 96.7192 49.3684 69.5694 0.0000 0.0000 0.0000
# 2 49.3684 73.8594 49.1447 0.0000 0.0000 0.0000
# 3 69.5694 49.1447 128.3503 0.0000 0.0000 0.0000
# 4 0.0000 0.0000 0.0000 10.9740 0.0000 0.0000
# 5 0.0000 0.0000 0.0000 0.0000 27.9084 0.0000
# 6 0.0000 0.0000 0.0000 0.0000 0.0000 19.8700
#
#
#
# Elastic Compliance Matrix: (Units=1/GPa)
#
#
# Indices 1 2 3 4 5 6 
#
# 1 0.020152 -0.008322 -0.007736 0.000000 0.000000 0.000000
# 2 -0.008322 0.021605 -0.003762 0.000000 0.000000 0.000000
# 3 -0.007736 -0.003762 0.013425 0.000000 0.000000 0.000000
# 4 0.000000 0.000000 0.000000 0.091124 0.000000 0.000000
# 5 0.000000 0.000000 0.000000 0.000000 0.035831 0.000000
# 6 0.000000 0.000000 0.000000 0.000000 0.000000 0.050327
#
#
# Mechanical properties :
#
#
# Convention : Reuss Voigt Hill
#
# Bulk Modulus (GPa) = 64.34457 70.56598 67.45527
# Shear Modulus (GPa) = 18.03206 20.47360 19.25283
#
# Velocity S-wave (km/s) = 3.42504 3.64955 3.53908
# Velocity P-wave (km/s) = 7.58294 7.97911 7.78354
#
# Compressibility (1/GPa) = 0.01554133
#
# Stress axis : x y z
#
# Youngs Moduli (GPa) = 49.62366 46.28646 74.48933
#
# Poissons Ratio (x) = 0.38520 0.57627
# Poissons Ratio (y) = 0.41297 0.28019
# Poissons Ratio (z) = 0.38390 0.17411
#
# Static dielectric constant tensor:
#      x y z
#    x 3.079130 0.000000 0.000000 
#    y 0.000000 2.551730 0.000000 
#    z 0.000000 0.000000 3.178540 
# 
# 
# High freq. dielectric constant tensor:
#      x y z
#    x 1.599110 0.000000 0.000000 
#    y 0.000000 1.531510 0.000000 
#    z 0.000000 0.000000 1.601150 
# 
# From -- ./inp_files/67762.got.cif
#   From: 2010.03.12/outbox.cif.g09.slc.cpg/sg65_34_cif.got.tgz:67762.got - 2010.04.10 20:52:16.
