data_PCOD8274496
_publ_section_title
;
Structure prediction by ZEFSAII (Michael W. Deem and Ramdas Pophale) SiO2 
 PCOD8274496
Probable space group: C M M M
;
_chemical_formula_sum "Si O2"
_cell_formula_units_Z 72
_cell_length_a 31.704521
_cell_length_b 13.357207
_cell_length_c 8.751335
_cell_angle_alpha 90.000000
_cell_angle_beta 90.000000
_cell_angle_gamma 90.000000
_cell_volume 3706.049037
_symmetry_space_group_name_H-M "C M M M"
_symmetry_group_IT_number 65
_symmetry_cell_setting 'orthorhombic'
loop_
_space_group_symop_operation_xyz
x,y,z
-x,-y,z
x,-y,-z
-x,y,-z
-x,-y,-z
x,y,-z
-x,y,z
x,-y,z
1/2+x,1/2+y,z
1/2-x,1/2-y,z
1/2+x,1/2-y,-z
1/2-x,1/2+y,-z
1/2-x,1/2-y,-z
1/2+x,1/2+y,-z
1/2-x,1/2+y,z
1/2+x,1/2-y,z
loop_
_atom_site_type_symbol
_atom_site_label
_atom_site_fract_x
_atom_site_fract_y
_atom_site_fract_z
Si Si1 0.593055 0.190237 0.319262
Si Si2 0.182407 0.704108 0.180774
Si Si3 0.452259 0.610933 0.681472
Si Si4 0.768112 0.108194 0.181218
Si Si5 0.450179 0.000000 0.173724
O O1 0.589467 0.187692 0.500000
O O2 0.640921 0.172069 0.269570
O O3 0.576617 0.298086 0.254618
O O4 0.565438 0.100231 0.255055
O O5 0.196307 0.814826 0.236626
O O6 0.220596 0.632792 0.234587
O O7 0.173957 0.698134 0.000000
O O8 0.451513 0.612963 0.500000
O O9 0.500000 0.628337 0.739920
O O10 0.436476 0.500000 0.737605
O O11 0.780884 0.000000 0.246226
O O12 0.767139 0.111969 0.000000
O O13 0.500000 0.000000 0.182402
O O14 0.433685 0.000000 0.000000
#
# Coordination Sequence:
#
# PCOD8274496 Si02
#       5
#    16  16  16  16   8
#     4  11  22  35  55  84 116 145 180 228 280 335
#     4   9  18  32  51  77 104 137 185 229 271 324
#     4   8  15  30  52  76 103 139 179 216 261 323
#     4   8  15  30  52  74 100 140 188 232 270 319
#     4  11  25  43  61  81 109 149 193 235 281 333
#
# _framework density 19.427697999999999
#
# number of rings (size 3 to 8) (size 9 to 14) (size 15 to 20)
#    0.000    2.778    0.000    3.667    1.556    2.667 
#    0.000    2.222    0.000    3.333    0.000    7.778 
#    0.000    0.000    0.000    0.000    0.000    0.000 
#
# Total GULP energy -446148.301701 kJ/mol
# GULP energy per Si atom -12393.008381 kJ/mol
# Density = 1.938348 g / cm^3
# Si number density = 19.427698 Si / 1000 Ang^3
#
#
#
# Elastic Constant Matrix: (Units=GPa)
#
#
# Indices 1 2 3 4 5 6 
#
# 1 72.0724 20.0849 22.2518 0.0000 0.0000 0.0000
# 2 20.0849 122.2331 26.4283 0.0000 0.0000 0.0000
# 3 22.2518 26.4283 47.9882 0.0000 0.0000 0.0000
# 4 0.0000 0.0000 0.0000 9.6487 0.0000 0.0000
# 5 0.0000 0.0000 0.0000 0.0000 18.4557 0.0000
# 6 0.0000 0.0000 0.0000 0.0000 0.0000 8.9732
#
#
#
# Elastic Compliance Matrix: (Units=1/GPa)
#
#
# Indices 1 2 3 4 5 6 
#
# 1 0.016344 -0.001189 -0.006924 0.000000 0.000000 0.000000
# 2 -0.001189 0.009373 -0.004611 0.000000 0.000000 0.000000
# 3 -0.006924 -0.004611 0.026588 0.000000 0.000000 0.000000
# 4 0.000000 0.000000 0.000000 0.103641 0.000000 0.000000
# 5 0.000000 0.000000 0.000000 0.000000 0.054184 0.000000
# 6 0.000000 0.000000 0.000000 0.000000 0.000000 0.111443
#
#
# Mechanical properties :
#
#
# Convention : Reuss Voigt Hill
#
# Bulk Modulus (GPa) = 37.23202 42.20264 39.71733
# Shear Modulus (GPa) = 14.04599 18.98410 16.51505
#
# Velocity S-wave (km/s) = 2.69176 3.12936 2.91877
# Velocity P-wave (km/s) = 5.37278 5.90146 5.64332
#
# Compressibility (1/GPa) = 0.02685860
#
# Stress axis : x y z
#
# Youngs Moduli (GPa) = 61.18501 106.68555 37.61033
#
# Poissons Ratio (x) = 0.12680 0.26041
# Poissons Ratio (y) = 0.07272 0.17342
# Poissons Ratio (z) = 0.42364 0.49193
#
# Static dielectric constant tensor:
#      x y z
#    x 3.494330 0.000000 0.000000 
#    y 0.000000 4.229300 0.000000 
#    z 0.000000 0.000000 3.096590 
# 
# 
# High freq. dielectric constant tensor:
#      x y z
#    x 1.755440 0.000000 0.000000 
#    y 0.000000 1.775640 0.000000 
#    z 0.000000 0.000000 1.709140 
# 
# From -- ./inp_files/15768.got.cif
#   From: 2010.03.12/outbox.cif.g09.slc.cpg/sg65_8_cif.got.tgz:15768.got - 2010.04.10 20:52:16.
