data_PCOD8274551
_publ_section_title
;
Structure prediction by ZEFSAII (Michael W. Deem and Ramdas Pophale) SiO2 
 PCOD8274551
Probable space group: C M M M
;
_chemical_formula_sum "Si O2"
_cell_formula_units_Z 56
_cell_length_a 10.286829
_cell_length_b 36.805268
_cell_length_c 7.947462
_cell_angle_alpha 90.000000
_cell_angle_beta 90.000000
_cell_angle_gamma 90.000000
_cell_volume 3008.984600
_symmetry_space_group_name_H-M "C M M M"
_symmetry_group_IT_number 65
_symmetry_cell_setting 'orthorhombic'
loop_
_space_group_symop_operation_xyz
x,y,z
-x,-y,z
x,-y,-z
-x,y,-z
-x,-y,-z
x,y,-z
-x,y,z
x,-y,z
1/2+x,1/2+y,z
1/2-x,1/2-y,z
1/2+x,1/2-y,-z
1/2-x,1/2+y,-z
1/2-x,1/2-y,-z
1/2+x,1/2+y,-z
1/2-x,1/2+y,z
1/2+x,1/2-y,z
loop_
_atom_site_type_symbol
_atom_site_label
_atom_site_fract_x
_atom_site_fract_y
_atom_site_fract_z
Si Si1 0.268522 0.330833 0.306450
Si Si2 0.654539 0.459240 0.000000
Si Si3 0.000000 0.217827 0.188761
Si Si4 0.000000 0.297730 0.800054
Si Si5 0.846009 0.910360 0.308311
O O1 0.304101 0.327858 0.500000
O O2 0.370333 0.304892 0.215994
O O3 0.284122 0.372401 0.248651
O O4 0.123828 0.318798 0.268769
O O5 0.703553 0.439850 0.171947
O O6 0.711359 0.500000 0.000000
O O7 0.500000 0.459848 0.000000
O O8 0.000000 0.257040 0.281861
O O9 0.000000 0.230803 0.000000
O O10 0.000000 0.299105 0.000000
O O11 0.803091 0.921121 0.500000
O O12 0.000000 0.906127 0.301213
#
# Coordination Sequence:
#
# PCOD8274551 Si02
#       5
#    16   8   8   8  16
#     4  11  22  37  57  80 107 147 191 231 280 332
#     4   9  18  30  50  81 112 146 177 212 273 331
#     4  11  23  37  57  79 107 146 187 236 286 334
#     4  11  25  39  51  79 113 144 187 238 288 328
#     4   9  18  32  52  80 109 142 184 225 269 328
#
# _framework density 18.610928999999999
#
# number of rings (size 3 to 8) (size 9 to 14) (size 15 to 20)
#    0.000    1.857    1.429    2.571    4.000    6.286 
#    0.000    2.857    0.000    0.000    0.000    2.000 
#    0.000    4.571    0.000    0.000    0.000    0.000 
#
# Total GULP energy -347119.659695 kJ/mol
# GULP energy per Si atom -12397.130703 kJ/mol
# Density = 1.856857 g / cm^3
# Si number density = 18.610929 Si / 1000 Ang^3
#
#
#
# Elastic Constant Matrix: (Units=GPa)
#
#
# Indices 1 2 3 4 5 6 
#
# 1 76.3341 40.3595 5.4171 0.0000 0.0000 0.0000
# 2 40.3595 169.5477 68.1311 0.0000 0.0000 0.0000
# 3 5.4171 68.1311 82.9967 0.0000 0.0000 0.0000
# 4 0.0000 0.0000 0.0000 13.8801 0.0000 0.0000
# 5 0.0000 0.0000 0.0000 0.0000 28.1970 0.0000
# 6 0.0000 0.0000 0.0000 0.0000 0.0000 8.5567
#
#
#
# Elastic Compliance Matrix: (Units=1/GPa)
#
#
# Indices 1 2 3 4 5 6 
#
# 1 0.015473 -0.004891 0.003005 0.000000 0.000000 0.000000
# 2 -0.004891 0.010347 -0.008175 0.000000 0.000000 0.000000
# 3 0.003005 -0.008175 0.018563 0.000000 0.000000 0.000000
# 4 0.000000 0.000000 0.000000 0.072046 0.000000 0.000000
# 5 0.000000 0.000000 0.000000 0.000000 0.035465 0.000000
# 6 0.000000 0.000000 0.000000 0.000000 0.000000 0.116868
#
#
# Mechanical properties :
#
#
# Convention : Reuss Voigt Hill
#
# Bulk Modulus (GPa) = 41.21674 61.85488 51.53581
# Shear Modulus (GPa) = 16.83673 24.45814 20.64744
#
# Velocity S-wave (km/s) = 3.01103 3.62910 3.33442
# Velocity P-wave (km/s) = 5.85517 7.13221 6.52501
#
# Compressibility (1/GPa) = 0.02426199
#
# Stress axis : x y z
#
# Youngs Moduli (GPa) = 64.62941 96.64534 53.87054
#
# Poissons Ratio (x) = 0.47265 -0.16187
# Poissons Ratio (y) = 0.31608 0.44037
# Poissons Ratio (z) = -0.19420 0.79004
#
# Static dielectric constant tensor:
#      x y z
#    x 3.173700 0.000000 0.000000 
#    y 0.000000 3.626540 0.000000 
#    z 0.000000 0.000000 3.707790 
# 
# 
# High freq. dielectric constant tensor:
#      x y z
#    x 1.688200 0.000000 0.000000 
#    y 0.000000 1.725380 0.000000 
#    z 0.000000 0.000000 1.737290 
# 
# From -- ./inp_files/4775.got.cif
#   From: 2010.03.12/outbox.cif.g09.slc.cpg/sg65_3_cif.got.tgz:4775.got - 2010.04.10 20:52:16.
