data_PCOD8274365
_publ_section_title
;
Structure prediction by ZEFSAII (Michael W. Deem and Ramdas Pophale) SiO2 
 PCOD8274365
Probable space group: C M M M
;
_chemical_formula_sum "Si O2"
_cell_formula_units_Z 64
_cell_length_a 15.856875
_cell_length_b 8.808786
_cell_length_c 22.716529
_cell_angle_alpha 90.000000
_cell_angle_beta 90.000000
_cell_angle_gamma 90.000000
_cell_volume 3173.040648
_symmetry_space_group_name_H-M "C M M M"
_symmetry_group_IT_number 65
_symmetry_cell_setting 'orthorhombic'
loop_
_space_group_symop_operation_xyz
x,y,z
-x,-y,z
x,-y,-z
-x,y,-z
-x,-y,-z
x,y,-z
-x,y,z
x,-y,z
1/2+x,1/2+y,z
1/2-x,1/2-y,z
1/2+x,1/2-y,-z
1/2-x,1/2+y,-z
1/2-x,1/2-y,-z
1/2+x,1/2+y,-z
1/2-x,1/2+y,z
1/2+x,1/2-y,z
loop_
_atom_site_type_symbol
_atom_site_label
_atom_site_fract_x
_atom_site_fract_y
_atom_site_fract_z
Si Si1 0.841674 0.323392 0.640156
Si Si2 0.403986 0.834811 0.000000
Si Si3 0.840662 0.323552 0.229197
Si Si4 0.000000 0.680837 0.566970
Si Si5 0.342179 0.320336 0.884394
O O1 0.827342 0.500000 0.628298
O O2 0.750000 0.250000 0.628912
O O3 0.879970 0.297548 0.706101
O O4 0.914122 0.256127 0.597287
O O5 0.386389 0.735573 0.057050
O O6 0.500000 0.875999 0.000000
O O7 0.355507 0.000000 0.000000
O O8 0.834313 0.500000 0.213243
O O9 0.750000 0.250000 0.233656
O O10 0.889930 0.240225 0.175110
O O11 0.000000 0.500000 0.572076
O O12 0.000000 0.737723 0.500000
O O13 0.339986 0.500000 0.884199
O O14 0.250000 0.250000 0.883578
#
# Coordination Sequence:
#
# PCOD8274365 Si02
#       5
#    16   8  16   8  16
#     4   9  18  33  55  81 111 147 188 233 281 333
#     4  11  24  41  56  73 103 141 180 221 270 325
#     4   9  16  29  50  77 105 134 175 221 270 322
#     4   9  18  34  55  81 113 150 191 230 273 335
#     4  11  21  35  57  81 107 137 177 222 270 325
#
# _framework density 20.169927000000001
#
# number of rings (size 3 to 8) (size 9 to 14) (size 15 to 20)
#    0.000    2.250    0.000    5.250    0.000    2.500 
#    2.250    0.625    0.000    0.750    0.000    0.000 
#    0.000    0.000    0.000    0.000    0.000    0.000 
#
# Total GULP energy -396420.743318 kJ/mol
# GULP energy per Si atom -12388.148229 kJ/mol
# Density = 2.012402 g / cm^3
# Si number density = 20.169927 Si / 1000 Ang^3
#
#
#
# Elastic Constant Matrix: (Units=GPa)
#
#
# Indices 1 2 3 4 5 6 
#
# 1 87.0911 35.1626 66.1541 0.0000 0.0000 0.0000
# 2 35.1626 134.7256 67.7697 0.0000 0.0000 0.0000
# 3 66.1541 67.7697 192.1264 0.0000 0.0000 0.0000
# 4 0.0000 0.0000 0.0000 28.1474 0.0000 0.0000
# 5 0.0000 0.0000 0.0000 0.0000 -72.3242 0.0000
# 6 0.0000 0.0000 0.0000 0.0000 0.0000 14.6416
#
#
#
# Elastic Compliance Matrix: (Units=1/GPa)
#
#
# Indices 1 2 3 4 5 6 
#
# 1 0.015860 -0.001693 -0.004864 0.000000 0.000000 0.000000
# 2 -0.001693 0.009204 -0.002664 0.000000 0.000000 0.000000
# 3 -0.004864 -0.002664 0.007819 0.000000 0.000000 0.000000
# 4 0.000000 0.000000 0.000000 0.035527 0.000000 0.000000
# 5 0.000000 0.000000 0.000000 0.000000 -0.013827 0.000000
# 6 0.000000 0.000000 0.000000 0.000000 0.000000 0.068298
#
#
# Mechanical properties :
#
#
# Convention : Reuss Voigt Hill
#
# Bulk Modulus (GPa) = 69.23883 83.56844 76.40364
# Shear Modulus (GPa) = 34.21414 10.41674 22.31544
#
# Velocity S-wave (km/s) = 4.12308 2.27502 3.32983
# Velocity P-wave (km/s) = 7.55438 6.95867 7.26263
#
# Compressibility (1/GPa) = 0.01444276
#
# Stress axis : x y z
#
# Youngs Moduli (GPa) = 63.05018 108.64557 127.88807
#
# Poissons Ratio (x) = 0.18391 0.62205
# Poissons Ratio (y) = 0.10673 0.34067
# Poissons Ratio (z) = 0.30668 0.28941
#
# Static dielectric constant tensor:
#      x y z
#    x 3.420780 0.000000 0.000000 
#    y 0.000000 3.688260 0.000000 
#    z 0.000000 0.000000 7.810690 
# 
# 
# High freq. dielectric constant tensor:
#      x y z
#    x 1.754580 0.000000 0.000000 
#    y 0.000000 1.782440 0.000000 
#    z 0.000000 0.000000 1.809390 
# 
# From -- ./inp_files/58803.got.cif
#   From: 2010.03.12/outbox.cif.g09.slc.cpg/sg65_30_cif.got.tgz:58803.got - 2010.04.10 20:52:16.
