data_PCOD8274586
_publ_section_title
;
Structure prediction by ZEFSAII (Michael W. Deem and Ramdas Pophale) SiO2 
 PCOD8274586
Probable space group: C M M M
;
_chemical_formula_sum "Si O2"
_cell_formula_units_Z 88
_cell_length_a 16.059536
_cell_length_b 11.759486
_cell_length_c 23.722441
_cell_angle_alpha 90.000000
_cell_angle_beta 90.000000
_cell_angle_gamma 90.000000
_cell_volume 4480.027789
_symmetry_space_group_name_H-M "C M M M"
_symmetry_group_IT_number 65
_symmetry_cell_setting 'orthorhombic'
loop_
_space_group_symop_operation_xyz
x,y,z
-x,-y,z
x,-y,-z
-x,y,-z
-x,-y,-z
x,y,-z
-x,y,z
x,-y,z
1/2+x,1/2+y,z
1/2-x,1/2-y,z
1/2+x,1/2-y,-z
1/2-x,1/2+y,-z
1/2-x,1/2-y,-z
1/2+x,1/2+y,-z
1/2-x,1/2+y,z
1/2+x,1/2-y,z
loop_
_atom_site_type_symbol
_atom_site_label
_atom_site_fract_x
_atom_site_fract_y
_atom_site_fract_z
Si Si1 0.095920 0.630375 0.729344
Si Si2 0.345364 0.743835 0.623287
Si Si3 0.654572 0.271278 0.172374
Si Si4 0.401587 0.628206 0.062810
Si Si5 0.500000 0.130708 0.433472
Si Si6 0.902908 0.000000 0.773884
Si Si7 0.596938 0.500000 0.644076
O O1 0.126294 0.500000 0.725752
O O2 0.150183 0.709461 0.687644
O O3 0.104643 0.673638 0.793789
O O4 0.000000 0.641566 0.710482
O O5 0.250000 0.750000 0.601116
O O6 0.413703 0.813478 0.587713
O O7 0.365534 0.611669 0.616203
O O8 0.750000 0.250000 0.180235
O O9 0.631790 0.276456 0.106157
O O10 0.636224 0.391555 0.198563
O O11 0.500000 0.629463 0.065199
O O12 0.370424 0.500000 0.078070
O O13 0.370569 0.661116 0.000000
O O14 0.500000 0.140675 0.500000
O O15 0.500000 0.000000 0.412871
O O16 0.880082 0.000000 0.709076
O O17 0.000000 0.000000 0.785857
O O18 0.500000 0.500000 0.633172
#
# Coordination Sequence:
#
# PCOD8274586 Si02
#       7
#    16  16  16  16   8   8   8
#     4  11  23  39  60  90 129 172 214 257 311 384
#     4  12  25  41  69 102 135 171 218 274 326 386
#     4  12  24  34  57  87 125 158 200 259 320 370
#     4   9  18  35  60  84 108 149 206 259 308 373
#     4  11  26  51  75  95 133 186 228 261 312 386
#     4  11  22  38  59  84 123 164 208 246 304 385
#     4  11  22  40  64 100 134 173 211 266 341 381
#
# _framework density 19.642734000000001
#
# number of rings (size 3 to 8) (size 9 to 14) (size 15 to 20)
#    0.000    1.000    4.545    3.273    3.818    0.727 
#    0.000    0.909    0.000    0.545    0.000    2.545 
#    0.000    0.000    0.000    0.000    0.000    0.000 
#
# Total GULP energy -545525.295459 kJ/mol
# GULP energy per Si atom -12398.302170 kJ/mol
# Density = 1.959803 g / cm^3
# Si number density = 19.642734 Si / 1000 Ang^3
#
#
#
# Elastic Constant Matrix: (Units=GPa)
#
#
# Indices 1 2 3 4 5 6 
#
# 1 146.6287 67.6984 35.0969 0.0000 0.0000 0.0000
# 2 67.6984 152.6266 42.9643 0.0000 0.0000 0.0000
# 3 35.0969 42.9643 83.9612 0.0000 0.0000 0.0000
# 4 0.0000 0.0000 0.0000 33.2759 0.0000 0.0000
# 5 0.0000 0.0000 0.0000 0.0000 20.0765 0.0000
# 6 0.0000 0.0000 0.0000 0.0000 0.0000 31.3696
#
#
#
# Elastic Compliance Matrix: (Units=1/GPa)
#
#
# Indices 1 2 3 4 5 6 
#
# 1 0.008848 -0.003369 -0.001975 0.000000 0.000000 0.000000
# 2 -0.003369 0.008937 -0.003165 0.000000 0.000000 0.000000
# 3 -0.001975 -0.003165 0.014355 0.000000 0.000000 0.000000
# 4 0.000000 0.000000 0.000000 0.030052 0.000000 0.000000
# 5 0.000000 0.000000 0.000000 0.000000 0.049810 0.000000
# 6 0.000000 0.000000 0.000000 0.000000 0.000000 0.031878
#
#
# Mechanical properties :
#
#
# Convention : Reuss Voigt Hill
#
# Bulk Modulus (GPa) = 66.12291 74.97064 70.54677
# Shear Modulus (GPa) = 30.13176 32.77486 31.45331
#
# Velocity S-wave (km/s) = 3.92087 4.08922 4.00593
# Velocity P-wave (km/s) = 7.36434 7.78110 7.57559
#
# Compressibility (1/GPa) = 0.01512335
#
# Stress axis : x y z
#
# Youngs Moduli (GPa) = 113.02079 111.89302 69.66032
#
# Poissons Ratio (x) = 0.37693 0.13756
# Poissons Ratio (y) = 0.38073 0.22048
# Poissons Ratio (z) = 0.22319 0.35415
#
# Static dielectric constant tensor:
#      x y z
#    x 3.533820 0.000000 0.000000 
#    y 0.000000 3.677470 0.000000 
#    z 0.000000 0.000000 3.847640 
# 
# 
# High freq. dielectric constant tensor:
#      x y z
#    x 1.764090 0.000000 0.000000 
#    y 0.000000 1.767280 0.000000 
#    z 0.000000 0.000000 1.759330 
# 
# From -- ./inp_files/68938.got.cif
#   From: 2010.03.12/outbox.cif.g09.slc.cpg/sg65_35_cif.got.tgz:68938.got - 2010.04.10 20:52:16.
