data_PCOD8274694
_publ_section_title
;
Structure prediction by ZEFSAII (Michael W. Deem and Ramdas Pophale) SiO2 
 PCOD8274694
Probable space group: C M M M
;
_chemical_formula_sum "Si O2"
_cell_formula_units_Z 64
_cell_length_a 11.100014
_cell_length_b 34.896579
_cell_length_c 8.842703
_cell_angle_alpha 90.000000
_cell_angle_beta 90.000000
_cell_angle_gamma 90.000000
_cell_volume 3425.243250
_symmetry_space_group_name_H-M "C M M M"
_symmetry_group_IT_number 65
_symmetry_cell_setting 'orthorhombic'
loop_
_space_group_symop_operation_xyz
x,y,z
-x,-y,z
x,-y,-z
-x,y,-z
-x,-y,-z
x,y,-z
-x,y,z
x,-y,z
1/2+x,1/2+y,z
1/2-x,1/2-y,z
1/2+x,1/2-y,-z
1/2-x,1/2+y,-z
1/2-x,1/2-y,-z
1/2+x,1/2+y,-z
1/2-x,1/2+y,z
1/2+x,1/2-y,z
loop_
_atom_site_type_symbol
_atom_site_label
_atom_site_fract_x
_atom_site_fract_y
_atom_site_fract_z
Si Si1 0.864910 0.273677 0.320521
Si Si2 0.000000 0.955799 0.678339
Si Si3 0.740035 0.429901 0.822530
Si Si4 0.639783 0.000000 0.666948
Si Si5 0.861001 0.360985 0.328784
O O1 0.866217 0.269936 0.500000
O O2 0.750000 0.250000 0.253222
O O3 0.843094 0.317531 0.272830
O O4 0.000000 0.260456 0.262157
O O5 0.887837 0.933730 0.745300
O O6 0.000000 0.952306 0.500000
O O7 0.000000 0.000000 0.731252
O O8 0.827623 0.462222 0.758348
O O9 0.789136 0.387878 0.785341
O O10 0.728184 0.435260 0.000000
O O11 0.500000 0.000000 0.640600
O O12 0.703692 0.000000 0.500000
O O13 0.812231 0.366187 0.500000
O O14 0.000000 0.372675 0.323217
#
# Coordination Sequence:
#
# PCOD8274694 Si02
#       5
#    16   8  16   8  16
#     4   8  14  27  49  77 109 142 182 234 283 325
#     4  11  23  41  63  79 102 144 188 224 270 334
#     4  12  24  37  56  81 111 142 179 228 277 327
#     4  11  23  38  57  80 107 141 183 229 272 323
#     4   9  18  34  55  79 111 149 185 227 276 326
#
# _framework density 18.684805000000001
#
# number of rings (size 3 to 8) (size 9 to 14) (size 15 to 20)
#    0.000    2.000    1.250    5.250    0.000    5.000 
#    2.250    0.000    0.000    0.750    0.000    0.000 
#    0.000    0.000    0.000    0.000    0.000    0.000 
#
# Total GULP energy -396704.267248 kJ/mol
# GULP energy per Si atom -12397.008352 kJ/mol
# Density = 1.864228 g / cm^3
# Si number density = 18.684805 Si / 1000 Ang^3
#
#
#
# Elastic Constant Matrix: (Units=GPa)
#
#
# Indices 1 2 3 4 5 6 
#
# 1 126.4943 68.8968 32.1139 0.0000 0.0000 0.0000
# 2 68.8968 108.3642 29.1792 0.0000 0.0000 0.0000
# 3 32.1139 29.1792 70.0366 0.0000 0.0000 0.0000
# 4 0.0000 0.0000 0.0000 3.3592 0.0000 0.0000
# 5 0.0000 0.0000 0.0000 0.0000 0.7642 0.0000
# 6 0.0000 0.0000 0.0000 0.0000 0.0000 35.4469
#
#
#
# Elastic Compliance Matrix: (Units=1/GPa)
#
#
# Indices 1 2 3 4 5 6 
#
# 1 0.012542 -0.007237 -0.002736 0.000000 0.000000 0.000000
# 2 -0.007237 0.014571 -0.002752 0.000000 0.000000 0.000000
# 3 -0.002736 -0.002752 0.016679 0.000000 0.000000 0.000000
# 4 0.000000 0.000000 0.000000 0.297690 0.000000 0.000000
# 5 0.000000 0.000000 0.000000 0.000000 1.308611 0.000000
# 6 0.000000 0.000000 0.000000 0.000000 0.000000 0.028211
#
#
# Mechanical properties :
#
#
# Convention : Reuss Voigt Hill
#
# Bulk Modulus (GPa) = 54.52017 62.80833 58.66425
# Shear Modulus (GPa) = 2.92420 19.56106 11.24263
#
# Velocity S-wave (km/s) = 1.25236 3.23909 2.45562
# Velocity P-wave (km/s) = 5.59763 6.90482 6.28530
#
# Compressibility (1/GPa) = 0.01834184
#
# Stress axis : x y z
#
# Youngs Moduli (GPa) = 79.73244 68.63113 59.95519
#
# Poissons Ratio (x) = 0.49671 0.16401
# Poissons Ratio (y) = 0.57706 0.16499
# Poissons Ratio (z) = 0.21811 0.18887
#
# Static dielectric constant tensor:
#      x y z
#    x 3.657110 0.000000 0.000000 
#    y 0.000000 3.489620 0.000000 
#    z 0.000000 0.000000 3.208380 
# 
# 
# High freq. dielectric constant tensor:
#      x y z
#    x 1.734620 0.000000 0.000000 
#    y 0.000000 1.722660 0.000000 
#    z 0.000000 0.000000 1.700420 
# 
# From -- ./inp_files/4915.got.cif
#   From: 2010.03.12/outbox.cif.g09.slc.cpg/sg65_3_cif.got.tgz:4915.got - 2010.04.10 20:52:16.
