data_PCOD8274991
_publ_section_title
;
Structure prediction by ZEFSAII (Michael W. Deem and Ramdas Pophale) SiO2 
 PCOD8274991
Probable space group: C M M M
;
_chemical_formula_sum "Si O2"
_cell_formula_units_Z 88
_cell_length_a 30.600496
_cell_length_b 9.198125
_cell_length_c 23.201662
_cell_angle_alpha 90.000000
_cell_angle_beta 90.000000
_cell_angle_gamma 90.000000
_cell_volume 6530.506543
_symmetry_space_group_name_H-M "C M M M"
_symmetry_group_IT_number 65
_symmetry_cell_setting 'orthorhombic'
loop_
_space_group_symop_operation_xyz
x,y,z
-x,-y,z
x,-y,-z
-x,y,-z
-x,-y,-z
x,y,-z
-x,y,z
x,-y,z
1/2+x,1/2+y,z
1/2-x,1/2-y,z
1/2+x,1/2-y,-z
1/2-x,1/2+y,-z
1/2-x,1/2-y,-z
1/2+x,1/2+y,-z
1/2-x,1/2+y,z
1/2+x,1/2-y,z
loop_
_atom_site_type_symbol
_atom_site_label
_atom_site_fract_x
_atom_site_fract_y
_atom_site_fract_z
Si Si1 0.709849 0.660201 0.431605
Si Si2 0.885858 0.173349 0.563992
Si Si3 0.552065 0.835113 0.000000
Si Si4 0.051966 0.664294 0.222889
Si Si5 0.449500 0.329732 0.663545
Si Si6 0.447885 0.664879 0.111852
O O1 0.714559 0.651630 0.500000
O O2 0.713096 0.500000 0.404457
O O3 0.750000 0.750000 0.404357
O O4 0.662359 0.730227 0.416878
O O5 0.897936 0.232269 0.500000
O O6 0.922146 0.228051 0.608878
O O7 0.884173 0.000000 0.562016
O O8 0.569727 0.750768 0.056091
O O9 0.500000 0.837168 0.000000
O O10 0.570136 0.000000 0.000000
O O11 0.070326 0.500000 0.221458
O O12 0.067786 0.743672 0.280841
O O13 0.070424 0.753085 0.168270
O O14 0.000000 0.663175 0.220457
O O15 0.500000 0.295666 0.650531
O O16 0.442135 0.500000 0.674988
O O17 0.500000 0.663486 0.112223
O O18 0.429935 0.500000 0.110890
#
# Coordination Sequence:
#
# PCOD8274991 Si02
#       6
#    16  16   8  16  16  16
#     4   8  13  22  36  52  69  87 105 127 159 200
#     4   8  14  24  37  53  71  88 107 136 174 210
#     4   9  15  21  29  43  63  83 101 125 164 209
#     4   9  16  25  35  45  59  81 108 138 172 205
#     4   9  16  25  37  51  65  84 113 145 173 204
#     4   9  15  22  32  45  60  78 103 135 168 201
#
# _framework density 13.475218
#
# number of rings (size 3 to 8) (size 9 to 14) (size 15 to 20)
#    0.000    3.364    0.000    2.455    0.000    5.818 
#    0.000    2.727    0.000    1.636    0.000    2.545 
#    0.000    0.000    0.000    0.000    0.000    0.000 
#
# Total GULP energy -545303.020170 kJ/mol
# GULP energy per Si atom -12393.250458 kJ/mol
# Density = 1.344455 g / cm^3
# Si number density = 13.475218 Si / 1000 Ang^3
#
#
#
# Elastic Constant Matrix: (Units=GPa)
#
#
# Indices 1 2 3 4 5 6 
#
# 1 44.5891 24.6311 39.8863 0.0000 0.0000 0.0000
# 2 24.6311 82.1490 51.9522 0.0000 0.0000 0.0000
# 3 39.8863 51.9522 113.1047 0.0000 0.0000 0.0000
# 4 0.0000 0.0000 0.0000 15.9285 0.0000 0.0000
# 5 0.0000 0.0000 0.0000 0.0000 0.7031 0.0000
# 6 0.0000 0.0000 0.0000 0.0000 0.0000 10.3710
#
#
#
# Elastic Compliance Matrix: (Units=1/GPa)
#
#
# Indices 1 2 3 4 5 6 
#
# 1 0.033512 -0.003628 -0.010151 0.000000 0.000000 0.000000
# 2 -0.003628 0.017550 -0.006782 0.000000 0.000000 0.000000
# 3 -0.010151 -0.006782 0.015536 0.000000 0.000000 0.000000
# 4 0.000000 0.000000 0.000000 0.062780 0.000000 0.000000
# 5 0.000000 0.000000 0.000000 0.000000 1.422214 0.000000
# 6 0.000000 0.000000 0.000000 0.000000 0.000000 0.096422
#
#
# Mechanical properties :
#
#
# Convention : Reuss Voigt Hill
#
# Bulk Modulus (GPa) = 39.25339 52.53134 45.89237
# Shear Modulus (GPa) = 2.94528 13.62542 8.28535
#
# Velocity S-wave (km/s) = 1.48002 3.18330 2.48232
# Velocity P-wave (km/s) = 5.66691 7.25117 6.50743
#
# Compressibility (1/GPa) = 0.02547551
#
# Stress axis : x y z
#
# Youngs Moduli (GPa) = 29.84004 56.98132 64.36562
#
# Poissons Ratio (x) = 0.20674 0.65341
# Poissons Ratio (y) = 0.10826 0.43650
# Poissons Ratio (z) = 0.30292 0.38642
#
# Static dielectric constant tensor:
#      x y z
#    x 2.389760 0.000000 0.000000 
#    y 0.000000 2.770280 0.000000 
#    z 0.000000 0.000000 2.736040 
# 
# 
# High freq. dielectric constant tensor:
#      x y z
#    x 1.451730 0.000000 0.000000 
#    y 0.000000 1.511280 0.000000 
#    z 0.000000 0.000000 1.503330 
# 
# From -- ./inp_files/72044.got.cif
#   From: 2010.03.12/outbox.cif.g09.slc.cpg/sg65_37_cif.got.tgz:72044.got - 2010.04.10 20:52:16.
