data_PCOD8274011
_publ_section_title
;
Structure prediction by ZEFSAII (Michael W. Deem and Ramdas Pophale) SiO2 
 PCOD8274011
Probable space group: C M M M
;
_chemical_formula_sum "Si O2"
_cell_formula_units_Z 80
_cell_length_a 18.307320
_cell_length_b 8.863886
_cell_length_c 25.672119
_cell_angle_alpha 90.000000
_cell_angle_beta 90.000000
_cell_angle_gamma 90.000000
_cell_volume 4165.917373
_symmetry_space_group_name_H-M "C M M M"
_symmetry_group_IT_number 65
_symmetry_cell_setting 'orthorhombic'
loop_
_space_group_symop_operation_xyz
x,y,z
-x,-y,z
x,-y,-z
-x,y,-z
-x,-y,-z
x,y,-z
-x,y,z
x,-y,z
1/2+x,1/2+y,z
1/2-x,1/2-y,z
1/2+x,1/2-y,-z
1/2-x,1/2+y,-z
1/2-x,1/2-y,-z
1/2+x,1/2+y,-z
1/2-x,1/2+y,z
1/2+x,1/2-y,z
loop_
_atom_site_type_symbol
_atom_site_label
_atom_site_fract_x
_atom_site_fract_y
_atom_site_fract_z
Si Si1 0.082900 0.324957 0.940081
Si Si2 0.585301 0.326087 0.250278
Si Si3 0.170340 0.322013 0.341684
Si Si4 0.171003 0.823290 0.556469
Si Si5 0.327217 0.675962 0.148121
O O1 0.091578 0.500000 0.926409
O O2 0.138937 0.230781 0.905900
O O3 0.000000 0.272231 0.928822
O O4 0.102887 0.294574 0.000000
O O5 0.500000 0.293727 0.247077
O O6 0.602257 0.500000 0.264029
O O7 0.619101 0.219113 0.293819
O O8 0.618719 0.280611 0.194849
O O9 0.178587 0.500000 0.345869
O O10 0.250000 0.250000 0.333471
O O11 0.131433 0.257442 0.394632
O O12 0.131430 0.797200 0.500000
O O13 0.250000 0.750000 0.553175
O O14 0.178027 0.000000 0.568321
O O15 0.314393 0.500000 0.143838
O O16 0.250000 0.750000 0.159713
#
# Coordination Sequence:
#
# PCOD8274011 Si02
#       5
#    16  16  16  16  16
#     4   9  19  37  60  85 114 148 184 223 269 320
#     4  10  22  40  59  79 106 139 177 223 274 328
#     4  11  21  33  53  80 110 143 180 222 268 318
#     4   9  16  27  46  73 105 140 177 218 266 317
#     4  11  23  38  58  84 112 144 182 225 273 321
#
# _framework density 19.203453
#
# number of rings (size 3 to 8) (size 9 to 14) (size 15 to 20)
#    0.000    2.000    0.000    6.000    0.000    6.800 
#    0.000    1.000    0.000    0.600    0.000    4.200 
#    0.000    0.000    0.000    0.000    0.000    0.000 
#
# Total GULP energy -495931.747915 kJ/mol
# GULP energy per Si atom -12398.293698 kJ/mol
# Density = 1.915975 g / cm^3
# Si number density = 19.203453 Si / 1000 Ang^3
#
#
#
# Elastic Constant Matrix: (Units=GPa)
#
#
# Indices 1 2 3 4 5 6 
#
# 1 87.4114 50.2809 52.9579 0.0000 0.0000 0.0000
# 2 50.2809 124.1146 71.3707 0.0000 0.0000 0.0000
# 3 52.9579 71.3707 131.9907 0.0000 0.0000 0.0000
# 4 0.0000 0.0000 0.0000 37.2450 0.0000 0.0000
# 5 0.0000 0.0000 0.0000 0.0000 -24.1980 0.0000
# 6 0.0000 0.0000 0.0000 0.0000 0.0000 19.6185
#
#
#
# Elastic Compliance Matrix: (Units=1/GPa)
#
#
# Indices 1 2 3 4 5 6 
#
# 1 0.016478 -0.004171 -0.004356 0.000000 0.000000 0.000000
# 2 -0.004171 0.012748 -0.005220 0.000000 0.000000 0.000000
# 3 -0.004356 -0.005220 0.012147 0.000000 0.000000 0.000000
# 4 0.000000 0.000000 0.000000 0.026849 0.000000 0.000000
# 5 0.000000 0.000000 0.000000 0.000000 -0.041326 0.000000
# 6 0.000000 0.000000 0.000000 0.000000 0.000000 0.050972
#
#
# Mechanical properties :
#
#
# Convention : Reuss Voigt Hill
#
# Bulk Modulus (GPa) = 72.04834 76.97061 74.50948
# Shear Modulus (GPa) = 45.45873 17.79359 31.62616
#
# Velocity S-wave (km/s) = 4.87068 3.04729 4.06260
# Velocity P-wave (km/s) = 8.32053 7.24913 7.80324
#
# Compressibility (1/GPa) = 0.01387957
#
# Stress axis : x y z
#
# Youngs Moduli (GPa) = 60.68514 78.44153 82.32631
#
# Poissons Ratio (x) = 0.32715 0.35865
# Poissons Ratio (y) = 0.25309 0.42974
# Poissons Ratio (z) = 0.26437 0.40947
#
# Static dielectric constant tensor:
#      x y z
#    x 3.215680 0.000000 0.000000 
#    y 0.000000 3.552260 0.000000 
#    z 0.000000 0.000000 4.100640 
# 
# 
# High freq. dielectric constant tensor:
#      x y z
#    x 1.715760 0.000000 0.000000 
#    y 0.000000 1.753720 0.000000 
#    z 0.000000 0.000000 1.769990 
# 
# From -- ./inp_files/75025.got.cif
#   From: 2010.03.12/outbox.cif.g09.slc.cpg/sg65_38_cif.got.tgz:75025.got - 2010.04.10 20:52:16.
