data_PCOD8274702
_publ_section_title
;
Structure prediction by ZEFSAII (Michael W. Deem and Ramdas Pophale) SiO2 
 PCOD8274702
Probable space group: C M M M
;
_chemical_formula_sum "Si O2"
_cell_formula_units_Z 72
_cell_length_a 16.209595
_cell_length_b 26.640810
_cell_length_c 7.787111
_cell_angle_alpha 90.000000
_cell_angle_beta 90.000000
_cell_angle_gamma 90.000000
_cell_volume 3362.760633
_symmetry_space_group_name_H-M "C M M M"
_symmetry_group_IT_number 65
_symmetry_cell_setting 'orthorhombic'
loop_
_space_group_symop_operation_xyz
x,y,z
-x,-y,z
x,-y,-z
-x,y,-z
-x,-y,-z
x,y,-z
-x,y,z
x,-y,z
1/2+x,1/2+y,z
1/2-x,1/2-y,z
1/2+x,1/2-y,-z
1/2-x,1/2+y,-z
1/2-x,1/2-y,-z
1/2+x,1/2+y,-z
1/2-x,1/2+y,z
1/2+x,1/2-y,z
loop_
_atom_site_type_symbol
_atom_site_label
_atom_site_fract_x
_atom_site_fract_y
_atom_site_fract_z
Si Si1 0.155580 0.056308 0.203303
Si Si2 0.676281 0.107122 0.806048
Si Si3 0.500000 0.383643 0.204824
Si Si4 0.170968 0.282369 0.698645
Si Si5 0.500000 0.269721 0.796496
Si Si6 0.905394 0.554570 0.500000
O O1 0.236042 0.086755 0.259164
O O2 0.078927 0.087171 0.279615
O O3 0.157223 0.000000 0.280577
O O4 0.148144 0.053333 0.000000
O O5 0.674171 0.167108 0.808643
O O6 0.610901 0.085699 0.672715
O O7 0.656722 0.088289 0.000000
O O8 0.500000 0.326696 0.272096
O O9 0.500000 0.383607 0.000000
O O10 0.180608 0.296313 0.500000
O O11 0.250000 0.250000 0.760288
O O12 0.083336 0.255549 0.727071
O O13 0.500000 0.266463 0.000000
O O14 0.859425 0.500000 0.500000
O O15 0.000000 0.543265 0.500000
#
# Coordination Sequence:
#
# PCOD8274702 Si02
#       6
#    16  16   8  16   8   8
#     4   9  17  31  56  90 126 166 208 253 307 370
#     4  11  23  41  67  95 129 168 214 266 321 385
#     4   9  17  31  54  89 129 165 208 254 304 370
#     4  11  24  42  64  93 129 172 221 271 328 392
#     4  11  23  38  61  92 128 171 215 266 326 387
#     4  11  26  46  67  93 127 165 210 270 331 389
#
# _framework density 21.410979000000001
#
# number of rings (size 3 to 8) (size 9 to 14) (size 15 to 20)
#    0.000    1.667    1.111    3.333    1.556    6.667 
#    0.000    1.111    0.000    0.000    0.000    2.333 
#    0.000    0.000    0.000    0.000    0.000    0.000 
#
# Total GULP energy -446404.033983 kJ/mol
# GULP energy per Si atom -12400.112055 kJ/mol
# Density = 2.136225 g / cm^3
# Si number density = 21.410979 Si / 1000 Ang^3
#
#
#
# Elastic Constant Matrix: (Units=GPa)
#
#
# Indices 1 2 3 4 5 6 
#
# 1 146.8519 71.3108 18.9768 0.0000 0.0000 0.0000
# 2 71.3108 175.2355 19.9744 0.0000 0.0000 0.0000
# 3 18.9768 19.9744 82.8324 0.0000 0.0000 0.0000
# 4 0.0000 0.0000 0.0000 -11.5997 0.0000 0.0000
# 5 0.0000 0.0000 0.0000 0.0000 16.3653 0.0000
# 6 0.0000 0.0000 0.0000 0.0000 0.0000 44.0646
#
#
#
# Elastic Compliance Matrix: (Units=1/GPa)
#
#
# Indices 1 2 3 4 5 6 
#
# 1 0.008593 -0.003365 -0.001157 0.000000 0.000000 0.000000
# 2 -0.003365 0.007186 -0.000962 0.000000 0.000000 0.000000
# 3 -0.001157 -0.000962 0.012570 0.000000 0.000000 0.000000
# 4 0.000000 0.000000 0.000000 -0.086209 0.000000 0.000000
# 5 0.000000 0.000000 0.000000 0.000000 0.061105 0.000000
# 6 0.000000 0.000000 0.000000 0.000000 0.000000 0.022694
#
#
# Mechanical properties :
#
#
# Convention : Reuss Voigt Hill
#
# Bulk Modulus (GPa) = 57.53662 69.49375 63.51519
# Shear Modulus (GPa) = 117.09672 29.40989 73.25331
#
# Velocity S-wave (km/s) = 7.40329 3.71022 5.85553
# Velocity P-wave (km/s) = 10.00046 7.13315 8.68594
#
# Compressibility (1/GPa) = 0.01738023
#
# Stress axis : x y z
#
# Youngs Moduli (GPa) = 116.37152 139.16703 79.55679
#
# Poissons Ratio (x) = 0.46830 0.09207
# Poissons Ratio (y) = 0.39159 0.07652
# Poissons Ratio (z) = 0.13467 0.13386
#
# Static dielectric constant tensor:
#      x y z
#    x 3.934720 0.000000 0.000000 
#    y 0.000000 4.039950 0.000000 
#    z 0.000000 0.000000 3.567640 
# 
# 
# High freq. dielectric constant tensor:
#      x y z
#    x 1.845450 0.000000 0.000000 
#    y 0.000000 1.854990 0.000000 
#    z 0.000000 0.000000 1.825570 
# 
# From -- ./inp_files/7363.got.cif
#   From: 2010.03.12/outbox.cif.g09.slc.cpg/sg65_4_cif.got.tgz:7363.got - 2010.04.10 20:52:16.
