data_PCOD8274887
_publ_section_title
;
Structure prediction by ZEFSAII (Michael W. Deem and Ramdas Pophale) SiO2 
 PCOD8274887
Probable space group: C M M M
;
_chemical_formula_sum "Si O2"
_cell_formula_units_Z 96
_cell_length_a 9.297981
_cell_length_b 19.731930
_cell_length_c 31.335944
_cell_angle_alpha 90.000000
_cell_angle_beta 90.000000
_cell_angle_gamma 90.000000
_cell_volume 5749.115092
_symmetry_space_group_name_H-M "C M M M"
_symmetry_group_IT_number 65
_symmetry_cell_setting 'orthorhombic'
loop_
_space_group_symop_operation_xyz
x,y,z
-x,-y,z
x,-y,-z
-x,y,-z
-x,-y,-z
x,y,-z
-x,y,z
x,-y,z
1/2+x,1/2+y,z
1/2-x,1/2-y,z
1/2+x,1/2-y,-z
1/2-x,1/2+y,-z
1/2-x,1/2-y,-z
1/2+x,1/2+y,-z
1/2-x,1/2+y,z
1/2+x,1/2-y,z
loop_
_atom_site_type_symbol
_atom_site_label
_atom_site_fract_x
_atom_site_fract_y
_atom_site_fract_z
Si Si1 0.832477 0.183592 0.451586
Si Si2 0.332869 0.577853 0.619331
Si Si3 0.162521 0.419349 0.298110
Si Si4 0.829156 0.575907 0.954827
Si Si5 0.662440 0.580870 0.217077
Si Si6 0.162394 0.418849 0.136567
O O1 0.788006 0.165112 0.500000
O O2 0.750000 0.250000 0.435384
O O3 0.788792 0.120280 0.422281
O O4 0.000000 0.199717 0.448123
O O5 0.500000 0.586389 0.631054
O O6 0.295615 0.500000 0.609112
O O7 0.241564 0.605758 0.659145
O O8 0.162748 0.500000 0.296623
O O9 0.247952 0.390610 0.257234
O O10 0.000000 0.391022 0.297434
O O11 0.766828 0.500000 0.956667
O O12 0.779660 0.609721 0.909727
O O13 0.000000 0.572755 0.952676
O O14 0.781529 0.612586 0.000000
O O15 0.500000 0.608439 0.219843
O O16 0.664310 0.500000 0.217315
O O17 0.734416 0.608991 0.173705
O O18 0.164508 0.500000 0.135022
O O19 0.000000 0.393816 0.146040
#
# Coordination Sequence:
#
# PCOD8274887 Si02
#       6
#    16  16  16  16  16  16
#     4   9  18  32  49  68  90 117 146 174 205 242
#     4   9  17  29  45  65  88 112 139 172 209 247
#     4   9  16  25  37  53  73  96 122 153 191 235
#     4   7   9  13  21  32  44  59  84 122 167 212
#     4   9  15  21  29  41  59  83 109 138 176 224
#     4   8  12  17  25  36  49  67  95 131 170 215
#
# _framework density 16.698222999999999
#
# number of rings (size 3 to 8) (size 9 to 14) (size 15 to 20)
#    0.000    3.500    0.000    2.500    0.000    5.000 
#    0.000    1.667    0.000    0.500    0.000    8.167 
#    0.000    0.000    0.000    0.000    0.000    0.000 
#
# Total GULP energy -594631.066249 kJ/mol
# GULP energy per Si atom -12388.147214 kJ/mol
# Density = 1.666022 g / cm^3
# Si number density = 16.698223 Si / 1000 Ang^3
#
#
#
# Elastic Constant Matrix: (Units=GPa)
#
#
# Indices 1 2 3 4 5 6 
#
# 1 87.7394 20.2356 72.6003 0.0000 0.0000 0.0000
# 2 20.2356 25.7646 38.3589 0.0000 0.0000 0.0000
# 3 72.6003 38.3589 170.9391 0.0000 0.0000 0.0000
# 4 0.0000 0.0000 0.0000 0.8841 0.0000 0.0000
# 5 0.0000 0.0000 0.0000 0.0000 24.3504 0.0000
# 6 0.0000 0.0000 0.0000 0.0000 0.0000 10.2949
#
#
#
# Elastic Compliance Matrix: (Units=1/GPa)
#
#
# Indices 1 2 3 4 5 6 
#
# 1 0.017858 -0.004105 -0.006663 0.000000 0.000000 0.000000
# 2 -0.004105 0.059230 -0.011548 0.000000 0.000000 0.000000
# 3 -0.006663 -0.011548 0.011271 0.000000 0.000000 0.000000
# 4 0.000000 0.000000 0.000000 1.131038 0.000000 0.000000
# 5 0.000000 0.000000 0.000000 0.000000 0.041067 0.000000
# 6 0.000000 0.000000 0.000000 0.000000 0.000000 0.097136
#
#
# Mechanical properties :
#
#
# Convention : Reuss Voigt Hill
#
# Bulk Modulus (GPa) = 22.86938 60.75918 41.81428
# Shear Modulus (GPa) = 3.52906 17.32242 10.42574
#
# Velocity S-wave (km/s) = 1.45534 3.22433 2.50144
# Velocity P-wave (km/s) = 4.06810 7.09418 5.78260
#
# Compressibility (1/GPa) = 0.04372660
#
# Stress axis : x y z
#
# Youngs Moduli (GPa) = 55.99830 16.88343 88.72068
#
# Poissons Ratio (x) = 0.06931 0.59117
# Poissons Ratio (y) = 0.22988 1.02452
# Poissons Ratio (z) = 0.37313 0.19496
#
# Static dielectric constant tensor:
#      x y z
#    x 3.090150 0.000000 0.000000 
#    y 0.000000 2.410440 0.000000 
#    z 0.000000 0.000000 3.652420 
# 
# 
# High freq. dielectric constant tensor:
#      x y z
#    x 1.630740 0.000000 0.000000 
#    y 0.000000 1.550200 0.000000 
#    z 0.000000 0.000000 1.670430 
# 
# From -- ./inp_files/73448.got.cif
#   From: 2010.03.12/outbox.cif.g09.slc.cpg/sg65_37_cif.got.tgz:73448.got - 2010.04.10 20:52:16.
