data_PCOD8274026
_publ_section_title
;
Structure prediction by ZEFSAII (Michael W. Deem and Ramdas Pophale) SiO2 
 PCOD8274026
Probable space group: C M M M
;
_chemical_formula_sum "Si O2"
_cell_formula_units_Z 88
_cell_length_a 9.117855
_cell_length_b 18.113005
_cell_length_c 27.851177
_cell_angle_alpha 90.000000
_cell_angle_beta 90.000000
_cell_angle_gamma 90.000000
_cell_volume 4599.670710
_symmetry_space_group_name_H-M "C M M M"
_symmetry_group_IT_number 65
_symmetry_cell_setting 'orthorhombic'
loop_
_space_group_symop_operation_xyz
x,y,z
-x,-y,z
x,-y,-z
-x,y,-z
-x,-y,-z
x,y,-z
-x,y,z
x,-y,z
1/2+x,1/2+y,z
1/2-x,1/2-y,z
1/2+x,1/2-y,-z
1/2-x,1/2+y,-z
1/2-x,1/2-y,-z
1/2+x,1/2+y,-z
1/2-x,1/2+y,z
1/2+x,1/2-y,z
loop_
_atom_site_type_symbol
_atom_site_label
_atom_site_fract_x
_atom_site_fract_y
_atom_site_fract_z
Si Si1 0.173137 0.328160 0.688550
Si Si2 0.332085 0.413953 0.770476
Si Si3 0.170467 0.825867 0.865836
Si Si4 0.331338 0.915680 0.055560
Si Si5 0.834480 0.912183 0.500000
Si Si6 0.828644 0.415213 0.406103
O O1 0.250000 0.250000 0.691702
O O2 0.223127 0.378166 0.732527
O O3 0.220872 0.367785 0.639445
O O4 0.000000 0.317187 0.691583
O O5 0.500000 0.398005 0.755322
O O6 0.297819 0.500000 0.772566
O O7 0.298179 0.381904 0.822714
O O8 0.250000 0.750000 0.853409
O O9 0.230120 0.860820 0.914680
O O10 0.000000 0.809452 0.872731
O O11 0.500000 0.903848 0.070387
O O12 0.284249 0.000000 0.065592
O O13 0.308252 0.896183 0.000000
O O14 0.754714 0.882322 0.547652
O O15 0.000000 0.882552 0.500000
O O16 0.826526 0.000000 0.500000
O O17 0.784157 0.500000 0.396141
O O18 0.000000 0.408378 0.416517
#
# Coordination Sequence:
#
# PCOD8274026 Si02
#       6
#    16  16  16  16   8  16
#     4  11  23  38  57  82 112 147 186 226 274 330
#     4  10  22  40  61  85 112 142 180 228 278 328
#     4  11  23  38  57  83 115 150 187 227 275 330
#     4   9  19  37  60  85 113 146 186 232 280 329
#     4   9  17  29  50  81 110 137 175 223 272 321
#     4   9  18  34  55  78 106 141 181 224 270 323
#
# _framework density 19.131803999999999
#
# number of rings (size 3 to 8) (size 9 to 14) (size 15 to 20)
#    0.000    2.091    0.000    3.545    0.000    8.364 
#    0.000    3.182    0.000    0.000    0.000    0.000 
#    0.000    0.000    0.000    0.000    0.000    0.000 
#
# Total GULP energy -545793.583579 kJ/mol
# GULP energy per Si atom -12404.399627 kJ/mol
# Density = 1.908826 g / cm^3
# Si number density = 19.131804 Si / 1000 Ang^3
#
#
#
# Elastic Constant Matrix: (Units=GPa)
#
#
# Indices 1 2 3 4 5 6 
#
# 1 90.7825 51.9150 62.0088 0.0000 0.0000 0.0000
# 2 51.9150 111.4698 56.7872 0.0000 0.0000 0.0000
# 3 62.0088 56.7872 116.8309 0.0000 0.0000 0.0000
# 4 0.0000 0.0000 0.0000 -4.7892 0.0000 0.0000
# 5 0.0000 0.0000 0.0000 0.0000 58.9905 0.0000
# 6 0.0000 0.0000 0.0000 0.0000 0.0000 21.0610
#
#
#
# Elastic Compliance Matrix: (Units=1/GPa)
#
#
# Indices 1 2 3 4 5 6 
#
# 1 0.019151 -0.004972 -0.007748 0.000000 0.000000 0.000000
# 2 -0.004972 0.013214 -0.003784 0.000000 0.000000 0.000000
# 3 -0.007748 -0.003784 0.014511 0.000000 0.000000 0.000000
# 4 0.000000 0.000000 0.000000 -0.208804 0.000000 0.000000
# 5 0.000000 0.000000 0.000000 0.000000 0.016952 0.000000
# 6 0.000000 0.000000 0.000000 0.000000 0.000000 0.047481
#
#
# Mechanical properties :
#
#
# Convention : Reuss Voigt Hill
#
# Bulk Modulus (GPa) = 72.10676 73.38948 72.74812
# Shear Modulus (GPa) = -83.52140 24.94396 -29.28872
#
# Velocity S-wave (km/s) = -6.61442 3.61473 -3.91691
# Velocity P-wave (km/s) = 4.53462 7.47428 4.20132
#
# Compressibility (1/GPa) = 0.01386833
#
# Stress axis : x y z
#
# Youngs Moduli (GPa) = 52.21738 75.67456 68.91435
#
# Poissons Ratio (x) = 0.37627 0.53392
# Poissons Ratio (y) = 0.25963 0.26078
# Poissons Ratio (z) = 0.40456 0.28636
#
# Static dielectric constant tensor:
#      x y z
#    x 3.514820 0.000000 0.000000 
#    y 0.000000 3.453140 0.000000 
#    z 0.000000 0.000000 3.577250 
# 
# 
# High freq. dielectric constant tensor:
#      x y z
#    x 1.746860 0.000000 0.000000 
#    y 0.000000 1.739600 0.000000 
#    z 0.000000 0.000000 1.755790 
# 
# From -- ./inp_files/67577.got.cif
#   From: 2010.03.12/outbox.cif.g09.slc.cpg/sg65_34_cif.got.tgz:67577.got - 2010.04.10 20:52:16.
