data_PCOD8274409
_publ_section_title
;
Structure prediction by ZEFSAII (Michael W. Deem and Ramdas Pophale) SiO2 
 PCOD8274409
Probable space group: C M M M
;
_chemical_formula_sum "Si O2"
_cell_formula_units_Z 72
_cell_length_a 14.565148
_cell_length_b 9.906928
_cell_length_c 26.748927
_cell_angle_alpha 90.000000
_cell_angle_beta 90.000000
_cell_angle_gamma 90.000000
_cell_volume 3859.759761
_symmetry_space_group_name_H-M "C M M M"
_symmetry_group_IT_number 65
_symmetry_cell_setting 'orthorhombic'
loop_
_space_group_symop_operation_xyz
x,y,z
-x,-y,z
x,-y,-z
-x,y,-z
-x,-y,-z
x,y,-z
-x,y,z
x,-y,z
1/2+x,1/2+y,z
1/2-x,1/2-y,z
1/2+x,1/2-y,-z
1/2-x,1/2+y,-z
1/2-x,1/2-y,-z
1/2+x,1/2+y,-z
1/2-x,1/2+y,z
1/2+x,1/2-y,z
loop_
_atom_site_type_symbol
_atom_site_label
_atom_site_fract_x
_atom_site_fract_y
_atom_site_fract_z
Si Si1 0.397702 0.500000 0.058484
Si Si2 0.848957 0.242428 0.119468
Si Si3 0.000000 0.653348 0.291183
Si Si4 0.658259 0.157760 0.370625
Si Si5 0.000000 0.840578 0.803884
Si Si6 0.000000 0.660330 0.556252
Si Si7 0.895041 0.500000 0.055227
O O1 0.500000 0.500000 0.082653
O O2 0.343798 0.629626 0.076700
O O3 0.404916 0.500000 0.000000
O O4 0.750000 0.250000 0.144902
O O5 0.912477 0.205133 0.165208
O O6 0.874645 0.374764 0.090004
O O7 0.906523 0.676139 0.322315
O O8 0.000000 0.500000 0.269983
O O9 0.000000 0.762930 0.247960
O O10 0.750000 0.250000 0.367133
O O11 0.594475 0.207915 0.416967
O O12 0.687318 0.000000 0.376279
O O13 0.000000 0.000000 0.793495
O O14 0.000000 0.500000 0.558194
O O15 0.000000 0.717804 0.500000
O O16 0.000000 0.500000 0.041362
O O17 0.843979 0.500000 0.000000
#
# Coordination Sequence:
#
# PCOD8274409 Si02
#       7
#     8  16   8  16   8   8   8
#     4  11  21  41  65  82 113 151 178 217 271 328
#     4  12  24  40  60  85 114 144 180 222 273 334
#     4   9  22  41  62  80 108 149 189 238 294 349
#     4   9  18  35  58  87 118 153 203 248 290 343
#     4  12  25  45  60  83 113 143 184 233 289 346
#     4   8  15  30  53  83 125 174 209 240 287 342
#     4  11  23  39  61  88 115 145 182 221 263 322
#
# _framework density 18.65401
#
# number of rings (size 3 to 8) (size 9 to 14) (size 15 to 20)
#    0.000    1.667    3.333    2.667    1.556    6.667 
#    0.000    3.889    0.000    0.667    0.000    0.000 
#    0.000    0.000    0.000    0.000    0.000    0.000 
#
# Total GULP energy -446148.892222 kJ/mol
# GULP energy per Si atom -12393.024784 kJ/mol
# Density = 1.861155 g / cm^3
# Si number density = 18.654010 Si / 1000 Ang^3
#
#
#
# Elastic Constant Matrix: (Units=GPa)
#
#
# Indices 1 2 3 4 5 6 
#
# 1 152.9415 57.2806 53.4976 0.0000 0.0000 0.0000
# 2 57.2806 145.5253 69.6232 0.0000 0.0000 0.0000
# 3 53.4976 69.6232 128.7625 0.0000 0.0000 0.0000
# 4 0.0000 0.0000 0.0000 26.1803 0.0000 0.0000
# 5 0.0000 0.0000 0.0000 0.0000 578.0663 0.0000
# 6 0.0000 0.0000 0.0000 0.0000 0.0000 33.1628
#
#
#
# Elastic Compliance Matrix: (Units=1/GPa)
#
#
# Indices 1 2 3 4 5 6 
#
# 1 0.008113 -0.002132 -0.002218 0.000000 0.000000 0.000000
# 2 -0.002132 0.009830 -0.004429 0.000000 0.000000 0.000000
# 3 -0.002218 -0.004429 0.011083 0.000000 0.000000 0.000000
# 4 0.000000 0.000000 0.000000 0.038197 0.000000 0.000000
# 5 0.000000 0.000000 0.000000 0.000000 0.001730 0.000000
# 6 0.000000 0.000000 0.000000 0.000000 0.000000 0.030154
#
#
# Mechanical properties :
#
#
# Convention : Reuss Voigt Hill
#
# Bulk Modulus (GPa) = 87.20788 87.55911 87.38349
# Shear Modulus (GPa) = 41.49822 143.93708 92.71765
#
# Velocity S-wave (km/s) = 4.72171 8.79369 7.05775
# Velocity P-wave (km/s) = 8.75087 12.25340 10.64715
#
# Compressibility (1/GPa) = 0.01146685
#
# Stress axis : x y z
#
# Youngs Moduli (GPa) = 123.26239 101.72892 90.23143
#
# Poissons Ratio (x) = 0.21691 0.20011
# Poissons Ratio (y) = 0.26283 0.39966
# Poissons Ratio (z) = 0.27336 0.45059
#
# Static dielectric constant tensor:
#      x y z
#    x 3.736530 0.000000 0.000000 
#    y 0.000000 3.493540 0.000000 
#    z 0.000000 0.000000 3.400110 
# 
# 
# High freq. dielectric constant tensor:
#      x y z
#    x 1.736110 0.000000 0.000000 
#    y 0.000000 1.722660 0.000000 
#    z 0.000000 0.000000 1.717270 
# 
# From -- ./inp_files/74711.got.cif
#   From: 2010.03.12/outbox.cif.g09.slc.cpg/sg65_38_cif.got.tgz:74711.got - 2010.04.10 20:52:16.
