data_PCOD8274724
_publ_section_title
;
Structure prediction by ZEFSAII (Michael W. Deem and Ramdas Pophale) SiO2 
 PCOD8274724
Probable space group: C M M M
;
_chemical_formula_sum "Si O2"
_cell_formula_units_Z 72
_cell_length_a 24.338605
_cell_length_b 16.670172
_cell_length_c 8.824953
_cell_angle_alpha 90.000000
_cell_angle_beta 90.000000
_cell_angle_gamma 90.000000
_cell_volume 3580.536987
_symmetry_space_group_name_H-M "C M M M"
_symmetry_group_IT_number 65
_symmetry_cell_setting 'orthorhombic'
loop_
_space_group_symop_operation_xyz
x,y,z
-x,-y,z
x,-y,-z
-x,y,-z
-x,-y,-z
x,y,-z
-x,y,z
x,-y,z
1/2+x,1/2+y,z
1/2-x,1/2-y,z
1/2+x,1/2-y,-z
1/2-x,1/2+y,-z
1/2-x,1/2-y,-z
1/2+x,1/2+y,-z
1/2-x,1/2+y,z
1/2+x,1/2-y,z
loop_
_atom_site_type_symbol
_atom_site_label
_atom_site_fract_x
_atom_site_fract_y
_atom_site_fract_z
Si Si1 0.437485 0.407154 0.328716
Si Si2 0.563763 0.000000 0.678853
Si Si3 0.347459 0.691301 0.823966
Si Si4 0.245209 0.089105 0.326678
Si Si5 0.857635 0.625571 0.821547
O O1 0.415944 0.392236 0.500000
O O2 0.500000 0.377918 0.314379
O O3 0.432776 0.500000 0.286927
O O4 0.402254 0.358139 0.208955
O O5 0.591723 0.919820 0.743889
O O6 0.500000 0.000000 0.726427
O O7 0.571288 0.000000 0.500000
O O8 0.296241 0.656000 0.732961
O O9 0.358545 0.781806 0.771452
O O10 0.332614 0.686445 0.000000
O O11 0.259719 0.109157 0.500000
O O12 0.300500 0.087556 0.229965
O O13 0.218410 0.000000 0.312912
O O14 0.863813 0.615065 0.000000
#
# Coordination Sequence:
#
# PCOD8274724 Si02
#       5
#    16   8  16  16  16
#     4   9  19  37  59  83 115 156 201 248 299 356
#     4  11  25  45  69  95 121 157 208 259 310 371
#     4  11  24  38  57  90 125 159 202 248 302 368
#     4  11  23  39  62  91 123 160 204 251 302 362
#     4  11  24  42  63  88 122 160 199 250 308 365
#
# _framework density 20.108715
#
# number of rings (size 3 to 8) (size 9 to 14) (size 15 to 20)
#    0.000    1.444    1.111    4.333    0.000   12.889 
#    0.000    5.556    0.000    0.000    0.000    0.000 
#    0.000    0.000    0.000    0.000    0.000    0.000 
#
# Total GULP energy -446569.393171 kJ/mol
# GULP energy per Si atom -12404.705366 kJ/mol
# Density = 2.006295 g / cm^3
# Si number density = 20.108715 Si / 1000 Ang^3
#
#
#
# Elastic Constant Matrix: (Units=GPa)
#
#
# Indices 1 2 3 4 5 6 
#
# 1 127.4653 67.4414 47.0424 0.0000 0.0000 0.0000
# 2 67.4414 126.8085 55.7617 0.0000 0.0000 0.0000
# 3 47.0424 55.7617 78.7794 0.0000 0.0000 0.0000
# 4 0.0000 0.0000 0.0000 16.3569 0.0000 0.0000
# 5 0.0000 0.0000 0.0000 0.0000 22.5002 0.0000
# 6 0.0000 0.0000 0.0000 0.0000 0.0000 5.5325
#
#
#
# Elastic Compliance Matrix: (Units=1/GPa)
#
#
# Indices 1 2 3 4 5 6 
#
# 1 0.011624 -0.004544 -0.003725 0.000000 0.000000 0.000000
# 2 -0.004544 0.013226 -0.006648 0.000000 0.000000 0.000000
# 3 -0.003725 -0.006648 0.019624 0.000000 0.000000 0.000000
# 4 0.000000 0.000000 0.000000 0.061136 0.000000 0.000000
# 5 0.000000 0.000000 0.000000 0.000000 0.044444 0.000000
# 6 0.000000 0.000000 0.000000 0.000000 0.000000 0.180749
#
#
# Mechanical properties :
#
#
# Convention : Reuss Voigt Hill
#
# Bulk Modulus (GPa) = 68.30812 74.83825 71.57319
# Shear Modulus (GPa) = 13.67922 19.73176 16.70549
#
# Velocity S-wave (km/s) = 2.61102 3.13590 2.88542
# Velocity P-wave (km/s) = 6.56757 7.09996 6.83895
#
# Compressibility (1/GPa) = 0.01463955
#
# Stress axis : x y z
#
# Youngs Moduli (GPa) = 86.02637 75.60778 50.95905
#
# Poissons Ratio (x) = 0.34359 0.18981
# Poissons Ratio (y) = 0.39093 0.33878
# Poissons Ratio (z) = 0.32043 0.50265
#
# Static dielectric constant tensor:
#      x y z
#    x 3.649330 0.000000 0.000000 
#    y 0.000000 3.810020 0.000000 
#    z 0.000000 0.000000 3.665810 
# 
# 
# High freq. dielectric constant tensor:
#      x y z
#    x 1.786880 0.000000 0.000000 
#    y 0.000000 1.795300 0.000000 
#    z 0.000000 0.000000 1.791310 
# 
# From -- ./inp_files/13606.got.cif
#   From: 2010.03.12/outbox.cif.g09.slc.cpg/sg65_7_cif.got.tgz:13606.got - 2010.04.10 20:52:16.
