data_PCOD8274783
_publ_section_title
;
Structure prediction by ZEFSAII (Michael W. Deem and Ramdas Pophale) SiO2 
 PCOD8274783
Probable space group: C M M M
;
_chemical_formula_sum "Si O2"
_cell_formula_units_Z 48
_cell_length_a 5.263964
_cell_length_b 25.165771
_cell_length_c 20.554629
_cell_angle_alpha 90.000000
_cell_angle_beta 90.000000
_cell_angle_gamma 90.000000
_cell_volume 2722.906905
_symmetry_space_group_name_H-M "C M M M"
_symmetry_group_IT_number 65
_symmetry_cell_setting 'orthorhombic'
loop_
_space_group_symop_operation_xyz
x,y,z
-x,-y,z
x,-y,-z
-x,y,-z
-x,-y,-z
x,y,-z
-x,y,z
x,-y,z
1/2+x,1/2+y,z
1/2-x,1/2-y,z
1/2+x,1/2-y,-z
1/2-x,1/2+y,-z
1/2-x,1/2-y,-z
1/2+x,1/2+y,-z
1/2-x,1/2+y,z
1/2+x,1/2-y,z
loop_
_atom_site_type_symbol
_atom_site_label
_atom_site_fract_x
_atom_site_fract_y
_atom_site_fract_z
Si Si1 0.000000 0.605141 0.136611
Si Si2 0.000000 0.798575 0.000000
Si Si3 0.000000 0.063029 0.794129
Si Si4 0.500000 0.230715 0.132853
Si Si5 0.500000 0.128641 0.000000
Si Si6 0.500000 0.436825 0.645809
Si Si7 0.500000 0.063372 0.573706
O O1 0.248666 0.585058 0.172641
O O2 0.000000 0.668173 0.128414
O O3 0.000000 0.587586 0.061191
O O4 0.000000 0.760397 0.062720
O O5 0.752465 0.835306 0.000000
O O6 0.000000 0.082902 0.719913
O O7 0.000000 0.000000 0.798913
O O8 0.250000 0.250000 0.171818
O O9 0.500000 0.500000 0.642881
O O10 0.750337 0.414411 0.610004
O O11 0.500000 0.084655 0.500000
O O12 0.500000 0.000000 0.574734
#
# Coordination Sequence:
#
# PCOD8274783 Si02
#       7
#     8   4   8   8   4   8   8
#     4  12  23  37  55  78  96 129 172 221 271 305
#     4  12  19  36  54  81 106 123 134 198 266 363
#     4  11  24  41  54  67  96 143 197 223 232 280
#     4  12  20  33  53  83 108 119 144 195 267 341
#     4  12  23  36  57  79 102 121 159 216 276 335
#     4   9  17  30  47  64  90 132 171 207 240 276
#     4   9  15  24  43  73  99 117 151 205 258 296
#
# _framework density 17.628219000000001
#
# number of rings (size 3 to 8) (size 9 to 14) (size 15 to 20)
#    0.000    1.167    3.333    5.000    0.000    4.667 
#    0.000    2.500    0.000    0.000    0.000    0.000 
#    0.000    0.000    0.000    0.000    0.000  210.000 
#
# Total GULP energy -297442.862517 kJ/mol
# GULP energy per Si atom -12393.452605 kJ/mol
# Density = 1.758810 g / cm^3
# Si number density = 17.628219 Si / 1000 Ang^3
#
#
#
# Elastic Constant Matrix: (Units=GPa)
#
#
# Indices 1 2 3 4 5 6 
#
# 1 213.5145 34.9898 90.7162 0.0000 0.0000 0.0000
# 2 34.9898 40.4792 36.6788 0.0000 0.0000 0.0000
# 3 90.7162 36.6788 158.6235 0.0000 0.0000 0.0000
# 4 0.0000 0.0000 0.0000 -2.2902 0.0000 0.0000
# 5 0.0000 0.0000 0.0000 0.0000 3.1480 0.0000
# 6 0.0000 0.0000 0.0000 0.0000 0.0000 27.7755
#
#
#
# Elastic Compliance Matrix: (Units=1/GPa)
#
#
# Indices 1 2 3 4 5 6 
#
# 1 0.006431 -0.002816 -0.003027 0.000000 0.000000 0.000000
# 2 -0.002816 0.032485 -0.005901 0.000000 0.000000 0.000000
# 3 -0.003027 -0.005901 0.009400 0.000000 0.000000 0.000000
# 4 0.000000 0.000000 0.000000 -0.436649 0.000000 0.000000
# 5 0.000000 0.000000 0.000000 0.000000 0.317666 0.000000
# 6 0.000000 0.000000 0.000000 0.000000 0.000000 0.036003
#
#
# Mechanical properties :
#
#
# Convention : Reuss Voigt Hill
#
# Bulk Modulus (GPa) = 40.27695 81.93186 61.10441
# Shear Modulus (GPa) = -1724.23572 22.40881 -850.91346
#
# Velocity S-wave (km/s) = -31.30870 3.56924 -21.99426
# Velocity P-wave (km/s) = 35.83409 7.97274 24.70341
#
# Compressibility (1/GPa) = 0.02482810
#
# Stress axis : x y z
#
# Youngs Moduli (GPa) = 155.49713 30.78298 106.38713
#
# Poissons Ratio (x) = 0.08670 0.32199
# Poissons Ratio (y) = 0.43795 0.62779
# Poissons Ratio (z) = 0.47063 0.18165
#
# Static dielectric constant tensor:
#      x y z
#    x 4.385040 0.000000 0.000000 
#    y 0.000000 2.937960 0.000000 
#    z 0.000000 0.000000 3.442120 
# 
# 
# High freq. dielectric constant tensor:
#      x y z
#    x 1.723560 0.000000 0.000000 
#    y 0.000000 1.625950 0.000000 
#    z 0.000000 0.000000 1.666710 
# 
# From -- ./inp_files/58355.got.cif
#   From: 2010.03.12/outbox.cif.g09.slc.cpg/sg65_30_cif.got.tgz:58355.got - 2010.04.10 20:52:16.
