data_PCOD8274700
_publ_section_title
;
Structure prediction by ZEFSAII (Michael W. Deem and Ramdas Pophale) SiO2 
 PCOD8274700
Probable space group: C M M M
;
_chemical_formula_sum "Si O2"
_cell_formula_units_Z 72
_cell_length_a 28.293580
_cell_length_b 13.849147
_cell_length_c 9.163192
_cell_angle_alpha 90.000000
_cell_angle_beta 90.000000
_cell_angle_gamma 90.000000
_cell_volume 3590.523008
_symmetry_space_group_name_H-M "C M M M"
_symmetry_group_IT_number 65
_symmetry_cell_setting 'orthorhombic'
loop_
_space_group_symop_operation_xyz
x,y,z
-x,-y,z
x,-y,-z
-x,y,-z
-x,-y,-z
x,y,-z
-x,y,z
x,-y,z
1/2+x,1/2+y,z
1/2-x,1/2-y,z
1/2+x,1/2-y,-z
1/2-x,1/2+y,-z
1/2-x,1/2-y,-z
1/2+x,1/2+y,-z
1/2-x,1/2+y,z
1/2+x,1/2-y,z
loop_
_atom_site_type_symbol
_atom_site_label
_atom_site_fract_x
_atom_site_fract_y
_atom_site_fract_z
Si Si1 0.817913 0.389161 0.830195
Si Si2 0.500000 0.885773 0.669438
Si Si3 0.876672 0.110946 0.672358
Si Si4 0.413896 0.215148 0.173015
Si Si5 0.228417 0.885524 0.661773
O O1 0.824576 0.500000 0.782531
O O2 0.864694 0.333745 0.781471
O O3 0.771693 0.341232 0.754868
O O4 0.808857 0.379853 0.000000
O O5 0.500000 0.854849 0.500000
O O6 0.454400 0.844811 0.749489
O O7 0.500000 0.000000 0.687132
O O8 0.881962 0.129647 0.500000
O O9 0.913339 0.176054 0.763582
O O10 0.823514 0.138923 0.725414
O O11 0.888279 0.000000 0.709171
O O12 0.422517 0.216225 0.000000
O O13 0.233213 0.842909 0.500000
O O14 0.233206 0.000000 0.659195
#
# Coordination Sequence:
#
# PCOD8274700 Si02
#       5
#    16   8  16  16  16
#     4   9  18  32  50  76 112 151 188 228 278 336
#     4  11  25  45  68  91 114 143 181 226 278 337
#     4   9  19  37  58  81 114 154 194 237 282 328
#     4  11  23  38  59  86 115 148 187 233 286 342
#     4   8  15  29  50  76 108 149 193 234 276 321
#
# _framework density 20.052789000000001
#
# number of rings (size 3 to 8) (size 9 to 14) (size 15 to 20)
#    0.000    2.556    0.000    3.000    0.000    5.778 
#    0.000    9.444    0.000    3.333    0.000    0.000 
#    0.000    0.000    0.000    0.000    0.000    0.000 
#
# Total GULP energy -446343.116199 kJ/mol
# GULP energy per Si atom -12398.419894 kJ/mol
# Density = 2.000715 g / cm^3
# Si number density = 20.052789 Si / 1000 Ang^3
#
#
#
# Elastic Constant Matrix: (Units=GPa)
#
#
# Indices 1 2 3 4 5 6 
#
# 1 91.6176 53.5554 58.5378 0.0000 0.0000 0.0000
# 2 53.5554 82.3401 50.7592 0.0000 0.0000 0.0000
# 3 58.5378 50.7592 89.0262 0.0000 0.0000 0.0000
# 4 0.0000 0.0000 0.0000 23.7968 0.0000 0.0000
# 5 0.0000 0.0000 0.0000 0.0000 40.9344 0.0000
# 6 0.0000 0.0000 0.0000 0.0000 0.0000 35.5444
#
#
#
# Elastic Compliance Matrix: (Units=1/GPa)
#
#
# Indices 1 2 3 4 5 6 
#
# 1 0.021977 -0.008305 -0.009716 0.000000 0.000000 0.000000
# 2 -0.008305 0.021865 -0.007006 0.000000 0.000000 0.000000
# 3 -0.009716 -0.007006 0.021615 0.000000 0.000000 0.000000
# 4 0.000000 0.000000 0.000000 0.042023 0.000000 0.000000
# 5 0.000000 0.000000 0.000000 0.000000 0.024429 0.000000
# 6 0.000000 0.000000 0.000000 0.000000 0.000000 0.028134
#
#
# Mechanical properties :
#
#
# Convention : Reuss Voigt Hill
#
# Bulk Modulus (GPa) = 64.91412 65.40986 65.16199
# Shear Modulus (GPa) = 23.23073 26.73055 24.98064
#
# Velocity S-wave (km/s) = 3.40734 3.65500 3.53334
# Velocity P-wave (km/s) = 6.92256 7.10645 7.01511
#
# Compressibility (1/GPa) = 0.01540497
#
# Stress axis : x y z
#
# Youngs Moduli (GPa) = 45.50126 45.73442 46.26326
#
# Poissons Ratio (x) = 0.37983 0.44948
# Poissons Ratio (y) = 0.37790 0.32411
# Poissons Ratio (z) = 0.44207 0.32041
#
# Static dielectric constant tensor:
#      x y z
#    x 3.758240 0.000000 0.000000 
#    y 0.000000 3.627220 0.000000 
#    z 0.000000 0.000000 3.607380 
# 
# 
# High freq. dielectric constant tensor:
#      x y z
#    x 1.774360 0.000000 0.000000 
#    y 0.000000 1.789930 0.000000 
#    z 0.000000 0.000000 1.775340 
# 
# From -- ./inp_files/7242.got.cif
#   From: 2010.03.12/outbox.cif.g09.slc.cpg/sg65_4_cif.got.tgz:7242.got - 2010.04.10 20:52:16.
