data_PCOD8274988
_publ_section_title
;
Structure prediction by ZEFSAII (Michael W. Deem and Ramdas Pophale) SiO2 
 PCOD8274988
Probable space group: C M M M
;
_chemical_formula_sum "Si O2"
_cell_formula_units_Z 72
_cell_length_a 30.682131
_cell_length_b 9.305273
_cell_length_c 17.843543
_cell_angle_alpha 90.000000
_cell_angle_beta 90.000000
_cell_angle_gamma 90.000000
_cell_volume 5094.431543
_symmetry_space_group_name_H-M "C M M M"
_symmetry_group_IT_number 65
_symmetry_cell_setting 'orthorhombic'
loop_
_space_group_symop_operation_xyz
x,y,z
-x,-y,z
x,-y,-z
-x,y,-z
-x,-y,-z
x,y,-z
-x,y,z
x,-y,z
1/2+x,1/2+y,z
1/2-x,1/2-y,z
1/2+x,1/2-y,-z
1/2-x,1/2+y,-z
1/2-x,1/2-y,-z
1/2+x,1/2+y,-z
1/2-x,1/2+y,z
1/2+x,1/2-y,z
loop_
_atom_site_type_symbol
_atom_site_label
_atom_site_fract_x
_atom_site_fract_y
_atom_site_fract_z
Si Si1 0.051727 0.659579 0.360809
Si Si2 0.548322 0.170964 0.195816
Si Si3 0.623582 0.832052 0.913203
Si Si4 0.708733 0.662581 0.910887
Si Si5 0.947926 0.839074 0.500000
O O1 0.071428 0.500000 0.372280
O O2 0.064037 0.721970 0.278550
O O3 0.070689 0.761514 0.425732
O O4 0.000000 0.650789 0.366831
O O5 0.500000 0.232713 0.177163
O O6 0.582109 0.225218 0.133358
O O7 0.545871 0.000000 0.196326
O O8 0.665136 0.743319 0.884553
O O9 0.632898 0.000000 0.899066
O O10 0.613458 0.802001 0.000000
O O11 0.709159 0.500000 0.879190
O O12 0.750000 0.750000 0.878354
O O13 0.711126 0.660176 0.000000
O O14 0.000000 0.837184 0.500000
O O15 0.929642 0.000000 0.500000
#
# Coordination Sequence:
#
# PCOD8274988 Si02
#       5
#    16  16  16  16   8
#     4   8  13  22  35  48  64  90 122 151 180 216
#     4   8  14  24  37  53  73  99 132 164 187 211
#     4   9  16  25  38  56  76  98 126 159 192 222
#     4   9  16  26  40  56  73  92 116 149 190 234
#     4   9  15  21  31  49  69  85 108 147 190 227
#
# _framework density 14.133079
#
# number of rings (size 3 to 8) (size 9 to 14) (size 15 to 20)
#    0.000    3.444    0.000    2.333    0.000    4.444 
#    0.000    3.333    0.000    2.000    0.000    3.111 
#    0.000    0.000    0.000    1.000    0.000   11.222 
#
# Total GULP energy -446159.689474 kJ/mol
# GULP energy per Si atom -12393.324708 kJ/mol
# Density = 1.410091 g / cm^3
# Si number density = 14.133079 Si / 1000 Ang^3
#
#
#
# Elastic Constant Matrix: (Units=GPa)
#
#
# Indices 1 2 3 4 5 6 
#
# 1 84.4416 40.5949 50.1715 0.0000 0.0000 0.0000
# 2 40.5949 73.8994 38.2613 0.0000 0.0000 0.0000
# 3 50.1715 38.2613 79.5868 0.0000 0.0000 0.0000
# 4 0.0000 0.0000 0.0000 8.4768 0.0000 0.0000
# 5 0.0000 0.0000 0.0000 0.0000 1.1770 0.0000
# 6 0.0000 0.0000 0.0000 0.0000 0.0000 15.6494
#
#
#
# Elastic Compliance Matrix: (Units=1/GPa)
#
#
# Indices 1 2 3 4 5 6 
#
# 1 0.020867 -0.006194 -0.010177 0.000000 0.000000 0.000000
# 2 -0.006194 0.019855 -0.005641 0.000000 0.000000 0.000000
# 3 -0.010177 -0.005641 0.021692 0.000000 0.000000 0.000000
# 4 0.000000 0.000000 0.000000 0.117969 0.000000 0.000000
# 5 0.000000 0.000000 0.000000 0.000000 0.849605 0.000000
# 6 0.000000 0.000000 0.000000 0.000000 0.000000 0.063900
#
#
# Mechanical properties :
#
#
# Convention : Reuss Voigt Hill
#
# Bulk Modulus (GPa) = 54.37348 55.10925 54.74136
# Shear Modulus (GPa) = 4.37048 12.32065 8.34556
#
# Velocity S-wave (km/s) = 1.76042 2.95576 2.43265
# Velocity P-wave (km/s) = 6.53362 7.12225 6.83427
#
# Compressibility (1/GPa) = 0.01839132
#
# Stress axis : x y z
#
# Youngs Moduli (GPa) = 47.92340 50.36597 46.09978
#
# Poissons Ratio (x) = 0.31195 0.46915
# Poissons Ratio (y) = 0.29682 0.26003
# Poissons Ratio (z) = 0.48770 0.28410
#
# Static dielectric constant tensor:
#      x y z
#    x 2.640830 0.000000 0.000000 
#    y 0.000000 2.779550 0.000000 
#    z 0.000000 0.000000 2.807380 
# 
# 
# High freq. dielectric constant tensor:
#      x y z
#    x 1.499610 0.000000 0.000000 
#    y 0.000000 1.528560 0.000000 
#    z 0.000000 0.000000 1.518800 
# 
# From -- ./inp_files/57164.got.cif
#   From: 2010.03.12/outbox.cif.g09.slc.cpg/sg65_29_cif.got.tgz:57164.got - 2010.04.10 20:52:16.
