data_PCOD8274158
_publ_section_title
;
Structure prediction by ZEFSAII (Michael W. Deem and Ramdas Pophale) SiO2 
 PCOD8274158
Probable space group: C M M M
;
_chemical_formula_sum "Si O2"
_cell_formula_units_Z 88
_cell_length_a 33.912081
_cell_length_b 11.298783
_cell_length_c 13.716381
_cell_angle_alpha 90.000000
_cell_angle_beta 90.000000
_cell_angle_gamma 90.000000
_cell_volume 5255.640477
_symmetry_space_group_name_H-M "C M M M"
_symmetry_group_IT_number 65
_symmetry_cell_setting 'orthorhombic'
loop_
_space_group_symop_operation_xyz
x,y,z
-x,-y,z
x,-y,-z
-x,y,-z
-x,-y,-z
x,y,-z
-x,y,z
x,-y,z
1/2+x,1/2+y,z
1/2-x,1/2-y,z
1/2+x,1/2-y,-z
1/2-x,1/2+y,-z
1/2-x,1/2-y,-z
1/2+x,1/2+y,-z
1/2-x,1/2+y,z
1/2+x,1/2-y,z
loop_
_atom_site_type_symbol
_atom_site_label
_atom_site_fract_x
_atom_site_fract_y
_atom_site_fract_z
Si Si1 0.823552 0.364368 0.108875
Si Si2 0.043043 0.138297 0.892376
Si Si3 0.722911 0.862708 0.704575
Si Si4 0.546699 0.000000 0.884976
Si Si5 0.098429 0.293578 0.796462
Si Si6 0.861027 0.636793 0.391749
O O1 0.837511 0.500000 0.114289
O O2 0.786754 0.345058 0.181008
O O3 0.861306 0.290462 0.141960
O O4 0.810294 0.327616 0.000000
O O5 0.076603 0.169839 0.814060
O O6 0.000000 0.187765 0.860619
O O7 0.041096 0.000000 0.899441
O O8 0.053283 0.190815 0.000000
O O9 0.750000 0.750000 0.673415
O O10 0.683949 0.846883 0.640693
O O11 0.739656 0.000000 0.688520
O O12 0.566991 0.111823 0.834587
O O13 0.500000 0.000000 0.863476
O O14 0.555455 0.000000 0.000000
O O15 0.108477 0.302126 0.682100
O O16 0.866343 0.691125 0.500000
O O17 0.872029 0.500000 0.391397
#
# Coordination Sequence:
#
# PCOD8274158 Si02
#       6
#    16  16  16   8  16  16
#     4   9  16  27  44  66  95 130 161 188 231 297
#     4   9  18  31  46  66  95 132 166 193 231 286
#     4   9  18  32  50  73  97 124 160 200 247 299
#     4  11  20  26  41  75 107 123 144 192 249 285
#     4  11  17  29  48  70  94 124 161 203 239 282
#     4   9  18  34  53  71  94 127 164 199 245 303
#
# _framework density 16.743915999999999
#
# number of rings (size 3 to 8) (size 9 to 14) (size 15 to 20)
#    0.000    2.455    1.818    3.818    0.000    2.182 
#    0.000    3.636    0.000    5.455    0.000    1.273 
#    0.000    0.000    0.000    0.000    0.000    0.000 
#
# Total GULP energy -545117.224131 kJ/mol
# GULP energy per Si atom -12389.027821 kJ/mol
# Density = 1.670581 g / cm^3
# Si number density = 16.743916 Si / 1000 Ang^3
#
#
#
# Elastic Constant Matrix: (Units=GPa)
#
#
# Indices 1 2 3 4 5 6 
#
# 1 66.2239 35.8441 37.4212 0.0000 0.0000 0.0000
# 2 35.8441 57.4499 25.1665 0.0000 0.0000 0.0000
# 3 37.4212 25.1665 125.9800 0.0000 0.0000 0.0000
# 4 0.0000 0.0000 0.0000 16.5573 0.0000 0.0000
# 5 0.0000 0.0000 0.0000 0.0000 17.0233 0.0000
# 6 0.0000 0.0000 0.0000 0.0000 0.0000 28.7907
#
#
#
# Elastic Compliance Matrix: (Units=1/GPa)
#
#
# Indices 1 2 3 4 5 6 
#
# 1 0.025153 -0.013612 -0.004752 0.000000 0.000000 0.000000
# 2 -0.013612 0.026442 -0.001239 0.000000 0.000000 0.000000
# 3 -0.004752 -0.001239 0.009597 0.000000 0.000000 0.000000
# 4 0.000000 0.000000 0.000000 0.060396 0.000000 0.000000
# 5 0.000000 0.000000 0.000000 0.000000 0.058743 0.000000
# 6 0.000000 0.000000 0.000000 0.000000 0.000000 0.034733
#
#
# Mechanical properties :
#
#
# Convention : Reuss Voigt Hill
#
# Bulk Modulus (GPa) = 45.48378 49.61303 47.54841
# Shear Modulus (GPa) = 19.11319 22.55572 20.83446
#
# Velocity S-wave (km/s) = 3.38228 3.67427 3.53129
# Velocity P-wave (km/s) = 6.51739 6.90617 6.71459
#
# Compressibility (1/GPa) = 0.02198586
#
# Stress axis : x y z
#
# Youngs Moduli (GPa) = 39.75639 37.81882 104.20020
#
# Poissons Ratio (x) = 0.51478 0.49520
# Poissons Ratio (y) = 0.54115 0.12910
# Poissons Ratio (z) = 0.18894 0.04685
#
# Static dielectric constant tensor:
#      x y z
#    x 3.039900 0.000000 0.000000 
#    y 0.000000 3.111490 0.000000 
#    z 0.000000 0.000000 3.303640 
# 
# 
# High freq. dielectric constant tensor:
#      x y z
#    x 1.635440 0.000000 0.000000 
#    y 0.000000 1.624860 0.000000 
#    z 0.000000 0.000000 1.635840 
# 
# From -- ./inp_files/38811.got.cif
#   From: 2010.03.12/outbox.cif.g09.slc.cpg/sg65_20_cif.got.tgz:38811.got - 2010.04.10 20:52:16.
