data_PCOD8274154
_publ_section_title
;
Structure prediction by ZEFSAII (Michael W. Deem and Ramdas Pophale) SiO2 
 PCOD8274154
Probable space group: C M M M
;
_chemical_formula_sum "Si O2"
_cell_formula_units_Z 80
_cell_length_a 18.369935
_cell_length_b 20.477355
_cell_length_c 16.716139
_cell_angle_alpha 90.000000
_cell_angle_beta 90.000000
_cell_angle_gamma 90.000000
_cell_volume 6288.071232
_symmetry_space_group_name_H-M "C M M M"
_symmetry_group_IT_number 65
_symmetry_cell_setting 'orthorhombic'
loop_
_space_group_symop_operation_xyz
x,y,z
-x,-y,z
x,-y,-z
-x,y,-z
-x,-y,-z
x,y,-z
-x,y,z
x,-y,z
1/2+x,1/2+y,z
1/2-x,1/2-y,z
1/2+x,1/2-y,-z
1/2-x,1/2+y,-z
1/2-x,1/2-y,-z
1/2+x,1/2+y,-z
1/2-x,1/2+y,z
1/2+x,1/2-y,z
loop_
_atom_site_type_symbol
_atom_site_label
_atom_site_fract_x
_atom_site_fract_y
_atom_site_fract_z
Si Si1 0.914023 0.928740 0.500000
Si Si2 0.584042 0.577897 0.326969
Si Si3 0.581208 0.500000 0.094062
Si Si4 0.082031 0.747820 0.906662
Si Si5 0.719121 0.822397 0.911559
Si Si6 0.647990 0.373853 0.829497
O O1 0.892740 0.894506 0.415582
O O2 0.000000 0.938252 0.500000
O O3 0.877076 0.000000 0.500000
O O4 0.500000 0.595052 0.308167
O O5 0.595449 0.500000 0.321936
O O6 0.636452 0.614623 0.264773
O O7 0.500000 0.500000 0.131619
O O8 0.622629 0.563708 0.122011
O O9 0.576828 0.500000 0.000000
O O10 0.134645 0.686362 0.884383
O O11 0.101122 0.811775 0.856103
O O12 0.000000 0.725944 0.887042
O O13 0.092102 0.765916 0.000000
O O14 0.750000 0.750000 0.916720
O O15 0.765894 0.864006 0.847891
O O16 0.724294 0.855137 0.000000
#
# Coordination Sequence:
#
# PCOD8274154 Si02
#       6
#     8  16   8  16  16  16
#     4   7  12  22  34  44  61  92 123 147 166 184
#     4   9  15  23  33  48  70  95 121 143 163 199
#     4  11  20  24  28  45  76 106 120 127 155 210
#     4   9  16  26  39  52  66  89 124 160 182 195
#     4   8  15  26  36  47  66  93 123 151 176 200
#     4  11  17  23  34  51  75  97 116 140 172 209
#
# _framework density 12.722503
#
# number of rings (size 3 to 8) (size 9 to 14) (size 15 to 20)
#    0.000    2.800    1.000    6.000    0.000    1.600 
#    0.000    0.000    0.000    0.000    0.000    7.000 
#    0.000    4.000    0.000    0.000    0.000    5.600 
#
# Total GULP energy -495535.937983 kJ/mol
# GULP energy per Si atom -12388.398450 kJ/mol
# Density = 1.269355 g / cm^3
# Si number density = 12.722503 Si / 1000 Ang^3
#
#
#
# Elastic Constant Matrix: (Units=GPa)
#
#
# Indices 1 2 3 4 5 6 
#
# 1 96.5283 34.0108 43.4643 0.0000 0.0000 0.0000
# 2 34.0108 36.1364 30.2310 0.0000 0.0000 0.0000
# 3 43.4643 30.2310 102.3645 0.0000 0.0000 0.0000
# 4 0.0000 0.0000 0.0000 18.1475 0.0000 0.0000
# 5 0.0000 0.0000 0.0000 0.0000 14.4370 0.0000
# 6 0.0000 0.0000 0.0000 0.0000 0.0000 18.7922
#
#
#
# Elastic Compliance Matrix: (Units=1/GPa)
#
#
# Indices 1 2 3 4 5 6 
#
# 1 0.016235 -0.012635 -0.003162 0.000000 0.000000 0.000000
# 2 -0.012635 0.046586 -0.008393 0.000000 0.000000 0.000000
# 3 -0.003162 -0.008393 0.013590 0.000000 0.000000 0.000000
# 4 0.000000 0.000000 0.000000 0.055104 0.000000 0.000000
# 5 0.000000 0.000000 0.000000 0.000000 0.069267 0.000000
# 6 0.000000 0.000000 0.000000 0.000000 0.000000 0.053214
#
#
# Mechanical properties :
#
#
# Convention : Reuss Voigt Hill
#
# Bulk Modulus (GPa) = 35.67450 50.04906 42.86178
# Shear Modulus (GPa) = 16.03999 18.76353 17.40176
#
# Velocity S-wave (km/s) = 3.55457 3.84452 3.70238
# Velocity P-wave (km/s) = 6.70432 7.68970 7.21386
#
# Compressibility (1/GPa) = 0.02803123
#
# Stress axis : x y z
#
# Youngs Moduli (GPa) = 61.59430 21.46553 73.58107
#
# Poissons Ratio (x) = 0.27121 0.23267
# Poissons Ratio (y) = 0.77824 0.61759
# Poissons Ratio (z) = 0.19477 0.18017
#
# Static dielectric constant tensor:
#      x y z
#    x 2.882570 0.000000 0.000000 
#    y 0.000000 2.291750 0.000000 
#    z 0.000000 0.000000 2.750390 
# 
# 
# High freq. dielectric constant tensor:
#      x y z
#    x 1.467450 0.000000 0.000000 
#    y 0.000000 1.443360 0.000000 
#    z 0.000000 0.000000 1.477600 
# 
# From -- ./inp_files/55937.got.cif
#   From: 2010.03.12/outbox.cif.g09.slc.cpg/sg65_28_cif.got.tgz:55937.got - 2010.04.10 20:52:16.
