data_PCOD8274868
_publ_section_title
;
Structure prediction by ZEFSAII (Michael W. Deem and Ramdas Pophale) SiO2 
 PCOD8274868
Probable space group: C M M M
;
_chemical_formula_sum "Si O2"
_cell_formula_units_Z 80
_cell_length_a 9.742472
_cell_length_b 25.646556
_cell_length_c 22.384376
_cell_angle_alpha 90.000000
_cell_angle_beta 90.000000
_cell_angle_gamma 90.000000
_cell_volume 5592.979297
_symmetry_space_group_name_H-M "C M M M"
_symmetry_group_IT_number 65
_symmetry_cell_setting 'orthorhombic'
loop_
_space_group_symop_operation_xyz
x,y,z
-x,-y,z
x,-y,-z
-x,y,-z
-x,-y,-z
x,y,-z
-x,y,z
x,-y,z
1/2+x,1/2+y,z
1/2-x,1/2-y,z
1/2+x,1/2-y,-z
1/2-x,1/2+y,-z
1/2-x,1/2-y,-z
1/2+x,1/2+y,-z
1/2-x,1/2+y,z
1/2+x,1/2-y,z
loop_
_atom_site_type_symbol
_atom_site_label
_atom_site_fract_x
_atom_site_fract_y
_atom_site_fract_z
Si Si1 0.337473 0.598987 0.637601
Si Si2 0.837218 0.442971 0.000000
Si Si3 0.154140 0.562344 0.128074
Si Si4 0.158714 0.938986 0.764661
Si Si5 0.159059 0.799443 0.569116
Si Si6 0.835899 0.000000 0.432710
O O1 0.500000 0.596161 0.632438
O O2 0.292652 0.593354 0.706623
O O3 0.285364 0.653262 0.609909
O O4 0.275480 0.551045 0.599893
O O5 0.796590 0.414763 0.937125
O O6 0.767372 0.500000 0.000000
O O7 0.000000 0.449636 0.000000
O O8 0.158093 0.500000 0.124286
O O9 0.255090 0.582850 0.179443
O O10 0.000000 0.581362 0.143159
O O11 0.000000 0.929064 0.779167
O O12 0.186225 0.000000 0.752485
O O13 0.179286 0.815101 0.500000
O O14 0.250000 0.750000 0.586623
O O15 0.000000 0.786607 0.582312
O O16 0.780911 0.000000 0.500000
O O17 0.000000 0.000000 0.430641
#
# Coordination Sequence:
#
# PCOD8274868 Si02
#       6
#    16   8  16  16  16   8
#     4   9  15  24  37  55  78 101 124 154 192 230
#     4   7  10  18  31  45  61  87 124 161 186 203
#     4   8  13  21  33  47  65  92 127 159 183 210
#     4   9  15  23  34  50  74 100 122 148 186 226
#     4   9  17  29  44  60  76  96 125 160 196 232
#     4   9  14  20  34  56  77  96 123 158 190 221
#
# _framework density 14.303647
#
# number of rings (size 3 to 8) (size 9 to 14) (size 15 to 20)
#    0.000    3.400    1.000    1.800    0.000    2.400 
#    0.000    1.500    0.000    3.000    0.000    0.000 
#    0.000    4.800    0.000    0.900    0.000   10.900 
#
# Total GULP energy -495612.185746 kJ/mol
# GULP energy per Si atom -12390.304644 kJ/mol
# Density = 1.427109 g / cm^3
# Si number density = 14.303647 Si / 1000 Ang^3
#
#
#
# Elastic Constant Matrix: (Units=GPa)
#
#
# Indices 1 2 3 4 5 6 
#
# 1 39.7885 27.0157 47.1295 0.0000 0.0000 0.0000
# 2 27.0157 69.0530 56.4220 0.0000 0.0000 0.0000
# 3 47.1295 56.4220 147.6182 0.0000 0.0000 0.0000
# 4 0.0000 0.0000 0.0000 11.4532 0.0000 0.0000
# 5 0.0000 0.0000 0.0000 0.0000 19.5209 0.0000
# 6 0.0000 0.0000 0.0000 0.0000 0.0000 12.1633
#
#
#
# Elastic Compliance Matrix: (Units=1/GPa)
#
#
# Indices 1 2 3 4 5 6 
#
# 1 0.043412 -0.008229 -0.010715 0.000000 0.000000 0.000000
# 2 -0.008229 0.022618 -0.006018 0.000000 0.000000 0.000000
# 3 -0.010715 -0.006018 0.012495 0.000000 0.000000 0.000000
# 4 0.000000 0.000000 0.000000 0.087312 0.000000 0.000000
# 5 0.000000 0.000000 0.000000 0.000000 0.051227 0.000000
# 6 0.000000 0.000000 0.000000 0.000000 0.000000 0.082215
#
#
# Mechanical properties :
#
#
# Convention : Reuss Voigt Hill
#
# Bulk Modulus (GPa) = 34.96270 57.51047 46.23659
# Shear Modulus (GPa) = 13.93781 17.02030 15.47905
#
# Velocity S-wave (km/s) = 3.12496 3.45327 3.29321
# Velocity P-wave (km/s) = 6.12510 7.49628 6.84511
#
# Compressibility (1/GPa) = 0.02860191
#
# Stress axis : x y z
#
# Youngs Moduli (GPa) = 23.03510 44.21224 80.03163
#
# Poissons Ratio (x) = 0.36384 0.85750
# Poissons Ratio (y) = 0.18957 0.48160
# Poissons Ratio (z) = 0.24681 0.26605
#
# Static dielectric constant tensor:
#      x y z
#    x 2.525010 0.000000 0.000000 
#    y 0.000000 2.504180 0.000000 
#    z 0.000000 0.000000 3.158840 
# 
# 
# High freq. dielectric constant tensor:
#      x y z
#    x 1.511180 0.000000 0.000000 
#    y 0.000000 1.493920 0.000000 
#    z 0.000000 0.000000 1.560910 
# 
# From -- ./inp_files/67980.got.cif
#   From: 2010.03.12/outbox.cif.g09.slc.cpg/sg65_34_cif.got.tgz:67980.got - 2010.04.10 20:52:16.
