data_PCOD8274750
_publ_section_title
;
Structure prediction by ZEFSAII (Michael W. Deem and Ramdas Pophale) SiO2 
 PCOD8274750
Probable space group: C M M M
;
_chemical_formula_sum "Si O2"
_cell_formula_units_Z 80
_cell_length_a 17.521855
_cell_length_b 10.292446
_cell_length_c 23.989499
_cell_angle_alpha 90.000000
_cell_angle_beta 90.000000
_cell_angle_gamma 90.000000
_cell_volume 4326.332135
_symmetry_space_group_name_H-M "C M M M"
_symmetry_group_IT_number 65
_symmetry_cell_setting 'orthorhombic'
loop_
_space_group_symop_operation_xyz
x,y,z
-x,-y,z
x,-y,-z
-x,y,-z
-x,-y,-z
x,y,-z
-x,y,z
x,-y,z
1/2+x,1/2+y,z
1/2-x,1/2-y,z
1/2+x,1/2-y,-z
1/2-x,1/2+y,-z
1/2-x,1/2-y,-z
1/2+x,1/2+y,-z
1/2-x,1/2+y,z
1/2+x,1/2-y,z
loop_
_atom_site_type_symbol
_atom_site_label
_atom_site_fract_x
_atom_site_fract_y
_atom_site_fract_z
Si Si1 0.909683 0.000000 0.435444
Si Si2 0.414118 0.000000 0.434178
Si Si3 0.909038 0.644418 0.148220
Si Si4 0.912099 0.348701 0.726588
Si Si5 0.339872 0.752372 0.380163
Si Si6 0.909187 0.145107 0.937531
O O1 0.875606 0.875611 0.405655
O O2 0.885503 0.000000 0.500000
O O3 0.000000 0.000000 0.428620
O O4 0.371213 0.126706 0.414079
O O5 0.500000 0.000000 0.409634
O O6 0.415920 0.000000 0.500000
O O7 0.879852 0.500000 0.131622
O O8 0.882468 0.679396 0.210791
O O9 0.874061 0.749816 0.105363
O O10 0.000000 0.645245 0.146461
O O11 0.901866 0.500000 0.711540
O O12 0.862082 0.262291 0.684887
O O13 0.000000 0.307338 0.720521
O O14 0.250000 0.750000 0.386370
O O15 0.000000 0.150549 0.935475
O O16 0.881622 0.000000 0.920842
O O17 0.881095 0.179260 0.000000
#
# Coordination Sequence:
#
# PCOD8274750 Si02
#       6
#     8   8  16  16  16  16
#     4  11  25  43  59  81 117 149 174 219 280 331
#     4  11  23  41  67  89 105 143 196 225 254 329
#     4   8  14  24  40  63  87 119 168 220 263 303
#     4   9  17  33  56  75  98 137 185 229 265 317
#     4  12  24  38  59  86 115 145 180 228 281 326
#     4   8  13  21  33  53  88 130 166 205 258 316
#
# _framework density 18.491416000000001
#
# number of rings (size 3 to 8) (size 9 to 14) (size 15 to 20)
#    0.000    2.400    1.000    4.800    0.000    4.400 
#    1.800    2.000    0.000    0.000    0.000    0.000 
#    0.000    0.800    0.000    1.200    0.000    1.600 
#
# Total GULP energy -495923.897616 kJ/mol
# GULP energy per Si atom -12398.097440 kJ/mol
# Density = 1.844933 g / cm^3
# Si number density = 18.491416 Si / 1000 Ang^3
#
#
#
# Elastic Constant Matrix: (Units=GPa)
#
#
# Indices 1 2 3 4 5 6 
#
# 1 72.9986 45.7760 39.6975 0.0000 0.0000 0.0000
# 2 45.7760 160.4421 99.4662 0.0000 0.0000 0.0000
# 3 39.6975 99.4662 146.5883 0.0000 0.0000 0.0000
# 4 0.0000 0.0000 0.0000 34.8614 0.0000 0.0000
# 5 0.0000 0.0000 0.0000 0.0000 0.1854 0.0000
# 6 0.0000 0.0000 0.0000 0.0000 0.0000 13.8671
#
#
#
# Elastic Compliance Matrix: (Units=1/GPa)
#
#
# Indices 1 2 3 4 5 6 
#
# 1 0.017115 -0.003469 -0.002281 0.000000 0.000000 0.000000
# 2 -0.003469 0.011462 -0.006838 0.000000 0.000000 0.000000
# 3 -0.002281 -0.006838 0.012079 0.000000 0.000000 0.000000
# 4 0.000000 0.000000 0.000000 0.028685 0.000000 0.000000
# 5 0.000000 0.000000 0.000000 0.000000 5.392599 0.000000
# 6 0.000000 0.000000 0.000000 0.000000 0.000000 0.072113
#
#
# Mechanical properties :
#
#
# Convention : Reuss Voigt Hill
#
# Bulk Modulus (GPa) = 64.59892 83.32316 73.96104
# Shear Modulus (GPa) = 0.89857 22.78873 11.84365
#
# Velocity S-wave (km/s) = 0.69785 3.51436 2.53354
# Velocity P-wave (km/s) = 5.97158 7.85022 6.97444
#
# Compressibility (1/GPa) = 0.01548013
#
# Stress axis : x y z
#
# Youngs Moduli (GPa) = 58.42957 87.24830 82.78681
#
# Poissons Ratio (x) = 0.30265 0.18884
# Poissons Ratio (y) = 0.20269 0.56607
# Poissons Ratio (z) = 0.13328 0.59658
#
# Static dielectric constant tensor:
#      x y z
#    x 2.997220 0.000000 0.000000 
#    y 0.000000 3.544370 0.000000 
#    z 0.000000 0.000000 3.720980 
# 
# 
# High freq. dielectric constant tensor:
#      x y z
#    x 1.672040 0.000000 0.000000 
#    y 0.000000 1.720710 0.000000 
#    z 0.000000 0.000000 1.732140 
# 
# From -- ./inp_files/75122.got.cif
#   From: 2010.03.12/outbox.cif.g09.slc.cpg/sg65_38_cif.got.tgz:75122.got - 2010.04.10 20:52:16.
