data_PCOD8274100
_publ_section_title
;
Structure prediction by ZEFSAII (Michael W. Deem and Ramdas Pophale) SiO2 
 PCOD8274100
Probable space group: C M M M
;
_chemical_formula_sum "Si O2"
_cell_formula_units_Z 64
_cell_length_a 7.720437
_cell_length_b 14.865811
_cell_length_c 28.048351
_cell_angle_alpha 90.000000
_cell_angle_beta 90.000000
_cell_angle_gamma 90.000000
_cell_volume 3219.124875
_symmetry_space_group_name_H-M "C M M M"
_symmetry_group_IT_number 65
_symmetry_cell_setting 'orthorhombic'
loop_
_space_group_symop_operation_xyz
x,y,z
-x,-y,z
x,-y,-z
-x,y,-z
-x,-y,-z
x,y,-z
-x,y,z
x,-y,z
1/2+x,1/2+y,z
1/2-x,1/2-y,z
1/2+x,1/2-y,-z
1/2-x,1/2+y,-z
1/2-x,1/2-y,-z
1/2+x,1/2+y,-z
1/2-x,1/2+y,z
1/2+x,1/2-y,z
loop_
_atom_site_type_symbol
_atom_site_label
_atom_site_fract_x
_atom_site_fract_y
_atom_site_fract_z
Si Si1 0.197604 0.000000 0.303152
Si Si2 0.206061 0.000000 0.446938
Si Si3 0.299235 0.000000 0.196360
Si Si4 0.297062 0.354412 0.373244
Si Si5 0.500000 0.394037 0.946399
Si Si6 0.703068 0.153422 0.124203
O O1 0.204846 0.000000 0.246443
O O2 0.278203 0.908419 0.326551
O O3 0.000000 0.000000 0.319073
O O4 0.271136 0.909430 0.419621
O O5 0.286820 0.000000 0.500000
O O6 0.000000 0.000000 0.449589
O O7 0.242960 0.914082 0.165852
O O8 0.500000 0.000000 0.207706
O O9 0.500000 0.358626 0.372528
O O10 0.250000 0.250000 0.373610
O O11 0.500000 0.500000 0.946091
O O12 0.323089 0.360533 0.921942
O O13 0.500000 0.355543 0.000000
O O14 0.500000 0.143083 0.109922
O O15 0.750000 0.250000 0.145779
#
# Coordination Sequence:
#
# PCOD8274100 Si02
#       6
#     8   8   8  16   8  16
#     4   9  20  35  54  75 102 146 182 221 277 343
#     4   8  15  30  51  73 103 145 186 221 269 334
#     4  10  23  39  59  85 114 145 189 237 284 341
#     4   9  18  33  51  76 106 138 182 228 276 330
#     4  11  24  42  66  91 119 161 199 236 294 349
#     4  11  23  41  62  89 122 155 195 243 290 347
#
# _framework density 19.881178999999999
#
# number of rings (size 3 to 8) (size 9 to 14) (size 15 to 20)
#    0.000    2.250    2.500    1.500    1.750    3.500 
#    0.000    8.125    0.000    0.750    0.000    0.000 
#    0.000    0.000    0.000    0.000    0.000    0.000 
#
# Total GULP energy -396498.508463 kJ/mol
# GULP energy per Si atom -12390.578389 kJ/mol
# Density = 1.983593 g / cm^3
# Si number density = 19.881179 Si / 1000 Ang^3
#
#
#
# Elastic Constant Matrix: (Units=GPa)
#
#
# Indices 1 2 3 4 5 6 
#
# 1 68.9684 26.9367 43.6133 0.0000 0.0000 0.0000
# 2 26.9367 199.7141 95.0681 0.0000 0.0000 0.0000
# 3 43.6133 95.0681 176.5003 0.0000 0.0000 0.0000
# 4 0.0000 0.0000 0.0000 28.7202 0.0000 0.0000
# 5 0.0000 0.0000 0.0000 0.0000 35.5472 0.0000
# 6 0.0000 0.0000 0.0000 0.0000 0.0000 25.8588
#
#
#
# Elastic Compliance Matrix: (Units=1/GPa)
#
#
# Indices 1 2 3 4 5 6 
#
# 1 0.017208 -0.000399 -0.004037 0.000000 0.000000 0.000000
# 2 -0.000399 0.006743 -0.003533 0.000000 0.000000 0.000000
# 3 -0.004037 -0.003533 0.008566 0.000000 0.000000 0.000000
# 4 0.000000 0.000000 0.000000 0.034819 0.000000 0.000000
# 5 0.000000 0.000000 0.000000 0.000000 0.028132 0.000000
# 6 0.000000 0.000000 0.000000 0.000000 0.000000 0.038671
#
#
# Mechanical properties :
#
#
# Convention : Reuss Voigt Hill
#
# Bulk Modulus (GPa) = 60.31974 86.26878 73.29426
# Shear Modulus (GPa) = 32.13269 36.66290 34.39779
#
# Velocity S-wave (km/s) = 4.02461 4.29896 4.16404
# Velocity P-wave (km/s) = 7.21128 8.25396 7.75017
#
# Compressibility (1/GPa) = 0.01657832
#
# Stress axis : x y z
#
# Youngs Moduli (GPa) = 58.11164 148.30371 116.73498
#
# Poissons Ratio (x) = 0.05921 0.47127
# Poissons Ratio (y) = 0.02320 0.41246
# Poissons Ratio (z) = 0.23460 0.52400
#
# Static dielectric constant tensor:
#      x y z
#    x 3.488680 0.000000 0.000000 
#    y 0.000000 0.398500 0.000000 
#    z 0.000000 0.000000 3.703110 
# 
# 
# High freq. dielectric constant tensor:
#      x y z
#    x 1.766120 0.000000 0.000000 
#    y 0.000000 1.788500 0.000000 
#    z 0.000000 0.000000 1.768560 
# 
# From -- ./inp_files/66861.got.cif
#   From: 2010.03.12/outbox.cif.g09.slc.cpg/sg65_34_cif.got.tgz:66861.got - 2010.04.10 20:52:16.
