data_PCOD8274282
_publ_section_title
;
Structure prediction by ZEFSAII (Michael W. Deem and Ramdas Pophale) SiO2 
 PCOD8274282
Probable space group: C M M M
;
_chemical_formula_sum "Si O2"
_cell_formula_units_Z 104
_cell_length_a 22.865716
_cell_length_b 29.986445
_cell_length_c 9.059751
_cell_angle_alpha 90.000000
_cell_angle_beta 90.000000
_cell_angle_gamma 90.000000
_cell_volume 6211.922779
_symmetry_space_group_name_H-M "C M M M"
_symmetry_group_IT_number 65
_symmetry_cell_setting 'orthorhombic'
loop_
_space_group_symop_operation_xyz
x,y,z
-x,-y,z
x,-y,-z
-x,y,-z
-x,-y,-z
x,y,-z
-x,y,z
x,-y,z
1/2+x,1/2+y,z
1/2-x,1/2-y,z
1/2+x,1/2-y,-z
1/2-x,1/2+y,-z
1/2-x,1/2-y,-z
1/2+x,1/2+y,-z
1/2-x,1/2+y,z
1/2+x,1/2-y,z
loop_
_atom_site_type_symbol
_atom_site_label
_atom_site_fract_x
_atom_site_fract_y
_atom_site_fract_z
Si Si1 0.566307 0.120071 0.175465
Si Si2 0.660056 0.949351 0.174646
Si Si3 0.430214 0.312632 0.829684
Si Si4 0.000000 0.947450 0.170148
Si Si5 0.278016 0.449039 0.328624
Si Si6 0.935436 0.716411 0.174678
Si Si7 0.894689 0.101126 0.673841
O O1 0.500000 0.113567 0.236057
O O2 0.608378 0.081730 0.239829
O O3 0.593361 0.168963 0.222518
O O4 0.564572 0.116694 0.000000
O O5 0.721427 0.932694 0.239615
O O6 0.646662 0.000000 0.224415
O O7 0.664037 0.945306 0.000000
O O8 0.500000 0.315827 0.807798
O O9 0.405986 0.263491 0.777133
O O10 0.397700 0.347920 0.726539
O O11 0.414093 0.321987 0.000000
O O12 0.942749 0.928347 0.245876
O O13 0.000000 0.000000 0.189281
O O14 0.000000 0.932550 0.000000
O O15 0.263556 0.444094 0.500000
O O16 0.293987 0.500000 0.288259
O O17 0.331723 0.418007 0.281276
O O18 0.000000 0.715429 0.243540
O O19 0.940514 0.718334 0.000000
O O20 0.905675 0.098215 0.500000
#
# Coordination Sequence:
#
# PCOD8274282 Si02
#       7
#    16  16  16   8  16  16  16
#     4   8  13  23  42  70 101 126 149 181 226 275
#     4   9  17  28  45  71  97 120 151 192 231 268
#     4   9  16  27  44  66  92 118 149 189 233 276
#     4  11  23  35  47  67  95 123 149 185 236 283
#     4   9  19  35  50  62  82 119 161 192 222 269
#     4   7  11  21  39  63  90 122 153 181 217 266
#     4  11  21  32  48  68  90 118 154 194 236 281
#
# _framework density 16.741997999999999
#
# number of rings (size 3 to 8) (size 9 to 14) (size 15 to 20)
#    0.000    3.000    0.769    3.000    0.000    2.769 
#    0.000    3.077    0.000    2.308    0.000   10.769 
#    0.000    0.000    0.000    0.000    0.000    0.000 
#
# Total GULP energy -644268.235174 kJ/mol
# GULP energy per Si atom -12389.773753 kJ/mol
# Density = 1.670389 g / cm^3
# Si number density = 16.741998 Si / 1000 Ang^3
#
#
#
# Elastic Constant Matrix: (Units=GPa)
#
#
# Indices 1 2 3 4 5 6 
#
# 1 101.0639 79.9003 34.6946 0.0000 0.0000 0.0000
# 2 79.9003 141.8306 39.0908 0.0000 0.0000 0.0000
# 3 34.6946 39.0908 39.4270 0.0000 0.0000 0.0000
# 4 0.0000 0.0000 0.0000 11.7685 0.0000 0.0000
# 5 0.0000 0.0000 0.0000 0.0000 -10.7242 0.0000
# 6 0.0000 0.0000 0.0000 0.0000 0.0000 13.2729
#
#
#
# Elastic Compliance Matrix: (Units=1/GPa)
#
#
# Indices 1 2 3 4 5 6 
#
# 1 0.019823 -0.008751 -0.008767 0.000000 0.000000 0.000000
# 2 -0.008751 0.013565 -0.005749 0.000000 0.000000 0.000000
# 3 -0.008767 -0.005749 0.038778 0.000000 0.000000 0.000000
# 4 0.000000 0.000000 0.000000 0.084972 0.000000 0.000000
# 5 0.000000 0.000000 0.000000 0.000000 -0.093247 0.000000
# 6 0.000000 0.000000 0.000000 0.000000 0.000000 0.075342
#
#
# Mechanical properties :
#
#
# Convention : Reuss Voigt Hill
#
# Bulk Modulus (GPa) = 39.01375 65.52143 52.26759
# Shear Modulus (GPa) = 25.73200 11.43915 18.58557
#
# Velocity S-wave (km/s) = 3.92468 2.61676 3.33546
# Velocity P-wave (km/s) = 6.62503 6.95348 6.79124
#
# Compressibility (1/GPa) = 0.02563199
#
# Stress axis : x y z
#
# Youngs Moduli (GPa) = 50.44708 73.71979 25.78778
#
# Poissons Ratio (x) = 0.64510 0.22609
# Poissons Ratio (y) = 0.44145 0.14825
# Poissons Ratio (z) = 0.44228 0.42380
#
# Static dielectric constant tensor:
#      x y z
#    x 3.124890 0.000000 0.000000 
#    y 0.000000 3.629360 0.000000 
#    z 0.000000 0.000000 2.854950 
# 
# 
# High freq. dielectric constant tensor:
#      x y z
#    x 1.613640 0.000000 0.000000 
#    y 0.000000 1.662470 0.000000 
#    z 0.000000 0.000000 1.614420 
# 
# From -- ./inp_files/15029.got.cif
#   From: 2010.03.12/outbox.cif.g09.slc.cpg/sg65_8_cif.got.tgz:15029.got - 2010.04.10 20:52:16.
