data_PCOD8274889
_publ_section_title
;
Structure prediction by ZEFSAII (Michael W. Deem and Ramdas Pophale) SiO2 
 PCOD8274889
Probable space group: C M M M
;
_chemical_formula_sum "Si O2"
_cell_formula_units_Z 72
_cell_length_a 14.760942
_cell_length_b 37.289446
_cell_length_c 7.532619
_cell_angle_alpha 90.000000
_cell_angle_beta 90.000000
_cell_angle_gamma 90.000000
_cell_volume 4146.159512
_symmetry_space_group_name_H-M "C M M M"
_symmetry_group_IT_number 65
_symmetry_cell_setting 'orthorhombic'
loop_
_space_group_symop_operation_xyz
x,y,z
-x,-y,z
x,-y,-z
-x,y,-z
-x,-y,-z
x,y,-z
-x,y,z
x,-y,z
1/2+x,1/2+y,z
1/2-x,1/2-y,z
1/2+x,1/2-y,-z
1/2-x,1/2+y,-z
1/2-x,1/2-y,-z
1/2+x,1/2+y,-z
1/2-x,1/2+y,z
1/2+x,1/2-y,z
loop_
_atom_site_type_symbol
_atom_site_label
_atom_site_fract_x
_atom_site_fract_y
_atom_site_fract_z
Si Si1 0.894216 0.094663 0.794467
Si Si2 0.284838 0.336602 0.789163
Si Si3 0.101999 0.228847 0.791517
Si Si4 0.606676 0.539600 0.500000
Si Si5 0.900621 0.691414 0.211109
O O1 0.834693 0.127786 0.720837
O O2 0.863875 0.060545 0.678205
O O3 0.000000 0.104133 0.766625
O O4 0.873850 0.085816 0.000000
O O5 0.332533 0.301201 0.707171
O O6 0.179136 0.335691 0.727106
O O7 0.293359 0.335876 0.000000
O O8 0.121368 0.268636 0.714632
O O9 0.000000 0.217160 0.746291
O O10 0.118599 0.230085 0.000000
O O11 0.652087 0.500000 0.500000
O O12 0.500000 0.535240 0.500000
O O13 0.000000 0.678606 0.281345
O O14 0.903709 0.693370 0.000000
#
# Coordination Sequence:
#
# PCOD8274889 Si02
#       5
#    16  16  16   8  16
#     4   9  17  28  43  65  90 114 141 171 203 243
#     4   9  14  20  32  51  78 109 140 177 217 250
#     4   8  12  17  26  43  70 105 143 180 216 251
#     4   9  18  32  48  66  90 117 139 161 196 246
#     4   8  13  19  27  44  73 108 146 185 218 249
#
# _framework density 17.365466999999999
#
# number of rings (size 3 to 8) (size 9 to 14) (size 15 to 20)
#    0.000    3.444    0.000    2.667    0.000    5.778 
#    0.000    2.222    0.000    0.000    0.000    3.889 
#    0.000    5.333    0.000    9.111    0.000    0.222 
#
# Total GULP energy -445989.633257 kJ/mol
# GULP energy per Si atom -12388.600924 kJ/mol
# Density = 1.732594 g / cm^3
# Si number density = 17.365467 Si / 1000 Ang^3
#
#
#
# Elastic Constant Matrix: (Units=GPa)
#
#
# Indices 1 2 3 4 5 6 
#
# 1 98.9379 67.1910 16.7948 0.0000 0.0000 0.0000
# 2 67.1910 120.0546 29.8927 0.0000 0.0000 0.0000
# 3 16.7948 29.8927 44.1431 0.0000 0.0000 0.0000
# 4 0.0000 0.0000 0.0000 -265.9952 0.0000 0.0000
# 5 0.0000 0.0000 0.0000 0.0000 0.1131 0.0000
# 6 0.0000 0.0000 0.0000 0.0000 0.0000 16.5099
#
#
#
# Elastic Compliance Matrix: (Units=1/GPa)
#
#
# Indices 1 2 3 4 5 6 
#
# 1 0.016304 -0.009118 -0.000029 0.000000 0.000000 0.000000
# 2 -0.009118 0.015118 -0.006768 0.000000 0.000000 0.000000
# 3 -0.000029 -0.006768 0.027248 0.000000 0.000000 0.000000
# 4 0.000000 0.000000 0.000000 -0.003759 0.000000 0.000000
# 5 0.000000 0.000000 0.000000 0.000000 8.844699 0.000000
# 6 0.000000 0.000000 0.000000 0.000000 0.000000 0.060570
#
#
# Mechanical properties :
#
#
# Convention : Reuss Voigt Hill
#
# Bulk Modulus (GPa) = 37.25783 54.54363 45.90073
# Shear Modulus (GPa) = 0.55550 -39.92398 -19.68424
#
# Velocity S-wave (km/s) = 0.56620 -4.80004 -3.37044
# Velocity P-wave (km/s) = 4.68286 0.87004 3.36795
#
# Compressibility (1/GPa) = 0.02683999
#
# Stress axis : x y z
#
# Youngs Moduli (GPa) = 61.33300 66.14677 36.69995
#
# Poissons Ratio (x) = 0.60312 0.00105
# Poissons Ratio (y) = 0.55923 0.24840
# Poissons Ratio (z) = 0.00176 0.44771
#
# Static dielectric constant tensor:
#      x y z
#    x 3.407330 0.000000 0.000000 
#    y 0.000000 3.369240 0.000000 
#    z 0.000000 0.000000 2.875110 
# 
# 
# High freq. dielectric constant tensor:
#      x y z
#    x 1.655690 0.000000 0.000000 
#    y 0.000000 1.632050 0.000000 
#    z 0.000000 0.000000 1.647030 
# 
# From -- ./inp_files/7652.got.cif
#   From: 2010.03.12/outbox.cif.g09.slc.cpg/sg65_4_cif.got.tgz:7652.got - 2010.04.10 20:52:16.
