data_PCOD8274532
_publ_section_title
;
Structure prediction by ZEFSAII (Michael W. Deem and Ramdas Pophale) SiO2 
 PCOD8274532
Probable space group: C M M M
;
_chemical_formula_sum "Si O2"
_cell_formula_units_Z 64
_cell_length_a 32.981341
_cell_length_b 10.843848
_cell_length_c 9.004323
_cell_angle_alpha 90.000000
_cell_angle_beta 90.000000
_cell_angle_gamma 90.000000
_cell_volume 3220.347936
_symmetry_space_group_name_H-M "C M M M"
_symmetry_group_IT_number 65
_symmetry_cell_setting 'orthorhombic'
loop_
_space_group_symop_operation_xyz
x,y,z
-x,-y,z
x,-y,-z
-x,y,-z
-x,-y,-z
x,y,-z
-x,y,z
x,-y,z
1/2+x,1/2+y,z
1/2-x,1/2-y,z
1/2+x,1/2-y,-z
1/2-x,1/2+y,-z
1/2-x,1/2-y,-z
1/2+x,1/2+y,-z
1/2-x,1/2+y,z
1/2+x,1/2-y,z
loop_
_atom_site_type_symbol
_atom_site_label
_atom_site_fract_x
_atom_site_fract_y
_atom_site_fract_z
Si Si1 0.000000 0.140514 0.838110
Si Si2 0.803498 0.500000 0.323861
Si Si3 0.789730 0.000000 0.676439
Si Si4 0.572409 0.242410 0.672772
Si Si5 0.547373 0.000000 0.173786
Si Si6 0.835486 0.239509 0.327165
O O1 0.959938 0.166644 0.744626
O O2 0.000000 0.000000 0.877125
O O3 0.000000 0.211891 0.000000
O O4 0.808890 0.500000 0.500000
O O5 0.756808 0.500000 0.275162
O O6 0.823824 0.374065 0.257914
O O7 0.810241 0.874991 0.742604
O O8 0.795203 0.000000 0.500000
O O9 0.562431 0.226818 0.500000
O O10 0.569636 0.113377 0.753269
O O11 0.617480 0.293305 0.699179
O O12 0.500000 0.000000 0.214650
O O13 0.554910 0.000000 0.000000
O O14 0.824916 0.247782 0.500000
#
# Coordination Sequence:
#
# PCOD8274532 Si02
#       6
#     8   8   8  16   8  16
#     4  11  25  42  57  76 109 151 195 237 278 335
#     4   9  15  27  45  68 105 152 184 209 266 342
#     4   9  16  27  45  70 106 150 184 214 268 339
#     4  11  22  36  58  84 113 145 185 235 286 332
#     4  11  22  37  57  79 109 144 184 231 278 333
#     4   9  18  29  45  74 110 143 181 228 274 328
#
# _framework density 19.873629000000001
#
# number of rings (size 3 to 8) (size 9 to 14) (size 15 to 20)
#    0.000    2.000    1.250    3.000    1.750    6.500 
#    0.000    0.000    0.000    0.000    0.000    0.000 
#    0.000   42.000    0.000    0.000    0.000    0.000 
#
# Total GULP energy -396671.063982 kJ/mol
# GULP energy per Si atom -12395.970749 kJ/mol
# Density = 1.982840 g / cm^3
# Si number density = 19.873629 Si / 1000 Ang^3
#
#
#
# Elastic Constant Matrix: (Units=GPa)
#
#
# Indices 1 2 3 4 5 6 
#
# 1 117.7450 56.9584 32.4135 0.0000 0.0000 0.0000
# 2 56.9584 136.6333 19.4823 0.0000 0.0000 0.0000
# 3 32.4135 19.4823 58.3494 0.0000 0.0000 0.0000
# 4 0.0000 0.0000 0.0000 11.0703 0.0000 0.0000
# 5 0.0000 0.0000 0.0000 0.0000 -0.1603 0.0000
# 6 0.0000 0.0000 0.0000 0.0000 0.0000 24.6858
#
#
#
# Elastic Compliance Matrix: (Units=1/GPa)
#
#
# Indices 1 2 3 4 5 6 
#
# 1 0.011993 -0.004252 -0.005242 0.000000 0.000000 0.000000
# 2 -0.004252 0.009192 -0.000707 0.000000 0.000000 0.000000
# 3 -0.005242 -0.000707 0.020286 0.000000 0.000000 0.000000
# 4 0.000000 0.000000 0.000000 0.090332 0.000000 0.000000
# 5 0.000000 0.000000 0.000000 0.000000 -6.236973 0.000000
# 6 0.000000 0.000000 0.000000 0.000000 0.000000 0.040509
#
#
# Mechanical properties :
#
#
# Convention : Reuss Voigt Hill
#
# Bulk Modulus (GPa) = 47.46448 58.93732 53.20090
# Shear Modulus (GPa) = -0.82819 20.71073 9.94127
#
# Velocity S-wave (km/s) = -0.64625 3.23169 2.23900
# Velocity P-wave (km/s) = 4.83510 6.60648 5.78894
#
# Compressibility (1/GPa) = 0.02106839
#
# Stress axis : x y z
#
# Youngs Moduli (GPa) = 83.38205 108.78749 49.29389
#
# Poissons Ratio (x) = 0.46257 0.25842
# Poissons Ratio (y) = 0.35454 0.03486
# Poissons Ratio (z) = 0.43713 0.07693
#
# Static dielectric constant tensor:
#      x y z
#    x 3.772800 0.000000 0.000000 
#    y 0.000000 3.808480 0.000000 
#    z 0.000000 0.000000 3.188530 
# 
# 
# High freq. dielectric constant tensor:
#      x y z
#    x 1.786710 0.000000 0.000000 
#    y 0.000000 1.790970 0.000000 
#    z 0.000000 0.000000 1.720820 
# 
# From -- ./inp_files/5021.got.cif
#   From: 2010.03.12/outbox.cif.g09.slc.cpg/sg65_3_cif.got.tgz:5021.got - 2010.04.10 20:52:16.
