data_PCOD8274401
_publ_section_title
;
Structure prediction by ZEFSAII (Michael W. Deem and Ramdas Pophale) SiO2 
 PCOD8274401
Probable space group: C M M M
;
_chemical_formula_sum "Si O2"
_cell_formula_units_Z 64
_cell_length_a 10.856538
_cell_length_b 24.658290
_cell_length_c 12.169578
_cell_angle_alpha 90.000000
_cell_angle_beta 90.000000
_cell_angle_gamma 90.000000
_cell_volume 3257.840600
_symmetry_space_group_name_H-M "C M M M"
_symmetry_group_IT_number 65
_symmetry_cell_setting 'orthorhombic'
loop_
_space_group_symop_operation_xyz
x,y,z
-x,-y,z
x,-y,-z
-x,y,-z
-x,-y,-z
x,y,-z
-x,y,z
x,-y,z
1/2+x,1/2+y,z
1/2-x,1/2-y,z
1/2+x,1/2-y,-z
1/2-x,1/2+y,-z
1/2-x,1/2-y,-z
1/2+x,1/2+y,-z
1/2-x,1/2+y,z
1/2+x,1/2-y,z
loop_
_atom_site_type_symbol
_atom_site_label
_atom_site_fract_x
_atom_site_fract_y
_atom_site_fract_z
Si Si1 0.247782 0.062036 0.279411
Si Si2 0.142618 0.150430 0.870417
Si Si3 0.500000 0.090792 0.370983
Si Si4 0.000000 0.280735 0.625351
Si Si5 0.140255 0.063321 0.500000
Si Si6 0.250000 0.250000 0.748126
O O1 0.196490 0.094147 0.175271
O O2 0.392074 0.065523 0.298348
O O3 0.193593 0.090031 0.390072
O O4 0.204408 0.000000 0.263789
O O5 0.227448 0.198453 0.825133
O O6 0.000000 0.158014 0.835929
O O7 0.157089 0.148520 0.000000
O O8 0.500000 0.071574 0.500000
O O9 0.500000 0.154984 0.364532
O O10 0.126115 0.258195 0.677563
O O11 0.000000 0.261312 0.500000
O O12 0.000000 0.076556 0.500000
O O13 0.173851 0.000000 0.500000
#
# Coordination Sequence:
#
# PCOD8274401 Si02
#       6
#    16  16   8   8   8   8
#     4  11  22  38  61  92 127 165 211 261 317 384
#     4  11  25  44  66  92 122 169 224 270 322 379
#     4  11  21  38  63  94 132 171 207 251 315 397
#     4  11  24  41  68 102 138 170 209 266 330 394
#     4   9  18  33  55  84 119 157 199 248 308 375
#     4  12  22  46  68  96 130 169 221 268 324 390
#
# _framework density 19.644914
#
# number of rings (size 3 to 8) (size 9 to 14) (size 15 to 20)
#    0.000    1.125    5.000    1.875    0.000    2.500 
#    2.250    3.125    0.000    1.500    0.000    0.000 
#    0.000    0.000    0.000    0.000    0.000    0.000 
#
# Total GULP energy -396744.893438 kJ/mol
# GULP energy per Si atom -12398.277920 kJ/mol
# Density = 1.960020 g / cm^3
# Si number density = 19.644914 Si / 1000 Ang^3
#
#
#
# Elastic Constant Matrix: (Units=GPa)
#
#
# Indices 1 2 3 4 5 6 
#
# 1 158.0389 31.4969 64.0082 0.0000 0.0000 0.0000
# 2 31.4969 97.6983 49.9409 0.0000 0.0000 0.0000
# 3 64.0082 49.9409 115.2307 0.0000 0.0000 0.0000
# 4 0.0000 0.0000 0.0000 32.1937 0.0000 0.0000
# 5 0.0000 0.0000 0.0000 0.0000 29.5520 0.0000
# 6 0.0000 0.0000 0.0000 0.0000 0.0000 54.8142
#
#
#
# Elastic Compliance Matrix: (Units=1/GPa)
#
#
# Indices 1 2 3 4 5 6 
#
# 1 0.008177 -0.000404 -0.004367 0.000000 0.000000 0.000000
# 2 -0.000404 0.013168 -0.005483 0.000000 0.000000 0.000000
# 3 -0.004367 -0.005483 0.013480 0.000000 0.000000 0.000000
# 4 0.000000 0.000000 0.000000 0.031062 0.000000 0.000000
# 5 0.000000 0.000000 0.000000 0.000000 0.033839 0.000000
# 6 0.000000 0.000000 0.000000 0.000000 0.000000 0.018243
#
#
# Mechanical properties :
#
#
# Convention : Reuss Voigt Hill
#
# Bulk Modulus (GPa) = 69.84155 73.53997 71.69076
# Shear Modulus (GPa) = 34.90409 38.34678 36.62543
#
# Velocity S-wave (km/s) = 4.21972 4.42293 4.32252
# Velocity P-wave (km/s) = 7.70523 7.97490 7.84122
#
# Compressibility (1/GPa) = 0.01431812
#
# Stress axis : x y z
#
# Youngs Moduli (GPa) = 122.29825 75.93884 74.18230
#
# Poissons Ratio (x) = 0.03066 0.32395
# Poissons Ratio (y) = 0.04938 0.40674
# Poissons Ratio (z) = 0.53408 0.41637
#
# Static dielectric constant tensor:
#      x y z
#    x 3.803810 0.000000 0.000000 
#    y 0.000000 3.489610 0.000000 
#    z 0.000000 0.000000 3.561700 
# 
# 
# High freq. dielectric constant tensor:
#      x y z
#    x 1.784090 0.000000 0.000000 
#    y 0.000000 1.763150 0.000000 
#    z 0.000000 0.000000 1.759730 
# 
# From -- ./inp_files/22301.got.cif
#   From: 2010.03.12/outbox.cif.g09.slc.cpg/sg65_12_cif.got.tgz:22301.got - 2010.04.10 20:52:16.
