data_PCOD8274245
_publ_section_title
;
Structure prediction by ZEFSAII (Michael W. Deem and Ramdas Pophale) SiO2 
 PCOD8274245
Probable space group: C M M M
;
_chemical_formula_sum "Si O2"
_cell_formula_units_Z 88
_cell_length_a 22.527313
_cell_length_b 10.075430
_cell_length_c 22.473898
_cell_angle_alpha 90.000000
_cell_angle_beta 90.000000
_cell_angle_gamma 90.000000
_cell_volume 5100.953785
_symmetry_space_group_name_H-M "C M M M"
_symmetry_group_IT_number 65
_symmetry_cell_setting 'orthorhombic'
loop_
_space_group_symop_operation_xyz
x,y,z
-x,-y,z
x,-y,-z
-x,y,-z
-x,-y,-z
x,y,-z
-x,y,z
x,-y,z
1/2+x,1/2+y,z
1/2-x,1/2-y,z
1/2+x,1/2-y,-z
1/2-x,1/2+y,-z
1/2-x,1/2-y,-z
1/2+x,1/2+y,-z
1/2-x,1/2+y,z
1/2+x,1/2-y,z
loop_
_atom_site_type_symbol
_atom_site_label
_atom_site_fract_x
_atom_site_fract_y
_atom_site_fract_z
Si Si1 0.875309 0.225691 0.882667
Si Si2 0.808202 0.839395 0.233796
Si Si3 0.201036 0.000000 0.933838
Si Si4 0.000000 0.155988 0.932534
Si Si5 0.323565 0.000000 0.568722
Si Si6 0.818312 0.000000 0.434091
Si Si7 0.330909 0.000000 0.928368
Si Si8 0.320419 0.254951 0.637568
O O1 0.858179 0.188573 0.815298
O O2 0.944190 0.201612 0.893971
O O3 0.863446 0.375379 0.900276
O O4 0.836339 0.131641 0.924296
O O5 0.750000 0.750000 0.219087
O O6 0.837974 0.783514 0.294213
O O7 0.793931 0.000000 0.237441
O O8 0.264120 0.000000 0.899912
O O9 0.223735 0.000000 0.000000
O O10 0.000000 0.000000 0.938746
O O11 0.000000 0.216709 0.000000
O O12 0.347675 0.123476 0.607568
O O13 0.347358 0.000000 0.500000
O O14 0.252774 0.000000 0.566770
O O15 0.845481 0.873195 0.402017
O O16 0.843429 0.000000 0.500000
O O17 0.336078 0.000000 0.000000
O O18 0.250000 0.250000 0.634322
#
# Coordination Sequence:
#
# PCOD8274245 Si02
#       8
#    16  16   8   8   8   8   8  16
#     4  12  24  38  59  82 109 142 182 223 274 335
#     4  11  22  35  53  76 106 141 182 227 273 329
#     4  11  20  36  58  81 108 140 174 219 270 328
#     4  11  22  41  65  83 105 141 184 227 273 336
#     4   9  16  25  39  62  93 135 183 221 255 305
#     4   9  14  23  37  56  85 127 171 211 247 291
#     4  11  24  38  56  85 114 136 168 221 280 328
#     4   9  17  26  40  61  93 131 174 218 258 307
#
# _framework density 17.251676
#
# number of rings (size 3 to 8) (size 9 to 14) (size 15 to 20)
#    0.000    1.545    2.727    3.818    5.091    4.000 
#    0.000    0.909    0.000    0.000    0.000    0.000 
#    0.000    0.000    0.000    4.909    0.000    2.273 
#
# Total GULP energy -545262.579904 kJ/mol
# GULP energy per Si atom -12392.331361 kJ/mol
# Density = 1.721241 g / cm^3
# Si number density = 17.251676 Si / 1000 Ang^3
#
#
#
# Elastic Constant Matrix: (Units=GPa)
#
#
# Indices 1 2 3 4 5 6 
#
# 1 83.4918 33.4666 40.8298 0.0000 0.0000 0.0000
# 2 33.4666 154.2420 61.9173 0.0000 0.0000 0.0000
# 3 40.8298 61.9173 135.7415 0.0000 0.0000 0.0000
# 4 0.0000 0.0000 0.0000 21.2757 0.0000 0.0000
# 5 0.0000 0.0000 0.0000 0.0000 -12.2312 0.0000
# 6 0.0000 0.0000 0.0000 0.0000 0.0000 23.5841
#
#
#
# Elastic Compliance Matrix: (Units=1/GPa)
#
#
# Indices 1 2 3 4 5 6 
#
# 1 0.014396 -0.001696 -0.003557 0.000000 0.000000 0.000000
# 2 -0.001696 0.008136 -0.003201 0.000000 0.000000 0.000000
# 3 -0.003557 -0.003201 0.009897 0.000000 0.000000 0.000000
# 4 0.000000 0.000000 0.000000 0.047002 0.000000 0.000000
# 5 0.000000 0.000000 0.000000 0.000000 -0.081758 0.000000
# 6 0.000000 0.000000 0.000000 0.000000 0.000000 0.042401
#
#
# Mechanical properties :
#
#
# Convention : Reuss Voigt Hill
#
# Bulk Modulus (GPa) = 64.42455 71.76696 68.09575
# Shear Modulus (GPa) = 80.44241 22.34317 51.39279
#
# Velocity S-wave (km/s) = 6.83593 3.60270 5.46395
# Velocity P-wave (km/s) = 9.98657 7.68090 8.90864
#
# Compressibility (1/GPa) = 0.01552203
#
# Stress axis : x y z
#
# Youngs Moduli (GPa) = 69.46215 122.90531 101.04088
#
# Poissons Ratio (x) = 0.20843 0.35937
# Poissons Ratio (y) = 0.11780 0.32345
# Poissons Ratio (z) = 0.24706 0.39345
#
# Static dielectric constant tensor:
#      x y z
#    x 2.741360 0.000000 0.000000 
#    y 0.000000 3.460990 0.000000 
#    z 0.000000 0.000000 3.500110 
# 
# 
# High freq. dielectric constant tensor:
#      x y z
#    x 1.597170 0.000000 0.000000 
#    y 0.000000 1.687440 0.000000 
#    z 0.000000 0.000000 1.680380 
# 
# From -- ./inp_files/71118.got.cif
#   From: 2010.03.12/outbox.cif.g09.slc.cpg/sg65_36_cif.got.tgz:71118.got - 2010.04.10 20:52:16.
