data_PCOD8274688
_publ_section_title
;
Structure prediction by ZEFSAII (Michael W. Deem and Ramdas Pophale) SiO2 
 PCOD8274688
Probable space group: C M M M
;
_chemical_formula_sum "Si O2"
_cell_formula_units_Z 96
_cell_length_a 14.528916
_cell_length_b 17.870428
_cell_length_c 18.814456
_cell_angle_alpha 90.000000
_cell_angle_beta 90.000000
_cell_angle_gamma 90.000000
_cell_volume 4884.946735
_symmetry_space_group_name_H-M "C M M M"
_symmetry_group_IT_number 65
_symmetry_cell_setting 'orthorhombic'
loop_
_space_group_symop_operation_xyz
x,y,z
-x,-y,z
x,-y,-z
-x,y,-z
-x,-y,-z
x,y,-z
-x,y,z
x,-y,z
1/2+x,1/2+y,z
1/2-x,1/2-y,z
1/2+x,1/2-y,-z
1/2-x,1/2+y,-z
1/2-x,1/2-y,-z
1/2+x,1/2+y,-z
1/2-x,1/2+y,z
1/2+x,1/2-y,z
loop_
_atom_site_type_symbol
_atom_site_label
_atom_site_fract_x
_atom_site_fract_y
_atom_site_fract_z
Si Si1 0.895587 0.913315 0.417329
Si Si2 0.396029 0.085616 0.774229
Si Si3 0.765200 0.162829 0.693693
Si Si4 0.361794 0.668543 0.078053
Si Si5 0.100678 0.916385 0.208576
Si Si6 0.855449 0.663068 0.919646
O O1 0.875302 0.901841 0.500000
O O2 0.813671 0.870740 0.376441
O O3 0.000000 0.884501 0.399810
O O4 0.889152 0.000000 0.395625
O O5 0.500000 0.095926 0.746630
O O6 0.332606 0.128324 0.716717
O O7 0.392668 0.111318 0.856557
O O8 0.364697 0.000000 0.773136
O O9 0.750000 0.250000 0.681730
O O10 0.834949 0.146514 0.757647
O O11 0.410963 0.607868 0.127383
O O12 0.253284 0.660815 0.083817
O O13 0.391580 0.753308 0.096491
O O14 0.396540 0.648415 0.000000
O O15 0.000000 0.916075 0.245066
O O16 0.143303 0.000000 0.214875
O O17 0.887399 0.638085 0.000000
#
# Coordination Sequence:
#
# PCOD8274688 Si02
#       6
#    16  16  16  16  16  16
#     4   9  19  39  69 101 128 154 186 226 274 331
#     4  11  24  39  55  79 112 151 199 248 292 342
#     4  12  24  38  60  87 120 156 192 233 283 334
#     4   9  18  33  53  78 108 142 183 235 301 368
#     4  11  23  37  56  83 113 148 192 241 297 358
#     4   9  18  34  55  77 104 143 193 247 303 355
#
# _framework density 19.652211000000001
#
# number of rings (size 3 to 8) (size 9 to 14) (size 15 to 20)
#    0.000    1.833    1.667    4.500    0.000    6.333 
#    0.000    5.000    0.000    0.500    0.000    2.333 
#    0.000    0.000    0.000    0.000    0.000    0.000 
#
# Total GULP energy -594806.282553 kJ/mol
# GULP energy per Si atom -12391.797553 kJ/mol
# Density = 1.960748 g / cm^3
# Si number density = 19.652211 Si / 1000 Ang^3
#
#
#
# Elastic Constant Matrix: (Units=GPa)
#
#
# Indices 1 2 3 4 5 6 
#
# 1 106.0702 51.2400 43.1818 0.0000 0.0000 0.0000
# 2 51.2400 117.2345 59.5486 0.0000 0.0000 0.0000
# 3 43.1818 59.5486 108.7527 0.0000 0.0000 0.0000
# 4 0.0000 0.0000 0.0000 30.2114 0.0000 0.0000
# 5 0.0000 0.0000 0.0000 0.0000 -94.6153 0.0000
# 6 0.0000 0.0000 0.0000 0.0000 0.0000 57.4680
#
#
#
# Elastic Compliance Matrix: (Units=1/GPa)
#
#
# Indices 1 2 3 4 5 6 
#
# 1 0.012512 -0.004080 -0.002734 0.000000 0.000000 0.000000
# 2 -0.004080 0.013147 -0.005579 0.000000 0.000000 0.000000
# 3 -0.002734 -0.005579 0.013335 0.000000 0.000000 0.000000
# 4 0.000000 0.000000 0.000000 0.033100 0.000000 0.000000
# 5 0.000000 0.000000 0.000000 0.000000 -0.010569 0.000000
# 6 0.000000 0.000000 0.000000 0.000000 0.000000 0.017401
#
#
# Mechanical properties :
#
#
# Convention : Reuss Voigt Hill
#
# Bulk Modulus (GPa) = 70.37875 71.11093 70.74484
# Shear Modulus (GPa) = 46.10552 10.48528 28.29540
#
# Velocity S-wave (km/s) = 4.84888 2.31236 3.79860
# Velocity P-wave (km/s) = 8.19992 6.58731 7.43745
#
# Compressibility (1/GPa) = 0.01420883
#
# Stress axis : x y z
#
# Youngs Moduli (GPa) = 79.92596 76.06454 74.98828
#
# Poissons Ratio (x) = 0.31032 0.20502
# Poissons Ratio (y) = 0.32608 0.41834
# Poissons Ratio (z) = 0.21852 0.42434
#
# Static dielectric constant tensor:
#      x y z
#    x 3.667970 0.000000 0.000000 
#    y 0.000000 3.541770 0.000000 
#    z 0.000000 0.000000 3.673750 
# 
# 
# High freq. dielectric constant tensor:
#      x y z
#    x 1.773420 0.000000 0.000000 
#    y 0.000000 1.755210 0.000000 
#    z 0.000000 0.000000 1.756100 
# 
# From -- ./inp_files/62641.got.cif
#   From: 2010.03.12/outbox.cif.g09.slc.cpg/sg65_32_cif.got.tgz:62641.got - 2010.04.10 20:52:16.
