data_PCOD8274837
_publ_section_title
;
Structure prediction by ZEFSAII (Michael W. Deem and Ramdas Pophale) SiO2 
 PCOD8274837
Probable space group: C M M M
;
_chemical_formula_sum "Si O2"
_cell_formula_units_Z 56
_cell_length_a 18.743392
_cell_length_b 8.836841
_cell_length_c 19.313005
_cell_angle_alpha 90.000000
_cell_angle_beta 90.000000
_cell_angle_gamma 90.000000
_cell_volume 3198.858885
_symmetry_space_group_name_H-M "C M M M"
_symmetry_group_IT_number 65
_symmetry_cell_setting 'orthorhombic'
loop_
_space_group_symop_operation_xyz
x,y,z
-x,-y,z
x,-y,-z
-x,y,-z
-x,-y,-z
x,y,-z
-x,y,z
x,-y,z
1/2+x,1/2+y,z
1/2-x,1/2-y,z
1/2+x,1/2-y,-z
1/2-x,1/2+y,-z
1/2-x,1/2-y,-z
1/2+x,1/2+y,-z
1/2-x,1/2+y,z
1/2+x,1/2-y,z
loop_
_atom_site_type_symbol
_atom_site_label
_atom_site_fract_x
_atom_site_fract_y
_atom_site_fract_z
Si Si1 0.578832 0.671614 0.192381
Si Si2 0.917504 0.172741 0.420869
Si Si3 0.173228 0.322434 0.306221
Si Si4 0.500000 0.179148 0.079186
O O1 0.500000 0.673740 0.228842
O O2 0.605506 0.500000 0.181923
O O3 0.635330 0.760659 0.237805
O O4 0.570625 0.752910 0.117213
O O5 0.892567 0.192282 0.500000
O O6 0.871982 0.285007 0.374268
O O7 0.000000 0.216446 0.413580
O O8 0.904923 0.000000 0.396319
O O9 0.181473 0.500000 0.298937
O O10 0.250000 0.250000 0.314177
O O11 0.500000 0.000000 0.086245
O O12 0.500000 0.232552 0.000000
#
# Coordination Sequence:
#
# PCOD8274837 Si02
#       4
#    16  16  16   8
#     4   9  19  34  55  80 109 142 177 219 264 315
#     4   9  19  37  59  80 105 138 177 223 275 327
#     4  12  24  36  53  76 108 144 183 227 272 324
#     4   9  17  31  55  87 116 141 176 219 259 305
#
# _framework density 17.506243000000001
#
# number of rings (size 3 to 8) (size 9 to 14) (size 15 to 20)
#    0.857    1.286    0.000    5.143    0.000    6.286 
#    0.000    1.429    0.000    0.857    0.000    0.000 
#    0.000    0.000    0.000    0.000    0.000    0.000 
#
# Total GULP energy -347101.292599 kJ/mol
# GULP energy per Si atom -12396.474736 kJ/mol
# Density = 1.746640 g / cm^3
# Si number density = 17.506243 Si / 1000 Ang^3
#
#
#
# Elastic Constant Matrix: (Units=GPa)
#
#
# Indices 1 2 3 4 5 6 
#
# 1 71.3865 46.6990 46.8944 0.0000 0.0000 0.0000
# 2 46.6990 143.6349 58.4386 0.0000 0.0000 0.0000
# 3 46.8944 58.4386 118.8585 0.0000 0.0000 0.0000
# 4 0.0000 0.0000 0.0000 32.2720 0.0000 0.0000
# 5 0.0000 0.0000 0.0000 0.0000 -2.2028 0.0000
# 6 0.0000 0.0000 0.0000 0.0000 0.0000 24.0656
#
#
#
# Elastic Compliance Matrix: (Units=1/GPa)
#
#
# Indices 1 2 3 4 5 6 
#
# 1 0.020825 -0.004285 -0.006109 0.000000 0.000000 0.000000
# 2 -0.004285 0.009585 -0.003022 0.000000 0.000000 0.000000
# 3 -0.006109 -0.003022 0.012310 0.000000 0.000000 0.000000
# 4 0.000000 0.000000 0.000000 0.030987 0.000000 0.000000
# 5 0.000000 0.000000 0.000000 0.000000 -0.453973 0.000000
# 6 0.000000 0.000000 0.000000 0.000000 0.000000 0.041553
#
#
# Mechanical properties :
#
#
# Convention : Reuss Voigt Hill
#
# Bulk Modulus (GPa) = 62.94679 70.88267 66.91473
# Shear Modulus (GPa) = -16.30859 22.95014 3.32077
#
# Velocity S-wave (km/s) = -3.05550 3.62466 1.37878
# Velocity P-wave (km/s) = 4.85661 7.62203 6.39070
#
# Compressibility (1/GPa) = 0.01588643
#
# Stress axis : x y z
#
# Youngs Moduli (GPa) = 48.01996 104.33299 81.23784
#
# Poissons Ratio (x) = 0.44706 0.49632
# Poissons Ratio (y) = 0.20576 0.24549
# Poissons Ratio (z) = 0.29337 0.31528
#
# Static dielectric constant tensor:
#      x y z
#    x 3.045320 0.000000 0.000000 
#    y 0.000000 3.276790 0.000000 
#    z 0.000000 0.000000 3.194440 
# 
# 
# High freq. dielectric constant tensor:
#      x y z
#    x 1.655870 0.000000 0.000000 
#    y 0.000000 1.688290 0.000000 
#    z 0.000000 0.000000 1.672060 
# 
# From -- ./inp_files/62177.got.cif
#   From: 2010.03.12/outbox.cif.g09.slc.cpg/sg65_32_cif.got.tgz:62177.got - 2010.04.10 20:52:16.
