data_PCOD8274130
_publ_section_title
;
Structure prediction by ZEFSAII (Michael W. Deem and Ramdas Pophale) SiO2 
 PCOD8274130
Probable space group: C M M M
;
_chemical_formula_sum "Si O2"
_cell_formula_units_Z 56
_cell_length_a 24.646790
_cell_length_b 10.529333
_cell_length_c 11.636956
_cell_angle_alpha 90.000000
_cell_angle_beta 90.000000
_cell_angle_gamma 90.000000
_cell_volume 3019.956017
_symmetry_space_group_name_H-M "C M M M"
_symmetry_group_IT_number 65
_symmetry_cell_setting 'orthorhombic'
loop_
_space_group_symop_operation_xyz
x,y,z
-x,-y,z
x,-y,-z
-x,y,-z
-x,-y,-z
x,y,-z
-x,y,z
x,-y,z
1/2+x,1/2+y,z
1/2-x,1/2-y,z
1/2+x,1/2-y,-z
1/2-x,1/2+y,-z
1/2-x,1/2-y,-z
1/2+x,1/2+y,-z
1/2-x,1/2+y,z
1/2+x,1/2-y,z
loop_
_atom_site_type_symbol
_atom_site_label
_atom_site_fract_x
_atom_site_fract_y
_atom_site_fract_z
Si Si1 0.064156 0.000000 0.362819
Si Si2 0.900238 0.739982 0.270035
Si Si3 0.702669 0.851935 0.131936
Si Si4 0.500000 0.143303 0.864686
Si Si5 0.058437 0.358092 0.500000
O O1 0.096419 0.113574 0.303170
O O2 0.073173 0.000000 0.500000
O O3 0.000000 0.000000 0.333475
O O4 0.844417 0.695463 0.215056
O O5 0.906336 0.665108 0.388182
O O6 0.947085 0.712805 0.179587
O O7 0.750000 0.750000 0.153506
O O8 0.719048 0.000000 0.159704
O O9 0.683043 0.844126 0.000000
O O10 0.500000 0.000000 0.817604
O O11 0.500000 0.148143 0.000000
O O12 0.039659 0.500000 0.500000
O O13 0.000000 0.279098 0.500000
#
# Coordination Sequence:
#
# PCOD8274130 Si02
#       5
#     8  16  16   8   8
#     4  11  22  40  60  90 130 172 204 247 310 371
#     4  12  22  38  61  90 123 164 206 253 310 370
#     4  10  23  44  68  93 123 163 210 261 315 370
#     4  11  22  36  57  88 124 158 196 251 314 373
#     4  11  20  33  58  91 123 157 201 249 305 374
#
# _framework density 18.543316000000001
#
# number of rings (size 3 to 8) (size 9 to 14) (size 15 to 20)
#    0.000    1.000    4.286    3.429    2.000    2.286 
#    0.000    3.571    0.000    0.000    0.000    0.000 
#    0.000    0.000    0.000    0.000    0.000    0.000 
#
# Total GULP energy -347024.132576 kJ/mol
# GULP energy per Si atom -12393.719021 kJ/mol
# Density = 1.850111 g / cm^3
# Si number density = 18.543316 Si / 1000 Ang^3
#
#
#
# Elastic Constant Matrix: (Units=GPa)
#
#
# Indices 1 2 3 4 5 6 
#
# 1 121.2307 62.7812 72.0035 0.0000 0.0000 0.0000
# 2 62.7812 160.6066 56.7215 0.0000 0.0000 0.0000
# 3 72.0035 56.7215 109.8393 0.0000 0.0000 0.0000
# 4 0.0000 0.0000 0.0000 35.9263 0.0000 0.0000
# 5 0.0000 0.0000 0.0000 0.0000 32.5422 0.0000
# 6 0.0000 0.0000 0.0000 0.0000 0.0000 31.6184
#
#
#
# Elastic Compliance Matrix: (Units=1/GPa)
#
#
# Indices 1 2 3 4 5 6 
#
# 1 0.014484 -0.002824 -0.008037 0.000000 0.000000 0.000000
# 2 -0.002824 0.008166 -0.002366 0.000000 0.000000 0.000000
# 3 -0.008037 -0.002366 0.015594 0.000000 0.000000 0.000000
# 4 0.000000 0.000000 0.000000 0.027835 0.000000 0.000000
# 5 0.000000 0.000000 0.000000 0.000000 0.030729 0.000000
# 6 0.000000 0.000000 0.000000 0.000000 0.000000 0.031627
#
#
# Mechanical properties :
#
#
# Convention : Reuss Voigt Hill
#
# Bulk Modulus (GPa) = 84.80446 86.07654 85.44050
# Shear Modulus (GPa) = 31.48236 33.36206 32.42221
#
# Velocity S-wave (km/s) = 4.12488 4.24623 4.18599
# Velocity P-wave (km/s) = 8.27760 8.40003 8.33904
#
# Compressibility (1/GPa) = 0.01179183
#
# Stress axis : x y z
#
# Youngs Moduli (GPa) = 69.03985 122.46390 64.12549
#
# Poissons Ratio (x) = 0.34578 0.51537
# Poissons Ratio (y) = 0.19494 0.15171
# Poissons Ratio (z) = 0.55487 0.28973
#
# Static dielectric constant tensor:
#      x y z
#    x 2.987250 0.000000 0.000000 
#    y 0.000000 3.780350 0.000000 
#    z 0.000000 0.000000 3.491910 
# 
# 
# High freq. dielectric constant tensor:
#      x y z
#    x 1.701270 0.000000 0.000000 
#    y 0.000000 1.740610 0.000000 
#    z 0.000000 0.000000 1.730270 
# 
# From -- ./inp_files/30060.got.cif
#   From: 2010.03.12/outbox.cif.g09.slc.cpg/sg65_16_cif.got.tgz:30060.got - 2010.04.10 20:52:16.
