data_PCOD8274649
_publ_section_title
;
Structure prediction by ZEFSAII (Michael W. Deem and Ramdas Pophale) SiO2 
 PCOD8274649
Probable space group: C M M M
;
_chemical_formula_sum "Si O2"
_cell_formula_units_Z 88
_cell_length_a 9.574098
_cell_length_b 30.564397
_cell_length_c 16.928115
_cell_angle_alpha 90.000000
_cell_angle_beta 90.000000
_cell_angle_gamma 90.000000
_cell_volume 4953.615589
_symmetry_space_group_name_H-M "C M M M"
_symmetry_group_IT_number 65
_symmetry_cell_setting 'orthorhombic'
loop_
_space_group_symop_operation_xyz
x,y,z
-x,-y,z
x,-y,-z
-x,y,-z
-x,-y,-z
x,y,-z
-x,y,z
x,-y,z
1/2+x,1/2+y,z
1/2-x,1/2-y,z
1/2+x,1/2-y,-z
1/2-x,1/2+y,-z
1/2-x,1/2-y,-z
1/2+x,1/2+y,-z
1/2-x,1/2+y,z
1/2+x,1/2-y,z
loop_
_atom_site_type_symbol
_atom_site_label
_atom_site_fract_x
_atom_site_fract_y
_atom_site_fract_z
Si Si1 0.837312 0.612758 0.199006
Si Si2 0.666255 0.790417 0.755311
Si Si3 0.339233 0.450661 0.907294
Si Si4 0.656229 0.089931 0.624982
Si Si5 0.841695 0.311000 0.584210
Si Si6 0.848469 0.949788 0.500000
O O1 0.797834 0.664491 0.199189
O O2 0.751146 0.586682 0.134058
O O3 0.801170 0.591994 0.283499
O O4 0.000000 0.607563 0.179443
O O5 0.500000 0.782424 0.757319
O O6 0.750000 0.750000 0.795729
O O7 0.726352 0.792796 0.664779
O O8 0.500000 0.443582 0.883842
O O9 0.292526 0.500000 0.882528
O O10 0.317772 0.444638 0.000000
O O11 0.500000 0.070500 0.616326
O O12 0.661854 0.137010 0.585478
O O13 0.764862 0.059890 0.579823
O O14 0.769770 0.296182 0.500000
O O15 0.000000 0.294435 0.583401
O O16 0.000000 0.925304 0.500000
O O17 0.880088 0.000000 0.500000
#
# Coordination Sequence:
#
# PCOD8274649 Si02
#       6
#    16  16  16  16  16   8
#     4   9  19  34  54  80 105 134 173 215 257 302
#     4   9  18  31  47  71 102 134 171 213 256 304
#     4   9  19  36  57  82 111 139 165 198 250 316
#     4   9  17  32  51  66  86 125 172 209 247 299
#     4   8  13  25  47  66  84 119 163 207 253 295
#     4  11  23  33  41  61  94 127 162 211 264 303
#
# _framework density 17.764800999999999
#
# number of rings (size 3 to 8) (size 9 to 14) (size 15 to 20)
#    0.000    3.000    0.909    3.000    0.000    4.000 
#    0.000    7.273    0.000    0.545    0.000    0.000 
#    0.000    0.000    0.000    0.000    0.000    0.000 
#
# Total GULP energy -545093.957903 kJ/mol
# GULP energy per Si atom -12388.499043 kJ/mol
# Density = 1.772437 g / cm^3
# Si number density = 17.764801 Si / 1000 Ang^3
#
#
#
# Elastic Constant Matrix: (Units=GPa)
#
#
# Indices 1 2 3 4 5 6 
#
# 1 78.4788 58.9110 41.5642 0.0000 0.0000 0.0000
# 2 58.9110 110.0237 49.4188 0.0000 0.0000 0.0000
# 3 41.5642 49.4188 64.3598 0.0000 0.0000 0.0000
# 4 0.0000 0.0000 0.0000 16.0598 0.0000 0.0000
# 5 0.0000 0.0000 0.0000 0.0000 8.6607 0.0000
# 6 0.0000 0.0000 0.0000 0.0000 0.0000 31.3711
#
#
#
# Elastic Compliance Matrix: (Units=1/GPa)
#
#
# Indices 1 2 3 4 5 6 
#
# 1 0.024082 -0.009020 -0.008627 0.000000 0.000000 0.000000
# 2 -0.009020 0.017252 -0.007422 0.000000 0.000000 0.000000
# 3 -0.008627 -0.007422 0.026808 0.000000 0.000000 0.000000
# 4 0.000000 0.000000 0.000000 0.062267 0.000000 0.000000
# 5 0.000000 0.000000 0.000000 0.000000 0.115464 0.000000
# 6 0.000000 0.000000 0.000000 0.000000 0.000000 0.031876
#
#
# Mechanical properties :
#
#
# Convention : Reuss Voigt Hill
#
# Bulk Modulus (GPa) = 55.53946 61.40561 58.47253
# Shear Modulus (GPa) = 14.97508 18.08287 16.52898
#
# Velocity S-wave (km/s) = 2.90653 3.19392 3.05361
# Velocity P-wave (km/s) = 6.52653 6.94568 6.73936
#
# Compressibility (1/GPa) = 0.01800522
#
# Stress axis : x y z
#
# Youngs Moduli (GPa) = 41.52521 57.96375 37.30247
#
# Poissons Ratio (x) = 0.52281 0.32179
# Poissons Ratio (y) = 0.37454 0.27687
# Poissons Ratio (z) = 0.35822 0.43022
#
# Static dielectric constant tensor:
#      x y z
#    x 3.109030 0.000000 0.000000 
#    y 0.000000 3.194460 0.000000 
#    z 0.000000 0.000000 2.954780 
# 
# 
# High freq. dielectric constant tensor:
#      x y z
#    x 1.668990 0.000000 0.000000 
#    y 0.000000 1.683760 0.000000 
#    z 0.000000 0.000000 1.670440 
# 
# From -- ./inp_files/50300.got.cif
#   From: 2010.03.12/outbox.cif.g09.slc.cpg/sg65_26_cif.got.tgz:50300.got - 2010.04.10 20:52:16.
