data_PCOD8274030
_publ_section_title
;
Structure prediction by ZEFSAII (Michael W. Deem and Ramdas Pophale) SiO2 
 PCOD8274030
Probable space group: C M M M
;
_chemical_formula_sum "Si O2"
_cell_formula_units_Z 64
_cell_length_a 34.920371
_cell_length_b 8.821018
_cell_length_c 10.435460
_cell_angle_alpha 90.000000
_cell_angle_beta 90.000000
_cell_angle_gamma 90.000000
_cell_volume 3214.468358
_symmetry_space_group_name_H-M "C M M M"
_symmetry_group_IT_number 65
_symmetry_cell_setting 'orthorhombic'
loop_
_space_group_symop_operation_xyz
x,y,z
-x,-y,z
x,-y,-z
-x,y,-z
-x,-y,-z
x,y,-z
-x,y,z
x,-y,z
1/2+x,1/2+y,z
1/2-x,1/2-y,z
1/2+x,1/2-y,-z
1/2-x,1/2+y,-z
1/2-x,1/2-y,-z
1/2+x,1/2+y,-z
1/2-x,1/2+y,z
1/2+x,1/2-y,z
loop_
_atom_site_type_symbol
_atom_site_label
_atom_site_fract_x
_atom_site_fract_y
_atom_site_fract_z
Si Si1 0.147932 0.323292 0.646610
Si Si2 0.790460 0.678272 0.144725
Si Si3 0.427721 0.321299 0.253462
Si Si4 0.000000 0.664308 0.356839
Si Si5 0.544699 0.821318 0.000000
O O1 0.161835 0.294575 0.500000
O O2 0.138832 0.500000 0.668617
O O3 0.179479 0.265006 0.748502
O O4 0.110051 0.227732 0.671693
O O5 0.785521 0.500000 0.153254
O O6 0.750000 0.750000 0.180126
O O7 0.803449 0.726291 0.000000
O O8 0.428217 0.500000 0.235769
O O9 0.463580 0.267585 0.334613
O O10 0.431099 0.241697 0.117240
O O11 0.000000 0.500000 0.278392
O O12 0.000000 0.611268 0.500000
O O13 0.500000 0.765675 0.000000
O O14 0.546725 0.000000 0.000000
#
# Coordination Sequence:
#
# PCOD8274030 Si02
#       5
#    16  16  16   8   8
#     4  10  22  40  61  87 121 163 208 249 296 364
#     4   9  19  37  61  89 119 156 199 247 302 359
#     4  12  25  39  59  89 122 153 196 254 309 356
#     4  11  23  40  61  82 111 159 209 247 296 365
#     4  11  23  41  65  87 113 156 203 246 302 368
#
# _framework density 19.909977999999999
#
# number of rings (size 3 to 8) (size 9 to 14) (size 15 to 20)
#    0.000    1.500    1.250    3.750    1.750    6.500 
#    0.000    0.000    0.000    0.000    0.000    0.000 
#    0.000    0.000    0.000    0.000    0.000    0.000 
#
# Total GULP energy -396737.242966 kJ/mol
# GULP energy per Si atom -12398.038843 kJ/mol
# Density = 1.986466 g / cm^3
# Si number density = 19.909978 Si / 1000 Ang^3
#
#
#
# Elastic Constant Matrix: (Units=GPa)
#
#
# Indices 1 2 3 4 5 6 
#
# 1 138.8897 41.6643 70.1100 0.0000 0.0000 0.0000
# 2 41.6643 82.4971 40.3267 0.0000 0.0000 0.0000
# 3 70.1100 40.3267 141.8112 0.0000 0.0000 0.0000
# 4 0.0000 0.0000 0.0000 24.5299 0.0000 0.0000
# 5 0.0000 0.0000 0.0000 0.0000 87.7098 0.0000
# 6 0.0000 0.0000 0.0000 0.0000 0.0000 49.0563
#
#
#
# Elastic Compliance Matrix: (Units=1/GPa)
#
#
# Indices 1 2 3 4 5 6 
#
# 1 0.010248 -0.003135 -0.004175 0.000000 0.000000 0.000000
# 2 -0.003135 0.015038 -0.002726 0.000000 0.000000 0.000000
# 3 -0.004175 -0.002726 0.009891 0.000000 0.000000 0.000000
# 4 0.000000 0.000000 0.000000 0.040767 0.000000 0.000000
# 5 0.000000 0.000000 0.000000 0.000000 0.011401 0.000000
# 6 0.000000 0.000000 0.000000 0.000000 0.000000 0.020385
#
#
# Mechanical properties :
#
#
# Convention : Reuss Voigt Hill
#
# Bulk Modulus (GPa) = 66.20726 74.15555 70.18140
# Shear Modulus (GPa) = 37.64042 46.33233 41.98637
#
# Velocity S-wave (km/s) = 4.35274 4.82923 4.59716
# Velocity P-wave (km/s) = 7.65423 8.27173 7.96896
#
# Compressibility (1/GPa) = 0.01510408
#
# Stress axis : x y z
#
# Youngs Moduli (GPa) = 97.58192 66.50024 101.10175
#
# Poissons Ratio (x) = 0.20846 0.42210
# Poissons Ratio (y) = 0.30589 0.27565
# Poissons Ratio (z) = 0.40740 0.18131
#
# Static dielectric constant tensor:
#      x y z
#    x 3.607280 0.000000 0.000000 
#    y 0.000000 3.564070 0.000000 
#    z 0.000000 0.000000 3.995800 
# 
# 
# High freq. dielectric constant tensor:
#      x y z
#    x 1.770520 0.000000 0.000000 
#    y 0.000000 1.776620 0.000000 
#    z 0.000000 0.000000 1.793690 
# 
# From -- ./inp_files/33260.got.cif
#   From: 2010.03.12/outbox.cif.g09.slc.cpg/sg65_17_cif.got.tgz:33260.got - 2010.04.10 20:52:16.
