data_PCOD8274788
_publ_section_title
;
Structure prediction by ZEFSAII (Michael W. Deem and Ramdas Pophale) SiO2 
 PCOD8274788
Probable space group: C M M M
;
_chemical_formula_sum "Si O2"
_cell_formula_units_Z 66
_cell_length_a 8.908501
_cell_length_b 29.839662
_cell_length_c 11.779984
_cell_angle_alpha 90.000000
_cell_angle_beta 90.000000
_cell_angle_gamma 90.000000
_cell_volume 3131.433787
_symmetry_space_group_name_H-M "C M M M"
_symmetry_group_IT_number 65
_symmetry_cell_setting 'orthorhombic'
loop_
_space_group_symop_operation_xyz
x,y,z
-x,-y,z
x,-y,-z
-x,y,-z
-x,-y,-z
x,y,-z
-x,y,z
x,-y,z
1/2+x,1/2+y,z
1/2-x,1/2-y,z
1/2+x,1/2-y,-z
1/2-x,1/2+y,-z
1/2-x,1/2-y,-z
1/2+x,1/2+y,-z
1/2-x,1/2+y,z
1/2+x,1/2-y,z
loop_
_atom_site_type_symbol
_atom_site_label
_atom_site_fract_x
_atom_site_fract_y
_atom_site_fract_z
Si Si1 0.257203 0.076412 0.500000
Si Si2 0.500000 0.000000 0.500000
Si Si3 0.167285 0.051034 0.738684
Si Si4 0.678120 0.295472 0.267620
Si Si5 0.327994 0.126426 0.866363
Si Si6 0.170590 0.677962 0.500000
O O1 0.156773 0.071772 0.612785
O O2 0.335245 0.124582 0.500000
O O3 0.377221 0.038133 0.500000
O O4 0.282370 0.078199 0.816769
O O5 0.000000 0.053183 0.790879
O O6 0.227577 0.000000 0.734963
O O7 0.500000 0.291376 0.272289
O O8 0.750000 0.250000 0.217564
O O9 0.721517 0.335638 0.184149
O O10 0.742296 0.303454 0.392099
O O11 0.500000 0.136115 0.831847
O O12 0.306207 0.125067 0.000000
O O13 0.000000 0.696259 0.500000
#
# Coordination Sequence:
#
# PCOD8274788 Si02
#       6
#     8   2  16  16  16   8
#     4  12  23  36  64  97 138 174 216 265 319 392
#     4  12  24  36  58 112 134 188 222 260 324 390
#     4  11  24  41  65  96 135 175 218 271 328 393
#     4  12  26  45  71 100 134 173 215 270 332 399
#     4  11  26  46  68  95 129 172 225 278 329 390
#     4  12  24  40  66 102 139 176 213 266 325 390
#
# _framework density 21.076606999999999
#
# number of rings (size 3 to 8) (size 9 to 14) (size 15 to 20)
#    0.000    0.485    4.242    4.000    1.697    5.333 
#    0.000    2.424    0.000    0.000    0.000    0.000 
#    0.000    0.000    0.000    0.000    0.000    0.000 
#
# Total GULP energy -408841.542993 kJ/mol
# GULP energy per Si atom -12389.137666 kJ/mol
# Density = 2.102864 g / cm^3
# Si number density = 21.076607 Si / 1000 Ang^3
#
#
#
# Elastic Constant Matrix: (Units=GPa)
#
#
# Indices 1 2 3 4 5 6 
#
# 1 161.3071 49.5599 50.7676 0.0000 0.0000 0.0000
# 2 49.5599 115.5624 35.1791 0.0000 0.0000 0.0000
# 3 50.7676 35.1791 101.9101 0.0000 0.0000 0.0000
# 4 0.0000 0.0000 0.0000 25.6842 0.0000 0.0000
# 5 0.0000 0.0000 0.0000 0.0000 448.8110 0.0000
# 6 0.0000 0.0000 0.0000 0.0000 0.0000 41.6231
#
#
#
# Elastic Compliance Matrix: (Units=1/GPa)
#
#
# Indices 1 2 3 4 5 6 
#
# 1 0.007931 -0.002457 -0.003103 0.000000 0.000000 0.000000
# 2 -0.002457 0.010430 -0.002377 0.000000 0.000000 0.000000
# 3 -0.003103 -0.002377 0.012179 0.000000 0.000000 0.000000
# 4 0.000000 0.000000 0.000000 0.038935 0.000000 0.000000
# 5 0.000000 0.000000 0.000000 0.000000 0.002228 0.000000
# 6 0.000000 0.000000 0.000000 0.000000 0.000000 0.024025
#
#
# Mechanical properties :
#
#
# Convention : Reuss Voigt Hill
#
# Bulk Modulus (GPa) = 68.17778 72.19922 70.18850
# Shear Modulus (GPa) = 42.92258 119.44184 81.18221
#
# Velocity S-wave (km/s) = 4.51766 7.53614 6.21299
# Velocity P-wave (km/s) = 7.72206 10.49068 9.21099
#
# Compressibility (1/GPa) = 0.01466753
#
# Stress axis : x y z
#
# Youngs Moduli (GPa) = 126.09352 95.87368 82.11072
#
# Poissons Ratio (x) = 0.23552 0.25477
# Poissons Ratio (y) = 0.30976 0.19516
# Poissons Ratio (z) = 0.39123 0.22787
#
# Static dielectric constant tensor:
#      x y z
#    x 3.880930 0.000000 0.000000 
#    y 0.000000 4.220250 0.000000 
#    z 0.000000 0.000000 3.725380 
# 
# 
# High freq. dielectric constant tensor:
#      x y z
#    x 1.842250 0.000000 0.000000 
#    y 0.000000 1.849430 0.000000 
#    z 0.000000 0.000000 1.808130 
# 
# From -- ./inp_files/21114.got.cif
#   From: 2010.03.12/outbox.cif.g09.slc.cpg/sg65_11_cif.got.tgz:21114.got - 2010.04.10 20:52:16.
