data_PCOD8274087
_publ_section_title
;
Structure prediction by ZEFSAII (Michael W. Deem and Ramdas Pophale) SiO2 
 PCOD8274087
Probable space group: C M M M
;
_chemical_formula_sum "Si O2"
_cell_formula_units_Z 64
_cell_length_a 10.659431
_cell_length_b 32.707240
_cell_length_c 8.920081
_cell_angle_alpha 90.000000
_cell_angle_beta 90.000000
_cell_angle_gamma 90.000000
_cell_volume 3109.902106
_symmetry_space_group_name_H-M "C M M M"
_symmetry_group_IT_number 65
_symmetry_cell_setting 'orthorhombic'
loop_
_space_group_symop_operation_xyz
x,y,z
-x,-y,z
x,-y,-z
-x,y,-z
-x,-y,-z
x,y,-z
-x,y,z
x,-y,z
1/2+x,1/2+y,z
1/2-x,1/2-y,z
1/2+x,1/2-y,-z
1/2-x,1/2+y,-z
1/2-x,1/2-y,-z
1/2+x,1/2+y,-z
1/2-x,1/2+y,z
1/2+x,1/2-y,z
loop_
_atom_site_type_symbol
_atom_site_label
_atom_site_fract_x
_atom_site_fract_y
_atom_site_fract_z
Si Si1 0.500000 0.047040 0.823995
Si Si2 0.743929 0.926601 0.327910
Si Si3 0.641182 0.500000 0.838224
Si Si4 0.500000 0.803633 0.821740
Si Si5 0.246619 0.166061 0.672509
Si Si6 0.000000 0.784530 0.677882
O O1 0.615267 0.071547 0.759716
O O2 0.500000 0.000000 0.768953
O O3 0.500000 0.050229 0.000000
O O4 0.722366 0.938200 0.500000
O O5 0.836495 0.959427 0.256770
O O6 0.796956 0.880944 0.309610
O O7 0.500000 0.500000 0.884941
O O8 0.717130 0.500000 0.000000
O O9 0.627129 0.825496 0.765655
O O10 0.500000 0.757682 0.764167
O O11 0.500000 0.804702 0.000000
O O12 0.277977 0.176327 0.500000
O O13 0.126809 0.192041 0.728223
O O14 0.000000 0.777626 0.500000
#
# Coordination Sequence:
#
# PCOD8274087 Si02
#       6
#     8  16   8   8  16   8
#     4  11  22  37  58  84 121 161 201 245 304 373
#     4  11  23  39  64  93 121 155 208 263 304 353
#     4  11  25  42  59  84 123 169 207 243 304 375
#     4  12  25  41  64  96 131 165 206 252 309 377
#     4  10  23  42  66  95 126 163 209 260 314 371
#     4  10  22  43  69  93 124 164 206 255 315 376
#
# _framework density 20.579426999999999
#
# number of rings (size 3 to 8) (size 9 to 14) (size 15 to 20)
#    0.000    1.250    1.250    4.125    1.750   10.500 
#    0.000    0.000    0.000    0.000    0.000    0.000 
#    0.000    0.000    0.000    0.000    0.000    0.000 
#
# Total GULP energy -396766.116299 kJ/mol
# GULP energy per Si atom -12398.941134 kJ/mol
# Density = 2.053259 g / cm^3
# Si number density = 20.579427 Si / 1000 Ang^3
#
#
#
# Elastic Constant Matrix: (Units=GPa)
#
#
# Indices 1 2 3 4 5 6 
#
# 1 119.2220 39.0637 44.1235 0.0000 0.0000 0.0000
# 2 39.0637 126.4272 50.9596 0.0000 0.0000 0.0000
# 3 44.1235 50.9596 97.2659 0.0000 0.0000 0.0000
# 4 0.0000 0.0000 0.0000 -1.0898 0.0000 0.0000
# 5 0.0000 0.0000 0.0000 0.0000 20.3105 0.0000
# 6 0.0000 0.0000 0.0000 0.0000 0.0000 6.2891
#
#
#
# Elastic Compliance Matrix: (Units=1/GPa)
#
#
# Indices 1 2 3 4 5 6 
#
# 1 0.010346 -0.001654 -0.003827 0.000000 0.000000 0.000000
# 2 -0.001654 0.010292 -0.004642 0.000000 0.000000 0.000000
# 3 -0.003827 -0.004642 0.014449 0.000000 0.000000 0.000000
# 4 0.000000 0.000000 0.000000 -0.917564 0.000000 0.000000
# 5 0.000000 0.000000 0.000000 0.000000 0.049236 0.000000
# 6 0.000000 0.000000 0.000000 0.000000 0.000000 0.159004
#
#
# Mechanical properties :
#
#
# Convention : Reuss Voigt Hill
#
# Bulk Modulus (GPa) = 67.37857 67.91209 67.64533
# Shear Modulus (GPa) = -7.70362 19.01986 5.65812
#
# Velocity S-wave (km/s) = -1.93688 3.04339 1.65993
# Velocity P-wave (km/s) = 5.27350 6.73953 6.05108
#
# Compressibility (1/GPa) = 0.01484151
#
# Stress axis : x y z
#
# Youngs Moduli (GPa) = 96.65608 97.16524 69.20987
#
# Poissons Ratio (x) = 0.16074 0.26484
# Poissons Ratio (y) = 0.15990 0.32124
# Poissons Ratio (z) = 0.36986 0.45100
#
# Static dielectric constant tensor:
#      x y z
#    x 3.692350 0.000000 0.000000 
#    y 0.000000 3.979240 0.000000 
#    z 0.000000 0.000000 3.775500 
# 
# 
# High freq. dielectric constant tensor:
#      x y z
#    x 1.811000 0.000000 0.000000 
#    y 0.000000 1.819090 0.000000 
#    z 0.000000 0.000000 1.808100 
# 
# From -- ./inp_files/5022.got.cif
#   From: 2010.03.12/outbox.cif.g09.slc.cpg/sg65_3_cif.got.tgz:5022.got - 2010.04.10 20:52:16.
