data_PCOD8274897
_publ_section_title
;
Structure prediction by ZEFSAII (Michael W. Deem and Ramdas Pophale) SiO2 
 PCOD8274897
Probable space group: C M M M
;
_chemical_formula_sum "Si O2"
_cell_formula_units_Z 120
_cell_length_a 29.455371
_cell_length_b 9.414933
_cell_length_c 25.487161
_cell_angle_alpha 90.000000
_cell_angle_beta 90.000000
_cell_angle_gamma 90.000000
_cell_volume 7068.108268
_symmetry_space_group_name_H-M "C M M M"
_symmetry_group_IT_number 65
_symmetry_cell_setting 'orthorhombic'
loop_
_space_group_symop_operation_xyz
x,y,z
-x,-y,z
x,-y,-z
-x,y,-z
-x,-y,-z
x,y,-z
-x,y,z
x,-y,z
1/2+x,1/2+y,z
1/2-x,1/2-y,z
1/2+x,1/2-y,-z
1/2-x,1/2+y,-z
1/2-x,1/2-y,-z
1/2+x,1/2+y,-z
1/2-x,1/2+y,z
1/2+x,1/2-y,z
loop_
_atom_site_type_symbol
_atom_site_label
_atom_site_fract_x
_atom_site_fract_y
_atom_site_fract_z
Si Si1 0.794123 0.334976 0.255840
Si Si2 0.052404 0.669364 0.000000
Si Si3 0.948893 0.335132 0.806019
Si Si4 0.858104 0.667955 0.651161
Si Si5 0.891467 0.669162 0.099728
Si Si6 0.704391 0.165747 0.440806
Si Si7 0.205228 0.334543 0.135297
Si Si8 0.450700 0.830323 0.310410
O O1 0.783256 0.500000 0.263295
O O2 0.750000 0.250000 0.273401
O O3 0.834108 0.285111 0.294666
O O4 0.807452 0.300723 0.195827
O O5 0.080807 0.728182 0.950205
O O6 0.051525 0.500000 0.000000
O O7 0.000000 0.725574 0.000000
O O8 0.936879 0.500000 0.801697
O O9 0.914911 0.265027 0.848183
O O10 0.942929 0.267960 0.748213
O O11 0.000000 0.312711 0.826748
O O12 0.858765 0.500000 0.647371
O O13 0.833215 0.727161 0.599350
O O14 0.910013 0.725990 0.652514
O O15 0.895177 0.500000 0.100594
O O16 0.838081 0.712836 0.099925
O O17 0.686916 0.192726 0.500000
O O18 0.750000 0.250000 0.429336
O O19 0.714339 0.000000 0.431067
O O20 0.216011 0.500000 0.127779
O O21 0.250000 0.250000 0.116989
O O22 0.500000 0.778986 0.331968
O O23 0.450330 0.000000 0.307206
#
# Coordination Sequence:
#
# PCOD8274897 Si02
#       8
#    16   8  16  16  16  16  16  16
#     4   9  16  25  38  57  80 104 129 158 192 228
#     4   9  16  24  35  54  79 103 125 153 194 239
#     4   8  12  18  30  49  73  99 125 154 190 232
#     4   9  15  23  36  53  75 103 131 158 191 230
#     4   9  15  23  35  51  74 103 130 156 191 232
#     4   9  17  28  41  57  78 103 129 158 192 229
#     4   9  17  28  41  57  79 106 133 160 189 223
#     4   8  13  20  31  49  72  98 127 156 187 226
#
# _framework density 16.977668999999999
#
# number of rings (size 3 to 8) (size 9 to 14) (size 15 to 20)
#    0.000    3.267    0.000    2.400    0.000    4.800 
#    0.000    0.333    0.000    0.400    0.000    2.800 
#    0.000    4.800    0.000   23.067    0.000   22.667 
#
# Total GULP energy -743414.817578 kJ/mol
# GULP energy per Si atom -12390.246960 kJ/mol
# Density = 1.693903 g / cm^3
# Si number density = 16.977669 Si / 1000 Ang^3
#
#
#
# Elastic Constant Matrix: (Units=GPa)
#
#
# Indices 1 2 3 4 5 6 
#
# 1 160.3866 22.2555 81.8536 0.0000 0.0000 0.0000
# 2 22.2555 13.2561 13.1629 0.0000 0.0000 0.0000
# 3 81.8536 13.1629 89.5742 0.0000 0.0000 0.0000
# 4 0.0000 0.0000 0.0000 8.2523 0.0000 0.0000
# 5 0.0000 0.0000 0.0000 0.0000 30.8365 0.0000
# 6 0.0000 0.0000 0.0000 0.0000 0.0000 14.9888
#
#
#
# Elastic Compliance Matrix: (Units=1/GPa)
#
#
# Indices 1 2 3 4 5 6 
#
# 1 0.013098 -0.011831 -0.010230 0.000000 0.000000 0.000000
# 2 -0.011831 0.099012 -0.003738 0.000000 0.000000 0.000000
# 3 -0.010230 -0.003738 0.021062 0.000000 0.000000 0.000000
# 4 0.000000 0.000000 0.000000 0.121179 0.000000 0.000000
# 5 0.000000 0.000000 0.000000 0.000000 0.032429 0.000000
# 6 0.000000 0.000000 0.000000 0.000000 0.000000 0.066716
#
#
# Mechanical properties :
#
#
# Convention : Reuss Voigt Hill
#
# Bulk Modulus (GPa) = 12.25908 55.30673 33.78290
# Shear Modulus (GPa) = 11.56642 20.54518 16.05580
#
# Velocity S-wave (km/s) = 2.61295 3.48247 3.07856
# Velocity P-wave (km/s) = 4.04224 6.98691 5.70775
#
# Compressibility (1/GPa) = 0.08157218
#
# Stress axis : x y z
#
# Youngs Moduli (GPa) = 76.34988 10.09976 47.47973
#
# Poissons Ratio (x) = 0.11949 0.48572
# Poissons Ratio (y) = 0.90331 0.17749
# Poissons Ratio (z) = 0.78107 0.03776
#
# Static dielectric constant tensor:
#      x y z
#    x 3.501030 0.000000 0.000000 
#    y 0.000000 2.567870 0.000000 
#    z 0.000000 0.000000 3.309690 
# 
# 
# High freq. dielectric constant tensor:
#      x y z
#    x 1.666270 0.000000 0.000000 
#    y 0.000000 1.578840 0.000000 
#    z 0.000000 0.000000 1.643950 
# 
# From -- ./inp_files/72315.got.cif
#   From: 2010.03.12/outbox.cif.g09.slc.cpg/sg65_37_cif.got.tgz:72315.got - 2010.04.10 20:52:16.
