data_PCOD8274426
_publ_section_title
;
Structure prediction by ZEFSAII (Michael W. Deem and Ramdas Pophale) SiO2 
 PCOD8274426
Probable space group: C M M M
;
_chemical_formula_sum "Si O2"
_cell_formula_units_Z 88
_cell_length_a 9.057453
_cell_length_b 30.398672
_cell_length_c 17.972991
_cell_angle_alpha 90.000000
_cell_angle_beta 90.000000
_cell_angle_gamma 90.000000
_cell_volume 4948.585262
_symmetry_space_group_name_H-M "C M M M"
_symmetry_group_IT_number 65
_symmetry_cell_setting 'orthorhombic'
loop_
_space_group_symop_operation_xyz
x,y,z
-x,-y,z
x,-y,-z
-x,y,-z
-x,-y,-z
x,y,-z
-x,y,z
x,-y,z
1/2+x,1/2+y,z
1/2-x,1/2-y,z
1/2+x,1/2-y,-z
1/2-x,1/2+y,-z
1/2-x,1/2-y,-z
1/2+x,1/2+y,-z
1/2-x,1/2+y,z
1/2+x,1/2-y,z
loop_
_atom_site_type_symbol
_atom_site_label
_atom_site_fract_x
_atom_site_fract_y
_atom_site_fract_z
Si Si1 0.663548 0.000000 0.413546
Si Si2 0.175194 0.085430 0.639239
Si Si3 0.670192 0.207021 0.736363
Si Si4 0.826036 0.612162 0.787317
Si Si5 0.329231 0.167848 0.417678
Si Si6 0.324979 0.950909 0.917181
O O1 0.760282 0.958896 0.391741
O O2 0.500000 0.000000 0.375065
O O3 0.637237 0.000000 0.500000
O O4 0.233331 0.090280 0.722489
O O5 0.230844 0.124397 0.586168
O O6 0.000000 0.084258 0.638623
O O7 0.500000 0.217955 0.740828
O O8 0.750000 0.250000 0.768680
O O9 0.708974 0.164563 0.787490
O O10 0.718620 0.199871 0.649805
O O11 0.770461 0.587945 0.862385
O O12 0.000000 0.604642 0.773177
O O13 0.305957 0.189440 0.500000
O O14 0.500000 0.154220 0.405804
O O15 0.500000 0.950619 0.919265
O O16 0.271850 0.000000 0.891533
O O17 0.263032 0.940896 0.000000
#
# Coordination Sequence:
#
# PCOD8274426 Si02
#       6
#     8  16  16  16  16  16
#     4  11  23  37  51  65  88 129 174 211 251 296
#     4  11  22  33  47  71  99 127 164 209 249 293
#     4   9  18  31  47  69  96 128 169 210 250 297
#     4   9  18  33  52  74 101 134 166 199 245 303
#     4   9  18  34  52  68  91 124 162 206 258 314
#     4   8  14  26  49  82 109 127 158 204 245 286
#
# _framework density 17.782859999999999
#
# number of rings (size 3 to 8) (size 9 to 14) (size 15 to 20)
#    0.000    2.636    0.000    4.091    1.273    6.545 
#    0.000    0.000    0.000    1.091    0.000    1.273 
#    0.000    0.000    0.000    0.000    0.000    0.364 
#
# Total GULP energy -545280.197577 kJ/mol
# GULP energy per Si atom -12392.731763 kJ/mol
# Density = 1.774239 g / cm^3
# Si number density = 17.782860 Si / 1000 Ang^3
#
#
#
# Elastic Constant Matrix: (Units=GPa)
#
#
# Indices 1 2 3 4 5 6 
#
# 1 67.0560 39.0457 18.6790 0.0000 0.0000 0.0000
# 2 39.0457 128.9103 54.2278 0.0000 0.0000 0.0000
# 3 18.6790 54.2278 83.8190 0.0000 0.0000 0.0000
# 4 0.0000 0.0000 0.0000 26.1774 0.0000 0.0000
# 5 0.0000 0.0000 0.0000 0.0000 -27.4644 0.0000
# 6 0.0000 0.0000 0.0000 0.0000 0.0000 31.1120
#
#
#
# Elastic Compliance Matrix: (Units=1/GPa)
#
#
# Indices 1 2 3 4 5 6 
#
# 1 0.018134 -0.005211 -0.000670 0.000000 0.000000 0.000000
# 2 -0.005211 0.012155 -0.006703 0.000000 0.000000 0.000000
# 3 -0.000670 -0.006703 0.016416 0.000000 0.000000 0.000000
# 4 0.000000 0.000000 0.000000 0.038201 0.000000 0.000000
# 5 0.000000 0.000000 0.000000 0.000000 -0.036411 0.000000
# 6 0.000000 0.000000 0.000000 0.000000 0.000000 0.032142
#
#
# Mechanical properties :
#
#
# Convention : Reuss Voigt Hill
#
# Bulk Modulus (GPa) = 46.42904 55.96560 51.19732
# Shear Modulus (GPa) = 44.25433 17.15386 30.70410
#
# Velocity S-wave (km/s) = 4.99399 3.10922 4.15976
# Velocity P-wave (km/s) = 7.70836 6.66555 7.20585
#
# Compressibility (1/GPa) = 0.02153824
#
# Stress axis : x y z
#
# Youngs Moduli (GPa) = 55.14611 82.26924 60.91537
#
# Poissons Ratio (x) = 0.42868 0.04081
# Poissons Ratio (y) = 0.28735 0.40830
# Poissons Ratio (z) = 0.03695 0.55143
#
# Static dielectric constant tensor:
#      x y z
#    x 3.093650 0.000000 0.000000 
#    y 0.000000 3.129130 0.000000 
#    z 0.000000 0.000000 3.457900 
# 
# 
# High freq. dielectric constant tensor:
#      x y z
#    x 1.667330 0.000000 0.000000 
#    y 0.000000 1.686470 0.000000 
#    z 0.000000 0.000000 1.671570 
# 
# From -- ./inp_files/50405.got.cif
#   From: 2010.03.12/outbox.cif.g09.slc.cpg/sg65_26_cif.got.tgz:50405.got - 2010.04.10 20:52:16.
