data_PCOD8274427
_publ_section_title
;
Structure prediction by ZEFSAII (Michael W. Deem and Ramdas Pophale) SiO2 
 PCOD8274427
Probable space group: C M M M
;
_chemical_formula_sum "Si O2"
_cell_formula_units_Z 64
_cell_length_a 18.401217
_cell_length_b 23.631780
_cell_length_c 8.962272
_cell_angle_alpha 90.000000
_cell_angle_beta 90.000000
_cell_angle_gamma 90.000000
_cell_volume 3897.275454
_symmetry_space_group_name_H-M "C M M M"
_symmetry_group_IT_number 65
_symmetry_cell_setting 'orthorhombic'
loop_
_space_group_symop_operation_xyz
x,y,z
-x,-y,z
x,-y,-z
-x,y,-z
-x,-y,-z
x,y,-z
-x,y,z
x,-y,z
1/2+x,1/2+y,z
1/2-x,1/2-y,z
1/2+x,1/2-y,-z
1/2-x,1/2+y,-z
1/2-x,1/2-y,-z
1/2+x,1/2+y,-z
1/2-x,1/2+y,z
1/2+x,1/2-y,z
loop_
_atom_site_type_symbol
_atom_site_label
_atom_site_fract_x
_atom_site_fract_y
_atom_site_fract_z
Si Si1 0.228320 0.935049 0.323605
Si Si2 0.584423 0.240181 0.670334
Si Si3 0.653388 0.341849 0.831361
Si Si4 0.186331 0.347097 0.831285
O O1 0.229113 0.927755 0.500000
O O2 0.157764 0.902297 0.255321
O O3 0.302002 0.907112 0.254755
O O4 0.224323 0.000000 0.274443
O O5 0.610606 0.244656 0.500000
O O6 0.500000 0.225756 0.681985
O O7 0.598702 0.299919 0.749299
O O8 0.626627 0.189682 0.748977
O O9 0.735149 0.315126 0.831764
O O10 0.625624 0.351696 0.000000
O O11 0.159909 0.358646 0.000000
#
# Coordination Sequence:
#
# PCOD8274427 Si02
#       4
#    16  16  16  16
#     4   9  17  30  51  76  99 125 159 201 244 283
#     4  11  22  33  48  72 101 132 164 199 242 290
#     4   9  19  32  50  74  99 128 162 199 242 288
#     4   9  19  32  50  74  99 128 162 199 242 288
#
# _framework density 16.421728000000002
#
# number of rings (size 3 to 8) (size 9 to 14) (size 15 to 20)
#    1.500    1.000    0.000    3.000    0.000    7.000 
#    0.000    0.000    0.000    1.500    0.000   10.500 
#    0.000    0.000    0.000    0.000    0.000    0.000 
#
# Total GULP energy -396486.040885 kJ/mol
# GULP energy per Si atom -12390.188778 kJ/mol
# Density = 1.638435 g / cm^3
# Si number density = 16.421728 Si / 1000 Ang^3
#
#
#
# Elastic Constant Matrix: (Units=GPa)
#
#
# Indices 1 2 3 4 5 6 
#
# 1 22.9341 -5.1081 11.8834 0.0000 0.0000 0.0000
# 2 -5.1081 67.2298 29.5696 0.0000 0.0000 0.0000
# 3 11.8834 29.5696 122.5154 0.0000 0.0000 0.0000
# 4 0.0000 0.0000 0.0000 16.9445 0.0000 0.0000
# 5 0.0000 0.0000 0.0000 0.0000 21.6526 0.0000
# 6 0.0000 0.0000 0.0000 0.0000 0.0000 1.0931
#
#
#
# Elastic Compliance Matrix: (Units=1/GPa)
#
#
# Indices 1 2 3 4 5 6 
#
# 1 0.048256 0.006405 -0.006227 0.000000 0.000000 0.000000
# 2 0.006405 0.017491 -0.004843 0.000000 0.000000 0.000000
# 3 -0.006227 -0.004843 0.009935 0.000000 0.000000 0.000000
# 4 0.000000 0.000000 0.000000 0.059016 0.000000 0.000000
# 5 0.000000 0.000000 0.000000 0.000000 0.046184 0.000000
# 6 0.000000 0.000000 0.000000 0.000000 0.000000 0.914833
#
#
# Mechanical properties :
#
#
# Convention : Reuss Voigt Hill
#
# Bulk Modulus (GPa) = 15.07077 31.70770 23.38924
# Shear Modulus (GPa) = 4.43592 19.69367 12.06479
#
# Velocity S-wave (km/s) = 1.64533 3.46677 2.71345
# Velocity P-wave (km/s) = 3.57865 5.94768 4.90824
#
# Compressibility (1/GPa) = 0.06635360
#
# Stress axis : x y z
#
# Youngs Moduli (GPa) = 20.72280 57.17219 100.65417
#
# Poissons Ratio (x) = -0.36619 0.62672
# Poissons Ratio (y) = -0.13273 0.48745
# Poissons Ratio (z) = 0.12903 0.27687
#
# Static dielectric constant tensor:
#      x y z
#    x 2.734480 0.000000 0.000000 
#    y 0.000000 2.933760 0.000000 
#    z 0.000000 0.000000 3.258730 
# 
# 
# High freq. dielectric constant tensor:
#      x y z
#    x 1.593060 0.000000 0.000000 
#    y 0.000000 1.618590 0.000000 
#    z 0.000000 0.000000 1.656690 
# 
# From -- ./inp_files/6705.got.cif
#   From: 2010.03.12/outbox.cif.g09.slc.cpg/sg65_4_cif.got.tgz:6705.got - 2010.04.10 20:52:16.
