data_PCOD8274376
_publ_section_title
;
Structure prediction by ZEFSAII (Michael W. Deem and Ramdas Pophale) SiO2 
 PCOD8274376
Probable space group: C M M M
;
_chemical_formula_sum "Si O2"
_cell_formula_units_Z 72
_cell_length_a 14.593378
_cell_length_b 14.421064
_cell_length_c 17.257348
_cell_angle_alpha 90.000000
_cell_angle_beta 90.000000
_cell_angle_gamma 90.000000
_cell_volume 3631.844059
_symmetry_space_group_name_H-M "C M M M"
_symmetry_group_IT_number 65
_symmetry_cell_setting 'orthorhombic'
loop_
_space_group_symop_operation_xyz
x,y,z
-x,-y,z
x,-y,-z
-x,y,-z
-x,-y,-z
x,y,-z
-x,y,z
x,-y,z
1/2+x,1/2+y,z
1/2-x,1/2-y,z
1/2+x,1/2-y,-z
1/2-x,1/2+y,-z
1/2-x,1/2-y,-z
1/2+x,1/2+y,-z
1/2-x,1/2+y,z
1/2+x,1/2-y,z
loop_
_atom_site_type_symbol
_atom_site_label
_atom_site_fract_x
_atom_site_fract_y
_atom_site_fract_z
Si Si1 0.000000 0.609673 0.591471
Si Si2 0.349394 0.772436 0.679322
Si Si3 0.897962 0.897575 0.777118
Si Si4 0.739965 0.357960 0.084700
Si Si5 0.396536 0.102899 0.814445
O O1 0.911728 0.666567 0.621660
O O2 0.000000 0.500000 0.617631
O O3 0.000000 0.614775 0.500000
O O4 0.250000 0.750000 0.641798
O O5 0.390109 0.673778 0.705397
O O6 0.337271 0.833314 0.756839
O O7 0.833331 0.883382 0.850609
O O8 0.000000 0.889970 0.810837
O O9 0.878549 0.000000 0.742335
O O10 0.750000 0.250000 0.078841
O O11 0.840512 0.398874 0.105611
O O12 0.712022 0.398205 0.000000
O O13 0.500000 0.143003 0.825026
O O14 0.403304 0.000000 0.779441
#
# Coordination Sequence:
#
# PCOD8274376 Si02
#       5
#     8  16  16  16  16
#     4  11  26  48  75 107 140 173 209 257 325 400
#     4  12  22  39  68  99 132 165 214 266 320 382
#     4  11  22  37  60  88 119 166 221 266 322 390
#     4  11  23  38  55  82 123 167 218 286 345 387
#     4  11  21  35  60  90 119 163 220 271 328 393
#
# _framework density 19.824639999999999
#
# number of rings (size 3 to 8) (size 9 to 14) (size 15 to 20)
#    0.000    0.778    6.667    1.333    0.000    4.000 
#    0.000    4.444    0.000    1.333    0.000    0.000 
#    0.000    0.000    0.000    0.000    0.000    0.000 
#
# Total GULP energy -446078.194359 kJ/mol
# GULP energy per Si atom -12391.060954 kJ/mol
# Density = 1.977952 g / cm^3
# Si number density = 19.824640 Si / 1000 Ang^3
#
#
#
# Elastic Constant Matrix: (Units=GPa)
#
#
# Indices 1 2 3 4 5 6 
#
# 1 141.8216 45.4453 45.3908 0.0000 0.0000 0.0000
# 2 45.4453 146.5104 47.2223 0.0000 0.0000 0.0000
# 3 45.3908 47.2223 91.1820 0.0000 0.0000 0.0000
# 4 0.0000 0.0000 0.0000 9.7237 0.0000 0.0000
# 5 0.0000 0.0000 0.0000 0.0000 24.6433 0.0000
# 6 0.0000 0.0000 0.0000 0.0000 0.0000 -0.3279
#
#
#
# Elastic Compliance Matrix: (Units=1/GPa)
#
#
# Indices 1 2 3 4 5 6 
#
# 1 0.008674 -0.001559 -0.003511 0.000000 0.000000 0.000000
# 2 -0.001559 0.008473 -0.003612 0.000000 0.000000 0.000000
# 3 -0.003511 -0.003612 0.014585 0.000000 0.000000 0.000000
# 4 0.000000 0.000000 0.000000 0.102842 0.000000 0.000000
# 5 0.000000 0.000000 0.000000 0.000000 0.040579 0.000000
# 6 0.000000 0.000000 0.000000 0.000000 0.000000 -3.049888
#
#
# Mechanical properties :
#
#
# Convention : Reuss Voigt Hill
#
# Bulk Modulus (GPa) = 69.59314 72.84784 71.22049
# Shear Modulus (GPa) = -1.75280 22.90487 10.57604
#
# Velocity S-wave (km/s) = -0.94131 3.40277 2.31222
# Velocity P-wave (km/s) = 5.83088 7.22941 6.56748
#
# Compressibility (1/GPa) = 0.01436923
#
# Stress axis : x y z
#
# Youngs Moduli (GPa) = 115.28280 118.01782 68.56185
#
# Poissons Ratio (x) = 0.18400 0.24070
# Poissons Ratio (y) = 0.17974 0.24765
# Poissons Ratio (z) = 0.40472 0.42629
#
# Static dielectric constant tensor:
#      x y z
#    x 3.749210 0.000000 0.000000 
#    y 0.000000 4.006480 0.000000 
#    z 0.000000 0.000000 3.506800 
# 
# 
# High freq. dielectric constant tensor:
#      x y z
#    x 1.786050 0.000000 0.000000 
#    y 0.000000 1.799600 0.000000 
#    z 0.000000 0.000000 1.728930 
# 
# From -- ./inp_files/52727.got.cif
#   From: 2010.03.12/outbox.cif.g09.slc.cpg/sg65_27_cif.got.tgz:52727.got - 2010.04.10 20:52:16.
