data_PCOD8274695
_publ_section_title
;
Structure prediction by ZEFSAII (Michael W. Deem and Ramdas Pophale) SiO2 
 PCOD8274695
Probable space group: C M M M
;
_chemical_formula_sum "Si O2"
_cell_formula_units_Z 72
_cell_length_a 9.715455
_cell_length_b 17.276321
_cell_length_c 21.924473
_cell_angle_alpha 90.000000
_cell_angle_beta 90.000000
_cell_angle_gamma 90.000000
_cell_volume 3679.964019
_symmetry_space_group_name_H-M "C M M M"
_symmetry_group_IT_number 65
_symmetry_cell_setting 'orthorhombic'
loop_
_space_group_symop_operation_xyz
x,y,z
-x,-y,z
x,-y,-z
-x,y,-z
-x,-y,-z
x,y,-z
-x,y,z
x,-y,z
1/2+x,1/2+y,z
1/2-x,1/2-y,z
1/2+x,1/2-y,-z
1/2-x,1/2+y,-z
1/2-x,1/2-y,-z
1/2+x,1/2+y,-z
1/2-x,1/2+y,z
1/2+x,1/2-y,z
loop_
_atom_site_type_symbol
_atom_site_label
_atom_site_fract_x
_atom_site_fract_y
_atom_site_fract_z
Si Si1 0.721581 0.586880 0.131743
Si Si2 0.164222 0.826269 0.750161
Si Si3 0.664055 0.413645 0.630399
Si Si4 0.000000 0.368866 0.073047
Si Si5 0.349082 0.592004 0.500000
Si Si6 0.000000 0.809234 0.071277
O O1 0.662781 0.500000 0.123926
O O2 0.713175 0.607783 0.203038
O O3 0.872415 0.588745 0.103761
O O4 0.635196 0.649571 0.095087
O O5 0.250000 0.750000 0.765577
O O6 0.209068 0.854793 0.683092
O O7 0.000000 0.811452 0.756032
O O8 0.500000 0.416932 0.625591
O O9 0.719570 0.500000 0.645452
O O10 0.724925 0.384352 0.564255
O O11 0.000000 0.279236 0.092719
O O12 0.000000 0.379865 0.000000
O O13 0.363408 0.500000 0.500000
O O14 0.500000 0.630579 0.500000
O O15 0.000000 0.815018 0.000000
#
# Coordination Sequence:
#
# PCOD8274695 Si02
#       6
#    16  16  16   8   8   8
#     4  12  25  40  62  89 117 150 194 242 287 338
#     4  11  23  38  58  82 115 154 194 240 294 349
#     4   8  14  27  50  79 111 145 189 239 286 337
#     4  11  25  45  65  89 121 156 185 226 293 357
#     4   7  10  20  43  76 109 143 182 233 288 334
#     4  11  23  41  65  89 117 152 191 230 279 345
#
# _framework density 19.565408999999999
#
# number of rings (size 3 to 8) (size 9 to 14) (size 15 to 20)
#    0.000    1.889    1.111    5.333    1.556    5.333 
#    0.000    0.556    0.000    0.000    0.000    0.000 
#    0.000    2.667    0.000    0.000    0.000    0.000 
#
# Total GULP energy -446171.627472 kJ/mol
# GULP energy per Si atom -12393.656319 kJ/mol
# Density = 1.952088 g / cm^3
# Si number density = 19.565409 Si / 1000 Ang^3
#
#
#
# Elastic Constant Matrix: (Units=GPa)
#
#
# Indices 1 2 3 4 5 6 
#
# 1 68.5779 11.4269 25.5219 0.0000 0.0000 0.0000
# 2 11.4269 88.1754 45.2488 0.0000 0.0000 0.0000
# 3 25.5219 45.2488 102.5950 0.0000 0.0000 0.0000
# 4 0.0000 0.0000 0.0000 31.3904 0.0000 0.0000
# 5 0.0000 0.0000 0.0000 0.0000 18.5118 0.0000
# 6 0.0000 0.0000 0.0000 0.0000 0.0000 30.2424
#
#
#
# Elastic Compliance Matrix: (Units=1/GPa)
#
#
# Indices 1 2 3 4 5 6 
#
# 1 0.016070 -0.000040 -0.003980 0.000000 0.000000 0.000000
# 2 -0.000040 0.014659 -0.006455 0.000000 0.000000 0.000000
# 3 -0.003980 -0.006455 0.013584 0.000000 0.000000 0.000000
# 4 0.000000 0.000000 0.000000 0.031857 0.000000 0.000000
# 5 0.000000 0.000000 0.000000 0.000000 0.054020 0.000000
# 6 0.000000 0.000000 0.000000 0.000000 0.000000 0.033066
#
#
# Mechanical properties :
#
#
# Convention : Reuss Voigt Hill
#
# Bulk Modulus (GPa) = 42.80403 47.08262 44.94332
# Shear Modulus (GPa) = 26.04257 27.83896 26.94077
#
# Velocity S-wave (km/s) = 3.65232 3.77618 3.71477
# Velocity P-wave (km/s) = 6.30165 6.56728 6.43584
#
# Compressibility (1/GPa) = 0.02336229
#
# Stress axis : x y z
#
# Youngs Moduli (GPa) = 62.22855 68.21827 73.61537
#
# Poissons Ratio (x) = 0.00274 0.29298
# Poissons Ratio (y) = 0.00250 0.47520
# Poissons Ratio (z) = 0.24766 0.44036
#
# Static dielectric constant tensor:
#      x y z
#    x 3.301990 0.000000 0.000000 
#    y 0.000000 3.460570 0.000000 
#    z 0.000000 0.000000 4.126540 
# 
# 
# High freq. dielectric constant tensor:
#      x y z
#    x 1.722550 0.000000 0.000000 
#    y 0.000000 1.753970 0.000000 
#    z 0.000000 0.000000 1.788510 
# 
# From -- ./inp_files/67174.got.cif
#   From: 2010.03.12/outbox.cif.g09.slc.cpg/sg65_34_cif.got.tgz:67174.got - 2010.04.10 20:52:16.
