data_PCOD8274066
_publ_section_title
;
Structure prediction by ZEFSAII (Michael W. Deem and Ramdas Pophale) SiO2 
 PCOD8274066
Probable space group: C M M M
;
_chemical_formula_sum "Si O2"
_cell_formula_units_Z 64
_cell_length_a 27.444083
_cell_length_b 14.461639
_cell_length_c 7.573149
_cell_angle_alpha 90.000000
_cell_angle_beta 90.000000
_cell_angle_gamma 90.000000
_cell_volume 3005.680003
_symmetry_space_group_name_H-M "C M M M"
_symmetry_group_IT_number 65
_symmetry_cell_setting 'orthorhombic'
loop_
_space_group_symop_operation_xyz
x,y,z
-x,-y,z
x,-y,-z
-x,y,-z
-x,-y,-z
x,y,-z
-x,y,z
x,-y,z
1/2+x,1/2+y,z
1/2-x,1/2-y,z
1/2+x,1/2-y,-z
1/2-x,1/2+y,-z
1/2-x,1/2-y,-z
1/2+x,1/2+y,-z
1/2-x,1/2+y,z
1/2+x,1/2-y,z
loop_
_atom_site_type_symbol
_atom_site_label
_atom_site_fract_x
_atom_site_fract_y
_atom_site_fract_z
Si Si1 0.384608 0.396967 0.709181
Si Si2 0.220427 0.104760 0.689489
Si Si3 0.942690 0.721042 0.705070
Si Si4 0.391094 0.110410 0.000000
Si Si5 0.781816 0.341435 0.000000
O O1 0.386234 0.404243 0.500000
O O2 0.395658 0.500000 0.789727
O O3 0.331015 0.356328 0.766798
O O4 0.423883 0.321393 0.773368
O O5 0.234345 0.151758 0.500000
O O6 0.265791 0.108077 0.820963
O O7 0.207076 0.000000 0.651405
O O8 0.928574 0.703629 0.500000
O O9 0.000000 0.719543 0.732772
O O10 0.919813 0.639742 0.823494
O O11 0.339620 0.164204 0.000000
O O12 0.383639 0.000000 0.000000
O O13 0.750000 0.250000 0.000000
#
# Coordination Sequence:
#
# PCOD8274066 Si02
#       5
#    16  16  16   8   8
#     4   8  15  31  58  92 127 159 190 231 290 360
#     4   9  18  34  55  80 115 153 183 216 266 338
#     4  10  22  41  64  88 116 154 200 250 305 358
#     4  12  27  44  61  85 118 154 201 258 301 340
#     4  12  24  37  59  87 113 146 188 237 296 356
#
# _framework density 21.293016999999999
#
# number of rings (size 3 to 8) (size 9 to 14) (size 15 to 20)
#    0.000    2.250    0.000    4.500    0.000    3.500 
#    0.000    5.625    0.000    1.500    0.000    0.000 
#    0.000    0.000    0.000    0.000    0.000    0.000 
#
# Total GULP energy -396438.628095 kJ/mol
# GULP energy per Si atom -12388.707128 kJ/mol
# Density = 2.124455 g / cm^3
# Si number density = 21.293017 Si / 1000 Ang^3
#
#
#
# Elastic Constant Matrix: (Units=GPa)
#
#
# Indices 1 2 3 4 5 6 
#
# 1 131.2586 23.1999 58.1693 0.0000 0.0000 0.0000
# 2 23.1999 61.9890 29.4809 0.0000 0.0000 0.0000
# 3 58.1693 29.4809 110.8847 0.0000 0.0000 0.0000
# 4 0.0000 0.0000 0.0000 24.7326 0.0000 0.0000
# 5 0.0000 0.0000 0.0000 0.0000 33.4664 0.0000
# 6 0.0000 0.0000 0.0000 0.0000 0.0000 32.6459
#
#
#
# Elastic Compliance Matrix: (Units=1/GPa)
#
#
# Indices 1 2 3 4 5 6 
#
# 1 0.010036 -0.001434 -0.004884 0.000000 0.000000 0.000000
# 2 -0.001434 0.018672 -0.004212 0.000000 0.000000 0.000000
# 3 -0.004884 -0.004212 0.012700 0.000000 0.000000 0.000000
# 4 0.000000 0.000000 0.000000 0.040433 0.000000 0.000000
# 5 0.000000 0.000000 0.000000 0.000000 0.029881 0.000000
# 6 0.000000 0.000000 0.000000 0.000000 0.000000 0.030632
#
#
# Mechanical properties :
#
#
# Convention : Reuss Voigt Hill
#
# Bulk Modulus (GPa) = 49.14217 58.42583 53.78400
# Shear Modulus (GPa) = 29.37801 31.05445 30.21623
#
# Velocity S-wave (km/s) = 3.71846 3.82309 3.77114
# Velocity P-wave (km/s) = 6.44710 6.85467 6.65401
#
# Compressibility (1/GPa) = 0.02034912
#
# Stress axis : x y z
#
# Youngs Moduli (GPa) = 99.63865 53.55712 78.73833
#
# Poissons Ratio (x) = 0.07677 0.38454
# Poissons Ratio (y) = 0.14283 0.33166
# Poissons Ratio (z) = 0.48662 0.22559
#
# Static dielectric constant tensor:
#      x y z
#    x 3.934980 0.000000 0.000000 
#    y 0.000000 3.858250 0.000000 
#    z 0.000000 0.000000 3.703790 
# 
# 
# High freq. dielectric constant tensor:
#      x y z
#    x 1.830790 0.000000 0.000000 
#    y 0.000000 1.823500 0.000000 
#    z 0.000000 0.000000 1.835190 
# 
# From -- ./inp_files/15662.got.cif
#   From: 2010.03.12/outbox.cif.g09.slc.cpg/sg65_8_cif.got.tgz:15662.got - 2010.04.10 20:52:16.
