data_PCOD8274283
_publ_section_title
;
Structure prediction by ZEFSAII (Michael W. Deem and Ramdas Pophale) SiO2 
 PCOD8274283
Probable space group: C M M M
;
_chemical_formula_sum "Si O2"
_cell_formula_units_Z 104
_cell_length_a 30.664953
_cell_length_b 9.210983
_cell_length_c 22.665083
_cell_angle_alpha 90.000000
_cell_angle_beta 90.000000
_cell_angle_gamma 90.000000
_cell_volume 6401.851531
_symmetry_space_group_name_H-M "C M M M"
_symmetry_group_IT_number 65
_symmetry_cell_setting 'orthorhombic'
loop_
_space_group_symop_operation_xyz
x,y,z
-x,-y,z
x,-y,-z
-x,y,-z
-x,-y,-z
x,y,-z
-x,y,z
x,-y,z
1/2+x,1/2+y,z
1/2-x,1/2-y,z
1/2+x,1/2-y,-z
1/2-x,1/2+y,-z
1/2-x,1/2-y,-z
1/2+x,1/2+y,-z
1/2-x,1/2+y,z
1/2+x,1/2-y,z
loop_
_atom_site_type_symbol
_atom_site_label
_atom_site_fract_x
_atom_site_fract_y
_atom_site_fract_z
Si Si1 0.679822 0.835804 0.064678
Si Si2 0.950218 0.670387 0.678073
Si Si3 0.904041 0.827145 0.903079
Si Si4 0.049748 0.340470 0.000000
Si Si5 0.888737 0.671432 0.214461
Si Si6 0.051737 0.837136 0.435524
Si Si7 0.290816 0.164902 0.808756
O O1 0.641528 0.718816 0.067682
O O2 0.711301 0.808624 0.120258
O O3 0.660926 0.000000 0.071016
O O4 0.702963 0.818011 0.000000
O O5 0.950219 0.500000 0.670071
O O6 0.916060 0.718235 0.728209
O O7 0.931411 0.736159 0.617288
O O8 0.000000 0.723594 0.692417
O O9 0.941131 0.755350 0.942425
O O10 0.909856 0.763228 0.837883
O O11 0.908292 0.000000 0.902068
O O12 0.074039 0.500000 0.000000
O O13 0.000000 0.377268 0.000000
O O14 0.893132 0.500000 0.201290
O O15 0.837343 0.714506 0.218961
O O16 0.068542 0.781947 0.500000
O O17 0.000000 0.835169 0.435850
O O18 0.068883 0.000000 0.424376
O O19 0.250000 0.250000 0.780321
O O20 0.282509 0.000000 0.792095
#
# Coordination Sequence:
#
# PCOD8274283 Si02
#       7
#    16  16  16   8  16  16  16
#     4   9  17  31  50  65  84 114 140 165 216 286
#     4   9  17  29  47  70  93 121 161 199 222 255
#     4  11  21  32  48  69  88 107 141 190 234 270
#     4  11  23  37  51  63  80 113 150 183 229 287
#     4   9  19  35  50  65  92 127 155 185 232 283
#     4   8  14  25  41  63  95 132 160 183 220 266
#     4   9  18  31  46  65  88 117 150 187 229 277
#
# _framework density 16.245301000000001
#
# number of rings (size 3 to 8) (size 9 to 14) (size 15 to 20)
#    0.000    2.692    0.769    3.000    0.000    4.923 
#    0.000    3.077    0.000    0.000    0.000    0.000 
#    0.000    0.615    0.000    1.385    0.000    2.462 
#
# Total GULP energy -644260.904560 kJ/mol
# GULP energy per Si atom -12389.632780 kJ/mol
# Density = 1.620833 g / cm^3
# Si number density = 16.245301 Si / 1000 Ang^3
#
#
#
# Elastic Constant Matrix: (Units=GPa)
#
#
# Indices 1 2 3 4 5 6 
#
# 1 73.6164 34.8453 50.4158 0.0000 0.0000 0.0000
# 2 34.8453 74.3144 47.9459 0.0000 0.0000 0.0000
# 3 50.4158 47.9459 121.3678 0.0000 0.0000 0.0000
# 4 0.0000 0.0000 0.0000 36.1052 0.0000 0.0000
# 5 0.0000 0.0000 0.0000 0.0000 7.4855 0.0000
# 6 0.0000 0.0000 0.0000 0.0000 0.0000 18.9024
#
#
#
# Elastic Compliance Matrix: (Units=1/GPa)
#
#
# Indices 1 2 3 4 5 6 
#
# 1 0.020555 -0.005542 -0.006349 0.000000 0.000000 0.000000
# 2 -0.005542 0.019553 -0.005422 0.000000 0.000000 0.000000
# 3 -0.006349 -0.005422 0.013019 0.000000 0.000000 0.000000
# 4 0.000000 0.000000 0.000000 0.027697 0.000000 0.000000
# 5 0.000000 0.000000 0.000000 0.000000 0.133591 0.000000
# 6 0.000000 0.000000 0.000000 0.000000 0.000000 0.052903
#
#
# Mechanical properties :
#
#
# Convention : Reuss Voigt Hill
#
# Bulk Modulus (GPa) = 54.05245 59.52362 56.78803
# Shear Modulus (GPa) = 16.22782 21.57140 18.89961
#
# Velocity S-wave (km/s) = 3.16400 3.64793 3.41455
# Velocity P-wave (km/s) = 6.83321 7.37992 7.11182
#
# Compressibility (1/GPa) = 0.01850055
#
# Stress axis : x y z
#
# Youngs Moduli (GPa) = 48.64904 51.14252 76.81062
#
# Poissons Ratio (x) = 0.28342 0.48770
# Poissons Ratio (y) = 0.26960 0.41650
# Poissons Ratio (z) = 0.30889 0.27731
#
# Static dielectric constant tensor:
#      x y z
#    x 2.814040 0.000000 0.000000 
#    y 0.000000 3.076460 0.000000 
#    z 0.000000 0.000000 3.344300 
# 
# 
# High freq. dielectric constant tensor:
#      x y z
#    x 1.591770 0.000000 0.000000 
#    y 0.000000 1.626130 0.000000 
#    z 0.000000 0.000000 1.608630 
# 
# From -- ./inp_files/72182.got.cif
#   From: 2010.03.12/outbox.cif.g09.slc.cpg/sg65_37_cif.got.tgz:72182.got - 2010.04.10 20:52:16.
