data_PCOD8274519
_publ_section_title
;
Structure prediction by ZEFSAII (Michael W. Deem and Ramdas Pophale) SiO2 
 PCOD8274519
Probable space group: C M M M
;
_chemical_formula_sum "Si O2"
_cell_formula_units_Z 104
_cell_length_a 8.654669
_cell_length_b 23.076541
_cell_length_c 28.381277
_cell_angle_alpha 90.000000
_cell_angle_beta 90.000000
_cell_angle_gamma 90.000000
_cell_volume 5668.303648
_symmetry_space_group_name_H-M "C M M M"
_symmetry_group_IT_number 65
_symmetry_cell_setting 'orthorhombic'
loop_
_space_group_symop_operation_xyz
x,y,z
-x,-y,z
x,-y,-z
-x,y,-z
-x,-y,-z
x,y,-z
-x,y,z
x,-y,z
1/2+x,1/2+y,z
1/2-x,1/2-y,z
1/2+x,1/2-y,-z
1/2-x,1/2+y,-z
1/2-x,1/2-y,-z
1/2+x,1/2+y,-z
1/2-x,1/2+y,z
1/2+x,1/2-y,z
loop_
_atom_site_type_symbol
_atom_site_label
_atom_site_fract_x
_atom_site_fract_y
_atom_site_fract_z
Si Si1 0.317915 0.186757 0.450314
Si Si2 0.181820 0.384689 0.740742
Si Si3 0.177438 0.189175 0.821356
Si Si4 0.181299 0.000000 0.779388
Si Si5 0.182391 0.313654 0.651593
Si Si6 0.818437 0.313456 0.000000
Si Si7 0.323057 0.383282 0.084682
Si Si8 0.317353 0.000000 0.883331
O O1 0.267474 0.154372 0.500000
O O2 0.500000 0.192105 0.449635
O O3 0.250000 0.250000 0.452049
O O4 0.265498 0.159762 0.399887
O O5 0.222155 0.336669 0.779278
O O6 0.273635 0.443768 0.749477
O O7 0.238435 0.359493 0.690549
O O8 0.000000 0.397766 0.741898
O O9 0.250000 0.250000 0.836435
O O10 0.190701 0.146594 0.865019
O O11 0.000000 0.196725 0.805434
O O12 0.264786 0.000000 0.829383
O O13 0.000000 0.000000 0.789429
O O14 0.250000 0.250000 0.661036
O O15 0.000000 0.306419 0.654955
O O16 0.750000 0.250000 0.000000
O O17 0.766807 0.346352 0.953475
O O18 0.000000 0.307772 0.000000
O O19 0.500000 0.389877 0.068878
O O20 0.245352 0.445543 0.088078
O O21 0.500000 0.000000 0.884155
#
# Coordination Sequence:
#
# PCOD8274519 Si02
#       8
#    16  16  16   8  16   8  16   8
#     4   8  13  23  40  63  95 135 176 217 263 318
#     4  11  22  36  55  78 107 142 182 228 279 330
#     4  11  23  37  57  83 114 148 187 226 271 330
#     4  12  24  40  59  81 109 143 186 231 276 330
#     4   9  18  30  46  73 107 142 179 221 271 326
#     4  12  26  45  68  95 126 158 196 236 282 336
#     4  11  24  43  66  91 121 155 193 235 280 329
#     4  12  24  41  67  94 120 149 188 234 281 331
#
# _framework density 18.347639999999998
#
# number of rings (size 3 to 8) (size 9 to 14) (size 15 to 20)
#    0.000    1.538    1.538    4.385    0.000    5.846 
#    0.000    1.538    0.000    0.000    0.000    0.538 
#    0.000    4.308    0.000    0.000    0.000    0.000 
#
# Total GULP energy -644546.078192 kJ/mol
# GULP energy per Si atom -12395.116888 kJ/mol
# Density = 1.830588 g / cm^3
# Si number density = 18.347640 Si / 1000 Ang^3
#
#
#
# Elastic Constant Matrix: (Units=GPa)
#
#
# Indices 1 2 3 4 5 6 
#
# 1 87.3406 42.7328 37.9529 0.0000 0.0000 0.0000
# 2 42.7328 115.2322 45.7739 0.0000 0.0000 0.0000
# 3 37.9529 45.7739 127.7721 0.0000 0.0000 0.0000
# 4 0.0000 0.0000 0.0000 29.6755 0.0000 0.0000
# 5 0.0000 0.0000 0.0000 0.0000 26.2977 0.0000
# 6 0.0000 0.0000 0.0000 0.0000 0.0000 30.9858
#
#
#
# Elastic Compliance Matrix: (Units=1/GPa)
#
#
# Indices 1 2 3 4 5 6 
#
# 1 0.014820 -0.004369 -0.002837 0.000000 0.000000 0.000000
# 2 -0.004369 0.011406 -0.002788 0.000000 0.000000 0.000000
# 3 -0.002837 -0.002788 0.009668 0.000000 0.000000 0.000000
# 4 0.000000 0.000000 0.000000 0.033698 0.000000 0.000000
# 5 0.000000 0.000000 0.000000 0.000000 0.038026 0.000000
# 6 0.000000 0.000000 0.000000 0.000000 0.000000 0.032273
#
#
# Mechanical properties :
#
#
# Convention : Reuss Voigt Hill
#
# Bulk Modulus (GPa) = 62.87181 64.80711 63.83946
# Shear Modulus (GPa) = 30.26991 30.98415 30.62703
#
# Velocity S-wave (km/s) = 4.06618 4.11387 4.09009
# Velocity P-wave (km/s) = 7.50909 7.61339 7.56142
#
# Compressibility (1/GPa) = 0.01590538
#
# Stress axis : x y z
#
# Youngs Moduli (GPa) = 67.47782 87.67366 103.43372
#
# Poissons Ratio (x) = 0.38303 0.29343
# Poissons Ratio (y) = 0.29480 0.28842
# Poissons Ratio (z) = 0.19142 0.24447
#
# Static dielectric constant tensor:
#      x y z
#    x 3.435410 0.000000 0.000000 
#    y 0.000000 3.295430 0.000000 
#    z 0.000000 0.000000 4.070850 
# 
# 
# High freq. dielectric constant tensor:
#      x y z
#    x 1.722480 0.000000 0.000000 
#    y 0.000000 1.688900 0.000000 
#    z 0.000000 0.000000 1.729060 
# 
# From -- ./inp_files/76956.got.cif
#   From: 2010.03.12/outbox.cif.g09.slc.cpg/sg65_39_cif.got.tgz:76956.got - 2010.04.10 20:52:16.
