data_PCOD8274188
_publ_section_title
;
Structure prediction by ZEFSAII (Michael W. Deem and Ramdas Pophale) SiO2 
 PCOD8274188
Probable space group: C M M M
;
_chemical_formula_sum "Si O2"
_cell_formula_units_Z 104
_cell_length_a 8.969229
_cell_length_b 24.016670
_cell_length_c 28.132853
_cell_angle_alpha 90.000000
_cell_angle_beta 90.000000
_cell_angle_gamma 90.000000
_cell_volume 6060.126365
_symmetry_space_group_name_H-M "C M M M"
_symmetry_group_IT_number 65
_symmetry_cell_setting 'orthorhombic'
loop_
_space_group_symop_operation_xyz
x,y,z
-x,-y,z
x,-y,-z
-x,y,-z
-x,-y,-z
x,y,-z
-x,y,z
x,-y,z
1/2+x,1/2+y,z
1/2-x,1/2-y,z
1/2+x,1/2-y,-z
1/2-x,1/2+y,-z
1/2-x,1/2-y,-z
1/2+x,1/2+y,-z
1/2-x,1/2+y,z
1/2+x,1/2-y,z
loop_
_atom_site_type_symbol
_atom_site_label
_atom_site_fract_x
_atom_site_fract_y
_atom_site_fract_z
Si Si1 0.327691 0.936604 0.187001
Si Si2 0.674639 0.890856 0.712952
Si Si3 0.332556 0.433729 0.907097
Si Si4 0.834669 0.000000 0.679998
Si Si5 0.678230 0.689966 0.642013
Si Si6 0.832275 0.566441 0.000000
Si Si7 0.837624 0.000000 0.569692
Si Si8 0.823792 0.880475 0.447811
O O1 0.500000 0.937909 0.173132
O O2 0.297156 0.894251 0.230364
O O3 0.240545 0.912391 0.141708
O O4 0.276202 0.000000 0.200471
O O5 0.500000 0.885265 0.701331
O O6 0.736949 0.947049 0.691562
O O7 0.763605 0.839586 0.689960
O O8 0.500000 0.411169 0.909240
O O9 0.326200 0.500000 0.908017
O O10 0.247226 0.409609 0.952943
O O11 0.863084 0.000000 0.625004
O O12 0.000000 0.000000 0.704901
O O13 0.500000 0.693812 0.643841
O O14 0.750000 0.750000 0.639739
O O15 0.737908 0.657770 0.594864
O O16 0.826240 0.500000 0.000000
O O17 0.000000 0.588686 0.000000
O O18 0.752836 0.057029 0.554527
O O19 0.000000 0.000000 0.544556
O O20 0.785381 0.854709 0.500000
O O21 0.000000 0.885534 0.440163
#
# Coordination Sequence:
#
# PCOD8274188 Si02
#       8
#    16  16  16   8  16   8   8  16
#     4   9  17  29  43  63  92 124 158 194 241 298
#     4  11  21  35  53  75 101 132 164 205 254 301
#     4   9  16  24  35  55  82 115 158 205 245 281
#     4  11  19  30  51  79 104 131 165 199 242 299
#     4  11  23  39  56  76  98 128 169 209 250 300
#     4   9  15  23  35  49  73 117 164 203 242 285
#     4   9  15  27  48  78 106 128 155 193 239 290
#     4   9  17  30  51  78 105 131 161 199 244 294
#
# _framework density 17.161358
#
# number of rings (size 3 to 8) (size 9 to 14) (size 15 to 20)
#    0.000    2.231    2.308    2.077    0.000    5.231 
#    0.000    0.000    0.000    1.385    0.000    1.077 
#    0.000    0.000    0.000    0.692    0.000    9.308 
#
# Total GULP energy -644475.179912 kJ/mol
# GULP energy per Si atom -12393.753460 kJ/mol
# Density = 1.712230 g / cm^3
# Si number density = 17.161358 Si / 1000 Ang^3
#
#
#
# Elastic Constant Matrix: (Units=GPa)
#
#
# Indices 1 2 3 4 5 6 
#
# 1 88.3866 32.8626 62.4613 0.0000 0.0000 0.0000
# 2 32.8626 88.5235 46.8978 0.0000 0.0000 0.0000
# 3 62.4613 46.8978 142.1964 0.0000 0.0000 0.0000
# 4 0.0000 0.0000 0.0000 -17.9840 0.0000 0.0000
# 5 0.0000 0.0000 0.0000 0.0000 20.9406 0.0000
# 6 0.0000 0.0000 0.0000 0.0000 0.0000 15.7758
#
#
#
# Elastic Compliance Matrix: (Units=1/GPa)
#
#
# Indices 1 2 3 4 5 6 
#
# 1 0.016980 -0.002850 -0.006519 0.000000 0.000000 0.000000
# 2 -0.002850 0.014166 -0.003420 0.000000 0.000000 0.000000
# 3 -0.006519 -0.003420 0.011024 0.000000 0.000000 0.000000
# 4 0.000000 0.000000 0.000000 -0.055605 0.000000 0.000000
# 5 0.000000 0.000000 0.000000 0.000000 0.047754 0.000000
# 6 0.000000 0.000000 0.000000 0.000000 0.000000 0.063388
#
#
# Mechanical properties :
#
#
# Convention : Reuss Voigt Hill
#
# Bulk Modulus (GPa) = 60.26846 67.06111 63.66478
# Shear Modulus (GPa) = 38.81465 15.53881 27.17673
#
# Velocity S-wave (km/s) = 4.76094 3.01234 3.98376
# Velocity P-wave (km/s) = 8.08808 7.15965 7.63798
#
# Compressibility (1/GPa) = 0.01659243
#
# Stress axis : x y z
#
# Youngs Moduli (GPa) = 58.89171 70.58916 90.71095
#
# Poissons Ratio (x) = 0.20119 0.59133
# Poissons Ratio (y) = 0.16785 0.31026
# Poissons Ratio (z) = 0.38390 0.24144
#
# Static dielectric constant tensor:
#      x y z
#    x 3.169560 0.000000 0.000000 
#    y 0.000000 2.995560 0.000000 
#    z 0.000000 0.000000 3.431270 
# 
# 
# High freq. dielectric constant tensor:
#      x y z
#    x 1.652750 0.000000 0.000000 
#    y 0.000000 1.606480 0.000000 
#    z 0.000000 0.000000 1.676640 
# 
# From -- ./inp_files/73638.got.cif
#   From: 2010.03.12/outbox.cif.g09.slc.cpg/sg65_37_cif.got.tgz:73638.got - 2010.04.10 20:52:16.
