data_PCOD8274939
_publ_section_title
;
Structure prediction by ZEFSAII (Michael W. Deem and Ramdas Pophale) SiO2 
 PCOD8274939
Probable space group: C M M M
;
_chemical_formula_sum "Si O2"
_cell_formula_units_Z 72
_cell_length_a 32.489559
_cell_length_b 9.314200
_cell_length_c 13.848518
_cell_angle_alpha 90.000000
_cell_angle_beta 90.000000
_cell_angle_gamma 90.000000
_cell_volume 4190.758894
_symmetry_space_group_name_H-M "C M M M"
_symmetry_group_IT_number 65
_symmetry_cell_setting 'orthorhombic'
loop_
_space_group_symop_operation_xyz
x,y,z
-x,-y,z
x,-y,-z
-x,y,-z
-x,-y,-z
x,y,-z
-x,y,z
x,-y,z
1/2+x,1/2+y,z
1/2-x,1/2-y,z
1/2+x,1/2-y,-z
1/2-x,1/2+y,-z
1/2-x,1/2-y,-z
1/2+x,1/2+y,-z
1/2-x,1/2+y,z
1/2+x,1/2-y,z
loop_
_atom_site_type_symbol
_atom_site_label
_atom_site_fract_x
_atom_site_fract_y
_atom_site_fract_z
Si Si1 0.417091 0.328932 0.294242
Si Si2 0.000000 0.828543 0.389852
Si Si3 0.625912 0.670469 0.106377
Si Si4 0.790620 0.169091 0.206082
Si Si5 0.664669 0.329560 0.393992
O O1 0.418330 0.500000 0.295777
O O2 0.460130 0.266864 0.333714
O O3 0.407837 0.274739 0.184510
O O4 0.380418 0.272708 0.363042
O O5 0.000000 0.772370 0.500000
O O6 0.000000 0.000000 0.389214
O O7 0.624506 0.500000 0.103795
O O8 0.671772 0.717351 0.137725
O O9 0.615945 0.734286 0.000000
O O10 0.750000 0.250000 0.170513
O O11 0.801209 0.217838 0.315986
O O12 0.782838 0.000000 0.199450
O O13 0.675853 0.267191 0.500000
O O14 0.662711 0.500000 0.396454
#
# Coordination Sequence:
#
# PCOD8274939 Si02
#       5
#    16   8  16  16  16
#     4   8  13  20  30  46  67  92 124 156 184 218
#     4   9  14  18  27  45  69  95 123 156 188 216
#     4   8  14  25  38  49  65  92 123 153 186 226
#     4   9  17  27  39  56  75  96 126 161 193 226
#     4   8  13  22  35  49  68  96 126 153 184 226
#
# _framework density 17.180658000000001
#
# number of rings (size 3 to 8) (size 9 to 14) (size 15 to 20)
#    0.000    3.667    0.000    3.333    0.000    3.556 
#    0.000    0.556    0.000    3.333    0.000    0.000 
#    0.000    0.000    0.000   16.000    0.000   66.667 
#
# Total GULP energy -446011.152816 kJ/mol
# GULP energy per Si atom -12389.198689 kJ/mol
# Density = 1.714155 g / cm^3
# Si number density = 17.180658 Si / 1000 Ang^3
#
#
#
# Elastic Constant Matrix: (Units=GPa)
#
#
# Indices 1 2 3 4 5 6 
#
# 1 111.2679 12.2506 49.5433 0.0000 0.0000 0.0000
# 2 12.2506 7.4756 5.8794 0.0000 0.0000 0.0000
# 3 49.5433 5.8794 145.6337 0.0000 0.0000 0.0000
# 4 0.0000 0.0000 0.0000 4.5692 0.0000 0.0000
# 5 0.0000 0.0000 0.0000 0.0000 19.4232 0.0000
# 6 0.0000 0.0000 0.0000 0.0000 0.0000 12.3039
#
#
#
# Elastic Compliance Matrix: (Units=1/GPa)
#
#
# Indices 1 2 3 4 5 6 
#
# 1 0.012516 -0.017725 -0.003542 0.000000 0.000000 0.000000
# 2 -0.017725 0.163255 -0.000561 0.000000 0.000000 0.000000
# 3 -0.003542 -0.000561 0.008094 0.000000 0.000000 0.000000
# 4 0.000000 0.000000 0.000000 0.218857 0.000000 0.000000
# 5 0.000000 0.000000 0.000000 0.000000 0.051485 0.000000
# 6 0.000000 0.000000 0.000000 0.000000 0.000000 0.081275
#
#
# Mechanical properties :
#
#
# Convention : Reuss Voigt Hill
#
# Bulk Modulus (GPa) = 7.13217 44.41374 25.77295
# Shear Modulus (GPa) = 7.98882 20.37286 14.18084
#
# Velocity S-wave (km/s) = 2.15870 3.44728 2.87609
# Velocity P-wave (km/s) = 3.22081 6.46159 5.10518
#
# Compressibility (1/GPa) = 0.14020981
#
# Stress axis : x y z
#
# Youngs Moduli (GPa) = 79.89747 6.12537 123.54452
#
# Poissons Ratio (x) = 0.10857 0.43763
# Poissons Ratio (y) = 1.41615 0.06931
# Poissons Ratio (z) = 0.28302 0.00344
#
# Static dielectric constant tensor:
#      x y z
#    x 3.277420 0.000000 0.000000 
#    y 0.000000 2.366990 0.000000 
#    z 0.000000 0.000000 3.808900 
# 
# 
# High freq. dielectric constant tensor:
#      x y z
#    x 1.659330 0.000000 0.000000 
#    y 0.000000 1.570160 0.000000 
#    z 0.000000 0.000000 1.676620 
# 
# From -- ./inp_files/36961.got.cif
#   From: 2010.03.12/outbox.cif.g09.slc.cpg/sg65_19_cif.got.tgz:36961.got - 2010.04.10 20:52:16.
