data_PCOD8274922
_publ_section_title
;
Structure prediction by ZEFSAII (Michael W. Deem and Ramdas Pophale) SiO2 
 PCOD8274922
Probable space group: C M M M
;
_chemical_formula_sum "Si O2"
_cell_formula_units_Z 112
_cell_length_a 32.752439
_cell_length_b 31.944567
_cell_length_c 9.994292
_cell_angle_alpha 90.000000
_cell_angle_beta 90.000000
_cell_angle_gamma 90.000000
_cell_volume 10456.652754
_symmetry_space_group_name_H-M "C M M M"
_symmetry_group_IT_number 65
_symmetry_cell_setting 'orthorhombic'
loop_
_space_group_symop_operation_xyz
x,y,z
-x,-y,z
x,-y,-z
-x,y,-z
-x,-y,-z
x,y,-z
-x,y,z
x,-y,z
1/2+x,1/2+y,z
1/2-x,1/2-y,z
1/2+x,1/2-y,-z
1/2-x,1/2+y,-z
1/2-x,1/2-y,-z
1/2+x,1/2+y,-z
1/2-x,1/2+y,z
1/2+x,1/2-y,z
loop_
_atom_site_type_symbol
_atom_site_label
_atom_site_fract_x
_atom_site_fract_y
_atom_site_fract_z
Si Si1 0.728791 0.314641 0.149889
Si Si2 0.547580 0.048186 0.152355
Si Si3 0.307841 0.953524 0.340870
Si Si4 0.814331 0.267442 0.149472
Si Si5 0.153834 0.327234 0.352599
Si Si6 0.890032 0.410327 0.656989
Si Si7 0.739050 0.124645 0.350184
O O1 0.772644 0.293117 0.152552
O O2 0.694768 0.280470 0.193394
O O3 0.727959 0.353660 0.252366
O O4 0.719588 0.331066 0.000000
O O5 0.500000 0.057391 0.170919
O O6 0.570889 0.077822 0.255943
O O7 0.557341 0.000000 0.186030
O O8 0.560883 0.058318 0.000000
O O9 0.308783 0.952705 0.500000
O O10 0.352146 0.938388 0.290816
O O11 0.271890 0.921851 0.294281
O O12 0.298764 0.000000 0.284528
O O13 0.847102 0.288649 0.248650
O O14 0.832739 0.268301 0.000000
O O15 0.145189 0.308677 0.500000
O O16 0.119557 0.361453 0.315804
O O17 0.197430 0.349515 0.353240
O O18 0.898807 0.418263 0.500000
O O19 0.757761 0.122767 0.500000
#
# Coordination Sequence:
#
# PCOD8274922 Si02
#       7
#    16  16  16  16  16  16  16
#     4   8  13  20  28  38  53  70  87 108 128 145
#     4   9  18  30  39  47  60  74  87 107 135 164
#     4   8  13  21  32  44  57  71  87 110 137 163
#     4   8  13  20  29  40  53  71  91 104 120 149
#     4   8  14  22  30  43  60  71  82 104 128 150
#     4   9  16  25  37  50  60  71  88 108 132 163
#     4   8  13  20  29  40  52  68  89 107 127 156
#
# _framework density 10.710884
#
# number of rings (size 3 to 8) (size 9 to 14) (size 15 to 20)
#    0.000    3.714    0.000    3.429    0.000    2.286 
#    0.000    5.714    0.000    1.286    0.000    0.000 
#    0.000    0.000    0.000    0.000    0.000    0.000 
#
# Total GULP energy -693876.366464 kJ/mol
# GULP energy per Si atom -12390.649401 kJ/mol
# Density = 1.068651 g / cm^3
# Si number density = 10.710884 Si / 1000 Ang^3
#
#
#
# Elastic Constant Matrix: (Units=GPa)
#
#
# Indices 1 2 3 4 5 6 
#
# 1 23.1013 29.3624 28.6590 0.0000 0.0000 0.0000
# 2 29.3624 65.7106 44.8057 0.0000 0.0000 0.0000
# 3 28.6590 44.8057 64.7691 0.0000 0.0000 0.0000
# 4 0.0000 0.0000 0.0000 16.0870 0.0000 0.0000
# 5 0.0000 0.0000 0.0000 0.0000 13.5992 0.0000
# 6 0.0000 0.0000 0.0000 0.0000 0.0000 15.8835
#
#
#
# Elastic Compliance Matrix: (Units=1/GPa)
#
#
# Indices 1 2 3 4 5 6 
#
# 1 0.128199 -0.035218 -0.032362 0.000000 0.000000 0.000000
# 2 -0.035218 0.038481 -0.011037 0.000000 0.000000 0.000000
# 3 -0.032362 -0.011037 0.037394 0.000000 0.000000 0.000000
# 4 0.000000 0.000000 0.000000 0.062162 0.000000 0.000000
# 5 0.000000 0.000000 0.000000 0.000000 0.073533 0.000000
# 6 0.000000 0.000000 0.000000 0.000000 0.000000 0.062958
#
#
# Mechanical properties :
#
#
# Convention : Reuss Voigt Hill
#
# Bulk Modulus (GPa) = 21.34960 39.91503 30.63232
# Shear Modulus (GPa) = 8.68695 12.49754 10.59225
#
# Velocity S-wave (km/s) = 2.85097 3.41956 3.14813
# Velocity P-wave (km/s) = 5.55097 7.27585 6.47114
#
# Compressibility (1/GPa) = 0.04683928
#
# Stress axis : x y z
#
# Youngs Moduli (GPa) = 7.80037 25.98692 26.74207
#
# Poissons Ratio (x) = 0.91521 0.86544
# Poissons Ratio (y) = 0.27471 0.29515
# Poissons Ratio (z) = 0.25244 0.28681
#
# Static dielectric constant tensor:
#      x y z
#    x 1.948020 0.000000 0.000000 
#    y 0.000000 2.464850 0.000000 
#    z 0.000000 0.000000 2.435870 
# 
# 
# High freq. dielectric constant tensor:
#      x y z
#    x 1.345450 0.000000 0.000000 
#    y 0.000000 1.393130 0.000000 
#    z 0.000000 0.000000 1.406030 
# 
# From -- ./inp_files/31429.got.cif
#   From: 2010.03.12/outbox.cif.g09.slc.cpg/sg65_16_cif.got.tgz:31429.got - 2010.04.10 20:52:16.
