data_PCOD8274060
_publ_section_title
;
Structure prediction by ZEFSAII (Michael W. Deem and Ramdas Pophale) SiO2 
 PCOD8274060
Probable space group: C M M M
;
_chemical_formula_sum "Si O2"
_cell_formula_units_Z 80
_cell_length_a 18.224447
_cell_length_b 8.973140
_cell_length_c 25.039572
_cell_angle_alpha 90.000000
_cell_angle_beta 90.000000
_cell_angle_gamma 90.000000
_cell_volume 4094.734088
_symmetry_space_group_name_H-M "C M M M"
_symmetry_group_IT_number 65
_symmetry_cell_setting 'orthorhombic'
loop_
_space_group_symop_operation_xyz
x,y,z
-x,-y,z
x,-y,-z
-x,y,-z
-x,-y,-z
x,y,-z
-x,y,z
x,-y,z
1/2+x,1/2+y,z
1/2-x,1/2-y,z
1/2+x,1/2-y,-z
1/2-x,1/2+y,-z
1/2-x,1/2-y,-z
1/2+x,1/2+y,-z
1/2-x,1/2+y,z
1/2+x,1/2-y,z
loop_
_atom_site_type_symbol
_atom_site_label
_atom_site_fract_x
_atom_site_fract_y
_atom_site_fract_z
Si Si1 0.171977 0.324377 0.848456
Si Si2 0.083644 0.672068 0.561551
Si Si3 0.173148 0.826070 0.349030
Si Si4 0.914366 0.828536 0.243819
Si Si5 0.084051 0.171839 0.938093
O O1 0.182323 0.500000 0.848236
O O2 0.250000 0.250000 0.838570
O O3 0.117646 0.276993 0.801542
O O4 0.138526 0.275435 0.905041
O O5 0.103980 0.698751 0.500000
O O6 0.094112 0.500000 0.576936
O O7 0.138273 0.770748 0.596013
O O8 0.000000 0.721637 0.572429
O O9 0.250000 0.750000 0.337317
O O10 0.119615 0.784909 0.300566
O O11 0.186757 0.000000 0.354152
O O12 0.000000 0.797504 0.247950
O O13 0.897489 0.000000 0.228975
O O14 0.000000 0.212454 0.924297
O O15 0.098978 0.000000 0.923452
O O16 0.100174 0.201479 0.000000
#
# Coordination Sequence:
#
# PCOD8274060 Si02
#       5
#    16  16  16  16  16
#     4  12  25  39  58  85 117 153 192 235 284 336
#     4   9  19  37  60  85 114 149 189 234 284 337
#     4  11  23  38  58  85 116 151 190 233 283 336
#     4  10  22  41  63  86 114 147 185 232 285 341
#     4   9  19  38  63  88 116 152 191 232 282 338
#
# _framework density 19.537288
#
# number of rings (size 3 to 8) (size 9 to 14) (size 15 to 20)
#    0.000    1.800    0.000    5.400    0.000    9.200 
#    0.000    2.000    0.000    0.000    0.000    0.000 
#    0.000    0.000    0.000    0.000    0.000    0.000 
#
# Total GULP energy -496218.401267 kJ/mol
# GULP energy per Si atom -12405.460032 kJ/mol
# Density = 1.949282 g / cm^3
# Si number density = 19.537288 Si / 1000 Ang^3
#
#
#
# Elastic Constant Matrix: (Units=GPa)
#
#
# Indices 1 2 3 4 5 6 
#
# 1 126.3763 64.2123 59.4446 0.0000 0.0000 0.0000
# 2 64.2123 113.7345 59.6439 0.0000 0.0000 0.0000
# 3 59.4446 59.6439 102.4133 0.0000 0.0000 0.0000
# 4 0.0000 0.0000 0.0000 57.4231 0.0000 0.0000
# 5 0.0000 0.0000 0.0000 0.0000 5.6528 0.0000
# 6 0.0000 0.0000 0.0000 0.0000 0.0000 28.1422
#
#
#
# Elastic Compliance Matrix: (Units=1/GPa)
#
#
# Indices 1 2 3 4 5 6 
#
# 1 0.012378 -0.004637 -0.004484 0.000000 0.000000 0.000000
# 2 -0.004637 0.014395 -0.005692 0.000000 0.000000 0.000000
# 3 -0.004484 -0.005692 0.015682 0.000000 0.000000 0.000000
# 4 0.000000 0.000000 0.000000 0.017415 0.000000 0.000000
# 5 0.000000 0.000000 0.000000 0.000000 0.176905 0.000000
# 6 0.000000 0.000000 0.000000 0.000000 0.000000 0.035534
#
#
# Mechanical properties :
#
#
# Convention : Reuss Voigt Hill
#
# Bulk Modulus (GPa) = 77.94830 78.79176 78.37003
# Shear Modulus (GPa) = 16.32853 28.85848 22.59351
#
# Velocity S-wave (km/s) = 2.89409 3.84747 3.40432
# Velocity P-wave (km/s) = 7.15203 7.75589 7.46007
#
# Compressibility (1/GPa) = 0.01282902
#
# Stress axis : x y z
#
# Youngs Moduli (GPa) = 80.78704 69.46681 63.76602
#
# Poissons Ratio (x) = 0.32211 0.28595
# Poissons Ratio (y) = 0.37460 0.36297
# Poissons Ratio (z) = 0.36228 0.39542
#
# Static dielectric constant tensor:
#      x y z
#    x 3.613920 0.000000 0.000000 
#    y 0.000000 3.519380 0.000000 
#    z 0.000000 0.000000 3.613980 
# 
# 
# High freq. dielectric constant tensor:
#      x y z
#    x 1.769930 0.000000 0.000000 
#    y 0.000000 1.757280 0.000000 
#    z 0.000000 0.000000 1.773110 
# 
# From -- ./inp_files/72750.got.cif
#   From: 2010.03.12/outbox.cif.g09.slc.cpg/sg65_37_cif.got.tgz:72750.got - 2010.04.10 20:52:16.
