data_PCOD8274407
_publ_section_title
;
Structure prediction by ZEFSAII (Michael W. Deem and Ramdas Pophale) SiO2 
 PCOD8274407
Probable space group: C M M M
;
_chemical_formula_sum "Si O2"
_cell_formula_units_Z 104
_cell_length_a 21.452745
_cell_length_b 8.717006
_cell_length_c 26.597461
_cell_angle_alpha 90.000000
_cell_angle_beta 90.000000
_cell_angle_gamma 90.000000
_cell_volume 4973.823801
_symmetry_space_group_name_H-M "C M M M"
_symmetry_group_IT_number 65
_symmetry_cell_setting 'orthorhombic'
loop_
_space_group_symop_operation_xyz
x,y,z
-x,-y,z
x,-y,-z
-x,y,-z
-x,-y,-z
x,y,-z
-x,y,z
x,-y,z
1/2+x,1/2+y,z
1/2-x,1/2-y,z
1/2+x,1/2-y,-z
1/2-x,1/2+y,-z
1/2-x,1/2-y,-z
1/2+x,1/2+y,-z
1/2-x,1/2+y,z
1/2+x,1/2-y,z
loop_
_atom_site_type_symbol
_atom_site_label
_atom_site_fract_x
_atom_site_fract_y
_atom_site_fract_z
Si Si1 0.376385 0.175876 0.290101
Si Si2 0.184689 0.819074 0.380691
Si Si3 0.500000 0.317950 0.849264
Si Si4 0.125485 0.180336 0.098376
Si Si5 0.318828 0.819526 0.000000
Si Si6 0.929386 0.321440 0.558562
Si Si7 0.000000 0.181604 0.265049
Si Si8 0.810723 0.324717 0.811214
O O1 0.324699 0.261149 0.323562
O O2 0.442267 0.257716 0.297444
O O3 0.363161 0.189606 0.230930
O O4 0.379727 0.000000 0.307661
O O5 0.250000 0.750000 0.401768
O O6 0.124014 0.770935 0.412413
O O7 0.191249 0.000000 0.381899
O O8 0.500000 0.500000 0.846086
O O9 0.559526 0.259228 0.880416
O O10 0.500000 0.252508 0.792305
O O11 0.176022 0.221289 0.140269
O O12 0.125592 0.000000 0.087534
O O13 0.141305 0.268329 0.047720
O O14 0.250000 0.750000 0.000000
O O15 0.310890 0.000000 0.000000
O O16 0.919730 0.288434 0.500000
O O17 0.920615 0.500000 0.570737
O O18 0.000000 0.270385 0.574231
O O19 0.000000 0.000000 0.264205
O O20 0.800693 0.500000 0.827857
O O21 0.750000 0.250000 0.786266
#
# Coordination Sequence:
#
# PCOD8274407 Si02
#       8
#    16  16   8  16   8  16   8  16
#     4  11  24  41  62  91 128 170 213 263 320 379
#     4  12  26  43  65  95 134 177 224 278 333 392
#     4   9  20  38  64  93 122 155 194 241 294 355
#     4  11  22  41  65  90 119 155 196 244 297 358
#     4  12  26  45  64  89 119 154 196 244 297 356
#     4   9  20  42  71 100 132 173 221 274 333 396
#     4  11  21  39  64  94 126 167 215 260 313 376
#     4  11  23  38  59  87 118 158 203 250 306 366
#
# _framework density 20.909465000000001
#
# number of rings (size 3 to 8) (size 9 to 14) (size 15 to 20)
#    0.000    1.231    1.538    5.077    1.077    4.308 
#    0.000    3.846    0.000    0.000    0.000    0.000 
#    0.000    0.000    0.000    0.000    0.000    0.000 
#
# Total GULP energy -644871.013910 kJ/mol
# GULP energy per Si atom -12401.365652 kJ/mol
# Density = 2.086187 g / cm^3
# Si number density = 20.909465 Si / 1000 Ang^3
#
#
#
# Elastic Constant Matrix: (Units=GPa)
#
#
# Indices 1 2 3 4 5 6 
#
# 1 139.0483 58.7588 36.1447 0.0000 0.0000 0.0000
# 2 58.7588 133.8903 40.0062 0.0000 0.0000 0.0000
# 3 36.1447 40.0062 86.5266 0.0000 0.0000 0.0000
# 4 0.0000 0.0000 0.0000 34.8207 0.0000 0.0000
# 5 0.0000 0.0000 0.0000 0.0000 32.0220 0.0000
# 6 0.0000 0.0000 0.0000 0.0000 0.0000 33.7424
#
#
#
# Elastic Compliance Matrix: (Units=1/GPa)
#
#
# Indices 1 2 3 4 5 6 
#
# 1 0.009206 -0.003354 -0.002295 0.000000 0.000000 0.000000
# 2 -0.003354 0.009888 -0.003171 0.000000 0.000000 0.000000
# 3 -0.002295 -0.003171 0.013982 0.000000 0.000000 0.000000
# 4 0.000000 0.000000 0.000000 0.028719 0.000000 0.000000
# 5 0.000000 0.000000 0.000000 0.000000 0.031229 0.000000
# 6 0.000000 0.000000 0.000000 0.000000 0.000000 0.029636
#
#
# Mechanical properties :
#
#
# Convention : Reuss Voigt Hill
#
# Bulk Modulus (GPa) = 64.78223 69.92053 67.35138
# Shear Modulus (GPa) = 34.37753 35.08737 34.73245
#
# Velocity S-wave (km/s) = 4.05917 4.10086 4.08007
# Velocity P-wave (km/s) = 7.28139 7.47897 7.38084
#
# Compressibility (1/GPa) = 0.01543633
#
# Stress axis : x y z
#
# Youngs Moduli (GPa) = 108.62843 101.12960 71.52233
#
# Poissons Ratio (x) = 0.33923 0.16411
# Poissons Ratio (y) = 0.36438 0.22678
# Poissons Ratio (z) = 0.24926 0.32065
#
# Static dielectric constant tensor:
#      x y z
#    x 3.995780 0.000000 0.000000 
#    y 0.000000 3.691980 0.000000 
#    z 0.000000 0.000000 3.736190 
# 
# 
# High freq. dielectric constant tensor:
#      x y z
#    x 1.833330 0.000000 0.000000 
#    y 0.000000 1.816820 0.000000 
#    z 0.000000 0.000000 1.818880 
# 
# From -- ./inp_files/75566.got.cif
#   From: 2010.03.12/outbox.cif.g09.slc.cpg/sg65_38_cif.got.tgz:75566.got - 2010.04.10 20:52:16.
