data_PCOD8274435
_publ_section_title
;
Structure prediction by ZEFSAII (Michael W. Deem and Ramdas Pophale) SiO2 
 PCOD8274435
Probable space group: C M M M
;
_chemical_formula_sum "Si O2"
_cell_formula_units_Z 64
_cell_length_a 23.567265
_cell_length_b 17.792217
_cell_length_c 9.220257
_cell_angle_alpha 90.000000
_cell_angle_beta 90.000000
_cell_angle_gamma 90.000000
_cell_volume 3866.181857
_symmetry_space_group_name_H-M "C M M M"
_symmetry_group_IT_number 65
_symmetry_cell_setting 'orthorhombic'
loop_
_space_group_symop_operation_xyz
x,y,z
-x,-y,z
x,-y,-z
-x,y,-z
-x,-y,-z
x,y,-z
-x,y,z
x,-y,z
1/2+x,1/2+y,z
1/2-x,1/2-y,z
1/2+x,1/2-y,-z
1/2-x,1/2+y,-z
1/2-x,1/2-y,-z
1/2+x,1/2+y,-z
1/2-x,1/2+y,z
1/2+x,1/2-y,z
loop_
_atom_site_type_symbol
_atom_site_label
_atom_site_fract_x
_atom_site_fract_y
_atom_site_fract_z
Si Si1 0.238016 0.500000 0.329373
Si Si2 0.566116 0.627922 0.167061
Si Si3 0.437317 0.202230 0.828074
Si Si4 0.630983 0.500000 0.670569
Si Si5 0.349113 0.917581 0.164013
O O1 0.228517 0.500000 0.500000
O O2 0.303362 0.500000 0.285439
O O3 0.208271 0.574867 0.260610
O O4 0.500000 0.610956 0.192022
O O5 0.580754 0.713210 0.213090
O O6 0.602867 0.574529 0.267089
O O7 0.582092 0.613341 0.000000
O O8 0.500000 0.184631 0.763899
O O9 0.391525 0.143419 0.764595
O O10 0.440251 0.193740 0.000000
O O11 0.622196 0.500000 0.500000
O O12 0.379484 0.000000 0.162538
O O13 0.332237 0.893758 0.000000
#
# Coordination Sequence:
#
# PCOD8274435 Si02
#       5
#     8  16  16   8  16
#     4   9  19  34  47  62  90 127 162 197 232 269
#     4   9  18  32  51  74  98 122 148 184 233 284
#     4   8  14  27  48  75 102 122 146 185 231 279
#     4  11  22  34  49  67  89 124 164 197 234 275
#     4   8  15  28  49  73  95 121 156 191 226 267
#
# _framework density 16.553799999999999
#
# number of rings (size 3 to 8) (size 9 to 14) (size 15 to 20)
#    0.750    2.500    0.000    2.250    0.000    4.500 
#    0.000    5.000    0.000   10.500    0.000    0.000 
#    0.000    0.000    0.000    0.000    0.000    0.000 
#
# Total GULP energy -396499.927997 kJ/mol
# GULP energy per Si atom -12390.622750 kJ/mol
# Density = 1.651612 g / cm^3
# Si number density = 16.553800 Si / 1000 Ang^3
#
#
#
# Elastic Constant Matrix: (Units=GPa)
#
#
# Indices 1 2 3 4 5 6 
#
# 1 123.4606 81.0936 55.2136 0.0000 0.0000 0.0000
# 2 81.0936 108.7436 41.8540 0.0000 0.0000 0.0000
# 3 55.2136 41.8540 54.8312 0.0000 0.0000 0.0000
# 4 0.0000 0.0000 0.0000 7.9102 0.0000 0.0000
# 5 0.0000 0.0000 0.0000 0.0000 9.8322 0.0000
# 6 0.0000 0.0000 0.0000 0.0000 0.0000 28.8165
#
#
#
# Elastic Compliance Matrix: (Units=1/GPa)
#
#
# Indices 1 2 3 4 5 6 
#
# 1 0.020786 -0.010542 -0.012884 0.000000 0.000000 0.000000
# 2 -0.010542 0.018368 -0.003405 0.000000 0.000000 0.000000
# 3 -0.012884 -0.003405 0.033811 0.000000 0.000000 0.000000
# 4 0.000000 0.000000 0.000000 0.126419 0.000000 0.000000
# 5 0.000000 0.000000 0.000000 0.000000 0.101707 0.000000
# 6 0.000000 0.000000 0.000000 0.000000 0.000000 0.034702
#
#
# Mechanical properties :
#
#
# Convention : Reuss Voigt Hill
#
# Bulk Modulus (GPa) = 51.80673 71.48418 61.64545
# Shear Modulus (GPa) = 12.62975 16.57005 14.59990
#
# Velocity S-wave (km/s) = 2.76515 3.16726 2.97301
# Velocity P-wave (km/s) = 6.44660 7.52676 7.00752
#
# Compressibility (1/GPa) = 0.01930251
#
# Stress axis : x y z
#
# Youngs Moduli (GPa) = 48.10920 54.44241 29.57599
#
# Poissons Ratio (x) = 0.57393 0.38106
# Poissons Ratio (y) = 0.50716 0.10072
# Poissons Ratio (z) = 0.61985 0.18540
#
# Static dielectric constant tensor:
#      x y z
#    x 3.133460 0.000000 0.000000 
#    y 0.000000 3.158690 0.000000 
#    z 0.000000 0.000000 2.818030 
# 
# 
# High freq. dielectric constant tensor:
#      x y z
#    x 1.627510 0.000000 0.000000 
#    y 0.000000 1.634540 0.000000 
#    z 0.000000 0.000000 1.610220 
# 
# From -- ./inp_files/15899.got.cif
#   From: 2010.03.12/outbox.cif.g09.slc.cpg/sg65_8_cif.got.tgz:15899.got - 2010.04.10 20:52:16.
