data_PCOD8274895
_publ_section_title
;
Structure prediction by ZEFSAII (Michael W. Deem and Ramdas Pophale) SiO2 
 PCOD8274895
Probable space group: C M M M
;
_chemical_formula_sum "Si O2"
_cell_formula_units_Z 128
_cell_length_a 9.579795
_cell_length_b 29.684914
_cell_length_c 28.593904
_cell_angle_alpha 90.000000
_cell_angle_beta 90.000000
_cell_angle_gamma 90.000000
_cell_volume 8131.402622
_symmetry_space_group_name_H-M "C M M M"
_symmetry_group_IT_number 65
_symmetry_cell_setting 'orthorhombic'
loop_
_space_group_symop_operation_xyz
x,y,z
-x,-y,z
x,-y,-z
-x,y,-z
-x,-y,-z
x,y,-z
-x,y,z
x,-y,z
1/2+x,1/2+y,z
1/2-x,1/2-y,z
1/2+x,1/2-y,-z
1/2-x,1/2+y,-z
1/2-x,1/2-y,-z
1/2+x,1/2+y,-z
1/2-x,1/2+y,z
1/2+x,1/2-y,z
loop_
_atom_site_type_symbol
_atom_site_label
_atom_site_fract_x
_atom_site_fract_y
_atom_site_fract_z
Si Si1 0.834171 0.640007 0.051010
Si Si2 0.333579 0.049025 0.909483
Si Si3 0.662378 0.206358 0.131003
Si Si4 0.334232 0.888572 0.724764
Si Si5 0.337975 0.205841 0.761719
Si Si6 0.835885 0.449673 0.805606
Si Si7 0.164226 0.552260 0.638048
Si Si8 0.656022 0.553401 0.551501
O O1 0.778673 0.588793 0.057207
O O2 0.779589 0.669509 0.094375
O O3 0.000000 0.640191 0.052142
O O4 0.781192 0.657436 0.000000
O O5 0.500000 0.049020 0.907123
O O6 0.273555 0.057719 0.857324
O O7 0.282103 0.000000 0.927965
O O8 0.500000 0.216742 0.122497
O O9 0.750000 0.250000 0.119204
O O10 0.688172 0.190794 0.184433
O O11 0.500000 0.892440 0.726492
O O12 0.290669 0.835828 0.728428
O O13 0.268161 0.914614 0.769218
O O14 0.280312 0.913899 0.678305
O O15 0.500000 0.217739 0.754039
O O16 0.250000 0.250000 0.748130
O O17 0.803422 0.500000 0.787543
O O18 0.000000 0.441279 0.807831
O O19 0.203132 0.500000 0.649762
O O20 0.236903 0.570238 0.590828
O O21 0.000000 0.556845 0.630665
O O22 0.701481 0.571494 0.500000
O O23 0.500000 0.570751 0.563411
O O24 0.656881 0.500000 0.550425
#
# Coordination Sequence:
#
# PCOD8274895 Si02
#       8
#    16  16  16  16  16  16  16  16
#     4   9  16  24  34  50  73  99 125 154 191 234
#     4   8  13  20  30  46  69  98 130 158 184 221
#     4   9  17  29  44  60  77  99 127 158 193 233
#     4   9  15  23  36  54  78 105 128 156 198 239
#     4   9  17  29  44  59  76 100 131 164 195 232
#     4   8  12  18  30  48  70  97 128 157 184 223
#     4   9  16  24  36  58  85 108 133 166 200 233
#     4   8  14  25  39  53  74 110 150 177 196 223
#
# _framework density 15.741441999999999
#
# number of rings (size 3 to 8) (size 9 to 14) (size 15 to 20)
#    0.000    3.375    0.000    2.250    0.000    5.250 
#    0.000    3.125    0.000    0.000    0.000    0.000 
#    0.000    1.000    0.000   11.375    0.000   14.375 
#
# Total GULP energy -792878.592828 kJ/mol
# GULP energy per Si atom -12388.728013 kJ/mol
# Density = 1.570561 g / cm^3
# Si number density = 15.741442 Si / 1000 Ang^3
#
#
#
# Elastic Constant Matrix: (Units=GPa)
#
#
# Indices 1 2 3 4 5 6 
#
# 1 22.3501 24.2506 24.2078 0.0000 0.0000 0.0000
# 2 24.2506 91.2821 54.8332 0.0000 0.0000 0.0000
# 3 24.2078 54.8332 93.2746 0.0000 0.0000 0.0000
# 4 0.0000 0.0000 0.0000 17.6238 0.0000 0.0000
# 5 0.0000 0.0000 0.0000 0.0000 10.6668 0.0000
# 6 0.0000 0.0000 0.0000 0.0000 0.0000 12.8627
#
#
#
# Elastic Compliance Matrix: (Units=1/GPa)
#
#
# Indices 1 2 3 4 5 6 
#
# 1 0.069603 -0.011811 -0.011121 0.000000 0.000000 0.000000
# 2 -0.011811 0.018940 -0.008069 0.000000 0.000000 0.000000
# 3 -0.011121 -0.008069 0.018351 0.000000 0.000000 0.000000
# 4 0.000000 0.000000 0.000000 0.056741 0.000000 0.000000
# 5 0.000000 0.000000 0.000000 0.000000 0.093748 0.000000
# 6 0.000000 0.000000 0.000000 0.000000 0.000000 0.077744
#
#
# Mechanical properties :
#
#
# Convention : Reuss Voigt Hill
#
# Bulk Modulus (GPa) = 22.27563 45.94333 34.10948
# Shear Modulus (GPa) = 12.13321 15.13836 13.63578
#
# Velocity S-wave (km/s) = 2.77931 3.10447 2.94638
# Velocity P-wave (km/s) = 4.94783 6.48845 5.76979
#
# Compressibility (1/GPa) = 0.04489210
#
# Stress axis : x y z
#
# Youngs Moduli (GPa) = 14.36724 52.79928 54.49385
#
# Poissons Ratio (x) = 0.62359 0.60603
# Poissons Ratio (y) = 0.16969 0.43970
# Poissons Ratio (z) = 0.15978 0.42603
#
# Static dielectric constant tensor:
#      x y z
#    x 2.554790 0.000000 0.000000 
#    y 0.000000 3.024940 0.000000 
#    z 0.000000 0.000000 3.262030 
# 
# 
# High freq. dielectric constant tensor:
#      x y z
#    x 1.546860 0.000000 0.000000 
#    y 0.000000 1.589910 0.000000 
#    z 0.000000 0.000000 1.599770 
# 
# From -- ./inp_files/69280.got.cif
#   From: 2010.03.12/outbox.cif.g09.slc.cpg/sg65_35_cif.got.tgz:69280.got - 2010.04.10 20:52:16.
