data_PCOD8274495
_publ_section_title
;
Structure prediction by ZEFSAII (Michael W. Deem and Ramdas Pophale) SiO2 
 PCOD8274495
Probable space group: C M M M
;
_chemical_formula_sum "Si O2"
_cell_formula_units_Z 112
_cell_length_a 13.862065
_cell_length_b 27.613052
_cell_length_c 15.443361
_cell_angle_alpha 90.000000
_cell_angle_beta 90.000000
_cell_angle_gamma 90.000000
_cell_volume 5911.315854
_symmetry_space_group_name_H-M "C M M M"
_symmetry_group_IT_number 65
_symmetry_cell_setting 'orthorhombic'
loop_
_space_group_symop_operation_xyz
x,y,z
-x,-y,z
x,-y,-z
-x,y,-z
-x,-y,-z
x,y,-z
-x,y,z
x,-y,z
1/2+x,1/2+y,z
1/2-x,1/2-y,z
1/2+x,1/2-y,-z
1/2-x,1/2+y,-z
1/2-x,1/2-y,-z
1/2+x,1/2+y,-z
1/2-x,1/2+y,z
1/2+x,1/2-y,z
loop_
_atom_site_type_symbol
_atom_site_label
_atom_site_fract_x
_atom_site_fract_y
_atom_site_fract_z
Si Si1 0.795230 0.357499 0.595802
Si Si2 0.387199 0.192464 0.757078
Si Si3 0.606971 0.701885 0.821865
Si Si4 0.390219 0.053587 0.669775
Si Si5 0.892483 0.118006 0.316629
Si Si6 0.731030 0.854583 0.097291
Si Si7 0.225286 0.945391 0.804055
O O1 0.809586 0.334932 0.500000
O O2 0.830308 0.319860 0.668802
O O3 0.856995 0.406853 0.600238
O O4 0.682404 0.371118 0.606505
O O5 0.500000 0.184730 0.740833
O O6 0.360616 0.246787 0.783310
O O7 0.353011 0.157212 0.834178
O O8 0.500000 0.705630 0.863448
O O9 0.607918 0.664714 0.743590
O O10 0.682060 0.684327 0.894409
O O11 0.500000 0.063668 0.697166
O O12 0.328129 0.057968 0.756854
O O13 0.378147 0.000000 0.628522
O O14 0.858662 0.071112 0.262119
O O15 0.000000 0.108423 0.353834
O O16 0.771109 0.908852 0.114557
O O17 0.689991 0.851652 0.000000
O O18 0.203324 0.000000 0.836109
#
# Coordination Sequence:
#
# PCOD8274495 Si02
#       7
#    16  16  16  16  16  16  16
#     4  11  22  35  55  84 115 150 190 234 285 340
#     4  11  22  38  57  81 116 151 188 235 284 334
#     4   9  19  37  61  80 107 148 187 231 283 332
#     4   9  17  32  55  78 104 145 192 236 281 328
#     4   9  18  36  58  81 109 146 188 230 278 334
#     4  11  22  36  58  86 115 149 190 235 285 339
#     4   9  18  34  55  82 114 149 187 228 280 340
#
# _framework density 18.946712000000002
#
# number of rings (size 3 to 8) (size 9 to 14) (size 15 to 20)
#    0.000    2.143    4.286    0.857    0.000    4.000 
#    0.000    3.571    0.000    2.571    0.000   11.000 
#    0.000    0.000    0.000    0.000    0.000    0.000 
#
# Total GULP energy -694176.441392 kJ/mol
# GULP energy per Si atom -12396.007882 kJ/mol
# Density = 1.890359 g / cm^3
# Si number density = 18.946712 Si / 1000 Ang^3
#
#
#
# Elastic Constant Matrix: (Units=GPa)
#
#
# Indices 1 2 3 4 5 6 
#
# 1 120.6763 33.7402 30.3637 0.0000 0.0000 0.0000
# 2 33.7402 124.0920 34.6019 0.0000 0.0000 0.0000
# 3 30.3637 34.6019 110.1666 0.0000 0.0000 0.0000
# 4 0.0000 0.0000 0.0000 13.0791 0.0000 0.0000
# 5 0.0000 0.0000 0.0000 0.0000 10.9076 0.0000
# 6 0.0000 0.0000 0.0000 0.0000 0.0000 24.0161
#
#
#
# Elastic Compliance Matrix: (Units=1/GPa)
#
#
# Indices 1 2 3 4 5 6 
#
# 1 0.009334 -0.001995 -0.001946 0.000000 0.000000 0.000000
# 2 -0.001995 0.009259 -0.002358 0.000000 0.000000 0.000000
# 3 -0.001946 -0.002358 0.010354 0.000000 0.000000 0.000000
# 4 0.000000 0.000000 0.000000 0.076458 0.000000 0.000000
# 5 0.000000 0.000000 0.000000 0.000000 0.091679 0.000000
# 6 0.000000 0.000000 0.000000 0.000000 0.000000 0.041639
#
#
# Mechanical properties :
#
#
# Convention : Reuss Voigt Hill
#
# Bulk Modulus (GPa) = 61.16873 61.37184 61.27029
# Shear Modulus (GPa) = 19.47266 26.68251 23.07759
#
# Velocity S-wave (km/s) = 3.20935 3.75679 3.49381
# Velocity P-wave (km/s) = 6.78881 7.16101 6.97739
#
# Compressibility (1/GPa) = 0.01634822
#
# Stress axis : x y z
#
# Youngs Moduli (GPa) = 107.13374 108.00801 96.57981
#
# Poissons Ratio (x) = 0.21551 0.18794
# Poissons Ratio (y) = 0.21376 0.22774
# Poissons Ratio (z) = 0.20848 0.25469
#
# Static dielectric constant tensor:
#      x y z
#    x 3.821820 0.000000 0.000000 
#    y 0.000000 3.741080 0.000000 
#    z 0.000000 0.000000 3.006720 
# 
# 
# High freq. dielectric constant tensor:
#      x y z
#    x 1.745950 0.000000 0.000000 
#    y 0.000000 1.745130 0.000000 
#    z 0.000000 0.000000 1.695260 
# 
# From -- ./inp_files/41159.got.cif
#   From: 2010.03.12/outbox.cif.g09.slc.cpg/sg65_21_cif.got.tgz:41159.got - 2010.04.10 20:52:16.
