data_PCOD8274339
_publ_section_title
;
Structure prediction by ZEFSAII (Michael W. Deem and Ramdas Pophale) SiO2 
 PCOD8274339
Probable space group: C M M M
;
_chemical_formula_sum "Si O2"
_cell_formula_units_Z 72
_cell_length_a 29.336404
_cell_length_b 14.126066
_cell_length_c 9.136354
_cell_angle_alpha 90.000000
_cell_angle_beta 90.000000
_cell_angle_gamma 90.000000
_cell_volume 3786.177998
_symmetry_space_group_name_H-M "C M M M"
_symmetry_group_IT_number 65
_symmetry_cell_setting 'orthorhombic'
loop_
_space_group_symop_operation_xyz
x,y,z
-x,-y,z
x,-y,-z
-x,y,-z
-x,-y,-z
x,y,-z
-x,y,z
x,-y,z
1/2+x,1/2+y,z
1/2-x,1/2-y,z
1/2+x,1/2-y,-z
1/2-x,1/2+y,-z
1/2-x,1/2-y,-z
1/2+x,1/2+y,-z
1/2-x,1/2+y,z
1/2+x,1/2-y,z
loop_
_atom_site_type_symbol
_atom_site_label
_atom_site_fract_x
_atom_site_fract_y
_atom_site_fract_z
Si Si1 0.679203 0.212587 0.173143
Si Si2 0.000000 0.393608 0.673985
Si Si3 0.268672 0.604987 0.826587
Si Si4 0.447064 0.392880 0.167081
Si Si5 0.412021 0.220276 0.326942
O O1 0.693049 0.319472 0.223528
O O2 0.718818 0.140667 0.222920
O O3 0.633843 0.179141 0.256013
O O4 0.670927 0.208605 0.000000
O O5 0.045182 0.340780 0.731623
O O6 0.000000 0.500000 0.736517
O O7 0.000000 0.393693 0.500000
O O8 0.278278 0.500000 0.760550
O O9 0.269194 0.600757 0.000000
O O10 0.500000 0.384335 0.206845
O O11 0.430192 0.500000 0.189725
O O12 0.418168 0.328256 0.275804
O O13 0.438280 0.361097 0.000000
O O14 0.407796 0.215877 0.500000
#
# Coordination Sequence:
#
# PCOD8274339 Si02
#       5
#    16   8  16  16  16
#     4   9  18  32  52  78 103 131 170 214 260 312
#     4   9  20  38  54  69  98 144 189 219 252 305
#     4   8  15  31  54  76 100 132 169 210 259 315
#     4   9  18  33  53  75 100 133 171 212 260 311
#     4  11  21  34  53  77 106 141 179 220 263 306
#
# _framework density 19.016538000000001
#
# number of rings (size 3 to 8) (size 9 to 14) (size 15 to 20)
#    0.000    2.778    1.111    2.667    0.000    2.222 
#    0.000    5.556    0.000    6.000    0.000    0.000 
#    0.000    0.000    0.000    0.000    0.000    0.000 
#
# Total GULP energy -446300.383501 kJ/mol
# GULP energy per Si atom -12397.232875 kJ/mol
# Density = 1.897326 g / cm^3
# Si number density = 19.016538 Si / 1000 Ang^3
#
#
#
# Elastic Constant Matrix: (Units=GPa)
#
#
# Indices 1 2 3 4 5 6 
#
# 1 120.4476 32.4235 31.8306 0.0000 0.0000 0.0000
# 2 32.4235 95.2410 15.3592 0.0000 0.0000 0.0000
# 3 31.8306 15.3592 43.5406 0.0000 0.0000 0.0000
# 4 0.0000 0.0000 0.0000 17.6466 0.0000 0.0000
# 5 0.0000 0.0000 0.0000 0.0000 28.1341 0.0000
# 6 0.0000 0.0000 0.0000 0.0000 0.0000 17.7274
#
#
#
# Elastic Compliance Matrix: (Units=1/GPa)
#
#
# Indices 1 2 3 4 5 6 
#
# 1 0.010849 -0.002560 -0.007028 0.000000 0.000000 0.000000
# 2 -0.002560 0.011737 -0.002269 0.000000 0.000000 0.000000
# 3 -0.007028 -0.002269 0.028905 0.000000 0.000000 0.000000
# 4 0.000000 0.000000 0.000000 0.056668 0.000000 0.000000
# 5 0.000000 0.000000 0.000000 0.000000 0.035544 0.000000
# 6 0.000000 0.000000 0.000000 0.000000 0.000000 0.056410
#
#
# Mechanical properties :
#
#
# Convention : Reuss Voigt Hill
#
# Bulk Modulus (GPa) = 36.00036 46.49508 41.24772
# Shear Modulus (GPa) = 21.45131 24.67602 23.06367
#
# Velocity S-wave (km/s) = 3.36227 3.60614 3.48634
# Velocity P-wave (km/s) = 5.83483 6.46853 6.15984
#
# Compressibility (1/GPa) = 0.02777750
#
# Stress axis : x y z
#
# Youngs Moduli (GPa) = 92.17645 85.20020 34.59574
#
# Poissons Ratio (x) = 0.21811 0.24314
# Poissons Ratio (y) = 0.23596 0.07849
# Poissons Ratio (z) = 0.64782 0.19331
#
# Static dielectric constant tensor:
#      x y z
#    x 3.503980 0.000000 0.000000 
#    y 0.000000 3.810670 0.000000 
#    z 0.000000 0.000000 3.017700 
# 
# 
# High freq. dielectric constant tensor:
#      x y z
#    x 1.742810 0.000000 0.000000 
#    y 0.000000 1.740030 0.000000 
#    z 0.000000 0.000000 1.694930 
# 
# From -- ./inp_files/7207.got.cif
#   From: 2010.03.12/outbox.cif.g09.slc.cpg/sg65_4_cif.got.tgz:7207.got - 2010.04.10 20:52:16.
