data_PCOD8274777
_publ_section_title
;
Structure prediction by ZEFSAII (Michael W. Deem and Ramdas Pophale) SiO2 
 PCOD8274777
Probable space group: C M M M
;
_chemical_formula_sum "Si O2"
_cell_formula_units_Z 64
_cell_length_a 20.172479
_cell_length_b 9.297293
_cell_length_c 17.404961
_cell_angle_alpha 90.000000
_cell_angle_beta 90.000000
_cell_angle_gamma 90.000000
_cell_volume 3264.290825
_symmetry_space_group_name_H-M "C M M M"
_symmetry_group_IT_number 65
_symmetry_cell_setting 'orthorhombic'
loop_
_space_group_symop_operation_xyz
x,y,z
-x,-y,z
x,-y,-z
-x,y,-z
-x,-y,-z
x,y,-z
-x,y,z
x,-y,z
1/2+x,1/2+y,z
1/2-x,1/2-y,z
1/2+x,1/2-y,-z
1/2-x,1/2+y,-z
1/2-x,1/2-y,-z
1/2+x,1/2+y,-z
1/2-x,1/2+y,z
1/2+x,1/2-y,z
loop_
_atom_site_type_symbol
_atom_site_label
_atom_site_fract_x
_atom_site_fract_y
_atom_site_fract_z
Si Si1 0.921151 0.332877 0.832941
Si Si2 0.428071 0.169260 0.000000
Si Si3 0.185743 0.165477 0.740992
Si Si4 0.000000 0.341392 0.409193
Si Si5 0.374987 0.663104 0.585871
O O1 0.906135 0.500000 0.815469
O O2 0.881320 0.233230 0.774495
O O3 0.000000 0.303225 0.825212
O O4 0.893677 0.289526 0.918889
O O5 0.500000 0.244181 0.000000
O O6 0.438893 0.000000 0.000000
O O7 0.250000 0.250000 0.771417
O O8 0.183785 0.178101 0.647816
O O9 0.191115 0.000000 0.767019
O O10 0.065390 0.259904 0.382036
O O11 0.000000 0.500000 0.371440
O O12 0.000000 0.350906 0.500000
O O13 0.351009 0.710666 0.500000
O O14 0.401213 0.500000 0.582822
#
# Coordination Sequence:
#
# PCOD8274777 Si02
#       5
#    16   8  16   8  16
#     4   9  18  35  61  89 115 145 180 222 271 327
#     4   7  12  28  56  87 114 141 177 217 264 323
#     4  11  24  39  55  78 111 148 188 233 279 330
#     4   9  17  29  49  79 107 130 167 222 273 319
#     4   9  19  36  55  74 102 143 185 226 276 329
#
# _framework density 19.606096000000001
#
# number of rings (size 3 to 8) (size 9 to 14) (size 15 to 20)
#    0.000    2.750    0.000    2.625    1.750    4.500 
#    0.000    1.250    0.000    2.250    0.000    0.000 
#    0.000    0.000    0.000    0.000    0.000    0.000 
#
# Total GULP energy -396466.916889 kJ/mol
# GULP energy per Si atom -12389.591153 kJ/mol
# Density = 1.956147 g / cm^3
# Si number density = 19.606096 Si / 1000 Ang^3
#
#
#
# Elastic Constant Matrix: (Units=GPa)
#
#
# Indices 1 2 3 4 5 6 
#
# 1 75.8016 51.2805 32.2136 0.0000 0.0000 0.0000
# 2 51.2805 109.5283 38.9233 0.0000 0.0000 0.0000
# 3 32.2136 38.9233 95.9369 0.0000 0.0000 0.0000
# 4 0.0000 0.0000 0.0000 20.9539 0.0000 0.0000
# 5 0.0000 0.0000 0.0000 0.0000 13.3310 0.0000
# 6 0.0000 0.0000 0.0000 0.0000 0.0000 26.5875
#
#
#
# Elastic Compliance Matrix: (Units=1/GPa)
#
#
# Indices 1 2 3 4 5 6 
#
# 1 0.020239 -0.008250 -0.003449 0.000000 0.000000 0.000000
# 2 -0.008250 0.014031 -0.002922 0.000000 0.000000 0.000000
# 3 -0.003449 -0.002922 0.012767 0.000000 0.000000 0.000000
# 4 0.000000 0.000000 0.000000 0.047724 0.000000 0.000000
# 5 0.000000 0.000000 0.000000 0.000000 0.075013 0.000000
# 6 0.000000 0.000000 0.000000 0.000000 0.000000 0.037612
#
#
# Mechanical properties :
#
#
# Convention : Reuss Voigt Hill
#
# Bulk Modulus (GPa) = 56.19565 58.45572 57.32568
# Shear Modulus (GPa) = 20.61335 22.76444 21.68889
#
# Velocity S-wave (km/s) = 3.24601 3.41117 3.32962
# Velocity P-wave (km/s) = 6.54013 6.73755 6.63958
#
# Compressibility (1/GPa) = 0.01779497
#
# Stress axis : x y z
#
# Youngs Moduli (GPa) = 49.40857 71.26857 78.32573
#
# Poissons Ratio (x) = 0.58800 0.27012
# Poissons Ratio (y) = 0.40764 0.22890
# Poissons Ratio (z) = 0.17039 0.20828
#
# Static dielectric constant tensor:
#      x y z
#    x 3.142650 0.000000 0.000000 
#    y 0.000000 3.524380 0.000000 
#    z 0.000000 0.000000 3.850740 
# 
# 
# High freq. dielectric constant tensor:
#      x y z
#    x 1.728310 0.000000 0.000000 
#    y 0.000000 1.751410 0.000000 
#    z 0.000000 0.000000 1.772120 
# 
# From -- ./inp_files/49417.got.cif
#   From: 2010.03.12/outbox.cif.g09.slc.cpg/sg65_25_cif.got.tgz:49417.got - 2010.04.10 20:52:16.
