data_PCOD8274733
_publ_section_title
;
Structure prediction by ZEFSAII (Michael W. Deem and Ramdas Pophale) SiO2 
 PCOD8274733
Probable space group: C M M M
;
_chemical_formula_sum "Si O2"
_cell_formula_units_Z 88
_cell_length_a 7.829163
_cell_length_b 17.704501
_cell_length_c 32.337930
_cell_angle_alpha 90.000000
_cell_angle_beta 90.000000
_cell_angle_gamma 90.000000
_cell_volume 4482.406532
_symmetry_space_group_name_H-M "C M M M"
_symmetry_group_IT_number 65
_symmetry_cell_setting 'orthorhombic'
loop_
_space_group_symop_operation_xyz
x,y,z
-x,-y,z
x,-y,-z
-x,y,-z
-x,-y,-z
x,y,-z
-x,y,z
x,-y,z
1/2+x,1/2+y,z
1/2-x,1/2-y,z
1/2+x,1/2-y,-z
1/2-x,1/2+y,-z
1/2-x,1/2-y,-z
1/2+x,1/2+y,-z
1/2-x,1/2+y,z
1/2+x,1/2-y,z
loop_
_atom_site_type_symbol
_atom_site_label
_atom_site_fract_x
_atom_site_fract_y
_atom_site_fract_z
Si Si1 0.203627 0.336654 0.745713
Si Si2 0.803806 0.583736 0.172257
Si Si3 0.000000 0.910584 0.694443
Si Si4 0.500000 0.590038 0.600485
Si Si5 0.302049 0.584889 0.914124
Si Si6 0.310538 0.910173 0.546469
Si Si7 0.800889 0.584299 0.000000
O O1 0.250000 0.250000 0.741199
O O2 0.265781 0.363035 0.791375
O O3 0.322092 0.382027 0.713935
O O4 0.000000 0.350543 0.737444
O O5 0.715212 0.500000 0.173258
O O6 0.776280 0.623171 0.127156
O O7 0.000000 0.572323 0.180948
O O8 0.000000 0.881360 0.647394
O O9 0.000000 0.000000 0.697700
O O10 0.500000 0.500000 0.598614
O O11 0.331407 0.622804 0.577667
O O12 0.500000 0.584440 0.907054
O O13 0.225132 0.500000 0.917243
O O14 0.257626 0.626993 0.957656
O O15 0.270372 0.881594 0.500000
O O16 0.500000 0.882606 0.560233
O O17 0.304630 0.000000 0.547053
O O18 0.716815 0.500000 0.000000
O O19 0.000000 0.579174 0.000000
#
# Coordination Sequence:
#
# PCOD8274733 Si02
#       7
#    16  16   8   8  16  16   8
#     4  11  23  41  62  83 112 151 193 242 297 357
#     4   9  18  32  51  76 103 132 174 226 280 333
#     4  11  24  39  60  89 119 154 199 246 298 353
#     4   9  17  28  43  70 108 147 186 233 283 337
#     4   9  16  24  38  63  94 128 165 211 263 319
#     4   8  13  22  39  65 102 148 189 225 275 337
#     4   9  15  23  35  53  88 133 168 201 253 318
#
# _framework density 19.632311000000001
#
# number of rings (size 3 to 8) (size 9 to 14) (size 15 to 20)
#    0.000    2.636    0.909    2.182    1.273    6.182 
#    0.000    1.818    0.000    0.000    0.000    0.636 
#    0.000    2.909    0.000    0.000    0.000    0.000 
#
# Total GULP energy -545110.980536 kJ/mol
# GULP energy per Si atom -12388.885921 kJ/mol
# Density = 1.958763 g / cm^3
# Si number density = 19.632311 Si / 1000 Ang^3
#
#
#
# Elastic Constant Matrix: (Units=GPa)
#
#
# Indices 1 2 3 4 5 6 
#
# 1 119.0365 21.7839 82.0541 0.0000 0.0000 0.0000
# 2 21.7839 42.0467 31.3695 0.0000 0.0000 0.0000
# 3 82.0541 31.3695 189.2677 0.0000 0.0000 0.0000
# 4 0.0000 0.0000 0.0000 -0.0873 0.0000 0.0000
# 5 0.0000 0.0000 0.0000 0.0000 32.5351 0.0000
# 6 0.0000 0.0000 0.0000 0.0000 0.0000 12.8420
#
#
#
# Elastic Compliance Matrix: (Units=1/GPa)
#
#
# Indices 1 2 3 4 5 6 
#
# 1 0.012248 -0.002720 -0.004859 0.000000 0.000000 0.000000
# 2 -0.002720 0.027743 -0.003419 0.000000 0.000000 0.000000
# 3 -0.004859 -0.003419 0.007957 0.000000 0.000000 0.000000
# 4 0.000000 0.000000 0.000000-11.448597 0.000000 0.000000
# 5 0.000000 0.000000 0.000000 0.000000 0.030736 0.000000
# 6 0.000000 0.000000 0.000000 0.000000 0.000000 0.077870
#
#
# Mechanical properties :
#
#
# Convention : Reuss Voigt Hill
#
# Bulk Modulus (GPa) = 38.53357 68.97398 53.75378
# Shear Modulus (GPa) = -0.44399 23.40083 11.47842
#
# Velocity S-wave (km/s) = -0.47607 3.45622 2.42062
# Velocity P-wave (km/s) = 4.40091 7.15097 5.93736
#
# Compressibility (1/GPa) = 0.02595139
#
# Stress axis : x y z
#
# Youngs Moduli (GPa) = 81.64540 36.04496 125.67948
#
# Poissons Ratio (x) = 0.09806 0.61069
# Poissons Ratio (y) = 0.22211 0.42967
# Poissons Ratio (z) = 0.39672 0.12323
#
# Static dielectric constant tensor:
#      x y z
#    x 3.741540 0.000000 0.000000 
#    y 0.000000 3.049010 0.000000 
#    z 0.000000 0.000000 4.250480 
# 
# 
# High freq. dielectric constant tensor:
#      x y z
#    x 1.775170 0.000000 0.000000 
#    y 0.000000 1.686340 0.000000 
#    z 0.000000 0.000000 1.779060 
# 
# From -- ./inp_files/76817.got.cif
#   From: 2010.03.12/outbox.cif.g09.slc.cpg/sg65_39_cif.got.tgz:76817.got - 2010.04.10 20:52:16.
