data_PCOD8274314
_publ_section_title
;
Structure prediction by ZEFSAII (Michael W. Deem and Ramdas Pophale) SiO2 
 PCOD8274314
Probable space group: C M M M
;
_chemical_formula_sum "Si O2"
_cell_formula_units_Z 80
_cell_length_a 19.720230
_cell_length_b 8.827312
_cell_length_c 25.672826
_cell_angle_alpha 90.000000
_cell_angle_beta 90.000000
_cell_angle_gamma 90.000000
_cell_volume 4469.038851
_symmetry_space_group_name_H-M "C M M M"
_symmetry_group_IT_number 65
_symmetry_cell_setting 'orthorhombic'
loop_
_space_group_symop_operation_xyz
x,y,z
-x,-y,z
x,-y,-z
-x,y,-z
-x,-y,-z
x,y,-z
-x,y,z
x,-y,z
1/2+x,1/2+y,z
1/2-x,1/2-y,z
1/2+x,1/2-y,-z
1/2-x,1/2+y,-z
1/2-x,1/2-y,-z
1/2+x,1/2+y,-z
1/2-x,1/2+y,z
1/2+x,1/2-y,z
loop_
_atom_site_type_symbol
_atom_site_label
_atom_site_fract_x
_atom_site_fract_y
_atom_site_fract_z
Si Si1 0.676923 0.322661 0.643957
Si Si2 0.922443 0.173942 0.060604
Si Si3 0.324062 0.821892 0.139589
Si Si4 0.676845 0.677047 0.758384
Si Si5 0.075627 0.180012 0.557965
O O1 0.686775 0.500000 0.635066
O O2 0.750000 0.250000 0.637109
O O3 0.643861 0.292691 0.701432
O O4 0.626561 0.251303 0.600937
O O5 0.872486 0.282930 0.091711
O O6 0.000000 0.215096 0.074313
O O7 0.907516 0.000000 0.075378
O O8 0.908539 0.201627 0.000000
O O9 0.250000 0.750000 0.130887
O O10 0.360042 0.757970 0.192732
O O11 0.315442 0.000000 0.143936
O O12 0.681806 0.500000 0.770498
O O13 0.750000 0.750000 0.755599
O O14 0.099452 0.229394 0.500000
O O15 0.000000 0.242766 0.568799
O O16 0.074545 0.000000 0.562200
#
# Coordination Sequence:
#
# PCOD8274314 Si02
#       5
#    16  16  16  16  16
#     4   9  17  28  45  69  93 119 154 194 236 281
#     4   9  19  37  58  77 100 131 164 199 242 290
#     4  11  21  33  52  76 102 131 165 204 243 287
#     4   9  16  28  45  66  94 125 157 194 238 286
#     4   8  14  26  44  65  90 120 154 192 232 276
#
# _framework density 17.900942000000001
#
# number of rings (size 3 to 8) (size 9 to 14) (size 15 to 20)
#    0.000    2.800    0.000    4.800    0.000    2.400 
#    0.000    2.000    0.000    4.200    0.000    1.400 
#    0.000    0.000    0.000    0.000    0.000    0.000 
#
# Total GULP energy -495670.808395 kJ/mol
# GULP energy per Si atom -12391.770210 kJ/mol
# Density = 1.786020 g / cm^3
# Si number density = 17.900942 Si / 1000 Ang^3
#
#
#
# Elastic Constant Matrix: (Units=GPa)
#
#
# Indices 1 2 3 4 5 6 
#
# 1 78.8326 35.3926 70.9527 0.0000 0.0000 0.0000
# 2 35.3926 84.5837 51.4228 0.0000 0.0000 0.0000
# 3 70.9527 51.4228 138.4124 0.0000 0.0000 0.0000
# 4 0.0000 0.0000 0.0000 20.5818 0.0000 0.0000
# 5 0.0000 0.0000 0.0000 0.0000 12.3491 0.0000
# 6 0.0000 0.0000 0.0000 0.0000 0.0000 21.0790
#
#
#
# Elastic Compliance Matrix: (Units=1/GPa)
#
#
# Indices 1 2 3 4 5 6 
#
# 1 0.024263 -0.003347 -0.011194 0.000000 0.000000 0.000000
# 2 -0.003347 0.015734 -0.004130 0.000000 0.000000 0.000000
# 3 -0.011194 -0.004130 0.014497 0.000000 0.000000 0.000000
# 4 0.000000 0.000000 0.000000 0.048587 0.000000 0.000000
# 5 0.000000 0.000000 0.000000 0.000000 0.080978 0.000000
# 6 0.000000 0.000000 0.000000 0.000000 0.000000 0.047441
#
#
# Mechanical properties :
#
#
# Convention : Reuss Voigt Hill
#
# Bulk Modulus (GPa) = 58.30049 68.59609 63.44829
# Shear Modulus (GPa) = 18.21106 20.40600 19.30853
#
# Velocity S-wave (km/s) = 3.19301 3.37996 3.28782
# Velocity P-wave (km/s) = 6.79948 7.32361 7.06640
#
# Compressibility (1/GPa) = 0.01715251
#
# Stress axis : x y z
#
# Youngs Moduli (GPa) = 41.21495 63.55777 68.97779
#
# Poissons Ratio (x) = 0.21272 0.77215
# Poissons Ratio (y) = 0.13794 0.28486
# Poissons Ratio (z) = 0.46137 0.26247
#
# Static dielectric constant tensor:
#      x y z
#    x 3.147680 0.000000 0.000000 
#    y 0.000000 3.128920 0.000000 
#    z 0.000000 0.000000 4.043540 
# 
# 
# High freq. dielectric constant tensor:
#      x y z
#    x 1.661920 0.000000 0.000000 
#    y 0.000000 1.675830 0.000000 
#    z 0.000000 0.000000 1.712840 
# 
# From -- ./inp_files/75013.got.cif
#   From: 2010.03.12/outbox.cif.g09.slc.cpg/sg65_38_cif.got.tgz:75013.got - 2010.04.10 20:52:16.
