data_PCOD8274853
_publ_section_title
;
Structure prediction by ZEFSAII (Michael W. Deem and Ramdas Pophale) SiO2 
 PCOD8274853
Probable space group: C M M M
;
_chemical_formula_sum "Si O2"
_cell_formula_units_Z 48
_cell_length_a 38.111818
_cell_length_b 8.809593
_cell_length_c 7.645601
_cell_angle_alpha 90.000000
_cell_angle_beta 90.000000
_cell_angle_gamma 90.000000
_cell_volume 2567.007516
_symmetry_space_group_name_H-M "C M M M"
_symmetry_group_IT_number 65
_symmetry_cell_setting 'orthorhombic'
loop_
_space_group_symop_operation_xyz
x,y,z
-x,-y,z
x,-y,-z
-x,y,-z
-x,-y,-z
x,y,-z
-x,y,z
x,-y,z
1/2+x,1/2+y,z
1/2-x,1/2-y,z
1/2+x,1/2-y,-z
1/2-x,1/2+y,-z
1/2-x,1/2-y,-z
1/2+x,1/2+y,-z
1/2-x,1/2+y,z
1/2+x,1/2-y,z
loop_
_atom_site_type_symbol
_atom_site_label
_atom_site_fract_x
_atom_site_fract_y
_atom_site_fract_z
Si Si1 0.666884 0.176632 0.297487
Si Si2 0.960480 0.681496 0.000000
Si Si3 0.787992 0.821625 0.000000
Si Si4 0.912311 0.319539 0.692168
O O1 0.676419 0.206871 0.500000
O O2 0.627092 0.230458 0.258170
O O3 0.671397 0.000000 0.251411
O O4 0.692159 0.273007 0.175675
O O5 0.940254 0.745666 0.830210
O O6 0.960479 0.500000 0.000000
O O7 0.000000 0.745285 0.000000
O O8 0.750000 0.750000 0.000000
O O9 0.783930 0.000000 0.000000
O O10 0.922418 0.256720 0.500000
O O11 0.913486 0.500000 0.689847
#
# Coordination Sequence:
#
# PCOD8274853 Si02
#       4
#    16   8   8  16
#     4   9  18  35  58  78  98 131 175 218 257 300
#     4   9  15  20  30  55  94 135 166 195 237 291
#     4  12  25  38  54  77 107 138 165 201 251 307
#     4   8  14  25  42  63  87 121 165 207 246 290
#
# _framework density 18.698815
#
# number of rings (size 3 to 8) (size 9 to 14) (size 15 to 20)
#    0.000    2.833    0.000    4.500    0.000    4.667 
#    0.000    3.333    0.000    0.000    0.000    0.000 
#    0.000   10.667    0.000   29.333    0.000   29.333 
#
# Total GULP energy -297519.284495 kJ/mol
# GULP energy per Si atom -12396.636854 kJ/mol
# Density = 1.865626 g / cm^3
# Si number density = 18.698815 Si / 1000 Ang^3
#
#
#
# Elastic Constant Matrix: (Units=GPa)
#
#
# Indices 1 2 3 4 5 6 
#
# 1 168.6076 42.8595 110.1533 0.0000 0.0000 0.0000
# 2 42.8595 58.7799 42.2384 0.0000 0.0000 0.0000
# 3 110.1533 42.2384 153.3725 0.0000 0.0000 0.0000
# 4 0.0000 0.0000 0.0000 19.9579 0.0000 0.0000
# 5 0.0000 0.0000 0.0000 0.0000 15.7217 0.0000
# 6 0.0000 0.0000 0.0000 0.0000 0.0000 14.6889
#
#
#
# Elastic Compliance Matrix: (Units=1/GPa)
#
#
# Indices 1 2 3 4 5 6 
#
# 1 0.011605 -0.003083 -0.007486 0.000000 0.000000 0.000000
# 2 -0.003083 0.022029 -0.003853 0.000000 0.000000 0.000000
# 3 -0.007486 -0.003853 0.012958 0.000000 0.000000 0.000000
# 4 0.000000 0.000000 0.000000 0.050105 0.000000 0.000000
# 5 0.000000 0.000000 0.000000 0.000000 0.063606 0.000000
# 6 0.000000 0.000000 0.000000 0.000000 0.000000 0.068079
#
#
# Mechanical properties :
#
#
# Convention : Reuss Voigt Hill
#
# Bulk Modulus (GPa) = 56.34138 85.69581 71.01859
# Shear Modulus (GPa) = 19.00123 22.44097 20.72110
#
# Velocity S-wave (km/s) = 3.19120 3.46804 3.33250
# Velocity P-wave (km/s) = 6.61625 7.87182 7.27118
#
# Compressibility (1/GPa) = 0.01774895
#
# Stress axis : x y z
#
# Youngs Moduli (GPa) = 86.16812 45.39510 77.17480
#
# Poissons Ratio (x) = 0.13994 0.57773
# Poissons Ratio (y) = 0.26563 0.29733
# Poissons Ratio (z) = 0.64505 0.17489
#
# Static dielectric constant tensor:
#      x y z
#    x 3.579830 0.000000 0.000000 
#    y 0.000000 2.845250 0.000000 
#    z 0.000000 0.000000 3.851130 
# 
# 
# High freq. dielectric constant tensor:
#      x y z
#    x 1.728180 0.000000 0.000000 
#    y 0.000000 1.663400 0.000000 
#    z 0.000000 0.000000 1.744420 
# 
# From -- ./inp_files/3123.got.cif
#   From: 2010.03.12/outbox.cif.g09.slc.cpg/sg65_2_cif.got.tgz:3123.got - 2010.04.10 20:52:16.
