data_PCOD8274076
_publ_section_title
;
Structure prediction by ZEFSAII (Michael W. Deem and Ramdas Pophale) SiO2 
 PCOD8274076
Probable space group: C M M M
;
_chemical_formula_sum "Si O2"
_cell_formula_units_Z 88
_cell_length_a 21.675115
_cell_length_b 22.115574
_cell_length_c 9.189212
_cell_angle_alpha 90.000000
_cell_angle_beta 90.000000
_cell_angle_gamma 90.000000
_cell_volume 4404.918700
_symmetry_space_group_name_H-M "C M M M"
_symmetry_group_IT_number 65
_symmetry_cell_setting 'orthorhombic'
loop_
_space_group_symop_operation_xyz
x,y,z
-x,-y,z
x,-y,-z
-x,y,-z
-x,-y,-z
x,y,-z
-x,y,z
x,-y,z
1/2+x,1/2+y,z
1/2-x,1/2-y,z
1/2+x,1/2-y,-z
1/2-x,1/2+y,-z
1/2-x,1/2-y,-z
1/2+x,1/2+y,-z
1/2-x,1/2+y,z
1/2+x,1/2-y,z
loop_
_atom_site_type_symbol
_atom_site_label
_atom_site_fract_x
_atom_site_fract_y
_atom_site_fract_z
Si Si1 0.500000 0.569328 0.658742
Si Si2 0.566851 0.070071 0.157029
Si Si3 0.231215 0.929503 0.669666
Si Si4 0.112568 0.119834 0.828502
Si Si5 0.071372 0.253682 0.170921
Si Si6 0.647830 0.144771 0.666518
O O1 0.500000 0.500000 0.622945
O O2 0.500000 0.603073 0.500000
O O3 0.559345 0.582777 0.753168
O O4 0.500000 0.102518 0.166488
O O5 0.605637 0.087372 0.297825
O O6 0.556559 0.000000 0.162688
O O7 0.597267 0.088492 0.000000
O O8 0.213364 0.925969 0.500000
O O9 0.176112 0.906005 0.768126
O O10 0.284368 0.880180 0.705232
O O11 0.248407 0.000000 0.708457
O O12 0.101534 0.189686 0.789113
O O13 0.110261 0.108827 0.000000
O O14 0.120137 0.301044 0.237625
O O15 0.000000 0.257562 0.230390
O O16 0.069991 0.264423 0.000000
O O17 0.642976 0.164408 0.500000
#
# Coordination Sequence:
#
# PCOD8274076 Si02
#       6
#     8  16  16  16  16  16
#     4  11  23  39  63  95 129 163 196 241 310 375
#     4   9  18  33  53  78 110 150 197 250 309 367
#     4  10  23  43  62  85 124 166 201 247 311 372
#     4  11  23  41  65  93 122 157 206 257 302 357
#     4  10  22  42  63  86 123 163 200 250 311 365
#     4  11  23  37  57  86 119 159 206 252 299 357
#
# _framework density 19.977668000000001
#
# number of rings (size 3 to 8) (size 9 to 14) (size 15 to 20)
#    0.000    1.727    0.909    3.545    0.000   10.909 
#    0.000    4.545    0.000    0.000    0.000    0.000 
#    0.000    0.000    0.000    0.000    0.000    0.000 
#
# Total GULP energy -545089.861834 kJ/mol
# GULP energy per Si atom -12388.405951 kJ/mol
# Density = 1.993220 g / cm^3
# Si number density = 19.977668 Si / 1000 Ang^3
#
#
#
# Elastic Constant Matrix: (Units=GPa)
#
#
# Indices 1 2 3 4 5 6 
#
# 1 122.6258 54.7129 68.2382 0.0000 0.0000 0.0000
# 2 54.7129 101.7844 51.6472 0.0000 0.0000 0.0000
# 3 68.2382 51.6472 73.7672 0.0000 0.0000 0.0000
# 4 0.0000 0.0000 0.0000 30.1033 0.0000 0.0000
# 5 0.0000 0.0000 0.0000 0.0000 43.7033 0.0000
# 6 0.0000 0.0000 0.0000 0.0000 0.0000 26.3356
#
#
#
# Elastic Compliance Matrix: (Units=1/GPa)
#
#
# Indices 1 2 3 4 5 6 
#
# 1 0.017016 -0.001799 -0.014481 0.000000 0.000000 0.000000
# 2 -0.001799 0.015428 -0.009138 0.000000 0.000000 0.000000
# 3 -0.014481 -0.009138 0.033350 0.000000 0.000000 0.000000
# 4 0.000000 0.000000 0.000000 0.033219 0.000000 0.000000
# 5 0.000000 0.000000 0.000000 0.000000 0.022882 0.000000
# 6 0.000000 0.000000 0.000000 0.000000 0.000000 0.037971
#
#
# Mechanical properties :
#
#
# Convention : Reuss Voigt Hill
#
# Bulk Modulus (GPa) = 66.85308 71.93046 69.39177
# Shear Modulus (GPa) = 23.18164 28.26704 25.72434
#
# Velocity S-wave (km/s) = 3.41013 3.76564 3.59228
# Velocity P-wave (km/s) = 7.00299 7.41555 7.21222
#
# Compressibility (1/GPa) = 0.01495817
#
# Stress axis : x y z
#
# Youngs Moduli (GPa) = 58.76896 64.81555 29.98513
#
# Poissons Ratio (x) = 0.11658 0.43422
# Poissons Ratio (y) = 0.10570 0.27401
# Poissons Ratio (z) = 0.85104 0.59230
#
# Static dielectric constant tensor:
#      x y z
#    x 3.617720 0.000000 0.000000 
#    y 0.000000 3.793600 0.000000 
#    z 0.000000 0.000000 3.896660 
# 
# 
# High freq. dielectric constant tensor:
#      x y z
#    x 1.781310 0.000000 0.000000 
#    y 0.000000 1.789680 0.000000 
#    z 0.000000 0.000000 1.780360 
# 
# From -- ./inp_files/11831.got.cif
#   From: 2010.03.12/outbox.cif.g09.slc.cpg/sg65_6_cif.got.tgz:11831.got - 2010.04.10 20:52:16.
