data_PCOD8274203
_publ_section_title
;
Structure prediction by ZEFSAII (Michael W. Deem and Ramdas Pophale) SiO2 
 PCOD8274203
Probable space group: C M M M
;
_chemical_formula_sum "Si O2"
_cell_formula_units_Z 96
_cell_length_a 30.583982
_cell_length_b 27.674828
_cell_length_c 9.084913
_cell_angle_alpha 90.000000
_cell_angle_beta 90.000000
_cell_angle_gamma 90.000000
_cell_volume 7689.528883
_symmetry_space_group_name_H-M "C M M M"
_symmetry_group_IT_number 65
_symmetry_cell_setting 'orthorhombic'
loop_
_space_group_symop_operation_xyz
x,y,z
-x,-y,z
x,-y,-z
-x,y,-z
-x,-y,-z
x,y,-z
-x,y,z
x,-y,z
1/2+x,1/2+y,z
1/2-x,1/2-y,z
1/2+x,1/2-y,-z
1/2-x,1/2+y,-z
1/2-x,1/2-y,-z
1/2+x,1/2+y,-z
1/2-x,1/2+y,z
1/2+x,1/2-y,z
loop_
_atom_site_type_symbol
_atom_site_label
_atom_site_fract_x
_atom_site_fract_y
_atom_site_fract_z
Si Si1 0.335814 0.805191 0.165024
Si Si2 0.449506 0.944189 0.168565
Si Si3 0.203261 0.555053 0.827940
Si Si4 0.374484 0.107632 0.325518
Si Si5 0.796214 0.223125 0.335045
Si Si6 0.743217 0.357436 0.837230
O O1 0.368055 0.838944 0.258922
O O2 0.331866 0.752671 0.240832
O O3 0.288519 0.828971 0.159959
O O4 0.354431 0.798689 0.000000
O O5 0.500000 0.931225 0.193080
O O6 0.422037 0.910981 0.278633
O O7 0.440711 0.000000 0.206585
O O8 0.435744 0.933866 0.000000
O O9 0.215660 0.500000 0.792934
O O10 0.161184 0.569878 0.734310
O O11 0.245383 0.587945 0.784606
O O12 0.191784 0.563055 0.000000
O O13 0.370698 0.110818 0.500000
O O14 0.814096 0.218442 0.500000
O O15 0.750000 0.250000 0.331797
O O16 0.790800 0.168938 0.270715
O O17 0.722280 0.357639 0.000000
#
# Coordination Sequence:
#
# PCOD8274203 Si02
#       6
#    16  16  16  16  16  16
#     4   9  16  26  38  49  63  84 107 128 153 191
#     4   9  18  32  46  55  64  83 110 135 161 199
#     4   9  17  28  39  49  64  88 115 139 163 195
#     4  11  20  27  37  54  72  85 101 131 170 206
#     4   9  15  22  33  49  67  83 100 126 159 192
#     4   8  14  23  34  47  62  83 109 132 156 189
#
# _framework density 12.48451
#
# number of rings (size 3 to 8) (size 9 to 14) (size 15 to 20)
#    0.000    2.833    0.000    4.500    0.000    9.000 
#    0.000    0.833    0.000    0.000    0.000    0.000 
#    0.000    0.000    0.000    0.000    0.000    0.000 
#
# Total GULP energy -595023.673512 kJ/mol
# GULP energy per Si atom -12396.326532 kJ/mol
# Density = 1.245609 g / cm^3
# Si number density = 12.484510 Si / 1000 Ang^3
#
#
#
# Elastic Constant Matrix: (Units=GPa)
#
#
# Indices 1 2 3 4 5 6 
#
# 1 30.3007 37.4078 29.7691 0.0000 0.0000 0.0000
# 2 37.4078 84.5104 48.6313 0.0000 0.0000 0.0000
# 3 29.7691 48.6313 96.8698 0.0000 0.0000 0.0000
# 4 0.0000 0.0000 0.0000 13.7552 0.0000 0.0000
# 5 0.0000 0.0000 0.0000 0.0000 13.0518 0.0000
# 6 0.0000 0.0000 0.0000 0.0000 0.0000 17.5830
#
#
#
# Elastic Compliance Matrix: (Units=1/GPa)
#
#
# Indices 1 2 3 4 5 6 
#
# 1 0.078394 -0.029302 -0.009381 0.000000 0.000000 0.000000
# 2 -0.029302 0.027593 -0.004847 0.000000 0.000000 0.000000
# 3 -0.009381 -0.004847 0.015639 0.000000 0.000000 0.000000
# 4 0.000000 0.000000 0.000000 0.072700 0.000000 0.000000
# 5 0.000000 0.000000 0.000000 0.000000 0.076618 0.000000
# 6 0.000000 0.000000 0.000000 0.000000 0.000000 0.056873
#
#
# Mechanical properties :
#
#
# Convention : Reuss Voigt Hill
#
# Bulk Modulus (GPa) = 28.93075 49.25524 39.09300
# Shear Modulus (GPa) = 11.72609 15.26952 13.49781
#
# Velocity S-wave (km/s) = 3.06805 3.50105 3.29167
# Velocity P-wave (km/s) = 5.98115 7.47541 6.76964
#
# Compressibility (1/GPa) = 0.03456529
#
# Stress axis : x y z
#
# Youngs Moduli (GPa) = 12.75607 36.24149 63.94081
#
# Poissons Ratio (x) = 1.06196 0.59982
# Poissons Ratio (y) = 0.37378 0.30994
# Poissons Ratio (z) = 0.11966 0.17568
#
# Static dielectric constant tensor:
#      x y z
#    x 2.171450 0.000000 0.000000 
#    y 0.000000 2.679080 0.000000 
#    z 0.000000 0.000000 2.669970 
# 
# 
# High freq. dielectric constant tensor:
#      x y z
#    x 1.412650 0.000000 0.000000 
#    y 0.000000 1.464810 0.000000 
#    z 0.000000 0.000000 1.485130 
# 
# From -- ./inp_files/16929.got.cif
#   From: 2010.03.12/outbox.cif.g09.slc.cpg/sg65_9_cif.got.tgz:16929.got - 2010.04.10 20:52:16.
