data_PCOD8274408
_publ_section_title
;
Structure prediction by ZEFSAII (Michael W. Deem and Ramdas Pophale) SiO2 
 PCOD8274408
Probable space group: C M M M
;
_chemical_formula_sum "Si O2"
_cell_formula_units_Z 72
_cell_length_a 27.403994
_cell_length_b 10.135529
_cell_length_c 13.637864
_cell_angle_alpha 90.000000
_cell_angle_beta 90.000000
_cell_angle_gamma 90.000000
_cell_volume 3787.970949
_symmetry_space_group_name_H-M "C M M M"
_symmetry_group_IT_number 65
_symmetry_cell_setting 'orthorhombic'
loop_
_space_group_symop_operation_xyz
x,y,z
-x,-y,z
x,-y,-z
-x,y,-z
-x,-y,-z
x,y,-z
-x,y,z
x,-y,z
1/2+x,1/2+y,z
1/2-x,1/2-y,z
1/2+x,1/2-y,-z
1/2-x,1/2+y,-z
1/2-x,1/2-y,-z
1/2+x,1/2+y,-z
1/2-x,1/2+y,z
1/2+x,1/2-y,z
loop_
_atom_site_type_symbol
_atom_site_label
_atom_site_fract_x
_atom_site_fract_y
_atom_site_fract_z
Si Si1 0.095078 0.267784 0.500000
Si Si2 0.185322 0.000000 0.281938
Si Si3 0.945111 0.653821 0.296672
Si Si4 0.149211 0.270807 0.800957
Si Si5 0.671712 0.000000 0.500000
Si Si6 0.298680 0.158687 0.000000
Si Si7 0.794429 0.500000 0.703385
Si Si8 0.151513 0.000000 0.500000
O O1 0.062513 0.280758 0.402780
O O2 0.138601 0.371341 0.500000
O O3 0.116742 0.123832 0.500000
O O4 0.159968 0.876330 0.232057
O O5 0.241500 0.000000 0.247238
O O6 0.183325 0.000000 0.400135
O O7 0.935373 0.500000 0.310422
O O8 0.908864 0.708562 0.212497
O O9 0.000000 0.683923 0.260806
O O10 0.167137 0.303181 0.909551
O O11 0.176894 0.368395 0.728927
O O12 0.710103 0.000000 0.587476
O O13 0.250000 0.250000 0.000000
O O14 0.286311 0.000000 0.000000
#
# Coordination Sequence:
#
# PCOD8274408 Si02
#       8
#     8   8  16  16   4   8   8   4
#     4  12  19  37  57  91 123 169 210 272 314 373
#     4  12  25  39  62  91 133 181 210 257 328 389
#     4  11  21  39  67  93 122 168 219 271 329 381
#     4  12  24  43  63  93 132 163 218 272 317 385
#     4  12  19  34  63  82 128 160 225 252 313 378
#     4  12  26  44  71 101 130 168 217 272 328 382
#     4  12  21  39  60  89 123 173 212 261 314 385
#     4  12  23  38  57  90 140 170 215 256 323 392
#
# _framework density 19.007536999999999
#
# number of rings (size 3 to 8) (size 9 to 14) (size 15 to 20)
#    0.000    0.222    7.778    2.667    1.556    0.889 
#    0.000    6.667    0.000    2.000    0.000    1.556 
#    0.000    0.000    0.000    0.000    0.000    0.000 
#
# Total GULP energy -446385.165374 kJ/mol
# GULP energy per Si atom -12399.587927 kJ/mol
# Density = 1.896428 g / cm^3
# Si number density = 19.007537 Si / 1000 Ang^3
#
#
#
# Elastic Constant Matrix: (Units=GPa)
#
#
# Indices 1 2 3 4 5 6 
#
# 1 149.1523 57.9104 47.9537 0.0000 0.0000 0.0000
# 2 57.9104 155.3596 35.8029 0.0000 0.0000 0.0000
# 3 47.9537 35.8029 130.2970 0.0000 0.0000 0.0000
# 4 0.0000 0.0000 0.0000 -89.0237 0.0000 0.0000
# 5 0.0000 0.0000 0.0000 0.0000 19.5293 0.0000
# 6 0.0000 0.0000 0.0000 0.0000 0.0000 17.3255
#
#
#
# Elastic Compliance Matrix: (Units=1/GPa)
#
#
# Indices 1 2 3 4 5 6 
#
# 1 0.008492 -0.002611 -0.002408 0.000000 0.000000 0.000000
# 2 -0.002611 0.007674 -0.001148 0.000000 0.000000 0.000000
# 3 -0.002408 -0.001148 0.008876 0.000000 0.000000 0.000000
# 4 0.000000 0.000000 0.000000 -0.011233 0.000000 0.000000
# 5 0.000000 0.000000 0.000000 0.000000 0.051205 0.000000
# 6 0.000000 0.000000 0.000000 0.000000 0.000000 0.057718
#
#
# Mechanical properties :
#
#
# Convention : Reuss Voigt Hill
#
# Bulk Modulus (GPa) = 78.67935 79.79365 79.23650
# Shear Modulus (GPa) = 35.89279 9.10903 22.50091
#
# Velocity S-wave (km/s) = 4.35022 2.19151 3.44436
# Velocity P-wave (km/s) = 8.16800 6.96238 7.58917
#
# Compressibility (1/GPa) = 0.01270981
#
# Stress axis : x y z
#
# Youngs Moduli (GPa) = 117.75251 130.30463 112.65719
#
# Poissons Ratio (x) = 0.34017 0.27130
# Poissons Ratio (y) = 0.30740 0.12933
# Poissons Ratio (z) = 0.28357 0.14958
#
# Static dielectric constant tensor:
#      x y z
#    x 3.535910 0.000000 0.000000 
#    y 0.000000 3.649030 0.000000 
#    z 0.000000 0.000000 3.630290 
# 
# 
# High freq. dielectric constant tensor:
#      x y z
#    x 1.737480 0.000000 0.000000 
#    y 0.000000 1.749620 0.000000 
#    z 0.000000 0.000000 1.735110 
# 
# From -- ./inp_files/46630.got.cif
#   From: 2010.03.12/outbox.cif.g09.slc.cpg/sg65_24_cif.got.tgz:46630.got - 2010.04.10 20:52:16.
