data_PCOD8274955
_publ_section_title
;
Structure prediction by ZEFSAII (Michael W. Deem and Ramdas Pophale) SiO2 
 PCOD8274955
Probable space group: C M M M
;
_chemical_formula_sum "Si O2"
_cell_formula_units_Z 80
_cell_length_a 30.411345
_cell_length_b 9.510537
_cell_length_c 20.515505
_cell_angle_alpha 90.000000
_cell_angle_beta 90.000000
_cell_angle_gamma 90.000000
_cell_volume 5933.663031
_symmetry_space_group_name_H-M "C M M M"
_symmetry_group_IT_number 65
_symmetry_cell_setting 'orthorhombic'
loop_
_space_group_symop_operation_xyz
x,y,z
-x,-y,z
x,-y,-z
-x,y,-z
-x,-y,-z
x,y,-z
-x,y,z
x,-y,z
1/2+x,1/2+y,z
1/2-x,1/2-y,z
1/2+x,1/2-y,-z
1/2-x,1/2+y,-z
1/2-x,1/2-y,-z
1/2+x,1/2+y,-z
1/2-x,1/2+y,z
1/2+x,1/2-y,z
loop_
_atom_site_type_symbol
_atom_site_label
_atom_site_fract_x
_atom_site_fract_y
_atom_site_fract_z
Si Si1 0.711155 0.655588 0.922616
Si Si2 0.552317 0.158524 0.690320
Si Si3 0.385541 0.667318 0.927796
Si Si4 0.552301 0.342250 0.427574
Si Si5 0.948974 0.163983 0.185657
O O1 0.716344 0.500000 0.892537
O O2 0.750000 0.750000 0.892065
O O3 0.663013 0.719459 0.905344
O O4 0.715662 0.647809 0.000000
O O5 0.500000 0.156337 0.687364
O O6 0.571605 0.233933 0.625611
O O7 0.567849 0.246755 0.752901
O O8 0.571052 0.000000 0.694060
O O9 0.384410 0.500000 0.931208
O O10 0.422092 0.719234 0.876907
O O11 0.397218 0.726679 0.000000
O O12 0.567806 0.295654 0.500000
O O13 0.500000 0.341982 0.424201
O O14 0.569302 0.500000 0.412194
O O15 0.000000 0.191508 0.170712
O O16 0.940192 0.000000 0.200358
#
# Coordination Sequence:
#
# PCOD8274955 Si02
#       5
#    16  16  16  16  16
#     4   8  13  22  36  52  69  86 103 128 166 211
#     4   9  16  24  33  45  63  87 113 141 172 205
#     4   8  14  24  37  53  70  86 109 145 183 212
#     4   8  13  21  33  48  64  81 104 137 173 205
#     4   9  16  25  37  50  64  87 119 150 177 206
#
# _framework density 13.482397000000001
#
# number of rings (size 3 to 8) (size 9 to 14) (size 15 to 20)
#    0.000    3.600    0.000    2.400    0.000    3.200 
#    0.000    5.000    0.000    1.800    0.000    2.800 
#    0.000    0.000    0.000    0.000    0.000    1.000 
#
# Total GULP energy -495653.046285 kJ/mol
# GULP energy per Si atom -12391.326157 kJ/mol
# Density = 1.345171 g / cm^3
# Si number density = 13.482397 Si / 1000 Ang^3
#
#
#
# Elastic Constant Matrix: (Units=GPa)
#
#
# Indices 1 2 3 4 5 6 
#
# 1 47.9160 27.5523 40.7635 0.0000 0.0000 0.0000
# 2 27.5523 68.0362 50.8875 0.0000 0.0000 0.0000
# 3 40.7635 50.8875 103.2446 0.0000 0.0000 0.0000
# 4 0.0000 0.0000 0.0000 11.1783 0.0000 0.0000
# 5 0.0000 0.0000 0.0000 0.0000 0.8157 0.0000
# 6 0.0000 0.0000 0.0000 0.0000 0.0000 11.7321
#
#
#
# Elastic Compliance Matrix: (Units=1/GPa)
#
#
# Indices 1 2 3 4 5 6 
#
# 1 0.032759 -0.005690 -0.010130 0.000000 0.000000 0.000000
# 2 -0.005690 0.024269 -0.009715 0.000000 0.000000 0.000000
# 3 -0.010130 -0.009715 0.018474 0.000000 0.000000 0.000000
# 4 0.000000 0.000000 0.000000 0.089459 0.000000 0.000000
# 5 0.000000 0.000000 0.000000 0.000000 1.225955 0.000000
# 6 0.000000 0.000000 0.000000 0.000000 0.000000 0.085236
#
#
# Mechanical properties :
#
#
# Convention : Reuss Voigt Hill
#
# Bulk Modulus (GPa) = 40.92975 50.84483 45.88729
# Shear Modulus (GPa) = 3.25655 11.41145 7.33400
#
# Velocity S-wave (km/s) = 1.55585 2.91244 2.33484
# Velocity P-wave (km/s) = 5.80098 7.00740 6.43254
#
# Compressibility (1/GPa) = 0.02443211
#
# Stress axis : x y z
#
# Youngs Moduli (GPa) = 30.52579 41.20536 54.13129
#
# Poissons Ratio (x) = 0.23445 0.54833
# Poissons Ratio (y) = 0.17369 0.52589
# Poissons Ratio (z) = 0.30922 0.40032
#
# Static dielectric constant tensor:
#      x y z
#    x 2.462800 0.000000 0.000000 
#    y 0.000000 2.761150 0.000000 
#    z 0.000000 0.000000 2.770120 
# 
# 
# High freq. dielectric constant tensor:
#      x y z
#    x 1.462610 0.000000 0.000000 
#    y 0.000000 1.503430 0.000000 
#    z 0.000000 0.000000 1.499640 
# 
# From -- ./inp_files/60527.got.cif
#   From: 2010.03.12/outbox.cif.g09.slc.cpg/sg65_31_cif.got.tgz:60527.got - 2010.04.10 20:52:16.
