data_PCOD8274018
_publ_section_title
;
Structure prediction by ZEFSAII (Michael W. Deem and Ramdas Pophale) SiO2 
 PCOD8274018
Probable space group: C M M M
;
_chemical_formula_sum "Si O2"
_cell_formula_units_Z 88
_cell_length_a 23.582786
_cell_length_b 8.819998
_cell_length_c 23.048596
_cell_angle_alpha 90.000000
_cell_angle_beta 90.000000
_cell_angle_gamma 90.000000
_cell_volume 4794.110857
_symmetry_space_group_name_H-M "C M M M"
_symmetry_group_IT_number 65
_symmetry_cell_setting 'orthorhombic'
loop_
_space_group_symop_operation_xyz
x,y,z
-x,-y,z
x,-y,-z
-x,y,-z
-x,-y,-z
x,y,-z
-x,y,z
x,-y,z
1/2+x,1/2+y,z
1/2-x,1/2-y,z
1/2+x,1/2-y,-z
1/2-x,1/2+y,-z
1/2-x,1/2-y,-z
1/2+x,1/2+y,-z
1/2-x,1/2+y,z
1/2+x,1/2-y,z
loop_
_atom_site_type_symbol
_atom_site_label
_atom_site_fract_x
_atom_site_fract_y
_atom_site_fract_z
Si Si1 0.115405 0.826300 0.936730
Si Si2 0.688514 0.681439 0.173445
Si Si3 0.500000 0.823555 0.913462
Si Si4 0.393442 0.177394 0.737811
Si Si5 0.432689 0.329530 0.500000
Si Si6 0.935836 0.674110 0.614835
Si Si7 0.500000 0.676580 0.207911
O O1 0.153618 0.765301 0.883689
O O2 0.056339 0.740434 0.942497
O O3 0.101278 0.000000 0.923503
O O4 0.146159 0.807788 0.000000
O O5 0.690557 0.500000 0.179954
O O6 0.750000 0.750000 0.164853
O O7 0.662645 0.757821 0.231372
O O8 0.500000 0.784676 0.846603
O O9 0.500000 0.000000 0.923888
O O10 0.392201 0.198586 0.668237
O O11 0.444481 0.284034 0.756780
O O12 0.402693 0.000000 0.753814
O O13 0.411554 0.500000 0.500000
O O14 0.500000 0.311359 0.500000
O O15 0.408828 0.255713 0.558900
O O16 0.940266 0.500000 0.598379
O O17 0.000000 0.733523 0.629881
O O18 0.500000 0.500000 0.190508
#
# Coordination Sequence:
#
# PCOD8274018 Si02
#       7
#    16  16   8  16   8  16   8
#     4  10  22  40  60  82 111 146 181 221 275 333
#     4  11  24  41  60  81 107 143 184 231 281 329
#     4  12  23  35  56  85 115 145 181 222 267 325
#     4  11  21  36  57  83 111 143 185 231 276 329
#     4   9  17  27  41  69 108 149 188 223 257 306
#     4   9  17  30  48  73 108 149 184 218 266 320
#     4  12  22  33  53  81 113 147 179 220 278 336
#
# _framework density 18.355854999999998
#
# number of rings (size 3 to 8) (size 9 to 14) (size 15 to 20)
#    0.000    1.545    2.727    3.273    0.000    5.091 
#    0.000    0.000    0.000    0.000    0.000    0.636 
#    0.000    0.000    0.000    0.000    0.000    0.000 
#
# Total GULP energy -545414.194754 kJ/mol
# GULP energy per Si atom -12395.777153 kJ/mol
# Density = 1.831408 g / cm^3
# Si number density = 18.355855 Si / 1000 Ang^3
#
#
#
# Elastic Constant Matrix: (Units=GPa)
#
#
# Indices 1 2 3 4 5 6 
#
# 1 93.0132 38.2463 47.1433 0.0000 0.0000 0.0000
# 2 38.2463 75.4195 52.0968 0.0000 0.0000 0.0000
# 3 47.1433 52.0968 147.7696 0.0000 0.0000 0.0000
# 4 0.0000 0.0000 0.0000 27.2323 0.0000 0.0000
# 5 0.0000 0.0000 0.0000 0.0000 10.6015 0.0000
# 6 0.0000 0.0000 0.0000 0.0000 0.0000 29.1695
#
#
#
# Elastic Compliance Matrix: (Units=1/GPa)
#
#
# Indices 1 2 3 4 5 6 
#
# 1 0.014332 -0.005432 -0.002657 0.000000 0.000000 0.000000
# 2 -0.005432 0.019587 -0.005172 0.000000 0.000000 0.000000
# 3 -0.002657 -0.005172 0.009439 0.000000 0.000000 0.000000
# 4 0.000000 0.000000 0.000000 0.036721 0.000000 0.000000
# 5 0.000000 0.000000 0.000000 0.000000 0.094326 0.000000
# 6 0.000000 0.000000 0.000000 0.000000 0.000000 0.034282
#
#
# Mechanical properties :
#
#
# Convention : Reuss Voigt Hill
#
# Bulk Modulus (GPa) = 59.40547 65.68614 62.54580
# Shear Modulus (GPa) = 20.76228 25.31506 23.03867
#
# Velocity S-wave (km/s) = 3.36683 3.71769 3.54660
# Velocity P-wave (km/s) = 6.89547 7.36823 7.13577
#
# Compressibility (1/GPa) = 0.01683347
#
# Stress axis : x y z
#
# Youngs Moduli (GPa) = 69.77575 51.05464 105.94901
#
# Poissons Ratio (x) = 0.27735 0.28151
# Poissons Ratio (y) = 0.37905 0.54800
# Poissons Ratio (z) = 0.18540 0.26407
#
# Static dielectric constant tensor:
#      x y z
#    x 3.097270 0.000000 0.000000 
#    y 0.000000 3.414750 0.000000 
#    z 0.000000 0.000000 3.613900 
# 
# 
# High freq. dielectric constant tensor:
#      x y z
#    x 1.665510 0.000000 0.000000 
#    y 0.000000 1.719450 0.000000 
#    z 0.000000 0.000000 1.726850 
# 
# From -- ./inp_files/71049.got.cif
#   From: 2010.03.12/outbox.cif.g09.slc.cpg/sg65_36_cif.got.tgz:71049.got - 2010.04.10 20:52:16.
