data_PCOD8274321
_publ_section_title
;
Structure prediction by ZEFSAII (Michael W. Deem and Ramdas Pophale) SiO2 
 PCOD8274321
Probable space group: C M M M
;
_chemical_formula_sum "Si O2"
_cell_formula_units_Z 72
_cell_length_a 15.830902
_cell_length_b 8.703135
_cell_length_c 24.865778
_cell_angle_alpha 90.000000
_cell_angle_beta 90.000000
_cell_angle_gamma 90.000000
_cell_volume 3425.969029
_symmetry_space_group_name_H-M "C M M M"
_symmetry_group_IT_number 65
_symmetry_cell_setting 'orthorhombic'
loop_
_space_group_symop_operation_xyz
x,y,z
-x,-y,z
x,-y,-z
-x,y,-z
-x,-y,-z
x,y,-z
-x,y,z
x,-y,z
1/2+x,1/2+y,z
1/2-x,1/2-y,z
1/2+x,1/2-y,-z
1/2-x,1/2+y,-z
1/2-x,1/2-y,-z
1/2+x,1/2+y,-z
1/2-x,1/2+y,z
1/2+x,1/2-y,z
loop_
_atom_site_type_symbol
_atom_site_label
_atom_site_fract_x
_atom_site_fract_y
_atom_site_fract_z
Si Si1 0.903886 0.675083 0.229173
Si Si2 0.000000 0.182876 0.060733
Si Si3 0.842274 0.679750 0.441760
Si Si4 0.843399 0.181585 0.335342
Si Si5 0.663073 0.681910 0.125125
O O1 0.872220 0.500000 0.234245
O O2 0.898981 0.757887 0.286389
O O3 0.845815 0.762472 0.186421
O O4 0.000000 0.683082 0.209075
O O5 0.915671 0.244673 0.090114
O O6 0.000000 0.000000 0.061858
O O7 0.000000 0.246057 0.000000
O O8 0.888037 0.707312 0.500000
O O9 0.835836 0.500000 0.429162
O O10 0.750000 0.750000 0.445715
O O11 0.888066 0.762227 0.391270
O O12 0.750000 0.250000 0.330530
O O13 0.839772 0.000000 0.333901
O O14 0.667527 0.500000 0.123574
O O15 0.750000 0.750000 0.100952
#
# Coordination Sequence:
#
# PCOD8274321 Si02
#       5
#    16   8  16  16  16
#     4  11  23  39  59  82 113 150 193 245 302 361
#     4   9  20  40  65  93 129 171 210 251 300 355
#     4   9  16  27  45  70 102 139 181 231 288 348
#     4  11  21  33  52  78 110 144 186 236 290 354
#     4  11  22  39  64  93 126 164 208 253 303 360
#
# _framework density 21.015953
#
# number of rings (size 3 to 8) (size 9 to 14) (size 15 to 20)
#    0.000    1.667    1.111    6.000    0.000    3.111 
#    0.000    0.000    0.000    5.333    0.000    4.667 
#    0.000    0.000    0.000    0.000    0.000    0.000 
#
# Total GULP energy -446315.508460 kJ/mol
# GULP energy per Si atom -12397.653013 kJ/mol
# Density = 2.096812 g / cm^3
# Si number density = 21.015953 Si / 1000 Ang^3
#
#
#
# Elastic Constant Matrix: (Units=GPa)
#
#
# Indices 1 2 3 4 5 6 
#
# 1 101.9820 38.4049 51.0661 0.0000 0.0000 0.0000
# 2 38.4049 133.4967 45.2390 0.0000 0.0000 0.0000
# 3 51.0661 45.2390 153.1050 0.0000 0.0000 0.0000
# 4 0.0000 0.0000 0.0000 24.9070 0.0000 0.0000
# 5 0.0000 0.0000 0.0000 0.0000 27.8516 0.0000
# 6 0.0000 0.0000 0.0000 0.0000 0.0000 24.4721
#
#
#
# Elastic Compliance Matrix: (Units=1/GPa)
#
#
# Indices 1 2 3 4 5 6 
#
# 1 0.012434 -0.002413 -0.003434 0.000000 0.000000 0.000000
# 2 -0.002413 0.008793 -0.001793 0.000000 0.000000 0.000000
# 3 -0.003434 -0.001793 0.008207 0.000000 0.000000 0.000000
# 4 0.000000 0.000000 0.000000 0.040149 0.000000 0.000000
# 5 0.000000 0.000000 0.000000 0.000000 0.035905 0.000000
# 6 0.000000 0.000000 0.000000 0.000000 0.000000 0.040863
#
#
# Mechanical properties :
#
#
# Convention : Reuss Voigt Hill
#
# Bulk Modulus (GPa) = 70.65968 73.11152 71.88560
# Shear Modulus (GPa) = 30.05729 32.37105 31.21417
#
# Velocity S-wave (km/s) = 3.78592 3.92893 3.85809
# Velocity P-wave (km/s) = 7.26676 7.44622 7.35704
#
# Compressibility (1/GPa) = 0.01415234
#
# Stress axis : x y z
#
# Youngs Moduli (GPa) = 80.42416 113.73008 121.85165
#
# Poissons Ratio (x) = 0.27447 0.41845
# Poissons Ratio (y) = 0.19409 0.21849
# Poissons Ratio (z) = 0.27619 0.20393
#
# Static dielectric constant tensor:
#      x y z
#    x 3.487560 0.000000 0.000000 
#    y 0.000000 3.778480 0.000000 
#    z 0.000000 0.000000 4.347800 
# 
# 
# High freq. dielectric constant tensor:
#      x y z
#    x 1.796960 0.000000 0.000000 
#    y 0.000000 1.824740 0.000000 
#    z 0.000000 0.000000 1.835820 
# 
# From -- ./inp_files/74615.got.cif
#   From: 2010.03.12/outbox.cif.g09.slc.cpg/sg65_38_cif.got.tgz:74615.got - 2010.04.10 20:52:16.
