data_PCOD8274139
_publ_section_title
;
Structure prediction by ZEFSAII (Michael W. Deem and Ramdas Pophale) SiO2 
 PCOD8274139
Probable space group: C M M M
;
_chemical_formula_sum "Si O2"
_cell_formula_units_Z 64
_cell_length_a 15.503927
_cell_length_b 7.817147
_cell_length_c 25.356928
_cell_angle_alpha 90.000000
_cell_angle_beta 90.000000
_cell_angle_gamma 90.000000
_cell_volume 3073.170327
_symmetry_space_group_name_H-M "C M M M"
_symmetry_group_IT_number 65
_symmetry_cell_setting 'orthorhombic'
loop_
_space_group_symop_operation_xyz
x,y,z
-x,-y,z
x,-y,-z
-x,y,-z
-x,-y,-z
x,y,-z
-x,y,z
x,-y,z
1/2+x,1/2+y,z
1/2-x,1/2-y,z
1/2+x,1/2-y,-z
1/2-x,1/2+y,-z
1/2-x,1/2-y,-z
1/2+x,1/2+y,-z
1/2-x,1/2+y,z
1/2+x,1/2-y,z
loop_
_atom_site_type_symbol
_atom_site_label
_atom_site_fract_x
_atom_site_fract_y
_atom_site_fract_z
Si Si1 0.500000 0.696395 0.299104
Si Si2 0.405282 0.301866 0.000000
Si Si3 0.842910 0.303098 0.633591
Si Si4 0.500000 0.795336 0.180218
Si Si5 0.398224 0.500000 0.439554
Si Si6 0.343339 0.198331 0.111460
O O1 0.500000 0.500000 0.317928
O O2 0.585647 0.787027 0.320938
O O3 0.500000 0.707618 0.236626
O O4 0.350792 0.253717 0.948954
O O5 0.420904 0.500000 0.000000
O O6 0.500000 0.210715 0.000000
O O7 0.841787 0.500000 0.613348
O O8 0.750000 0.250000 0.657777
O O9 0.861879 0.174641 0.585511
O O10 0.582752 0.722015 0.148517
O O11 0.500000 0.000000 0.186395
O O12 0.500000 0.500000 0.432650
O O13 0.369216 0.500000 0.500000
O O14 0.250000 0.250000 0.133605
O O15 0.356357 0.000000 0.114647
#
# Coordination Sequence:
#
# PCOD8274139 Si02
#       6
#     8   8  16   8   8  16
#     4  12  24  44  69  95 130 170 223 274 330 391
#     4  11  22  37  62  90 120 162 206 251 313 385
#     4  12  23  43  69  97 136 179 224 273 328 392
#     4  10  24  43  63  90 122 166 209 268 325 378
#     4  11  24  44  68 101 141 177 225 272 328 390
#     4  11  23  41  63  89 126 161 207 257 316 384
#
# _framework density 20.825400999999999
#
# number of rings (size 3 to 8) (size 9 to 14) (size 15 to 20)
#    0.000    0.750    5.000    2.625    0.000    4.500 
#    0.000    3.750    0.000    0.000    0.000    0.000 
#    0.000    0.000    0.000    0.000    0.000    0.000 
#
# Total GULP energy -396858.267454 kJ/mol
# GULP energy per Si atom -12401.820858 kJ/mol
# Density = 2.077800 g / cm^3
# Si number density = 20.825401 Si / 1000 Ang^3
#
#
#
# Elastic Constant Matrix: (Units=GPa)
#
#
# Indices 1 2 3 4 5 6 
#
# 1 184.7198 36.9601 67.3774 0.0000 0.0000 0.0000
# 2 36.9601 121.1017 36.3122 0.0000 0.0000 0.0000
# 3 67.3774 36.3122 140.2035 0.0000 0.0000 0.0000
# 4 0.0000 0.0000 0.0000 31.1574 0.0000 0.0000
# 5 0.0000 0.0000 0.0000 0.0000 12.9691 0.0000
# 6 0.0000 0.0000 0.0000 0.0000 0.0000 31.6729
#
#
#
# Elastic Compliance Matrix: (Units=1/GPa)
#
#
# Indices 1 2 3 4 5 6 
#
# 1 0.006714 -0.001173 -0.002923 0.000000 0.000000 0.000000
# 2 -0.001173 0.009158 -0.001808 0.000000 0.000000 0.000000
# 3 -0.002923 -0.001808 0.009006 0.000000 0.000000 0.000000
# 4 0.000000 0.000000 0.000000 0.032095 0.000000 0.000000
# 5 0.000000 0.000000 0.000000 0.000000 0.077106 0.000000
# 6 0.000000 0.000000 0.000000 0.000000 0.000000 0.031573
#
#
# Mechanical properties :
#
#
# Convention : Reuss Voigt Hill
#
# Bulk Modulus (GPa) = 76.51327 80.81384 78.66356
# Shear Modulus (GPa) = 27.50033 35.51825 31.50929
#
# Velocity S-wave (km/s) = 3.63784 4.13428 3.89398
# Velocity P-wave (km/s) = 7.38006 7.85362 7.62052
#
# Compressibility (1/GPa) = 0.01306963
#
# Stress axis : x y z
#
# Youngs Moduli (GPa) = 148.93268 109.19849 111.04318
#
# Poissons Ratio (x) = 0.12807 0.32458
# Poissons Ratio (y) = 0.17467 0.20079
# Poissons Ratio (z) = 0.43533 0.19745
#
# Static dielectric constant tensor:
#      x y z
#    x 4.016590 0.000000 0.000000 
#    y 0.000000 3.827010 0.000000 
#    z 0.000000 0.000000 3.538100 
# 
# 
# High freq. dielectric constant tensor:
#      x y z
#    x 1.836820 0.000000 0.000000 
#    y 0.000000 1.824040 0.000000 
#    z 0.000000 0.000000 1.799060 
# 
# From -- ./inp_files/69613.got.cif
#   From: 2010.03.12/outbox.cif.g09.slc.cpg/sg65_35_cif.got.tgz:69613.got - 2010.04.10 20:52:16.
