data_PCOD8274418
_publ_section_title
;
Structure prediction by ZEFSAII (Michael W. Deem and Ramdas Pophale) SiO2 
 PCOD8274418
Probable space group: C M M M
;
_chemical_formula_sum "Si O2"
_cell_formula_units_Z 96
_cell_length_a 17.847616
_cell_length_b 15.317029
_cell_length_c 18.993357
_cell_angle_alpha 90.000000
_cell_angle_beta 90.000000
_cell_angle_gamma 90.000000
_cell_volume 5192.260572
_symmetry_space_group_name_H-M "C M M M"
_symmetry_group_IT_number 65
_symmetry_cell_setting 'orthorhombic'
loop_
_space_group_symop_operation_xyz
x,y,z
-x,-y,z
x,-y,-z
-x,y,-z
-x,-y,-z
x,y,-z
-x,y,z
x,-y,z
1/2+x,1/2+y,z
1/2-x,1/2-y,z
1/2+x,1/2-y,-z
1/2-x,1/2+y,-z
1/2-x,1/2-y,-z
1/2+x,1/2+y,-z
1/2-x,1/2+y,z
1/2+x,1/2-y,z
loop_
_atom_site_type_symbol
_atom_site_label
_atom_site_fract_x
_atom_site_fract_y
_atom_site_fract_z
Si Si1 0.649861 0.900603 0.418709
Si Si2 0.589124 0.403125 0.078648
Si Si3 0.410856 0.903131 0.921319
Si Si4 0.587347 0.743706 0.334445
Si Si5 0.410608 0.750184 0.175458
Si Si6 0.176176 0.900172 0.418909
O O1 0.628910 0.886023 0.500000
O O2 0.600572 0.835827 0.372317
O O3 0.736845 0.879825 0.406393
O O4 0.631298 0.000000 0.396470
O O5 0.500000 0.400928 0.079691
O O6 0.617795 0.500000 0.098927
O O7 0.621397 0.335048 0.135388
O O8 0.616900 0.378163 0.000000
O O9 0.500000 0.900888 0.920084
O O10 0.378066 0.835059 0.864748
O O11 0.382159 0.000000 0.901116
O O12 0.383248 0.878142 0.000000
O O13 0.500000 0.722054 0.335013
O O14 0.618921 0.750397 0.255170
O O15 0.628126 0.663911 0.371720
O O16 0.500000 0.751329 0.173924
O O17 0.155256 0.883419 0.500000
O O18 0.157792 0.000000 0.398205
#
# Coordination Sequence:
#
# PCOD8274418 Si02
#       6
#    16  16  16  16  16  16
#     4   9  19  37  58  74  90 122 169 212 244 279
#     4   8  13  22  37  54  74 111 162 201 224 258
#     4   8  13  22  37  54  74 111 162 201 224 258
#     4  11  22  31  45  75 110 137 156 186 244 307
#     4   9  17  26  35  55  92 129 152 178 228 289
#     4   9  19  37  58  74  90 122 169 212 244 279
#
# _framework density 18.489056999999999
#
# number of rings (size 3 to 8) (size 9 to 14) (size 15 to 20)
#    0.000    3.000    0.000    3.500    0.000    6.667 
#    0.000    5.000    0.000    0.000    0.000    0.000 
#    0.000   10.667    0.000   29.333    0.000   24.000 
#
# Total GULP energy -595026.444237 kJ/mol
# GULP energy per Si atom -12396.384255 kJ/mol
# Density = 1.844697 g / cm^3
# Si number density = 18.489057 Si / 1000 Ang^3
#
#
#
# Elastic Constant Matrix: (Units=GPa)
#
#
# Indices 1 2 3 4 5 6 
#
# 1 15.0603 12.4774 16.8685 0.0000 0.0000 0.0000
# 2 12.4774 126.7889 78.0900 0.0000 0.0000 0.0000
# 3 16.8685 78.0900 126.9773 0.0000 0.0000 0.0000
# 4 0.0000 0.0000 0.0000 9.3942 0.0000 0.0000
# 5 0.0000 0.0000 0.0000 0.0000 -3.7283 0.0000
# 6 0.0000 0.0000 0.0000 0.0000 0.0000 21.8338
#
#
#
# Elastic Compliance Matrix: (Units=1/GPa)
#
#
# Indices 1 2 3 4 5 6 
#
# 1 0.078350 -0.002092 -0.009122 0.000000 0.000000 0.000000
# 2 -0.002092 0.012752 -0.007564 0.000000 0.000000 0.000000
# 3 -0.009122 -0.007564 0.013739 0.000000 0.000000 0.000000
# 4 0.000000 0.000000 0.000000 0.106448 0.000000 0.000000
# 5 0.000000 0.000000 0.000000 0.000000 -0.268216 0.000000
# 6 0.000000 0.000000 0.000000 0.000000 0.000000 0.045801
#
#
# Mechanical properties :
#
#
# Convention : Reuss Voigt Hill
#
# Bulk Modulus (GPa) = 14.86225 53.74426 34.30325
# Shear Modulus (GPa) = 102.33315 16.25931 59.29623
#
# Velocity S-wave (km/s) = 7.44769 2.96869 5.66927
# Velocity P-wave (km/s) = 9.05612 6.39391 7.83886
#
# Compressibility (1/GPa) = 0.06728456
#
# Stress axis : x y z
#
# Youngs Moduli (GPa) = 12.76317 78.41915 72.78409
#
# Poissons Ratio (x) = 0.16408 0.66392
# Poissons Ratio (y) = 0.02670 0.55057
# Poissons Ratio (z) = 0.11642 0.59319
#
# Static dielectric constant tensor:
#      x y z
#    x 2.806430 0.000000 0.000000 
#    y 0.000000 3.681730 0.000000 
#    z 0.000000 0.000000 3.545440 
# 
# 
# High freq. dielectric constant tensor:
#      x y z
#    x 1.657510 0.000000 0.000000 
#    y 0.000000 1.734700 0.000000 
#    z 0.000000 0.000000 1.717460 
# 
# From -- ./inp_files/62617.got.cif
#   From: 2010.03.12/outbox.cif.g09.slc.cpg/sg65_32_cif.got.tgz:62617.got - 2010.04.10 20:52:16.
