data_PCOD8274434
_publ_section_title
;
Structure prediction by ZEFSAII (Michael W. Deem and Ramdas Pophale) SiO2 
 PCOD8274434
Probable space group: C M M M
;
_chemical_formula_sum "Si O2"
_cell_formula_units_Z 72
_cell_length_a 8.996216
_cell_length_b 33.404099
_cell_length_c 12.738074
_cell_angle_alpha 90.000000
_cell_angle_beta 90.000000
_cell_angle_gamma 90.000000
_cell_volume 3827.924858
_symmetry_space_group_name_H-M "C M M M"
_symmetry_group_IT_number 65
_symmetry_cell_setting 'orthorhombic'
loop_
_space_group_symop_operation_xyz
x,y,z
-x,-y,z
x,-y,-z
-x,y,-z
-x,-y,-z
x,y,-z
-x,y,z
x,-y,z
1/2+x,1/2+y,z
1/2-x,1/2-y,z
1/2+x,1/2-y,-z
1/2-x,1/2+y,-z
1/2-x,1/2-y,-z
1/2+x,1/2+y,-z
1/2-x,1/2+y,z
1/2+x,1/2-y,z
loop_
_atom_site_type_symbol
_atom_site_label
_atom_site_fract_x
_atom_site_fract_y
_atom_site_fract_z
Si Si1 0.825122 0.789582 0.181001
Si Si2 0.668753 0.812053 0.616823
Si Si3 0.331100 0.096974 0.329986
Si Si4 0.171916 0.369048 0.115899
Si Si5 0.825148 0.045622 0.500000
O O1 0.750000 0.750000 0.131260
O O2 0.783487 0.791385 0.304311
O O3 0.765741 0.828461 0.121138
O O4 0.000000 0.786962 0.166322
O O5 0.705714 0.796773 0.500000
O O6 0.500000 0.800715 0.649402
O O7 0.687694 0.859735 0.618499
O O8 0.500000 0.081820 0.338456
O O9 0.279666 0.099622 0.206936
O O10 0.231292 0.065891 0.393029
O O11 0.000000 0.357457 0.136051
O O12 0.194894 0.388264 0.000000
O O13 0.000000 0.049090 0.500000
O O14 0.770397 0.000000 0.500000
#
# Coordination Sequence:
#
# PCOD8274434 Si02
#       5
#    16  16  16  16   8
#     4  11  22  34  48  70 101 137 178 223 270 317
#     4   9  17  32  52  72  98 133 173 218 268 319
#     4   9  17  33  56  81 106 136 173 213 258 310
#     4   9  19  37  59  80 103 134 174 221 271 318
#     4  11  23  35  51  81 118 149 174 205 249 301
#
# _framework density 18.809146999999999
#
# number of rings (size 3 to 8) (size 9 to 14) (size 15 to 20)
#    0.000    2.333    1.111    3.667    0.000    6.222 
#    0.000    0.000    0.000    0.667    0.000    4.667 
#    0.000    0.000    0.000    0.000    0.000    0.000 
#
# Total GULP energy -446299.402837 kJ/mol
# GULP energy per Si atom -12397.205634 kJ/mol
# Density = 1.876634 g / cm^3
# Si number density = 18.809147 Si / 1000 Ang^3
#
#
#
# Elastic Constant Matrix: (Units=GPa)
#
#
# Indices 1 2 3 4 5 6 
#
# 1 93.1365 42.5190 32.5643 0.0000 0.0000 0.0000
# 2 42.5190 80.7685 34.9894 0.0000 0.0000 0.0000
# 3 32.5643 34.9894 137.7686 0.0000 0.0000 0.0000
# 4 0.0000 0.0000 0.0000 5.8030 0.0000 0.0000
# 5 0.0000 0.0000 0.0000 0.0000 20.7412 0.0000
# 6 0.0000 0.0000 0.0000 0.0000 0.0000 26.5229
#
#
#
# Elastic Compliance Matrix: (Units=1/GPa)
#
#
# Indices 1 2 3 4 5 6 
#
# 1 0.014467 -0.006893 -0.001669 0.000000 0.000000 0.000000
# 2 -0.006893 0.017196 -0.002738 0.000000 0.000000 0.000000
# 3 -0.001669 -0.002738 0.008348 0.000000 0.000000 0.000000
# 4 0.000000 0.000000 0.000000 0.172324 0.000000 0.000000
# 5 0.000000 0.000000 0.000000 0.000000 0.048213 0.000000
# 6 0.000000 0.000000 0.000000 0.000000 0.000000 0.037703
#
#
# Mechanical properties :
#
#
# Convention : Reuss Voigt Hill
#
# Bulk Modulus (GPa) = 57.43291 59.09100 58.26195
# Shear Modulus (GPa) = 15.30663 24.05348 19.68005
#
# Velocity S-wave (km/s) = 2.85579 3.57994 3.23817
# Velocity P-wave (km/s) = 6.44010 6.96938 6.70996
#
# Compressibility (1/GPa) = 0.01741162
#
# Stress axis : x y z
#
# Youngs Moduli (GPa) = 69.12136 58.15346 119.78316
#
# Poissons Ratio (x) = 0.40085 0.19992
# Poissons Ratio (y) = 0.47646 0.32796
# Poissons Ratio (z) = 0.11536 0.15922
#
# Static dielectric constant tensor:
#      x y z
#    x 3.303900 0.000000 0.000000 
#    y 0.000000 3.141380 0.000000 
#    z 0.000000 0.000000 3.644750 
# 
# 
# High freq. dielectric constant tensor:
#      x y z
#    x 1.722560 0.000000 0.000000 
#    y 0.000000 1.690500 0.000000 
#    z 0.000000 0.000000 1.742860 
# 
# From -- ./inp_files/36934.got.cif
#   From: 2010.03.12/outbox.cif.g09.slc.cpg/sg65_19_cif.got.tgz:36934.got - 2010.04.10 20:52:16.
