data_PCOD8274280
_publ_section_title
;
Structure prediction by ZEFSAII (Michael W. Deem and Ramdas Pophale) SiO2 
 PCOD8274280
Probable space group: C M M M
;
_chemical_formula_sum "Si O2"
_cell_formula_units_Z 88
_cell_length_a 8.774705
_cell_length_b 19.895648
_cell_length_c 28.488565
_cell_angle_alpha 90.000000
_cell_angle_beta 90.000000
_cell_angle_gamma 90.000000
_cell_volume 4973.489292
_symmetry_space_group_name_H-M "C M M M"
_symmetry_group_IT_number 65
_symmetry_cell_setting 'orthorhombic'
loop_
_space_group_symop_operation_xyz
x,y,z
-x,-y,z
x,-y,-z
-x,y,-z
-x,-y,-z
x,y,-z
-x,y,z
x,-y,z
1/2+x,1/2+y,z
1/2-x,1/2-y,z
1/2+x,1/2-y,-z
1/2-x,1/2+y,-z
1/2-x,1/2-y,-z
1/2+x,1/2+y,-z
1/2-x,1/2+y,z
1/2+x,1/2-y,z
loop_
_atom_site_type_symbol
_atom_site_label
_atom_site_fract_x
_atom_site_fract_y
_atom_site_fract_z
Si Si1 0.177201 0.078156 0.733220
Si Si2 0.322557 0.322254 0.000000
Si Si3 0.680191 0.320511 0.447029
Si Si4 0.179969 0.823648 0.899746
Si Si5 0.179278 0.676276 0.806437
Si Si6 0.819519 0.926157 0.627112
O O1 0.279880 0.125875 0.764886
O O2 0.222554 0.096281 0.679794
O O3 0.000000 0.093367 0.742660
O O4 0.212765 0.000000 0.743723
O O5 0.250000 0.250000 0.000000
O O6 0.281205 0.359982 0.950440
O O7 0.500000 0.308015 0.000000
O O8 0.728686 0.340186 0.500000
O O9 0.500000 0.315290 0.442512
O O10 0.750000 0.250000 0.431978
O O11 0.749205 0.375237 0.411209
O O12 0.250000 0.750000 0.902146
O O13 0.258142 0.858514 0.854730
O O14 0.000000 0.820685 0.890956
O O15 0.250000 0.750000 0.797753
O O16 0.000000 0.684872 0.809728
O O17 0.000000 0.929428 0.622196
O O18 0.751016 0.000000 0.616809
#
# Coordination Sequence:
#
# PCOD8274280 Si02
#       6
#    16   8  16  16  16  16
#     4   9  18  34  53  70  92 123 157 195 241 290
#     4   8  14  22  36  58  85 118 151 186 227 275
#     4   9  17  29  46  69  97 126 154 186 225 270
#     4   9  15  25  40  61  90 121 154 190 232 278
#     4  11  21  32  47  69  97 126 159 198 238 281
#     4   8  15  29  49  71  92 116 151 193 232 272
#
# _framework density 17.693814
#
# number of rings (size 3 to 8) (size 9 to 14) (size 15 to 20)
#    0.000    2.909    0.000    4.364    0.000    2.182 
#    0.000    4.545    0.000    1.636    0.000    3.182 
#    0.000    5.091    0.000    0.000    0.000    0.000 
#
# Total GULP energy -545074.827402 kJ/mol
# GULP energy per Si atom -12388.064259 kJ/mol
# Density = 1.765354 g / cm^3
# Si number density = 17.693814 Si / 1000 Ang^3
#
#
#
# Elastic Constant Matrix: (Units=GPa)
#
#
# Indices 1 2 3 4 5 6 
#
# 1 66.8787 31.0800 43.6940 0.0000 0.0000 0.0000
# 2 31.0800 74.0283 79.8993 0.0000 0.0000 0.0000
# 3 43.6940 79.8993 164.4160 0.0000 0.0000 0.0000
# 4 0.0000 0.0000 0.0000 5.8170 0.0000 0.0000
# 5 0.0000 0.0000 0.0000 0.0000 20.6594 0.0000
# 6 0.0000 0.0000 0.0000 0.0000 0.0000 20.5578
#
#
#
# Elastic Compliance Matrix: (Units=1/GPa)
#
#
# Indices 1 2 3 4 5 6 
#
# 1 0.019043 -0.005327 -0.002472 0.000000 0.000000 0.000000
# 2 -0.005327 0.029899 -0.013114 0.000000 0.000000 0.000000
# 3 -0.002472 -0.013114 0.013112 0.000000 0.000000 0.000000
# 4 0.000000 0.000000 0.000000 0.171909 0.000000 0.000000
# 5 0.000000 0.000000 0.000000 0.000000 0.048404 0.000000
# 6 0.000000 0.000000 0.000000 0.000000 0.000000 0.048643
#
#
# Mechanical properties :
#
#
# Convention : Reuss Voigt Hill
#
# Bulk Modulus (GPa) = 49.43658 68.29663 58.86660
# Shear Modulus (GPa) = 13.17253 19.45017 16.31135
#
# Velocity S-wave (km/s) = 2.73146 3.31911 3.03952
# Velocity P-wave (km/s) = 6.16024 7.30559 6.75722
#
# Compressibility (1/GPa) = 0.02022794
#
# Stress axis : x y z
#
# Youngs Moduli (GPa) = 52.51252 33.44629 76.26661
#
# Poissons Ratio (x) = 0.17816 0.18854
# Poissons Ratio (y) = 0.27973 1.00015
# Poissons Ratio (z) = 0.12982 0.43861
#
# Static dielectric constant tensor:
#      x y z
#    x 2.929000 0.000000 0.000000 
#    y 0.000000 3.095780 0.000000 
#    z 0.000000 0.000000 4.049900 
# 
# 
# High freq. dielectric constant tensor:
#      x y z
#    x 1.668830 0.000000 0.000000 
#    y 0.000000 1.640510 0.000000 
#    z 0.000000 0.000000 1.709350 
# 
# From -- ./inp_files/76588.got.cif
#   From: 2010.03.12/outbox.cif.g09.slc.cpg/sg65_39_cif.got.tgz:76588.got - 2010.04.10 20:52:16.
