data_PCOD8274894
_publ_section_title
;
Structure prediction by ZEFSAII (Michael W. Deem and Ramdas Pophale) SiO2 
 PCOD8274894
Probable space group: C M M M
;
_chemical_formula_sum "Si O2"
_cell_formula_units_Z 72
_cell_length_a 9.196412
_cell_length_b 27.396581
_cell_length_c 16.384290
_cell_angle_alpha 90.000000
_cell_angle_beta 90.000000
_cell_angle_gamma 90.000000
_cell_volume 4128.025900
_symmetry_space_group_name_H-M "C M M M"
_symmetry_group_IT_number 65
_symmetry_cell_setting 'orthorhombic'
loop_
_space_group_symop_operation_xyz
x,y,z
-x,-y,z
x,-y,-z
-x,y,-z
-x,-y,-z
x,y,-z
-x,y,z
x,-y,z
1/2+x,1/2+y,z
1/2-x,1/2-y,z
1/2+x,1/2-y,-z
1/2-x,1/2+y,-z
1/2-x,1/2-y,-z
1/2+x,1/2+y,-z
1/2-x,1/2+y,z
1/2+x,1/2-y,z
loop_
_atom_site_type_symbol
_atom_site_label
_atom_site_fract_x
_atom_site_fract_y
_atom_site_fract_z
Si Si1 0.827771 0.897102 0.164820
Si Si2 0.326740 0.446477 0.327063
Si Si3 0.326262 0.444204 0.000000
Si Si4 0.672952 0.649244 0.589539
Si Si5 0.328187 0.299150 0.248623
O O1 0.770491 0.932383 0.236668
O O2 0.762939 0.915789 0.078997
O O3 0.781856 0.841334 0.184657
O O4 0.000000 0.900114 0.161680
O O5 0.500000 0.447189 0.326784
O O6 0.265289 0.500000 0.350868
O O7 0.271143 0.405749 0.391025
O O8 0.270341 0.500000 0.000000
O O9 0.500000 0.443454 0.000000
O O10 0.732882 0.664881 0.500000
O O11 0.500000 0.648881 0.589792
O O12 0.726334 0.686212 0.659977
O O13 0.500000 0.290918 0.247811
O O14 0.250000 0.250000 0.220569
#
# Coordination Sequence:
#
# PCOD8274894 Si02
#       5
#    16  16   8  16  16
#     4   8  14  23  34  52  78 104 129 159 194 228
#     4   8  12  18  29  46  72 104 130 152 186 235
#     4   9  14  20  35  58  83 109 131 151 184 235
#     4   8  14  23  34  51  75 101 129 161 196 232
#     4   9  17  29  43  57  77 105 133 163 198 231
#
# _framework density 17.441752000000001
#
# number of rings (size 3 to 8) (size 9 to 14) (size 15 to 20)
#    0.000    3.667    0.000    3.333    0.000    3.556 
#    0.000    2.778    0.000    0.000    0.000    0.000 
#    0.000   23.111    0.000    8.000    0.000    8.889 
#
# Total GULP energy -445988.833422 kJ/mol
# GULP energy per Si atom -12388.578706 kJ/mol
# Density = 1.740205 g / cm^3
# Si number density = 17.441752 Si / 1000 Ang^3
#
#
#
# Elastic Constant Matrix: (Units=GPa)
#
#
# Indices 1 2 3 4 5 6 
#
# 1 7.3211 16.2287 6.8116 0.0000 0.0000 0.0000
# 2 16.2287 127.2757 42.7665 0.0000 0.0000 0.0000
# 3 6.8116 42.7665 113.8417 0.0000 0.0000 0.0000
# 4 0.0000 0.0000 0.0000 19.8436 0.0000 0.0000
# 5 0.0000 0.0000 0.0000 0.0000 4.6249 0.0000
# 6 0.0000 0.0000 0.0000 0.0000 0.0000 16.8667
#
#
#
# Elastic Compliance Matrix: (Units=1/GPa)
#
#
# Indices 1 2 3 4 5 6 
#
# 1 0.191084 -0.023488 -0.002610 0.000000 0.000000 0.000000
# 2 -0.023488 0.011879 -0.003057 0.000000 0.000000 0.000000
# 3 -0.002610 -0.003057 0.010089 0.000000 0.000000 0.000000
# 4 0.000000 0.000000 0.000000 0.050394 0.000000 0.000000
# 5 0.000000 0.000000 0.000000 0.000000 0.216223 0.000000
# 6 0.000000 0.000000 0.000000 0.000000 0.000000 0.059289
#
#
# Mechanical properties :
#
#
# Convention : Reuss Voigt Hill
#
# Bulk Modulus (GPa) = 6.46235 42.22800 24.34518
# Shear Modulus (GPa) = 7.70597 20.44248 14.07422
#
# Velocity S-wave (km/s) = 2.10421 3.42723 2.84373
# Velocity P-wave (km/s) = 3.10109 6.31859 4.97701
#
# Compressibility (1/GPa) = 0.15474236
#
# Stress axis : x y z
#
# Youngs Moduli (GPa) = 5.23330 84.18129 99.12015
#
# Poissons Ratio (x) = 1.97724 0.25867
# Poissons Ratio (y) = 0.12292 0.30303
# Poissons Ratio (z) = 0.01366 0.25736
#
# Static dielectric constant tensor:
#      x y z
#    x 2.394700 0.000000 0.000000 
#    y 0.000000 3.406860 0.000000 
#    z 0.000000 0.000000 3.651350 
# 
# 
# High freq. dielectric constant tensor:
#      x y z
#    x 1.580300 0.000000 0.000000 
#    y 0.000000 1.682060 0.000000 
#    z 0.000000 0.000000 1.674880 
# 
# From -- ./inp_files/45267.got.cif
#   From: 2010.03.12/outbox.cif.g09.slc.cpg/sg65_23_cif.got.tgz:45267.got - 2010.04.10 20:52:16.
