data_PCOD8274927
_publ_section_title
;
Structure prediction by ZEFSAII (Michael W. Deem and Ramdas Pophale) SiO2 
 PCOD8274927
Probable space group: C M M M
;
_chemical_formula_sum "Si O2"
_cell_formula_units_Z 88
_cell_length_a 9.962043
_cell_length_b 28.642296
_cell_length_c 23.387864
_cell_angle_alpha 90.000000
_cell_angle_beta 90.000000
_cell_angle_gamma 90.000000
_cell_volume 6673.394519
_symmetry_space_group_name_H-M "C M M M"
_symmetry_group_IT_number 65
_symmetry_cell_setting 'orthorhombic'
loop_
_space_group_symop_operation_xyz
x,y,z
-x,-y,z
x,-y,-z
-x,y,-z
-x,-y,-z
x,y,-z
-x,y,z
x,-y,z
1/2+x,1/2+y,z
1/2-x,1/2-y,z
1/2+x,1/2-y,-z
1/2-x,1/2+y,-z
1/2-x,1/2-y,-z
1/2+x,1/2+y,-z
1/2-x,1/2+y,z
1/2+x,1/2-y,z
loop_
_atom_site_type_symbol
_atom_site_label
_atom_site_fract_x
_atom_site_fract_y
_atom_site_fract_z
Si Si1 0.660272 0.447249 0.000000
Si Si2 0.340153 0.447816 0.784496
Si Si3 0.154152 0.791864 0.066862
Si Si4 0.650187 0.055533 0.563688
Si Si5 0.850338 0.055616 0.341635
Si Si6 0.159309 0.108706 0.108473
O O1 0.717926 0.421382 0.055976
O O2 0.714198 0.500000 0.000000
O O3 0.500000 0.446085 0.000000
O O4 0.500000 0.449719 0.786508
O O5 0.283945 0.500000 0.796663
O O6 0.296284 0.430060 0.721415
O O7 0.282948 0.412251 0.832194
O O8 0.250000 0.750000 0.086584
O O9 0.201444 0.837310 0.102151
O O10 0.000000 0.778521 0.080485
O O11 0.171169 0.803205 0.000000
O O12 0.694168 0.071613 0.500000
O O13 0.500000 0.073645 0.577062
O O14 0.751965 0.077103 0.610305
O O15 0.652564 0.000000 0.567076
O O16 0.000000 0.075613 0.352442
O O17 0.854682 0.000000 0.345203
O O18 0.000000 0.104796 0.107271
#
# Coordination Sequence:
#
# PCOD8274927 Si02
#       6
#     8  16  16  16  16  16
#     4   9  14  18  27  46  71  93 111 137 174 209
#     4   8  13  20  30  45  66  91 115 139 170 207
#     4   9  16  26  39  54  71  88 109 139 174 211
#     4   8  13  20  29  41  57  78 106 140 173 197
#     4   8  13  20  29  42  60  82 108 135 163 197
#     4   9  14  21  32  48  69  91 113 139 173 210
#
# _framework density 13.186692000000001
#
# number of rings (size 3 to 8) (size 9 to 14) (size 15 to 20)
#    0.000    3.545    0.909    2.182    0.000    2.545 
#    0.000    1.818    0.000    1.091    0.000    0.000 
#    0.000    2.909    0.000    0.000    0.000    1.273 
#
# Total GULP energy -545223.107763 kJ/mol
# GULP energy per Si atom -12391.434267 kJ/mol
# Density = 1.315668 g / cm^3
# Si number density = 13.186692 Si / 1000 Ang^3
#
#
#
# Elastic Constant Matrix: (Units=GPa)
#
#
# Indices 1 2 3 4 5 6 
#
# 1 39.4873 27.3695 42.8115 0.0000 0.0000 0.0000
# 2 27.3695 66.1210 45.2371 0.0000 0.0000 0.0000
# 3 42.8115 45.2371 121.1984 0.0000 0.0000 0.0000
# 4 0.0000 0.0000 0.0000 4.8620 0.0000 0.0000
# 5 0.0000 0.0000 0.0000 0.0000 8.0419 0.0000
# 6 0.0000 0.0000 0.0000 0.0000 0.0000 9.7827
#
#
#
# Elastic Compliance Matrix: (Units=1/GPa)
#
#
# Indices 1 2 3 4 5 6 
#
# 1 0.046020 -0.010646 -0.012282 0.000000 0.000000 0.000000
# 2 -0.010646 0.022773 -0.004739 0.000000 0.000000 0.000000
# 3 -0.012282 -0.004739 0.014358 0.000000 0.000000 0.000000
# 4 0.000000 0.000000 0.000000 0.205676 0.000000 0.000000
# 5 0.000000 0.000000 0.000000 0.000000 0.124349 0.000000
# 6 0.000000 0.000000 0.000000 0.000000 0.000000 0.102221
#
#
# Mechanical properties :
#
#
# Convention : Reuss Voigt Hill
#
# Bulk Modulus (GPa) = 35.95072 50.84920 43.39996
# Shear Modulus (GPa) = 8.62063 11.96324 10.29194
#
# Velocity S-wave (km/s) = 2.55960 3.01528 2.79674
# Velocity P-wave (km/s) = 6.00479 7.12511 6.58881
#
# Compressibility (1/GPa) = 0.02781586
#
# Stress axis : x y z
#
# Youngs Moduli (GPa) = 21.72988 43.91164 69.64576
#
# Poissons Ratio (x) = 0.46748 0.85540
# Poissons Ratio (y) = 0.23134 0.33008
# Poissons Ratio (z) = 0.26689 0.20812
#
# Static dielectric constant tensor:
#      x y z
#    x 2.450520 0.000000 0.000000 
#    y 0.000000 2.389090 0.000000 
#    z 0.000000 0.000000 2.941280 
# 
# 
# High freq. dielectric constant tensor:
#      x y z
#    x 1.464640 0.000000 0.000000 
#    y 0.000000 1.453520 0.000000 
#    z 0.000000 0.000000 1.504260 
# 
# From -- ./inp_files/74029.got.cif
#   From: 2010.03.12/outbox.cif.g09.slc.cpg/sg65_38_cif.got.tgz:74029.got - 2010.04.10 20:52:16.
