data_PCOD8274163
_publ_section_title
;
Structure prediction by ZEFSAII (Michael W. Deem and Ramdas Pophale) SiO2 
 PCOD8274163
Probable space group: C M M M
;
_chemical_formula_sum "Si O2"
_cell_formula_units_Z 80
_cell_length_a 19.462843
_cell_length_b 27.034792
_cell_length_c 11.154345
_cell_angle_alpha 90.000000
_cell_angle_beta 90.000000
_cell_angle_gamma 90.000000
_cell_volume 5869.125347
_symmetry_space_group_name_H-M "C M M M"
_symmetry_group_IT_number 65
_symmetry_cell_setting 'orthorhombic'
loop_
_space_group_symop_operation_xyz
x,y,z
-x,-y,z
x,-y,-z
-x,y,-z
-x,-y,-z
x,y,-z
-x,y,z
x,-y,z
1/2+x,1/2+y,z
1/2-x,1/2-y,z
1/2+x,1/2-y,-z
1/2-x,1/2+y,-z
1/2-x,1/2-y,-z
1/2+x,1/2+y,-z
1/2-x,1/2+y,z
1/2+x,1/2-y,z
loop_
_atom_site_type_symbol
_atom_site_label
_atom_site_fract_x
_atom_site_fract_y
_atom_site_fract_z
Si Si1 0.375790 0.597804 0.750877
Si Si2 0.500000 0.347646 0.134381
Si Si3 0.500000 0.230847 0.866921
Si Si4 0.147563 0.273341 0.858302
Si Si5 0.581440 0.558540 0.500000
Si Si6 0.718620 0.327130 0.141835
Si Si7 0.423298 0.500000 0.139193
O O1 0.433955 0.635153 0.793761
O O2 0.383042 0.585478 0.611530
O O3 0.303777 0.624760 0.781797
O O4 0.379800 0.547174 0.823586
O O5 0.500000 0.289535 0.125806
O O6 0.500000 0.370872 0.000000
O O7 0.428331 0.214427 0.801880
O O8 0.500000 0.207751 0.000000
O O9 0.201017 0.317148 0.828322
O O10 0.175716 0.220529 0.812758
O O11 0.139212 0.267700 0.000000
O O12 0.597679 0.500000 0.500000
O O13 0.500000 0.567653 0.500000
O O14 0.707428 0.336462 0.000000
O O15 0.500000 0.500000 0.201363
O O16 0.434637 0.500000 0.000000
#
# Coordination Sequence:
#
# PCOD8274163 Si02
#       7
#    16   8   8  16   8  16   8
#     4  12  20  30  42  55  81 114 145 179 203 240
#     4  11  18  24  40  67  86 105 139 177 210 240
#     4   9  14  22  38  64  91 113 138 164 201 254
#     4   8  14  23  38  61  90 114 133 165 210 255
#     4  11  22  36  42  51  76 115 155 178 203 234
#     4   9  16  26  40  62  87 110 136 172 215 247
#     4  11  20  27  39  61  81 101 133 176 217 244
#
# _framework density 13.630651
#
# number of rings (size 3 to 8) (size 9 to 14) (size 15 to 20)
#    0.000    2.000    5.000    3.000    0.000    0.000 
#    0.000    0.000    0.000    2.400    0.000    0.000 
#    0.000    0.800    0.000    8.400    0.000    0.100 
#
# Total GULP energy -495654.525119 kJ/mol
# GULP energy per Si atom -12391.363128 kJ/mol
# Density = 1.359963 g / cm^3
# Si number density = 13.630651 Si / 1000 Ang^3
#
#
#
# Elastic Constant Matrix: (Units=GPa)
#
#
# Indices 1 2 3 4 5 6 
#
# 1 118.0136 46.7500 25.4341 0.0000 0.0000 0.0000
# 2 46.7500 69.1981 27.7377 0.0000 0.0000 0.0000
# 3 25.4341 27.7377 62.5029 0.0000 0.0000 0.0000
# 4 0.0000 0.0000 0.0000 -198.9736 0.0000 0.0000
# 5 0.0000 0.0000 0.0000 0.0000 10.1551 0.0000
# 6 0.0000 0.0000 0.0000 0.0000 0.0000 26.6564
#
#
#
# Elastic Compliance Matrix: (Units=1/GPa)
#
#
# Indices 1 2 3 4 5 6 
#
# 1 0.011688 -0.007286 -0.001523 0.000000 0.000000 0.000000
# 2 -0.007286 0.022120 -0.006852 0.000000 0.000000 0.000000
# 3 -0.001523 -0.006852 0.019660 0.000000 0.000000 0.000000
# 4 0.000000 0.000000 0.000000 -0.005026 0.000000 0.000000
# 5 0.000000 0.000000 0.000000 0.000000 0.098472 0.000000
# 6 0.000000 0.000000 0.000000 0.000000 0.000000 0.037514
#
#
# Mechanical properties :
#
#
# Convention : Reuss Voigt Hill
#
# Bulk Modulus (GPa) = 45.15316 49.95093 47.55205
# Shear Modulus (GPa) = 22.40828 -22.44621 -0.01897
#
# Velocity S-wave (km/s) = 4.05898 -4.06241 -0.11809
# Velocity P-wave (km/s) = 7.42733 3.83684 5.91128
#
# Compressibility (1/GPa) = 0.02214684
#
# Stress axis : x y z
#
# Youngs Moduli (GPa) = 85.55718 45.20770 50.86584
#
# Poissons Ratio (x) = 0.32938 0.07746
# Poissons Ratio (y) = 0.62337 0.34851
# Poissons Ratio (z) = 0.13029 0.30975
#
# Static dielectric constant tensor:
#      x y z
#    x 3.307760 0.000000 0.000000 
#    y 0.000000 2.601800 0.000000 
#    z 0.000000 0.000000 2.518010 
# 
# 
# High freq. dielectric constant tensor:
#      x y z
#    x 1.509960 0.000000 0.000000 
#    y 0.000000 1.500840 0.000000 
#    z 0.000000 0.000000 1.484340 
# 
# From -- ./inp_files/29479.got.cif
#   From: 2010.03.12/outbox.cif.g09.slc.cpg/sg65_15_cif.got.tgz:29479.got - 2010.04.10 20:52:16.
