data_PCOD8274900
_publ_section_title
;
Structure prediction by ZEFSAII (Michael W. Deem and Ramdas Pophale) SiO2 
 PCOD8274900
Probable space group: C M M M
;
_chemical_formula_sum "Si O2"
_cell_formula_units_Z 88
_cell_length_a 30.974695
_cell_length_b 27.665417
_cell_length_c 7.708897
_cell_angle_alpha 90.000000
_cell_angle_beta 90.000000
_cell_angle_gamma 90.000000
_cell_volume 6605.968560
_symmetry_space_group_name_H-M "C M M M"
_symmetry_group_IT_number 65
_symmetry_cell_setting 'orthorhombic'
loop_
_space_group_symop_operation_xyz
x,y,z
-x,-y,z
x,-y,-z
-x,y,-z
-x,-y,-z
x,y,-z
-x,y,z
x,-y,z
1/2+x,1/2+y,z
1/2-x,1/2-y,z
1/2+x,1/2-y,-z
1/2-x,1/2+y,-z
1/2-x,1/2-y,-z
1/2+x,1/2+y,-z
1/2-x,1/2+y,z
1/2+x,1/2-y,z
loop_
_atom_site_type_symbol
_atom_site_label
_atom_site_fract_x
_atom_site_fract_y
_atom_site_fract_z
Si Si1 0.952296 0.693444 0.293934
Si Si2 0.590975 0.097451 0.294688
Si Si3 0.130352 0.746027 0.306711
Si Si4 0.822604 0.643562 0.307377
Si Si5 0.730193 0.826202 0.000000
Si Si6 0.049150 0.500000 0.292988
Si Si7 0.816764 0.776542 0.000000
O O1 0.952741 0.689339 0.500000
O O2 0.936937 0.641837 0.216201
O O3 0.918749 0.735940 0.241814
O O4 0.000000 0.705902 0.221235
O O5 0.585449 0.097629 0.500000
O O6 0.641632 0.104173 0.247861
O O7 0.573433 0.047159 0.217051
O O8 0.131306 0.769376 0.500000
O O9 0.154281 0.695045 0.312606
O O10 0.153726 0.781870 0.171818
O O11 0.804423 0.631500 0.500000
O O12 0.783244 0.643760 0.171275
O O13 0.781744 0.819421 0.000000
O O14 0.706546 0.774921 0.000000
O O15 0.050577 0.500000 0.500000
O O16 0.000000 0.500000 0.226430
#
# Coordination Sequence:
#
# PCOD8274900 Si02
#       7
#    16  16  16  16   8   8   8
#     4   8  12  19  31  44  59  83 112 134 154 186
#     4   8  13  20  30  45  65  85 105 134 166 193
#     4   8  14  23  33  45  63  83  98 120 153 181
#     4   8  14  24  35  47  62  79 100 123 150 187
#     4   9  16  24  36  49  59  76  96 117 149 189
#     4   9  14  18  28  49  71  87 108 137 167 200
#     4   9  16  24  33  48  64  74  93 120 148 190
#
# _framework density 13.321286000000001
#
# number of rings (size 3 to 8) (size 9 to 14) (size 15 to 20)
#    0.000    3.727    0.000    2.727    0.000    2.909 
#    0.000    4.091    0.000    0.545    0.000    2.545 
#    0.000    0.000    0.000    0.000    0.000    0.000 
#
# Total GULP energy -545157.692481 kJ/mol
# GULP energy per Si atom -12389.947556 kJ/mol
# Density = 1.329097 g / cm^3
# Si number density = 13.321286 Si / 1000 Ang^3
#
#
#
# Elastic Constant Matrix: (Units=GPa)
#
#
# Indices 1 2 3 4 5 6 
#
# 1 108.0773 41.1351 46.7430 0.0000 0.0000 0.0000
# 2 41.1351 27.0426 20.1732 0.0000 0.0000 0.0000
# 3 46.7430 20.1732 62.1766 0.0000 0.0000 0.0000
# 4 0.0000 0.0000 0.0000 3.6286 0.0000 0.0000
# 5 0.0000 0.0000 0.0000 0.0000 8.6022 0.0000
# 6 0.0000 0.0000 0.0000 0.0000 0.0000 22.4298
#
#
#
# Elastic Compliance Matrix: (Units=1/GPa)
#
#
# Indices 1 2 3 4 5 6 
#
# 1 0.024978 -0.031646 -0.008510 0.000000 0.000000 0.000000
# 2 -0.031646 0.088881 -0.005046 0.000000 0.000000 0.000000
# 3 -0.008510 -0.005046 0.024119 0.000000 0.000000 0.000000
# 4 0.000000 0.000000 0.000000 0.275588 0.000000 0.000000
# 5 0.000000 0.000000 0.000000 0.000000 0.116249 0.000000
# 6 0.000000 0.000000 0.000000 0.000000 0.000000 0.044584
#
#
# Mechanical properties :
#
#
# Convention : Reuss Voigt Hill
#
# Bulk Modulus (GPa) = 21.02107 45.93325 33.47716
# Shear Modulus (GPa) = 7.34581 12.88182 10.11381
#
# Velocity S-wave (km/s) = 2.35081 3.11305 2.75839
# Velocity P-wave (km/s) = 4.81484 6.89038 5.94391
#
# Compressibility (1/GPa) = 0.04757132
#
# Stress axis : x y z
#
# Youngs Moduli (GPa) = 40.03499 11.25104 41.46193
#
# Poissons Ratio (x) = 0.35605 0.35286
# Poissons Ratio (y) = 1.26695 0.20923
# Poissons Ratio (z) = 0.34072 0.05678
#
# Static dielectric constant tensor:
#      x y z
#    x 2.830270 0.000000 0.000000 
#    y 0.000000 2.320310 0.000000 
#    z 0.000000 0.000000 2.693990 
# 
# 
# High freq. dielectric constant tensor:
#      x y z
#    x 1.495070 0.000000 0.000000 
#    y 0.000000 1.432240 0.000000 
#    z 0.000000 0.000000 1.505390 
# 
# From -- ./inp_files/17175.got.cif
#   From: 2010.03.12/outbox.cif.g09.slc.cpg/sg65_9_cif.got.tgz:17175.got - 2010.04.10 20:52:16.
