data_PCOD8274748
_publ_section_title
;
Structure prediction by ZEFSAII (Michael W. Deem and Ramdas Pophale) SiO2 
 PCOD8274748
Probable space group: C M M M
;
_chemical_formula_sum "Si O2"
_cell_formula_units_Z 112
_cell_length_a 15.783052
_cell_length_b 15.335139
_cell_length_c 22.687995
_cell_angle_alpha 90.000000
_cell_angle_beta 90.000000
_cell_angle_gamma 90.000000
_cell_volume 5491.295591
_symmetry_space_group_name_H-M "C M M M"
_symmetry_group_IT_number 65
_symmetry_cell_setting 'orthorhombic'
loop_
_space_group_symop_operation_xyz
x,y,z
-x,-y,z
x,-y,-z
-x,y,-z
-x,-y,-z
x,y,-z
-x,y,z
x,-y,z
1/2+x,1/2+y,z
1/2-x,1/2-y,z
1/2+x,1/2-y,-z
1/2-x,1/2+y,-z
1/2-x,1/2-y,-z
1/2+x,1/2+y,-z
1/2-x,1/2+y,z
1/2+x,1/2-y,z
loop_
_atom_site_type_symbol
_atom_site_label
_atom_site_fract_x
_atom_site_fract_y
_atom_site_fract_z
Si Si1 0.595299 0.598020 0.647112
Si Si2 0.650840 0.901007 0.933250
Si Si3 0.150840 0.901007 0.066750
Si Si4 0.654286 0.750000 0.724953
Si Si5 0.904701 0.598020 0.352888
Si Si6 0.406262 0.250000 0.851080
Si Si7 0.750000 0.147073 0.566956
O O1 0.500000 0.612535 0.621561
O O2 0.604933 0.500000 0.672002
O O3 0.608871 0.663284 0.701498
O O4 0.664061 0.611923 0.596146
O O5 0.750000 0.882381 0.929210
O O6 0.603659 0.836064 0.890034
O O7 0.629991 0.000000 0.914262
O O8 0.619518 0.884634 0.000000
O O9 0.103659 0.836064 0.109966
O O10 0.129991 0.000000 0.085738
O O11 0.119518 0.884634 0.000000
O O12 0.750000 0.750000 0.700812
O O13 0.608871 0.836716 0.701498
O O14 0.656665 0.750000 0.795727
O O15 0.895067 0.500000 0.327998
O O16 0.835939 0.611923 0.403854
O O17 0.000000 0.612535 0.378439
O O18 0.500000 0.250000 0.824301
O O19 0.750000 0.113902 0.500000
O O20 0.750000 0.250000 0.571355
#
# Coordination Sequence:
#
# PCOD8274748 Si02
#       7
#    16  16  16  16  16  16  16
#     4  11  23  41  66  93 125 165 207 256 311 365
#     4   9  19  38  62  86 115 154 201 250 301 362
#     4   9  19  38  62  86 115 154 201 250 301 362
#     4  12  24  43  65  86 118 161 210 259 307 366
#     4  11  23  41  66  93 125 165 207 256 311 365
#     4  12  25  37  56  87 123 158 197 249 306 367
#     4  11  23  41  67  98 131 169 208 251 304 362
#
# _framework density 20.395914999999999
#
# number of rings (size 3 to 8) (size 9 to 14) (size 15 to 20)
#    0.000    1.286    2.857    4.286    0.000    5.714 
#    0.000    4.286    0.000    0.000    0.000    0.000 
#    0.000    0.000    0.000    0.000    0.000    0.000 
#
# Total GULP energy -694492.320077 kJ/mol
# GULP energy per Si atom -12401.648573 kJ/mol
# Density = 2.034949 g / cm^3
# Si number density = 20.395915 Si / 1000 Ang^3
#
#
#
# Elastic Constant Matrix: (Units=GPa)
#
#
# Indices 1 2 3 4 5 6 
#
# 1 128.9860 48.5821 42.1918 0.0000 0.0000 0.0000
# 2 48.5821 148.8476 61.5234 0.0000 0.0000 0.0000
# 3 42.1918 61.5234 116.0916 0.0000 0.0000 0.0000
# 4 0.0000 0.0000 0.0000 -1.3286 0.0000 0.0000
# 5 0.0000 0.0000 0.0000 0.0000 7.9920 0.0000
# 6 0.0000 0.0000 0.0000 0.0000 0.0000 30.4371
#
#
#
# Elastic Compliance Matrix: (Units=1/GPa)
#
#
# Indices 1 2 3 4 5 6 
#
# 1 0.009282 -0.002094 -0.002264 0.000000 0.000000 0.000000
# 2 -0.002094 0.009075 -0.004048 0.000000 0.000000 0.000000
# 3 -0.002264 -0.004048 0.011582 0.000000 0.000000 0.000000
# 4 0.000000 0.000000 0.000000 -0.752678 0.000000 0.000000
# 5 0.000000 0.000000 0.000000 0.000000 0.125125 0.000000
# 6 0.000000 0.000000 0.000000 0.000000 0.000000 0.032855
#
#
# Mechanical properties :
#
#
# Convention : Reuss Voigt Hill
#
# Bulk Modulus (GPa) = 76.17837 77.61331 76.89584
# Shear Modulus (GPa) = -9.19842 23.52862 7.16510
#
# Velocity S-wave (km/s) = -2.12596 3.40015 1.87634
# Velocity P-wave (km/s) = 5.60398 7.31783 6.51749
#
# Compressibility (1/GPa) = 0.01312709
#
# Stress axis : x y z
#
# Youngs Moduli (GPa) = 107.73677 110.19271 86.34033
#
# Poissons Ratio (x) = 0.23072 0.19545
# Poissons Ratio (y) = 0.22558 0.34954
# Poissons Ratio (z) = 0.24389 0.44610
#
# Static dielectric constant tensor:
#      x y z
#    x 3.890440 0.000000 0.000000 
#    y 0.000000 3.926400 0.000000 
#    z 0.000000 0.000000 3.515200 
# 
# 
# High freq. dielectric constant tensor:
#      x y z
#    x 1.807630 0.000000 0.000000 
#    y 0.000000 1.814210 0.000000 
#    z 0.000000 0.000000 1.779870 
# 
# From -- ./inp_files/70012.got.cif
#   From: 2010.03.12/outbox.cif.g09.slc.cpg/sg65_36_cif.got.tgz:70012.got - 2010.04.10 20:52:16.
