data_PCOD8274374
_publ_section_title
;
Structure prediction by ZEFSAII (Michael W. Deem and Ramdas Pophale) SiO2 
 PCOD8274374
Probable space group: C M M M
;
_chemical_formula_sum "Si O2"
_cell_formula_units_Z 88
_cell_length_a 22.080773
_cell_length_b 23.055529
_cell_length_c 8.647099
_cell_angle_alpha 90.000000
_cell_angle_beta 90.000000
_cell_angle_gamma 90.000000
_cell_volume 4402.098902
_symmetry_space_group_name_H-M "C M M M"
_symmetry_group_IT_number 65
_symmetry_cell_setting 'orthorhombic'
loop_
_space_group_symop_operation_xyz
x,y,z
-x,-y,z
x,-y,-z
-x,y,-z
-x,-y,-z
x,y,-z
-x,y,z
x,-y,z
1/2+x,1/2+y,z
1/2-x,1/2-y,z
1/2+x,1/2-y,-z
1/2-x,1/2+y,-z
1/2-x,1/2-y,-z
1/2+x,1/2+y,-z
1/2-x,1/2+y,z
1/2+x,1/2-y,z
loop_
_atom_site_type_symbol
_atom_site_label
_atom_site_fract_x
_atom_site_fract_y
_atom_site_fract_z
Si Si1 0.500000 0.566990 0.182734
Si Si2 0.070679 0.565313 0.174220
Si Si3 0.739138 0.436712 0.318402
Si Si4 0.318471 0.262476 0.819279
Si Si5 0.118866 0.875213 0.319436
Si Si6 0.658693 0.853012 0.678789
O O1 0.500000 0.500000 0.247306
O O2 0.441773 0.603617 0.236013
O O3 0.500000 0.564861 0.000000
O O4 0.093407 0.500000 0.201939
O O5 0.101224 0.605705 0.301755
O O6 0.000000 0.569549 0.201570
O O7 0.087521 0.585035 0.000000
O O8 0.751424 0.438448 0.500000
O O9 0.753729 0.500000 0.245864
O O10 0.669461 0.423180 0.282208
O O11 0.782720 0.386831 0.249993
O O12 0.250000 0.250000 0.756630
O O13 0.354410 0.313949 0.736297
O O14 0.354535 0.204006 0.779262
O O15 0.318023 0.275954 0.000000
O O16 0.104693 0.870055 0.500000
O O17 0.667617 0.836196 0.500000
#
# Coordination Sequence:
#
# PCOD8274374 Si02
#       6
#     8  16  16  16  16  16
#     4  11  25  45  67  95 133 171 210 259 318 383
#     4   9  19  37  58  81 115 157 197 239 293 355
#     4   9  18  32  54  87 122 152 187 241 305 361
#     4  11  23  40  62  87 122 161 199 245 306 372
#     4  11  22  40  66  92 123 162 210 260 309 367
#     4  11  21  35  58  87 120 154 198 250 300 358
#
# _framework density 19.990463999999999
#
# number of rings (size 3 to 8) (size 9 to 14) (size 15 to 20)
#    0.000    1.727    1.818    3.545    0.000    3.636 
#    1.636    0.909    0.000    4.364    0.000    0.000 
#    0.000    0.000    0.000    0.000    0.000    0.000 
#
# Total GULP energy -545503.973646 kJ/mol
# GULP energy per Si atom -12397.817583 kJ/mol
# Density = 1.994497 g / cm^3
# Si number density = 19.990464 Si / 1000 Ang^3
#
#
#
# Elastic Constant Matrix: (Units=GPa)
#
#
# Indices 1 2 3 4 5 6 
#
# 1 90.2632 53.1461 29.3378 0.0000 0.0000 0.0000
# 2 53.1461 133.3067 28.8822 0.0000 0.0000 0.0000
# 3 29.3378 28.8822 55.1390 0.0000 0.0000 0.0000
# 4 0.0000 0.0000 0.0000 28.9865 0.0000 0.0000
# 5 0.0000 0.0000 0.0000 0.0000 29.3557 0.0000
# 6 0.0000 0.0000 0.0000 0.0000 0.0000 25.4194
#
#
#
# Elastic Compliance Matrix: (Units=1/GPa)
#
#
# Indices 1 2 3 4 5 6 
#
# 1 0.015980 -0.005109 -0.005827 0.000000 0.000000 0.000000
# 2 -0.005109 0.010095 -0.002570 0.000000 0.000000 0.000000
# 3 -0.005827 -0.002570 0.022582 0.000000 0.000000 0.000000
# 4 0.000000 0.000000 0.000000 0.034499 0.000000 0.000000
# 5 0.000000 0.000000 0.000000 0.000000 0.034065 0.000000
# 6 0.000000 0.000000 0.000000 0.000000 0.000000 0.039340
#
#
# Mechanical properties :
#
#
# Convention : Reuss Voigt Hill
#
# Bulk Modulus (GPa) = 46.19468 55.71567 50.95518
# Shear Modulus (GPa) = 26.20722 27.90854 27.05788
#
# Velocity S-wave (km/s) = 3.62468 3.74049 3.68304
# Velocity P-wave (km/s) = 6.37780 6.82544 6.60541
#
# Compressibility (1/GPa) = 0.02164751
#
# Stress axis : x y z
#
# Youngs Moduli (GPa) = 62.57647 99.05989 44.28260
#
# Poissons Ratio (x) = 0.50605 0.25803
# Poissons Ratio (y) = 0.31968 0.11379
# Poissons Ratio (z) = 0.36462 0.25455
#
# Static dielectric constant tensor:
#      x y z
#    x 3.567430 0.000000 0.000000 
#    y 0.000000 3.788580 0.000000 
#    z 0.000000 0.000000 3.501070 
# 
# 
# High freq. dielectric constant tensor:
#      x y z
#    x 1.777030 0.000000 0.000000 
#    y 0.000000 1.792700 0.000000 
#    z 0.000000 0.000000 1.765430 
# 
# From -- ./inp_files/11729.got.cif
#   From: 2010.03.12/outbox.cif.g09.slc.cpg/sg65_6_cif.got.tgz:11729.got - 2010.04.10 20:52:16.
