data_PCOD8274308
_publ_section_title
;
Structure prediction by ZEFSAII (Michael W. Deem and Ramdas Pophale) SiO2 
 PCOD8274308
Probable space group: C M M M
;
_chemical_formula_sum "Si O2"
_cell_formula_units_Z 96
_cell_length_a 8.782400
_cell_length_b 23.771842
_cell_length_c 25.379808
_cell_angle_alpha 90.000000
_cell_angle_beta 90.000000
_cell_angle_gamma 90.000000
_cell_volume 5298.639599
_symmetry_space_group_name_H-M "C M M M"
_symmetry_group_IT_number 65
_symmetry_cell_setting 'orthorhombic'
loop_
_space_group_symop_operation_xyz
x,y,z
-x,-y,z
x,-y,-z
-x,y,-z
-x,-y,-z
x,y,-z
-x,y,z
x,-y,z
1/2+x,1/2+y,z
1/2-x,1/2-y,z
1/2+x,1/2-y,-z
1/2-x,1/2+y,-z
1/2-x,1/2-y,-z
1/2+x,1/2+y,-z
1/2-x,1/2+y,z
1/2+x,1/2-y,z
loop_
_atom_site_type_symbol
_atom_site_label
_atom_site_fract_x
_atom_site_fract_y
_atom_site_fract_z
Si Si1 0.821737 0.192230 0.058986
Si Si2 0.818631 0.500000 0.305649
Si Si3 0.820035 0.114890 0.846157
Si Si4 0.819489 0.382101 0.345382
Si Si5 0.679997 0.809210 0.440755
Si Si6 0.180751 0.311286 0.245573
Si Si7 0.818823 0.500000 0.815475
O O1 0.750000 0.250000 0.080437
O O2 0.777350 0.141140 0.097223
O O3 0.000000 0.202034 0.058902
O O4 0.761873 0.178170 0.000000
O O5 0.752967 0.444693 0.335228
O O6 0.763488 0.500000 0.245216
O O7 0.000000 0.500000 0.306801
O O8 0.743535 0.152342 0.801819
O O9 0.748493 0.053354 0.845478
O O10 0.000000 0.112225 0.836755
O O11 0.760521 0.357930 0.401376
O O12 0.764788 0.340247 0.299634
O O13 0.000000 0.385872 0.345180
O O14 0.731818 0.825308 0.500000
O O15 0.500000 0.802866 0.436922
O O16 0.750000 0.750000 0.423109
O O17 0.250000 0.250000 0.242921
O O18 0.000000 0.308030 0.241463
O O19 0.000000 0.500000 0.819110
#
# Coordination Sequence:
#
# PCOD8274308 Si02
#       7
#    16   8  16  16  16  16   8
#     4   9  19  36  57  80 107 140 175 213 262 314
#     4   9  16  31  52  72  95 133 172 207 254 307
#     4  11  22  36  55  80 108 137 175 221 263 311
#     4   9  17  30  49  72 100 133 172 212 257 312
#     4   9  17  30  49  73 100 131 168 211 257 307
#     4  11  21  33  50  75 106 139 173 214 266 319
#     4  11  21  37  58  77 103 144 181 214 261 315
#
# _framework density 18.117857000000001
#
# number of rings (size 3 to 8) (size 9 to 14) (size 15 to 20)
#    0.000    2.167    1.667    2.250    0.000    2.667 
#    0.000    1.667    0.000    5.000    0.000    0.000 
#    0.000    2.667    0.000    0.000    0.000    0.000 
#
# Total GULP energy -595175.469383 kJ/mol
# GULP energy per Si atom -12399.488945 kJ/mol
# Density = 1.807662 g / cm^3
# Si number density = 18.117857 Si / 1000 Ang^3
#
#
#
# Elastic Constant Matrix: (Units=GPa)
#
#
# Indices 1 2 3 4 5 6 
#
# 1 42.7549 38.5204 33.6703 0.0000 0.0000 0.0000
# 2 38.5204 176.3332 84.9500 0.0000 0.0000 0.0000
# 3 33.6703 84.9500 123.3249 0.0000 0.0000 0.0000
# 4 0.0000 0.0000 0.0000 31.8695 0.0000 0.0000
# 5 0.0000 0.0000 0.0000 0.0000 19.7637 0.0000
# 6 0.0000 0.0000 0.0000 0.0000 0.0000 1.7884
#
#
#
# Elastic Compliance Matrix: (Units=1/GPa)
#
#
# Indices 1 2 3 4 5 6 
#
# 1 0.031677 -0.004121 -0.005810 0.000000 0.000000 0.000000
# 2 -0.004121 0.009024 -0.005091 0.000000 0.000000 0.000000
# 3 -0.005810 -0.005091 0.013202 0.000000 0.000000 0.000000
# 4 0.000000 0.000000 0.000000 0.031378 0.000000 0.000000
# 5 0.000000 0.000000 0.000000 0.000000 0.050598 0.000000
# 6 0.000000 0.000000 0.000000 0.000000 0.000000 0.559172
#
#
# Mechanical properties :
#
#
# Convention : Reuss Voigt Hill
#
# Bulk Modulus (GPa) = 41.91219 72.96604 57.43912
# Shear Modulus (GPa) = 6.82085 23.03579 14.92832
#
# Velocity S-wave (km/s) = 1.94239 3.56960 2.87358
# Velocity P-wave (km/s) = 5.31167 7.57296 6.54078
#
# Compressibility (1/GPa) = 0.02385941
#
# Stress axis : x y z
#
# Youngs Moduli (GPa) = 31.56820 110.81733 75.74852
#
# Poissons Ratio (x) = 0.45668 0.44009
# Poissons Ratio (y) = 0.13009 0.38562
# Poissons Ratio (z) = 0.18341 0.56415
#
# Static dielectric constant tensor:
#      x y z
#    x 3.175890 0.000000 0.000000 
#    y 0.000000 3.616260 0.000000 
#    z 0.000000 0.000000 3.715020 
# 
# 
# High freq. dielectric constant tensor:
#      x y z
#    x 1.682820 0.000000 0.000000 
#    y 0.000000 1.707180 0.000000 
#    z 0.000000 0.000000 1.705820 
# 
# From -- ./inp_files/67881.got.cif
#   From: 2010.03.12/outbox.cif.g09.slc.cpg/sg65_34_cif.got.tgz:67881.got - 2010.04.10 20:52:16.
