data_PCOD8274397
_publ_section_title
;
Structure prediction by ZEFSAII (Michael W. Deem and Ramdas Pophale) SiO2 
 PCOD8274397
Probable space group: C M M M
;
_chemical_formula_sum "Si O2"
_cell_formula_units_Z 88
_cell_length_a 9.791059
_cell_length_b 22.193874
_cell_length_c 21.639347
_cell_angle_alpha 90.000000
_cell_angle_beta 90.000000
_cell_angle_gamma 90.000000
_cell_volume 4702.263206
_symmetry_space_group_name_H-M "C M M M"
_symmetry_group_IT_number 65
_symmetry_cell_setting 'orthorhombic'
loop_
_space_group_symop_operation_xyz
x,y,z
-x,-y,z
x,-y,-z
-x,y,-z
-x,-y,-z
x,y,-z
-x,y,z
x,-y,z
1/2+x,1/2+y,z
1/2-x,1/2-y,z
1/2+x,1/2-y,-z
1/2-x,1/2+y,-z
1/2-x,1/2-y,-z
1/2+x,1/2+y,-z
1/2-x,1/2+y,z
1/2+x,1/2-y,z
loop_
_atom_site_type_symbol
_atom_site_label
_atom_site_fract_x
_atom_site_fract_y
_atom_site_fract_z
Si Si1 0.656891 0.070653 0.612251
Si Si2 0.844112 0.928451 0.500000
Si Si3 0.500000 0.142129 0.071827
Si Si4 0.000000 0.227058 0.124086
Si Si5 0.250000 0.750000 0.209359
Si Si6 0.500000 0.598955 0.071609
Si Si7 0.728785 0.067669 0.862595
Si Si8 0.158953 0.627264 0.741787
O O1 0.500000 0.084697 0.592991
O O2 0.760409 0.094258 0.559738
O O3 0.699572 0.105733 0.673830
O O4 0.675098 0.000000 0.624351
O O5 0.000000 0.903004 0.500000
O O6 0.847204 0.000000 0.500000
O O7 0.500000 0.213285 0.082753
O O8 0.366687 0.114529 0.102281
O O9 0.500000 0.127182 0.000000
O O10 0.867232 0.222474 0.166595
O O11 0.000000 0.171098 0.077707
O O12 0.192060 0.697864 0.253330
O O13 0.627037 0.568184 0.104445
O O14 0.500000 0.581616 0.000000
O O15 0.743660 0.088461 0.791496
O O16 0.668546 0.000000 0.865130
O O17 0.000000 0.616011 0.755739
#
# Coordination Sequence:
#
# PCOD8274397 Si02
#       8
#    16   8   8   8   8   8  16  16
#     4   9  18  33  58  87 117 155 195 230 276 338
#     4   9  17  33  53  84 129 162 187 228 274 327
#     4  12  24  40  63  87 108 144 196 249 297 350
#     4  12  21  42  62  84 108 145 194 250 298 349
#     4  12  20  38  63  81 114 146 190 244 300 348
#     4  12  26  42  59  81 114 154 192 239 299 366
#     4  12  24  40  59  82 117 153 189 239 299 361
#     4  11  21  38  61  89 114 147 197 247 292 338
#
# _framework density 18.714393000000001
#
# number of rings (size 3 to 8) (size 9 to 14) (size 15 to 20)
#    0.000    1.000    5.455    2.182    0.000    4.000 
#    3.273    2.727    0.000    0.545    0.000    0.000 
#    0.000    0.000    0.000    0.000    0.000    0.000 
#
# Total GULP energy -545792.587304 kJ/mol
# GULP energy per Si atom -12404.376984 kJ/mol
# Density = 1.867180 g / cm^3
# Si number density = 18.714393 Si / 1000 Ang^3
#
#
#
# Elastic Constant Matrix: (Units=GPa)
#
#
# Indices 1 2 3 4 5 6 
#
# 1 100.7312 2.2005 59.8612 0.0000 0.0000 0.0000
# 2 2.2005 79.8599 31.7700 0.0000 0.0000 0.0000
# 3 59.8612 31.7700 153.1643 0.0000 0.0000 0.0000
# 4 0.0000 0.0000 0.0000 30.7071 0.0000 0.0000
# 5 0.0000 0.0000 0.0000 0.0000 32.5344 0.0000
# 6 0.0000 0.0000 0.0000 0.0000 0.0000 4.3345
#
#
#
# Elastic Compliance Matrix: (Units=1/GPa)
#
#
# Indices 1 2 3 4 5 6 
#
# 1 0.013173 0.001837 -0.005530 0.000000 0.000000 0.000000
# 2 0.001837 0.013904 -0.003602 0.000000 0.000000 0.000000
# 3 -0.005530 -0.003602 0.009437 0.000000 0.000000 0.000000
# 4 0.000000 0.000000 0.000000 0.032566 0.000000 0.000000
# 5 0.000000 0.000000 0.000000 0.000000 0.030737 0.000000
# 6 0.000000 0.000000 0.000000 0.000000 0.000000 0.230707
#
#
# Mechanical properties :
#
#
# Convention : Reuss Voigt Hill
#
# Bulk Modulus (GPa) = 45.60932 57.93541 51.77237
# Shear Modulus (GPa) = 14.18753 29.51012 21.84883
#
# Velocity S-wave (km/s) = 2.75636 3.97529 3.42056
# Velocity P-wave (km/s) = 5.87828 7.21772 6.58216
#
# Compressibility (1/GPa) = 0.02192534
#
# Stress axis : x y z
#
# Youngs Moduli (GPa) = 75.91120 71.92049 105.96400
#
# Poissons Ratio (x) = -0.13210 0.58593
# Poissons Ratio (y) = -0.13943 0.38168
# Poissons Ratio (z) = 0.41975 0.25905
#
# Static dielectric constant tensor:
#      x y z
#    x 3.373210 0.000000 0.000000 
#    y 0.000000 3.352760 0.000000 
#    z 0.000000 0.000000 3.451530 
# 
# 
# High freq. dielectric constant tensor:
#      x y z
#    x 1.733140 0.000000 0.000000 
#    y 0.000000 1.719490 0.000000 
#    z 0.000000 0.000000 1.723540 
# 
# From -- ./inp_files/67734.got.cif
#   From: 2010.03.12/outbox.cif.g09.slc.cpg/sg65_34_cif.got.tgz:67734.got - 2010.04.10 20:52:16.
