data_PCOD8274180
_publ_section_title
;
Structure prediction by ZEFSAII (Michael W. Deem and Ramdas Pophale) SiO2 
 PCOD8274180
Probable space group: C M M M
;
_chemical_formula_sum "Si O2"
_cell_formula_units_Z 112
_cell_length_a 31.465471
_cell_length_b 13.796342
_cell_length_c 18.528385
_cell_angle_alpha 90.000000
_cell_angle_beta 90.000000
_cell_angle_gamma 90.000000
_cell_volume 8043.327550
_symmetry_space_group_name_H-M "C M M M"
_symmetry_group_IT_number 65
_symmetry_cell_setting 'orthorhombic'
loop_
_space_group_symop_operation_xyz
x,y,z
-x,-y,z
x,-y,-z
-x,y,-z
-x,-y,-z
x,y,-z
-x,y,z
x,-y,z
1/2+x,1/2+y,z
1/2-x,1/2-y,z
1/2+x,1/2-y,-z
1/2-x,1/2+y,-z
1/2-x,1/2-y,-z
1/2+x,1/2+y,-z
1/2-x,1/2+y,z
1/2+x,1/2-y,z
loop_
_atom_site_type_symbol
_atom_site_label
_atom_site_fract_x
_atom_site_fract_y
_atom_site_fract_z
Si Si1 0.549531 0.390413 0.775905
Si Si2 0.449680 0.889562 0.292532
Si Si3 0.450228 0.796981 0.144998
Si Si4 0.412084 0.292940 0.360565
Si Si5 0.319501 0.276899 0.585427
Si Si6 0.449851 0.390610 0.500000
Si Si7 0.238685 0.394229 0.414474
Si Si8 0.949213 0.389202 0.000000
O O1 0.500000 0.379761 0.755223
O O2 0.560489 0.500000 0.800203
O O3 0.560878 0.316587 0.841176
O O4 0.576319 0.362266 0.705839
O O5 0.500000 0.874697 0.299152
O O6 0.433961 0.861856 0.212009
O O7 0.427182 0.817927 0.349160
O O8 0.436482 0.000000 0.309892
O O9 0.500000 0.812093 0.137957
O O10 0.429755 0.834769 0.070322
O O11 0.361588 0.295905 0.369297
O O12 0.434666 0.333248 0.430652
O O13 0.329375 0.280688 0.500000
O O14 0.284928 0.356488 0.609532
O O15 0.300145 0.173595 0.609844
O O16 0.431021 0.500000 0.500000
O O17 0.500000 0.394869 0.500000
O O18 0.238909 0.396827 0.500000
O O19 0.231249 0.500000 0.380387
O O20 0.933456 0.500000 0.000000
O O21 0.000000 0.384899 0.000000
#
# Coordination Sequence:
#
# PCOD8274180 Si02
#       8
#    16  16  16  16  16   8  16   8
#     4   9  17  29  41  52  72 106 140 165 195 234
#     4   9  17  29  42  54  73 106 139 162 192 235
#     4   8  14  24  38  55  75  97 125 163 200 232
#     4  11  19  29  42  58  76  96 128 172 203 234
#     4   9  17  29  40  59  78  90 117 156 198 242
#     4  11  22  32  41  54  73  97 126 168 217 243
#     4   8  15  28  45  57  73  96 112 137 188 249
#     4   9  14  20  35  59  79  93 118 161 205 236
#
# _framework density 13.924586
#
# number of rings (size 3 to 8) (size 9 to 14) (size 15 to 20)
#    0.000    2.857    0.714    3.857    0.000    4.571 
#    0.000    0.714    0.000    3.429    0.000    0.000 
#    0.000    0.000    0.000    0.000    0.000   45.714 
#
# Total GULP energy -694087.350761 kJ/mol
# GULP energy per Si atom -12394.416978 kJ/mol
# Density = 1.389289 g / cm^3
# Si number density = 13.924586 Si / 1000 Ang^3
#
#
#
# Elastic Constant Matrix: (Units=GPa)
#
#
# Indices 1 2 3 4 5 6 
#
# 1 53.4844 24.9785 22.8278 0.0000 0.0000 0.0000
# 2 24.9785 120.0598 47.1142 0.0000 0.0000 0.0000
# 3 22.8278 47.1142 78.2738 0.0000 0.0000 0.0000
# 4 0.0000 0.0000 0.0000 17.7038 0.0000 0.0000
# 5 0.0000 0.0000 0.0000 0.0000 -11.0965 0.0000
# 6 0.0000 0.0000 0.0000 0.0000 0.0000 11.5671
#
#
#
# Elastic Compliance Matrix: (Units=1/GPa)
#
#
# Indices 1 2 3 4 5 6 
#
# 1 0.022002 -0.002696 -0.004794 0.000000 0.000000 0.000000
# 2 -0.002696 0.011235 -0.005976 0.000000 0.000000 0.000000
# 3 -0.004794 -0.005976 0.017771 0.000000 0.000000 0.000000
# 4 0.000000 0.000000 0.000000 0.056485 0.000000 0.000000
# 5 0.000000 0.000000 0.000000 0.000000 -0.090119 0.000000
# 6 0.000000 0.000000 0.000000 0.000000 0.000000 0.086452
#
#
# Mechanical properties :
#
#
# Convention : Reuss Voigt Hill
#
# Bulk Modulus (GPa) = 41.53572 49.07322 45.30447
# Shear Modulus (GPa) = 36.02678 14.09472 25.06075
#
# Velocity S-wave (km/s) = 5.09205 3.18499 4.24695
# Velocity P-wave (km/s) = 8.02906 6.98886 7.52695
#
# Compressibility (1/GPa) = 0.02407566
#
# Stress axis : x y z
#
# Youngs Moduli (GPa) = 45.44967 89.00397 56.27138
#
# Poissons Ratio (x) = 0.23999 0.26975
# Poissons Ratio (y) = 0.12255 0.33630
# Poissons Ratio (z) = 0.21787 0.53192
#
# Static dielectric constant tensor:
#      x y z
#    x 2.467680 0.000000 0.000000 
#    y 0.000000 3.209200 0.000000 
#    z 0.000000 0.000000 2.601640 
# 
# 
# High freq. dielectric constant tensor:
#      x y z
#    x 1.493470 0.000000 0.000000 
#    y 0.000000 1.549680 0.000000 
#    z 0.000000 0.000000 1.500210 
# 
# From -- ./inp_files/58310.got.cif
#   From: 2010.03.12/outbox.cif.g09.slc.cpg/sg65_30_cif.got.tgz:58310.got - 2010.04.10 20:52:16.
