data_PCOD8274647
_publ_section_title
;
Structure prediction by ZEFSAII (Michael W. Deem and Ramdas Pophale) SiO2 
 PCOD8274647
Probable space group: C M M M
;
_chemical_formula_sum "Si O2"
_cell_formula_units_Z 104
_cell_length_a 32.192417
_cell_length_b 19.796911
_cell_length_c 9.580626
_cell_angle_alpha 90.000000
_cell_angle_beta 90.000000
_cell_angle_gamma 90.000000
_cell_volume 6105.832725
_symmetry_space_group_name_H-M "C M M M"
_symmetry_group_IT_number 65
_symmetry_cell_setting 'orthorhombic'
loop_
_space_group_symop_operation_xyz
x,y,z
-x,-y,z
x,-y,-z
-x,y,-z
-x,-y,-z
x,y,-z
-x,y,z
x,-y,z
1/2+x,1/2+y,z
1/2-x,1/2-y,z
1/2+x,1/2-y,-z
1/2-x,1/2+y,-z
1/2-x,1/2-y,-z
1/2+x,1/2+y,-z
1/2-x,1/2+y,z
1/2+x,1/2-y,z
loop_
_atom_site_type_symbol
_atom_site_label
_atom_site_fract_x
_atom_site_fract_y
_atom_site_fract_z
Si Si1 0.574879 0.122000 0.156500
Si Si2 0.180569 0.077747 0.341317
Si Si3 0.048904 0.500000 0.656680
Si Si4 0.632526 0.315365 0.834199
Si Si5 0.045372 0.766299 0.834506
Si Si6 0.223405 0.423642 0.336773
Si Si7 0.333327 0.171660 0.843813
O O1 0.551529 0.188781 0.210626
O O2 0.623949 0.131477 0.154763
O O3 0.565170 0.065184 0.266163
O O4 0.559768 0.102387 0.000000
O O5 0.172515 0.101059 0.500000
O O6 0.152191 0.120192 0.238010
O O7 0.228496 0.088444 0.302181
O O8 0.168005 0.000000 0.322353
O O9 0.066917 0.500000 0.500000
O O10 0.000000 0.500000 0.655863
O O11 0.584484 0.310182 0.779916
O O12 0.658291 0.248223 0.791745
O O13 0.633712 0.324829 0.000000
O O14 0.000000 0.791784 0.778483
O O15 0.046426 0.769260 0.000000
O O16 0.214670 0.414974 0.500000
O O17 0.210708 0.500000 0.290313
O O18 0.198353 0.366201 0.256711
O O19 0.314384 0.172749 0.000000
#
# Coordination Sequence:
#
# PCOD8274647 Si02
#       7
#    16  16   8  16  16  16  16
#     4   9  18  32  49  67  89 124 166 201 239 292
#     4   9  19  36  54  72  97 129 164 199 236 287
#     4  11  23  33  41  61  93 125 161 209 257 289
#     4   9  18  32  51  77 103 124 156 201 245 290
#     4   8  14  28  51  74  95 122 157 197 239 286
#     4   9  19  34  50  69  95 131 173 207 237 283
#     4   9  19  33  48  72 102 127 158 204 250 288
#
# _framework density 17.032893999999999
#
# number of rings (size 3 to 8) (size 9 to 14) (size 15 to 20)
#    0.000    3.000    0.000    3.462    1.077    4.308 
#    0.000    6.923    0.000    1.846    0.000    3.231 
#    0.000    0.000    0.000    0.000    0.000    0.000 
#
# Total GULP energy -644514.862462 kJ/mol
# GULP energy per Si atom -12394.516586 kJ/mol
# Density = 1.699413 g / cm^3
# Si number density = 17.032894 Si / 1000 Ang^3
#
#
#
# Elastic Constant Matrix: (Units=GPa)
#
#
# Indices 1 2 3 4 5 6 
#
# 1 95.2244 58.2682 40.3374 0.0000 0.0000 0.0000
# 2 58.2682 81.5639 43.0584 0.0000 0.0000 0.0000
# 3 40.3374 43.0584 61.0959 0.0000 0.0000 0.0000
# 4 0.0000 0.0000 0.0000 24.0561 0.0000 0.0000
# 5 0.0000 0.0000 0.0000 0.0000 16.8218 0.0000
# 6 0.0000 0.0000 0.0000 0.0000 0.0000 14.9486
#
#
#
# Elastic Compliance Matrix: (Units=1/GPa)
#
#
# Indices 1 2 3 4 5 6 
#
# 1 0.019528 -0.011377 -0.004875 0.000000 0.000000 0.000000
# 2 -0.011377 0.026153 -0.010920 0.000000 0.000000 0.000000
# 3 -0.004875 -0.010920 0.027282 0.000000 0.000000 0.000000
# 4 0.000000 0.000000 0.000000 0.041569 0.000000 0.000000
# 5 0.000000 0.000000 0.000000 0.000000 0.059447 0.000000
# 6 0.000000 0.000000 0.000000 0.000000 0.000000 0.066896
#
#
# Mechanical properties :
#
#
# Convention : Reuss Voigt Hill
#
# Bulk Modulus (GPa) = 53.70818 57.91247 55.81033
# Shear Modulus (GPa) = 16.58778 17.57998 17.08388
#
# Velocity S-wave (km/s) = 3.12407 3.21615 3.17044
# Velocity P-wave (km/s) = 6.67934 6.91850 6.79997
#
# Compressibility (1/GPa) = 0.01861914
#
# Stress axis : x y z
#
# Youngs Moduli (GPa) = 51.20765 38.23656 36.65367
#
# Poissons Ratio (x) = 0.43503 0.17868
# Poissons Ratio (y) = 0.58261 0.40026
# Poissons Ratio (z) = 0.24963 0.41755
#
# Static dielectric constant tensor:
#      x y z
#    x 3.321370 0.000000 0.000000 
#    y 0.000000 3.064790 0.000000 
#    z 0.000000 0.000000 3.087810 
# 
# 
# High freq. dielectric constant tensor:
#      x y z
#    x 1.660120 0.000000 0.000000 
#    y 0.000000 1.644840 0.000000 
#    z 0.000000 0.000000 1.639600 
# 
# From -- ./inp_files/18668.got.cif
#   From: 2010.03.12/outbox.cif.g09.slc.cpg/sg65_10_cif.got.tgz:18668.got - 2010.04.10 20:52:16.
