data_PCOD8274187
_publ_section_title
;
Structure prediction by ZEFSAII (Michael W. Deem and Ramdas Pophale) SiO2 
 PCOD8274187
Probable space group: C M M M
;
_chemical_formula_sum "Si O2"
_cell_formula_units_Z 72
_cell_length_a 27.370117
_cell_length_b 19.510565
_cell_length_c 8.692750
_cell_angle_alpha 90.000000
_cell_angle_beta 90.000000
_cell_angle_gamma 90.000000
_cell_volume 4641.984540
_symmetry_space_group_name_H-M "C M M M"
_symmetry_group_IT_number 65
_symmetry_cell_setting 'orthorhombic'
loop_
_space_group_symop_operation_xyz
x,y,z
-x,-y,z
x,-y,-z
-x,y,-z
-x,-y,-z
x,y,-z
-x,y,z
x,-y,z
1/2+x,1/2+y,z
1/2-x,1/2-y,z
1/2+x,1/2-y,-z
1/2-x,1/2+y,-z
1/2-x,1/2-y,-z
1/2+x,1/2+y,-z
1/2-x,1/2+y,z
1/2+x,1/2-y,z
loop_
_atom_site_type_symbol
_atom_site_label
_atom_site_fract_x
_atom_site_fract_y
_atom_site_fract_z
Si Si1 0.848856 0.500000 0.172761
Si Si2 0.826002 0.720245 0.818267
Si Si3 0.400864 0.126431 0.680857
Si Si4 0.000000 0.421182 0.181799
Si Si5 0.727951 0.352635 0.817502
Si Si6 0.233385 0.000000 0.171124
O O1 0.865911 0.433777 0.263460
O O2 0.791377 0.500000 0.163275
O O3 0.871560 0.500000 0.000000
O O4 0.875274 0.697583 0.731496
O O5 0.779956 0.675729 0.757535
O O6 0.815478 0.799937 0.775842
O O7 0.833224 0.710527 0.000000
O O8 0.407679 0.123954 0.500000
O O9 0.453467 0.119865 0.757779
O O10 0.000000 0.500000 0.242700
O O11 0.000000 0.420361 0.000000
O O12 0.716658 0.428666 0.746112
O O13 0.733155 0.359404 0.000000
O O14 0.211009 0.000000 0.000000
#
# Coordination Sequence:
#
# PCOD8274187 Si02
#       6
#     8  16  16   8  16   8
#     4  11  19  30  48  65  87 123 161 191 224 269
#     4   9  16  29  46  64  88 122 159 190 224 270
#     4  12  23  33  46  66  94 120 150 193 236 271
#     4  11  23  37  53  67  84 117 158 191 224 266
#     4   8  14  24  43  68  90 116 158 200 225 256
#     4   9  14  23  44  70  89 114 158 204 230 251
#
# _framework density 15.510607
#
# number of rings (size 3 to 8) (size 9 to 14) (size 15 to 20)
#    0.000    2.111    3.333    4.000    0.000    0.444 
#    0.000    2.222    0.000    0.000    0.000    0.000 
#    0.000    0.889    0.000   10.444    0.000    2.000 
#
# Total GULP energy -446150.143961 kJ/mol
# GULP energy per Si atom -12393.059554 kJ/mol
# Density = 1.547530 g / cm^3
# Si number density = 15.510607 Si / 1000 Ang^3
#
#
#
# Elastic Constant Matrix: (Units=GPa)
#
#
# Indices 1 2 3 4 5 6 
#
# 1 78.6777 49.7079 25.5315 0.0000 0.0000 0.0000
# 2 49.7079 138.1660 21.9903 0.0000 0.0000 0.0000
# 3 25.5315 21.9903 53.6421 0.0000 0.0000 0.0000
# 4 0.0000 0.0000 0.0000 10.3575 0.0000 0.0000
# 5 0.0000 0.0000 0.0000 0.0000 -11.1028 0.0000
# 6 0.0000 0.0000 0.0000 0.0000 0.0000 10.5761
#
#
#
# Elastic Compliance Matrix: (Units=1/GPa)
#
#
# Indices 1 2 3 4 5 6 
#
# 1 0.018314 -0.005565 -0.006436 0.000000 0.000000 0.000000
# 2 -0.005565 0.009434 -0.001219 0.000000 0.000000 0.000000
# 3 -0.006436 -0.001219 0.022205 0.000000 0.000000 0.000000
# 4 0.000000 0.000000 0.000000 0.096548 0.000000 0.000000
# 5 0.000000 0.000000 0.000000 0.000000 -0.090067 0.000000
# 6 0.000000 0.000000 0.000000 0.000000 0.000000 0.094553
#
#
# Mechanical properties :
#
#
# Convention : Reuss Voigt Hill
#
# Bulk Modulus (GPa) = 42.52670 51.66058 47.09364
# Shear Modulus (GPa) = 26.98873 13.51657 20.25265
#
# Velocity S-wave (km/s) = 4.17588 2.95522 3.61741
# Velocity P-wave (km/s) = 7.12235 6.70994 6.91922
#
# Compressibility (1/GPa) = 0.02351464
#
# Stress axis : x y z
#
# Youngs Moduli (GPa) = 54.60266 106.00405 45.03532
#
# Poissons Ratio (x) = 0.58987 0.28983
# Poissons Ratio (y) = 0.30384 0.05489
# Poissons Ratio (z) = 0.35140 0.12919
#
# Static dielectric constant tensor:
#      x y z
#    x 2.785910 0.000000 0.000000 
#    y 0.000000 3.484590 0.000000 
#    z 0.000000 0.000000 2.747280 
# 
# 
# High freq. dielectric constant tensor:
#      x y z
#    x 1.561900 0.000000 0.000000 
#    y 0.000000 1.593760 0.000000 
#    z 0.000000 0.000000 1.571600 
# 
# From -- ./inp_files/11328.got.cif
#   From: 2010.03.12/outbox.cif.g09.slc.cpg/sg65_6_cif.got.tgz:11328.got - 2010.04.10 20:52:16.
