data_PCOD8274730
_publ_section_title
;
Structure prediction by ZEFSAII (Michael W. Deem and Ramdas Pophale) SiO2 
 PCOD8274730
Probable space group: C M M M
;
_chemical_formula_sum "Si O2"
_cell_formula_units_Z 56
_cell_length_a 19.632156
_cell_length_b 9.791776
_cell_length_c 12.895238
_cell_angle_alpha 90.000000
_cell_angle_beta 90.000000
_cell_angle_gamma 90.000000
_cell_volume 2478.898977
_symmetry_space_group_name_H-M "C M M M"
_symmetry_group_IT_number 65
_symmetry_cell_setting 'orthorhombic'
loop_
_space_group_symop_operation_xyz
x,y,z
-x,-y,z
x,-y,-z
-x,y,-z
-x,-y,-z
x,y,-z
-x,y,z
x,-y,z
1/2+x,1/2+y,z
1/2-x,1/2-y,z
1/2+x,1/2-y,-z
1/2-x,1/2+y,-z
1/2-x,1/2-y,-z
1/2+x,1/2+y,-z
1/2-x,1/2+y,z
1/2+x,1/2-y,z
loop_
_atom_site_type_symbol
_atom_site_label
_atom_site_fract_x
_atom_site_fract_y
_atom_site_fract_z
Si Si1 0.259309 0.500000 0.118560
Si Si2 0.901459 0.500000 0.116781
Si Si3 0.376900 0.152936 0.380113
Si Si4 0.500000 0.227566 0.878904
Si Si5 0.750000 0.750000 0.249468
Si Si6 0.500000 0.345631 0.325053
O O1 0.178247 0.500000 0.125917
O O2 0.285458 0.364488 0.176128
O O3 0.285543 0.500000 0.000000
O O4 0.933672 0.640538 0.159570
O O5 0.928889 0.500000 0.000000
O O6 0.356937 0.146977 0.500000
O O7 0.308385 0.186671 0.319255
O O8 0.434232 0.266677 0.366408
O O9 0.400898 0.000000 0.342402
O O10 0.500000 0.356007 0.801403
O O11 0.500000 0.273444 0.000000
O O12 0.500000 0.500000 0.368530
#
# Coordination Sequence:
#
# PCOD8274730 Si02
#       6
#     8   8  16   8   8   8
#     4  11  23  40  64  99 141 182 225 277 338 408
#     4   8  16  33  60  88 121 173 231 271 312 381
#     4  11  26  49  74 100 133 181 235 288 345 412
#     4   9  18  34  62  96 131 178 225 271 325 397
#     4  12  24  44  72 104 138 182 232 284 342 410
#     4  12  27  42  69 105 142 176 222 285 351 407
#
# _framework density 22.590674
#
# number of rings (size 3 to 8) (size 9 to 14) (size 15 to 20)
#    0.000    1.429    1.429    4.286    6.000    2.571 
#    0.000    1.429    0.000    0.000    0.000    0.000 
#    0.000    0.000    0.000    0.000    0.000    0.000 
#
# Total GULP energy -347122.621366 kJ/mol
# GULP energy per Si atom -12397.236477 kJ/mol
# Density = 2.253926 g / cm^3
# Si number density = 22.590674 Si / 1000 Ang^3
#
#
#
# Elastic Constant Matrix: (Units=GPa)
#
#
# Indices 1 2 3 4 5 6 
#
# 1 58.6494 30.6698 30.8728 0.0000 0.0000 0.0000
# 2 30.6698 177.4727 67.1303 0.0000 0.0000 0.0000
# 3 30.8728 67.1303 110.9505 0.0000 0.0000 0.0000
# 4 0.0000 0.0000 0.0000 26.0704 0.0000 0.0000
# 5 0.0000 0.0000 0.0000 0.0000 4.7227 0.0000
# 6 0.0000 0.0000 0.0000 0.0000 0.0000 26.0239
#
#
#
# Elastic Compliance Matrix: (Units=1/GPa)
#
#
# Indices 1 2 3 4 5 6 
#
# 1 0.020405 -0.001788 -0.004596 0.000000 0.000000 0.000000
# 2 -0.001788 0.007464 -0.004018 0.000000 0.000000 0.000000
# 3 -0.004596 -0.004018 0.012723 0.000000 0.000000 0.000000
# 4 0.000000 0.000000 0.000000 0.038358 0.000000 0.000000
# 5 0.000000 0.000000 0.000000 0.000000 0.211742 0.000000
# 6 0.000000 0.000000 0.000000 0.000000 0.000000 0.038426
#
#
# Mechanical properties :
#
#
# Convention : Reuss Voigt Hill
#
# Bulk Modulus (GPa) = 50.53792 67.15759 58.84775
# Shear Modulus (GPa) = 14.02457 25.92338 19.97397
#
# Velocity S-wave (km/s) = 2.49431 3.39119 2.97672
# Velocity P-wave (km/s) = 5.54213 6.71760 6.15797
#
# Compressibility (1/GPa) = 0.01978712
#
# Stress axis : x y z
#
# Youngs Moduli (GPa) = 49.00837 133.98375 78.59630
#
# Poissons Ratio (x) = 0.23952 0.36124
# Poissons Ratio (y) = 0.08761 0.31583
# Poissons Ratio (z) = 0.22525 0.53840
#
# Static dielectric constant tensor:
#      x y z
#    x 3.888170 0.000000 0.000000 
#    y 0.000000 4.150850 0.000000 
#    z 0.000000 0.000000 4.583400 
# 
# 
# High freq. dielectric constant tensor:
#      x y z
#    x 1.874320 0.000000 0.000000 
#    y 0.000000 1.885120 0.000000 
#    z 0.000000 0.000000 1.921750 
# 
# From -- ./inp_files/43620.got.cif
#   From: 2010.03.12/outbox.cif.g09.slc.cpg/sg65_22_cif.got.tgz:43620.got - 2010.04.10 20:52:16.
