data_PCOD8274381
_publ_section_title
;
Structure prediction by ZEFSAII (Michael W. Deem and Ramdas Pophale) SiO2 
 PCOD8274381
Probable space group: C M M M
;
_chemical_formula_sum "Si O2"
_cell_formula_units_Z 72
_cell_length_a 9.852957
_cell_length_b 16.683891
_cell_length_c 21.960336
_cell_angle_alpha 90.000000
_cell_angle_beta 90.000000
_cell_angle_gamma 90.000000
_cell_volume 3609.964341
_symmetry_space_group_name_H-M "C M M M"
_symmetry_group_IT_number 65
_symmetry_cell_setting 'orthorhombic'
loop_
_space_group_symop_operation_xyz
x,y,z
-x,-y,z
x,-y,-z
-x,y,-z
-x,-y,-z
x,y,-z
-x,y,z
x,-y,z
1/2+x,1/2+y,z
1/2-x,1/2-y,z
1/2+x,1/2-y,-z
1/2-x,1/2+y,-z
1/2-x,1/2-y,-z
1/2+x,1/2+y,-z
1/2-x,1/2+y,z
1/2+x,1/2-y,z
loop_
_atom_site_type_symbol
_atom_site_label
_atom_site_fract_x
_atom_site_fract_y
_atom_site_fract_z
Si Si1 0.654762 0.095745 0.000000
Si Si2 0.500000 0.814794 0.429709
Si Si3 0.770950 0.590096 0.363966
Si Si4 0.349505 0.404828 0.758708
Si Si5 0.500000 0.625793 0.570350
Si Si6 0.346459 0.404736 0.893381
O O1 0.736375 0.129191 0.058816
O O2 0.500000 0.128862 0.000000
O O3 0.652171 0.000000 0.000000
O O4 0.500000 0.840373 0.500000
O O5 0.632937 0.849159 0.398480
O O6 0.500000 0.720662 0.421151
O O7 0.832436 0.500000 0.363304
O O8 0.751858 0.623545 0.294796
O O9 0.628806 0.586416 0.398211
O O10 0.500000 0.369732 0.746342
O O11 0.357688 0.500000 0.756950
O O12 0.299912 0.376501 0.825691
O O13 0.500000 0.601636 0.500000
O O14 0.500000 0.373940 0.907829
O O15 0.347896 0.500000 0.897142
#
# Coordination Sequence:
#
# PCOD8274381 Si02
#       6
#     8   8  16  16   8  16
#     4   9  15  21  29  51  85 123 166 201 234 294
#     4  11  25  41  53  75 113 146 169 210 278 337
#     4  11  21  36  58  82 106 136 180 226 266 314
#     4   8  14  27  46  69  93 121 165 218 261 300
#     4  11  23  39  59  79 103 140 181 218 264 323
#     4   8  13  22  37  54  80 120 162 202 246 296
#
# _framework density 19.944796
#
# number of rings (size 3 to 8) (size 9 to 14) (size 15 to 20)
#    0.000    2.556    1.111    3.667    0.000    5.778 
#    2.000    0.000    0.000    0.000    0.000    0.000 
#    0.000    0.000    0.000    6.000    0.000    6.778 
#
# Total GULP energy -446203.717232 kJ/mol
# GULP energy per Si atom -12394.547701 kJ/mol
# Density = 1.989940 g / cm^3
# Si number density = 19.944796 Si / 1000 Ang^3
#
#
#
# Elastic Constant Matrix: (Units=GPa)
#
#
# Indices 1 2 3 4 5 6 
#
# 1 106.7895 10.0789 67.1457 0.0000 0.0000 0.0000
# 2 10.0789 25.9992 22.8660 0.0000 0.0000 0.0000
# 3 67.1457 22.8660 176.6302 0.0000 0.0000 0.0000
# 4 0.0000 0.0000 0.0000 -3.6937 0.0000 0.0000
# 5 0.0000 0.0000 0.0000 0.0000 36.7359 0.0000
# 6 0.0000 0.0000 0.0000 0.0000 0.0000 17.5685
#
#
#
# Elastic Compliance Matrix: (Units=1/GPa)
#
#
# Indices 1 2 3 4 5 6 
#
# 1 0.012318 -0.000741 -0.004587 0.000000 0.000000 0.000000
# 2 -0.000741 0.043449 -0.005343 0.000000 0.000000 0.000000
# 3 -0.004587 -0.005343 0.008097 0.000000 0.000000 0.000000
# 4 0.000000 0.000000 0.000000 -0.270732 0.000000 0.000000
# 5 0.000000 0.000000 0.000000 0.000000 0.027221 0.000000
# 6 0.000000 0.000000 0.000000 0.000000 0.000000 0.056920
#
#
# Mechanical properties :
#
#
# Convention : Reuss Voigt Hill
#
# Bulk Modulus (GPa) = 23.51713 56.62224 40.06969
# Shear Modulus (GPa) = -57.33311 24.07736 -16.62787
#
# Velocity S-wave (km/s) = -5.36734 3.47825 -2.89051
# Velocity P-wave (km/s) = 5.15697 6.67698 2.99897
#
# Compressibility (1/GPa) = 0.04252219
#
# Stress axis : x y z
#
# Youngs Moduli (GPa) = 81.18079 23.01536 123.50420
#
# Poissons Ratio (x) = 0.01706 0.56649
# Poissons Ratio (y) = 0.06018 0.65989
# Poissons Ratio (z) = 0.37236 0.12297
#
# Static dielectric constant tensor:
#      x y z
#    x 3.506700 0.000000 0.000000 
#    y 0.000000 3.002550 0.000000 
#    z 0.000000 0.000000 4.220030 
# 
# 
# High freq. dielectric constant tensor:
#      x y z
#    x 1.768560 0.000000 0.000000 
#    y 0.000000 1.721830 0.000000 
#    z 0.000000 0.000000 1.799330 
# 
# From -- ./inp_files/67157.got.cif
#   From: 2010.03.12/outbox.cif.g09.slc.cpg/sg65_34_cif.got.tgz:67157.got - 2010.04.10 20:52:16.
