data_PCOD8274707
_publ_section_title
;
Structure prediction by ZEFSAII (Michael W. Deem and Ramdas Pophale) SiO2 
 PCOD8274707
Probable space group: C M M M
;
_chemical_formula_sum "Si O2"
_cell_formula_units_Z 88
_cell_length_a 17.680329
_cell_length_b 9.154166
_cell_length_c 28.511102
_cell_angle_alpha 90.000000
_cell_angle_beta 90.000000
_cell_angle_gamma 90.000000
_cell_volume 4614.483842
_symmetry_space_group_name_H-M "C M M M"
_symmetry_group_IT_number 65
_symmetry_cell_setting 'orthorhombic'
loop_
_space_group_symop_operation_xyz
x,y,z
-x,-y,z
x,-y,-z
-x,y,-z
-x,-y,-z
x,y,-z
-x,y,z
x,-y,z
1/2+x,1/2+y,z
1/2-x,1/2-y,z
1/2+x,1/2-y,-z
1/2-x,1/2+y,-z
1/2-x,1/2-y,-z
1/2+x,1/2+y,-z
1/2-x,1/2+y,z
1/2+x,1/2-y,z
loop_
_atom_site_type_symbol
_atom_site_label
_atom_site_fract_x
_atom_site_fract_y
_atom_site_fract_z
Si Si1 0.589947 0.335750 0.948399
Si Si2 0.090348 0.335924 0.859523
Si Si3 0.329913 0.173092 0.582705
Si Si4 0.410804 0.666262 0.500000
Si Si5 0.909919 0.164481 0.769462
Si Si6 0.086482 0.669082 0.321817
O O1 0.500000 0.334589 0.946121
O O2 0.619445 0.500000 0.939907
O O3 0.623197 0.233139 0.907567
O O4 0.616377 0.279866 0.000000
O O5 0.120932 0.500000 0.855948
O O6 0.122357 0.247200 0.815028
O O7 0.000000 0.332050 0.859749
O O8 0.250000 0.250000 0.577085
O O9 0.385518 0.245049 0.545493
O O10 0.362431 0.207860 0.633850
O O11 0.323317 0.000000 0.573568
O O12 0.378154 0.500000 0.500000
O O13 0.500000 0.660750 0.500000
O O14 0.880661 0.241291 0.722154
O O15 0.000000 0.168740 0.770428
O O16 0.878907 0.000000 0.770321
O O17 0.091386 0.500000 0.308320
O O18 0.000000 0.713319 0.333207
#
# Coordination Sequence:
#
# PCOD8274707 Si02
#       6
#    16  16  16   8  16  16
#     4   8  13  20  28  38  56  86 126 173 224 277
#     4   9  15  21  30  45  67  96 132 177 227 279
#     4  11  23  39  59  82 111 144 176 211 253 302
#     4  11  24  41  62  87 113 141 176 217 256 297
#     4   9  16  25  39  59  82 109 143 187 237 286
#     4   9  18  33  52  73  97 127 164 205 249 296
#
# _framework density 19.070388000000001
#
# number of rings (size 3 to 8) (size 9 to 14) (size 15 to 20)
#    0.000    2.636    0.000    3.273    0.000    7.636 
#    0.000    3.636    0.000    0.000    0.000    0.000 
#    0.000    0.000    0.000    0.000    0.000    0.909 
#
# Total GULP energy -545516.385112 kJ/mol
# GULP energy per Si atom -12398.099662 kJ/mol
# Density = 1.902698 g / cm^3
# Si number density = 19.070388 Si / 1000 Ang^3
#
#
#
# Elastic Constant Matrix: (Units=GPa)
#
#
# Indices 1 2 3 4 5 6 
#
# 1 30.5893 21.2904 21.7521 0.0000 0.0000 0.0000
# 2 21.2904 146.3529 98.9331 0.0000 0.0000 0.0000
# 3 21.7521 98.9331 170.8295 0.0000 0.0000 0.0000
# 4 0.0000 0.0000 0.0000 43.9225 0.0000 0.0000
# 5 0.0000 0.0000 0.0000 0.0000 -3.8281 0.0000
# 6 0.0000 0.0000 0.0000 0.0000 0.0000 12.7489
#
#
#
# Elastic Compliance Matrix: (Units=1/GPa)
#
#
# Indices 1 2 3 4 5 6 
#
# 1 0.037077 -0.003619 -0.002625 0.000000 0.000000 0.000000
# 2 -0.003619 0.011582 -0.006247 0.000000 0.000000 0.000000
# 3 -0.002625 -0.006247 0.009806 0.000000 0.000000 0.000000
# 4 0.000000 0.000000 0.000000 0.022767 0.000000 0.000000
# 5 0.000000 0.000000 0.000000 0.000000 -0.261223 0.000000
# 6 0.000000 0.000000 0.000000 0.000000 0.000000 0.078438
#
#
# Mechanical properties :
#
#
# Convention : Reuss Voigt Hill
#
# Bulk Modulus (GPa) = 29.86620 70.19145 50.02883
# Shear Modulus (GPa) = -76.44047 24.28838 -26.07605
#
# Velocity S-wave (km/s) = -6.33801 3.57265 -3.70179
# Velocity P-wave (km/s) = 6.15349 7.34199 2.83191
#
# Compressibility (1/GPa) = 0.03348267
#
# Stress axis : x y z
#
# Youngs Moduli (GPa) = 26.97102 86.34105 101.98129
#
# Poissons Ratio (x) = 0.31248 0.26771
# Poissons Ratio (y) = 0.09761 0.63704
# Poissons Ratio (z) = 0.07080 0.53935
#
# Static dielectric constant tensor:
#      x y z
#    x 2.836390 0.000000 0.000000 
#    y 0.000000 3.704880 0.000000 
#    z 0.000000 0.000000 3.790790 
# 
# 
# High freq. dielectric constant tensor:
#      x y z
#    x 1.673540 0.000000 0.000000 
#    y 0.000000 1.751190 0.000000 
#    z 0.000000 0.000000 1.762160 
# 
# From -- ./inp_files/77946.got.cif
#   From: 2010.03.12/outbox.cif.g09.slc.cpg/sg65_39_cif.got.tgz:77946.got - 2010.04.10 20:52:16.
