data_PCOD8274176
_publ_section_title
;
Structure prediction by ZEFSAII (Michael W. Deem and Ramdas Pophale) SiO2 
 PCOD8274176
Probable space group: C M M M
;
_chemical_formula_sum "Si O2"
_cell_formula_units_Z 88
_cell_length_a 27.332291
_cell_length_b 14.077249
_cell_length_c 14.253702
_cell_angle_alpha 90.000000
_cell_angle_beta 90.000000
_cell_angle_gamma 90.000000
_cell_volume 5484.303787
_symmetry_space_group_name_H-M "C M M M"
_symmetry_group_IT_number 65
_symmetry_cell_setting 'orthorhombic'
loop_
_space_group_symop_operation_xyz
x,y,z
-x,-y,z
x,-y,-z
-x,y,-z
-x,-y,-z
x,y,-z
-x,y,z
x,-y,z
1/2+x,1/2+y,z
1/2-x,1/2-y,z
1/2+x,1/2-y,-z
1/2-x,1/2+y,-z
1/2-x,1/2-y,-z
1/2+x,1/2+y,-z
1/2-x,1/2+y,z
1/2+x,1/2-y,z
loop_
_atom_site_type_symbol
_atom_site_label
_atom_site_fract_x
_atom_site_fract_y
_atom_site_fract_z
Si Si1 0.444296 0.386449 0.203228
Si Si2 0.056920 0.101729 0.000000
Si Si3 0.284110 0.388475 0.107027
Si Si4 0.850826 0.794619 0.256042
Si Si5 0.198299 0.392321 0.755837
Si Si6 0.219794 0.891554 0.606757
O O1 0.500000 0.361136 0.232067
O O2 0.436449 0.500000 0.209000
O O3 0.431332 0.346114 0.098105
O O4 0.406879 0.329233 0.269660
O O5 0.000000 0.078967 0.000000
O O6 0.084897 0.000000 0.000000
O O7 0.293166 0.500000 0.113073
O O8 0.328560 0.340535 0.162101
O O9 0.232406 0.363531 0.155788
O O10 0.283163 0.351915 0.000000
O O11 0.847429 0.679964 0.247537
O O12 0.821835 0.826547 0.348295
O O13 0.178458 0.500000 0.765426
O O14 0.229239 0.379008 0.660888
O O15 0.228270 0.859703 0.500000
O O16 0.201828 0.000000 0.614262
#
# Coordination Sequence:
#
# PCOD8274176 Si02
#       6
#    16   8  16  16  16  16
#     4   9  17  29  44  64  90 114 139 178 227 271
#     4   7  12  24  40  58  82 109 133 165 212 260
#     4   9  17  28  42  63  91 116 139 173 217 266
#     4  11  19  27  45  67  86 115 154 182 212 261
#     4   9  19  32  42  59  89 120 150 184 216 250
#     4   9  17  30  48  70  95 118 141 175 220 266
#
# _framework density 16.045793
#
# number of rings (size 3 to 8) (size 9 to 14) (size 15 to 20)
#    0.000    2.818    0.000    6.000    1.273    2.909 
#    0.000    0.000    0.000    1.091    0.000    2.545 
#    0.000    2.182    0.000    6.182    0.000    0.182 
#
# Total GULP energy -545245.050861 kJ/mol
# GULP energy per Si atom -12391.932974 kJ/mol
# Density = 1.600927 g / cm^3
# Si number density = 16.045793 Si / 1000 Ang^3
#
#
#
# Elastic Constant Matrix: (Units=GPa)
#
#
# Indices 1 2 3 4 5 6 
#
# 1 77.2147 50.3840 14.1497 0.0000 0.0000 0.0000
# 2 50.3840 69.6409 19.2787 0.0000 0.0000 0.0000
# 3 14.1497 19.2787 90.1891 0.0000 0.0000 0.0000
# 4 0.0000 0.0000 0.0000 10.1547 0.0000 0.0000
# 5 0.0000 0.0000 0.0000 0.0000 8.5907 0.0000
# 6 0.0000 0.0000 0.0000 0.0000 0.0000 22.8168
#
#
#
# Elastic Compliance Matrix: (Units=1/GPa)
#
#
# Indices 1 2 3 4 5 6 
#
# 1 0.024533 -0.017733 -0.000058 0.000000 0.000000 0.000000
# 2 -0.017733 0.028080 -0.003220 0.000000 0.000000 0.000000
# 3 -0.000058 -0.003220 0.011785 0.000000 0.000000 0.000000
# 4 0.000000 0.000000 0.000000 0.098477 0.000000 0.000000
# 5 0.000000 0.000000 0.000000 0.000000 0.116405 0.000000
# 6 0.000000 0.000000 0.000000 0.000000 0.000000 0.043827
#
#
# Mechanical properties :
#
#
# Convention : Reuss Voigt Hill
#
# Bulk Modulus (GPa) = 44.69223 44.96330 44.82776
# Shear Modulus (GPa) = 13.41966 18.52793 15.97379
#
# Velocity S-wave (km/s) = 2.89508 3.40176 3.15860
# Velocity P-wave (km/s) = 6.25210 6.59636 6.42654
#
# Compressibility (1/GPa) = 0.02237525
#
# Stress axis : x y z
#
# Youngs Moduli (GPa) = 40.76224 35.61234 84.85118
#
# Poissons Ratio (x) = 0.63150 0.00495
# Poissons Ratio (y) = 0.72282 0.27325
# Poissons Ratio (z) = 0.00238 0.11468
#
# Static dielectric constant tensor:
#      x y z
#    x 2.770410 0.000000 0.000000 
#    y 0.000000 2.962320 0.000000 
#    z 0.000000 0.000000 3.178710 
# 
# 
# High freq. dielectric constant tensor:
#      x y z
#    x 1.578970 0.000000 0.000000 
#    y 0.000000 1.600670 0.000000 
#    z 0.000000 0.000000 1.610990 
# 
# From -- ./inp_files/46879.got.cif
#   From: 2010.03.12/outbox.cif.g09.slc.cpg/sg65_24_cif.got.tgz:46879.got - 2010.04.10 20:52:16.
