data_PCOD8274557
_publ_section_title
;
Structure prediction by ZEFSAII (Michael W. Deem and Ramdas Pophale) SiO2 
 PCOD8274557
Probable space group: C M M M
;
_chemical_formula_sum "Si O2"
_cell_formula_units_Z 64
_cell_length_a 35.197819
_cell_length_b 11.060089
_cell_length_c 8.942934
_cell_angle_alpha 90.000000
_cell_angle_beta 90.000000
_cell_angle_gamma 90.000000
_cell_volume 3481.403816
_symmetry_space_group_name_H-M "C M M M"
_symmetry_group_IT_number 65
_symmetry_cell_setting 'orthorhombic'
loop_
_space_group_symop_operation_xyz
x,y,z
-x,-y,z
x,-y,-z
-x,y,-z
-x,-y,-z
x,y,-z
-x,y,z
x,-y,z
1/2+x,1/2+y,z
1/2-x,1/2-y,z
1/2+x,1/2-y,-z
1/2-x,1/2+y,-z
1/2-x,1/2-y,-z
1/2+x,1/2+y,-z
1/2-x,1/2+y,z
1/2+x,1/2-y,z
loop_
_atom_site_type_symbol
_atom_site_label
_atom_site_fract_x
_atom_site_fract_y
_atom_site_fract_z
Si Si1 0.000000 0.139902 0.835221
Si Si2 0.646767 0.361312 0.330713
Si Si3 0.930992 0.740931 0.677051
Si Si4 0.224748 0.137517 0.176800
Si Si5 0.955455 0.500000 0.824966
O O1 0.037356 0.171615 0.743508
O O2 0.000000 0.000000 0.863534
O O3 0.000000 0.205327 0.000000
O O4 0.658362 0.327468 0.500000
O O5 0.634556 0.500000 0.319391
O O6 0.610687 0.285431 0.276174
O O7 0.682005 0.331756 0.224393
O O8 0.936183 0.736522 0.500000
O O9 0.935266 0.611315 0.748549
O O10 0.250000 0.250000 0.240621
O O11 0.236197 0.000000 0.235068
O O12 0.227353 0.136648 0.000000
O O13 0.000000 0.500000 0.787996
O O14 0.947456 0.500000 0.000000
#
# Coordination Sequence:
#
# PCOD8274557 Si02
#       5
#     8  16  16  16   8
#     4  11  23  36  53  80 111 141 179 227 274 327
#     4   9  19  36  57  82 111 141 177 222 271 322
#     4  11  22  37  58  80 107 142 184 229 274 327
#     4   9  18  34  56  81 111 145 182 223 270 327
#     4  11  23  39  57  77 108 146 186 228 276 332
#
# _framework density 18.383389999999999
#
# number of rings (size 3 to 8) (size 9 to 14) (size 15 to 20)
#    0.000    2.000    1.250    2.250    0.000    5.000 
#    2.250    2.500    0.000    0.000    0.000    0.000 
#    0.000    0.000    0.000    0.000    0.000    0.000 
#
# Total GULP energy -396699.401216 kJ/mol
# GULP energy per Si atom -12396.856288 kJ/mol
# Density = 1.834155 g / cm^3
# Si number density = 18.383390 Si / 1000 Ang^3
#
#
#
# Elastic Constant Matrix: (Units=GPa)
#
#
# Indices 1 2 3 4 5 6 
#
# 1 124.0232 79.7450 41.6959 0.0000 0.0000 0.0000
# 2 79.7450 126.1472 39.9442 0.0000 0.0000 0.0000
# 3 41.6959 39.9442 54.9562 0.0000 0.0000 0.0000
# 4 0.0000 0.0000 0.0000 25.8274 0.0000 0.0000
# 5 0.0000 0.0000 0.0000 0.0000 31.6599 0.0000
# 6 0.0000 0.0000 0.0000 0.0000 0.0000 40.6306
#
#
#
# Elastic Compliance Matrix: (Units=1/GPa)
#
#
# Indices 1 2 3 4 5 6 
#
# 1 0.014877 -0.007573 -0.005782 0.000000 0.000000 0.000000
# 2 -0.007573 0.014153 -0.004541 0.000000 0.000000 0.000000
# 3 -0.005782 -0.004541 0.025884 0.000000 0.000000 0.000000
# 4 0.000000 0.000000 0.000000 0.038719 0.000000 0.000000
# 5 0.000000 0.000000 0.000000 0.000000 0.031586 0.000000
# 6 0.000000 0.000000 0.000000 0.000000 0.000000 0.024612
#
#
# Mechanical properties :
#
#
# Convention : Reuss Voigt Hill
#
# Bulk Modulus (GPa) = 52.30088 69.76630 61.03359
# Shear Modulus (GPa) = 26.04228 29.20635 27.62432
#
# Velocity S-wave (km/s) = 3.76788 3.99022 3.88064
# Velocity P-wave (km/s) = 6.88775 7.69820 7.30422
#
# Compressibility (1/GPa) = 0.01912014
#
# Stress axis : x y z
#
# Youngs Moduli (GPa) = 67.21977 70.65848 38.63414
#
# Poissons Ratio (x) = 0.53512 0.22340
# Poissons Ratio (y) = 0.50908 0.17542
# Poissons Ratio (z) = 0.38869 0.32084
#
# Static dielectric constant tensor:
#      x y z
#    x 3.364140 0.000000 0.000000 
#    y 0.000000 3.653360 0.000000 
#    z 0.000000 0.000000 3.431640 
# 
# 
# High freq. dielectric constant tensor:
#      x y z
#    x 1.708250 0.000000 0.000000 
#    y 0.000000 1.722180 0.000000 
#    z 0.000000 0.000000 1.716260 
# 
# From -- ./inp_files/4914.got.cif
#   From: 2010.03.12/outbox.cif.g09.slc.cpg/sg65_3_cif.got.tgz:4914.got - 2010.04.10 20:52:16.
