data_PCOD8274433
_publ_section_title
;
Structure prediction by ZEFSAII (Michael W. Deem and Ramdas Pophale) SiO2 
 PCOD8274433
Probable space group: C M M M
;
_chemical_formula_sum "Si O2"
_cell_formula_units_Z 88
_cell_length_a 8.869422
_cell_length_b 19.228189
_cell_length_c 28.456342
_cell_angle_alpha 90.000000
_cell_angle_beta 90.000000
_cell_angle_gamma 90.000000
_cell_volume 4853.027729
_symmetry_space_group_name_H-M "C M M M"
_symmetry_group_IT_number 65
_symmetry_cell_setting 'orthorhombic'
loop_
_space_group_symop_operation_xyz
x,y,z
-x,-y,z
x,-y,-z
-x,y,-z
-x,-y,-z
x,y,-z
-x,y,z
x,-y,z
1/2+x,1/2+y,z
1/2-x,1/2-y,z
1/2+x,1/2-y,-z
1/2-x,1/2+y,-z
1/2-x,1/2-y,-z
1/2+x,1/2+y,-z
1/2-x,1/2+y,z
1/2+x,1/2-y,z
loop_
_atom_site_type_symbol
_atom_site_label
_atom_site_fract_x
_atom_site_fract_y
_atom_site_fract_z
Si Si1 0.819552 0.578249 0.399056
Si Si2 0.321636 0.825806 0.314843
Si Si3 0.177203 0.823511 0.052433
Si Si4 0.164442 0.417750 0.500000
Si Si5 0.678267 0.576279 0.131782
Si Si6 0.675375 0.418885 0.237461
O O1 0.763107 0.500000 0.386344
O O2 0.760293 0.632509 0.360412
O O3 0.753590 0.602231 0.450566
O O4 0.000000 0.577938 0.401393
O O5 0.500000 0.817684 0.316168
O O6 0.250000 0.750000 0.313518
O O7 0.277148 0.870037 0.269460
O O8 0.250000 0.750000 0.061751
O O9 0.247493 0.874689 0.091483
O O10 0.000000 0.815441 0.059070
O O11 0.215940 0.851220 0.000000
O O12 0.143664 0.500000 0.500000
O O13 0.000000 0.381799 0.500000
O O14 0.500000 0.571590 0.125954
O O15 0.749048 0.500000 0.124384
O O16 0.716461 0.602974 0.184112
O O17 0.500000 0.405052 0.248125
O O18 0.714040 0.500000 0.246068
#
# Coordination Sequence:
#
# PCOD8274433 Si02
#       6
#    16  16  16   8  16  16
#     4   8  14  26  46  70  93 119 153 194 237 280
#     4  11  22  34  48  69  99 130 163 201 238 280
#     4   9  17  29  46  68  94 124 156 189 226 270
#     4   7  10  20  41  68  93 115 146 189 234 279
#     4   8  15  29  49  72  95 118 149 191 234 276
#     4   9  18  34  54  73  95 124 157 195 242 292
#
# _framework density 18.133011
#
# number of rings (size 3 to 8) (size 9 to 14) (size 15 to 20)
#    0.000    3.182    0.000    3.273    0.000    2.182 
#    0.000    5.000    0.000    1.636    0.000    4.455 
#    0.000   10.182    0.000    0.000    0.000    0.000 
#
# Total GULP energy -545187.205378 kJ/mol
# GULP energy per Si atom -12390.618304 kJ/mol
# Density = 1.809174 g / cm^3
# Si number density = 18.133011 Si / 1000 Ang^3
#
#
#
# Elastic Constant Matrix: (Units=GPa)
#
#
# Indices 1 2 3 4 5 6 
#
# 1 26.2587 28.8479 30.1339 0.0000 0.0000 0.0000
# 2 28.8479 104.6686 90.7284 0.0000 0.0000 0.0000
# 3 30.1339 90.7284 171.8700 0.0000 0.0000 0.0000
# 4 0.0000 0.0000 0.0000 14.6277 0.0000 0.0000
# 5 0.0000 0.0000 0.0000 0.0000 15.8369 0.0000
# 6 0.0000 0.0000 0.0000 0.0000 0.0000 13.4230
#
#
#
# Elastic Compliance Matrix: (Units=1/GPa)
#
#
# Indices 1 2 3 4 5 6 
#
# 1 0.055476 -0.012645 -0.003052 0.000000 0.000000 0.000000
# 2 -0.012645 0.020496 -0.008603 0.000000 0.000000 0.000000
# 3 -0.003052 -0.008603 0.010895 0.000000 0.000000 0.000000
# 4 0.000000 0.000000 0.000000 0.068364 0.000000 0.000000
# 5 0.000000 0.000000 0.000000 0.000000 0.063144 0.000000
# 6 0.000000 0.000000 0.000000 0.000000 0.000000 0.074499
#
#
# Mechanical properties :
#
#
# Convention : Reuss Voigt Hill
#
# Bulk Modulus (GPa) = 26.13097 66.91310 46.52203
# Shear Modulus (GPa) = 14.11525 18.98331 16.54928
#
# Velocity S-wave (km/s) = 2.79306 3.23908 3.02430
# Velocity P-wave (km/s) = 4.98433 7.13934 6.15686
#
# Compressibility (1/GPa) = 0.03826877
#
# Stress axis : x y z
#
# Youngs Moduli (GPa) = 18.02581 48.79050 91.78875
#
# Poissons Ratio (x) = 0.61694 0.28010
# Poissons Ratio (y) = 0.22793 0.78962
# Poissons Ratio (z) = 0.05501 0.41972
#
# Static dielectric constant tensor:
#      x y z
#    x 2.868180 0.000000 0.000000 
#    y 0.000000 3.355490 0.000000 
#    z 0.000000 0.000000 3.842800 
# 
# 
# High freq. dielectric constant tensor:
#      x y z
#    x 1.653000 0.000000 0.000000 
#    y 0.000000 1.688590 0.000000 
#    z 0.000000 0.000000 1.724310 
# 
# From -- ./inp_files/76564.got.cif
#   From: 2010.03.12/outbox.cif.g09.slc.cpg/sg65_39_cif.got.tgz:76564.got - 2010.04.10 20:52:16.
