data_PCOD8274366
_publ_section_title
;
Structure prediction by ZEFSAII (Michael W. Deem and Ramdas Pophale) SiO2 
 PCOD8274366
Probable space group: C M M M
;
_chemical_formula_sum "Si O2"
_cell_formula_units_Z 88
_cell_length_a 8.679567
_cell_length_b 18.892742
_cell_length_c 28.593005
_cell_angle_alpha 90.000000
_cell_angle_beta 90.000000
_cell_angle_gamma 90.000000
_cell_volume 4688.704406
_symmetry_space_group_name_H-M "C M M M"
_symmetry_group_IT_number 65
_symmetry_cell_setting 'orthorhombic'
loop_
_space_group_symop_operation_xyz
x,y,z
-x,-y,z
x,-y,-z
-x,y,-z
-x,-y,-z
x,y,-z
-x,y,z
x,-y,z
1/2+x,1/2+y,z
1/2-x,1/2-y,z
1/2+x,1/2-y,-z
1/2-x,1/2+y,-z
1/2-x,1/2-y,-z
1/2+x,1/2+y,-z
1/2-x,1/2+y,z
1/2+x,1/2-y,z
loop_
_atom_site_type_symbol
_atom_site_label
_atom_site_fract_x
_atom_site_fract_y
_atom_site_fract_z
Si Si1 0.182221 0.328887 0.416158
Si Si2 0.681507 0.417271 0.500000
Si Si3 0.319735 0.326908 0.322440
Si Si4 0.817883 0.175383 0.947589
Si Si5 0.683701 0.421057 0.135808
Si Si6 0.679978 0.327125 0.220037
O O1 0.250000 0.250000 0.422546
O O2 0.246265 0.381408 0.454738
O O3 0.232791 0.363442 0.366137
O O4 0.000000 0.324216 0.420042
O O5 0.723800 0.500000 0.500000
O O6 0.500000 0.404692 0.500000
O O7 0.500000 0.323479 0.334336
O O8 0.250000 0.250000 0.317750
O O9 0.288844 0.362212 0.271540
O O10 0.750000 0.250000 0.931380
O O11 0.757701 0.116060 0.911743
O O12 0.000000 0.181608 0.945699
O O13 0.761789 0.155466 0.000000
O O14 0.500000 0.423077 0.137233
O O15 0.752233 0.500000 0.136691
O O16 0.749179 0.379444 0.180960
O O17 0.500000 0.317189 0.212303
O O18 0.750000 0.250000 0.214009
#
# Coordination Sequence:
#
# PCOD8274366 Si02
#       6
#    16   8  16  16  16  16
#     4  11  21  35  57  82 108 136 170 210 252 299
#     4  11  24  41  58  77 105 139 174 211 252 299
#     4   9  16  28  47  73 100 125 161 204 247 292
#     4   9  17  29  47  70  93 120 156 198 243 290
#     4   9  17  29  45  67  95 125 159 199 241 287
#     4   9  17  29  48  71  94 124 161 201 243 288
#
# _framework density 18.768511
#
# number of rings (size 3 to 8) (size 9 to 14) (size 15 to 20)
#    0.000    2.455    0.000    4.364    0.000    1.818 
#    0.000    2.727    0.000    5.455    0.000    2.545 
#    0.000    0.000    0.000    0.000    0.000    0.000 
#
# Total GULP energy -545316.278613 kJ/mol
# GULP energy per Si atom -12393.551787 kJ/mol
# Density = 1.872579 g / cm^3
# Si number density = 18.768511 Si / 1000 Ang^3
#
#
#
# Elastic Constant Matrix: (Units=GPa)
#
#
# Indices 1 2 3 4 5 6 
#
# 1 70.4270 37.3796 44.2973 0.0000 0.0000 0.0000
# 2 37.3796 121.2615 94.8685 0.0000 0.0000 0.0000
# 3 44.2973 94.8685 184.7817 0.0000 0.0000 0.0000
# 4 0.0000 0.0000 0.0000 6.0394 0.0000 0.0000
# 5 0.0000 0.0000 0.0000 0.0000 10.8757 0.0000
# 6 0.0000 0.0000 0.0000 0.0000 0.0000 20.5983
#
#
#
# Elastic Compliance Matrix: (Units=1/GPa)
#
#
# Indices 1 2 3 4 5 6 
#
# 1 0.017589 -0.003548 -0.002395 0.000000 0.000000 0.000000
# 2 -0.003548 0.014498 -0.006593 0.000000 0.000000 0.000000
# 3 -0.002395 -0.006593 0.009371 0.000000 0.000000 0.000000
# 4 0.000000 0.000000 0.000000 0.165579 0.000000 0.000000
# 5 0.000000 0.000000 0.000000 0.000000 0.091948 0.000000
# 6 0.000000 0.000000 0.000000 0.000000 0.000000 0.048548
#
#
# Mechanical properties :
#
#
# Convention : Reuss Voigt Hill
#
# Bulk Modulus (GPa) = 61.02854 81.06234 71.04544
# Shear Modulus (GPa) = 13.22516 20.83099 17.02808
#
# Velocity S-wave (km/s) = 2.65740 3.33512 3.01536
# Velocity P-wave (km/s) = 6.48095 7.62332 7.07523
#
# Compressibility (1/GPa) = 0.01638578
#
# Stress axis : x y z
#
# Youngs Moduli (GPa) = 56.85486 68.97306 106.71466
#
# Poissons Ratio (x) = 0.24473 0.25556
# Poissons Ratio (y) = 0.20174 0.70357
# Poissons Ratio (z) = 0.13616 0.45474
#
# Static dielectric constant tensor:
#      x y z
#    x 3.362780 0.000000 0.000000 
#    y 0.000000 3.119310 0.000000 
#    z 0.000000 0.000000 4.470070 
# 
# 
# High freq. dielectric constant tensor:
#      x y z
#    x 1.714130 0.000000 0.000000 
#    y 0.000000 1.695390 0.000000 
#    z 0.000000 0.000000 1.756800 
# 
# From -- ./inp_files/76602.got.cif
#   From: 2010.03.12/outbox.cif.g09.slc.cpg/sg65_39_cif.got.tgz:76602.got - 2010.04.10 20:52:16.
