data_PCOD8274311
_publ_section_title
;
Structure prediction by ZEFSAII (Michael W. Deem and Ramdas Pophale) SiO2 
 PCOD8274311
Probable space group: C M M M
;
_chemical_formula_sum "Si O2"
_cell_formula_units_Z 96
_cell_length_a 9.073441
_cell_length_b 26.962800
_cell_length_c 22.136346
_cell_angle_alpha 90.000000
_cell_angle_beta 90.000000
_cell_angle_gamma 90.000000
_cell_volume 5415.554668
_symmetry_space_group_name_H-M "C M M M"
_symmetry_group_IT_number 65
_symmetry_cell_setting 'orthorhombic'
loop_
_space_group_symop_operation_xyz
x,y,z
-x,-y,z
x,-y,-z
-x,y,-z
-x,-y,-z
x,y,-z
-x,y,z
x,-y,z
1/2+x,1/2+y,z
1/2-x,1/2-y,z
1/2+x,1/2-y,-z
1/2-x,1/2+y,-z
1/2-x,1/2-y,-z
1/2+x,1/2+y,-z
1/2-x,1/2+y,z
1/2+x,1/2-y,z
loop_
_atom_site_type_symbol
_atom_site_label
_atom_site_fract_x
_atom_site_fract_y
_atom_site_fract_z
Si Si1 0.330409 0.298220 0.275177
Si Si2 0.328425 0.599641 0.929377
Si Si3 0.175245 0.697359 0.500000
Si Si4 0.664816 0.055705 0.570364
Si Si5 0.669986 0.643089 0.391345
Si Si6 0.168543 0.500000 0.928273
Si Si7 0.174330 0.801419 0.138793
O O1 0.500000 0.284448 0.273107
O O2 0.250000 0.250000 0.300174
O O3 0.295970 0.341235 0.322792
O O4 0.277547 0.312672 0.207931
O O5 0.500000 0.591831 0.915084
O O6 0.245700 0.550526 0.903846
O O7 0.270085 0.650510 0.898500
O O8 0.297821 0.606021 0.000000
O O9 0.250000 0.750000 0.500000
O O10 0.225425 0.669617 0.560395
O O11 0.000000 0.702455 0.500000
O O12 0.702839 0.059152 0.500000
O O13 0.500000 0.076623 0.581752
O O14 0.787719 0.085436 0.607485
O O15 0.675009 0.000000 0.593937
O O16 0.500000 0.652151 0.408752
O O17 0.000000 0.500000 0.906226
O O18 0.181705 0.500000 0.000000
O O19 0.250000 0.750000 0.116242
O O20 0.000000 0.794564 0.130874
#
# Coordination Sequence:
#
# PCOD8274311 Si02
#       7
#    16  16   8  16  16   8  16
#     4   9  19  34  51  71  96 128 165 200 237 286
#     4   9  17  30  50  75 102 134 170 206 248 300
#     4  12  24  36  49  70 101 128 154 193 243 291
#     4   9  18  33  52  73  97 126 157 191 237 292
#     4  11  21  33  51  75  98 123 159 200 242 288
#     4   9  17  29  47  73 103 133 167 210 255 294
#     4   9  18  33  51  72 101 135 169 205 246 294
#
# _framework density 17.726717000000001
#
# number of rings (size 3 to 8) (size 9 to 14) (size 15 to 20)
#    0.000    2.417    0.833    2.500    0.000    5.000 
#    0.000    0.833    1.833    0.000    0.000    0.000 
#    0.000    0.000    0.000    0.000    0.000    0.000 
#
# Total GULP energy -595027.871463 kJ/mol
# GULP energy per Si atom -12396.413989 kJ/mol
# Density = 1.768637 g / cm^3
# Si number density = 17.726717 Si / 1000 Ang^3
#
#
#
# Elastic Constant Matrix: (Units=GPa)
#
#
# Indices 1 2 3 4 5 6 
#
# 1 73.9357 59.1389 34.9650 0.0000 0.0000 0.0000
# 2 59.1389 148.9354 51.6059 0.0000 0.0000 0.0000
# 3 34.9650 51.6059 59.2910 0.0000 0.0000 0.0000
# 4 0.0000 0.0000 0.0000 24.8710 0.0000 0.0000
# 5 0.0000 0.0000 0.0000 0.0000 15.5080 0.0000
# 6 0.0000 0.0000 0.0000 0.0000 0.0000 36.3559
#
#
#
# Elastic Compliance Matrix: (Units=1/GPa)
#
#
# Indices 1 2 3 4 5 6 
#
# 1 0.022029 -0.006079 -0.007700 0.000000 0.000000 0.000000
# 2 -0.006079 0.011291 -0.006243 0.000000 0.000000 0.000000
# 3 -0.007700 -0.006243 0.026840 0.000000 0.000000 0.000000
# 4 0.000000 0.000000 0.000000 0.040207 0.000000 0.000000
# 5 0.000000 0.000000 0.000000 0.000000 0.064483 0.000000
# 6 0.000000 0.000000 0.000000 0.000000 0.000000 0.027506
#
#
# Mechanical properties :
#
#
# Convention : Reuss Voigt Hill
#
# Bulk Modulus (GPa) = 49.70851 63.73128 56.71989
# Shear Modulus (GPa) = 20.91121 24.44380 22.67751
#
# Velocity S-wave (km/s) = 3.43832 3.71742 3.58059
# Velocity P-wave (km/s) = 6.62308 7.37941 7.01145
#
# Compressibility (1/GPa) = 0.02011728
#
# Stress axis : x y z
#
# Youngs Moduli (GPa) = 45.39420 88.56288 37.25759
#
# Poissons Ratio (x) = 0.53841 0.28687
# Poissons Ratio (y) = 0.27597 0.23259
# Poissons Ratio (z) = 0.34952 0.55287
#
# Static dielectric constant tensor:
#      x y z
#    x 3.331660 0.000000 0.000000 
#    y 0.000000 3.677390 0.000000 
#    z 0.000000 0.000000 3.174660 
# 
# 
# High freq. dielectric constant tensor:
#      x y z
#    x 1.685400 0.000000 0.000000 
#    y 0.000000 1.693390 0.000000 
#    z 0.000000 0.000000 1.658920 
# 
# From -- ./inp_files/68119.got.cif
#   From: 2010.03.12/outbox.cif.g09.slc.cpg/sg65_35_cif.got.tgz:68119.got - 2010.04.10 20:52:16.
