data_PCOD8274432
_publ_section_title
;
Structure prediction by ZEFSAII (Michael W. Deem and Ramdas Pophale) SiO2 
 PCOD8274432
Probable space group: C M M M
;
_chemical_formula_sum "Si O2"
_cell_formula_units_Z 88
_cell_length_a 8.843174
_cell_length_b 19.118211
_cell_length_c 28.599662
_cell_angle_alpha 90.000000
_cell_angle_beta 90.000000
_cell_angle_gamma 90.000000
_cell_volume 4835.220916
_symmetry_space_group_name_H-M "C M M M"
_symmetry_group_IT_number 65
_symmetry_cell_setting 'orthorhombic'
loop_
_space_group_symop_operation_xyz
x,y,z
-x,-y,z
x,-y,-z
-x,y,-z
-x,-y,-z
x,y,-z
-x,y,z
x,-y,z
1/2+x,1/2+y,z
1/2-x,1/2-y,z
1/2+x,1/2-y,-z
1/2-x,1/2+y,-z
1/2-x,1/2-y,-z
1/2+x,1/2+y,-z
1/2-x,1/2+y,z
1/2+x,1/2-y,z
loop_
_atom_site_type_symbol
_atom_site_label
_atom_site_fract_x
_atom_site_fract_y
_atom_site_fract_z
Si Si1 0.178702 0.826231 0.180376
Si Si2 0.678005 0.324203 0.447977
Si Si3 0.678077 0.924039 0.000000
Si Si4 0.824402 0.583084 0.101521
Si Si5 0.179528 0.921363 0.263912
Si Si6 0.179748 0.922314 0.367484
O O1 0.250000 0.750000 0.176705
O O2 0.220269 0.873702 0.136289
O O3 0.243171 0.866006 0.226380
O O4 0.000000 0.817510 0.182590
O O5 0.718221 0.352489 0.500000
O O6 0.500000 0.316787 0.441943
O O7 0.750000 0.250000 0.439029
O O8 0.748540 0.374821 0.408635
O O9 0.721343 0.887637 0.950629
O O10 0.500000 0.935291 0.000000
O O11 0.756526 0.000000 0.000000
O O12 0.792052 0.500000 0.105678
O O13 0.000000 0.598461 0.112328
O O14 0.230667 0.896393 0.315823
O O15 0.000000 0.923937 0.260894
O O16 0.241775 0.000000 0.253636
O O17 0.000000 0.922505 0.370586
O O18 0.242773 0.000000 0.375721
#
# Coordination Sequence:
#
# PCOD8274432 Si02
#       6
#    16  16   8  16  16  16
#     4  11  22  34  48  69  98 129 163 200 238 281
#     4   9  17  28  43  65  92 121 152 186 225 270
#     4   7  12  26  50  77 100 123 153 189 230 279
#     4   9  17  32  55  79 101 126 157 193 235 283
#     4   8  15  29  48  68  90 118 152 191 237 286
#     4   8  14  26  45  68  91 115 148 191 235 276
#
# _framework density 18.199788999999999
#
# number of rings (size 3 to 8) (size 9 to 14) (size 15 to 20)
#    0.000    3.182    0.000    3.273    0.000    2.182 
#    0.000    2.727    0.000    3.273    0.000    7.636 
#    0.000    0.000    0.000    0.000    0.000    0.000 
#
# Total GULP energy -545124.086598 kJ/mol
# GULP energy per Si atom -12389.183786 kJ/mol
# Density = 1.815837 g / cm^3
# Si number density = 18.199789 Si / 1000 Ang^3
#
#
#
# Elastic Constant Matrix: (Units=GPa)
#
#
# Indices 1 2 3 4 5 6 
#
# 1 24.6996 24.2259 27.4020 0.0000 0.0000 0.0000
# 2 24.2259 93.7157 86.0690 0.0000 0.0000 0.0000
# 3 27.4020 86.0690 181.3289 0.0000 0.0000 0.0000
# 4 0.0000 0.0000 0.0000 12.0463 0.0000 0.0000
# 5 0.0000 0.0000 0.0000 0.0000 16.4121 0.0000
# 6 0.0000 0.0000 0.0000 0.0000 0.0000 15.0207
#
#
#
# Elastic Compliance Matrix: (Units=1/GPa)
#
#
# Indices 1 2 3 4 5 6 
#
# 1 0.055013 -0.011676 -0.002771 0.000000 0.000000 0.000000
# 2 -0.011676 0.021395 -0.008391 0.000000 0.000000 0.000000
# 3 -0.002771 -0.008391 0.009916 0.000000 0.000000 0.000000
# 4 0.000000 0.000000 0.000000 0.083013 0.000000 0.000000
# 5 0.000000 0.000000 0.000000 0.000000 0.060931 0.000000
# 6 0.000000 0.000000 0.000000 0.000000 0.000000 0.066575
#
#
# Mechanical properties :
#
#
# Convention : Reuss Voigt Hill
#
# Bulk Modulus (GPa) = 24.60128 63.90421 44.25275
# Shear Modulus (GPa) = 14.04224 19.49898 16.77061
#
# Velocity S-wave (km/s) = 2.78071 3.27675 3.03887
# Velocity P-wave (km/s) = 4.88431 7.03598 6.05646
#
# Compressibility (1/GPa) = 0.04064829
#
# Stress axis : x y z
#
# Youngs Moduli (GPa) = 18.17750 46.73983 100.84261
#
# Poissons Ratio (x) = 0.54572 0.27948
# Poissons Ratio (y) = 0.21224 0.84616
# Poissons Ratio (z) = 0.05038 0.39219
#
# Static dielectric constant tensor:
#      x y z
#    x 2.884000 0.000000 0.000000 
#    y 0.000000 3.319710 0.000000 
#    z 0.000000 0.000000 3.911860 
# 
# 
# High freq. dielectric constant tensor:
#      x y z
#    x 1.657650 0.000000 0.000000 
#    y 0.000000 1.688470 0.000000 
#    z 0.000000 0.000000 1.728160 
# 
# From -- ./inp_files/76697.got.cif
#   From: 2010.03.12/outbox.cif.g09.slc.cpg/sg65_39_cif.got.tgz:76697.got - 2010.04.10 20:52:16.
