data_PCOD8274999
_publ_section_title
;
Structure prediction by ZEFSAII (Michael W. Deem and Ramdas Pophale) SiO2 
 PCOD8274999
Probable space group: C M M M
;
_chemical_formula_sum "Si O2"
_cell_formula_units_Z 104
_cell_length_a 9.697634
_cell_length_b 29.117247
_cell_length_c 23.124713
_cell_angle_alpha 90.000000
_cell_angle_beta 90.000000
_cell_angle_gamma 90.000000
_cell_volume 6529.688314
_symmetry_space_group_name_H-M "C M M M"
_symmetry_group_IT_number 65
_symmetry_cell_setting 'orthorhombic'
loop_
_space_group_symop_operation_xyz
x,y,z
-x,-y,z
x,-y,-z
-x,y,-z
-x,-y,-z
x,y,-z
-x,y,z
x,-y,z
1/2+x,1/2+y,z
1/2-x,1/2-y,z
1/2+x,1/2-y,-z
1/2-x,1/2+y,-z
1/2-x,1/2-y,-z
1/2+x,1/2+y,-z
1/2-x,1/2+y,z
1/2+x,1/2-y,z
loop_
_atom_site_type_symbol
_atom_site_label
_atom_site_fract_x
_atom_site_fract_y
_atom_site_fract_z
Si Si1 0.157669 0.053634 0.328465
Si Si2 0.160872 0.446735 0.219926
Si Si3 0.663330 0.891590 0.108250
Si Si4 0.664214 0.610368 0.436370
Si Si5 0.335135 0.948091 0.000000
Si Si6 0.848445 0.788195 0.568081
Si Si7 0.159341 0.293209 0.932234
O O1 0.252183 0.069139 0.275290
O O2 0.217659 0.076248 0.386927
O O3 0.000000 0.068884 0.316197
O O4 0.167826 0.000000 0.338875
O O5 0.189425 0.500000 0.203887
O O6 0.213320 0.414236 0.168062
O O7 0.000000 0.439138 0.233296
O O8 0.500000 0.893566 0.103998
O O9 0.710754 0.838476 0.102460
O O10 0.724451 0.921990 0.056091
O O11 0.721578 0.595737 0.500000
O O12 0.500000 0.610492 0.439405
O O13 0.715188 0.661516 0.420017
O O14 0.500000 0.947981 0.000000
O O15 0.278608 0.000000 0.000000
O O16 0.861065 0.780009 0.500000
O O17 0.750000 0.750000 0.596853
O O18 0.000000 0.783409 0.596439
O O19 0.250000 0.250000 0.911468
O O20 0.000000 0.282113 0.918693
O O21 0.180480 0.303152 0.000000
#
# Coordination Sequence:
#
# PCOD8274999 Si02
#       7
#    16  16  16  16   8  16  16
#     4   9  17  29  45  64  85 111 144 177 208 248
#     4   9  17  29  45  64  86 113 143 173 209 256
#     4   9  15  25  41  63  88 113 140 174 215 251
#     4   8  14  25  42  64  87 109 136 174 217 254
#     4   9  14  20  35  62  91 111 133 171 214 251
#     4   8  13  22  37  57  81 106 130 159 198 244
#     4   9  16  27  43  63  88 114 142 177 215 254
#
# _framework density 15.927253
#
# number of rings (size 3 to 8) (size 9 to 14) (size 15 to 20)
#    0.000    3.308    0.769    1.385    0.000    2.154 
#    0.000    3.077    0.000    2.308    0.000    8.615 
#    0.000    3.692    0.000    0.000    0.000    0.000 
#
# Total GULP energy -644487.345084 kJ/mol
# GULP energy per Si atom -12393.987405 kJ/mol
# Density = 1.589100 g / cm^3
# Si number density = 15.927253 Si / 1000 Ang^3
#
#
#
# Elastic Constant Matrix: (Units=GPa)
#
#
# Indices 1 2 3 4 5 6 
#
# 1 39.4256 36.3349 36.7010 0.0000 0.0000 0.0000
# 2 36.3349 109.5990 73.2596 0.0000 0.0000 0.0000
# 3 36.7010 73.2596 116.6270 0.0000 0.0000 0.0000
# 4 0.0000 0.0000 0.0000 17.6864 0.0000 0.0000
# 5 0.0000 0.0000 0.0000 0.0000 18.2677 0.0000
# 6 0.0000 0.0000 0.0000 0.0000 0.0000 20.9744
#
#
#
# Elastic Compliance Matrix: (Units=1/GPa)
#
#
# Indices 1 2 3 4 5 6 
#
# 1 0.039837 -0.008321 -0.007309 0.000000 0.000000 0.000000
# 2 -0.008321 0.017466 -0.008353 0.000000 0.000000 0.000000
# 3 -0.007309 -0.008353 0.016121 0.000000 0.000000 0.000000
# 4 0.000000 0.000000 0.000000 0.056541 0.000000 0.000000
# 5 0.000000 0.000000 0.000000 0.000000 0.054741 0.000000
# 6 0.000000 0.000000 0.000000 0.000000 0.000000 0.047677
#
#
# Mechanical properties :
#
#
# Convention : Reuss Voigt Hill
#
# Bulk Modulus (GPa) = 39.28027 62.02693 50.65360
# Shear Modulus (GPa) = 17.31080 19.34277 18.32678
#
# Velocity S-wave (km/s) = 3.30034 3.48867 3.39581
# Velocity P-wave (km/s) = 6.26409 7.43345 6.87368
#
# Compressibility (1/GPa) = 0.02545807
#
# Stress axis : x y z
#
# Youngs Moduli (GPa) = 25.10204 57.25327 62.02974
#
# Poissons Ratio (x) = 0.47643 0.45339
# Poissons Ratio (y) = 0.20889 0.51812
# Poissons Ratio (z) = 0.18348 0.47823
#
# Static dielectric constant tensor:
#      x y z
#    x 2.828210 0.000000 0.000000 
#    y 0.000000 3.183470 0.000000 
#    z 0.000000 0.000000 3.025550 
# 
# 
# High freq. dielectric constant tensor:
#      x y z
#    x 1.571460 0.000000 0.000000 
#    y 0.000000 1.616960 0.000000 
#    z 0.000000 0.000000 1.589540 
# 
# From -- ./inp_files/68566.got.cif
#   From: 2010.03.12/outbox.cif.g09.slc.cpg/sg65_35_cif.got.tgz:68566.got - 2010.04.10 20:52:16.
