data_PCOD8274577
_publ_section_title
;
Structure prediction by ZEFSAII (Michael W. Deem and Ramdas Pophale) SiO2 
 PCOD8274577
Probable space group: C M M M
;
_chemical_formula_sum "Si O2"
_cell_formula_units_Z 64
_cell_length_a 8.561808
_cell_length_b 15.469721
_cell_length_c 23.895752
_cell_angle_alpha 90.000000
_cell_angle_beta 90.000000
_cell_angle_gamma 90.000000
_cell_volume 3164.963224
_symmetry_space_group_name_H-M "C M M M"
_symmetry_group_IT_number 65
_symmetry_cell_setting 'orthorhombic'
loop_
_space_group_symop_operation_xyz
x,y,z
-x,-y,z
x,-y,-z
-x,y,-z
-x,-y,-z
x,y,-z
-x,y,z
x,-y,z
1/2+x,1/2+y,z
1/2-x,1/2-y,z
1/2+x,1/2-y,-z
1/2-x,1/2+y,-z
1/2-x,1/2-y,-z
1/2+x,1/2+y,-z
1/2-x,1/2+y,z
1/2+x,1/2-y,z
loop_
_atom_site_type_symbol
_atom_site_label
_atom_site_fract_x
_atom_site_fract_y
_atom_site_fract_z
Si Si1 0.685488 0.000000 0.185242
Si Si2 0.184903 0.158933 0.883560
Si Si3 0.315143 0.598958 0.500000
Si Si4 0.816034 0.600907 0.000000
Si Si5 0.314624 0.000000 0.312151
Si Si6 0.185159 0.339986 0.384343
O O1 0.749031 0.084917 0.155864
O O2 0.747030 0.000000 0.248825
O O3 0.500000 0.000000 0.180870
O O4 0.250000 0.250000 0.861070
O O5 0.000000 0.158180 0.881120
O O6 0.240999 0.145491 0.946596
O O7 0.257601 0.500000 0.500000
O O8 0.500000 0.605981 0.500000
O O9 0.248243 0.647078 0.553544
O O10 0.775181 0.500000 0.000000
O O11 0.000000 0.617353 0.000000
O O12 0.250446 0.915487 0.344014
O O13 0.500000 0.000000 0.312943
O O14 0.250000 0.250000 0.360131
O O15 0.000000 0.338696 0.385548
#
# Coordination Sequence:
#
# PCOD8274577 Si02
#       6
#     8  16   8   8   8  16
#     4  11  23  44  67  92 125 162 210 263 312 367
#     4  12  25  42  65  95 129 167 209 255 310 371
#     4  11  22  37  60  92 124 158 200 249 303 363
#     4  11  22  39  66  96 129 167 203 251 314 372
#     4   9  22  42  65  88 120 162 205 253 308 363
#     4  11  22  40  63  91 123 161 202 247 305 365
#
# _framework density 20.221404
#
# number of rings (size 3 to 8) (size 9 to 14) (size 15 to 20)
#    0.000    1.000    2.500    4.875    0.000    2.000 
#    0.000    7.500    0.000    0.000    0.000    0.000 
#    0.000    0.000    0.000    0.000    0.000    0.000 
#
# Total GULP energy -396996.646241 kJ/mol
# GULP energy per Si atom -12406.145195 kJ/mol
# Density = 2.017538 g / cm^3
# Si number density = 20.221404 Si / 1000 Ang^3
#
#
#
# Elastic Constant Matrix: (Units=GPa)
#
#
# Indices 1 2 3 4 5 6 
#
# 1 105.2582 56.3537 37.3644 0.0000 0.0000 0.0000
# 2 56.3537 198.1689 83.8597 0.0000 0.0000 0.0000
# 3 37.3644 83.8597 159.6886 0.0000 0.0000 0.0000
# 4 0.0000 0.0000 0.0000 100.4714 0.0000 0.0000
# 5 0.0000 0.0000 0.0000 0.0000 -49.4260 0.0000
# 6 0.0000 0.0000 0.0000 0.0000 0.0000 37.2972
#
#
#
# Elastic Compliance Matrix: (Units=1/GPa)
#
#
# Indices 1 2 3 4 5 6 
#
# 1 0.011394 -0.002716 -0.001240 0.000000 0.000000 0.000000
# 2 -0.002716 0.007135 -0.003112 0.000000 0.000000 0.000000
# 3 -0.001240 -0.003112 0.008186 0.000000 0.000000 0.000000
# 4 0.000000 0.000000 0.000000 0.009953 0.000000 0.000000
# 5 0.000000 0.000000 0.000000 0.000000 -0.020232 0.000000
# 6 0.000000 0.000000 0.000000 0.000000 0.000000 0.026812
#
#
# Mechanical properties :
#
#
# Convention : Reuss Voigt Hill
#
# Bulk Modulus (GPa) = 79.48084 90.91902 85.19993
# Shear Modulus (GPa) = 81.19941 36.70439 58.95190
#
# Velocity S-wave (km/s) = 6.34369 4.26505 5.40523
# Velocity P-wave (km/s) = 9.64609 8.32548 9.01001
#
# Compressibility (1/GPa) = 0.01258165
#
# Stress axis : x y z
#
# Youngs Moduli (GPa) = 87.76169 140.15086 122.15394
#
# Poissons Ratio (x) = 0.38058 0.15148
# Poissons Ratio (y) = 0.23832 0.38010
# Poissons Ratio (z) = 0.10883 0.43610
#
# Static dielectric constant tensor:
#      x y z
#    x 3.678700 0.000000 0.000000 
#    y 0.000000 4.067250 0.000000 
#    z 0.000000 0.000000 3.791030 
# 
# 
# High freq. dielectric constant tensor:
#      x y z
#    x 1.793340 0.000000 0.000000 
#    y 0.000000 1.813330 0.000000 
#    z 0.000000 0.000000 1.788230 
# 
# From -- ./inp_files/66919.got.cif
#   From: 2010.03.12/outbox.cif.g09.slc.cpg/sg65_34_cif.got.tgz:66919.got - 2010.04.10 20:52:16.
