data_PCOD8274465
_publ_section_title
;
Structure prediction by ZEFSAII (Michael W. Deem and Ramdas Pophale) SiO2 
 PCOD8274465
Probable space group: C M M M
;
_chemical_formula_sum "Si O2"
_cell_formula_units_Z 88
_cell_length_a 16.857540
_cell_length_b 13.768942
_cell_length_c 21.387793
_cell_angle_alpha 90.000000
_cell_angle_beta 90.000000
_cell_angle_gamma 90.000000
_cell_volume 4964.331124
_symmetry_space_group_name_H-M "C M M M"
_symmetry_group_IT_number 65
_symmetry_cell_setting 'orthorhombic'
loop_
_space_group_symop_operation_xyz
x,y,z
-x,-y,z
x,-y,-z
-x,y,-z
-x,-y,-z
x,y,-z
-x,y,z
x,-y,z
1/2+x,1/2+y,z
1/2-x,1/2-y,z
1/2+x,1/2-y,-z
1/2-x,1/2+y,-z
1/2-x,1/2-y,-z
1/2+x,1/2+y,-z
1/2-x,1/2+y,z
1/2+x,1/2-y,z
loop_
_atom_site_type_symbol
_atom_site_label
_atom_site_fract_x
_atom_site_fract_y
_atom_site_fract_z
Si Si1 0.407886 0.889682 0.734342
Si Si2 0.594252 0.389748 0.931461
Si Si3 0.092734 0.210853 0.189673
Si Si4 0.593261 0.393110 0.312121
Si Si5 0.840173 0.280273 0.379524
Si Si6 0.594005 0.112781 0.500000
O O1 0.500000 0.877782 0.713503
O O2 0.391072 0.824639 0.796087
O O3 0.352476 0.854343 0.677934
O O4 0.387269 0.000000 0.751647
O O5 0.500000 0.382402 0.932575
O O6 0.620282 0.500000 0.917035
O O7 0.630739 0.320777 0.876881
O O8 0.626856 0.357551 0.000000
O O9 0.129284 0.147880 0.246862
O O10 0.000000 0.188727 0.186240
O O11 0.500000 0.400384 0.305804
O O12 0.629570 0.500000 0.325431
O O13 0.612792 0.320222 0.368591
O O14 0.750000 0.250000 0.387613
O O15 0.871118 0.333705 0.440335
O O16 0.500000 0.121878 0.500000
O O17 0.620153 0.000000 0.500000
#
# Coordination Sequence:
#
# PCOD8274465 Si02
#       6
#    16  16  16  16  16   8
#     4   9  17  31  51  71  92 123 164 203 235 275
#     4   8  12  17  28  51  85 123 159 195 238 286
#     4   8  13  22  38  60  86 118 158 199 235 276
#     4   9  17  30  48  68  92 124 157 187 227 284
#     4  11  22  35  51  75 102 123 148 190 241 282
#     4  11  23  40  61  77  93 125 166 199 224 262
#
# _framework density 17.726457
#
# number of rings (size 3 to 8) (size 9 to 14) (size 15 to 20)
#    0.000    2.818    0.000    4.636    0.000    5.091 
#    0.000    0.455    0.000    2.182    0.000    3.818 
#    0.000   11.636    0.000   14.545    0.000   14.545 
#
# Total GULP energy -545255.256296 kJ/mol
# GULP energy per Si atom -12392.164916 kJ/mol
# Density = 1.768611 g / cm^3
# Si number density = 17.726457 Si / 1000 Ang^3
#
#
#
# Elastic Constant Matrix: (Units=GPa)
#
#
# Indices 1 2 3 4 5 6 
#
# 1 34.8292 29.4927 28.4884 0.0000 0.0000 0.0000
# 2 29.4927 174.4789 91.7008 0.0000 0.0000 0.0000
# 3 28.4884 91.7008 151.6526 0.0000 0.0000 0.0000
# 4 0.0000 0.0000 0.0000 29.0523 0.0000 0.0000
# 5 0.0000 0.0000 0.0000 0.0000 -17.7263 0.0000
# 6 0.0000 0.0000 0.0000 0.0000 0.0000 10.1901
#
#
#
# Elastic Compliance Matrix: (Units=1/GPa)
#
#
# Indices 1 2 3 4 5 6 
#
# 1 0.035444 -0.003653 -0.004450 0.000000 0.000000 0.000000
# 2 -0.003653 0.008778 -0.004622 0.000000 0.000000 0.000000
# 3 -0.004450 -0.004622 0.010224 0.000000 0.000000 0.000000
# 4 0.000000 0.000000 0.000000 0.034421 0.000000 0.000000
# 5 0.000000 0.000000 0.000000 0.000000 -0.056413 0.000000
# 6 0.000000 0.000000 0.000000 0.000000 0.000000 0.098134
#
#
# Mechanical properties :
#
#
# Convention : Reuss Voigt Hill
#
# Bulk Modulus (GPa) = 34.48438 73.36939 53.92689
# Shear Modulus (GPa) = 30.17477 18.38847 24.28162
#
# Velocity S-wave (km/s) = 4.13030 3.22428 3.70509
# Velocity P-wave (km/s) = 6.49936 7.43915 6.98508
#
# Compressibility (1/GPa) = 0.02899863
#
# Stress axis : x y z
#
# Youngs Moduli (GPa) = 28.21350 113.92522 97.80514
#
# Poissons Ratio (x) = 0.41613 0.43520
# Poissons Ratio (y) = 0.10305 0.45201
# Poissons Ratio (z) = 0.12554 0.52651
#
# Static dielectric constant tensor:
#      x y z
#    x 2.855710 0.000000 0.000000 
#    y 0.000000 3.929140 0.000000 
#    z 0.000000 0.000000 3.591200 
# 
# 
# High freq. dielectric constant tensor:
#      x y z
#    x 1.637330 0.000000 0.000000 
#    y 0.000000 1.693970 0.000000 
#    z 0.000000 0.000000 1.678580 
# 
# From -- ./inp_files/63742.got.cif
#   From: 2010.03.12/outbox.cif.g09.slc.cpg/sg65_32_cif.got.tgz:63742.got - 2010.04.10 20:52:16.
