data_PCOD8274386
_publ_section_title
;
Structure prediction by ZEFSAII (Michael W. Deem and Ramdas Pophale) SiO2 
 PCOD8274386
Probable space group: C M M M
;
_chemical_formula_sum "Si O2"
_cell_formula_units_Z 64
_cell_length_a 18.076993
_cell_length_b 14.193879
_cell_length_c 11.925515
_cell_angle_alpha 90.000000
_cell_angle_beta 90.000000
_cell_angle_gamma 90.000000
_cell_volume 3059.880257
_symmetry_space_group_name_H-M "C M M M"
_symmetry_group_IT_number 65
_symmetry_cell_setting 'orthorhombic'
loop_
_space_group_symop_operation_xyz
x,y,z
-x,-y,z
x,-y,-z
-x,y,-z
-x,-y,-z
x,y,-z
-x,y,z
x,-y,z
1/2+x,1/2+y,z
1/2-x,1/2-y,z
1/2+x,1/2-y,-z
1/2-x,1/2+y,-z
1/2-x,1/2-y,-z
1/2+x,1/2+y,-z
1/2-x,1/2+y,z
1/2+x,1/2-y,z
loop_
_atom_site_type_symbol
_atom_site_label
_atom_site_fract_x
_atom_site_fract_y
_atom_site_fract_z
Si Si1 0.727567 0.857878 0.500000
Si Si2 0.148111 0.601479 0.272077
Si Si3 0.610583 0.395328 0.500000
Si Si4 0.780204 0.145594 0.875017
Si Si5 0.082542 0.198175 0.736343
O O1 0.750000 0.750000 0.500000
O O2 0.679069 0.882738 0.605346
O O3 0.802545 0.916693 0.500000
O O4 0.105464 0.500000 0.267249
O O5 0.217159 0.587875 0.188057
O O6 0.095187 0.689536 0.245480
O O7 0.572888 0.500000 0.500000
O O8 0.587167 0.333412 0.392865
O O9 0.750000 0.250000 0.879889
O O10 0.857914 0.139637 0.808435
O O11 0.792784 0.104979 0.000000
O O12 0.000000 0.176416 0.781093
#
# Coordination Sequence:
#
# PCOD8274386 Si02
#       5
#     8  16   8  16  16
#     4  12  18  35  60  86 115 144 192 245 285 331
#     4  11  21  36  60  87 116 151 191 237 286 340
#     4  12  23  38  59  84 114 149 192 241 288 337
#     4   9  19  37  58  81 110 147 193 239 278 322
#     4  11  23  38  57  86 121 154 189 231 286 351
#
# _framework density 20.915852000000001
#
# number of rings (size 3 to 8) (size 9 to 14) (size 15 to 20)
#    0.000    1.250    5.000    2.250    0.000    2.500 
#    0.000    0.000    0.000    3.000    0.000   10.500 
#    0.000    0.000    0.000    0.000    0.000    0.000 
#
# Total GULP energy -396559.345480 kJ/mol
# GULP energy per Si atom -12392.479546 kJ/mol
# Density = 2.086825 g / cm^3
# Si number density = 20.915852 Si / 1000 Ang^3
#
#
#
# Elastic Constant Matrix: (Units=GPa)
#
#
# Indices 1 2 3 4 5 6 
#
# 1 99.6564 -6.6940 27.2297 0.0000 0.0000 0.0000
# 2 -6.6940 118.5998 8.0886 0.0000 0.0000 0.0000
# 3 27.2297 8.0886 137.3403 0.0000 0.0000 0.0000
# 4 0.0000 0.0000 0.0000 15.7343 0.0000 0.0000
# 5 0.0000 0.0000 0.0000 0.0000 4.2177 0.0000
# 6 0.0000 0.0000 0.0000 0.0000 0.0000 5.7874
#
#
#
# Elastic Compliance Matrix: (Units=1/GPa)
#
#
# Indices 1 2 3 4 5 6 
#
# 1 0.010675 0.000750 -0.002161 0.000000 0.000000 0.000000
# 2 0.000750 0.008518 -0.000650 0.000000 0.000000 0.000000
# 3 -0.002161 -0.000650 0.007748 0.000000 0.000000 0.000000
# 4 0.000000 0.000000 0.000000 0.063556 0.000000 0.000000
# 5 0.000000 0.000000 0.000000 0.000000 0.237097 0.000000
# 6 0.000000 0.000000 0.000000 0.000000 0.000000 0.172789
#
#
# Mechanical properties :
#
#
# Convention : Reuss Voigt Hill
#
# Bulk Modulus (GPa) = 43.82278 45.87168 44.84723
# Shear Modulus (GPa) = 9.76350 26.94603 18.35476
#
# Velocity S-wave (km/s) = 2.16290 3.59319 2.96557
# Velocity P-wave (km/s) = 5.21871 6.26050 5.76319
#
# Compressibility (1/GPa) = 0.02281918
#
# Stress axis : x y z
#
# Youngs Moduli (GPa) = 93.67488 117.39297 129.06771
#
# Poissons Ratio (x) = -0.08803 0.27887
# Poissons Ratio (y) = -0.07025 0.08394
# Poissons Ratio (z) = 0.20240 0.07635
#
# Static dielectric constant tensor:
#      x y z
#    x 3.730790 0.000000 0.000000 
#    y 0.000000 3.319060 0.000000 
#    z 0.000000 0.000000 4.061720 
# 
# 
# High freq. dielectric constant tensor:
#      x y z
#    x 1.796360 0.000000 0.000000 
#    y 0.000000 1.829560 0.000000 
#    z 0.000000 0.000000 1.814350 
# 
# From -- ./inp_files/23928.got.cif
#   From: 2010.03.12/outbox.cif.g09.slc.cpg/sg65_12_cif.got.tgz:23928.got - 2010.04.10 20:52:16.
