data_PCOD8274518
_publ_section_title
;
Structure prediction by ZEFSAII (Michael W. Deem and Ramdas Pophale) SiO2 
 PCOD8274518
Probable space group: C M M M
;
_chemical_formula_sum "Si O2"
_cell_formula_units_Z 72
_cell_length_a 18.792552
_cell_length_b 8.908466
_cell_length_c 23.177115
_cell_angle_alpha 90.000000
_cell_angle_beta 90.000000
_cell_angle_gamma 90.000000
_cell_volume 3880.145962
_symmetry_space_group_name_H-M "C M M M"
_symmetry_group_IT_number 65
_symmetry_cell_setting 'orthorhombic'
loop_
_space_group_symop_operation_xyz
x,y,z
-x,-y,z
x,-y,-z
-x,y,-z
-x,-y,-z
x,y,-z
-x,y,z
x,-y,z
1/2+x,1/2+y,z
1/2-x,1/2-y,z
1/2+x,1/2-y,-z
1/2-x,1/2+y,-z
1/2-x,1/2-y,-z
1/2+x,1/2+y,-z
1/2-x,1/2+y,z
1/2+x,1/2-y,z
loop_
_atom_site_type_symbol
_atom_site_label
_atom_site_fract_x
_atom_site_fract_y
_atom_site_fract_z
Si Si1 0.083093 0.825356 0.706040
Si Si2 0.580630 0.178127 0.500000
Si Si3 0.672588 0.177656 0.608367
Si Si4 0.577962 0.322623 0.164585
Si Si5 0.674654 0.324603 0.063746
O O1 0.133327 0.724344 0.666766
O O2 0.106807 0.785933 0.771435
O O3 0.000000 0.785629 0.696342
O O4 0.096337 0.000000 0.692381
O O5 0.500000 0.244531 0.500000
O O6 0.623337 0.235734 0.555895
O O7 0.576428 0.000000 0.500000
O O8 0.750000 0.250000 0.603402
O O9 0.682098 0.000000 0.607004
O O10 0.500000 0.251046 0.157316
O O11 0.572630 0.500000 0.156970
O O12 0.626126 0.252780 0.113944
O O13 0.684656 0.500000 0.074004
O O14 0.750000 0.250000 0.069487
O O15 0.641697 0.293174 0.000000
#
# Coordination Sequence:
#
# PCOD8274518 Si02
#       5
#    16   8  16  16  16
#     4   9  18  34  54  75 102 134 167 205 251 302
#     4   9  19  36  57  79 102 131 166 205 250 296
#     4  11  22  36  55  78 106 136 168 207 248 293
#     4   8  15  29  49  72  97 125 159 202 247 288
#     4   9  17  29  46  68  94 125 161 200 242 290
#
# _framework density 18.556001999999999
#
# number of rings (size 3 to 8) (size 9 to 14) (size 15 to 20)
#    0.000    2.778    0.000    3.000    0.000    2.667 
#    0.000    7.222    0.000    6.000    0.000    3.111 
#    0.000    0.000    0.000    0.000    0.000    0.000 
#
# Total GULP energy -446240.089575 kJ/mol
# GULP energy per Si atom -12395.558044 kJ/mol
# Density = 1.851377 g / cm^3
# Si number density = 18.556002 Si / 1000 Ang^3
#
#
#
# Elastic Constant Matrix: (Units=GPa)
#
#
# Indices 1 2 3 4 5 6 
#
# 1 122.2203 36.5468 89.5200 0.0000 0.0000 0.0000
# 2 36.5468 38.0516 36.5428 0.0000 0.0000 0.0000
# 3 89.5200 36.5428 164.1441 0.0000 0.0000 0.0000
# 4 0.0000 0.0000 0.0000 19.8230 0.0000 0.0000
# 5 0.0000 0.0000 0.0000 0.0000 33.5474 0.0000
# 6 0.0000 0.0000 0.0000 0.0000 0.0000 15.8322
#
#
#
# Elastic Compliance Matrix: (Units=1/GPa)
#
#
# Indices 1 2 3 4 5 6 
#
# 1 0.015584 -0.008656 -0.006572 0.000000 0.000000 0.000000
# 2 -0.008656 0.038235 -0.003791 0.000000 0.000000 0.000000
# 3 -0.006572 -0.003791 0.010520 0.000000 0.000000 0.000000
# 4 0.000000 0.000000 0.000000 0.050447 0.000000 0.000000
# 5 0.000000 0.000000 0.000000 0.000000 0.029809 0.000000
# 6 0.000000 0.000000 0.000000 0.000000 0.000000 0.063162
#
#
# Mechanical properties :
#
#
# Convention : Reuss Voigt Hill
#
# Bulk Modulus (GPa) = 38.02221 72.18168 55.10195
# Shear Modulus (GPa) = 19.64152 24.62762 22.13457
#
# Velocity S-wave (km/s) = 3.25699 3.64703 3.45752
# Velocity P-wave (km/s) = 5.88889 7.53116 6.76008
#
# Compressibility (1/GPa) = 0.02630041
#
# Stress axis : x y z
#
# Youngs Moduli (GPa) = 64.16807 26.15404 95.05323
#
# Poissons Ratio (x) = 0.22640 0.62469
# Poissons Ratio (y) = 0.55546 0.36036
# Poissons Ratio (z) = 0.42171 0.09915
#
# Static dielectric constant tensor:
#      x y z
#    x 3.555700 0.000000 0.000000 
#    y 0.000000 3.041750 0.000000 
#    z 0.000000 0.000000 3.762970 
# 
# 
# High freq. dielectric constant tensor:
#      x y z
#    x 1.720080 0.000000 0.000000 
#    y 0.000000 1.683820 0.000000 
#    z 0.000000 0.000000 1.738060 
# 
# From -- ./inp_files/64360.got.cif
#   From: 2010.03.12/outbox.cif.g09.slc.cpg/sg65_33_cif.got.tgz:64360.got - 2010.04.10 20:52:16.
