data_PCOD8274992
_publ_section_title
;
Structure prediction by ZEFSAII (Michael W. Deem and Ramdas Pophale) SiO2 
 PCOD8274992
Probable space group: C M M M
;
_chemical_formula_sum "Si O2"
_cell_formula_units_Z 104
_cell_length_a 19.091279
_cell_length_b 26.604966
_cell_length_c 13.726088
_cell_angle_alpha 90.000000
_cell_angle_beta 90.000000
_cell_angle_gamma 90.000000
_cell_volume 6971.793444
_symmetry_space_group_name_H-M "C M M M"
_symmetry_group_IT_number 65
_symmetry_cell_setting 'orthorhombic'
loop_
_space_group_symop_operation_xyz
x,y,z
-x,-y,z
x,-y,-z
-x,y,-z
-x,-y,-z
x,y,-z
-x,y,z
x,-y,z
1/2+x,1/2+y,z
1/2-x,1/2-y,z
1/2+x,1/2-y,-z
1/2-x,1/2+y,-z
1/2-x,1/2-y,-z
1/2+x,1/2+y,-z
1/2-x,1/2+y,z
1/2+x,1/2-y,z
loop_
_atom_site_type_symbol
_atom_site_label
_atom_site_fract_x
_atom_site_fract_y
_atom_site_fract_z
Si Si1 0.500000 0.440106 0.110148
Si Si2 0.784129 0.903875 0.611516
Si Si3 0.353594 0.057417 0.296067
Si Si4 0.222859 0.440711 0.106952
Si Si5 0.421854 0.851366 0.385515
Si Si6 0.360459 0.440235 0.213073
Si Si7 0.785193 0.299018 0.612418
O O1 0.500000 0.500000 0.107288
O O2 0.432238 0.419661 0.167237
O O3 0.500000 0.418979 0.000000
O O4 0.803934 0.915210 0.500000
O O5 0.717458 0.937567 0.641269
O O6 0.850683 0.918014 0.678193
O O7 0.766866 0.845391 0.627450
O O8 0.338062 0.073004 0.183641
O O9 0.413637 0.094123 0.335562
O O10 0.380091 0.000000 0.303517
O O11 0.229523 0.500000 0.098829
O O12 0.297369 0.420044 0.145149
O O13 0.206108 0.417563 0.000000
O O14 0.409727 0.859759 0.500000
O O15 0.500000 0.830695 0.363352
O O16 0.362591 0.812861 0.344422
O O17 0.360765 0.500000 0.219975
O O18 0.796927 0.286178 0.500000
O O19 0.750000 0.250000 0.663816
#
# Coordination Sequence:
#
# PCOD8274992 Si02
#       7
#     8  16  16  16  16  16  16
#     4   9  16  26  39  53  73 103 136 170 209 247
#     4   9  16  25  38  56  79 106 133 165 196 230
#     4   9  16  24  36  56  81 110 138 161 187 227
#     4   8  13  22  36  53  73  98 132 172 204 224
#     4   9  17  27  39  58  83 107 131 164 199 232
#     4   9  16  24  36  55  78 106 135 165 200 239
#     4   8  14  26  44  60  75 101 134 166 202 237
#
# _framework density 14.917252
#
# number of rings (size 3 to 8) (size 9 to 14) (size 15 to 20)
#    0.000    3.308    0.000    3.231    0.000    4.308 
#    0.000    1.154    1.692    1.846    0.000    2.154 
#    0.000   61.538    0.000    0.000    0.000    0.000 
#
# Total GULP energy -644392.707646 kJ/mol
# GULP energy per Si atom -12392.167455 kJ/mol
# Density = 1.488330 g / cm^3
# Si number density = 14.917252 Si / 1000 Ang^3
#
#
#
# Elastic Constant Matrix: (Units=GPa)
#
#
# Indices 1 2 3 4 5 6 
#
# 1 77.9755 28.6487 34.1387 0.0000 0.0000 0.0000
# 2 28.6487 54.8989 17.8663 0.0000 0.0000 0.0000
# 3 34.1387 17.8663 93.0343 0.0000 0.0000 0.0000
# 4 0.0000 0.0000 0.0000 3.0231 0.0000 0.0000
# 5 0.0000 0.0000 0.0000 0.0000 19.0111 0.0000
# 6 0.0000 0.0000 0.0000 0.0000 0.0000 13.6597
#
#
#
# Elastic Compliance Matrix: (Units=1/GPa)
#
#
# Indices 1 2 3 4 5 6 
#
# 1 0.017868 -0.007670 -0.005084 0.000000 0.000000 0.000000
# 2 -0.007670 0.022722 -0.001549 0.000000 0.000000 0.000000
# 3 -0.005084 -0.001549 0.012912 0.000000 0.000000 0.000000
# 4 0.000000 0.000000 0.000000 0.330791 0.000000 0.000000
# 5 0.000000 0.000000 0.000000 0.000000 0.052601 0.000000
# 6 0.000000 0.000000 0.000000 0.000000 0.000000 0.073208
#
#
# Mechanical properties :
#
#
# Convention : Reuss Voigt Hill
#
# Bulk Modulus (GPa) = 40.16662 43.02402 41.59532
# Shear Modulus (GPa) = 9.14067 16.82243 12.98155
#
# Velocity S-wave (km/s) = 2.47808 3.36179 2.95318
# Velocity P-wave (km/s) = 5.93065 6.63123 6.29070
#
# Compressibility (1/GPa) = 0.02489630
#
# Stress axis : x y z
#
# Youngs Moduli (GPa) = 55.96502 44.01029 77.44922
#
# Poissons Ratio (x) = 0.33756 0.39374
# Poissons Ratio (y) = 0.42925 0.11997
# Poissons Ratio (z) = 0.28451 0.06817
#
# Static dielectric constant tensor:
#      x y z
#    x 2.861270 0.000000 0.000000 
#    y 0.000000 2.685100 0.000000 
#    z 0.000000 0.000000 3.077840 
# 
# 
# High freq. dielectric constant tensor:
#      x y z
#    x 1.556270 0.000000 0.000000 
#    y 0.000000 1.531290 0.000000 
#    z 0.000000 0.000000 1.559300 
# 
# From -- ./inp_files/43288.got.cif
#   From: 2010.03.12/outbox.cif.g09.slc.cpg/sg65_22_cif.got.tgz:43288.got - 2010.04.10 20:52:16.
