data_PCOD8274578
_publ_section_title
;
Structure prediction by ZEFSAII (Michael W. Deem and Ramdas Pophale) SiO2 
 PCOD8274578
Probable space group: C M M M
;
_chemical_formula_sum "Si O2"
_cell_formula_units_Z 72
_cell_length_a 8.594154
_cell_length_b 15.284750
_cell_length_c 26.938341
_cell_angle_alpha 90.000000
_cell_angle_beta 90.000000
_cell_angle_gamma 90.000000
_cell_volume 3538.606879
_symmetry_space_group_name_H-M "C M M M"
_symmetry_group_IT_number 65
_symmetry_cell_setting 'orthorhombic'
loop_
_space_group_symop_operation_xyz
x,y,z
-x,-y,z
x,-y,-z
-x,y,-z
-x,-y,-z
x,y,-z
-x,y,z
x,-y,z
1/2+x,1/2+y,z
1/2-x,1/2-y,z
1/2+x,1/2-y,-z
1/2-x,1/2+y,-z
1/2-x,1/2-y,-z
1/2+x,1/2+y,-z
1/2-x,1/2+y,z
1/2+x,1/2-y,z
loop_
_atom_site_type_symbol
_atom_site_label
_atom_site_fract_x
_atom_site_fract_y
_atom_site_fract_z
Si Si1 0.184449 0.659828 0.602759
Si Si2 0.683612 0.348007 0.153872
Si Si3 0.182076 0.345826 0.053642
Si Si4 0.315424 0.000000 0.332101
Si Si5 0.683931 0.399749 0.500000
Si Si6 0.684742 0.000000 0.780573
O O1 0.250000 0.750000 0.624777
O O2 0.248891 0.584653 0.639098
O O3 0.248042 0.647679 0.547677
O O4 0.000000 0.660894 0.601230
O O5 0.500000 0.344323 0.158341
O O6 0.750000 0.250000 0.160409
O O7 0.732214 0.390530 0.100384
O O8 0.750375 0.411405 0.195602
O O9 0.250000 0.250000 0.048818
O O10 0.000000 0.341466 0.065863
O O11 0.209975 0.393870 0.000000
O O12 0.500000 0.000000 0.332795
O O13 0.254827 0.000000 0.275907
O O14 0.738982 0.500000 0.500000
O O15 0.500000 0.390536 0.500000
O O16 0.500000 0.000000 0.784840
#
# Coordination Sequence:
#
# PCOD8274578 Si02
#       6
#    16  16  16   8   8   8
#     4  11  22  40  63  91 123 159 199 240 292 349
#     4  11  22  38  60  88 119 156 199 243 297 358
#     4   9  16  28  50  81 115 152 192 236 290 351
#     4   9  22  42  64  86 115 154 196 245 303 356
#     4  11  22  37  60  92 126 162 202 241 287 341
#     4  11  23  43  65  87 117 152 198 254 307 358
#
# _framework density 20.346990999999999
#
# number of rings (size 3 to 8) (size 9 to 14) (size 15 to 20)
#    0.000    1.667    1.111    5.667    0.000    2.667 
#    0.000    7.222    0.000    3.333    0.000    0.000 
#    0.000    0.000    0.000    0.000    0.000    0.000 
#
# Total GULP energy -446297.695855 kJ/mol
# GULP energy per Si atom -12397.158218 kJ/mol
# Density = 2.030068 g / cm^3
# Si number density = 20.346991 Si / 1000 Ang^3
#
#
#
# Elastic Constant Matrix: (Units=GPa)
#
#
# Indices 1 2 3 4 5 6 
#
# 1 114.7414 42.6789 49.5467 0.0000 0.0000 0.0000
# 2 42.6789 135.5754 77.1950 0.0000 0.0000 0.0000
# 3 49.5467 77.1950 184.2135 0.0000 0.0000 0.0000
# 4 0.0000 0.0000 0.0000 68.8243 0.0000 0.0000
# 5 0.0000 0.0000 0.0000 0.0000 17.1687 0.0000
# 6 0.0000 0.0000 0.0000 0.0000 0.0000 30.4304
#
#
#
# Elastic Compliance Matrix: (Units=1/GPa)
#
#
# Indices 1 2 3 4 5 6 
#
# 1 0.010335 -0.002194 -0.001860 0.000000 0.000000 0.000000
# 2 -0.002194 0.010153 -0.003665 0.000000 0.000000 0.000000
# 3 -0.001860 -0.003665 0.007464 0.000000 0.000000 0.000000
# 4 0.000000 0.000000 0.000000 0.014530 0.000000 0.000000
# 5 0.000000 0.000000 0.000000 0.000000 0.058246 0.000000
# 6 0.000000 0.000000 0.000000 0.000000 0.000000 0.032862
#
#
# Mechanical properties :
#
#
# Convention : Reuss Voigt Hill
#
# Bulk Modulus (GPa) = 79.90733 85.93016 82.91875
# Shear Modulus (GPa) = 32.63729 40.95865 36.79797
#
# Velocity S-wave (km/s) = 4.00939 4.49152 4.25729
# Velocity P-wave (km/s) = 7.79687 8.32000 8.06268
#
# Compressibility (1/GPa) = 0.01251450
#
# Stress axis : x y z
#
# Youngs Moduli (GPa) = 96.76205 98.49058 133.96827
#
# Poissons Ratio (x) = 0.21610 0.24920
# Poissons Ratio (y) = 0.21231 0.49094
# Poissons Ratio (z) = 0.17999 0.36093
#
# Static dielectric constant tensor:
#      x y z
#    x 3.703830 0.000000 0.000000 
#    y 0.000000 3.614460 0.000000 
#    z 0.000000 0.000000 4.185110 
# 
# 
# High freq. dielectric constant tensor:
#      x y z
#    x 1.798420 0.000000 0.000000 
#    y 0.000000 1.787960 0.000000 
#    z 0.000000 0.000000 1.803420 
# 
# From -- ./inp_files/72568.got.cif
#   From: 2010.03.12/outbox.cif.g09.slc.cpg/sg65_37_cif.got.tgz:72568.got - 2010.04.10 20:52:16.
