data_PCOD8274259
_publ_section_title
;
Structure prediction by ZEFSAII (Michael W. Deem and Ramdas Pophale) SiO2 
 PCOD8274259
Probable space group: C M M M
;
_chemical_formula_sum "Si O2"
_cell_formula_units_Z 72
_cell_length_a 14.373887
_cell_length_b 32.743462
_cell_length_c 9.286955
_cell_angle_alpha 90.000000
_cell_angle_beta 90.000000
_cell_angle_gamma 90.000000
_cell_volume 4370.913012
_symmetry_space_group_name_H-M "C M M M"
_symmetry_group_IT_number 65
_symmetry_cell_setting 'orthorhombic'
loop_
_space_group_symop_operation_xyz
x,y,z
-x,-y,z
x,-y,-z
-x,y,-z
-x,-y,-z
x,y,-z
-x,y,z
x,-y,z
1/2+x,1/2+y,z
1/2-x,1/2-y,z
1/2+x,1/2-y,-z
1/2-x,1/2+y,-z
1/2-x,1/2-y,-z
1/2+x,1/2+y,-z
1/2-x,1/2+y,z
1/2+x,1/2-y,z
loop_
_atom_site_type_symbol
_atom_site_label
_atom_site_fract_x
_atom_site_fract_y
_atom_site_fract_z
Si Si1 0.610596 0.500000 0.337427
Si Si2 0.277389 0.342036 0.830253
Si Si3 0.394689 0.182109 0.666458
Si Si4 0.392742 0.722982 0.663986
Si Si5 0.892465 0.078688 0.832502
O O1 0.500000 0.500000 0.333630
O O2 0.649038 0.500000 0.500000
O O3 0.647070 0.540286 0.256366
O O4 0.174592 0.344911 0.762460
O O5 0.330121 0.302453 0.772138
O O6 0.333745 0.382178 0.784391
O O7 0.268745 0.337975 0.000000
O O8 0.379471 0.171186 0.500000
O O9 0.500000 0.171690 0.713140
O O10 0.373477 0.229630 0.693423
O O11 0.365565 0.711935 0.500000
O O12 0.500000 0.712412 0.692751
O O13 0.000000 0.087689 0.795757
O O14 0.879773 0.068581 0.000000
#
# Coordination Sequence:
#
# PCOD8274259 Si02
#       5
#     8  16  16  16  16
#     4   9  17  29  47  71  94 117 150 187 217 254
#     4  11  21  30  45  71  97 121 153 193 234 275
#     4   9  19  35  50  63  85 122 164 200 236 277
#     4   9  18  32  48  65  89 124 161 194 231 276
#     4   9  18  32  47  65  95 130 153 173 215 275
#
# _framework density 16.472531
#
# number of rings (size 3 to 8) (size 9 to 14) (size 15 to 20)
#    0.000    2.556    0.000    3.667    0.000    8.444 
#    0.000    4.444    0.000    0.000    0.000    0.778 
#    0.000    6.222    0.000    0.000    0.000    0.000 
#
# Total GULP energy -446454.843826 kJ/mol
# GULP energy per Si atom -12401.523440 kJ/mol
# Density = 1.643504 g / cm^3
# Si number density = 16.472531 Si / 1000 Ang^3
#
#
#
# Elastic Constant Matrix: (Units=GPa)
#
#
# Indices 1 2 3 4 5 6 
#
# 1 92.8424 59.4878 54.3210 0.0000 0.0000 0.0000
# 2 59.4878 76.9663 52.2877 0.0000 0.0000 0.0000
# 3 54.3210 52.2877 79.8192 0.0000 0.0000 0.0000
# 4 0.0000 0.0000 0.0000 21.1779 0.0000 0.0000
# 5 0.0000 0.0000 0.0000 0.0000 28.4626 0.0000
# 6 0.0000 0.0000 0.0000 0.0000 0.0000 17.4133
#
#
#
# Elastic Compliance Matrix: (Units=1/GPa)
#
#
# Indices 1 2 3 4 5 6 
#
# 1 0.023531 -0.013168 -0.007388 0.000000 0.000000 0.000000
# 2 -0.013168 0.030781 -0.011202 0.000000 0.000000 0.000000
# 3 -0.007388 -0.011202 0.024894 0.000000 0.000000 0.000000
# 4 0.000000 0.000000 0.000000 0.047219 0.000000 0.000000
# 5 0.000000 0.000000 0.000000 0.000000 0.035134 0.000000
# 6 0.000000 0.000000 0.000000 0.000000 0.000000 0.057427
#
#
# Mechanical properties :
#
#
# Convention : Reuss Voigt Hill
#
# Bulk Modulus (GPa) = 63.73591 64.64677 64.19134
# Shear Modulus (GPa) = 17.37727 18.97951 18.17839
#
# Velocity S-wave (km/s) = 3.25148 3.39808 3.32559
# Velocity P-wave (km/s) = 7.27134 7.39772 7.33480
#
# Compressibility (1/GPa) = 0.01568974
#
# Stress axis : x y z
#
# Youngs Moduli (GPa) = 42.49745 32.48784 40.16993
#
# Poissons Ratio (x) = 0.42781 0.29676
# Poissons Ratio (y) = 0.55962 0.44999
# Poissons Ratio (z) = 0.31396 0.36393
#
# Static dielectric constant tensor:
#      x y z
#    x 3.089520 0.000000 0.000000 
#    y 0.000000 3.004390 0.000000 
#    z 0.000000 0.000000 3.091410 
# 
# 
# High freq. dielectric constant tensor:
#      x y z
#    x 1.621650 0.000000 0.000000 
#    y 0.000000 1.615230 0.000000 
#    z 0.000000 0.000000 1.637190 
# 
# From -- ./inp_files/7198.got.cif
#   From: 2010.03.12/outbox.cif.g09.slc.cpg/sg65_4_cif.got.tgz:7198.got - 2010.04.10 20:52:16.
