data_PCOD8274521
_publ_section_title
;
Structure prediction by ZEFSAII (Michael W. Deem and Ramdas Pophale) SiO2 
 PCOD8274521
Probable space group: C M M M
;
_chemical_formula_sum "Si O2"
_cell_formula_units_Z 72
_cell_length_a 7.710540
_cell_length_b 18.196841
_cell_length_c 24.737159
_cell_angle_alpha 90.000000
_cell_angle_beta 90.000000
_cell_angle_gamma 90.000000
_cell_volume 3470.808204
_symmetry_space_group_name_H-M "C M M M"
_symmetry_group_IT_number 65
_symmetry_cell_setting 'orthorhombic'
loop_
_space_group_symop_operation_xyz
x,y,z
-x,-y,z
x,-y,-z
-x,y,-z
-x,-y,-z
x,y,-z
-x,y,z
x,-y,z
1/2+x,1/2+y,z
1/2-x,1/2-y,z
1/2+x,1/2-y,-z
1/2-x,1/2+y,-z
1/2-x,1/2-y,-z
1/2+x,1/2+y,-z
1/2-x,1/2+y,z
1/2+x,1/2-y,z
loop_
_atom_site_type_symbol
_atom_site_label
_atom_site_fract_x
_atom_site_fract_y
_atom_site_fract_z
Si Si1 0.794598 0.418261 0.764383
Si Si2 0.204481 0.335333 0.872627
Si Si3 0.697006 0.166727 0.663722
Si Si4 0.704870 0.418077 0.440020
Si Si5 0.000000 0.084671 0.063830
O O1 0.715353 0.500000 0.771396
O O2 0.741552 0.367333 0.814458
O O3 0.710065 0.382722 0.709794
O O4 0.000000 0.424360 0.760408
O O5 0.250000 0.250000 0.873239
O O6 0.323296 0.376604 0.916215
O O7 0.000000 0.348187 0.885553
O O8 0.500000 0.161804 0.679313
O O9 0.750000 0.250000 0.667605
O O10 0.724780 0.138863 0.603171
O O11 0.769000 0.394508 0.500000
O O12 0.500000 0.417815 0.438254
O O13 0.774290 0.500000 0.426715
O O14 0.000000 0.000000 0.082831
O O15 0.000000 0.091461 0.000000
#
# Coordination Sequence:
#
# PCOD8274521 Si02
#       5
#    16  16  16  16   8
#     4   9  19  36  60  88 121 158 199 250 308 370
#     4  11  22  42  68  98 134 176 216 269 328 383
#     4  11  22  36  55  81 115 152 193 244 297 357
#     4   9  19  37  58  79 107 142 185 239 297 360
#     4  11  26  46  68 100 137 173 224 276 319 384
#
# _framework density 20.744447999999998
#
# number of rings (size 3 to 8) (size 9 to 14) (size 15 to 20)
#    0.000    1.889    1.111    3.333    0.000    4.444 
#    4.000    2.222    0.000    0.000    0.000    0.000 
#    0.000    0.000    0.000    0.000    0.000    0.000 
#
# Total GULP energy -446273.042490 kJ/mol
# GULP energy per Si atom -12396.473402 kJ/mol
# Density = 2.069723 g / cm^3
# Si number density = 20.744448 Si / 1000 Ang^3
#
#
#
# Elastic Constant Matrix: (Units=GPa)
#
#
# Indices 1 2 3 4 5 6 
#
# 1 75.3921 37.5847 36.5955 0.0000 0.0000 0.0000
# 2 37.5847 180.7276 86.1216 0.0000 0.0000 0.0000
# 3 36.5955 86.1216 131.6190 0.0000 0.0000 0.0000
# 4 0.0000 0.0000 0.0000 36.1153 0.0000 0.0000
# 5 0.0000 0.0000 0.0000 0.0000 18.6941 0.0000
# 6 0.0000 0.0000 0.0000 0.0000 0.0000 219.4022
#
#
#
# Elastic Compliance Matrix: (Units=1/GPa)
#
#
# Indices 1 2 3 4 5 6 
#
# 1 0.015693 -0.001721 -0.003237 0.000000 0.000000 0.000000
# 2 -0.001721 0.008229 -0.004906 0.000000 0.000000 0.000000
# 3 -0.003237 -0.004906 0.011708 0.000000 0.000000 0.000000
# 4 0.000000 0.000000 0.000000 0.027689 0.000000 0.000000
# 5 0.000000 0.000000 0.000000 0.000000 0.053493 0.000000
# 6 0.000000 0.000000 0.000000 0.000000 0.000000 0.004558
#
#
# Mechanical properties :
#
#
# Convention : Reuss Voigt Hill
#
# Bulk Modulus (GPa) = 62.88621 78.70470 70.79545
# Shear Modulus (GPa) = 34.15331 70.00478 52.07904
#
# Velocity S-wave (km/s) = 4.06197 5.81546 5.01593
# Velocity P-wave (km/s) = 7.23740 9.11675 8.23089
#
# Compressibility (1/GPa) = 0.01590174
#
# Stress axis : x y z
#
# Youngs Moduli (GPa) = 63.72134 121.52359 85.41303
#
# Poissons Ratio (x) = 0.20914 0.27651
# Poissons Ratio (y) = 0.10966 0.41902
# Poissons Ratio (z) = 0.20629 0.59618
#
# Static dielectric constant tensor:
#      x y z
#    x 3.685970 0.000000 0.000000 
#    y 0.000000 3.879090 0.000000 
#    z 0.000000 0.000000 3.418090 
# 
# 
# High freq. dielectric constant tensor:
#      x y z
#    x 1.801450 0.000000 0.000000 
#    y 0.000000 1.823340 0.000000 
#    z 0.000000 0.000000 1.817620 
# 
# From -- ./inp_files/67073.got.cif
#   From: 2010.03.12/outbox.cif.g09.slc.cpg/sg65_34_cif.got.tgz:67073.got - 2010.04.10 20:52:16.
