data_PCOD8274363
_publ_section_title
;
Structure prediction by ZEFSAII (Michael W. Deem and Ramdas Pophale) SiO2 
 PCOD8274363
Probable space group: C M M M
;
_chemical_formula_sum "Si O2"
_cell_formula_units_Z 88
_cell_length_a 20.011225
_cell_length_b 16.388680
_cell_length_c 13.621202
_cell_angle_alpha 90.000000
_cell_angle_beta 90.000000
_cell_angle_gamma 90.000000
_cell_volume 4467.176212
_symmetry_space_group_name_H-M "C M M M"
_symmetry_group_IT_number 65
_symmetry_cell_setting 'orthorhombic'
loop_
_space_group_symop_operation_xyz
x,y,z
-x,-y,z
x,-y,-z
-x,y,-z
-x,-y,-z
x,y,-z
-x,y,z
x,-y,z
1/2+x,1/2+y,z
1/2-x,1/2-y,z
1/2+x,1/2-y,-z
1/2-x,1/2+y,-z
1/2-x,1/2-y,-z
1/2+x,1/2+y,-z
1/2-x,1/2+y,z
1/2+x,1/2-y,z
loop_
_atom_site_type_symbol
_atom_site_label
_atom_site_fract_x
_atom_site_fract_y
_atom_site_fract_z
Si Si1 0.421012 0.087476 0.500000
Si Si2 0.874265 0.590886 0.186253
Si Si3 0.816714 0.198249 0.000000
Si Si4 0.924869 0.339340 0.000000
Si Si5 0.195089 0.179881 0.612710
Si Si6 0.577788 0.209688 0.660471
Si Si7 0.281656 0.406967 0.185687
O O1 0.500000 0.077989 0.500000
O O2 0.396450 0.135489 0.406133
O O3 0.385080 0.000000 0.500000
O O4 0.887972 0.500000 0.233315
O O5 0.911816 0.595995 0.085024
O O6 0.905549 0.671728 0.235510
O O7 0.796454 0.604981 0.168675
O O8 0.750000 0.250000 0.000000
O O9 0.819726 0.145163 0.101409
O O10 0.879406 0.258405 0.000000
O O11 0.000000 0.305791 0.000000
O O12 0.200494 0.144548 0.500000
O O13 0.250000 0.250000 0.627566
O O14 0.119942 0.211878 0.630029
O O15 0.204248 0.114868 0.699850
O O16 0.500000 0.232219 0.647380
O O17 0.304294 0.500000 0.170622
#
# Coordination Sequence:
#
# PCOD8274363 Si02
#       7
#     8  16   8   8  16  16  16
#     4   9  18  32  49  76 115 153 189 228 281 353
#     4  11  22  37  56  86 126 163 197 237 292 363
#     4  12  21  41  69  89 117 160 204 250 298 363
#     4  12  25  38  59  92 123 158 198 243 299 357
#     4  11  22  39  61  86 120 162 205 257 303 350
#     4  11  21  35  56  84 116 158 200 241 297 358
#     4  11  23  40  64  92 121 159 207 253 305 359
#
# _framework density 19.699245999999999
#
# number of rings (size 3 to 8) (size 9 to 14) (size 15 to 20)
#    0.000    1.000    4.545    3.273    0.000    4.364 
#    0.000    0.000    0.000    2.727    0.000    1.273 
#    0.000    0.000    0.000    0.000    0.000    0.000 
#
# Total GULP energy -545125.729578 kJ/mol
# GULP energy per Si atom -12389.221127 kJ/mol
# Density = 1.965441 g / cm^3
# Si number density = 19.699246 Si / 1000 Ang^3
#
#
#
# Elastic Constant Matrix: (Units=GPa)
#
#
# Indices 1 2 3 4 5 6 
#
# 1 101.2155 34.9170 12.3167 0.0000 0.0000 0.0000
# 2 34.9170 77.2798 25.4515 0.0000 0.0000 0.0000
# 3 12.3167 25.4515 111.3112 0.0000 0.0000 0.0000
# 4 0.0000 0.0000 0.0000 35.7320 0.0000 0.0000
# 5 0.0000 0.0000 0.0000 0.0000 33.2325 0.0000
# 6 0.0000 0.0000 0.0000 0.0000 0.0000 6.7894
#
#
#
# Elastic Compliance Matrix: (Units=1/GPa)
#
#
# Indices 1 2 3 4 5 6 
#
# 1 0.011705 -0.005258 -0.000093 0.000000 0.000000 0.000000
# 2 -0.005258 0.016356 -0.003158 0.000000 0.000000 0.000000
# 3 -0.000093 -0.003158 0.009716 0.000000 0.000000 0.000000
# 4 0.000000 0.000000 0.000000 0.027986 0.000000 0.000000
# 5 0.000000 0.000000 0.000000 0.000000 0.030091 0.000000
# 6 0.000000 0.000000 0.000000 0.000000 0.000000 0.147287
#
#
# Mechanical properties :
#
#
# Convention : Reuss Voigt Hill
#
# Bulk Modulus (GPa) = 48.17148 48.35298 48.26223
# Shear Modulus (GPa) = 18.72103 29.62555 24.17329
#
# Velocity S-wave (km/s) = 3.08611 3.88221 3.50682
# Velocity P-wave (km/s) = 6.09961 6.68538 6.39920
#
# Compressibility (1/GPa) = 0.02075917
#
# Stress axis : x y z
#
# Youngs Moduli (GPa) = 85.43264 61.14054 102.92113
#
# Poissons Ratio (x) = 0.32148 0.00956
# Poissons Ratio (y) = 0.44921 0.32502
# Poissons Ratio (z) = 0.00794 0.19308
#
# Static dielectric constant tensor:
#      x y z
#    x 3.514860 0.000000 0.000000 
#    y 0.000000 3.617920 0.000000 
#    z 0.000000 0.000000 4.033170 
# 
# 
# High freq. dielectric constant tensor:
#      x y z
#    x 1.751690 0.000000 0.000000 
#    y 0.000000 1.748920 0.000000 
#    z 0.000000 0.000000 1.791150 
# 
# From -- ./inp_files/28784.got.cif
#   From: 2010.03.12/outbox.cif.g09.slc.cpg/sg65_15_cif.got.tgz:28784.got - 2010.04.10 20:52:16.
