data_PCOD8274183
_publ_section_title
;
Structure prediction by ZEFSAII (Michael W. Deem and Ramdas Pophale) SiO2 
 PCOD8274183
Probable space group: C M M M
;
_chemical_formula_sum "Si O2"
_cell_formula_units_Z 104
_cell_length_a 32.848622
_cell_length_b 7.964295
_cell_length_c 22.288170
_cell_angle_alpha 90.000000
_cell_angle_beta 90.000000
_cell_angle_gamma 90.000000
_cell_volume 5830.944467
_symmetry_space_group_name_H-M "C M M M"
_symmetry_group_IT_number 65
_symmetry_cell_setting 'orthorhombic'
loop_
_space_group_symop_operation_xyz
x,y,z
-x,-y,z
x,-y,-z
-x,y,-z
-x,-y,-z
x,y,-z
-x,y,z
x,-y,z
1/2+x,1/2+y,z
1/2-x,1/2-y,z
1/2+x,1/2-y,-z
1/2-x,1/2+y,-z
1/2-x,1/2-y,-z
1/2+x,1/2+y,-z
1/2-x,1/2+y,z
1/2+x,1/2-y,z
loop_
_atom_site_type_symbol
_atom_site_label
_atom_site_fract_x
_atom_site_fract_y
_atom_site_fract_z
Si Si1 0.000000 0.700991 0.777780
Si Si2 0.834014 0.199113 0.566385
Si Si3 0.075417 0.804618 0.147565
Si Si4 0.873436 0.193004 0.253810
Si Si5 0.794935 0.692698 0.685642
Si Si6 0.047587 0.500000 0.070680
Si Si7 0.000000 0.694855 0.359808
Si Si8 0.586630 0.696273 0.628749
O O1 0.961526 0.790087 0.806599
O O2 0.000000 0.500000 0.787610
O O3 0.000000 0.753958 0.708602
O O4 0.822107 0.265120 0.500000
O O5 0.803165 0.272660 0.615429
O O6 0.880324 0.259847 0.580089
O O7 0.830595 0.000000 0.569451
O O8 0.114860 0.743153 0.186782
O O9 0.069156 0.671251 0.093770
O O10 0.078703 0.000000 0.124079
O O11 0.826020 0.213923 0.269668
O O12 0.901050 0.279110 0.306578
O O13 0.885056 0.000000 0.252494
O O14 0.800168 0.500000 0.699900
O O15 0.750000 0.750000 0.702725
O O16 0.000000 0.500000 0.090348
O O17 0.052213 0.500000 0.000000
O O18 0.959073 0.760527 0.392039
O O19 0.000000 0.500000 0.366505
O O20 0.591827 0.500000 0.634522
#
# Coordination Sequence:
#
# PCOD8274183 Si02
#       8
#     8  16  16  16  16   8   8  16
#     4  11  19  29  45  72 107 137 178 225 264 320
#     4   9  19  37  56  71  92 126 171 215 253 306
#     4  11  20  33  55  77 104 145 188 228 271 315
#     4   9  19  33  52  77 102 131 169 214 263 318
#     4  11  22  35  54  78 108 137 160 200 259 318
#     4  11  24  38  50  74 116 156 195 239 265 297
#     4  11  21  27  42  68  99 130 163 210 266 318
#     4   9  17  30  47  68  94 123 161 209 264 312
#
# _framework density 17.835875000000001
#
# number of rings (size 3 to 8) (size 9 to 14) (size 15 to 20)
#    0.000    1.923    3.077    2.769    1.077    4.000 
#    0.000    1.154    0.000    2.308    0.000    0.000 
#    0.000    0.615    0.308    0.000    0.000    0.000 
#
# Total GULP energy -644374.656132 kJ/mol
# GULP energy per Si atom -12391.820310 kJ/mol
# Density = 1.779528 g / cm^3
# Si number density = 17.835875 Si / 1000 Ang^3
#
#
#
# Elastic Constant Matrix: (Units=GPa)
#
#
# Indices 1 2 3 4 5 6 
#
# 1 102.3372 1.8315 26.0418 0.0000 0.0000 0.0000
# 2 1.8315 51.2259 26.3846 0.0000 0.0000 0.0000
# 3 26.0418 26.3846 72.4164 0.0000 0.0000 0.0000
# 4 0.0000 0.0000 0.0000 20.8957 0.0000 0.0000
# 5 0.0000 0.0000 0.0000 0.0000 21.1687 0.0000
# 6 0.0000 0.0000 0.0000 0.0000 0.0000 22.5994
#
#
#
# Elastic Compliance Matrix: (Units=1/GPa)
#
#
# Indices 1 2 3 4 5 6 
#
# 1 0.010921 0.002010 -0.004660 0.000000 0.000000 0.000000
# 2 0.002010 0.024401 -0.009613 0.000000 0.000000 0.000000
# 3 -0.004660 -0.009613 0.018987 0.000000 0.000000 0.000000
# 4 0.000000 0.000000 0.000000 0.047857 0.000000 0.000000
# 5 0.000000 0.000000 0.000000 0.000000 0.047240 0.000000
# 6 0.000000 0.000000 0.000000 0.000000 0.000000 0.044249
#
#
# Mechanical properties :
#
#
# Convention : Reuss Voigt Hill
#
# Bulk Modulus (GPa) = 33.57603 37.16617 35.37110
# Shear Modulus (GPa) = 21.91938 24.38086 23.15012
#
# Velocity S-wave (km/s) = 3.50944 3.70125 3.60662
# Velocity P-wave (km/s) = 5.94032 6.25690 6.10066
#
# Compressibility (1/GPa) = 0.02978315
#
# Stress axis : x y z
#
# Youngs Moduli (GPa) = 91.56344 40.98222 52.66717
#
# Poissons Ratio (x) = -0.08235 0.24541
# Poissons Ratio (y) = -0.18400 0.50629
# Poissons Ratio (z) = 0.42665 0.39396
#
# Static dielectric constant tensor:
#      x y z
#    x 3.065660 0.000000 0.000000 
#    y 0.000000 3.265730 0.000000 
#    z 0.000000 0.000000 3.188050 
# 
# 
# High freq. dielectric constant tensor:
#      x y z
#    x 1.679810 0.000000 0.000000 
#    y 0.000000 1.692140 0.000000 
#    z 0.000000 0.000000 1.652950 
# 
# From -- ./inp_files/72209.got.cif
#   From: 2010.03.12/outbox.cif.g09.slc.cpg/sg65_37_cif.got.tgz:72209.got - 2010.04.10 20:52:16.
