data_PCOD8274211
_publ_section_title
;
Structure prediction by ZEFSAII (Michael W. Deem and Ramdas Pophale) SiO2 
 PCOD8274211
Probable space group: C M M M
;
_chemical_formula_sum "Si O2"
_cell_formula_units_Z 88
_cell_length_a 30.222281
_cell_length_b 27.433555
_cell_length_c 7.967941
_cell_angle_alpha 90.000000
_cell_angle_beta 90.000000
_cell_angle_gamma 90.000000
_cell_volume 6606.256600
_symmetry_space_group_name_H-M "C M M M"
_symmetry_group_IT_number 65
_symmetry_cell_setting 'orthorhombic'
loop_
_space_group_symop_operation_xyz
x,y,z
-x,-y,z
x,-y,-z
-x,y,-z
-x,-y,-z
x,y,-z
-x,y,z
x,-y,z
1/2+x,1/2+y,z
1/2-x,1/2-y,z
1/2+x,1/2-y,-z
1/2-x,1/2+y,-z
1/2-x,1/2-y,-z
1/2+x,1/2+y,-z
1/2-x,1/2+y,z
1/2+x,1/2-y,z
loop_
_atom_site_type_symbol
_atom_site_label
_atom_site_fract_x
_atom_site_fract_y
_atom_site_fract_z
Si Si1 0.950345 0.688296 0.305389
Si Si2 0.598425 0.096396 0.189793
Si Si3 0.132242 0.747477 0.312986
Si Si4 0.818521 0.645193 0.316687
Si Si5 0.729707 0.827216 0.000000
Si Si6 0.950482 0.500000 0.302828
Si Si7 0.818816 0.776222 0.000000
O O1 0.946920 0.673911 0.500000
O O2 0.936220 0.640630 0.203369
O O3 0.918594 0.734383 0.267109
O O4 0.000000 0.703361 0.253557
O O5 0.642757 0.105312 0.297187
O O6 0.575407 0.047174 0.244326
O O7 0.614452 0.092398 0.000000
O O8 0.135490 0.771617 0.500000
O O9 0.159664 0.697986 0.312335
O O10 0.151515 0.782864 0.168470
O O11 0.795959 0.636814 0.500000
O O12 0.782532 0.641975 0.167284
O O13 0.782182 0.818456 0.000000
O O14 0.703505 0.776589 0.000000
O O15 0.953878 0.500000 0.500000
O O16 0.000000 0.500000 0.224904
#
# Coordination Sequence:
#
# PCOD8274211 Si02
#       7
#    16  16  16  16   8   8   8
#     4   9  17  28  40  53  69  93 123 149 175 211
#     4  11  20  30  42  56  72  88 115 150 183 221
#     4   8  15  25  36  51  71  93 113 136 169 205
#     4   9  16  28  42  54  70  90 111 136 169 209
#     4   9  16  26  38  57  69  86 110 133 161 209
#     4  11  23  35  43  53  71  95 121 148 185 227
#     4   9  16  24  37  52  74  88 105 134 168 204
#
# _framework density 13.320705
#
# number of rings (size 3 to 8) (size 9 to 14) (size 15 to 20)
#    0.000    2.636    0.909    3.545    3.818    4.000 
#    0.000    3.636    0.000    0.000    0.000    0.000 
#    0.000    0.000    0.000    0.000    0.000    0.000 
#
# Total GULP energy -545350.506904 kJ/mol
# GULP energy per Si atom -12394.329702 kJ/mol
# Density = 1.329039 g / cm^3
# Si number density = 13.320705 Si / 1000 Ang^3
#
#
#
# Elastic Constant Matrix: (Units=GPa)
#
#
# Indices 1 2 3 4 5 6 
#
# 1 83.3049 32.6840 49.0080 0.0000 0.0000 0.0000
# 2 32.6840 22.5021 23.6212 0.0000 0.0000 0.0000
# 3 49.0080 23.6212 107.2197 0.0000 0.0000 0.0000
# 4 0.0000 0.0000 0.0000 13.3514 0.0000 0.0000
# 5 0.0000 0.0000 0.0000 0.0000 19.2263 0.0000
# 6 0.0000 0.0000 0.0000 0.0000 0.0000 17.6081
#
#
#
# Elastic Compliance Matrix: (Units=1/GPa)
#
#
# Indices 1 2 3 4 5 6 
#
# 1 0.030111 -0.038099 -0.005370 0.000000 0.000000 0.000000
# 2 -0.038099 0.106016 -0.005942 0.000000 0.000000 0.000000
# 3 -0.005370 -0.005942 0.013090 0.000000 0.000000 0.000000
# 4 0.000000 0.000000 0.000000 0.074899 0.000000 0.000000
# 5 0.000000 0.000000 0.000000 0.000000 0.052012 0.000000
# 6 0.000000 0.000000 0.000000 0.000000 0.000000 0.056792
#
#
# Mechanical properties :
#
#
# Convention : Reuss Voigt Hill
#
# Bulk Modulus (GPa) = 19.84280 47.07257 33.45768
# Shear Modulus (GPa) = 11.14729 17.21805 14.18267
#
# Velocity S-wave (km/s) = 2.89596 3.59914 3.26653
# Velocity P-wave (km/s) = 5.10986 7.25854 6.27682
#
# Compressibility (1/GPa) = 0.05039612
#
# Stress axis : x y z
#
# Youngs Moduli (GPa) = 33.21061 9.43253 76.39433
#
# Poissons Ratio (x) = 0.35937 0.41021
# Poissons Ratio (y) = 1.26529 0.45392
# Poissons Ratio (z) = 0.17833 0.05605
#
# Static dielectric constant tensor:
#      x y z
#    x 2.733010 0.000000 0.000000 
#    y 0.000000 2.215080 0.000000 
#    z 0.000000 0.000000 2.999140 
# 
# 
# High freq. dielectric constant tensor:
#      x y z
#    x 1.491830 0.000000 0.000000 
#    y 0.000000 1.432480 0.000000 
#    z 0.000000 0.000000 1.530820 
# 
# From -- ./inp_files/19017.got.cif
#   From: 2010.03.12/outbox.cif.g09.slc.cpg/sg65_10_cif.got.tgz:19017.got - 2010.04.10 20:52:16.
