data_PCOD8274383
_publ_section_title
;
Structure prediction by ZEFSAII (Michael W. Deem and Ramdas Pophale) SiO2 
 PCOD8274383
Probable space group: C M M M
;
_chemical_formula_sum "Si O2"
_cell_formula_units_Z 88
_cell_length_a 24.624492
_cell_length_b 14.259061
_cell_length_c 14.126019
_cell_angle_alpha 90.000000
_cell_angle_beta 90.000000
_cell_angle_gamma 90.000000
_cell_volume 4959.957929
_symmetry_space_group_name_H-M "C M M M"
_symmetry_group_IT_number 65
_symmetry_cell_setting 'orthorhombic'
loop_
_space_group_symop_operation_xyz
x,y,z
-x,-y,z
x,-y,-z
-x,y,-z
-x,-y,-z
x,y,-z
-x,y,z
x,-y,z
1/2+x,1/2+y,z
1/2-x,1/2-y,z
1/2+x,1/2-y,-z
1/2-x,1/2+y,-z
1/2-x,1/2-y,-z
1/2+x,1/2+y,-z
1/2-x,1/2+y,z
1/2+x,1/2-y,z
loop_
_atom_site_type_symbol
_atom_site_label
_atom_site_fract_x
_atom_site_fract_y
_atom_site_fract_z
Si Si1 0.936703 0.734522 0.606289
Si Si2 0.646501 0.392743 0.393441
Si Si3 0.696881 0.314150 0.782031
Si Si4 0.393688 0.169985 0.794129
Si Si5 0.341075 0.000000 0.106492
Si Si6 0.000000 0.391603 0.888722
Si Si7 0.785507 0.000000 0.103658
O O1 0.927541 0.694060 0.500000
O O2 0.910490 0.837724 0.615750
O O3 0.908850 0.664052 0.682076
O O4 0.000000 0.745076 0.629622
O O5 0.669365 0.386881 0.500000
O O6 0.635512 0.500000 0.363118
O O7 0.692453 0.345136 0.327687
O O8 0.750000 0.250000 0.796605
O O9 0.641841 0.262156 0.814412
O O10 0.696863 0.406549 0.844185
O O11 0.448548 0.167753 0.854426
O O12 0.356512 0.085926 0.827798
O O13 0.278195 0.000000 0.091069
O O14 0.368877 0.000000 0.000000
O O15 0.000000 0.500000 0.849494
O O16 0.000000 0.394637 0.000000
O O17 0.812783 0.000000 0.000000
#
# Coordination Sequence:
#
# PCOD8274383 Si02
#       7
#    16  16  16  16   8   8   8
#     4   9  18  33  53  80 113 150 189 227 273 335
#     4   9  18  33  56  82 109 142 184 231 281 336
#     4  11  22  38  59  83 115 150 185 233 290 340
#     4  11  21  36  58  84 115 150 186 234 287 337
#     4  11  22  37  59  83 109 144 197 244 278 335
#     4  11  22  36  57  84 114 149 193 240 284 332
#     4  11  24  40  58  84 113 148 196 241 285 334
#
# _framework density 17.742086
#
# number of rings (size 3 to 8) (size 9 to 14) (size 15 to 20)
#    0.000    1.727    4.545    0.545    0.000    2.545 
#    0.000    2.273    0.000    3.273    0.000    1.273 
#    0.000    0.000    0.000    0.000    0.000    0.000 
#
# Total GULP energy -545325.348287 kJ/mol
# GULP energy per Si atom -12393.757916 kJ/mol
# Density = 1.770170 g / cm^3
# Si number density = 17.742086 Si / 1000 Ang^3
#
#
#
# Elastic Constant Matrix: (Units=GPa)
#
#
# Indices 1 2 3 4 5 6 
#
# 1 92.1270 47.0515 51.1192 0.0000 0.0000 0.0000
# 2 47.0515 116.4507 76.7917 0.0000 0.0000 0.0000
# 3 51.1192 76.7917 121.2809 0.0000 0.0000 0.0000
# 4 0.0000 0.0000 0.0000 26.9611 0.0000 0.0000
# 5 0.0000 0.0000 0.0000 0.0000 26.1182 0.0000
# 6 0.0000 0.0000 0.0000 0.0000 0.0000 25.7405
#
#
#
# Elastic Compliance Matrix: (Units=1/GPa)
#
#
# Indices 1 2 3 4 5 6 
#
# 1 0.014836 -0.003212 -0.004220 0.000000 0.000000 0.000000
# 2 -0.003212 0.015438 -0.008421 0.000000 0.000000 0.000000
# 3 -0.004220 -0.008421 0.015356 0.000000 0.000000 0.000000
# 4 0.000000 0.000000 0.000000 0.037090 0.000000 0.000000
# 5 0.000000 0.000000 0.000000 0.000000 0.038287 0.000000
# 6 0.000000 0.000000 0.000000 0.000000 0.000000 0.038849
#
#
# Mechanical properties :
#
#
# Convention : Reuss Voigt Hill
#
# Bulk Modulus (GPa) = 71.81416 75.53148 73.67282
# Shear Modulus (GPa) = 25.48342 26.09038 25.78690
#
# Velocity S-wave (km/s) = 3.79400 3.83892 3.81652
# Velocity P-wave (km/s) = 7.73028 7.89393 7.81253
#
# Compressibility (1/GPa) = 0.01392483
#
# Stress axis : x y z
#
# Youngs Moduli (GPa) = 67.40153 64.77323 65.12065
#
# Poissons Ratio (x) = 0.20805 0.27479
# Poissons Ratio (y) = 0.21649 0.54841
# Poissons Ratio (z) = 0.28442 0.54548
#
# Static dielectric constant tensor:
#      x y z
#    x 3.322020 0.000000 0.000000 
#    y 0.000000 3.351900 0.000000 
#    z 0.000000 0.000000 3.576390 
# 
# 
# High freq. dielectric constant tensor:
#      x y z
#    x 1.684800 0.000000 0.000000 
#    y 0.000000 1.679780 0.000000 
#    z 0.000000 0.000000 1.697930 
# 
# From -- ./inp_files/32248.got.cif
#   From: 2010.03.12/outbox.cif.g09.slc.cpg/sg65_17_cif.got.tgz:32248.got - 2010.04.10 20:52:16.
