data_PCOD8274250
_publ_section_title
;
Structure prediction by ZEFSAII (Michael W. Deem and Ramdas Pophale) SiO2 
 PCOD8274250
Probable space group: C M M M
;
_chemical_formula_sum "Si O2"
_cell_formula_units_Z 88
_cell_length_a 17.369495
_cell_length_b 17.825493
_cell_length_c 14.475174
_cell_angle_alpha 90.000000
_cell_angle_beta 90.000000
_cell_angle_gamma 90.000000
_cell_volume 4481.800646
_symmetry_space_group_name_H-M "C M M M"
_symmetry_group_IT_number 65
_symmetry_cell_setting 'orthorhombic'
loop_
_space_group_symop_operation_xyz
x,y,z
-x,-y,z
x,-y,-z
-x,y,-z
-x,-y,-z
x,y,-z
-x,y,z
x,-y,z
1/2+x,1/2+y,z
1/2-x,1/2-y,z
1/2+x,1/2-y,-z
1/2-x,1/2+y,-z
1/2-x,1/2-y,-z
1/2+x,1/2+y,-z
1/2-x,1/2+y,z
1/2+x,1/2-y,z
loop_
_atom_site_type_symbol
_atom_site_label
_atom_site_fract_x
_atom_site_fract_y
_atom_site_fract_z
Si Si1 0.713796 0.912200 0.892008
Si Si2 0.000000 0.917247 0.891367
Si Si3 0.589540 0.826636 0.789889
Si Si4 0.174198 0.845729 0.599752
Si Si5 0.846992 0.330986 0.400495
Si Si6 0.859359 0.158227 0.202610
O O1 0.629382 0.886267 0.858136
O O2 0.776551 0.864463 0.836313
O O3 0.724991 0.000000 0.871635
O O4 0.722159 0.894897 0.000000
O O5 0.924100 0.875545 0.861013
O O6 0.000000 0.000000 0.848300
O O7 0.000000 0.920659 0.000000
O O8 0.500000 0.819821 0.816198
O O9 0.597656 0.855001 0.683642
O O10 0.633344 0.747769 0.800825
O O11 0.143595 0.878386 0.500000
O O12 0.164735 0.757330 0.597242
O O13 0.263331 0.868744 0.612282
O O14 0.129824 0.873718 0.691948
O O15 0.882362 0.356568 0.500000
#
# Coordination Sequence:
#
# PCOD8274250 Si02
#       6
#    16   8  16  16  16  16
#     4  11  25  43  62  82 110 157 206 245 294 356
#     4  11  24  40  59  85 120 158 195 244 303 357
#     4  11  22  37  59  93 124 150 191 243 297 347
#     4   8  14  27  54  86 115 148 188 235 285 340
#     4   8  14  28  52  84 118 150 186 231 283 340
#     4  11  20  39  63  90 118 151 197 247 293 344
#
# _framework density 19.634965999999999
#
# number of rings (size 3 to 8) (size 9 to 14) (size 15 to 20)
#    0.000    2.091    2.727    2.727    0.000    4.727 
#    0.000    1.364    0.000    4.364    0.000    1.273 
#    0.000    0.000    0.000    0.000    0.000    0.000 
#
# Total GULP energy -545242.566126 kJ/mol
# GULP energy per Si atom -12391.876503 kJ/mol
# Density = 1.959028 g / cm^3
# Si number density = 19.634966 Si / 1000 Ang^3
#
#
#
# Elastic Constant Matrix: (Units=GPa)
#
#
# Indices 1 2 3 4 5 6 
#
# 1 85.7736 20.0678 35.8118 0.0000 0.0000 0.0000
# 2 20.0678 38.6281 31.3253 0.0000 0.0000 0.0000
# 3 35.8118 31.3253 124.3938 0.0000 0.0000 0.0000
# 4 0.0000 0.0000 0.0000 -5.9168 0.0000 0.0000
# 5 0.0000 0.0000 0.0000 0.0000 33.4509 0.0000
# 6 0.0000 0.0000 0.0000 0.0000 0.0000 18.6496
#
#
#
# Elastic Compliance Matrix: (Units=1/GPa)
#
#
# Indices 1 2 3 4 5 6 
#
# 1 0.013988 -0.005028 -0.002761 0.000000 0.000000 0.000000
# 2 -0.005028 0.034339 -0.007200 0.000000 0.000000 0.000000
# 3 -0.002761 -0.007200 0.010647 0.000000 0.000000 0.000000
# 4 0.000000 0.000000 0.000000 -0.169009 0.000000 0.000000
# 5 0.000000 0.000000 0.000000 0.000000 0.029895 0.000000
# 6 0.000000 0.000000 0.000000 0.000000 0.000000 0.053620
#
#
# Mechanical properties :
#
#
# Convention : Reuss Voigt Hill
#
# Bulk Modulus (GPa) = 34.48733 47.02280 40.75506
# Shear Modulus (GPa) = 381.05786 20.00943 200.53364
#
# Velocity S-wave (km/s) = 13.94605 3.19575 10.11695
# Velocity P-wave (km/s) = 16.64108 6.13332 12.54080
#
# Compressibility (1/GPa) = 0.02899616
#
# Stress axis : x y z
#
# Youngs Moduli (GPa) = 71.49189 29.12177 93.92444
#
# Poissons Ratio (x) = 0.14642 0.25930
# Poissons Ratio (y) = 0.35945 0.67623
# Poissons Ratio (z) = 0.19737 0.20967
#
# Static dielectric constant tensor:
#      x y z
#    x 3.353880 0.000000 0.000000 
#    y 0.000000 3.231220 0.000000 
#    z 0.000000 0.000000 4.243650 
# 
# 
# High freq. dielectric constant tensor:
#      x y z
#    x 1.747180 0.000000 0.000000 
#    y 0.000000 1.721360 0.000000 
#    z 0.000000 0.000000 1.791800 
# 
# From -- ./inp_files/42532.got.cif
#   From: 2010.03.12/outbox.cif.g09.slc.cpg/sg65_22_cif.got.tgz:42532.got - 2010.04.10 20:52:16.
