data_PCOD8274153
_publ_section_title
;
Structure prediction by ZEFSAII (Michael W. Deem and Ramdas Pophale) SiO2 
 PCOD8274153
Probable space group: C M M M
;
_chemical_formula_sum "Si O2"
_cell_formula_units_Z 72
_cell_length_a 23.099929
_cell_length_b 18.499172
_cell_length_c 12.716515
_cell_angle_alpha 90.000000
_cell_angle_beta 90.000000
_cell_angle_gamma 90.000000
_cell_volume 5434.142757
_symmetry_space_group_name_H-M "C M M M"
_symmetry_group_IT_number 65
_symmetry_cell_setting 'orthorhombic'
loop_
_space_group_symop_operation_xyz
x,y,z
-x,-y,z
x,-y,-z
-x,y,-z
-x,-y,-z
x,y,-z
-x,y,z
x,-y,z
1/2+x,1/2+y,z
1/2-x,1/2-y,z
1/2+x,1/2-y,-z
1/2-x,1/2+y,-z
1/2-x,1/2-y,-z
1/2+x,1/2+y,-z
1/2-x,1/2+y,z
1/2+x,1/2-y,z
loop_
_atom_site_type_symbol
_atom_site_label
_atom_site_fract_x
_atom_site_fract_y
_atom_site_fract_z
Si Si1 0.068594 0.417096 0.500000
Si Si2 0.066402 0.583223 0.120285
Si Si3 0.134644 0.353987 0.694993
Si Si4 0.686429 0.717232 0.383959
Si Si5 0.751698 0.081537 0.376293
O O1 0.090341 0.500000 0.500000
O O2 0.091117 0.377720 0.603809
O O3 0.000000 0.412952 0.500000
O O4 0.074140 0.500000 0.153858
O O5 0.106767 0.632822 0.191838
O O6 0.000000 0.606556 0.135686
O O7 0.085527 0.594595 0.000000
O O8 0.146472 0.267458 0.689453
O O9 0.193784 0.399299 0.686966
O O10 0.658101 0.716972 0.500000
O O11 0.750000 0.750000 0.390723
O O12 0.695024 0.634598 0.342493
O O13 0.737960 0.092489 0.500000
O O14 0.770848 0.000000 0.350252
#
# Coordination Sequence:
#
# PCOD8274153 Si02
#       5
#     8  16  16  16  16
#     4  11  20  24  31  54  81  99 118 149 188 224
#     4   9  18  30  40  51  71 102 137 163 180 209
#     4  11  16  25  39  54  77 103 125 153 189 223
#     4   8  14  24  35  53  78 102 123 150 185 222
#     4   9  15  23  38  58  79 102 129 153 178 221
#
# _framework density 13.249559
#
# number of rings (size 3 to 8) (size 9 to 14) (size 15 to 20)
#    0.000    2.556    2.222    4.667    0.000    1.778 
#    0.000    0.000    0.000    6.000    0.000    0.000 
#    0.000    4.444    0.000    2.444    0.000    0.000 
#
# Total GULP energy -446197.176792 kJ/mol
# GULP energy per Si atom -12394.366022 kJ/mol
# Density = 1.321940 g / cm^3
# Si number density = 13.249559 Si / 1000 Ang^3
#
#
#
# Elastic Constant Matrix: (Units=GPa)
#
#
# Indices 1 2 3 4 5 6 
#
# 1 46.6995 42.4581 33.2953 0.0000 0.0000 0.0000
# 2 42.4581 112.2661 35.8528 0.0000 0.0000 0.0000
# 3 33.2953 35.8528 63.9337 0.0000 0.0000 0.0000
# 4 0.0000 0.0000 0.0000 15.7759 0.0000 0.0000
# 5 0.0000 0.0000 0.0000 0.0000 20.9588 0.0000
# 6 0.0000 0.0000 0.0000 0.0000 0.0000 23.2072
#
#
#
# Elastic Compliance Matrix: (Units=1/GPa)
#
#
# Indices 1 2 3 4 5 6 
#
# 1 0.043065 -0.011115 -0.016194 0.000000 0.000000 0.000000
# 2 -0.011115 0.013719 -0.001905 0.000000 0.000000 0.000000
# 3 -0.016194 -0.001905 0.025143 0.000000 0.000000 0.000000
# 4 0.000000 0.000000 0.000000 0.063388 0.000000 0.000000
# 5 0.000000 0.000000 0.000000 0.000000 0.047713 0.000000
# 6 0.000000 0.000000 0.000000 0.000000 0.000000 0.043090
#
#
# Mechanical properties :
#
#
# Convention : Reuss Voigt Hill
#
# Bulk Modulus (GPa) = 42.55534 49.56796 46.06165
# Shear Modulus (GPa) = 16.53549 19.40793 17.97171
#
# Velocity S-wave (km/s) = 3.53654 3.83142 3.68693
# Velocity P-wave (km/s) = 6.99029 7.55416 7.27769
#
# Compressibility (1/GPa) = 0.02349881
#
# Stress axis : x y z
#
# Youngs Moduli (GPa) = 23.22065 72.88920 39.77234
#
# Poissons Ratio (x) = 0.81017 0.64408
# Poissons Ratio (y) = 0.25810 0.07577
# Poissons Ratio (z) = 0.37604 0.13886
#
# Static dielectric constant tensor:
#      x y z
#    x 2.485250 0.000000 0.000000 
#    y 0.000000 2.972020 0.000000 
#    z 0.000000 0.000000 2.451210 
# 
# 
# High freq. dielectric constant tensor:
#      x y z
#    x 1.477910 0.000000 0.000000 
#    y 0.000000 1.500060 0.000000 
#    z 0.000000 0.000000 1.478890 
# 
# From -- ./inp_files/26548.got.cif
#   From: 2010.03.12/outbox.cif.g09.slc.cpg/sg65_14_cif.got.tgz:26548.got - 2010.04.10 20:52:16.
