data_PCOD8274101
_publ_section_title
;
Structure prediction by ZEFSAII (Michael W. Deem and Ramdas Pophale) SiO2 
 PCOD8274101
Probable space group: C M M M
;
_chemical_formula_sum "Si O2"
_cell_formula_units_Z 96
_cell_length_a 18.865618
_cell_length_b 15.048597
_cell_length_c 16.916067
_cell_angle_alpha 90.000000
_cell_angle_beta 90.000000
_cell_angle_gamma 90.000000
_cell_volume 4802.489732
_symmetry_space_group_name_H-M "C M M M"
_symmetry_group_IT_number 65
_symmetry_cell_setting 'orthorhombic'
loop_
_space_group_symop_operation_xyz
x,y,z
-x,-y,z
x,-y,-z
-x,y,-z
-x,-y,-z
x,y,-z
-x,y,z
x,-y,z
1/2+x,1/2+y,z
1/2-x,1/2-y,z
1/2+x,1/2-y,-z
1/2-x,1/2+y,-z
1/2-x,1/2-y,-z
1/2+x,1/2+y,-z
1/2-x,1/2+y,z
1/2+x,1/2-y,z
loop_
_atom_site_type_symbol
_atom_site_label
_atom_site_fract_x
_atom_site_fract_y
_atom_site_fract_z
Si Si1 0.322145 0.000000 0.405943
Si Si2 0.312660 0.403126 0.092634
Si Si3 0.161256 0.000000 0.405067
Si Si4 0.081462 0.168866 0.659512
Si Si5 0.582422 0.733518 0.165517
Si Si6 0.346432 0.896684 0.907484
Si Si7 0.922276 0.649997 0.409092
O O1 0.242112 0.000000 0.376256
O O2 0.363072 0.913927 0.371017
O O3 0.320532 0.000000 0.500000
O O4 0.333044 0.500000 0.129342
O O5 0.371631 0.331211 0.111567
O O6 0.233890 0.375213 0.120883
O O7 0.307868 0.413928 0.000000
O O8 0.128028 0.914045 0.365074
O O9 0.150656 0.000000 0.500000
O O10 0.100761 0.208348 0.744805
O O11 0.099801 0.247492 0.598512
O O12 0.000000 0.138779 0.654583
O O13 0.500000 0.718281 0.146756
O O14 0.602292 0.835357 0.145742
O O15 0.364952 0.000000 0.891783
O O16 0.357403 0.873786 0.000000
O O17 0.928794 0.624510 0.500000
O O18 0.000000 0.635318 0.368453
#
# Coordination Sequence:
#
# PCOD8274101 Si02
#       7
#     8  16   8  16  16  16  16
#     4   9  19  35  57  89 117 138 177 237 292 334
#     4   9  19  37  60  84 111 150 198 240 279 337
#     4  11  23  41  63  85 114 151 197 250 294 340
#     4  10  23  40  56  81 113 151 195 239 290 346
#     4  11  23  37  54  83 123 154 184 240 298 341
#     4   9  19  39  64  87 114 153 200 242 278 335
#     4   9  17  35  61  84 111 149 190 229 278 346
#
# _framework density 19.989632
#
# number of rings (size 3 to 8) (size 9 to 14) (size 15 to 20)
#    0.000    2.333    0.000    3.000    1.167    6.333 
#    7.500    4.167    0.000    0.000    0.000    0.000 
#    0.000    0.000    0.000    0.000    0.000    0.000 
#
# Total GULP energy -595017.379348 kJ/mol
# GULP energy per Si atom -12396.195403 kJ/mol
# Density = 1.994413 g / cm^3
# Si number density = 19.989632 Si / 1000 Ang^3
#
#
#
# Elastic Constant Matrix: (Units=GPa)
#
#
# Indices 1 2 3 4 5 6 
#
# 1 131.7817 90.6838 37.7319 0.0000 0.0000 0.0000
# 2 90.6838 152.2401 37.8575 0.0000 0.0000 0.0000
# 3 37.7319 37.8575 47.5018 0.0000 0.0000 0.0000
# 4 0.0000 0.0000 0.0000 28.1277 0.0000 0.0000
# 5 0.0000 0.0000 0.0000 0.0000 22.3272 0.0000
# 6 0.0000 0.0000 0.0000 0.0000 0.0000 38.9915
#
#
#
# Elastic Compliance Matrix: (Units=1/GPa)
#
#
# Indices 1 2 3 4 5 6 
#
# 1 0.013944 -0.006924 -0.005558 0.000000 0.000000 0.000000
# 2 -0.006924 0.011630 -0.003769 0.000000 0.000000 0.000000
# 3 -0.005558 -0.003769 0.028471 0.000000 0.000000 0.000000
# 4 0.000000 0.000000 0.000000 0.035552 0.000000 0.000000
# 5 0.000000 0.000000 0.000000 0.000000 0.044788 0.000000
# 6 0.000000 0.000000 0.000000 0.000000 0.000000 0.025647
#
#
# Mechanical properties :
#
#
# Convention : Reuss Voigt Hill
#
# Bulk Modulus (GPa) = 46.41911 73.78555 60.10233
# Shear Modulus (GPa) = 25.03558 28.90595 26.97077
#
# Velocity S-wave (km/s) = 3.54281 3.80682 3.67718
# Velocity P-wave (km/s) = 6.32513 7.50430 6.93981
#
# Compressibility (1/GPa) = 0.02154285
#
# Stress axis : x y z
#
# Youngs Moduli (GPa) = 71.71336 85.98316 35.12398
#
# Poissons Ratio (x) = 0.59535 0.19522
# Poissons Ratio (y) = 0.49654 0.13238
# Poissons Ratio (z) = 0.39859 0.32407
#
# Static dielectric constant tensor:
#      x y z
#    x 3.836420 0.000000 0.000000 
#    y 0.000000 4.235120 0.000000 
#    z 0.000000 0.000000 3.397420 
# 
# 
# High freq. dielectric constant tensor:
#      x y z
#    x 1.780550 0.000000 0.000000 
#    y 0.000000 1.793840 0.000000 
#    z 0.000000 0.000000 1.757000 
# 
# From -- ./inp_files/44160.got.cif
#   From: 2010.03.12/outbox.cif.g09.slc.cpg/sg65_23_cif.got.tgz:44160.got - 2010.04.10 20:52:16.
