data_PCOD8274246
_publ_section_title
;
Structure prediction by ZEFSAII (Michael W. Deem and Ramdas Pophale) SiO2 
 PCOD8274246
Probable space group: C M M M
;
_chemical_formula_sum "Si O2"
_cell_formula_units_Z 88
_cell_length_a 17.018529
_cell_length_b 18.423720
_cell_length_c 14.211509
_cell_angle_alpha 90.000000
_cell_angle_beta 90.000000
_cell_angle_gamma 90.000000
_cell_volume 4455.942091
_symmetry_space_group_name_H-M "C M M M"
_symmetry_group_IT_number 65
_symmetry_cell_setting 'orthorhombic'
loop_
_space_group_symop_operation_xyz
x,y,z
-x,-y,z
x,-y,-z
-x,y,-z
-x,-y,-z
x,y,-z
-x,y,z
x,-y,z
1/2+x,1/2+y,z
1/2-x,1/2-y,z
1/2+x,1/2-y,-z
1/2-x,1/2+y,-z
1/2-x,1/2-y,-z
1/2+x,1/2+y,-z
1/2-x,1/2+y,z
1/2+x,1/2-y,z
loop_
_atom_site_type_symbol
_atom_site_label
_atom_site_fract_x
_atom_site_fract_y
_atom_site_fract_z
Si Si1 0.860235 0.639287 0.215112
Si Si2 0.092135 0.870352 0.391268
Si Si3 0.907530 0.704594 0.397649
Si Si4 0.839069 0.222435 0.894633
Si Si5 0.184582 0.917308 0.214721
Si Si6 0.500000 0.919171 0.101667
O O1 0.871170 0.647121 0.326406
O O2 0.880056 0.718285 0.170889
O O3 0.775665 0.603442 0.205445
O O4 0.923154 0.589327 0.165212
O O5 0.108139 0.893538 0.500000
O O6 0.116762 0.787069 0.375394
O O7 0.147926 0.914824 0.319918
O O8 0.000000 0.883732 0.367771
O O9 0.874747 0.682672 0.500000
O O10 0.000000 0.698751 0.395584
O O11 0.750000 0.250000 0.896376
O O12 0.856554 0.142096 0.852875
O O13 0.873806 0.222759 0.000000
O O14 0.173415 0.000000 0.177594
O O15 0.500000 0.000000 0.068072
O O16 0.500000 0.875364 0.000000
#
# Coordination Sequence:
#
# PCOD8274246 Si02
#       6
#    16  16  16  16  16   8
#     4  11  20  37  60  87 117 152 196 242 286 344
#     4   9  19  37  60  86 115 149 194 245 295 350
#     4   9  17  32  58  88 112 144 193 241 287 343
#     4   9  19  36  57  80 107 145 194 241 286 342
#     4  11  23  36  55  85 119 154 192 240 297 351
#     4  11  24  40  61  91 124 158 196 239 291 345
#
# _framework density 19.748911
#
# number of rings (size 3 to 8) (size 9 to 14) (size 15 to 20)
#    0.000    2.091    2.727    2.182    0.000    2.545 
#    0.000    2.727    0.000    2.182    0.000    1.273 
#    0.000    0.000    0.000    0.000    0.000    0.000 
#
# Total GULP energy -545105.935825 kJ/mol
# GULP energy per Si atom -12388.771269 kJ/mol
# Density = 1.970396 g / cm^3
# Si number density = 19.748911 Si / 1000 Ang^3
#
#
#
# Elastic Constant Matrix: (Units=GPa)
#
#
# Indices 1 2 3 4 5 6 
#
# 1 59.6769 11.6553 27.0185 0.0000 0.0000 0.0000
# 2 11.6553 102.9397 41.7299 0.0000 0.0000 0.0000
# 3 27.0185 41.7299 118.9164 0.0000 0.0000 0.0000
# 4 0.0000 0.0000 0.0000 22.2672 0.0000 0.0000
# 5 0.0000 0.0000 0.0000 0.0000 20.5519 0.0000
# 6 0.0000 0.0000 0.0000 0.0000 0.0000 23.8607
#
#
#
# Elastic Compliance Matrix: (Units=1/GPa)
#
#
# Indices 1 2 3 4 5 6 
#
# 1 0.018697 -0.000460 -0.004086 0.000000 0.000000 0.000000
# 2 -0.000460 0.011337 -0.003874 0.000000 0.000000 0.000000
# 3 -0.004086 -0.003874 0.010697 0.000000 0.000000 0.000000
# 4 0.000000 0.000000 0.000000 0.044909 0.000000 0.000000
# 5 0.000000 0.000000 0.000000 0.000000 0.048657 0.000000
# 6 0.000000 0.000000 0.000000 0.000000 0.000000 0.041910
#
#
# Mechanical properties :
#
#
# Convention : Reuss Voigt Hill
#
# Bulk Modulus (GPa) = 41.85892 49.14893 45.50393
# Shear Modulus (GPa) = 24.87419 26.74459 25.80939
#
# Velocity S-wave (km/s) = 3.55282 3.68398 3.61900
# Velocity P-wave (km/s) = 6.17022 6.56022 6.36821
#
# Compressibility (1/GPa) = 0.02388977
#
# Stress axis : x y z
#
# Youngs Moduli (GPa) = 53.48467 88.20767 93.48332
#
# Poissons Ratio (x) = 0.04061 0.38202
# Poissons Ratio (y) = 0.02462 0.36213
# Poissons Ratio (z) = 0.21857 0.34169
#
# Static dielectric constant tensor:
#      x y z
#    x 3.298760 0.000000 0.000000 
#    y 0.000000 3.538350 0.000000 
#    z 0.000000 0.000000 3.672280 
# 
# 
# High freq. dielectric constant tensor:
#      x y z
#    x 1.749140 0.000000 0.000000 
#    y 0.000000 1.753870 0.000000 
#    z 0.000000 0.000000 1.782320 
# 
# From -- ./inp_files/42523.got.cif
#   From: 2010.03.12/outbox.cif.g09.slc.cpg/sg65_22_cif.got.tgz:42523.got - 2010.04.10 20:52:16.
