data_PCOD8274125
_publ_section_title
;
Structure prediction by ZEFSAII (Michael W. Deem and Ramdas Pophale) SiO2 
 PCOD8274125
Probable space group: C M M M
;
_chemical_formula_sum "Si O2"
_cell_formula_units_Z 96
_cell_length_a 28.646892
_cell_length_b 18.477155
_cell_length_c 8.923587
_cell_angle_alpha 90.000000
_cell_angle_beta 90.000000
_cell_angle_gamma 90.000000
_cell_volume 4723.371175
_symmetry_space_group_name_H-M "C M M M"
_symmetry_group_IT_number 65
_symmetry_cell_setting 'orthorhombic'
loop_
_space_group_symop_operation_xyz
x,y,z
-x,-y,z
x,-y,-z
-x,y,-z
-x,-y,-z
x,y,-z
-x,y,z
x,-y,z
1/2+x,1/2+y,z
1/2-x,1/2-y,z
1/2+x,1/2-y,-z
1/2-x,1/2+y,-z
1/2-x,1/2-y,-z
1/2+x,1/2+y,-z
1/2-x,1/2+y,z
1/2+x,1/2-y,z
loop_
_atom_site_type_symbol
_atom_site_label
_atom_site_fract_x
_atom_site_fract_y
_atom_site_fract_z
Si Si1 0.947893 0.116681 0.833748
Si Si2 0.219362 0.416764 0.176632
Si Si3 0.552392 0.213218 0.173061
Si Si4 0.648784 0.178967 0.322427
Si Si5 0.365552 0.420613 0.334646
Si Si6 0.195012 0.815710 0.826649
O O1 0.945094 0.201729 0.803421
O O2 0.920055 0.074224 0.704865
O O3 0.000000 0.088081 0.820325
O O4 0.928553 0.099015 0.000000
O O5 0.232856 0.500000 0.218631
O O6 0.171921 0.395424 0.263065
O O7 0.258860 0.358645 0.228561
O O8 0.211266 0.410200 0.000000
O O9 0.500000 0.186252 0.223552
O O10 0.594993 0.179460 0.267775
O O11 0.560216 0.192368 0.000000
O O12 0.648710 0.181361 0.500000
O O13 0.682608 0.243317 0.263138
O O14 0.357968 0.386146 0.500000
O O15 0.342773 0.500000 0.331603
O O16 0.346331 0.371730 0.201226
O O17 0.198472 0.794285 0.000000
#
# Coordination Sequence:
#
# PCOD8274125 Si02
#       6
#    16  16  16  16  16  16
#     4   9  18  33  53  75 101 141 193 243 290 342
#     4  10  23  43  65  88 116 155 202 248 294 345
#     4   9  18  35  60  88 117 152 196 245 292 341
#     4  12  24  37  60  94 127 158 192 236 297 358
#     4  11  23  35  49  75 112 151 190 238 298 355
#     4  11  22  39  62  86 113 152 204 250 285 334
#
# _framework density 20.324466000000001
#
# number of rings (size 3 to 8) (size 9 to 14) (size 15 to 20)
#    0.000    1.667    1.667    4.500    0.000    6.667 
#    0.000    3.333    0.000    0.500    0.000    3.500 
#    0.000    0.000    0.000    0.000    0.000    0.000 
#
# Total GULP energy -594785.713364 kJ/mol
# GULP energy per Si atom -12391.369028 kJ/mol
# Density = 2.027821 g / cm^3
# Si number density = 20.324466 Si / 1000 Ang^3
#
#
#
# Elastic Constant Matrix: (Units=GPa)
#
#
# Indices 1 2 3 4 5 6 
#
# 1 119.7808 49.3672 50.4590 0.0000 0.0000 0.0000
# 2 49.3672 54.4665 37.6533 0.0000 0.0000 0.0000
# 3 50.4590 37.6533 86.9345 0.0000 0.0000 0.0000
# 4 0.0000 0.0000 0.0000 24.4075 0.0000 0.0000
# 5 0.0000 0.0000 0.0000 0.0000 19.9150 0.0000
# 6 0.0000 0.0000 0.0000 0.0000 0.0000 -47.8177
#
#
#
# Elastic Compliance Matrix: (Units=1/GPa)
#
#
# Indices 1 2 3 4 5 6 
#
# 1 0.014153 -0.010204 -0.003795 0.000000 0.000000 0.000000
# 2 -0.010204 0.033564 -0.008615 0.000000 0.000000 0.000000
# 3 -0.003795 -0.008615 0.017437 0.000000 0.000000 0.000000
# 4 0.000000 0.000000 0.000000 0.040971 0.000000 0.000000
# 5 0.000000 0.000000 0.000000 0.000000 0.050213 0.000000
# 6 0.000000 0.000000 0.000000 0.000000 0.000000 -0.020913
#
#
# Mechanical properties :
#
#
# Convention : Reuss Voigt Hill
#
# Bulk Modulus (GPa) = 50.18534 59.57118 54.87826
# Shear Modulus (GPa) = 26.69575 7.54778 17.12177
#
# Velocity S-wave (km/s) = 3.62813 1.92917 2.90560
# Velocity P-wave (km/s) = 6.50360 5.85969 6.19002
#
# Compressibility (1/GPa) = 0.01992614
#
# Stress axis : x y z
#
# Youngs Moduli (GPa) = 70.65657 29.79356 57.34999
#
# Poissons Ratio (x) = 0.30403 0.21764
# Poissons Ratio (y) = 0.72101 0.49405
# Poissons Ratio (z) = 0.26814 0.25666
#
# Static dielectric constant tensor:
#      x y z
#    x 4.051340 0.000000 0.000000 
#    y 0.000000 3.522730 0.000000 
#    z 0.000000 0.000000 3.551850 
# 
# 
# High freq. dielectric constant tensor:
#      x y z
#    x 1.803050 0.000000 0.000000 
#    y 0.000000 1.768780 0.000000 
#    z 0.000000 0.000000 1.785020 
# 
# From -- ./inp_files/16344.got.cif
#   From: 2010.03.12/outbox.cif.g09.slc.cpg/sg65_9_cif.got.tgz:16344.got - 2010.04.10 20:52:16.
