data_PCOD8274199
_publ_section_title
;
Structure prediction by ZEFSAII (Michael W. Deem and Ramdas Pophale) SiO2 
 PCOD8274199
Probable space group: C M M M
;
_chemical_formula_sum "Si O2"
_cell_formula_units_Z 72
_cell_length_a 16.684738
_cell_length_b 17.182483
_cell_length_c 14.143165
_cell_angle_alpha 90.000000
_cell_angle_beta 90.000000
_cell_angle_gamma 90.000000
_cell_volume 4054.636469
_symmetry_space_group_name_H-M "C M M M"
_symmetry_group_IT_number 65
_symmetry_cell_setting 'orthorhombic'
loop_
_space_group_symop_operation_xyz
x,y,z
-x,-y,z
x,-y,-z
-x,y,-z
-x,-y,-z
x,y,-z
-x,y,z
x,-y,z
1/2+x,1/2+y,z
1/2-x,1/2-y,z
1/2+x,1/2-y,-z
1/2-x,1/2+y,-z
1/2-x,1/2-y,-z
1/2+x,1/2+y,-z
1/2-x,1/2+y,z
1/2+x,1/2-y,z
loop_
_atom_site_type_symbol
_atom_site_label
_atom_site_fract_x
_atom_site_fract_y
_atom_site_fract_z
Si Si1 0.154593 0.332318 0.352426
Si Si2 0.904464 0.789499 0.500000
Si Si3 0.315385 0.810083 0.137007
Si Si4 0.729208 0.592672 0.500000
Si Si5 0.500000 0.910333 0.604286
Si Si6 0.270965 0.590517 0.000000
Si Si7 0.908804 0.782608 0.000000
O O1 0.126229 0.255064 0.406732
O O2 0.184771 0.311454 0.249527
O O3 0.224080 0.377561 0.407557
O O4 0.078540 0.388183 0.338125
O O5 0.860954 0.873461 0.500000
O O6 0.000000 0.802217 0.500000
O O7 0.250000 0.750000 0.099881
O O8 0.285697 0.891765 0.091890
O O9 0.396358 0.774147 0.091830
O O10 0.724666 0.500000 0.500000
O O11 0.500000 0.867753 0.500000
O O12 0.500000 0.000000 0.584971
O O13 0.294265 0.500000 0.000000
O O14 0.353815 0.639679 0.000000
O O15 0.000000 0.812109 0.000000
#
# Coordination Sequence:
#
# PCOD8274199 Si02
#       7
#    16   8  16   8   8   8   8
#     4  11  19  36  56  78 103 140 185 218 259 312
#     4  11  21  36  54  82 108 138 183 224 260 308
#     4   9  19  35  55  76 100 138 177 214 254 305
#     4  11  23  35  53  79 111 144 177 220 265 316
#     4  11  20  32  50  77 113 137 166 222 272 309
#     4   9  19  36  54  78 107 135 170 214 262 313
#     4   9  19  34  56  80 105 131 172 218 260 311
#
# _framework density 17.757448
#
# number of rings (size 3 to 8) (size 9 to 14) (size 15 to 20)
#    0.000    1.889    3.333    4.667    1.556    2.222 
#    0.000    0.000    0.000    1.333    0.000    6.222 
#    0.000    0.000    0.000    0.000    0.000    0.000 
#
# Total GULP energy -446147.493279 kJ/mol
# GULP energy per Si atom -12392.985924 kJ/mol
# Density = 1.771703 g / cm^3
# Si number density = 17.757448 Si / 1000 Ang^3
#
#
#
# Elastic Constant Matrix: (Units=GPa)
#
#
# Indices 1 2 3 4 5 6 
#
# 1 117.3786 61.9867 34.0697 0.0000 0.0000 0.0000
# 2 61.9867 109.6423 38.9202 0.0000 0.0000 0.0000
# 3 34.0697 38.9202 130.6994 0.0000 0.0000 0.0000
# 4 0.0000 0.0000 0.0000 13.4141 0.0000 0.0000
# 5 0.0000 0.0000 0.0000 0.0000 17.7250 0.0000
# 6 0.0000 0.0000 0.0000 0.0000 0.0000 -32.4163
#
#
#
# Elastic Compliance Matrix: (Units=1/GPa)
#
#
# Indices 1 2 3 4 5 6 
#
# 1 0.012332 -0.006520 -0.001273 0.000000 0.000000 0.000000
# 2 -0.006520 0.013646 -0.002364 0.000000 0.000000 0.000000
# 3 -0.001273 -0.002364 0.008687 0.000000 0.000000 0.000000
# 4 0.000000 0.000000 0.000000 0.074549 0.000000 0.000000
# 5 0.000000 0.000000 0.000000 0.000000 0.056418 0.000000
# 6 0.000000 0.000000 0.000000 0.000000 0.000000 -0.030849
#
#
# Mechanical properties :
#
#
# Convention : Reuss Voigt Hill
#
# Bulk Modulus (GPa) = 69.68266 69.74150 69.71208
# Shear Modulus (GPa) = 31.27340 14.59414 22.93377
#
# Velocity S-wave (km/s) = 4.20115 2.86992 3.59765
# Velocity P-wave (km/s) = 7.92839 7.09519 7.52333
#
# Compressibility (1/GPa) = 0.01435077
#
# Stress axis : x y z
#
# Youngs Moduli (GPa) = 81.08863 73.28221 115.11545
#
# Poissons Ratio (x) = 0.47781 0.14655
# Poissons Ratio (y) = 0.52871 0.27212
# Poissons Ratio (z) = 0.10323 0.17323
#
# Static dielectric constant tensor:
#      x y z
#    x 3.076230 0.000000 0.000000 
#    y 0.000000 3.153730 0.000000 
#    z 0.000000 0.000000 3.413380 
# 
# 
# High freq. dielectric constant tensor:
#      x y z
#    x 1.687270 0.000000 0.000000 
#    y 0.000000 1.674340 0.000000 
#    z 0.000000 0.000000 1.682520 
# 
# From -- ./inp_files/39919.got.cif
#   From: 2010.03.12/outbox.cif.g09.slc.cpg/sg65_20_cif.got.tgz:39919.got - 2010.04.10 20:52:16.
