data_PCOD8274817
_publ_section_title
;
Structure prediction by ZEFSAII (Michael W. Deem and Ramdas Pophale) SiO2 
 PCOD8274817
Probable space group: C M M M
;
_chemical_formula_sum "Si O2"
_cell_formula_units_Z 88
_cell_length_a 13.439254
_cell_length_b 24.251940
_cell_length_c 14.103132
_cell_angle_alpha 90.000000
_cell_angle_beta 90.000000
_cell_angle_gamma 90.000000
_cell_volume 4596.605348
_symmetry_space_group_name_H-M "C M M M"
_symmetry_group_IT_number 65
_symmetry_cell_setting 'orthorhombic'
loop_
_space_group_symop_operation_xyz
x,y,z
-x,-y,z
x,-y,-z
-x,y,-z
-x,-y,-z
x,y,-z
-x,y,z
x,-y,z
1/2+x,1/2+y,z
1/2-x,1/2-y,z
1/2+x,1/2-y,-z
1/2-x,1/2+y,-z
1/2-x,1/2-y,-z
1/2+x,1/2+y,-z
1/2-x,1/2+y,z
1/2+x,1/2-y,z
loop_
_atom_site_type_symbol
_atom_site_label
_atom_site_fract_x
_atom_site_fract_y
_atom_site_fract_z
Si Si1 0.111802 0.354731 0.387632
Si Si2 0.605738 0.774473 0.108726
Si Si3 0.386526 0.728372 0.606382
Si Si4 0.706535 0.661088 0.891819
Si Si5 0.311279 0.623303 0.698747
Si Si6 0.000000 0.064906 0.391263
O O1 0.122999 0.359970 0.500000
O O2 0.124097 0.290753 0.356750
O O3 0.199616 0.391576 0.339126
O O4 0.000000 0.375081 0.357972
O O5 0.500000 0.785665 0.160736
O O6 0.626443 0.709568 0.113608
O O7 0.690217 0.814002 0.149548
O O8 0.598752 0.791526 0.000000
O O9 0.343220 0.722578 0.500000
O O10 0.500000 0.708811 0.607094
O O11 0.326116 0.688062 0.675027
O O12 0.680407 0.614662 0.813488
O O13 0.711790 0.637402 0.000000
O O14 0.397594 0.586601 0.653754
O O15 0.000000 0.083513 0.500000
O O16 0.000000 0.000000 0.378563
#
# Coordination Sequence:
#
# PCOD8274817 Si02
#       6
#    16  16  16  16  16   8
#     4   9  19  32  48  78 117 146 172 217 273 340
#     4   8  15  29  45  62 103 157 194 222 251 297
#     4   9  17  29  45  71 107 141 177 215 256 322
#     4   9  20  32  43  72 108 144 191 231 263 309
#     4  12  21  33  57  78 101 147 188 226 274 332
#     4  11  26  46  65  85 105 131 182 246 294 336
#
# _framework density 19.144562000000001
#
# number of rings (size 3 to 8) (size 9 to 14) (size 15 to 20)
#    0.000    2.455    0.909    4.364    6.364    2.182 
#    0.000    0.000    0.000    1.636    0.000    2.545 
#    0.000    0.000    0.000    6.182    0.000    0.182 
#
# Total GULP energy -545090.168317 kJ/mol
# GULP energy per Si atom -12388.412916 kJ/mol
# Density = 1.910099 g / cm^3
# Si number density = 19.144562 Si / 1000 Ang^3
#
#
#
# Elastic Constant Matrix: (Units=GPa)
#
#
# Indices 1 2 3 4 5 6 
#
# 1 145.0620 28.3357 46.4282 0.0000 0.0000 0.0000
# 2 28.3357 27.0619 26.6730 0.0000 0.0000 0.0000
# 3 46.4282 26.6730 112.7242 0.0000 0.0000 0.0000
# 4 0.0000 0.0000 0.0000 10.3541 0.0000 0.0000
# 5 0.0000 0.0000 0.0000 0.0000 14.0900 0.0000
# 6 0.0000 0.0000 0.0000 0.0000 0.0000 11.9128
#
#
#
# Elastic Compliance Matrix: (Units=1/GPa)
#
#
# Indices 1 2 3 4 5 6 
#
# 1 0.008974 -0.007503 -0.001921 0.000000 0.000000 0.000000
# 2 -0.007503 0.054465 -0.009797 0.000000 0.000000 0.000000
# 3 -0.001921 -0.009797 0.011981 0.000000 0.000000 0.000000
# 4 0.000000 0.000000 0.000000 0.096580 0.000000 0.000000
# 5 0.000000 0.000000 0.000000 0.000000 0.070972 0.000000
# 6 0.000000 0.000000 0.000000 0.000000 0.000000 0.083943
#
#
# Mechanical properties :
#
#
# Convention : Reuss Voigt Hill
#
# Bulk Modulus (GPa) = 27.04365 54.19131 40.61748
# Shear Modulus (GPa) = 13.23859 19.49881 16.36870
#
# Velocity S-wave (km/s) = 2.63250 3.19486 2.92722
# Velocity P-wave (km/s) = 4.83702 6.47899 5.71726
#
# Compressibility (1/GPa) = 0.03697725
#
# Stress axis : x y z
#
# Youngs Moduli (GPa) = 111.43310 18.36035 83.46865
#
# Poissons Ratio (x) = 0.13776 0.16032
# Poissons Ratio (y) = 0.83611 0.81776
# Poissons Ratio (z) = 0.21403 0.17988
#
# Static dielectric constant tensor:
#      x y z
#    x 4.276070 0.000000 0.000000 
#    y 0.000000 2.736550 0.000000 
#    z 0.000000 0.000000 3.542530 
# 
# 
# High freq. dielectric constant tensor:
#      x y z
#    x 1.773610 0.000000 0.000000 
#    y 0.000000 1.642030 0.000000 
#    z 0.000000 0.000000 1.752630 
# 
# From -- ./inp_files/40558.got.cif
#   From: 2010.03.12/outbox.cif.g09.slc.cpg/sg65_21_cif.got.tgz:40558.got - 2010.04.10 20:52:16.
