data_PCOD8274391
_publ_section_title
;
Structure prediction by ZEFSAII (Michael W. Deem and Ramdas Pophale) SiO2 
 PCOD8274391
Probable space group: C M M M
;
_chemical_formula_sum "Si O2"
_cell_formula_units_Z 80
_cell_length_a 9.633356
_cell_length_b 26.153057
_cell_length_c 17.068493
_cell_angle_alpha 90.000000
_cell_angle_beta 90.000000
_cell_angle_gamma 90.000000
_cell_volume 4300.265289
_symmetry_space_group_name_H-M "C M M M"
_symmetry_group_IT_number 65
_symmetry_cell_setting 'orthorhombic'
loop_
_space_group_symop_operation_xyz
x,y,z
-x,-y,z
x,-y,-z
-x,y,-z
-x,-y,-z
x,y,-z
-x,y,z
x,-y,z
1/2+x,1/2+y,z
1/2-x,1/2-y,z
1/2+x,1/2-y,-z
1/2-x,1/2+y,-z
1/2-x,1/2-y,-z
1/2+x,1/2+y,-z
1/2-x,1/2+y,z
1/2+x,1/2-y,z
loop_
_atom_site_type_symbol
_atom_site_label
_atom_site_fract_x
_atom_site_fract_y
_atom_site_fract_z
Si Si1 0.658663 0.555963 0.342707
Si Si2 0.160006 0.160838 0.411454
Si Si3 0.000000 0.440728 0.915030
Si Si4 0.000000 0.060540 0.093508
Si Si5 0.332070 0.200328 0.731127
Si Si6 0.244526 0.401533 0.185925
O O1 0.500000 0.557000 0.314195
O O2 0.697782 0.500000 0.377507
O O3 0.683703 0.599473 0.407723
O O4 0.749541 0.566779 0.266269
O O5 0.189263 0.178773 0.500000
O O6 0.269800 0.188527 0.355216
O O7 0.000000 0.173937 0.387059
O O8 0.870090 0.425796 0.866153
O O9 0.000000 0.500000 0.930391
O O10 0.000000 0.413031 0.000000
O O11 0.876576 0.092314 0.131480
O O12 0.000000 0.000000 0.116119
O O13 0.000000 0.066584 0.000000
O O14 0.500000 0.207420 0.726132
O O15 0.250000 0.250000 0.762034
O O16 0.290438 0.157019 0.793285
#
# Coordination Sequence:
#
# PCOD8274391 Si02
#       6
#    16  16   8   8  16  16
#     4   9  16  28  51  80 112 154 196 231 271 328
#     4   9  19  35  56  86 121 152 189 240 294 348
#     4  11  22  36  57  87 124 159 187 227 285 345
#     4  11  22  36  61  95 126 159 195 231 281 343
#     4  11  24  41  64  87 109 152 202 249 301 347
#     4  11  21  37  57  87 121 156 195 243 286 342
#
# _framework density 18.603504000000001
#
# number of rings (size 3 to 8) (size 9 to 14) (size 15 to 20)
#    0.000    1.800    2.000    3.000    2.800    2.800 
#    0.000    2.000    0.000    3.600    0.000    2.800 
#    0.000    0.000    0.000    0.000    0.000    0.000 
#
# Total GULP energy -495681.258305 kJ/mol
# GULP energy per Si atom -12392.031458 kJ/mol
# Density = 1.856116 g / cm^3
# Si number density = 18.603504 Si / 1000 Ang^3
#
#
#
# Elastic Constant Matrix: (Units=GPa)
#
#
# Indices 1 2 3 4 5 6 
#
# 1 138.8166 39.8378 42.2757 0.0000 0.0000 0.0000
# 2 39.8378 95.5382 16.7629 0.0000 0.0000 0.0000
# 3 42.2757 16.7629 80.2217 0.0000 0.0000 0.0000
# 4 0.0000 0.0000 0.0000 18.1751 0.0000 0.0000
# 5 0.0000 0.0000 0.0000 0.0000 37.0632 0.0000
# 6 0.0000 0.0000 0.0000 0.0000 0.0000 29.5379
#
#
#
# Elastic Compliance Matrix: (Units=1/GPa)
#
#
# Indices 1 2 3 4 5 6 
#
# 1 0.009426 -0.003175 -0.004304 0.000000 0.000000 0.000000
# 2 -0.003175 0.011935 -0.000821 0.000000 0.000000 0.000000
# 3 -0.004304 -0.000821 0.014905 0.000000 0.000000 0.000000
# 4 0.000000 0.000000 0.000000 0.055020 0.000000 0.000000
# 5 0.000000 0.000000 0.000000 0.000000 0.026981 0.000000
# 6 0.000000 0.000000 0.000000 0.000000 0.000000 0.033855
#
#
# Mechanical properties :
#
#
# Convention : Reuss Voigt Hill
#
# Bulk Modulus (GPa) = 50.84785 56.92550 53.88667
# Shear Modulus (GPa) = 28.52639 31.33524 29.93082
#
# Velocity S-wave (km/s) = 3.92010 4.10856 4.01544
# Velocity P-wave (km/s) = 6.91963 7.29197 7.10824
#
# Compressibility (1/GPa) = 0.01966652
#
# Stress axis : x y z
#
# Youngs Moduli (GPa) = 106.09360 83.78714 67.09196
#
# Poissons Ratio (x) = 0.26604 0.28874
# Poissons Ratio (y) = 0.33687 0.05506
# Poissons Ratio (z) = 0.45659 0.06876
#
# Static dielectric constant tensor:
#      x y z
#    x 3.391460 0.000000 0.000000 
#    y 0.000000 3.622670 0.000000 
#    z 0.000000 0.000000 3.357810 
# 
# 
# High freq. dielectric constant tensor:
#      x y z
#    x 1.723210 0.000000 0.000000 
#    y 0.000000 1.721960 0.000000 
#    z 0.000000 0.000000 1.715520 
# 
# From -- ./inp_files/49963.got.cif
#   From: 2010.03.12/outbox.cif.g09.slc.cpg/sg65_25_cif.got.tgz:49963.got - 2010.04.10 20:52:16.
