data_PCOD8274986
_publ_section_title
;
Structure prediction by ZEFSAII (Michael W. Deem and Ramdas Pophale) SiO2 
 PCOD8274986
Probable space group: C M M M
;
_chemical_formula_sum "Si O2"
_cell_formula_units_Z 88
_cell_length_a 30.754443
_cell_length_b 9.227329
_cell_length_c 23.048600
_cell_angle_alpha 90.000000
_cell_angle_beta 90.000000
_cell_angle_gamma 90.000000
_cell_volume 6540.763141
_symmetry_space_group_name_H-M "C M M M"
_symmetry_group_IT_number 65
_symmetry_cell_setting 'orthorhombic'
loop_
_space_group_symop_operation_xyz
x,y,z
-x,-y,z
x,-y,-z
-x,y,-z
-x,-y,-z
x,y,-z
-x,y,z
x,-y,z
1/2+x,1/2+y,z
1/2-x,1/2-y,z
1/2+x,1/2-y,-z
1/2-x,1/2+y,-z
1/2-x,1/2-y,-z
1/2+x,1/2+y,-z
1/2-x,1/2+y,z
1/2+x,1/2-y,z
loop_
_atom_site_type_symbol
_atom_site_label
_atom_site_fract_x
_atom_site_fract_y
_atom_site_fract_z
Si Si1 0.791467 0.836330 0.430987
Si Si2 0.548231 0.172423 0.651746
Si Si3 0.448119 0.663027 0.888569
Si Si4 0.948188 0.336270 0.000000
Si Si5 0.051613 0.338868 0.220374
Si Si6 0.122994 0.330252 0.567057
O O1 0.789277 0.837651 0.500000
O O2 0.750000 0.750000 0.405735
O O3 0.834940 0.755307 0.410307
O O4 0.791168 0.000000 0.406528
O O5 0.500000 0.234840 0.637596
O O6 0.564020 0.222864 0.715845
O O7 0.581892 0.228265 0.603497
O O8 0.545847 0.000000 0.651502
O O9 0.500000 0.662932 0.888350
O O10 0.430078 0.500000 0.893174
O O11 0.429685 0.733682 0.829345
O O12 0.430463 0.754224 0.943148
O O13 0.930144 0.500000 0.000000
O O14 0.000000 0.336890 0.000000
O O15 0.071136 0.500000 0.210935
O O16 0.000000 0.348057 0.215804
O O17 0.113046 0.296927 0.500000
O O18 0.131532 0.500000 0.577141
#
# Coordination Sequence:
#
# PCOD8274986 Si02
#       6
#    16  16  16   8  16  16
#     4   9  16  26  40  56  73  91 110 134 168 212
#     4   8  14  24  37  52  69  91 121 154 182 209
#     4   9  15  21  29  42  59  76  97 130 170 205
#     4   9  15  21  29  41  57  77  99 123 158 205
#     4   8  13  22  34  44  56  79 111 142 170 201
#     4   9  16  25  38  56  75  93 115 145 181 218
#
# _framework density 13.454088
#
# number of rings (size 3 to 8) (size 9 to 14) (size 15 to 20)
#    0.000    3.364    0.000    2.455    0.000    5.818 
#    0.000    2.727    0.000    1.636    0.000    2.545 
#    0.000    0.000    0.000    0.000    0.000    0.000 
#
# Total GULP energy -545336.977570 kJ/mol
# GULP energy per Si atom -12394.022217 kJ/mol
# Density = 1.342347 g / cm^3
# Si number density = 13.454088 Si / 1000 Ang^3
#
#
#
# Elastic Constant Matrix: (Units=GPa)
#
#
# Indices 1 2 3 4 5 6 
#
# 1 61.8269 33.0975 42.3545 0.0000 0.0000 0.0000
# 2 33.0975 83.3193 43.7002 0.0000 0.0000 0.0000
# 3 42.3545 43.7002 87.4941 0.0000 0.0000 0.0000
# 4 0.0000 0.0000 0.0000 11.3531 0.0000 0.0000
# 5 0.0000 0.0000 0.0000 0.0000 0.7391 0.0000
# 6 0.0000 0.0000 0.0000 0.0000 0.0000 12.2673
#
#
#
# Elastic Compliance Matrix: (Units=1/GPa)
#
#
# Indices 1 2 3 4 5 6 
#
# 1 0.025638 -0.004979 -0.009924 0.000000 0.000000 0.000000
# 2 -0.004979 0.017229 -0.006195 0.000000 0.000000 0.000000
# 3 -0.009924 -0.006195 0.019328 0.000000 0.000000 0.000000
# 4 0.000000 0.000000 0.000000 0.088082 0.000000 0.000000
# 5 0.000000 0.000000 0.000000 0.000000 1.353070 0.000000
# 6 0.000000 0.000000 0.000000 0.000000 0.000000 0.081517
#
#
# Mechanical properties :
#
#
# Convention : Reuss Voigt Hill
#
# Bulk Modulus (GPa) = 50.00428 52.32718 51.16573
# Shear Modulus (GPa) = 3.06049 12.43777 7.74913
#
# Velocity S-wave (km/s) = 1.50987 3.04379 2.40254
# Velocity P-wave (km/s) = 6.34720 7.16453 6.76821
#
# Compressibility (1/GPa) = 0.01999829
#
# Stress axis : x y z
#
# Youngs Moduli (GPa) = 39.00425 58.04102 51.73957
#
# Poissons Ratio (x) = 0.28901 0.51347
# Poissons Ratio (y) = 0.19422 0.32052
# Poissons Ratio (z) = 0.38708 0.35956
#
# Static dielectric constant tensor:
#      x y z
#    x 2.391600 0.000000 0.000000 
#    y 0.000000 2.743290 0.000000 
#    z 0.000000 0.000000 2.762470 
# 
# 
# High freq. dielectric constant tensor:
#      x y z
#    x 1.451880 0.000000 0.000000 
#    y 0.000000 1.510160 0.000000 
#    z 0.000000 0.000000 1.500760 
# 
# From -- ./inp_files/72046.got.cif
#   From: 2010.03.12/outbox.cif.g09.slc.cpg/sg65_37_cif.got.tgz:72046.got - 2010.04.10 20:52:16.
