data_PCOD8274049
_publ_section_title
;
Structure prediction by ZEFSAII (Michael W. Deem and Ramdas Pophale) SiO2 
 PCOD8274049
Probable space group: C M M M
;
_chemical_formula_sum "Si O2"
_cell_formula_units_Z 104
_cell_length_a 26.181168
_cell_length_b 23.256235
_cell_length_c 9.123139
_cell_angle_alpha 90.000000
_cell_angle_beta 90.000000
_cell_angle_gamma 90.000000
_cell_volume 5554.854868
_symmetry_space_group_name_H-M "C M M M"
_symmetry_group_IT_number 65
_symmetry_cell_setting 'orthorhombic'
loop_
_space_group_symop_operation_xyz
x,y,z
-x,-y,z
x,-y,-z
-x,y,-z
-x,-y,-z
x,y,-z
-x,y,z
x,-y,z
1/2+x,1/2+y,z
1/2-x,1/2-y,z
1/2+x,1/2-y,-z
1/2-x,1/2+y,-z
1/2-x,1/2-y,-z
1/2+x,1/2+y,-z
1/2-x,1/2+y,z
1/2+x,1/2-y,z
loop_
_atom_site_type_symbol
_atom_site_label
_atom_site_fract_x
_atom_site_fract_y
_atom_site_fract_z
Si Si1 0.940399 0.562603 0.340045
Si Si2 0.820876 0.066332 0.829157
Si Si3 0.204633 0.564194 0.826671
Si Si4 0.941265 0.254333 0.328343
Si Si5 0.382547 0.148400 0.170848
Si Si6 0.910123 0.124998 0.327935
Si Si7 0.000000 0.067165 0.162373
O O1 0.921212 0.585912 0.500000
O O2 0.915878 0.500000 0.310057
O O3 0.927729 0.604154 0.205873
O O4 0.000000 0.556403 0.346194
O O5 0.762563 0.079342 0.784202
O O6 0.854301 0.109948 0.733314
O O7 0.834599 0.000000 0.794400
O O8 0.830195 0.079112 0.000000
O O9 0.190692 0.500000 0.764983
O O10 0.168382 0.615891 0.766291
O O11 0.198256 0.561873 0.000000
O O12 0.938465 0.266648 0.500000
O O13 0.897756 0.292666 0.250839
O O14 0.925661 0.189748 0.289899
O O15 0.000000 0.265832 0.274197
O O16 0.378099 0.161665 0.000000
O O17 0.911553 0.113515 0.500000
O O18 0.949869 0.083560 0.250603
O O19 0.000000 0.000000 0.143134
O O20 0.000000 0.095846 0.000000
#
# Coordination Sequence:
#
# PCOD8274049 Si02
#       7
#    16  16  16  16  16  16   8
#     4   9  18  32  48  68  99 139 176 214 272 341
#     4   9  18  35  59  84 111 145 179 214 269 336
#     4   8  16  33  55  79 111 146 177 218 276 335
#     4  10  22  41  57  71 103 151 190 221 270 333
#     4  11  21  32  52  81 105 134 183 236 279 317
#     4  11  22  38  58  82 111 146 185 226 271 318
#     4  11  23  37  57  87 119 147 176 215 268 333
#
# _framework density 18.722362
#
# number of rings (size 3 to 8) (size 9 to 14) (size 15 to 20)
#    0.000    2.231    0.769    3.923    0.000    7.385 
#    0.000    3.077    0.000    6.462    0.000    0.000 
#    0.000    0.000    0.000    0.000    0.000    0.000 
#
# Total GULP energy -644406.154653 kJ/mol
# GULP energy per Si atom -12392.426051 kJ/mol
# Density = 1.867975 g / cm^3
# Si number density = 18.722362 Si / 1000 Ang^3
#
#
#
# Elastic Constant Matrix: (Units=GPa)
#
#
# Indices 1 2 3 4 5 6 
#
# 1 115.5335 58.1160 43.6763 0.0000 0.0000 0.0000
# 2 58.1160 96.3208 44.8595 0.0000 0.0000 0.0000
# 3 43.6763 44.8595 60.5971 0.0000 0.0000 0.0000
# 4 0.0000 0.0000 0.0000 27.7364 0.0000 0.0000
# 5 0.0000 0.0000 0.0000 0.0000 13.2984 0.0000
# 6 0.0000 0.0000 0.0000 0.0000 0.0000 35.1094
#
#
#
# Elastic Compliance Matrix: (Units=1/GPa)
#
#
# Indices 1 2 3 4 5 6 
#
# 1 0.013602 -0.005557 -0.005690 0.000000 0.000000 0.000000
# 2 -0.005557 0.018115 -0.009405 0.000000 0.000000 0.000000
# 3 -0.005690 -0.009405 0.027566 0.000000 0.000000 0.000000
# 4 0.000000 0.000000 0.000000 0.036054 0.000000 0.000000
# 5 0.000000 0.000000 0.000000 0.000000 0.075197 0.000000
# 6 0.000000 0.000000 0.000000 0.000000 0.000000 0.028482
#
#
# Mechanical properties :
#
#
# Convention : Reuss Voigt Hill
#
# Bulk Modulus (GPa) = 55.62081 62.86166 59.24124
# Shear Modulus (GPa) = 20.29938 23.61549 21.95743
#
# Velocity S-wave (km/s) = 3.29634 3.55541 3.42832
# Velocity P-wave (km/s) = 6.65286 7.10656 6.88345
#
# Compressibility (1/GPa) = 0.01797888
#
# Stress axis : x y z
#
# Youngs Moduli (GPa) = 73.52024 55.20299 36.27619
#
# Poissons Ratio (x) = 0.30674 0.20641
# Poissons Ratio (y) = 0.40853 0.34119
# Poissons Ratio (z) = 0.41834 0.51920
#
# Static dielectric constant tensor:
#      x y z
#    x 3.590430 0.000000 0.000000 
#    y 0.000000 3.515810 0.000000 
#    z 0.000000 0.000000 3.386250 
# 
# 
# High freq. dielectric constant tensor:
#      x y z
#    x 1.726240 0.000000 0.000000 
#    y 0.000000 1.724490 0.000000 
#    z 0.000000 0.000000 1.713300 
# 
# From -- ./inp_files/16743.got.cif
#   From: 2010.03.12/outbox.cif.g09.slc.cpg/sg65_9_cif.got.tgz:16743.got - 2010.04.10 20:52:16.
