data_PCOD8274701
_publ_section_title
;
Structure prediction by ZEFSAII (Michael W. Deem and Ramdas Pophale) SiO2 
 PCOD8274701
Probable space group: C M M M
;
_chemical_formula_sum "Si O2"
_cell_formula_units_Z 88
_cell_length_a 25.689156
_cell_length_b 15.356502
_cell_length_c 11.168990
_cell_angle_alpha 90.000000
_cell_angle_beta 90.000000
_cell_angle_gamma 90.000000
_cell_volume 4406.117138
_symmetry_space_group_name_H-M "C M M M"
_symmetry_group_IT_number 65
_symmetry_cell_setting 'orthorhombic'
loop_
_space_group_symop_operation_xyz
x,y,z
-x,-y,z
x,-y,-z
-x,y,-z
-x,-y,-z
x,y,-z
-x,y,z
x,-y,z
1/2+x,1/2+y,z
1/2-x,1/2-y,z
1/2+x,1/2-y,-z
1/2-x,1/2+y,-z
1/2-x,1/2-y,-z
1/2+x,1/2+y,-z
1/2-x,1/2+y,z
1/2+x,1/2-y,z
loop_
_atom_site_type_symbol
_atom_site_label
_atom_site_fract_x
_atom_site_fract_y
_atom_site_fract_z
Si Si1 0.614836 0.896963 0.500000
Si Si2 0.262273 0.897505 0.500000
Si Si3 0.882770 0.830251 0.857104
Si Si4 0.911769 0.500000 0.858977
Si Si5 0.769674 0.843101 0.245633
Si Si6 0.443103 0.500000 0.141711
Si Si7 0.440452 0.170368 0.265122
Si Si8 0.205264 0.500000 0.140861
O O1 0.676240 0.878314 0.500000
O O2 0.589220 0.850470 0.387025
O O3 0.602184 0.000000 0.500000
O O4 0.233936 0.853458 0.612045
O O5 0.251731 0.000000 0.500000
O O6 0.827850 0.851442 0.798968
O O7 0.915735 0.912686 0.814323
O O8 0.909099 0.744141 0.805456
O O9 0.878002 0.821159 0.000000
O O10 0.942295 0.415269 0.816260
O O11 0.852994 0.500000 0.804633
O O12 0.909553 0.500000 0.000000
O O13 0.750000 0.750000 0.202620
O O14 0.733678 0.914443 0.184678
O O15 0.500000 0.500000 0.199626
O O16 0.445638 0.500000 0.000000
O O17 0.500000 0.199863 0.289649
O O18 0.203773 0.500000 0.000000
#
# Coordination Sequence:
#
# PCOD8274701 Si02
#       8
#     8   8  16   8  16   8  16   8
#     4  11  23  43  69  92 129 174 224 269 317 389
#     4  11  23  42  68  95 127 170 215 270 329 390
#     4  11  24  41  64  96 131 169 215 267 324 389
#     4  11  23  38  59  92 131 168 208 261 330 396
#     4  12  24  40  65  94 128 169 216 263 323 393
#     4   9  19  39  64  86 115 160 211 262 314 369
#     4  12  25  41  65  94 129 172 220 272 323 382
#     4  11  23  40  61  90 130 172 213 267 329 394
#
# _framework density 19.972232999999999
#
# number of rings (size 3 to 8) (size 9 to 14) (size 15 to 20)
#    0.000    0.818    1.818    6.273    0.000    7.273 
#    0.000    0.000    0.000    0.000    0.000    2.545 
#    0.000    0.000    0.000    0.000    0.000    0.000 
#
# Total GULP energy -545770.480812 kJ/mol
# GULP energy per Si atom -12403.874564 kJ/mol
# Density = 1.992678 g / cm^3
# Si number density = 19.972233 Si / 1000 Ang^3
#
#
#
# Elastic Constant Matrix: (Units=GPa)
#
#
# Indices 1 2 3 4 5 6 
#
# 1 125.8086 34.7236 57.5916 0.0000 0.0000 0.0000
# 2 34.7236 111.0534 37.3019 0.0000 0.0000 0.0000
# 3 57.5916 37.3019 109.2744 0.0000 0.0000 0.0000
# 4 0.0000 0.0000 0.0000 45.3217 0.0000 0.0000
# 5 0.0000 0.0000 0.0000 0.0000 22.3119 0.0000
# 6 0.0000 0.0000 0.0000 0.0000 0.0000 31.1590
#
#
#
# Elastic Compliance Matrix: (Units=1/GPa)
#
#
# Indices 1 2 3 4 5 6 
#
# 1 0.010736 -0.001645 -0.005097 0.000000 0.000000 0.000000
# 2 -0.001645 0.010423 -0.002691 0.000000 0.000000 0.000000
# 3 -0.005097 -0.002691 0.012756 0.000000 0.000000 0.000000
# 4 0.000000 0.000000 0.000000 0.022064 0.000000 0.000000
# 5 0.000000 0.000000 0.000000 0.000000 0.044819 0.000000
# 6 0.000000 0.000000 0.000000 0.000000 0.000000 0.032093
#
#
# Mechanical properties :
#
#
# Convention : Reuss Voigt Hill
#
# Bulk Modulus (GPa) = 66.44735 67.26338 66.85537
# Shear Modulus (GPa) = 31.89322 34.19313 33.04318
#
# Velocity S-wave (km/s) = 4.00043 4.14216 4.07191
# Velocity P-wave (km/s) = 7.39459 7.52517 7.46017
#
# Compressibility (1/GPa) = 0.01504951
#
# Stress axis : x y z
#
# Youngs Moduli (GPa) = 93.14771 95.94267 78.39464
#
# Poissons Ratio (x) = 0.15781 0.39954
# Poissons Ratio (y) = 0.15322 0.21096
# Poissons Ratio (z) = 0.47473 0.25819
#
# Static dielectric constant tensor:
#      x y z
#    x 3.917940 0.000000 0.000000 
#    y 0.000000 3.780670 0.000000 
#    z 0.000000 0.000000 3.797670 
# 
# 
# High freq. dielectric constant tensor:
#      x y z
#    x 1.794440 0.000000 0.000000 
#    y 0.000000 1.794480 0.000000 
#    z 0.000000 0.000000 1.780690 
# 
# From -- ./inp_files/30609.got.cif
#   From: 2010.03.12/outbox.cif.g09.slc.cpg/sg65_16_cif.got.tgz:30609.got - 2010.04.10 20:52:16.
