data_PCOD8274742
_publ_section_title
;
Structure prediction by ZEFSAII (Michael W. Deem and Ramdas Pophale) SiO2 
 PCOD8274742
Probable space group: C M M M
;
_chemical_formula_sum "Si O2"
_cell_formula_units_Z 64
_cell_length_a 8.548641
_cell_length_b 21.292312
_cell_length_c 17.128470
_cell_angle_alpha 90.000000
_cell_angle_beta 90.000000
_cell_angle_gamma 90.000000
_cell_volume 3117.729785
_symmetry_space_group_name_H-M "C M M M"
_symmetry_group_IT_number 65
_symmetry_cell_setting 'orthorhombic'
loop_
_space_group_symop_operation_xyz
x,y,z
-x,-y,z
x,-y,-z
-x,y,-z
-x,-y,-z
x,y,-z
-x,y,z
x,-y,z
1/2+x,1/2+y,z
1/2-x,1/2-y,z
1/2+x,1/2-y,-z
1/2-x,1/2+y,-z
1/2-x,1/2-y,-z
1/2+x,1/2+y,-z
1/2-x,1/2+y,z
1/2+x,1/2-y,z
loop_
_atom_site_type_symbol
_atom_site_label
_atom_site_fract_x
_atom_site_fract_y
_atom_site_fract_z
Si Si1 0.815334 0.500000 0.908825
Si Si2 0.684517 0.376832 0.846659
Si Si3 0.319310 0.429045 0.408388
Si Si4 0.816356 0.317849 0.692386
Si Si5 0.186232 0.317569 0.000000
O O1 0.757033 0.445286 0.852373
O O2 0.000000 0.500000 0.915314
O O3 0.750294 0.500000 0.000000
O O4 0.500000 0.380565 0.838435
O O5 0.749645 0.335382 0.776462
O O6 0.737734 0.347062 0.925807
O O7 0.294452 0.420515 0.500000
O O8 0.500000 0.420494 0.385253
O O9 0.265099 0.500000 0.383840
O O10 0.222071 0.374372 0.366875
O O11 0.750000 0.250000 0.664614
O O12 0.000000 0.310388 0.698240
O O13 0.250000 0.250000 0.000000
O O14 0.000000 0.325012 0.000000
#
# Coordination Sequence:
#
# PCOD8274742 Si02
#       5
#     8  16  16  16   8
#     4  11  23  41  65  93 125 162 211 268 320 380
#     4  12  25  42  64  91 125 166 212 264 322 383
#     4   9  20  42  71 101 134 171 213 262 320 387
#     4  12  26  44  66  95 133 173 219 271 324 386
#     4  12  24  41  62  87 120 162 210 262 318 382
#
# _framework density 20.527756
#
# number of rings (size 3 to 8) (size 9 to 14) (size 15 to 20)
#    0.000    0.875    1.250    7.500    1.750    2.000 
#    0.000    1.250    0.000    0.000    0.000    0.000 
#    0.000    0.000    0.000    0.000    0.000    0.000 
#
# Total GULP energy -396609.191706 kJ/mol
# GULP energy per Si atom -12394.037241 kJ/mol
# Density = 2.048103 g / cm^3
# Si number density = 20.527756 Si / 1000 Ang^3
#
#
#
# Elastic Constant Matrix: (Units=GPa)
#
#
# Indices 1 2 3 4 5 6 
#
# 1 127.5032 52.8337 32.3886 0.0000 0.0000 0.0000
# 2 52.8337 169.0433 44.9980 0.0000 0.0000 0.0000
# 3 32.3886 44.9980 79.4500 0.0000 0.0000 0.0000
# 4 0.0000 0.0000 0.0000 50.3427 0.0000 0.0000
# 5 0.0000 0.0000 0.0000 0.0000 37.0439 0.0000
# 6 0.0000 0.0000 0.0000 0.0000 0.0000 40.8116
#
#
#
# Elastic Compliance Matrix: (Units=1/GPa)
#
#
# Indices 1 2 3 4 5 6 
#
# 1 0.009433 -0.002266 -0.002562 0.000000 0.000000 0.000000
# 2 -0.002266 0.007510 -0.003330 0.000000 0.000000 0.000000
# 3 -0.002562 -0.003330 0.015517 0.000000 0.000000 0.000000
# 4 0.000000 0.000000 0.000000 0.019864 0.000000 0.000000
# 5 0.000000 0.000000 0.000000 0.000000 0.026995 0.000000
# 6 0.000000 0.000000 0.000000 0.000000 0.000000 0.024503
#
#
# Mechanical properties :
#
#
# Convention : Reuss Voigt Hill
#
# Bulk Modulus (GPa) = 61.94180 70.71524 66.32852
# Shear Modulus (GPa) = 39.83476 42.02472 40.92974
#
# Velocity S-wave (km/s) = 4.40993 4.52952 4.47012
# Velocity P-wave (km/s) = 7.49467 7.86631 7.68274
#
# Compressibility (1/GPa) = 0.01614419
#
# Stress axis : x y z
#
# Youngs Moduli (GPa) = 106.01341 133.15060 64.44649
#
# Poissons Ratio (x) = 0.30175 0.16510
# Poissons Ratio (y) = 0.24025 0.21459
# Poissons Ratio (z) = 0.27159 0.44336
#
# Static dielectric constant tensor:
#      x y z
#    x 3.878970 0.000000 0.000000 
#    y 0.000000 4.453660 0.000000 
#    z 0.000000 0.000000 3.841650 
# 
# 
# High freq. dielectric constant tensor:
#      x y z
#    x 1.810230 0.000000 0.000000 
#    y 0.000000 1.829750 0.000000 
#    z 0.000000 0.000000 1.805580 
# 
# From -- ./inp_files/49089.got.cif
#   From: 2010.03.12/outbox.cif.g09.slc.cpg/sg65_25_cif.got.tgz:49089.got - 2010.04.10 20:52:16.
