data_PCOD8274121
_publ_section_title
;
Structure prediction by ZEFSAII (Michael W. Deem and Ramdas Pophale) SiO2 
 PCOD8274121
Probable space group: C M M M
;
_chemical_formula_sum "Si O2"
_cell_formula_units_Z 56
_cell_length_a 15.034835
_cell_length_b 8.661967
_cell_length_c 21.442650
_cell_angle_alpha 90.000000
_cell_angle_beta 90.000000
_cell_angle_gamma 90.000000
_cell_volume 2792.502997
_symmetry_space_group_name_H-M "C M M M"
_symmetry_group_IT_number 65
_symmetry_cell_setting 'orthorhombic'
loop_
_space_group_symop_operation_xyz
x,y,z
-x,-y,z
x,-y,-z
-x,y,-z
-x,-y,-z
x,y,-z
-x,y,z
x,-y,z
1/2+x,1/2+y,z
1/2-x,1/2-y,z
1/2+x,1/2-y,-z
1/2-x,1/2+y,-z
1/2-x,1/2-y,-z
1/2+x,1/2+y,-z
1/2-x,1/2+y,z
1/2+x,1/2-y,z
loop_
_atom_site_type_symbol
_atom_site_label
_atom_site_fract_x
_atom_site_fract_y
_atom_site_fract_z
Si Si1 0.500000 0.316012 0.223475
Si Si2 0.852088 0.185550 0.000000
Si Si3 0.396266 0.178149 0.430712
Si Si4 0.161220 0.179691 0.693206
Si Si5 0.000000 0.316635 0.912164
O O1 0.500000 0.500000 0.211288
O O2 0.582427 0.256942 0.264252
O O3 0.500000 0.221918 0.160116
O O4 0.750000 0.250000 0.000000
O O5 0.909071 0.244497 0.059453
O O6 0.847619 0.000000 0.000000
O O7 0.361938 0.222982 0.500000
O O8 0.500000 0.213858 0.426243
O O9 0.346390 0.278884 0.379616
O O10 0.376598 0.000000 0.416736
O O11 0.250000 0.250000 0.722058
O O12 0.165636 0.000000 0.699232
O O13 0.000000 0.500000 0.923822
#
# Coordination Sequence:
#
# PCOD8274121 Si02
#       5
#     8   8  16  16   8
#     4  10  23  43  61  83 121 162 202 249 298 351
#     4  11  22  41  68  98 134 169 204 251 296 344
#     4   9  18  34  57  83 111 145 188 242 303 364
#     4  11  23  39  59  84 114 152 198 248 300 358
#     4  11  23  40  65  97 129 167 208 246 299 357
#
# _framework density 20.053692000000002
#
# number of rings (size 3 to 8) (size 9 to 14) (size 15 to 20)
#    0.000    1.714    1.429    5.143    0.000    4.571 
#    0.000    4.286    0.000    0.000    0.000    0.000 
#    0.000    0.000    0.000    0.000    0.000    0.000 
#
# Total GULP energy -347131.293627 kJ/mol
# GULP energy per Si atom -12397.546201 kJ/mol
# Density = 2.000805 g / cm^3
# Si number density = 20.053692 Si / 1000 Ang^3
#
#
#
# Elastic Constant Matrix: (Units=GPa)
#
#
# Indices 1 2 3 4 5 6 
#
# 1 163.2513 57.9383 73.3232 0.0000 0.0000 0.0000
# 2 57.9383 91.0506 43.5758 0.0000 0.0000 0.0000
# 3 73.3232 43.5758 138.0090 0.0000 0.0000 0.0000
# 4 0.0000 0.0000 0.0000 33.0001 0.0000 0.0000
# 5 0.0000 0.0000 0.0000 0.0000 -66.9278 0.0000
# 6 0.0000 0.0000 0.0000 0.0000 0.0000 32.9512
#
#
#
# Elastic Compliance Matrix: (Units=1/GPa)
#
#
# Indices 1 2 3 4 5 6 
#
# 1 0.009205 -0.004143 -0.003582 0.000000 0.000000 0.000000
# 2 -0.004143 0.014803 -0.002473 0.000000 0.000000 0.000000
# 3 -0.003582 -0.002473 0.009930 0.000000 0.000000 0.000000
# 4 0.000000 0.000000 0.000000 0.030303 0.000000 0.000000
# 5 0.000000 0.000000 0.000000 0.000000 -0.014941 0.000000
# 6 0.000000 0.000000 0.000000 0.000000 0.000000 0.030348
#
#
# Mechanical properties :
#
#
# Convention : Reuss Voigt Hill
#
# Bulk Modulus (GPa) = 73.84782 82.44282 78.14532
# Shear Modulus (GPa) = 47.82102 14.30294 31.06198
#
# Velocity S-wave (km/s) = 4.88858 2.67354 3.93993
# Velocity P-wave (km/s) = 8.29273 7.12255 7.72981
#
# Compressibility (1/GPa) = 0.01354136
#
# Stress axis : x y z
#
# Youngs Moduli (GPa) = 108.63875 67.55587 100.70521
#
# Poissons Ratio (x) = 0.27987 0.36076
# Poissons Ratio (y) = 0.45007 0.24902
# Poissons Ratio (z) = 0.38918 0.16705
#
# Static dielectric constant tensor:
#      x y z
#    x 3.784060 0.000000 0.000000 
#    y 0.000000 3.573330 0.000000 
#    z 0.000000 0.000000 3.683000 
# 
# 
# High freq. dielectric constant tensor:
#      x y z
#    x 1.792000 0.000000 0.000000 
#    y 0.000000 1.783030 0.000000 
#    z 0.000000 0.000000 1.782140 
# 
# From -- ./inp_files/62209.got.cif
#   From: 2010.03.12/outbox.cif.g09.slc.cpg/sg65_32_cif.got.tgz:62209.got - 2010.04.10 20:52:16.
