data_PCOD8274674
_publ_section_title
;
Structure prediction by ZEFSAII (Michael W. Deem and Ramdas Pophale) SiO2 
 PCOD8274674
Probable space group: C M M M
;
_chemical_formula_sum "Si O2"
_cell_formula_units_Z 72
_cell_length_a 18.472855
_cell_length_b 9.285299
_cell_length_c 23.234005
_cell_angle_alpha 90.000000
_cell_angle_beta 90.000000
_cell_angle_gamma 90.000000
_cell_volume 3985.235525
_symmetry_space_group_name_H-M "C M M M"
_symmetry_group_IT_number 65
_symmetry_cell_setting 'orthorhombic'
loop_
_space_group_symop_operation_xyz
x,y,z
-x,-y,z
x,-y,-z
-x,y,-z
-x,-y,-z
x,y,-z
-x,y,z
x,-y,z
1/2+x,1/2+y,z
1/2-x,1/2-y,z
1/2+x,1/2-y,-z
1/2-x,1/2+y,-z
1/2-x,1/2-y,-z
1/2+x,1/2+y,-z
1/2-x,1/2+y,z
1/2+x,1/2-y,z
loop_
_atom_site_type_symbol
_atom_site_label
_atom_site_fract_x
_atom_site_fract_y
_atom_site_fract_z
Si Si1 0.586578 0.661728 0.876915
Si Si2 0.083514 0.164161 0.433132
Si Si3 0.082408 0.668481 0.232277
Si Si4 0.674366 0.829230 0.657367
Si Si5 0.420397 0.328525 0.000000
O O1 0.500000 0.667937 0.880506
O O2 0.613092 0.500000 0.864193
O O3 0.615829 0.759866 0.825093
O O4 0.618244 0.716533 0.939392
O O5 0.100869 0.185977 0.500000
O O6 0.132557 0.276270 0.398989
O O7 0.000000 0.199149 0.420254
O O8 0.101361 0.000000 0.414817
O O9 0.086184 0.500000 0.222405
O O10 0.128611 0.716899 0.286938
O O11 0.000000 0.720072 0.242815
O O12 0.750000 0.750000 0.661790
O O13 0.685583 0.000000 0.653152
O O14 0.427917 0.500000 0.000000
O O15 0.500000 0.257921 0.000000
#
# Coordination Sequence:
#
# PCOD8274674 Si02
#       5
#    16  16  16  16   8
#     4   8  13  22  39  63  90 122 158 194 235 286
#     4   9  19  37  60  84 108 133 163 201 244 292
#     4   9  18  32  48  68  96 127 160 201 248 296
#     4  11  23  37  53  74 102 136 172 210 252 296
#     4   7  10  18  33  57  90 121 150 189 235 283
#
# _framework density 18.066686000000001
#
# number of rings (size 3 to 8) (size 9 to 14) (size 15 to 20)
#    0.000    3.000    0.000    3.333    0.000    4.000 
#    0.000    3.889    0.000    3.333    0.000    0.778 
#    0.000    0.000    0.000    0.000    0.000    0.000 
#
# Total GULP energy -446137.518104 kJ/mol
# GULP energy per Si atom -12392.708836 kJ/mol
# Density = 1.802557 g / cm^3
# Si number density = 18.066686 Si / 1000 Ang^3
#
#
#
# Elastic Constant Matrix: (Units=GPa)
#
#
# Indices 1 2 3 4 5 6 
#
# 1 69.4959 41.7075 60.6534 0.0000 0.0000 0.0000
# 2 41.7075 63.3634 61.5919 0.0000 0.0000 0.0000
# 3 60.6534 61.5919 146.3584 0.0000 0.0000 0.0000
# 4 0.0000 0.0000 0.0000 33.9457 0.0000 0.0000
# 5 0.0000 0.0000 0.0000 0.0000 0.5378 0.0000
# 6 0.0000 0.0000 0.0000 0.0000 0.0000 2.1847
#
#
#
# Elastic Compliance Matrix: (Units=1/GPa)
#
#
# Indices 1 2 3 4 5 6 
#
# 1 0.026762 -0.011566 -0.006223 0.000000 0.000000 0.000000
# 2 -0.011566 0.031706 -0.008549 0.000000 0.000000 0.000000
# 3 -0.006223 -0.008549 0.013009 0.000000 0.000000 0.000000
# 4 0.000000 0.000000 0.000000 0.029459 0.000000 0.000000
# 5 0.000000 0.000000 0.000000 0.000000 1.859538 0.000000
# 6 0.000000 0.000000 0.000000 0.000000 0.000000 0.457734
#
#
# Mechanical properties :
#
#
# Convention : Reuss Voigt Hill
#
# Bulk Modulus (GPa) = 53.19355 67.45815 60.32585
# Shear Modulus (GPa) = 2.01845 15.01796 8.51820
#
# Velocity S-wave (km/s) = 1.05813 2.88627 2.17373
# Velocity P-wave (km/s) = 5.56773 6.96612 6.30581
#
# Compressibility (1/GPa) = 0.01879927
#
# Stress axis : x y z
#
# Youngs Moduli (GPa) = 37.36609 31.54016 76.86764
#
# Poissons Ratio (x) = 0.36481 0.47837
# Poissons Ratio (y) = 0.43219 0.65717
# Poissons Ratio (z) = 0.23254 0.26965
#
# Static dielectric constant tensor:
#      x y z
#    x 2.991920 0.000000 0.000000 
#    y 0.000000 3.207960 0.000000 
#    z 0.000000 0.000000 3.727320 
# 
# 
# High freq. dielectric constant tensor:
#      x y z
#    x 1.653840 0.000000 0.000000 
#    y 0.000000 1.686310 0.000000 
#    z 0.000000 0.000000 1.722200 
# 
# From -- ./inp_files/66979.got.cif
#   From: 2010.03.12/outbox.cif.g09.slc.cpg/sg65_34_cif.got.tgz:66979.got - 2010.04.10 20:52:16.
