data_PCOD8274303
_publ_section_title
;
Structure prediction by ZEFSAII (Michael W. Deem and Ramdas Pophale) SiO2 
 PCOD8274303
Probable space group: C M M M
;
_chemical_formula_sum "Si O2"
_cell_formula_units_Z 72
_cell_length_a 28.291280
_cell_length_b 8.608476
_cell_length_c 18.288563
_cell_angle_alpha 90.000000
_cell_angle_beta 90.000000
_cell_angle_gamma 90.000000
_cell_volume 4454.084508
_symmetry_space_group_name_H-M "C M M M"
_symmetry_group_IT_number 65
_symmetry_cell_setting 'orthorhombic'
loop_
_space_group_symop_operation_xyz
x,y,z
-x,-y,z
x,-y,-z
-x,y,-z
-x,-y,-z
x,y,-z
-x,y,z
x,-y,z
1/2+x,1/2+y,z
1/2-x,1/2-y,z
1/2+x,1/2-y,-z
1/2-x,1/2+y,-z
1/2-x,1/2-y,-z
1/2+x,1/2+y,-z
1/2-x,1/2+y,z
1/2+x,1/2-y,z
loop_
_atom_site_type_symbol
_atom_site_label
_atom_site_fract_x
_atom_site_fract_y
_atom_site_fract_z
Si Si1 0.355307 0.818716 0.637430
Si Si2 0.946641 0.180516 0.584769
Si Si3 0.301753 0.181619 0.920857
Si Si4 0.802774 0.183255 0.226043
Si Si5 0.801864 0.182498 0.500000
O O1 0.411198 0.783226 0.633125
O O2 0.336288 0.756375 0.713620
O O3 0.329177 0.733848 0.571776
O O4 0.345563 0.000000 0.631259
O O5 0.939731 0.223169 0.500000
O O6 0.000000 0.219703 0.609519
O O7 0.935450 0.000000 0.597470
O O8 0.250000 0.250000 0.928116
O O9 0.326078 0.269831 0.852585
O O10 0.298805 0.000000 0.902227
O O11 0.327651 0.208410 0.000000
O O12 0.750000 0.250000 0.233706
O O13 0.801183 0.000000 0.235469
O O14 0.750000 0.250000 0.500000
O O15 0.798003 0.000000 0.500000
#
# Coordination Sequence:
#
# PCOD8274303 Si02
#       5
#    16  16  16  16   8
#     4  12  23  35  50  71  96 124 160 199 240 284
#     4   9  18  34  55  75  95 120 152 194 243 290
#     4   9  16  27  44  66  92 122 157 196 236 279
#     4  11  21  33  48  67  95 130 165 201 239 281
#     4  12  24  38  51  66  91 124 164 201 237 279
#
# _framework density 16.164939
#
# number of rings (size 3 to 8) (size 9 to 14) (size 15 to 20)
#    0.000    1.556    1.111    8.333    0.000    1.778 
#    0.000    1.111    0.000    0.000    0.000    0.000 
#    0.000    0.889    0.000    9.333    0.000    4.000 
#
# Total GULP energy -446282.395139 kJ/mol
# GULP energy per Si atom -12396.733198 kJ/mol
# Density = 1.612815 g / cm^3
# Si number density = 16.164939 Si / 1000 Ang^3
#
#
#
# Elastic Constant Matrix: (Units=GPa)
#
#
# Indices 1 2 3 4 5 6 
#
# 1 79.0615 37.4172 45.8183 0.0000 0.0000 0.0000
# 2 37.4172 122.5104 39.4518 0.0000 0.0000 0.0000
# 3 45.8183 39.4518 119.6948 0.0000 0.0000 0.0000
# 4 0.0000 0.0000 0.0000 9.4714 0.0000 0.0000
# 5 0.0000 0.0000 0.0000 0.0000 -6.1979 0.0000
# 6 0.0000 0.0000 0.0000 0.0000 0.0000 24.6355
#
#
#
# Elastic Compliance Matrix: (Units=1/GPa)
#
#
# Indices 1 2 3 4 5 6 
#
# 1 0.017552 -0.003577 -0.005540 0.000000 0.000000 0.000000
# 2 -0.003577 0.009861 -0.001881 0.000000 0.000000 0.000000
# 3 -0.005540 -0.001881 0.011095 0.000000 0.000000 0.000000
# 4 0.000000 0.000000 0.000000 0.105581 0.000000 0.000000
# 5 0.000000 0.000000 0.000000 0.000000 -0.161345 0.000000
# 6 0.000000 0.000000 0.000000 0.000000 0.000000 0.040592
#
#
# Mechanical properties :
#
#
# Convention : Reuss Voigt Hill
#
# Bulk Modulus (GPa) = 60.55985 62.96017 61.76001
# Shear Modulus (GPa) = 98.35820 18.82042 58.58931
#
# Velocity S-wave (km/s) = 7.80889 3.41585 6.02689
# Velocity P-wave (km/s) = 10.90183 7.38854 9.31237
#
# Compressibility (1/GPa) = 0.01651259
#
# Stress axis : x y z
#
# Youngs Moduli (GPa) = 56.97516 101.41282 90.12966
#
# Poissons Ratio (x) = 0.36272 0.49929
# Poissons Ratio (y) = 0.20378 0.16953
# Poissons Ratio (z) = 0.31563 0.19076
#
# Static dielectric constant tensor:
#      x y z
#    x 2.900920 0.000000 0.000000 
#    y 0.000000 3.242350 0.000000 
#    z 0.000000 0.000000 2.195360 
# 
# 
# High freq. dielectric constant tensor:
#      x y z
#    x 1.581690 0.000000 0.000000 
#    y 0.000000 1.640770 0.000000 
#    z 0.000000 0.000000 1.623800 
# 
# From -- ./inp_files/57145.got.cif
#   From: 2010.03.12/outbox.cif.g09.slc.cpg/sg65_29_cif.got.tgz:57145.got - 2010.04.10 20:52:16.
