data_PCOD8274888
_publ_section_title
;
Structure prediction by ZEFSAII (Michael W. Deem and Ramdas Pophale) SiO2 
 PCOD8274888
Probable space group: C M M M
;
_chemical_formula_sum "Si O2"
_cell_formula_units_Z 104
_cell_length_a 22.740830
_cell_length_b 14.316574
_cell_length_c 22.881858
_cell_angle_alpha 90.000000
_cell_angle_beta 90.000000
_cell_angle_gamma 90.000000
_cell_volume 7449.664254
_symmetry_space_group_name_H-M "C M M M"
_symmetry_group_IT_number 65
_symmetry_cell_setting 'orthorhombic'
loop_
_space_group_symop_operation_xyz
x,y,z
-x,-y,z
x,-y,-z
-x,y,-z
-x,-y,-z
x,y,-z
-x,y,z
x,-y,z
1/2+x,1/2+y,z
1/2-x,1/2-y,z
1/2+x,1/2-y,-z
1/2-x,1/2+y,-z
1/2-x,1/2-y,-z
1/2+x,1/2+y,-z
1/2-x,1/2+y,z
1/2+x,1/2-y,z
loop_
_atom_site_type_symbol
_atom_site_label
_atom_site_fract_x
_atom_site_fract_y
_atom_site_fract_z
Si Si1 0.068816 0.608406 0.855865
Si Si2 0.930103 0.101192 0.565577
Si Si3 0.839691 0.287904 0.930832
Si Si4 0.429983 0.895009 0.500000
Si Si5 0.069914 0.603675 0.274726
Si Si6 0.070135 0.289160 0.614475
Si Si7 0.223922 0.895335 0.930820
O O1 0.083543 0.500000 0.869094
O O2 0.101300 0.677614 0.899982
O O3 0.089443 0.635107 0.790066
O O4 0.000000 0.626568 0.864068
O O5 0.906435 0.119277 0.500000
O O6 0.907374 0.182324 0.608627
O O7 0.000000 0.103259 0.563441
O O8 0.908000 0.000000 0.588508
O O9 0.825539 0.180476 0.911590
O O10 0.787207 0.356584 0.910467
O O11 0.849076 0.293437 0.000000
O O12 0.500000 0.891504 0.500000
O O13 0.405706 0.845752 0.441485
O O14 0.406120 0.000000 0.500000
O O15 0.093791 0.500000 0.287934
O O16 0.096258 0.671211 0.324793
O O17 0.000000 0.602590 0.277151
O O18 0.000000 0.295433 0.615558
O O19 0.212421 0.000000 0.904587
O O20 0.223896 0.901356 0.000000
#
# Coordination Sequence:
#
# PCOD8274888 Si02
#       7
#    16  16  16   8  16  16  16
#     4   9  17  27  37  51  73 101 131 159 187 220
#     4   8  12  17  24  35  51  68  89 123 169 214
#     4   9  16  25  40  61  80  98 122 153 188 226
#     4   9  14  16  21  37  55  67  88 129 173 205
#     4   8  14  23  32  41  57  85 117 145 174 212
#     4   9  13  18  27  38  52  73 101 135 174 207
#     4   8  14  25  41  61  82  99 115 142 186 235
#
# _framework density 13.960361000000001
#
# number of rings (size 3 to 8) (size 9 to 14) (size 15 to 20)
#    0.000    3.462    0.769    3.231    0.000    3.077 
#    0.000    0.769    0.000    1.385    0.000    4.308 
#    0.000    0.000    0.000    0.000    0.000    3.077 
#
# Total GULP energy -644189.982802 kJ/mol
# GULP energy per Si atom -12388.268900 kJ/mol
# Density = 1.392859 g / cm^3
# Si number density = 13.960361 Si / 1000 Ang^3
#
#
#
# Elastic Constant Matrix: (Units=GPa)
#
#
# Indices 1 2 3 4 5 6 
#
# 1 27.4032 29.4587 23.1212 0.0000 0.0000 0.0000
# 2 29.4587 130.3097 52.7313 0.0000 0.0000 0.0000
# 3 23.1212 52.7313 70.3434 0.0000 0.0000 0.0000
# 4 0.0000 0.0000 0.0000 19.6526 0.0000 0.0000
# 5 0.0000 0.0000 0.0000 0.0000 0.3877 0.0000
# 6 0.0000 0.0000 0.0000 0.0000 0.0000 13.0558
#
#
#
# Elastic Compliance Matrix: (Units=1/GPa)
#
#
# Indices 1 2 3 4 5 6 
#
# 1 0.054995 -0.007346 -0.012569 0.000000 0.000000 0.000000
# 2 -0.007346 0.011997 -0.006579 0.000000 0.000000 0.000000
# 3 -0.012569 -0.006579 0.023279 0.000000 0.000000 0.000000
# 4 0.000000 0.000000 0.000000 0.050884 0.000000 0.000000
# 5 0.000000 0.000000 0.000000 0.000000 2.579518 0.000000
# 6 0.000000 0.000000 0.000000 0.000000 0.000000 0.076595
#
#
# Mechanical properties :
#
#
# Convention : Reuss Voigt Hill
#
# Bulk Modulus (GPa) = 26.82241 48.74208 37.78225
# Shear Modulus (GPa) = 1.74661 14.80220 8.27441
#
# Velocity S-wave (km/s) = 1.11975 3.25976 2.43720
# Velocity P-wave (km/s) = 4.57458 7.01131 5.91968
#
# Compressibility (1/GPa) = 0.03728225
#
# Stress axis : x y z
#
# Youngs Moduli (GPa) = 18.18360 83.35537 42.95747
#
# Poissons Ratio (x) = 0.61234 0.53995
# Poissons Ratio (y) = 0.13358 0.28260
# Poissons Ratio (z) = 0.22856 0.54836
#
# Static dielectric constant tensor:
#      x y z
#    x 2.171470 0.000000 0.000000 
#    y 0.000000 3.165360 0.000000 
#    z 0.000000 0.000000 2.731110 
# 
# 
# High freq. dielectric constant tensor:
#      x y z
#    x 1.459760 0.000000 0.000000 
#    y 0.000000 1.543400 0.000000 
#    z 0.000000 0.000000 1.517750 
# 
# From -- ./inp_files/71614.got.cif
#   From: 2010.03.12/outbox.cif.g09.slc.cpg/sg65_36_cif.got.tgz:71614.got - 2010.04.10 20:52:16.
