data_PCOD8274620
_publ_section_title
;
Structure prediction by ZEFSAII (Michael W. Deem and Ramdas Pophale) SiO2 
 PCOD8274620
Probable space group: C M M M
;
_chemical_formula_sum "Si O2"
_cell_formula_units_Z 64
_cell_length_a 8.620908
_cell_length_b 15.345678
_cell_length_c 24.402462
_cell_angle_alpha 90.000000
_cell_angle_beta 90.000000
_cell_angle_gamma 90.000000
_cell_volume 3228.291456
_symmetry_space_group_name_H-M "C M M M"
_symmetry_group_IT_number 65
_symmetry_cell_setting 'orthorhombic'
loop_
_space_group_symop_operation_xyz
x,y,z
-x,-y,z
x,-y,-z
-x,y,-z
-x,-y,-z
x,y,-z
-x,y,z
x,-y,z
1/2+x,1/2+y,z
1/2-x,1/2-y,z
1/2+x,1/2-y,-z
1/2-x,1/2+y,-z
1/2-x,1/2-y,-z
1/2+x,1/2+y,-z
1/2-x,1/2+y,z
1/2+x,1/2-y,z
loop_
_atom_site_type_symbol
_atom_site_label
_atom_site_fract_x
_atom_site_fract_y
_atom_site_fract_z
Si Si1 0.315816 0.000000 0.318421
Si Si2 0.318954 0.102615 0.500000
Si Si3 0.315588 0.000000 0.193559
Si Si4 0.316145 0.341304 0.386005
Si Si5 0.818165 0.344160 0.000000
Si Si6 0.683875 0.153947 0.118599
O O1 0.258148 0.000000 0.255871
O O2 0.249917 0.914919 0.346861
O O3 0.500000 0.000000 0.324100
O O4 0.500000 0.125932 0.500000
O O5 0.239124 0.144559 0.447724
O O6 0.290494 0.000000 0.500000
O O7 0.250426 0.913293 0.163681
O O8 0.500000 0.000000 0.190116
O O9 0.500000 0.341799 0.383623
O O10 0.250000 0.250000 0.364055
O O11 0.750000 0.250000 0.000000
O O12 0.766726 0.386150 0.941663
O O13 0.000000 0.337001 0.000000
O O14 0.500000 0.161393 0.122804
O O15 0.750000 0.250000 0.129645
#
# Coordination Sequence:
#
# PCOD8274620 Si02
#       6
#     8   8   8  16   8  16
#     4  11  23  42  61  83 116 154 198 249 296 343
#     4  11  22  39  66  96 129 161 189 231 288 344
#     4   9  20  36  56  79 108 144 187 235 284 335
#     4  12  25  42  65  92 122 157 197 240 289 346
#     4   8  14  25  47  75 106 138 176 221 273 335
#     4   9  17  32  52  78 108 143 181 226 280 336
#
# _framework density 19.824726999999999
#
# number of rings (size 3 to 8) (size 9 to 14) (size 15 to 20)
#    0.000    1.875    1.250    3.375    0.000    2.000 
#    0.000    8.125    0.000    0.000    0.000    8.750 
#    0.000    0.000    0.000    0.000    0.000    0.000 
#
# Total GULP energy -396607.031733 kJ/mol
# GULP energy per Si atom -12393.969742 kJ/mol
# Density = 1.977960 g / cm^3
# Si number density = 19.824727 Si / 1000 Ang^3
#
#
#
# Elastic Constant Matrix: (Units=GPa)
#
#
# Indices 1 2 3 4 5 6 
#
# 1 80.4125 49.0992 45.4731 0.0000 0.0000 0.0000
# 2 49.0992 161.1098 96.3867 0.0000 0.0000 0.0000
# 3 45.4731 96.3867 185.7118 0.0000 0.0000 0.0000
# 4 0.0000 0.0000 0.0000 87.5903 0.0000 0.0000
# 5 0.0000 0.0000 0.0000 0.0000 2.3581 0.0000
# 6 0.0000 0.0000 0.0000 0.0000 0.0000 30.8456
#
#
#
# Elastic Compliance Matrix: (Units=1/GPa)
#
#
# Indices 1 2 3 4 5 6 
#
# 1 0.015767 -0.003619 -0.001982 0.000000 0.000000 0.000000
# 2 -0.003619 0.009833 -0.004217 0.000000 0.000000 0.000000
# 3 -0.001982 -0.004217 0.008059 0.000000 0.000000 0.000000
# 4 0.000000 0.000000 0.000000 0.011417 0.000000 0.000000
# 5 0.000000 0.000000 0.000000 0.000000 0.424066 0.000000
# 6 0.000000 0.000000 0.000000 0.000000 0.000000 0.032420
#
#
# Mechanical properties :
#
#
# Convention : Reuss Voigt Hill
#
# Bulk Modulus (GPa) = 71.32021 89.90580 80.61301
# Shear Modulus (GPa) = 9.50803 39.91047 24.70925
#
# Velocity S-wave (km/s) = 2.19236 4.49170 3.53425
# Velocity P-wave (km/s) = 6.51629 8.50584 7.57665
#
# Compressibility (1/GPa) = 0.01402127
#
# Stress axis : x y z
#
# Youngs Moduli (GPa) = 63.42522 101.69925 124.08702
#
# Poissons Ratio (x) = 0.36806 0.24597
# Poissons Ratio (y) = 0.22954 0.52331
# Poissons Ratio (z) = 0.12572 0.42889
#
# Static dielectric constant tensor:
#      x y z
#    x 3.544320 0.000000 0.000000 
#    y 0.000000 3.734820 0.000000 
#    z 0.000000 0.000000 4.177530 
# 
# 
# High freq. dielectric constant tensor:
#      x y z
#    x 1.762150 0.000000 0.000000 
#    y 0.000000 1.776850 0.000000 
#    z 0.000000 0.000000 1.783970 
# 
# From -- ./inp_files/66863.got.cif
#   From: 2010.03.12/outbox.cif.g09.slc.cpg/sg65_34_cif.got.tgz:66863.got - 2010.04.10 20:52:16.
