data_PCOD8274168
_publ_section_title
;
Structure prediction by ZEFSAII (Michael W. Deem and Ramdas Pophale) SiO2 
 PCOD8274168
Probable space group: C M M M
;
_chemical_formula_sum "Si O2"
_cell_formula_units_Z 80
_cell_length_a 22.904050
_cell_length_b 20.894241
_cell_length_c 10.103250
_cell_angle_alpha 90.000000
_cell_angle_beta 90.000000
_cell_angle_gamma 90.000000
_cell_volume 4835.039009
_symmetry_space_group_name_H-M "C M M M"
_symmetry_group_IT_number 65
_symmetry_cell_setting 'orthorhombic'
loop_
_space_group_symop_operation_xyz
x,y,z
-x,-y,z
x,-y,-z
-x,y,-z
-x,-y,-z
x,y,-z
-x,y,z
x,-y,z
1/2+x,1/2+y,z
1/2-x,1/2-y,z
1/2+x,1/2-y,-z
1/2-x,1/2+y,-z
1/2-x,1/2-y,-z
1/2+x,1/2+y,-z
1/2-x,1/2+y,z
1/2+x,1/2-y,z
loop_
_atom_site_type_symbol
_atom_site_label
_atom_site_fract_x
_atom_site_fract_y
_atom_site_fract_z
Si Si1 0.616486 0.073432 0.500000
Si Si2 0.244877 0.926336 0.500000
Si Si3 0.434158 0.146916 0.749614
Si Si4 0.229054 0.148197 0.237539
Si Si5 0.769585 0.425774 0.000000
Si Si6 0.599199 0.075190 0.000000
Si Si7 0.164211 0.733510 0.158512
O O1 0.685735 0.074053 0.500000
O O2 0.594214 0.110379 0.372394
O O3 0.593489 0.000000 0.500000
O O4 0.220171 0.887613 0.624577
O O5 0.222388 0.000000 0.500000
O O6 0.500000 0.167690 0.714653
O O7 0.434962 0.098001 0.871270
O O8 0.399122 0.210807 0.791568
O O9 0.232763 0.093379 0.127568
O O10 0.173643 0.193831 0.208493
O O11 0.288168 0.189343 0.230844
O O12 0.779495 0.500000 0.000000
O O13 0.835000 0.394566 0.000000
O O14 0.601048 0.000000 0.000000
O O15 0.171603 0.730924 0.000000
#
# Coordination Sequence:
#
# PCOD8274168 Si02
#       7
#     8   8  16  16   8   8  16
#     4  11  23  39  51  69 107 148 186 221 257 301
#     4  11  22  35  53  81 111 136 173 220 264 310
#     4  12  23  36  52  72 102 139 186 226 258 297
#     4  11  19  34  54  75 102 137 172 211 268 324
#     4  11  18  31  53  75 101 136 175 216 260 312
#     4  11  21  33  49  71  99 136 184 225 259 295
#     4  11  20  35  55  76 103 134 181 221 266 313
#
# _framework density 16.545884999999998
#
# number of rings (size 3 to 8) (size 9 to 14) (size 15 to 20)
#    0.000    0.800    7.000    2.400    0.000    8.000 
#    0.000    0.000    0.000    0.000    0.000    0.000 
#    0.000    4.800    0.000    0.000    0.000    0.000 
#
# Total GULP energy -496017.331169 kJ/mol
# GULP energy per Si atom -12400.433279 kJ/mol
# Density = 1.650823 g / cm^3
# Si number density = 16.545885 Si / 1000 Ang^3
#
#
#
# Elastic Constant Matrix: (Units=GPa)
#
#
# Indices 1 2 3 4 5 6 
#
# 1 57.4030 39.0847 11.5841 0.0000 0.0000 0.0000
# 2 39.0847 88.3502 40.1187 0.0000 0.0000 0.0000
# 3 11.5841 40.1187 116.2052 0.0000 0.0000 0.0000
# 4 0.0000 0.0000 0.0000 -46.1271 0.0000 0.0000
# 5 0.0000 0.0000 0.0000 0.0000 2.9319 0.0000
# 6 0.0000 0.0000 0.0000 0.0000 0.0000 21.0587
#
#
#
# Elastic Compliance Matrix: (Units=1/GPa)
#
#
# Indices 1 2 3 4 5 6 
#
# 1 0.025173 -0.011855 0.001583 0.000000 0.000000 0.000000
# 2 -0.011855 0.019006 -0.005380 0.000000 0.000000 0.000000
# 3 0.001583 -0.005380 0.010305 0.000000 0.000000 0.000000
# 4 0.000000 0.000000 0.000000 -0.021679 0.000000 0.000000
# 5 0.000000 0.000000 0.000000 0.000000 0.341077 0.000000
# 6 0.000000 0.000000 0.000000 0.000000 0.000000 0.047486
#
#
# Mechanical properties :
#
#
# Convention : Reuss Voigt Hill
#
# Bulk Modulus (GPa) = 43.13883 49.28149 46.21016
# Shear Modulus (GPa) = 10.86015 6.98409 8.92212
#
# Velocity S-wave (km/s) = 2.56474 2.05675 2.32466
# Velocity P-wave (km/s) = 5.90757 5.95732 5.93250
#
# Compressibility (1/GPa) = 0.02318097
#
# Stress axis : x y z
#
# Youngs Moduli (GPa) = 39.72483 52.61471 97.04062
#
# Poissons Ratio (x) = 0.62376 -0.15366
# Poissons Ratio (y) = 0.47095 0.52206
# Poissons Ratio (z) = -0.06290 0.28306
#
# Static dielectric constant tensor:
#      x y z
#    x 2.992910 0.000000 0.000000 
#    y 0.000000 3.216520 0.000000 
#    z 0.000000 0.000000 3.035400 
# 
# 
# High freq. dielectric constant tensor:
#      x y z
#    x 1.597170 0.000000 0.000000 
#    y 0.000000 1.634940 0.000000 
#    z 0.000000 0.000000 1.653330 
# 
# From -- ./inp_files/13900.got.cif
#   From: 2010.03.12/outbox.cif.g09.slc.cpg/sg65_7_cif.got.tgz:13900.got - 2010.04.10 20:52:16.
