data_PCOD8274071
_publ_section_title
;
Structure prediction by ZEFSAII (Michael W. Deem and Ramdas Pophale) SiO2 
 PCOD8274071
Probable space group: C M M M
;
_chemical_formula_sum "Si O2"
_cell_formula_units_Z 66
_cell_length_a 21.947700
_cell_length_b 17.369158
_cell_length_c 8.754292
_cell_angle_alpha 90.000000
_cell_angle_beta 90.000000
_cell_angle_gamma 90.000000
_cell_volume 3337.250521
_symmetry_space_group_name_H-M "C M M M"
_symmetry_group_IT_number 65
_symmetry_cell_setting 'orthorhombic'
loop_
_space_group_symop_operation_xyz
x,y,z
-x,-y,z
x,-y,-z
-x,y,-z
-x,-y,-z
x,y,-z
-x,y,z
x,-y,z
1/2+x,1/2+y,z
1/2-x,1/2-y,z
1/2+x,1/2-y,-z
1/2-x,1/2+y,-z
1/2-x,1/2-y,-z
1/2+x,1/2+y,-z
1/2-x,1/2+y,z
1/2+x,1/2-y,z
loop_
_atom_site_type_symbol
_atom_site_label
_atom_site_fract_x
_atom_site_fract_y
_atom_site_fract_z
Si Si1 0.623098 0.795177 0.819613
Si Si2 0.273382 0.912752 0.174620
Si Si3 0.571958 0.500000 0.824093
Si Si4 0.500000 0.000000 0.500000
Si Si5 0.500000 0.153806 0.334955
Si Si6 0.350665 0.631296 0.679651
O O1 0.672576 0.858231 0.767365
O O2 0.558303 0.821159 0.759887
O O3 0.643399 0.715069 0.749746
O O4 0.620167 0.787166 0.000000
O O5 0.215314 0.902345 0.281665
O O6 0.297193 0.000000 0.189536
O O7 0.255052 0.893369 0.000000
O O8 0.500000 0.500000 0.805422
O O9 0.597231 0.423433 0.745972
O O10 0.592461 0.500000 0.000000
O O11 0.500000 0.062183 0.361549
O O12 0.500000 0.197468 0.500000
O O13 0.358845 0.635627 0.500000
#
# Coordination Sequence:
#
# PCOD8274071 Si02
#       6
#    16  16   8   2   8  16
#     4  11  24  42  67  96 130 174 222 270 322 387
#     4  10  22  41  66  94 128 172 220 270 322 385
#     4  11  25  45  70  95 127 172 220 270 323 392
#     4   8  24  44  66  88 136 170 206 268 334 368
#     4  10  23  43  65  96 130 173 210 270 328 385
#     4  12  25  42  65  98 133 171 214 270 331 391
#
# _framework density 19.776759999999999
#
# number of rings (size 3 to 8) (size 9 to 14) (size 15 to 20)
#    0.364    0.848    1.212    4.364    3.394    5.818 
#    0.000    0.606    0.000    0.000    0.000    0.000 
#    0.000    0.000    0.000    0.000    0.000    0.000 
#
# Total GULP energy -408830.134018 kJ/mol
# GULP energy per Si atom -12388.791940 kJ/mol
# Density = 1.973175 g / cm^3
# Si number density = 19.776760 Si / 1000 Ang^3
#
#
#
# Elastic Constant Matrix: (Units=GPa)
#
#
# Indices 1 2 3 4 5 6 
#
# 1 103.8681 43.8849 39.4017 0.0000 0.0000 0.0000
# 2 43.8849 148.5258 45.5482 0.0000 0.0000 0.0000
# 3 39.4017 45.5482 111.4122 0.0000 0.0000 0.0000
# 4 0.0000 0.0000 0.0000 26.7620 0.0000 0.0000
# 5 0.0000 0.0000 0.0000 0.0000 -30.0360 0.0000
# 6 0.0000 0.0000 0.0000 0.0000 0.0000 77.4072
#
#
#
# Elastic Compliance Matrix: (Units=1/GPa)
#
#
# Indices 1 2 3 4 5 6 
#
# 1 0.011906 -0.002546 -0.003170 0.000000 0.000000 0.000000
# 2 -0.002546 0.008242 -0.002469 0.000000 0.000000 0.000000
# 3 -0.003170 -0.002469 0.011106 0.000000 0.000000 0.000000
# 4 0.000000 0.000000 0.000000 0.037366 0.000000 0.000000
# 5 0.000000 0.000000 0.000000 0.000000 -0.033293 0.000000
# 6 0.000000 0.000000 0.000000 0.000000 0.000000 0.012919
#
#
# Mechanical properties :
#
#
# Convention : Reuss Voigt Hill
#
# Bulk Modulus (GPa) = 67.18398 69.05287 68.11843
# Shear Modulus (GPa) = 71.86289 30.49138 51.17713
#
# Velocity S-wave (km/s) = 6.03456 3.93081 5.09250
# Velocity P-wave (km/s) = 9.08843 7.45611 8.31243
#
# Compressibility (1/GPa) = 0.01488450
#
# Stress axis : x y z
#
# Youngs Moduli (GPa) = 83.99420 121.32553 90.03961
#
# Poissons Ratio (x) = 0.30886 0.28540
# Poissons Ratio (y) = 0.21382 0.22234
# Poissons Ratio (z) = 0.26624 0.29960
#
# Static dielectric constant tensor:
#      x y z
#    x 3.643830 0.000000 0.000000 
#    y 0.000000 3.910010 0.000000 
#    z 0.000000 0.000000 3.735510 
# 
# 
# High freq. dielectric constant tensor:
#      x y z
#    x 1.770090 0.000000 0.000000 
#    y 0.000000 1.792460 0.000000 
#    z 0.000000 0.000000 1.782940 
# 
# From -- ./inp_files/10953.got.cif
#   From: 2010.03.12/outbox.cif.g09.slc.cpg/sg65_6_cif.got.tgz:10953.got - 2010.04.10 20:52:16.
