data_PCOD8274566
_publ_section_title
;
Structure prediction by ZEFSAII (Michael W. Deem and Ramdas Pophale) SiO2 
 PCOD8274566
Probable space group: C M M M
;
_chemical_formula_sum "Si O2"
_cell_formula_units_Z 64
_cell_length_a 9.930324
_cell_length_b 17.185029
_cell_length_c 19.126006
_cell_angle_alpha 90.000000
_cell_angle_beta 90.000000
_cell_angle_gamma 90.000000
_cell_volume 3263.908503
_symmetry_space_group_name_H-M "C M M M"
_symmetry_group_IT_number 65
_symmetry_cell_setting 'orthorhombic'
loop_
_space_group_symop_operation_xyz
x,y,z
-x,-y,z
x,-y,-z
-x,y,-z
-x,-y,-z
x,y,-z
-x,y,z
x,-y,z
1/2+x,1/2+y,z
1/2-x,1/2-y,z
1/2+x,1/2-y,-z
1/2-x,1/2+y,-z
1/2-x,1/2-y,-z
1/2+x,1/2+y,-z
1/2-x,1/2+y,z
1/2+x,1/2-y,z
loop_
_atom_site_type_symbol
_atom_site_label
_atom_site_fract_x
_atom_site_fract_y
_atom_site_fract_z
Si Si1 0.500000 0.366724 0.416818
Si Si2 0.000000 0.686673 0.581642
Si Si3 0.849295 0.092608 0.921800
Si Si4 0.848419 0.591772 0.804764
Si Si5 0.773411 0.411893 0.349090
O O1 0.500000 0.380675 0.500000
O O2 0.500000 0.276386 0.396870
O O3 0.626287 0.408070 0.381564
O O4 0.866415 0.647217 0.609688
O O5 0.000000 0.676234 0.500000
O O6 0.741758 0.128413 0.867100
O O7 0.000000 0.122563 0.903606
O O8 0.848244 0.000000 0.917260
O O9 0.808438 0.119452 0.000000
O O10 0.857487 0.500000 0.814774
O O11 0.774985 0.612792 0.732129
O O12 0.000000 0.627063 0.806451
O O13 0.828822 0.500000 0.356783
#
# Coordination Sequence:
#
# PCOD8274566 Si02
#       5
#     8   8  16  16  16
#     4  11  25  41  57  81 112 145 184 232 285 337
#     4  11  23  41  61  79 108 149 186 226 281 339
#     4   8  14  24  40  65 100 142 179 211 261 326
#     4   9  17  29  45  70 104 139 177 222 271 320
#     4  11  22  37  58  85 113 144 185 233 280 331
#
# _framework density 19.608391999999998
#
# number of rings (size 3 to 8) (size 9 to 14) (size 15 to 20)
#    0.000    2.250    1.250    3.000    1.750    5.500 
#    0.000    2.500    0.000    0.000    0.000    0.000 
#    0.000    6.000    0.000    0.000    0.000    0.000 
#
# Total GULP energy -396748.917098 kJ/mol
# GULP energy per Si atom -12398.403659 kJ/mol
# Density = 1.956376 g / cm^3
# Si number density = 19.608392 Si / 1000 Ang^3
#
#
#
# Elastic Constant Matrix: (Units=GPa)
#
#
# Indices 1 2 3 4 5 6 
#
# 1 124.7155 11.0602 58.0323 0.0000 0.0000 0.0000
# 2 11.0602 36.2860 36.8978 0.0000 0.0000 0.0000
# 3 58.0323 36.8978 108.5895 0.0000 0.0000 0.0000
# 4 0.0000 0.0000 0.0000 -3.1809 0.0000 0.0000
# 5 0.0000 0.0000 0.0000 0.0000 48.8877 0.0000
# 6 0.0000 0.0000 0.0000 0.0000 0.0000 20.3825
#
#
#
# Elastic Compliance Matrix: (Units=1/GPa)
#
#
# Indices 1 2 3 4 5 6 
#
# 1 0.011044 0.004027 -0.007271 0.000000 0.000000 0.000000
# 2 0.004027 0.043576 -0.016959 0.000000 0.000000 0.000000
# 3 -0.007271 -0.016959 0.018857 0.000000 0.000000 0.000000
# 4 0.000000 0.000000 0.000000 -0.314373 0.000000 0.000000
# 5 0.000000 0.000000 0.000000 0.000000 0.020455 0.000000
# 6 0.000000 0.000000 0.000000 0.000000 0.000000 0.049062
#
#
# Mechanical properties :
#
#
# Convention : Reuss Voigt Hill
#
# Bulk Modulus (GPa) = 30.23679 53.50794 41.87237
# Shear Modulus (GPa) = -41.68418 24.12456 -8.77981
#
# Velocity S-wave (km/s) = -4.61568 3.51139 -2.11832
# Velocity P-wave (km/s) = 3.59891 6.61720 3.92653
#
# Compressibility (1/GPa) = 0.03307229
#
# Stress axis : x y z
#
# Youngs Moduli (GPa) = 90.54499 22.94827 53.03079
#
# Poissons Ratio (x) = -0.09241 0.38556
# Poissons Ratio (y) = -0.36460 0.89934
# Poissons Ratio (z) = 0.65831 0.38918
#
# Static dielectric constant tensor:
#      x y z
#    x 3.911130 0.000000 0.000000 
#    y 0.000000 3.211560 0.000000 
#    z 0.000000 0.000000 3.839970 
# 
# 
# High freq. dielectric constant tensor:
#      x y z
#    x 1.774760 0.000000 0.000000 
#    y 0.000000 1.714840 0.000000 
#    z 0.000000 0.000000 1.776430 
# 
# From -- ./inp_files/49081.got.cif
#   From: 2010.03.12/outbox.cif.g09.slc.cpg/sg65_25_cif.got.tgz:49081.got - 2010.04.10 20:52:16.
