data_PCOD8274558
_publ_section_title
;
Structure prediction by ZEFSAII (Michael W. Deem and Ramdas Pophale) SiO2 
 PCOD8274558
Probable space group: C M M M
;
_chemical_formula_sum "Si O2"
_cell_formula_units_Z 88
_cell_length_a 8.792419
_cell_length_b 24.428488
_cell_length_c 22.636662
_cell_angle_alpha 90.000000
_cell_angle_beta 90.000000
_cell_angle_gamma 90.000000
_cell_volume 4862.026812
_symmetry_space_group_name_H-M "C M M M"
_symmetry_group_IT_number 65
_symmetry_cell_setting 'orthorhombic'
loop_
_space_group_symop_operation_xyz
x,y,z
-x,-y,z
x,-y,-z
-x,y,-z
-x,-y,-z
x,y,-z
-x,y,z
x,-y,z
1/2+x,1/2+y,z
1/2-x,1/2-y,z
1/2+x,1/2-y,-z
1/2-x,1/2+y,-z
1/2-x,1/2-y,-z
1/2+x,1/2+y,-z
1/2-x,1/2+y,z
1/2+x,1/2-y,z
loop_
_atom_site_type_symbol
_atom_site_label
_atom_site_fract_x
_atom_site_fract_y
_atom_site_fract_z
Si Si1 0.820041 0.609253 0.066428
Si Si2 0.179534 0.000000 0.569497
Si Si3 0.832184 0.000000 0.930100
Si Si4 0.680021 0.193546 0.838232
Si Si5 0.681656 0.689136 0.500000
Si Si6 0.820246 0.615188 0.398873
Si Si7 0.677212 0.193278 0.294123
O O1 0.760046 0.552239 0.091548
O O2 0.754739 0.652065 0.113342
O O3 0.000000 0.607577 0.065965
O O4 0.759459 0.622227 0.000000
O O5 0.253066 0.053974 0.598580
O O6 0.215587 0.000000 0.500000
O O7 0.000000 0.000000 0.581618
O O8 0.000000 0.000000 0.901803
O O9 0.842502 0.000000 0.000000
O O10 0.500000 0.196288 0.840896
O O11 0.750000 0.250000 0.858657
O O12 0.735360 0.178489 0.771880
O O13 0.500000 0.693021 0.500000
O O14 0.750000 0.750000 0.500000
O O15 0.737418 0.655480 0.443823
O O16 0.784222 0.641088 0.334844
O O17 0.000000 0.613072 0.412437
O O18 0.500000 0.205234 0.294206
O O19 0.750000 0.250000 0.317545
#
# Coordination Sequence:
#
# PCOD8274558 Si02
#       7
#    16   8   8  16   8  16  16
#     4   9  17  30  49  72  99 134 173 211 256 310
#     4  11  23  39  58  81 109 143 175 209 257 313
#     4   9  17  29  46  69  96 126 163 209 257 302
#     4   9  18  33  51  73 103 136 171 211 256 308
#     4  12  24  37  54  81 112 138 168 210 258 304
#     4  11  22  37  58  81 105 137 176 215 256 306
#     4   9  19  35  55  78 103 135 173 213 259 306
#
# _framework density 18.099447999999999
#
# number of rings (size 3 to 8) (size 9 to 14) (size 15 to 20)
#    0.000    2.182    0.909    2.455    0.000    5.455 
#    0.000    0.909    0.000    5.455    0.000    0.000 
#    0.000    0.000    0.000    0.000    0.000    0.000 
#
# Total GULP energy -545458.020165 kJ/mol
# GULP energy per Si atom -12396.773186 kJ/mol
# Density = 1.805825 g / cm^3
# Si number density = 18.099448 Si / 1000 Ang^3
#
#
#
# Elastic Constant Matrix: (Units=GPa)
#
#
# Indices 1 2 3 4 5 6 
#
# 1 57.7377 50.9916 37.6266 0.0000 0.0000 0.0000
# 2 50.9916 180.7733 88.8245 0.0000 0.0000 0.0000
# 3 37.6266 88.8245 102.1259 0.0000 0.0000 0.0000
# 4 0.0000 0.0000 0.0000 21.9168 0.0000 0.0000
# 5 0.0000 0.0000 0.0000 0.0000 15.4266 0.0000
# 6 0.0000 0.0000 0.0000 0.0000 0.0000 35.2761
#
#
#
# Elastic Compliance Matrix: (Units=1/GPa)
#
#
# Indices 1 2 3 4 5 6 
#
# 1 0.024599 -0.004341 -0.005288 0.000000 0.000000 0.000000
# 2 -0.004341 0.010426 -0.007469 0.000000 0.000000 0.000000
# 3 -0.005288 -0.007469 0.018236 0.000000 0.000000 0.000000
# 4 0.000000 0.000000 0.000000 0.045627 0.000000 0.000000
# 5 0.000000 0.000000 0.000000 0.000000 0.064823 0.000000
# 6 0.000000 0.000000 0.000000 0.000000 0.000000 0.028348
#
#
# Mechanical properties :
#
#
# Convention : Reuss Voigt Hill
#
# Bulk Modulus (GPa) = 52.44770 77.28027 64.86399
# Shear Modulus (GPa) = 21.49522 25.40352 23.44937
#
# Velocity S-wave (km/s) = 3.44992 3.75047 3.60333
# Velocity P-wave (km/s) = 6.70147 7.84506 7.29571
#
# Compressibility (1/GPa) = 0.01906661
#
# Stress axis : x y z
#
# Youngs Moduli (GPa) = 40.65183 95.91358 54.83594
#
# Poissons Ratio (x) = 0.41631 0.28997
# Poissons Ratio (y) = 0.17645 0.40956
# Poissons Ratio (z) = 0.21497 0.71637
#
# Static dielectric constant tensor:
#      x y z
#    x 3.383250 0.000000 0.000000 
#    y 0.000000 3.491750 0.000000 
#    z 0.000000 0.000000 3.635260 
# 
# 
# High freq. dielectric constant tensor:
#      x y z
#    x 1.702870 0.000000 0.000000 
#    y 0.000000 1.706150 0.000000 
#    z 0.000000 0.000000 1.693560 
# 
# From -- ./inp_files/67668.got.cif
#   From: 2010.03.12/outbox.cif.g09.slc.cpg/sg65_34_cif.got.tgz:67668.got - 2010.04.10 20:52:16.
