data_PCOD8274791
_publ_section_title
;
Structure prediction by ZEFSAII (Michael W. Deem and Ramdas Pophale) SiO2 
 PCOD8274791
Probable space group: C M M M
;
_chemical_formula_sum "Si O2"
_cell_formula_units_Z 90
_cell_length_a 23.422249
_cell_length_b 17.224535
_cell_length_c 11.268808
_cell_angle_alpha 90.000000
_cell_angle_beta 90.000000
_cell_angle_gamma 90.000000
_cell_volume 4546.258011
_symmetry_space_group_name_H-M "C M M M"
_symmetry_group_IT_number 65
_symmetry_cell_setting 'orthorhombic'
loop_
_space_group_symop_operation_xyz
x,y,z
-x,-y,z
x,-y,-z
-x,y,-z
-x,-y,-z
x,y,-z
-x,y,z
x,-y,z
1/2+x,1/2+y,z
1/2-x,1/2-y,z
1/2+x,1/2-y,-z
1/2-x,1/2+y,-z
1/2-x,1/2-y,-z
1/2+x,1/2+y,-z
1/2-x,1/2+y,z
1/2+x,1/2-y,z
loop_
_atom_site_type_symbol
_atom_site_label
_atom_site_fract_x
_atom_site_fract_y
_atom_site_fract_z
Si Si1 0.564670 0.205364 0.747654
Si Si2 0.786557 0.409445 0.000000
Si Si3 0.915635 0.644314 0.000000
Si Si4 0.250647 0.659712 0.761733
Si Si5 0.356600 0.087804 0.360018
Si Si6 0.130908 0.150834 0.641239
Si Si7 0.436530 0.500000 0.640640
Si Si8 0.500000 0.000000 0.000000
O O1 0.500000 0.220913 0.706119
O O2 0.568192 0.197901 0.888612
O O3 0.585130 0.123757 0.691224
O O4 0.604657 0.273751 0.701762
O O5 0.749821 0.385938 0.114649
O O6 0.796818 0.500000 0.000000
O O7 0.847774 0.368239 0.000000
O O8 0.949938 0.564309 0.000000
O O9 0.250000 0.750000 0.791061
O O10 0.196083 0.638690 0.683275
O O11 0.305161 0.636075 0.684749
O O12 0.358869 0.089343 0.500000
O O13 0.351447 0.000000 0.311332
O O14 0.130210 0.161732 0.500000
O O15 0.095253 0.076797 0.685085
O O16 0.500000 0.500000 0.695019
O O17 0.438702 0.500000 0.500000
#
# Coordination Sequence:
#
# PCOD8274791 Si02
#       8
#    16   8   8  16  16  16   8   2
#     4  12  25  42  68  97 133 174 225 275 329 391
#     4  12  25  41  67  96 130 172 217 278 337 387
#     4  12  24  43  66  99 130 180 227 276 321 391
#     4  12  24  42  66  94 130 170 221 273 332 395
#     4  11  25  41  62  95 134 174 214 268 335 401
#     4  11  24  42  68  98 132 176 221 276 337 399
#     4   9  20  40  65  93 126 169 223 270 319 388
#     4  12  24  40  72  96 134 182 240 268 318 394
#
# _framework density 19.796502
#
# number of rings (size 3 to 8) (size 9 to 14) (size 15 to 20)
#    0.000    0.622    4.889    2.400    3.733    3.911 
#    0.000    0.889    0.000    0.000    0.000    2.489 
#    0.000    0.000    0.000    0.000    0.000    0.000 
#
# Total GULP energy -557718.197977 kJ/mol
# GULP energy per Si atom -12393.737733 kJ/mol
# Density = 1.975144 g / cm^3
# Si number density = 19.796502 Si / 1000 Ang^3
#
#
#
# Elastic Constant Matrix: (Units=GPa)
#
#
# Indices 1 2 3 4 5 6 
#
# 1 99.8939 45.2539 36.0615 0.0000 0.0000 0.0000
# 2 45.2539 89.0636 32.6622 0.0000 0.0000 0.0000
# 3 36.0615 32.6622 99.9523 0.0000 0.0000 0.0000
# 4 0.0000 0.0000 0.0000 15.1250 0.0000 0.0000
# 5 0.0000 0.0000 0.0000 0.0000 16.9552 0.0000
# 6 0.0000 0.0000 0.0000 0.0000 0.0000 30.9844
#
#
#
# Elastic Compliance Matrix: (Units=1/GPa)
#
#
# Indices 1 2 3 4 5 6 
#
# 1 0.013775 -0.005882 -0.003048 0.000000 0.000000 0.000000
# 2 -0.005882 0.015268 -0.002867 0.000000 0.000000 0.000000
# 3 -0.003048 -0.002867 0.012041 0.000000 0.000000 0.000000
# 4 0.000000 0.000000 0.000000 0.066116 0.000000 0.000000
# 5 0.000000 0.000000 0.000000 0.000000 0.058979 0.000000
# 6 0.000000 0.000000 0.000000 0.000000 0.000000 0.032274
#
#
# Mechanical properties :
#
#
# Convention : Reuss Voigt Hill
#
# Bulk Modulus (GPa) = 57.17201 57.42944 57.30072
# Shear Modulus (GPa) = 21.94160 24.27506 23.10833
#
# Velocity S-wave (km/s) = 3.33281 3.50556 3.42027
# Velocity P-wave (km/s) = 6.61458 6.74226 6.67873
#
# Compressibility (1/GPa) = 0.01749108
#
# Stress axis : x y z
#
# Youngs Moduli (GPa) = 72.59300 65.49684 83.04679
#
# Poissons Ratio (x) = 0.38523 0.25313
# Poissons Ratio (y) = 0.42696 0.23811
# Poissons Ratio (z) = 0.22126 0.18779
#
# Static dielectric constant tensor:
#      x y z
#    x 3.840900 0.000000 0.000000 
#    y 0.000000 3.844850 0.000000 
#    z 0.000000 0.000000 3.621890 
# 
# 
# High freq. dielectric constant tensor:
#      x y z
#    x 1.787590 0.000000 0.000000 
#    y 0.000000 1.785100 0.000000 
#    z 0.000000 0.000000 1.765960 
# 
# From -- ./inp_files/28819.got.cif
#   From: 2010.03.12/outbox.cif.g09.slc.cpg/sg65_15_cif.got.tgz:28819.got - 2010.04.10 20:52:16.
