data_PCOD8274964
_publ_section_title
;
Structure prediction by ZEFSAII (Michael W. Deem and Ramdas Pophale) SiO2 
 PCOD8274964
Probable space group: C M M M
;
_chemical_formula_sum "Si O2"
_cell_formula_units_Z 112
_cell_length_a 30.091287
_cell_length_b 9.491823
_cell_length_c 23.208640
_cell_angle_alpha 90.000000
_cell_angle_beta 90.000000
_cell_angle_gamma 90.000000
_cell_volume 6628.878912
_symmetry_space_group_name_H-M "C M M M"
_symmetry_group_IT_number 65
_symmetry_cell_setting 'orthorhombic'
loop_
_space_group_symop_operation_xyz
x,y,z
-x,-y,z
x,-y,-z
-x,y,-z
-x,-y,-z
x,y,-z
-x,y,z
x,-y,z
1/2+x,1/2+y,z
1/2-x,1/2-y,z
1/2+x,1/2-y,-z
1/2-x,1/2+y,-z
1/2-x,1/2-y,-z
1/2+x,1/2+y,-z
1/2-x,1/2+y,z
1/2+x,1/2-y,z
loop_
_atom_site_type_symbol
_atom_site_label
_atom_site_fract_x
_atom_site_fract_y
_atom_site_fract_z
Si Si1 0.049221 0.331771 0.711077
Si Si2 0.792335 0.663328 0.111954
Si Si3 0.361362 0.165960 0.661063
Si Si4 0.792104 0.662618 0.244683
Si Si5 0.384861 0.167651 0.063744
Si Si6 0.950211 0.666392 0.840334
Si Si7 0.205919 0.664922 0.433914
O O1 0.049602 0.500000 0.712235
O O2 0.088128 0.273763 0.668312
O O3 0.059243 0.275872 0.775890
O O4 0.000000 0.279604 0.690786
O O5 0.781900 0.500000 0.101752
O O6 0.750000 0.750000 0.090199
O O7 0.803247 0.694808 0.178571
O O8 0.834491 0.715620 0.075700
O O9 0.334452 0.209513 0.718160
O O10 0.335559 0.221863 0.604317
O O11 0.364969 0.000000 0.655723
O O12 0.780591 0.500000 0.255025
O O13 0.750000 0.750000 0.266569
O O14 0.417219 0.234422 0.112236
O O15 0.387642 0.000000 0.066884
O O16 0.398793 0.220958 0.000000
O O17 0.943466 0.500000 0.839472
O O18 0.000000 0.706251 0.859300
O O19 0.193021 0.693454 0.500000
O O20 0.215273 0.500000 0.422320
O O21 0.250000 0.750000 0.416378
#
# Coordination Sequence:
#
# PCOD8274964 Si02
#       7
#    16  16  16  16  16  16  16
#     4   8  13  21  34  52  73  98 128 159 190 228
#     4   9  17  28  40  54  74 100 128 157 189 225
#     4   9  15  23  37  55  76 103 131 159 193 229
#     4   9  16  25  38  56  77  99 124 156 192 229
#     4   9  16  24  34  49  70  97 127 156 188 228
#     4   8  13  21  33  50  73  99 125 154 190 232
#     4   9  17  28  41  58  82 110 137 164 193 227
#
# _framework density 16.895768
#
# number of rings (size 3 to 8) (size 9 to 14) (size 15 to 20)
#    0.000    3.286    0.000    2.143    0.000    4.000 
#    0.000    1.429    0.000    0.429    0.000    3.000 
#    0.000    2.857    0.000   18.714    0.000   20.714 
#
# Total GULP energy -693929.695175 kJ/mol
# GULP energy per Si atom -12391.601700 kJ/mol
# Density = 1.685731 g / cm^3
# Si number density = 16.895768 Si / 1000 Ang^3
#
#
#
# Elastic Constant Matrix: (Units=GPa)
#
#
# Indices 1 2 3 4 5 6 
#
# 1 150.6530 20.3805 74.4249 0.0000 0.0000 0.0000
# 2 20.3805 14.9678 11.9043 0.0000 0.0000 0.0000
# 3 74.4249 11.9043 88.4896 0.0000 0.0000 0.0000
# 4 0.0000 0.0000 0.0000 8.7113 0.0000 0.0000
# 5 0.0000 0.0000 0.0000 0.0000 24.4204 0.0000
# 6 0.0000 0.0000 0.0000 0.0000 0.0000 15.1686
#
#
#
# Elastic Compliance Matrix: (Units=1/GPa)
#
#
# Indices 1 2 3 4 5 6 
#
# 1 0.012498 -0.009695 -0.009207 0.000000 0.000000 0.000000
# 2 -0.009695 0.082335 -0.002923 0.000000 0.000000 0.000000
# 3 -0.009207 -0.002923 0.019438 0.000000 0.000000 0.000000
# 4 0.000000 0.000000 0.000000 0.114793 0.000000 0.000000
# 5 0.000000 0.000000 0.000000 0.000000 0.040949 0.000000
# 6 0.000000 0.000000 0.000000 0.000000 0.000000 0.065926
#
#
# Mechanical properties :
#
#
# Convention : Reuss Voigt Hill
#
# Bulk Modulus (GPa) = 14.15999 51.94777 33.05388
# Shear Modulus (GPa) = 12.40303 19.48678 15.94490
#
# Velocity S-wave (km/s) = 2.71235 3.39979 3.07534
# Velocity P-wave (km/s) = 4.26710 6.79884 5.67593
#
# Compressibility (1/GPa) = 0.07062152
#
# Stress axis : x y z
#
# Youngs Moduli (GPa) = 80.01465 12.14554 51.44649
#
# Poissons Ratio (x) = 0.11774 0.47367
# Poissons Ratio (y) = 0.77570 0.15036
# Poissons Ratio (z) = 0.73670 0.03550
#
# Static dielectric constant tensor:
#      x y z
#    x 3.505120 0.000000 0.000000 
#    y 0.000000 2.611290 0.000000 
#    z 0.000000 0.000000 3.305720 
# 
# 
# High freq. dielectric constant tensor:
#      x y z
#    x 1.658570 0.000000 0.000000 
#    y 0.000000 1.579720 0.000000 
#    z 0.000000 0.000000 1.647090 
# 
# From -- ./inp_files/69243.got.cif
#   From: 2010.03.12/outbox.cif.g09.slc.cpg/sg65_35_cif.got.tgz:69243.got - 2010.04.10 20:52:16.
