data_PCOD8274287
_publ_section_title
;
Structure prediction by ZEFSAII (Michael W. Deem and Ramdas Pophale) SiO2 
 PCOD8274287
Probable space group: C M M M
;
_chemical_formula_sum "Si O2"
_cell_formula_units_Z 72
_cell_length_a 18.986913
_cell_length_b 27.592112
_cell_length_c 8.499936
_cell_angle_alpha 90.000000
_cell_angle_beta 90.000000
_cell_angle_gamma 90.000000
_cell_volume 4453.023226
_symmetry_space_group_name_H-M "C M M M"
_symmetry_group_IT_number 65
_symmetry_cell_setting 'orthorhombic'
loop_
_space_group_symop_operation_xyz
x,y,z
-x,-y,z
x,-y,-z
-x,y,-z
-x,-y,-z
x,y,-z
-x,y,z
x,-y,z
1/2+x,1/2+y,z
1/2-x,1/2-y,z
1/2+x,1/2-y,-z
1/2-x,1/2+y,-z
1/2-x,1/2-y,-z
1/2+x,1/2+y,-z
1/2-x,1/2+y,z
1/2+x,1/2-y,z
loop_
_atom_site_type_symbol
_atom_site_label
_atom_site_fract_x
_atom_site_fract_y
_atom_site_fract_z
Si Si1 0.500000 0.349403 0.678860
Si Si2 0.867376 0.099109 0.815275
Si Si3 0.580458 0.500000 0.685593
Si Si4 0.648286 0.227705 0.815552
Si Si5 0.220148 0.820679 0.684579
Si Si6 0.500000 0.234795 0.677928
O O1 0.500000 0.370023 0.500000
O O2 0.566920 0.367721 0.772339
O O3 0.500000 0.292271 0.678859
O O4 0.798527 0.125171 0.742502
O O5 0.876324 0.046077 0.744103
O O6 0.858555 0.094560 0.000000
O O7 0.500000 0.500000 0.752714
O O8 0.577782 0.500000 0.500000
O O9 0.698884 0.189988 0.725772
O O10 0.668649 0.282435 0.769593
O O11 0.568703 0.215179 0.767269
O O12 0.658360 0.220758 0.000000
O O13 0.206916 0.815712 0.500000
O O14 0.500000 0.215060 0.500000
#
# Coordination Sequence:
#
# PCOD8274287 Si02
#       6
#     8  16   8  16  16   8
#     4  11  21  32  48  69  96 132 170 206 248 297
#     4  12  23  35  52  72  97 128 169 213 252 292
#     4  11  23  37  53  71  98 131 168 209 252 296
#     4  11  21  33  50  73  98 127 166 209 248 290
#     4  11  21  35  51  69  97 132 166 202 249 301
#     4  11  21  33  50  72 100 133 169 205 248 298
#
# _framework density 16.168790000000001
#
# number of rings (size 3 to 8) (size 9 to 14) (size 15 to 20)
#    0.000    0.778    3.333    8.333    0.000    1.333 
#    0.000    0.000    0.000    0.000    0.000    0.000 
#    0.000    0.889    0.000    8.889    0.000    5.333 
#
# Total GULP energy -446540.918014 kJ/mol
# GULP energy per Si atom -12403.914389 kJ/mol
# Density = 1.613199 g / cm^3
# Si number density = 16.168790 Si / 1000 Ang^3
#
#
#
# Elastic Constant Matrix: (Units=GPa)
#
#
# Indices 1 2 3 4 5 6 
#
# 1 99.5288 40.1393 13.9551 0.0000 0.0000 0.0000
# 2 40.1393 86.2216 21.0376 0.0000 0.0000 0.0000
# 3 13.9551 21.0376 83.9958 0.0000 0.0000 0.0000
# 4 0.0000 0.0000 0.0000 23.9145 0.0000 0.0000
# 5 0.0000 0.0000 0.0000 0.0000 26.6660 0.0000
# 6 0.0000 0.0000 0.0000 0.0000 0.0000 18.4569
#
#
#
# Elastic Compliance Matrix: (Units=1/GPa)
#
#
# Indices 1 2 3 4 5 6 
#
# 1 0.012403 -0.005615 -0.000654 0.000000 0.000000 0.000000
# 2 -0.005615 0.014894 -0.002798 0.000000 0.000000 0.000000
# 3 -0.000654 -0.002798 0.012715 0.000000 0.000000 0.000000
# 4 0.000000 0.000000 0.000000 0.041816 0.000000 0.000000
# 5 0.000000 0.000000 0.000000 0.000000 0.037501 0.000000
# 6 0.000000 0.000000 0.000000 0.000000 0.000000 0.054180
#
#
# Mechanical properties :
#
#
# Convention : Reuss Voigt Hill
#
# Bulk Modulus (GPa) = 45.70542 46.66780 46.18661
# Shear Modulus (GPa) = 25.13373 26.78177 25.95775
#
# Velocity S-wave (km/s) = 3.94694 4.07429 4.01112
# Velocity P-wave (km/s) = 7.00715 7.14553 7.07668
#
# Compressibility (1/GPa) = 0.02187924
#
# Stress axis : x y z
#
# Youngs Moduli (GPa) = 80.62290 67.13930 78.64855
#
# Poissons Ratio (x) = 0.37696 0.05148
# Poissons Ratio (y) = 0.45266 0.22003
# Poissons Ratio (z) = 0.05277 0.18783
#
# Static dielectric constant tensor:
#      x y z
#    x 3.208620 0.000000 0.000000 
#    y 0.000000 2.917370 0.000000 
#    z 0.000000 0.000000 3.265870 
# 
# 
# High freq. dielectric constant tensor:
#      x y z
#    x 1.611490 0.000000 0.000000 
#    y 0.000000 1.589060 0.000000 
#    z 0.000000 0.000000 1.646920 
# 
# From -- ./inp_files/9549.got.cif
#   From: 2010.03.12/outbox.cif.g09.slc.cpg/sg65_5_cif.got.tgz:9549.got - 2010.04.10 20:52:16.
