data_PCOD8274268
_publ_section_title
;
Structure prediction by ZEFSAII (Michael W. Deem and Ramdas Pophale) SiO2 
 PCOD8274268
Probable space group: C M M M
;
_chemical_formula_sum "Si O2"
_cell_formula_units_Z 72
_cell_length_a 8.960353
_cell_length_b 23.740770
_cell_length_c 20.392041
_cell_angle_alpha 90.000000
_cell_angle_beta 90.000000
_cell_angle_gamma 90.000000
_cell_volume 4337.910782
_symmetry_space_group_name_H-M "C M M M"
_symmetry_group_IT_number 65
_symmetry_cell_setting 'orthorhombic'
loop_
_space_group_symop_operation_xyz
x,y,z
-x,-y,z
x,-y,-z
-x,y,-z
-x,-y,-z
x,y,-z
-x,y,z
x,-y,z
1/2+x,1/2+y,z
1/2-x,1/2-y,z
1/2+x,1/2-y,-z
1/2-x,1/2+y,-z
1/2-x,1/2-y,-z
1/2+x,1/2+y,-z
1/2-x,1/2+y,z
1/2+x,1/2-y,z
loop_
_atom_site_type_symbol
_atom_site_label
_atom_site_fract_x
_atom_site_fract_y
_atom_site_fract_z
Si Si1 0.667216 0.933016 0.371891
Si Si2 0.672527 0.435788 0.241383
Si Si3 0.825839 0.111826 0.894598
Si Si4 0.667785 0.567228 0.500000
Si Si5 0.661750 0.000000 0.926860
Si Si6 0.678592 0.189091 0.000000
O O1 0.500000 0.909575 0.374159
O O2 0.741531 0.912300 0.304551
O O3 0.752652 0.908505 0.435079
O O4 0.671332 0.000000 0.374127
O O5 0.500000 0.438796 0.260045
O O6 0.725392 0.500000 0.221211
O O7 0.700822 0.389635 0.184102
O O8 0.768572 0.052164 0.916945
O O9 0.000000 0.119347 0.911852
O O10 0.732584 0.159226 0.932871
O O11 0.673300 0.500000 0.500000
O O12 0.500000 0.589843 0.500000
O O13 0.500000 0.000000 0.887224
O O14 0.606612 0.000000 0.000000
O O15 0.750000 0.250000 0.000000
O O16 0.500000 0.191709 0.000000
#
# Coordination Sequence:
#
# PCOD8274268 Si02
#       6
#    16  16  16   8   8   8
#     4   9  16  24  35  54  80 113 152 194 232 269
#     4   9  17  29  43  64  92 122 154 188 233 285
#     4  11  21  35  54  74  97 127 158 198 244 290
#     4   9  15  23  35  49  71 111 156 195 228 267
#     4  11  21  31  47  75 102 125 154 193 238 290
#     4  12  26  43  58  75  94 122 160 200 242 292
#
# _framework density 16.597850000000001
#
# number of rings (size 3 to 8) (size 9 to 14) (size 15 to 20)
#    0.000    2.000    2.222    3.000    0.000    6.222 
#    0.000    0.000    0.000    0.000    0.000    0.000 
#    0.000    0.000    0.000    1.000    0.000   13.444 
#
# Total GULP energy -446084.232403 kJ/mol
# GULP energy per Si atom -12391.228678 kJ/mol
# Density = 1.656007 g / cm^3
# Si number density = 16.597850 Si / 1000 Ang^3
#
#
#
# Elastic Constant Matrix: (Units=GPa)
#
#
# Indices 1 2 3 4 5 6 
#
# 1 135.9529 34.6417 78.7343 0.0000 0.0000 0.0000
# 2 34.6417 61.9422 35.3543 0.0000 0.0000 0.0000
# 3 78.7343 35.3543 137.8744 0.0000 0.0000 0.0000
# 4 0.0000 0.0000 0.0000 -15.9375 0.0000 0.0000
# 5 0.0000 0.0000 0.0000 0.0000 30.0149 0.0000
# 6 0.0000 0.0000 0.0000 0.0000 0.0000 18.0913
#
#
#
# Elastic Compliance Matrix: (Units=1/GPa)
#
#
# Indices 1 2 3 4 5 6 
#
# 1 0.011489 -0.003140 -0.005756 0.000000 0.000000 0.000000
# 2 -0.003140 0.019770 -0.003276 0.000000 0.000000 0.000000
# 3 -0.005756 -0.003276 0.011380 0.000000 0.000000 0.000000
# 4 0.000000 0.000000 0.000000 -0.062745 0.000000 0.000000
# 5 0.000000 0.000000 0.000000 0.000000 0.033317 0.000000
# 6 0.000000 0.000000 0.000000 0.000000 0.000000 0.055275
#
#
# Mechanical properties :
#
#
# Convention : Reuss Voigt Hill
#
# Bulk Modulus (GPa) = 54.66033 70.35889 62.50961
# Shear Modulus (GPa) = 50.54156 18.90302 34.72229
#
# Velocity S-wave (km/s) = 5.52420 3.37840 4.57877
# Velocity P-wave (km/s) = 8.58444 7.59608 8.10534
#
# Compressibility (1/GPa) = 0.01829480
#
# Stress axis : x y z
#
# Youngs Moduli (GPa) = 87.04088 50.58099 87.87431
#
# Poissons Ratio (x) = 0.15883 0.50577
# Poissons Ratio (y) = 0.27332 0.28791
# Poissons Ratio (z) = 0.50097 0.16572
#
# Static dielectric constant tensor:
#      x y z
#    x 3.310230 0.000000 0.000000 
#    y 0.000000 2.528040 0.000000 
#    z 0.000000 0.000000 3.468630 
# 
# 
# High freq. dielectric constant tensor:
#      x y z
#    x 1.662260 0.000000 0.000000 
#    y 0.000000 1.555800 0.000000 
#    z 0.000000 0.000000 1.653360 
# 
# From -- ./inp_files/59548.got.cif
#   From: 2010.03.12/outbox.cif.g09.slc.cpg/sg65_30_cif.got.tgz:59548.got - 2010.04.10 20:52:16.
