data_PCOD8274179
_publ_section_title
;
Structure prediction by ZEFSAII (Michael W. Deem and Ramdas Pophale) SiO2 
 PCOD8274179
Probable space group: C M M M
;
_chemical_formula_sum "Si O2"
_cell_formula_units_Z 80
_cell_length_a 33.548177
_cell_length_b 18.990073
_cell_length_c 8.840405
_cell_angle_alpha 90.000000
_cell_angle_beta 90.000000
_cell_angle_gamma 90.000000
_cell_volume 5632.065818
_symmetry_space_group_name_H-M "C M M M"
_symmetry_group_IT_number 65
_symmetry_cell_setting 'orthorhombic'
loop_
_space_group_symop_operation_xyz
x,y,z
-x,-y,z
x,-y,-z
-x,y,-z
-x,-y,-z
x,y,-z
-x,y,z
x,-y,z
1/2+x,1/2+y,z
1/2-x,1/2-y,z
1/2+x,1/2-y,-z
1/2-x,1/2+y,-z
1/2-x,1/2-y,-z
1/2+x,1/2+y,-z
1/2-x,1/2+y,z
1/2+x,1/2-y,z
loop_
_atom_site_type_symbol
_atom_site_label
_atom_site_fract_x
_atom_site_fract_y
_atom_site_fract_z
Si Si1 0.747381 0.000000 0.822525
Si Si2 0.733405 0.860560 0.676899
Si Si3 0.543437 0.420803 0.179252
Si Si4 0.832649 0.000000 0.321264
Si Si5 0.687591 0.722957 0.676176
Si Si6 0.125630 0.133223 0.821511
O O1 0.723227 0.070389 0.775807
O O2 0.786857 0.000000 0.723327
O O3 0.756377 0.000000 0.000000
O O4 0.731919 0.878954 0.500000
O O5 0.700242 0.802275 0.717796
O O6 0.777000 0.830725 0.720526
O O7 0.500000 0.394439 0.239889
O O8 0.551918 0.500000 0.240383
O O9 0.579036 0.368348 0.230512
O O10 0.542236 0.423743 0.000000
O O11 0.852806 0.931378 0.255861
O O12 0.836455 0.000000 0.500000
O O13 0.678361 0.716177 0.500000
O O14 0.647252 0.704658 0.767410
O O15 0.129586 0.125527 0.000000
#
# Coordination Sequence:
#
# PCOD8274179 Si02
#       6
#     8  16  16   8  16  16
#     4  12  22  30  44  65  83 102 137 182 216 238
#     4   9  18  32  46  59  80 112 141 164 202 255
#     4   8  14  25  40  58  82 109 136 169 209 250
#     4  12  22  30  39  55  82 113 142 171 209 254
#     4   9  18  31  45  60  81 111 140 166 205 252
#     4  11  19  28  44  64  81 102 141 184 215 240
#
# _framework density 14.20438
#
# number of rings (size 3 to 8) (size 9 to 14) (size 15 to 20)
#    0.000    2.200    3.000    4.200    0.000    0.800 
#    0.000    2.000    0.000    3.000    0.000    0.000 
#    0.000    0.000    0.000    0.900    0.000   18.200 
#
# Total GULP energy -495767.016777 kJ/mol
# GULP energy per Si atom -12394.175419 kJ/mol
# Density = 1.417205 g / cm^3
# Si number density = 14.204380 Si / 1000 Ang^3
#
#
#
# Elastic Constant Matrix: (Units=GPa)
#
#
# Indices 1 2 3 4 5 6 
#
# 1 105.8698 45.3586 30.8357 0.0000 0.0000 0.0000
# 2 45.3586 84.5750 31.9886 0.0000 0.0000 0.0000
# 3 30.8357 31.9886 50.2170 0.0000 0.0000 0.0000
# 4 0.0000 0.0000 0.0000 20.0470 0.0000 0.0000
# 5 0.0000 0.0000 0.0000 0.0000 5.4988 0.0000
# 6 0.0000 0.0000 0.0000 0.0000 0.0000 939.2976
#
#
#
# Elastic Compliance Matrix: (Units=1/GPa)
#
#
# Indices 1 2 3 4 5 6 
#
# 1 0.013049 -0.005227 -0.004683 0.000000 0.000000 0.000000
# 2 -0.005227 0.017671 -0.008047 0.000000 0.000000 0.000000
# 3 -0.004683 -0.008047 0.027915 0.000000 0.000000 0.000000
# 4 0.000000 0.000000 0.000000 0.049883 0.000000 0.000000
# 5 0.000000 0.000000 0.000000 0.000000 0.181857 0.000000
# 6 0.000000 0.000000 0.000000 0.000000 0.000000 0.001065
#
#
# Mechanical properties :
#
#
# Convention : Reuss Voigt Hill
#
# Bulk Modulus (GPa) = 44.01200 50.78086 47.39643
# Shear Modulus (GPa) = 14.92867 201.80060 108.36464
#
# Velocity S-wave (km/s) = 3.24542 11.93221 8.74387
# Velocity P-wave (km/s) = 6.71533 15.02214 11.63530
#
# Compressibility (1/GPa) = 0.02272107
#
# Stress axis : x y z
#
# Youngs Moduli (GPa) = 76.63394 56.59105 35.82309
#
# Poissons Ratio (x) = 0.29581 0.16776
# Poissons Ratio (y) = 0.40057 0.28825
# Poissons Ratio (z) = 0.35888 0.45537
#
# Static dielectric constant tensor:
#      x y z
#    x 3.001050 0.000000 0.000000 
#    y 0.000000 2.773910 0.000000 
#    z 0.000000 0.000000 2.660290 
# 
# 
# High freq. dielectric constant tensor:
#      x y z
#    x 1.520750 0.000000 0.000000 
#    y 0.000000 1.518770 0.000000 
#    z 0.000000 0.000000 1.536280 
# 
# From -- ./inp_files/18451.got.cif
#   From: 2010.03.12/outbox.cif.g09.slc.cpg/sg65_10_cif.got.tgz:18451.got - 2010.04.10 20:52:16.
