data_PCOD8274142
_publ_section_title
;
Structure prediction by ZEFSAII (Michael W. Deem and Ramdas Pophale) SiO2 
 PCOD8274142
Probable space group: C M M M
;
_chemical_formula_sum "Si O2"
_cell_formula_units_Z 104
_cell_length_a 8.534338
_cell_length_b 23.119186
_cell_length_c 28.598001
_cell_angle_alpha 90.000000
_cell_angle_beta 90.000000
_cell_angle_gamma 90.000000
_cell_volume 5642.584285
_symmetry_space_group_name_H-M "C M M M"
_symmetry_group_IT_number 65
_symmetry_cell_setting 'orthorhombic'
loop_
_space_group_symop_operation_xyz
x,y,z
-x,-y,z
x,-y,-z
-x,y,-z
-x,-y,-z
x,y,-z
-x,y,z
x,-y,z
1/2+x,1/2+y,z
1/2-x,1/2-y,z
1/2+x,1/2-y,-z
1/2-x,1/2+y,-z
1/2-x,1/2-y,-z
1/2+x,1/2+y,-z
1/2-x,1/2+y,z
1/2+x,1/2-y,z
loop_
_atom_site_type_symbol
_atom_site_label
_atom_site_fract_x
_atom_site_fract_y
_atom_site_fract_z
Si Si1 0.315024 0.186274 0.450680
Si Si2 0.184296 0.382447 0.739453
Si Si3 0.183878 0.187967 0.822723
Si Si4 0.184011 0.000000 0.777810
Si Si5 0.185507 0.314163 0.650389
Si Si6 0.815638 0.313867 0.000000
Si Si7 0.185599 0.380433 0.092188
Si Si8 0.187364 0.000000 0.884934
O O1 0.261558 0.154534 0.500000
O O2 0.500000 0.189549 0.450046
O O3 0.250000 0.250000 0.452295
O O4 0.259955 0.159707 0.400672
O O5 0.230016 0.333799 0.776591
O O6 0.262133 0.443632 0.750039
O O7 0.245891 0.359187 0.689351
O O8 0.000000 0.391783 0.739970
O O9 0.250000 0.250000 0.837111
O O10 0.218524 0.144558 0.864520
O O11 0.000000 0.190725 0.813222
O O12 0.247483 0.000000 0.831018
O O13 0.000000 0.000000 0.779941
O O14 0.250000 0.250000 0.659499
O O15 0.000000 0.308955 0.653615
O O16 0.750000 0.250000 0.000000
O O17 0.757398 0.347630 0.954236
O O18 0.000000 0.310091 0.000000
O O19 0.237743 0.446460 0.087567
O O20 0.000000 0.374473 0.100525
O O21 0.000000 0.000000 0.888409
#
# Coordination Sequence:
#
# PCOD8274142 Si02
#       8
#    16  16  16   8  16   8  16   8
#     4   8  13  23  40  63  95 134 172 211 256 307
#     4  11  22  36  55  78 105 140 178 221 273 322
#     4  12  24  38  56  82 112 144 183 221 263 321
#     4  11  23  39  58  80 107 138 180 226 269 321
#     4   9  18  30  46  73 106 139 176 216 261 317
#     4  10  24  43  64  91 119 148 182 220 267 320
#     4  11  23  41  64  88 115 148 183 223 269 317
#     4  11  23  40  62  89 115 144 183 228 270 318
#
# _framework density 18.431270000000001
#
# number of rings (size 3 to 8) (size 9 to 14) (size 15 to 20)
#    0.000    1.692    1.538    3.692    0.000    5.846 
#    0.000    1.538    0.000    0.000    0.000    0.538 
#    0.000    4.308    0.000    0.000    0.000    0.000 
#
# Total GULP energy -644497.288912 kJ/mol
# GULP energy per Si atom -12394.178633 kJ/mol
# Density = 1.838932 g / cm^3
# Si number density = 18.431270 Si / 1000 Ang^3
#
#
#
# Elastic Constant Matrix: (Units=GPa)
#
#
# Indices 1 2 3 4 5 6 
#
# 1 24.3362 14.8967 23.4273 0.0000 0.0000 0.0000
# 2 14.8967 108.7365 50.5914 0.0000 0.0000 0.0000
# 3 23.4273 50.5914 157.6160 0.0000 0.0000 0.0000
# 4 0.0000 0.0000 0.0000 17.7493 0.0000 0.0000
# 5 0.0000 0.0000 0.0000 0.0000 5.0017 0.0000
# 6 0.0000 0.0000 0.0000 0.0000 0.0000 30.6845
#
#
#
# Elastic Compliance Matrix: (Units=1/GPa)
#
#
# Indices 1 2 3 4 5 6 
#
# 1 0.049344 -0.003935 -0.006071 0.000000 0.000000 0.000000
# 2 -0.003935 0.011125 -0.002986 0.000000 0.000000 0.000000
# 3 -0.006071 -0.002986 0.008205 0.000000 0.000000 0.000000
# 4 0.000000 0.000000 0.000000 0.056340 0.000000 0.000000
# 5 0.000000 0.000000 0.000000 0.000000 0.199933 0.000000
# 6 0.000000 0.000000 0.000000 0.000000 0.000000 0.032590
#
#
# Mechanical properties :
#
#
# Convention : Reuss Voigt Hill
#
# Bulk Modulus (GPa) = 23.42483 52.05772 37.74127
# Shear Modulus (GPa) = 12.57064 24.13866 18.35465
#
# Velocity S-wave (km/s) = 2.61440 3.62285 3.15912
# Velocity P-wave (km/s) = 4.67443 6.76798 5.81618
#
# Compressibility (1/GPa) = 0.04268975
#
# Stress axis : x y z
#
# Youngs Moduli (GPa) = 20.26571 89.88815 121.87176
#
# Poissons Ratio (x) = 0.35375 0.73990
# Poissons Ratio (y) = 0.07975 0.36390
# Poissons Ratio (z) = 0.12304 0.26840
#
# Static dielectric constant tensor:
#      x y z
#    x 3.041040 0.000000 0.000000 
#    y 0.000000 3.248540 0.000000 
#    z 0.000000 0.000000 4.224430 
# 
# 
# High freq. dielectric constant tensor:
#      x y z
#    x 1.718910 0.000000 0.000000 
#    y 0.000000 1.691570 0.000000 
#    z 0.000000 0.000000 1.732920 
# 
# From -- ./inp_files/76955.got.cif
#   From: 2010.03.12/outbox.cif.g09.slc.cpg/sg65_39_cif.got.tgz:76955.got - 2010.04.10 20:52:16.
