data_PCOD8274423
_publ_section_title
;
Structure prediction by ZEFSAII (Michael W. Deem and Ramdas Pophale) SiO2 
 PCOD8274423
Probable space group: C M M M
;
_chemical_formula_sum "Si O2"
_cell_formula_units_Z 72
_cell_length_a 9.396709
_cell_length_b 28.677133
_cell_length_c 15.186535
_cell_angle_alpha 90.000000
_cell_angle_beta 90.000000
_cell_angle_gamma 90.000000
_cell_volume 4092.325818
_symmetry_space_group_name_H-M "C M M M"
_symmetry_group_IT_number 65
_symmetry_cell_setting 'orthorhombic'
loop_
_space_group_symop_operation_xyz
x,y,z
-x,-y,z
x,-y,-z
-x,y,-z
-x,-y,-z
x,y,-z
-x,y,z
x,-y,z
1/2+x,1/2+y,z
1/2-x,1/2-y,z
1/2+x,1/2-y,-z
1/2-x,1/2+y,-z
1/2-x,1/2-y,-z
1/2+x,1/2+y,-z
1/2-x,1/2+y,z
1/2+x,1/2-y,z
loop_
_atom_site_type_symbol
_atom_site_label
_atom_site_fract_x
_atom_site_fract_y
_atom_site_fract_z
Si Si1 0.336417 0.445332 0.399634
Si Si2 0.163766 0.702923 0.690830
Si Si3 0.337477 0.446023 0.101589
Si Si4 0.161183 0.704484 0.500000
Si Si5 0.332176 0.894925 0.752253
O O1 0.296636 0.431679 0.500000
O O2 0.500000 0.432102 0.380124
O O3 0.313029 0.500000 0.384683
O O4 0.235427 0.418023 0.333665
O O5 0.250000 0.750000 0.711952
O O6 0.195358 0.679715 0.593328
O O7 0.201839 0.660607 0.756156
O O8 0.000000 0.717548 0.699669
O O9 0.500000 0.433791 0.126349
O O10 0.307884 0.500000 0.121527
O O11 0.230722 0.415548 0.158579
O O12 0.307809 0.434582 0.000000
O O13 0.250000 0.750000 0.500000
O O14 0.000000 0.720842 0.500000
O O15 0.500000 0.904224 0.748493
#
# Coordination Sequence:
#
# PCOD8274423 Si02
#       5
#    16  16  16   8  16
#     4   9  19  35  51  69  99 140 182 216 245 292
#     4   9  19  33  49  70  99 135 173 214 257 301
#     4   9  19  37  59  80 103 134 172 212 254 305
#     4   8  14  28  46  62  87 124 165 207 246 285
#     4  11  22  32  50  80 109 135 166 211 266 316
#
# _framework density 17.593906
#
# number of rings (size 3 to 8) (size 9 to 14) (size 15 to 20)
#    0.000    2.667    0.000    2.667    1.556    6.222 
#    0.000    2.222    0.000    0.667    0.000    0.000 
#    0.000    0.000    0.000    0.000    0.000    0.000 
#
# Total GULP energy -446077.799142 kJ/mol
# GULP energy per Si atom -12391.049976 kJ/mol
# Density = 1.755386 g / cm^3
# Si number density = 17.593906 Si / 1000 Ang^3
#
#
#
# Elastic Constant Matrix: (Units=GPa)
#
#
# Indices 1 2 3 4 5 6 
#
# 1 98.6793 66.8615 64.4004 0.0000 0.0000 0.0000
# 2 66.8615 98.8299 65.8557 0.0000 0.0000 0.0000
# 3 64.4004 65.8557 96.1710 0.0000 0.0000 0.0000
# 4 0.0000 0.0000 0.0000 19.0295 0.0000 0.0000
# 5 0.0000 0.0000 0.0000 0.0000 30.8160 0.0000
# 6 0.0000 0.0000 0.0000 0.0000 0.0000 29.2604
#
#
#
# Elastic Compliance Matrix: (Units=1/GPa)
#
#
# Indices 1 2 3 4 5 6 
#
# 1 0.021781 -0.009226 -0.008267 0.000000 0.000000 0.000000
# 2 -0.009226 0.022519 -0.009242 0.000000 0.000000 0.000000
# 3 -0.008267 -0.009242 0.022263 0.000000 0.000000 0.000000
# 4 0.000000 0.000000 0.000000 0.052550 0.000000 0.000000
# 5 0.000000 0.000000 0.000000 0.000000 0.032451 0.000000
# 6 0.000000 0.000000 0.000000 0.000000 0.000000 0.034176
#
#
# Mechanical properties :
#
#
# Convention : Reuss Voigt Hill
#
# Bulk Modulus (GPa) = 76.38732 76.43503 76.41117
# Shear Modulus (GPa) = 20.52764 22.25869 21.39317
#
# Velocity S-wave (km/s) = 3.41947 3.56073 3.49082
# Velocity P-wave (km/s) = 7.68776 7.77454 7.73127
#
# Compressibility (1/GPa) = 0.01309118
#
# Stress axis : x y z
#
# Youngs Moduli (GPa) = 45.91206 44.40758 44.91763
#
# Poissons Ratio (x) = 0.40972 0.37135
# Poissons Ratio (y) = 0.42360 0.41512
# Poissons Ratio (z) = 0.37957 0.41041
#
# Static dielectric constant tensor:
#      x y z
#    x 3.260790 0.000000 0.000000 
#    y 0.000000 3.081740 0.000000 
#    z 0.000000 0.000000 3.069150 
# 
# 
# High freq. dielectric constant tensor:
#      x y z
#    x 1.683590 0.000000 0.000000 
#    y 0.000000 1.668330 0.000000 
#    z 0.000000 0.000000 1.671480 
# 
# From -- ./inp_files/36555.got.cif
#   From: 2010.03.12/outbox.cif.g09.slc.cpg/sg65_19_cif.got.tgz:36555.got - 2010.04.10 20:52:16.
