data_PCOD8274941
_publ_section_title
;
Structure prediction by ZEFSAII (Michael W. Deem and Ramdas Pophale) SiO2 
 PCOD8274941
Probable space group: C M M M
;
_chemical_formula_sum "Si O2"
_cell_formula_units_Z 80
_cell_length_a 18.458082
_cell_length_b 27.647460
_cell_length_c 9.727622
_cell_angle_alpha 90.000000
_cell_angle_beta 90.000000
_cell_angle_gamma 90.000000
_cell_volume 4964.191146
_symmetry_space_group_name_H-M "C M M M"
_symmetry_group_IT_number 65
_symmetry_cell_setting 'orthorhombic'
loop_
_space_group_symop_operation_xyz
x,y,z
-x,-y,z
x,-y,-z
-x,y,-z
-x,-y,-z
x,y,-z
-x,y,z
x,-y,z
1/2+x,1/2+y,z
1/2-x,1/2-y,z
1/2+x,1/2-y,-z
1/2-x,1/2+y,-z
1/2-x,1/2-y,-z
1/2+x,1/2+y,-z
1/2-x,1/2+y,z
1/2+x,1/2-y,z
loop_
_atom_site_type_symbol
_atom_site_label
_atom_site_fract_x
_atom_site_fract_y
_atom_site_fract_z
Si Si1 0.419688 0.852116 0.835783
Si Si2 0.344531 0.946941 0.837308
Si Si3 0.720766 0.799970 0.162190
Si Si4 0.301425 0.603653 0.839807
Si Si5 0.083734 0.055244 0.657294
O O1 0.500000 0.838061 0.781907
O O2 0.399558 0.906037 0.780816
O O3 0.359673 0.813837 0.780698
O O4 0.417518 0.852829 0.000000
O O5 0.262499 0.933060 0.797944
O O6 0.362877 0.000000 0.774519
O O7 0.351513 0.948766 0.000000
O O8 0.750000 0.750000 0.229046
O O9 0.777520 0.841990 0.198181
O O10 0.713919 0.793921 0.000000
O O11 0.372195 0.591431 0.753337
O O12 0.320540 0.599225 0.000000
O O13 0.107745 0.062740 0.500000
O O14 0.000000 0.068489 0.675702
O O15 0.097880 0.000000 0.702431
#
# Coordination Sequence:
#
# PCOD8274941 Si02
#       5
#    16  16  16  16  16
#     4   8  13  20  30  46  70 101 132 157 188 235
#     4   8  13  20  31  50  75  99 122 153 194 234
#     4   8  14  25  39  55  79 109 137 169 210 248
#     4   9  16  26  42  62  82 106 138 174 208 245
#     4   9  18  31  44  59  83 114 142 170 211 259
#
# _framework density 16.115414999999999
#
# number of rings (size 3 to 8) (size 9 to 14) (size 15 to 20)
#    0.000    3.600    0.000    3.600    0.000    2.000 
#    0.000    4.000    0.000    4.200    0.000    0.000 
#    0.000   12.800    0.000   44.000    0.000   36.800 
#
# Total GULP energy -495627.758360 kJ/mol
# GULP energy per Si atom -12390.693959 kJ/mol
# Density = 1.607874 g / cm^3
# Si number density = 16.115415 Si / 1000 Ang^3
#
#
#
# Elastic Constant Matrix: (Units=GPa)
#
#
# Indices 1 2 3 4 5 6 
#
# 1 118.5766 71.8943 32.2639 0.0000 0.0000 0.0000
# 2 71.8943 127.0046 18.1149 0.0000 0.0000 0.0000
# 3 32.2639 18.1149 25.5437 0.0000 0.0000 0.0000
# 4 0.0000 0.0000 0.0000 8.9615 0.0000 0.0000
# 5 0.0000 0.0000 0.0000 0.0000 6.2438 0.0000
# 6 0.0000 0.0000 0.0000 0.0000 0.0000 19.2053
#
#
#
# Elastic Compliance Matrix: (Units=1/GPa)
#
#
# Indices 1 2 3 4 5 6 
#
# 1 0.017612 -0.007562 -0.016883 0.000000 0.000000 0.000000
# 2 -0.007562 0.012006 0.001036 0.000000 0.000000 0.000000
# 3 -0.016883 0.001036 0.059738 0.000000 0.000000 0.000000
# 4 0.000000 0.000000 0.000000 0.111588 0.000000 0.000000
# 5 0.000000 0.000000 0.000000 0.000000 0.160160 0.000000
# 6 0.000000 0.000000 0.000000 0.000000 0.000000 0.052069
#
#
# Mechanical properties :
#
#
# Convention : Reuss Voigt Hill
#
# Bulk Modulus (GPa) = 23.50723 57.29680 40.40202
# Shear Modulus (GPa) = 10.54479 16.80558 13.67518
#
# Velocity S-wave (km/s) = 2.56076 3.23279 2.91620
# Velocity P-wave (km/s) = 4.83340 7.04030 6.03852
#
# Compressibility (1/GPa) = 0.04254011
#
# Stress axis : x y z
#
# Youngs Moduli (GPa) = 56.78057 83.28938 16.73986
#
# Poissons Ratio (x) = 0.62980 0.28261
# Poissons Ratio (y) = 0.42935 -0.01735
# Poissons Ratio (z) = 0.95860 -0.08632
#
# Static dielectric constant tensor:
#      x y z
#    x 3.167780 0.000000 0.000000 
#    y 0.000000 3.389910 0.000000 
#    z 0.000000 0.000000 2.422900 
# 
# 
# High freq. dielectric constant tensor:
#      x y z
#    x 1.621680 0.000000 0.000000 
#    y 0.000000 1.618180 0.000000 
#    z 0.000000 0.000000 1.549070 
# 
# From -- ./inp_files/9864.got.cif
#   From: 2010.03.12/outbox.cif.g09.slc.cpg/sg65_5_cif.got.tgz:9864.got - 2010.04.10 20:52:16.
