data_PCOD8274525
_publ_section_title
;
Structure prediction by ZEFSAII (Michael W. Deem and Ramdas Pophale) SiO2 
 PCOD8274525
Probable space group: C M M M
;
_chemical_formula_sum "Si O2"
_cell_formula_units_Z 72
_cell_length_a 18.071267
_cell_length_b 8.795605
_cell_length_c 23.014437
_cell_angle_alpha 90.000000
_cell_angle_beta 90.000000
_cell_angle_gamma 90.000000
_cell_volume 3658.092435
_symmetry_space_group_name_H-M "C M M M"
_symmetry_group_IT_number 65
_symmetry_cell_setting 'orthorhombic'
loop_
_space_group_symop_operation_xyz
x,y,z
-x,-y,z
x,-y,-z
-x,y,-z
-x,-y,-z
x,y,-z
-x,y,z
x,-y,z
1/2+x,1/2+y,z
1/2-x,1/2-y,z
1/2+x,1/2-y,-z
1/2-x,1/2+y,-z
1/2-x,1/2-y,-z
1/2+x,1/2+y,-z
1/2-x,1/2+y,z
1/2+x,1/2-y,z
loop_
_atom_site_type_symbol
_atom_site_label
_atom_site_fract_x
_atom_site_fract_y
_atom_site_fract_z
Si Si1 0.829386 0.821205 0.668087
Si Si2 0.417208 0.319431 0.220567
Si Si3 0.830749 0.180786 0.107258
Si Si4 0.584821 0.175931 0.566553
Si Si5 0.587563 0.824812 0.000000
O O1 0.750000 0.750000 0.677332
O O2 0.882341 0.759480 0.719298
O O3 0.862629 0.777449 0.605998
O O4 0.820715 0.000000 0.671343
O O5 0.500000 0.251645 0.214676
O O6 0.420821 0.500000 0.220416
O O7 0.366882 0.262049 0.167417
O O8 0.750000 0.250000 0.101044
O O9 0.882139 0.240696 0.056260
O O10 0.825599 0.000000 0.103920
O O11 0.606106 0.209071 0.500000
O O12 0.500000 0.221705 0.578007
O O13 0.597619 0.000000 0.581494
O O14 0.500000 0.809901 0.000000
O O15 0.613324 0.000000 0.000000
#
# Coordination Sequence:
#
# PCOD8274525 Si02
#       5
#    16  16  16  16   8
#     4  11  22  36  56  82 114 149 186 230 278 330
#     4   9  19  36  58  84 112 144 185 232 279 330
#     4  11  22  38  61  86 116 152 189 229 277 333
#     4   9  19  37  59  82 110 144 183 229 280 334
#     4  11  24  41  60  85 117 149 188 237 282 329
#
# _framework density 19.682389000000001
#
# number of rings (size 3 to 8) (size 9 to 14) (size 15 to 20)
#    0.000    1.889    0.000    4.667    0.000    4.000 
#    0.000    4.444    0.000    8.000    0.000    0.000 
#    0.000    0.000    0.000    0.000    0.000    0.000 
#
# Total GULP energy -446530.908198 kJ/mol
# GULP energy per Si atom -12403.636339 kJ/mol
# Density = 1.963759 g / cm^3
# Si number density = 19.682389 Si / 1000 Ang^3
#
#
#
# Elastic Constant Matrix: (Units=GPa)
#
#
# Indices 1 2 3 4 5 6 
#
# 1 120.5640 41.1283 53.3336 0.0000 0.0000 0.0000
# 2 41.1283 73.2250 40.7484 0.0000 0.0000 0.0000
# 3 53.3336 40.7484 128.0153 0.0000 0.0000 0.0000
# 4 0.0000 0.0000 0.0000 738.2803 0.0000 0.0000
# 5 0.0000 0.0000 0.0000 0.0000 35.7381 0.0000
# 6 0.0000 0.0000 0.0000 0.0000 0.0000 -44.8533
#
#
#
# Elastic Compliance Matrix: (Units=1/GPa)
#
#
# Indices 1 2 3 4 5 6 
#
# 1 0.011279 -0.004521 -0.003260 0.000000 0.000000 0.000000
# 2 -0.004521 0.018408 -0.003976 0.000000 0.000000 0.000000
# 3 -0.003260 -0.003976 0.010435 0.000000 0.000000 0.000000
# 4 0.000000 0.000000 0.000000 0.001354 0.000000 0.000000
# 5 0.000000 0.000000 0.000000 0.000000 0.027981 0.000000
# 6 0.000000 0.000000 0.000000 0.000000 0.000000 -0.022295
#
#
# Mechanical properties :
#
#
# Convention : Reuss Voigt Hill
#
# Bulk Modulus (GPa) = 60.20919 65.80275 63.00597
# Shear Modulus (GPa) = 65.60563 158.27262 111.93913
#
# Velocity S-wave (km/s) = 5.77966 8.97708 7.54958
# Velocity P-wave (km/s) = 8.67157 11.87246 10.39595
#
# Compressibility (1/GPa) = 0.01660876
#
# Stress axis : x y z
#
# Youngs Moduli (GPa) = 88.66349 54.32312 95.82844
#
# Poissons Ratio (x) = 0.24558 0.31239
# Poissons Ratio (y) = 0.40083 0.38102
# Poissons Ratio (z) = 0.28903 0.21599
#
# Static dielectric constant tensor:
#      x y z
#    x 3.704120 0.000000 0.000000 
#    y 0.000000 3.425760 0.000000 
#    z 0.000000 0.000000 3.780430 
# 
# 
# High freq. dielectric constant tensor:
#      x y z
#    x 1.780510 0.000000 0.000000 
#    y 0.000000 1.751490 0.000000 
#    z 0.000000 0.000000 1.783630 
# 
# From -- ./inp_files/70337.got.cif
#   From: 2010.03.12/outbox.cif.g09.slc.cpg/sg65_36_cif.got.tgz:70337.got - 2010.04.10 20:52:16.
