data_PCOD8274156
_publ_section_title
;
Structure prediction by ZEFSAII (Michael W. Deem and Ramdas Pophale) SiO2 
 PCOD8274156
Probable space group: C M M M
;
_chemical_formula_sum "Si O2"
_cell_formula_units_Z 80
_cell_length_a 18.323355
_cell_length_b 21.975053
_cell_length_c 12.926849
_cell_angle_alpha 90.000000
_cell_angle_beta 90.000000
_cell_angle_gamma 90.000000
_cell_volume 5205.082324
_symmetry_space_group_name_H-M "C M M M"
_symmetry_group_IT_number 65
_symmetry_cell_setting 'orthorhombic'
loop_
_space_group_symop_operation_xyz
x,y,z
-x,-y,z
x,-y,-z
-x,y,-z
-x,-y,-z
x,y,-z
-x,y,z
x,-y,z
1/2+x,1/2+y,z
1/2-x,1/2-y,z
1/2+x,1/2-y,-z
1/2-x,1/2+y,-z
1/2-x,1/2-y,-z
1/2+x,1/2+y,-z
1/2-x,1/2+y,z
1/2+x,1/2-y,z
loop_
_atom_site_type_symbol
_atom_site_label
_atom_site_fract_x
_atom_site_fract_y
_atom_site_fract_z
Si Si1 0.416960 0.571272 0.617172
Si Si2 0.336300 0.247761 0.887004
Si Si3 0.581581 0.571766 0.000000
Si Si4 0.582496 0.000000 0.877285
Si Si5 0.838393 0.873365 0.805176
Si Si6 0.322561 0.114792 0.122734
O O1 0.398520 0.590839 0.500000
O O2 0.500000 0.588877 0.644652
O O3 0.405449 0.500000 0.631488
O O4 0.362373 0.605707 0.692509
O O5 0.250000 0.250000 0.898857
O O6 0.358936 0.301440 0.809253
O O7 0.360661 0.180013 0.850443
O O8 0.371024 0.261618 0.000000
O O9 0.620814 0.592257 0.896203
O O10 0.580945 0.500000 0.000000
O O11 0.500000 0.598351 0.000000
O O12 0.624873 0.939554 0.839052
O O13 0.500000 0.000000 0.831972
O O14 0.579134 0.000000 0.000000
O O15 0.753082 0.888824 0.815767
O O16 0.306461 0.110800 0.000000
#
# Coordination Sequence:
#
# PCOD8274156 Si02
#       6
#    16  16   8   8  16  16
#     4   9  19  34  47  61  90 130 163 192 228 266
#     4   8  14  27  42  64  92 123 148 181 226 277
#     4  11  22  28  35  64 104 125 140 183 239 279
#     4   9  18  30  42  62  93 124 157 191 222 272
#     4  11  17  28  48  67  91 119 161 193 220 275
#     4   9  17  28  47  67  93 125 154 185 235 279
#
# _framework density 15.369593
#
# number of rings (size 3 to 8) (size 9 to 14) (size 15 to 20)
#    0.000    2.600    2.000    3.000    2.800    1.600 
#    0.000    2.000    0.000    5.400    0.000    0.000 
#    0.000    1.600    0.000    0.000    0.000    0.200 
#
# Total GULP energy -495738.161187 kJ/mol
# GULP energy per Si atom -12393.454030 kJ/mol
# Density = 1.533461 g / cm^3
# Si number density = 15.369593 Si / 1000 Ang^3
#
#
#
# Elastic Constant Matrix: (Units=GPa)
#
#
# Indices 1 2 3 4 5 6 
#
# 1 77.7544 51.5432 37.5734 0.0000 0.0000 0.0000
# 2 51.5432 113.9977 38.8538 0.0000 0.0000 0.0000
# 3 37.5734 38.8538 75.0764 0.0000 0.0000 0.0000
# 4 0.0000 0.0000 0.0000 21.9189 0.0000 0.0000
# 5 0.0000 0.0000 0.0000 0.0000 19.0072 0.0000
# 6 0.0000 0.0000 0.0000 0.0000 0.0000 7.2008
#
#
#
# Elastic Compliance Matrix: (Units=1/GPa)
#
#
# Indices 1 2 3 4 5 6 
#
# 1 0.020843 -0.007126 -0.006744 0.000000 0.000000 0.000000
# 2 -0.007126 0.013087 -0.003207 0.000000 0.000000 0.000000
# 3 -0.006744 -0.003207 0.018354 0.000000 0.000000 0.000000
# 4 0.000000 0.000000 0.000000 0.045623 0.000000 0.000000
# 5 0.000000 0.000000 0.000000 0.000000 0.052612 0.000000
# 6 0.000000 0.000000 0.000000 0.000000 0.000000 0.138874
#
#
# Mechanical properties :
#
#
# Convention : Reuss Voigt Hill
#
# Bulk Modulus (GPa) = 55.14964 58.08547 56.61755
# Shear Modulus (GPa) = 15.17041 18.88259 17.02650
#
# Velocity S-wave (km/s) = 3.14513 3.50890 3.33198
# Velocity P-wave (km/s) = 7.01066 7.36824 7.19167
#
# Compressibility (1/GPa) = 0.01813249
#
# Stress axis : x y z
#
# Youngs Moduli (GPa) = 47.97669 76.41268 54.48327
#
# Poissons Ratio (x) = 0.54450 0.36742
# Poissons Ratio (y) = 0.34187 0.17470
# Poissons Ratio (z) = 0.32354 0.24502
#
# Static dielectric constant tensor:
#      x y z
#    x 2.879850 0.000000 0.000000 
#    y 0.000000 3.336440 0.000000 
#    z 0.000000 0.000000 2.627090 
# 
# 
# High freq. dielectric constant tensor:
#      x y z
#    x 1.573560 0.000000 0.000000 
#    y 0.000000 1.602830 0.000000 
#    z 0.000000 0.000000 1.542970 
# 
# From -- ./inp_files/27030.got.cif
#   From: 2010.03.12/outbox.cif.g09.slc.cpg/sg65_14_cif.got.tgz:27030.got - 2010.04.10 20:52:16.
