data_PCOD8274833
_publ_section_title
;
Structure prediction by ZEFSAII (Michael W. Deem and Ramdas Pophale) SiO2 
 PCOD8274833
Probable space group: C M M M
;
_chemical_formula_sum "Si O2"
_cell_formula_units_Z 56
_cell_length_a 8.982495
_cell_length_b 18.724355
_cell_length_c 19.465396
_cell_angle_alpha 90.000000
_cell_angle_beta 90.000000
_cell_angle_gamma 90.000000
_cell_volume 3273.912695
_symmetry_space_group_name_H-M "C M M M"
_symmetry_group_IT_number 65
_symmetry_cell_setting 'orthorhombic'
loop_
_space_group_symop_operation_xyz
x,y,z
-x,-y,z
x,-y,-z
-x,y,-z
-x,-y,-z
x,y,-z
-x,y,z
x,-y,z
1/2+x,1/2+y,z
1/2-x,1/2-y,z
1/2+x,1/2-y,-z
1/2-x,1/2+y,-z
1/2-x,1/2-y,-z
1/2+x,1/2+y,-z
1/2-x,1/2+y,z
1/2+x,1/2-y,z
loop_
_atom_site_type_symbol
_atom_site_label
_atom_site_fract_x
_atom_site_fract_y
_atom_site_fract_z
Si Si1 0.168427 0.079600 0.797849
Si Si2 0.175520 0.000000 0.924806
Si Si3 0.829682 0.082404 0.421469
Si Si4 0.674688 0.173774 0.308733
O O1 0.215963 0.070446 0.878804
O O2 0.280226 0.133013 0.760891
O O3 0.000000 0.109446 0.791394
O O4 0.175453 0.000000 0.763573
O O5 0.000000 0.000000 0.935099
O O6 0.254857 0.000000 0.000000
O O7 0.809617 0.107124 0.500000
O O8 0.721905 0.129230 0.375171
O O9 0.000000 0.094112 0.397766
O O10 0.784698 0.000000 0.413731
O O11 0.500000 0.184437 0.309455
O O12 0.750000 0.250000 0.310878
#
# Coordination Sequence:
#
# PCOD8274833 Si02
#       4
#    16   8  16  16
#     4   8  16  31  53  78 105 134 164 204 249 300
#     4   7  12  26  53  85 108 131 164 201 245 300
#     4   9  19  37  59  79 101 131 167 209 258 310
#     4  12  24  35  50  72 103 139 176 216 256 302
#
# _framework density 17.104917
#
# number of rings (size 3 to 8) (size 9 to 14) (size 15 to 20)
#    0.857    1.857    0.000    4.286    0.000    5.714 
#    0.000    1.429    0.000    2.571    0.000    0.000 
#    0.000    0.000    0.000    0.000    0.000    0.000 
#
# Total GULP energy -346903.586427 kJ/mol
# GULP energy per Si atom -12389.413801 kJ/mol
# Density = 1.706599 g / cm^3
# Si number density = 17.104917 Si / 1000 Ang^3
#
#
#
# Elastic Constant Matrix: (Units=GPa)
#
#
# Indices 1 2 3 4 5 6 
#
# 1 112.8314 54.8137 52.2068 0.0000 0.0000 0.0000
# 2 54.8137 84.8479 54.5423 0.0000 0.0000 0.0000
# 3 52.2068 54.5423 128.5441 0.0000 0.0000 0.0000
# 4 0.0000 0.0000 0.0000 -0.7607 0.0000 0.0000
# 5 0.0000 0.0000 0.0000 0.0000 17.7748 0.0000
# 6 0.0000 0.0000 0.0000 0.0000 0.0000 29.7595
#
#
#
# Elastic Compliance Matrix: (Units=1/GPa)
#
#
# Indices 1 2 3 4 5 6 
#
# 1 0.013452 -0.007120 -0.002442 0.000000 0.000000 0.000000
# 2 -0.007120 0.019975 -0.005584 0.000000 0.000000 0.000000
# 3 -0.002442 -0.005584 0.011140 0.000000 0.000000 0.000000
# 4 0.000000 0.000000 0.000000 -1.314574 0.000000 0.000000
# 5 0.000000 0.000000 0.000000 0.000000 0.056259 0.000000
# 6 0.000000 0.000000 0.000000 0.000000 0.000000 0.033603
#
#
# Mechanical properties :
#
#
# Convention : Reuss Voigt Hill
#
# Bulk Modulus (GPa) = 70.05242 72.14990 71.10116
# Shear Modulus (GPa) = -4.36645 20.33210 7.98282
#
# Velocity S-wave (km/s) = -1.59947 3.45145 2.16266
# Velocity P-wave (km/s) = 6.13453 7.62599 6.92055
#
# Compressibility (1/GPa) = 0.01427502
#
# Stress axis : x y z
#
# Youngs Moduli (GPa) = 74.33944 50.06241 89.76271
#
# Poissons Ratio (x) = 0.35646 0.21921
# Poissons Ratio (y) = 0.52932 0.50121
# Poissons Ratio (z) = 0.18154 0.27954
#
# Static dielectric constant tensor:
#      x y z
#    x 2.962470 0.000000 0.000000 
#    y 0.000000 3.025320 0.000000 
#    z 0.000000 0.000000 3.480630 
# 
# 
# High freq. dielectric constant tensor:
#      x y z
#    x 1.642530 0.000000 0.000000 
#    y 0.000000 1.639890 0.000000 
#    z 0.000000 0.000000 1.662780 
# 
# From -- ./inp_files/58580.got.cif
#   From: 2010.03.12/outbox.cif.g09.slc.cpg/sg65_30_cif.got.tgz:58580.got - 2010.04.10 20:52:16.
