data_PCOD8274527
_publ_section_title
;
Structure prediction by ZEFSAII (Michael W. Deem and Ramdas Pophale) SiO2 
 PCOD8274527
Probable space group: C M M M
;
_chemical_formula_sum "Si O2"
_cell_formula_units_Z 88
_cell_length_a 22.376744
_cell_length_b 10.062598
_cell_length_c 22.323352
_cell_angle_alpha 90.000000
_cell_angle_beta 90.000000
_cell_angle_gamma 90.000000
_cell_volume 5026.508528
_symmetry_space_group_name_H-M "C M M M"
_symmetry_group_IT_number 65
_symmetry_cell_setting 'orthorhombic'
loop_
_space_group_symop_operation_xyz
x,y,z
-x,-y,z
x,-y,-z
-x,y,-z
-x,-y,-z
x,y,-z
-x,y,z
x,-y,z
1/2+x,1/2+y,z
1/2-x,1/2-y,z
1/2+x,1/2-y,-z
1/2-x,1/2+y,-z
1/2-x,1/2-y,-z
1/2+x,1/2+y,-z
1/2-x,1/2+y,z
1/2+x,1/2-y,z
loop_
_atom_site_type_symbol
_atom_site_label
_atom_site_fract_x
_atom_site_fract_y
_atom_site_fract_z
Si Si1 0.876196 0.249844 0.883086
Si Si2 0.809284 0.661868 0.231451
Si Si3 0.195126 0.000000 0.928178
Si Si4 0.000000 0.157745 0.930273
Si Si5 0.318741 0.000000 0.433667
Si Si6 0.824090 0.000000 0.430814
Si Si7 0.324914 0.000000 0.934555
Si Si8 0.320884 0.244987 0.638671
O O1 0.859980 0.303890 0.817177
O O2 0.864950 0.371294 0.927250
O O3 0.944607 0.210091 0.891561
O O4 0.834743 0.129190 0.901426
O O5 0.796812 0.500000 0.234094
O O6 0.750000 0.750000 0.217805
O O7 0.838833 0.716386 0.292767
O O8 0.262026 0.000000 0.898507
O O9 0.188050 0.000000 0.000000
O O10 0.000000 0.000000 0.930473
O O11 0.000000 0.207195 0.000000
O O12 0.346087 0.873143 0.401335
O O13 0.344080 0.000000 0.500000
O O14 0.247171 0.000000 0.432861
O O15 0.848341 0.876572 0.391580
O O16 0.848096 0.000000 0.500000
O O17 0.297818 0.000000 0.000000
O O18 0.250000 0.250000 0.635456
#
# Coordination Sequence:
#
# PCOD8274527 Si02
#       8
#    16  16   8   8   8   8   8  16
#     4  12  24  39  61  84 112 146 185 228 280 340
#     4  11  23  37  55  80 113 149 191 236 282 340
#     4  11  22  38  60  85 114 144 176 221 276 338
#     4  11  24  45  67  85 109 143 186 231 278 345
#     4   9  14  23  39  60  91 139 187 227 265 311
#     4   9  16  25  39  64  97 139 191 235 269 317
#     4  11  22  36  56  87 116 140 174 225 282 332
#     4   9  17  27  42  64  99 140 186 231 274 320
#
# _framework density 17.507180999999999
#
# number of rings (size 3 to 8) (size 9 to 14) (size 15 to 20)
#    0.000    1.545    2.727    3.818    5.091    4.000 
#    0.000    0.909    0.000    0.000    0.000    0.000 
#    0.000    0.000    0.000    4.909    0.000    2.273 
#
# Total GULP energy -545157.372954 kJ/mol
# GULP energy per Si atom -12389.940294 kJ/mol
# Density = 1.746733 g / cm^3
# Si number density = 17.507181 Si / 1000 Ang^3
#
#
#
# Elastic Constant Matrix: (Units=GPa)
#
#
# Indices 1 2 3 4 5 6 
#
# 1 71.3756 30.1201 27.2458 0.0000 0.0000 0.0000
# 2 30.1201 154.0635 56.1359 0.0000 0.0000 0.0000
# 3 27.2458 56.1359 127.4706 0.0000 0.0000 0.0000
# 4 0.0000 0.0000 0.0000 36.5898 0.0000 0.0000
# 5 0.0000 0.0000 0.0000 0.0000 7.0444 0.0000
# 6 0.0000 0.0000 0.0000 0.0000 0.0000 18.0175
#
#
#
# Elastic Compliance Matrix: (Units=1/GPa)
#
#
# Indices 1 2 3 4 5 6 
#
# 1 0.015870 -0.002223 -0.002413 0.000000 0.000000 0.000000
# 2 -0.002223 0.008043 -0.003067 0.000000 0.000000 0.000000
# 3 -0.002413 -0.003067 0.009711 0.000000 0.000000 0.000000
# 4 0.000000 0.000000 0.000000 0.027330 0.000000 0.000000
# 5 0.000000 0.000000 0.000000 0.000000 0.141957 0.000000
# 6 0.000000 0.000000 0.000000 0.000000 0.000000 0.055502
#
#
# Mechanical properties :
#
#
# Convention : Reuss Voigt Hill
#
# Bulk Modulus (GPa) = 54.89131 64.43479 59.66305
# Shear Modulus (GPa) = 17.86407 28.29086 23.07747
#
# Velocity S-wave (km/s) = 3.19781 4.02426 3.63460
# Velocity P-wave (km/s) = 6.71240 7.64706 7.19492
#
# Compressibility (1/GPa) = 0.01821782
#
# Stress axis : x y z
#
# Youngs Moduli (GPa) = 63.01315 124.33259 102.97370
#
# Poissons Ratio (x) = 0.27644 0.24846
# Poissons Ratio (y) = 0.14010 0.31579
# Poissons Ratio (z) = 0.15204 0.38130
#
# Static dielectric constant tensor:
#      x y z
#    x 2.744930 0.000000 0.000000 
#    y 0.000000 3.656250 0.000000 
#    z 0.000000 0.000000 3.528230 
# 
# 
# High freq. dielectric constant tensor:
#      x y z
#    x 1.605350 0.000000 0.000000 
#    y 0.000000 1.702700 0.000000 
#    z 0.000000 0.000000 1.690580 
# 
# From -- ./inp_files/71119.got.cif
#   From: 2010.03.12/outbox.cif.g09.slc.cpg/sg65_36_cif.got.tgz:71119.got - 2010.04.10 20:52:16.
