data_PCOD8274883
_publ_section_title
;
Structure prediction by ZEFSAII (Michael W. Deem and Ramdas Pophale) SiO2 
 PCOD8274883
Probable space group: C M M M
;
_chemical_formula_sum "Si O2"
_cell_formula_units_Z 104
_cell_length_a 13.891972
_cell_length_b 23.134005
_cell_length_c 22.198682
_cell_angle_alpha 90.000000
_cell_angle_beta 90.000000
_cell_angle_gamma 90.000000
_cell_volume 7134.144709
_symmetry_space_group_name_H-M "C M M M"
_symmetry_group_IT_number 65
_symmetry_cell_setting 'orthorhombic'
loop_
_space_group_symop_operation_xyz
x,y,z
-x,-y,z
x,-y,-z
-x,y,-z
-x,-y,-z
x,y,-z
-x,y,z
x,-y,z
1/2+x,1/2+y,z
1/2-x,1/2-y,z
1/2+x,1/2-y,-z
1/2-x,1/2+y,-z
1/2-x,1/2-y,-z
1/2+x,1/2+y,-z
1/2-x,1/2+y,z
1/2+x,1/2-y,z
loop_
_atom_site_type_symbol
_atom_site_label
_atom_site_fract_x
_atom_site_fract_y
_atom_site_fract_z
Si Si1 0.388579 0.932756 0.500000
Si Si2 0.389990 0.933111 0.068916
Si Si3 0.208735 0.340546 0.288166
Si Si4 0.113264 0.568084 0.630450
Si Si5 0.605889 0.274595 0.145812
Si Si6 0.290084 0.159682 0.145710
Si Si7 0.606210 0.275155 0.711424
O O1 0.500000 0.919274 0.500000
O O2 0.349039 0.909121 0.564232
O O3 0.368900 0.000000 0.500000
O O4 0.500000 0.921151 0.088026
O O5 0.318600 0.898347 0.111787
O O6 0.364739 0.000000 0.077366
O O7 0.373729 0.914252 0.000000
O O8 0.175606 0.399170 0.319798
O O9 0.201706 0.350567 0.216901
O O10 0.318318 0.324891 0.308011
O O11 0.140851 0.288006 0.310228
O O12 0.132562 0.500000 0.637982
O O13 0.000000 0.581038 0.638997
O O14 0.500000 0.287866 0.118669
O O15 0.640497 0.211558 0.123978
O O16 0.680942 0.324137 0.126035
O O17 0.602729 0.273200 0.217212
O O18 0.500000 0.288537 0.684472
#
# Coordination Sequence:
#
# PCOD8274883 Si02
#       7
#     8  16  16  16  16  16  16
#     4   7  12  24  38  51  73 107 135 151 183 238
#     4   9  18  31  44  57  76 106 137 157 184 236
#     4   9  16  24  39  64  83  99 130 164 194 228
#     4   9  16  25  38  58  83 105 126 158 198 237
#     4   8  14  25  41  61  83 105 128 155 193 238
#     4   9  16  26  42  62  82 103 128 162 197 226
#     4   8  14  25  39  55  81 113 134 151 184 234
#
# _framework density 14.577781
#
# number of rings (size 3 to 8) (size 9 to 14) (size 15 to 20)
#    0.000    3.462    0.000    4.154    0.000    2.462 
#    0.000    3.077    0.000    4.154    0.000    7.000 
#    0.000    1.846    0.000    0.000    0.000    0.000 
#
# Total GULP energy -644222.902857 kJ/mol
# GULP energy per Si atom -12388.901978 kJ/mol
# Density = 1.454460 g / cm^3
# Si number density = 14.577781 Si / 1000 Ang^3
#
#
#
# Elastic Constant Matrix: (Units=GPa)
#
#
# Indices 1 2 3 4 5 6 
#
# 1 114.4087 48.8158 35.1192 0.0000 0.0000 0.0000
# 2 48.8158 71.6716 39.5430 0.0000 0.0000 0.0000
# 3 35.1192 39.5430 52.3245 0.0000 0.0000 0.0000
# 4 0.0000 0.0000 0.0000 4.4729 0.0000 0.0000
# 5 0.0000 0.0000 0.0000 0.0000 12.5744 0.0000
# 6 0.0000 0.0000 0.0000 0.0000 0.0000 23.7210
#
#
#
# Elastic Compliance Matrix: (Units=1/GPa)
#
#
# Indices 1 2 3 4 5 6 
#
# 1 0.012664 -0.006751 -0.003398 0.000000 0.000000 0.000000
# 2 -0.006751 0.027529 -0.016273 0.000000 0.000000 0.000000
# 3 -0.003398 -0.016273 0.033691 0.000000 0.000000 0.000000
# 4 0.000000 0.000000 0.000000 0.223568 0.000000 0.000000
# 5 0.000000 0.000000 0.000000 0.000000 0.079527 0.000000
# 6 0.000000 0.000000 0.000000 0.000000 0.000000 0.042157
#
#
# Mechanical properties :
#
#
# Convention : Reuss Voigt Hill
#
# Bulk Modulus (GPa) = 47.53088 53.92897 50.72993
# Shear Modulus (GPa) = 10.43859 15.81545 13.12702
#
# Velocity S-wave (km/s) = 2.67884 3.29736 3.00406
# Velocity P-wave (km/s) = 6.49954 7.18130 6.84891
#
# Compressibility (1/GPa) = 0.02103895
#
# Stress axis : x y z
#
# Youngs Moduli (GPa) = 78.96342 36.32550 29.68193
#
# Poissons Ratio (x) = 0.24522 0.10087
# Poissons Ratio (y) = 0.53306 0.48302
# Poissons Ratio (z) = 0.26834 0.59114
#
# Static dielectric constant tensor:
#      x y z
#    x 3.134240 0.000000 0.000000 
#    y 0.000000 2.620220 0.000000 
#    z 0.000000 0.000000 2.674190 
# 
# 
# High freq. dielectric constant tensor:
#      x y z
#    x 1.548020 0.000000 0.000000 
#    y 0.000000 1.539530 0.000000 
#    z 0.000000 0.000000 1.532450 
# 
# From -- ./inp_files/63094.got.cif
#   From: 2010.03.12/outbox.cif.g09.slc.cpg/sg65_32_cif.got.tgz:63094.got - 2010.04.10 20:52:16.
