data_PCOD8274166
_publ_section_title
;
Structure prediction by ZEFSAII (Michael W. Deem and Ramdas Pophale) SiO2 
 PCOD8274166
Probable space group: C M M M
;
_chemical_formula_sum "Si O2"
_cell_formula_units_Z 112
_cell_length_a 12.625322
_cell_length_b 37.277213
_cell_length_c 13.265092
_cell_angle_alpha 90.000000
_cell_angle_beta 90.000000
_cell_angle_gamma 90.000000
_cell_volume 6243.040681
_symmetry_space_group_name_H-M "C M M M"
_symmetry_group_IT_number 65
_symmetry_cell_setting 'orthorhombic'
loop_
_space_group_symop_operation_xyz
x,y,z
-x,-y,z
x,-y,-z
-x,y,-z
-x,-y,-z
x,y,-z
-x,y,z
x,-y,z
1/2+x,1/2+y,z
1/2-x,1/2-y,z
1/2+x,1/2-y,-z
1/2-x,1/2+y,-z
1/2-x,1/2-y,-z
1/2+x,1/2+y,-z
1/2-x,1/2+y,z
1/2+x,1/2-y,z
loop_
_atom_site_type_symbol
_atom_site_label
_atom_site_fract_x
_atom_site_fract_y
_atom_site_fract_z
Si Si1 0.124425 0.959416 0.386348
Si Si2 0.267845 0.602195 0.734453
Si Si3 0.874782 0.845578 0.885790
Si Si4 0.378996 0.152890 0.386242
Si Si5 0.122972 0.693128 0.191748
Si Si6 0.381658 0.117850 0.886337
Si Si7 0.619353 0.732653 0.118995
O O1 0.162836 0.951155 0.500000
O O2 0.178464 0.932950 0.308295
O O3 0.000000 0.953708 0.379288
O O4 0.155076 0.000000 0.356639
O O5 0.351849 0.626026 0.797170
O O6 0.206789 0.622879 0.644864
O O7 0.180871 0.589529 0.817445
O O8 0.827946 0.806033 0.852311
O O9 0.000000 0.840561 0.893660
O O10 0.834720 0.857058 0.000000
O O11 0.353896 0.165412 0.500000
O O12 0.500000 0.137932 0.378377
O O13 0.366212 0.187013 0.311946
O O14 0.171556 0.657607 0.133244
O O15 0.178377 0.731225 0.162112
O O16 0.000000 0.695074 0.157210
O O17 0.500000 0.119770 0.845282
O O18 0.375741 0.105166 0.000000
O O19 0.500000 0.733143 0.162488
O O20 0.619850 0.736603 0.000000
#
# Coordination Sequence:
#
# PCOD8274166 Si02
#       7
#    16  16  16  16  16  16  16
#     4   9  19  36  57  80 101 119 144 181 225 273
#     4  11  18  29  51  74  95 123 154 187 229 280
#     4   9  18  30  44  67  98 128 157 191 234 283
#     4   9  18  31  46  66  92 122 159 201 241 279
#     4   8  13  23  42  63  84 119 165 205 240 276
#     4   9  17  28  43  67  98 130 166 204 235 266
#     4   8  13  23  40  61  87 120 157 197 239 280
#
# _framework density 17.939976000000001
#
# number of rings (size 3 to 8) (size 9 to 14) (size 15 to 20)
#    0.000    3.000    0.000    4.286    0.000    1.714 
#    0.000    2.857    0.000   13.714    0.000   17.000 
#    0.000    0.000    0.000    0.000    0.000    0.143 
#
# Total GULP energy -693847.154866 kJ/mol
# GULP energy per Si atom -12390.127765 kJ/mol
# Density = 1.789914 g / cm^3
# Si number density = 17.939976 Si / 1000 Ang^3
#
#
#
# Elastic Constant Matrix: (Units=GPa)
#
#
# Indices 1 2 3 4 5 6 
#
# 1 34.7145 44.0191 20.6232 0.0000 0.0000 0.0000
# 2 44.0191 118.6585 65.3465 0.0000 0.0000 0.0000
# 3 20.6232 65.3465 121.1333 0.0000 0.0000 0.0000
# 4 0.0000 0.0000 0.0000 31.1251 0.0000 0.0000
# 5 0.0000 0.0000 0.0000 0.0000 21.9344 0.0000
# 6 0.0000 0.0000 0.0000 0.0000 0.0000 -45.5966
#
#
#
# Elastic Compliance Matrix: (Units=1/GPa)
#
#
# Indices 1 2 3 4 5 6 
#
# 1 0.054852 -0.021633 0.002331 0.000000 0.000000 0.000000
# 2 -0.021633 0.020521 -0.007387 0.000000 0.000000 0.000000
# 3 0.002331 -0.007387 0.011844 0.000000 0.000000 0.000000
# 4 0.000000 0.000000 0.000000 0.032128 0.000000 0.000000
# 5 0.000000 0.000000 0.000000 0.000000 0.045591 0.000000
# 6 0.000000 0.000000 0.000000 0.000000 0.000000 -0.021931
#
#
# Mechanical properties :
#
#
# Convention : Reuss Voigt Hill
#
# Bulk Modulus (GPa) = 29.55119 59.38711 44.46915
# Shear Modulus (GPa) = 24.07770 11.12707 17.60238
#
# Velocity S-wave (km/s) = 3.66748 2.49316 3.13578
# Velocity P-wave (km/s) = 5.86872 6.43917 6.16055
#
# Compressibility (1/GPa) = 0.03383959
#
# Stress axis : x y z
#
# Youngs Moduli (GPa) = 18.23080 48.73096 84.43401
#
# Poissons Ratio (x) = 1.05417 -0.19683
# Poissons Ratio (y) = 0.39438 0.62373
# Poissons Ratio (z) = -0.04250 0.35998
#
# Static dielectric constant tensor:
#      x y z
#    x 3.550870 0.000000 0.000000 
#    y 0.000000 3.067400 0.000000 
#    z 0.000000 0.000000 3.262960 
# 
# 
# High freq. dielectric constant tensor:
#      x y z
#    x 1.722480 0.000000 0.000000 
#    y 0.000000 1.655160 0.000000 
#    z 0.000000 0.000000 1.683180 
# 
# From -- ./inp_files/41371.got.cif
#   From: 2010.03.12/outbox.cif.g09.slc.cpg/sg65_21_cif.got.tgz:41371.got - 2010.04.10 20:52:16.
