data_PCOD8274195
_publ_section_title
;
Structure prediction by ZEFSAII (Michael W. Deem and Ramdas Pophale) SiO2 
 PCOD8274195
Probable space group: C M M M
;
_chemical_formula_sum "Si O2"
_cell_formula_units_Z 72
_cell_length_a 25.797662
_cell_length_b 11.276863
_cell_length_c 13.028777
_cell_angle_alpha 90.000000
_cell_angle_beta 90.000000
_cell_angle_gamma 90.000000
_cell_volume 3790.288811
_symmetry_space_group_name_H-M "C M M M"
_symmetry_group_IT_number 65
_symmetry_cell_setting 'orthorhombic'
loop_
_space_group_symop_operation_xyz
x,y,z
-x,-y,z
x,-y,-z
-x,y,-z
-x,-y,-z
x,y,-z
-x,y,z
x,-y,z
1/2+x,1/2+y,z
1/2-x,1/2-y,z
1/2+x,1/2-y,-z
1/2-x,1/2+y,-z
1/2-x,1/2-y,-z
1/2+x,1/2+y,-z
1/2-x,1/2+y,z
1/2+x,1/2-y,z
loop_
_atom_site_type_symbol
_atom_site_label
_atom_site_fract_x
_atom_site_fract_y
_atom_site_fract_z
Si Si1 0.377035 0.298833 0.731102
Si Si2 0.195480 0.368176 0.614061
Si Si3 0.729869 0.629825 0.198933
Si Si4 0.061323 0.000000 0.380966
Si Si5 0.059693 0.634861 0.118498
O O1 0.351745 0.214898 0.646378
O O2 0.332017 0.370548 0.790611
O O3 0.416689 0.384316 0.674289
O O4 0.406407 0.222819 0.815378
O O5 0.214516 0.334262 0.500000
O O6 0.172329 0.500000 0.616762
O O7 0.245237 0.359608 0.687947
O O8 0.745403 0.500000 0.149298
O O9 0.750000 0.750000 0.137800
O O10 0.077864 0.000000 0.500000
O O11 0.000000 0.000000 0.368146
O O12 0.077920 0.500000 0.138281
O O13 0.000000 0.649378 0.149981
O O14 0.067677 0.668475 0.000000
#
# Coordination Sequence:
#
# PCOD8274195 Si02
#       5
#    16  16  16   8  16
#     4  11  19  33  54  76 107 145 183 224 284 333
#     4   9  18  31  50  79 110 141 184 233 278 333
#     4   9  18  31  48  75 107 144 182 227 273 331
#     4  11  24  36  47  71 111 157 198 226 260 327
#     4   9  19  37  61  86 107 132 177 238 299 353
#
# _framework density 18.995913000000002
#
# number of rings (size 3 to 8) (size 9 to 14) (size 15 to 20)
#    0.000    2.333    1.111    2.667    0.000    5.778 
#    0.000    0.556    0.000    8.000    0.000   15.556 
#    0.000    0.000    0.000    0.000    0.000    0.000 
#
# Total GULP energy -446100.105712 kJ/mol
# GULP energy per Si atom -12391.669603 kJ/mol
# Density = 1.895268 g / cm^3
# Si number density = 18.995913 Si / 1000 Ang^3
#
#
#
# Elastic Constant Matrix: (Units=GPa)
#
#
# Indices 1 2 3 4 5 6 
#
# 1 99.3017 54.2948 37.0678 0.0000 0.0000 0.0000
# 2 54.2948 157.1552 37.8061 0.0000 0.0000 0.0000
# 3 37.0678 37.8061 51.1134 0.0000 0.0000 0.0000
# 4 0.0000 0.0000 0.0000 18.6602 0.0000 0.0000
# 5 0.0000 0.0000 0.0000 0.0000 17.1377 0.0000
# 6 0.0000 0.0000 0.0000 0.0000 0.0000 113.6426
#
#
#
# Elastic Compliance Matrix: (Units=1/GPa)
#
#
# Indices 1 2 3 4 5 6 
#
# 1 0.014964 -0.003113 -0.008549 0.000000 0.000000 0.000000
# 2 -0.003113 0.008388 -0.003947 0.000000 0.000000 0.000000
# 3 -0.008549 -0.003947 0.028683 0.000000 0.000000 0.000000
# 4 0.000000 0.000000 0.000000 0.053590 0.000000 0.000000
# 5 0.000000 0.000000 0.000000 0.000000 0.058351 0.000000
# 6 0.000000 0.000000 0.000000 0.000000 0.000000 0.008800
#
#
# Mechanical properties :
#
#
# Convention : Reuss Voigt Hill
#
# Bulk Modulus (GPa) = 48.03676 62.87862 55.45769
# Shear Modulus (GPa) = 23.70425 41.78154 32.74290
#
# Velocity S-wave (km/s) = 3.53634 4.69497 4.15623
# Velocity P-wave (km/s) = 6.48206 7.90970 7.23120
#
# Compressibility (1/GPa) = 0.02081739
#
# Stress axis : x y z
#
# Youngs Moduli (GPa) = 66.82811 119.21670 34.86336
#
# Poissons Ratio (x) = 0.37114 0.29805
# Poissons Ratio (y) = 0.20804 0.13759
# Poissons Ratio (z) = 0.57133 0.47050
#
# Static dielectric constant tensor:
#      x y z
#    x 3.407430 0.000000 0.000000 
#    y 0.000000 4.121060 0.000000 
#    z 0.000000 0.000000 3.125730 
# 
# 
# High freq. dielectric constant tensor:
#      x y z
#    x 1.734450 0.000000 0.000000 
#    y 0.000000 1.765790 0.000000 
#    z 0.000000 0.000000 1.704350 
# 
# From -- ./inp_files/45260.got.cif
#   From: 2010.03.12/outbox.cif.g09.slc.cpg/sg65_23_cif.got.tgz:45260.got - 2010.04.10 20:52:16.
