data_PCOD8274954
_publ_section_title
;
Structure prediction by ZEFSAII (Michael W. Deem and Ramdas Pophale) SiO2 
 PCOD8274954
Probable space group: C M M M
;
_chemical_formula_sum "Si O2"
_cell_formula_units_Z 72
_cell_length_a 9.516589
_cell_length_b 17.597863
_cell_length_c 25.089032
_cell_angle_alpha 90.000000
_cell_angle_beta 90.000000
_cell_angle_gamma 90.000000
_cell_volume 4201.701070
_symmetry_space_group_name_H-M "C M M M"
_symmetry_group_IT_number 65
_symmetry_cell_setting 'orthorhombic'
loop_
_space_group_symop_operation_xyz
x,y,z
-x,-y,z
x,-y,-z
-x,y,-z
-x,-y,-z
x,y,-z
-x,y,z
x,-y,z
1/2+x,1/2+y,z
1/2-x,1/2-y,z
1/2+x,1/2-y,-z
1/2-x,1/2+y,-z
1/2-x,1/2-y,-z
1/2+x,1/2+y,-z
1/2-x,1/2+y,z
1/2+x,1/2-y,z
loop_
_atom_site_type_symbol
_atom_site_label
_atom_site_fract_x
_atom_site_fract_y
_atom_site_fract_z
Si Si1 0.654324 0.320079 0.358416
Si Si2 0.500000 0.410318 0.438834
Si Si3 0.157688 0.909594 0.059195
Si Si4 0.664385 0.588070 0.743563
Si Si5 0.841256 0.590561 0.844331
O O1 0.500000 0.288275 0.342862
O O2 0.750000 0.250000 0.375009
O O3 0.638922 0.376678 0.409388
O O4 0.716417 0.365840 0.308164
O O5 0.500000 0.500000 0.432360
O O6 0.500000 0.384636 0.500000
O O7 0.266200 0.876348 0.102630
O O8 0.000000 0.880622 0.072084
O O9 0.158810 0.000000 0.061602
O O10 0.203700 0.882357 0.000000
O O11 0.500000 0.600281 0.755762
O O12 0.696175 0.500000 0.732541
O O13 0.754275 0.619178 0.793200
O O14 0.841225 0.500000 0.845952
O O15 0.000000 0.622318 0.841701
#
# Coordination Sequence:
#
# PCOD8274954 Si02
#       5
#    16   8  16  16  16
#     4   9  19  32  50  77 104 133 168 209 256 300
#     4   9  18  34  58  82 105 139 180 212 243 300
#     4   8  13  21  32  46  70 108 153 198 245 301
#     4   9  16  28  46  63  87 124 166 204 239 297
#     4   9  16  23  33  55  82 112 152 199 254 304
#
# _framework density 17.135916999999999
#
# number of rings (size 3 to 8) (size 9 to 14) (size 15 to 20)
#    0.667    2.556    0.000    2.000    0.000    4.444 
#    0.000    2.222    0.000    2.000    0.000    1.556 
#    0.000    0.889    0.000    2.889    0.000    5.778 
#
# Total GULP energy -446112.086263 kJ/mol
# GULP energy per Si atom -12392.002396 kJ/mol
# Density = 1.709691 g / cm^3
# Si number density = 17.135917 Si / 1000 Ang^3
#
#
#
# Elastic Constant Matrix: (Units=GPa)
#
#
# Indices 1 2 3 4 5 6 
#
# 1 84.5770 31.7426 69.0281 0.0000 0.0000 0.0000
# 2 31.7426 45.3171 43.5568 0.0000 0.0000 0.0000
# 3 69.0281 43.5568 171.1350 0.0000 0.0000 0.0000
# 4 0.0000 0.0000 0.0000 4.3732 0.0000 0.0000
# 5 0.0000 0.0000 0.0000 0.0000 10.4055 0.0000
# 6 0.0000 0.0000 0.0000 0.0000 0.0000 20.3775
#
#
#
# Elastic Compliance Matrix: (Units=1/GPa)
#
#
# Indices 1 2 3 4 5 6 
#
# 1 0.019660 -0.008140 -0.005858 0.000000 0.000000 0.000000
# 2 -0.008140 0.032584 -0.005010 0.000000 0.000000 0.000000
# 3 -0.005858 -0.005010 0.009481 0.000000 0.000000 0.000000
# 4 0.000000 0.000000 0.000000 0.228668 0.000000 0.000000
# 5 0.000000 0.000000 0.000000 0.000000 0.096103 0.000000
# 6 0.000000 0.000000 0.000000 0.000000 0.000000 0.049074
#
#
# Mechanical properties :
#
#
# Convention : Reuss Voigt Hill
#
# Bulk Modulus (GPa) = 42.17859 65.52046 53.84952
# Shear Modulus (GPa) = 10.38448 17.47802 13.93125
#
# Velocity S-wave (km/s) = 2.46439 3.19715 2.85438
# Velocity P-wave (km/s) = 5.72409 7.20748 6.50819
#
# Compressibility (1/GPa) = 0.02370871
#
# Stress axis : x y z
#
# Youngs Moduli (GPa) = 50.86546 30.69020 105.47147
#
# Poissons Ratio (x) = 0.24983 0.61785
# Poissons Ratio (y) = 0.41406 0.52838
# Poissons Ratio (z) = 0.29797 0.15375
#
# Static dielectric constant tensor:
#      x y z
#    x 3.166770 0.000000 0.000000 
#    y 0.000000 2.647710 0.000000 
#    z 0.000000 0.000000 3.356550 
# 
# 
# High freq. dielectric constant tensor:
#      x y z
#    x 1.646510 0.000000 0.000000 
#    y 0.000000 1.610740 0.000000 
#    z 0.000000 0.000000 1.669900 
# 
# From -- ./inp_files/72542.got.cif
#   From: 2010.03.12/outbox.cif.g09.slc.cpg/sg65_37_cif.got.tgz:72542.got - 2010.04.10 20:52:16.
