data_PCOD8274713
_publ_section_title
;
Structure prediction by ZEFSAII (Michael W. Deem and Ramdas Pophale) SiO2 
 PCOD8274713
Probable space group: C M M M
;
_chemical_formula_sum "Si O2"
_cell_formula_units_Z 104
_cell_length_a 22.542496
_cell_length_b 16.775893
_cell_length_c 14.166725
_cell_angle_alpha 90.000000
_cell_angle_beta 90.000000
_cell_angle_gamma 90.000000
_cell_volume 5357.437489
_symmetry_space_group_name_H-M "C M M M"
_symmetry_group_IT_number 65
_symmetry_cell_setting 'orthorhombic'
loop_
_space_group_symop_operation_xyz
x,y,z
-x,-y,z
x,-y,-z
-x,y,-z
-x,-y,-z
x,y,-z
-x,y,z
x,-y,z
1/2+x,1/2+y,z
1/2-x,1/2-y,z
1/2+x,1/2-y,-z
1/2-x,1/2+y,-z
1/2-x,1/2-y,-z
1/2+x,1/2+y,-z
1/2-x,1/2+y,z
1/2+x,1/2-y,z
loop_
_atom_site_type_symbol
_atom_site_label
_atom_site_fract_x
_atom_site_fract_y
_atom_site_fract_z
Si Si1 0.000000 0.093443 0.612145
Si Si2 0.768691 0.909560 0.608673
Si Si3 0.435073 0.093464 0.603336
Si Si4 0.710943 0.908066 0.107732
Si Si5 0.349033 0.407073 0.896091
Si Si6 0.663941 0.829744 0.284572
Si Si7 0.619401 0.652437 0.295627
O O1 0.943050 0.138896 0.653613
O O2 0.000000 0.102762 0.500000
O O3 0.000000 0.000000 0.641216
O O4 0.775277 0.884651 0.500000
O O5 0.723521 0.849311 0.658251
O O6 0.832871 0.906703 0.657779
O O7 0.744730 0.000000 0.618601
O O8 0.413752 0.125171 0.500000
O O9 0.500000 0.130054 0.626815
O O10 0.389462 0.114518 0.684245
O O11 0.440712 0.000000 0.598854
O O12 0.780019 0.890551 0.123869
O O13 0.674462 0.847400 0.173788
O O14 0.697213 0.000000 0.134224
O O15 0.692506 0.890767 0.000000
O O16 0.362545 0.500000 0.893241
O O17 0.388118 0.364674 0.816008
O O18 0.366215 0.373516 0.000000
O O19 0.644212 0.740908 0.307834
#
# Coordination Sequence:
#
# PCOD8274713 Si02
#       7
#     8  16  16  16  16  16  16
#     4  11  26  48  69  85 112 167 221 251 289 354
#     4  11  23  39  59  84 118 159 200 248 302 362
#     4   9  19  36  57  80 110 155 206 247 288 351
#     4   9  18  34  59  90 124 163 201 235 287 368
#     4   9  18  36  63  90 118 155 198 245 296 354
#     4  12  23  34  57  91 126 155 190 244 313 362
#     4  12  25  39  60  91 124 156 200 254 307 358
#
# _framework density 19.412265999999999
#
# number of rings (size 3 to 8) (size 9 to 14) (size 15 to 20)
#    0.000    1.615    1.538    5.538    1.077    6.154 
#    0.000    1.923    0.000    1.846    0.000    2.154 
#    0.000    0.000    0.000    0.000    0.000    0.000 
#
# Total GULP energy -644778.142693 kJ/mol
# GULP energy per Si atom -12399.579667 kJ/mol
# Density = 1.936808 g / cm^3
# Si number density = 19.412266 Si / 1000 Ang^3
#
#
#
# Elastic Constant Matrix: (Units=GPa)
#
#
# Indices 1 2 3 4 5 6 
#
# 1 102.9467 36.6662 57.3915 0.0000 0.0000 0.0000
# 2 36.6662 72.6763 39.3333 0.0000 0.0000 0.0000
# 3 57.3915 39.3333 142.6828 0.0000 0.0000 0.0000
# 4 0.0000 0.0000 0.0000 15.8035 0.0000 0.0000
# 5 0.0000 0.0000 0.0000 0.0000 33.9548 0.0000
# 6 0.0000 0.0000 0.0000 0.0000 0.0000 48.2490
#
#
#
# Elastic Compliance Matrix: (Units=1/GPa)
#
#
# Indices 1 2 3 4 5 6 
#
# 1 0.013730 -0.004629 -0.004247 0.000000 0.000000 0.000000
# 2 -0.004629 0.017733 -0.003027 0.000000 0.000000 0.000000
# 3 -0.004247 -0.003027 0.009551 0.000000 0.000000 0.000000
# 4 0.000000 0.000000 0.000000 0.063277 0.000000 0.000000
# 5 0.000000 0.000000 0.000000 0.000000 0.029451 0.000000
# 6 0.000000 0.000000 0.000000 0.000000 0.000000 0.020726
#
#
# Mechanical properties :
#
#
# Convention : Reuss Voigt Hill
#
# Bulk Modulus (GPa) = 58.10559 65.00975 61.55767
# Shear Modulus (GPa) = 27.17281 31.92913 29.55097
#
# Velocity S-wave (km/s) = 3.74542 4.06000 3.90588
# Velocity P-wave (km/s) = 6.97865 7.45251 7.21947
#
# Compressibility (1/GPa) = 0.01721005
#
# Stress axis : x y z
#
# Youngs Moduli (GPa) = 72.83481 56.39246 104.70087
#
# Poissons Ratio (x) = 0.26101 0.44462
# Poissons Ratio (y) = 0.33712 0.31689
# Poissons Ratio (z) = 0.30930 0.17068
#
# Static dielectric constant tensor:
#      x y z
#    x 3.531050 0.000000 0.000000 
#    y 0.000000 3.406090 0.000000 
#    z 0.000000 0.000000 3.818260 
# 
# 
# High freq. dielectric constant tensor:
#      x y z
#    x 1.735630 0.000000 0.000000 
#    y 0.000000 1.748220 0.000000 
#    z 0.000000 0.000000 1.767690 
# 
# From -- ./inp_files/44405.got.cif
#   From: 2010.03.12/outbox.cif.g09.slc.cpg/sg65_23_cif.got.tgz:44405.got - 2010.04.10 20:52:16.
