data_PCOD8274122
_publ_section_title
;
Structure prediction by ZEFSAII (Michael W. Deem and Ramdas Pophale) SiO2 
 PCOD8274122
Probable space group: C M M M
;
_chemical_formula_sum "Si O2"
_cell_formula_units_Z 88
_cell_length_a 19.258819
_cell_length_b 8.957911
_cell_length_c 24.761889
_cell_angle_alpha 90.000000
_cell_angle_beta 90.000000
_cell_angle_gamma 90.000000
_cell_volume 4271.891043
_symmetry_space_group_name_H-M "C M M M"
_symmetry_group_IT_number 65
_symmetry_cell_setting 'orthorhombic'
loop_
_space_group_symop_operation_xyz
x,y,z
-x,-y,z
x,-y,-z
-x,y,-z
-x,-y,-z
x,y,-z
-x,y,z
x,-y,z
1/2+x,1/2+y,z
1/2-x,1/2-y,z
1/2+x,1/2-y,-z
1/2-x,1/2+y,-z
1/2-x,1/2-y,-z
1/2+x,1/2+y,-z
1/2-x,1/2+y,z
1/2+x,1/2-y,z
loop_
_atom_site_type_symbol
_atom_site_label
_atom_site_fract_x
_atom_site_fract_y
_atom_site_fract_z
Si Si1 0.500000 0.340598 0.937363
Si Si2 0.577423 0.322815 0.439729
Si Si3 0.813932 0.327772 0.834436
Si Si4 0.648203 0.678664 0.060671
Si Si5 0.674300 0.677496 0.344142
Si Si6 0.919605 0.326477 0.255156
O O1 0.500000 0.500000 0.906035
O O2 0.571307 0.254192 0.925152
O O3 0.500000 0.379343 0.000000
O O4 0.595761 0.264937 0.500000
O O5 0.500000 0.264758 0.423083
O O6 0.576153 0.500000 0.438894
O O7 0.636512 0.264894 0.398879
O O8 0.797126 0.500000 0.839480
O O9 0.750000 0.250000 0.801516
O O10 0.806608 0.256916 0.894071
O O11 0.886720 0.298816 0.804130
O O12 0.649197 0.500000 0.065663
O O13 0.671736 0.726603 0.000000
O O14 0.682934 0.500000 0.342718
O O15 0.750000 0.750000 0.339741
O O16 0.623766 0.726564 0.296192
O O17 0.912803 0.500000 0.271539
O O18 0.000000 0.275704 0.253795
#
# Coordination Sequence:
#
# PCOD8274122 Si02
#       6
#     8  16  16  16  16  16
#     4   7  12  26  49  77 107 137 169 209 258 313
#     4   8  15  30  53  82 117 156 199 247 293 338
#     4  11  24  40  59  82 113 149 186 229 280 339
#     4   9  18  34  57  84 114 147 183 225 275 332
#     4  11  22  36  58  88 120 157 200 242 289 346
#     4  10  23  43  64  86 114 147 186 239 298 350
#
# _framework density 20.599775000000001
#
# number of rings (size 3 to 8) (size 9 to 14) (size 15 to 20)
#    0.000    2.455    0.000    3.818    1.273    5.091 
#    0.000    0.000    0.000    3.273    0.000    6.364 
#    0.000    0.000    0.000    0.000    0.000    0.000 
#
# Total GULP energy -545076.648841 kJ/mol
# GULP energy per Si atom -12388.105655 kJ/mol
# Density = 2.055289 g / cm^3
# Si number density = 20.599775 Si / 1000 Ang^3
#
#
#
# Elastic Constant Matrix: (Units=GPa)
#
#
# Indices 1 2 3 4 5 6 
#
# 1 170.3660 50.6804 64.3458 0.0000 0.0000 0.0000
# 2 50.6804 67.1843 46.8501 0.0000 0.0000 0.0000
# 3 64.3458 46.8501 117.5761 0.0000 0.0000 0.0000
# 4 0.0000 0.0000 0.0000 17.3183 0.0000 0.0000
# 5 0.0000 0.0000 0.0000 0.0000 24.7781 0.0000
# 6 0.0000 0.0000 0.0000 0.0000 0.0000 25.5547
#
#
#
# Elastic Compliance Matrix: (Units=1/GPa)
#
#
# Indices 1 2 3 4 5 6 
#
# 1 0.008181 -0.004223 -0.002795 0.000000 0.000000 0.000000
# 2 -0.004223 0.022791 -0.006771 0.000000 0.000000 0.000000
# 3 -0.002795 -0.006771 0.012733 0.000000 0.000000 0.000000
# 4 0.000000 0.000000 0.000000 0.057742 0.000000 0.000000
# 5 0.000000 0.000000 0.000000 0.000000 0.040358 0.000000
# 6 0.000000 0.000000 0.000000 0.000000 0.000000 0.039132
#
#
# Mechanical properties :
#
#
# Convention : Reuss Voigt Hill
#
# Bulk Modulus (GPa) = 62.00047 75.43100 68.71573
# Shear Modulus (GPa) = 23.37647 26.41355 24.89501
#
# Velocity S-wave (km/s) = 3.37232 3.58470 3.48013
# Velocity P-wave (km/s) = 6.73249 7.33692 7.04119
#
# Compressibility (1/GPa) = 0.01612891
#
# Stress axis : x y z
#
# Youngs Moduli (GPa) = 122.22717 43.87655 78.53910
#
# Poissons Ratio (x) = 0.18528 0.21951
# Poissons Ratio (y) = 0.51613 0.53175
# Poissons Ratio (z) = 0.34161 0.29707
#
# Static dielectric constant tensor:
#      x y z
#    x 4.490960 0.000000 0.000000 
#    y 0.000000 3.338940 0.000000 
#    z 0.000000 0.000000 3.840040 
# 
# 
# High freq. dielectric constant tensor:
#      x y z
#    x 1.828970 0.000000 0.000000 
#    y 0.000000 1.770500 0.000000 
#    z 0.000000 0.000000 1.800330 
# 
# From -- ./inp_files/70954.got.cif
#   From: 2010.03.12/outbox.cif.g09.slc.cpg/sg65_36_cif.got.tgz:70954.got - 2010.04.10 20:52:16.
