data_PCOD8274389
_publ_section_title
;
Structure prediction by ZEFSAII (Michael W. Deem and Ramdas Pophale) SiO2 
 PCOD8274389
Probable space group: C M M M
;
_chemical_formula_sum "Si O2"
_cell_formula_units_Z 80
_cell_length_a 21.284182
_cell_length_b 21.869011
_cell_length_c 8.606239
_cell_angle_alpha 90.000000
_cell_angle_beta 90.000000
_cell_angle_gamma 90.000000
_cell_volume 4005.894518
_symmetry_space_group_name_H-M "C M M M"
_symmetry_group_IT_number 65
_symmetry_cell_setting 'orthorhombic'
loop_
_space_group_symop_operation_xyz
x,y,z
-x,-y,z
x,-y,-z
-x,y,-z
-x,-y,-z
x,y,-z
-x,y,z
x,-y,z
1/2+x,1/2+y,z
1/2-x,1/2-y,z
1/2+x,1/2-y,-z
1/2-x,1/2+y,-z
1/2-x,1/2-y,-z
1/2+x,1/2+y,-z
1/2-x,1/2+y,z
1/2+x,1/2-y,z
loop_
_atom_site_type_symbol
_atom_site_label
_atom_site_fract_x
_atom_site_fract_y
_atom_site_fract_z
Si Si1 0.428183 0.262174 0.170502
Si Si2 0.871360 0.125555 0.682406
Si Si3 0.747657 0.177951 0.818839
Si Si4 0.929101 0.000000 0.315877
Si Si5 0.619512 0.852711 0.320207
Si Si6 0.500000 0.929909 0.315197
O O1 0.500000 0.246976 0.149912
O O2 0.419294 0.330453 0.228793
O O3 0.400419 0.217435 0.299861
O O4 0.395126 0.252952 0.000000
O O5 0.881994 0.132216 0.500000
O O6 0.800328 0.141982 0.724146
O O7 0.889508 0.058271 0.742064
O O8 0.750000 0.250000 0.770806
O O9 0.683811 0.141624 0.776073
O O10 0.760704 0.170937 0.000000
O O11 0.933786 0.000000 0.500000
O O12 0.000000 0.000000 0.246379
O O13 0.632601 0.866872 0.500000
O O14 0.563896 0.896909 0.253994
O O15 0.500000 0.925500 0.500000
O O16 0.500000 0.000000 0.256852
#
# Coordination Sequence:
#
# PCOD8274389 Si02
#       6
#    16  16  16   8  16   8
#     4  11  22  35  55  86 123 157 193 244 306 360
#     4  11  22  38  63  89 118 158 206 253 299 357
#     4  11  23  39  59  86 125 163 195 245 308 362
#     4   9  20  40  63  91 125 158 197 252 307 353
#     4  11  21  36  62  90 116 153 201 249 300 356
#     4   9  20  40  63  91 123 152 193 254 309 355
#
# _framework density 19.970571
#
# number of rings (size 3 to 8) (size 9 to 14) (size 15 to 20)
#    0.000    1.400    3.000    3.000    0.000    2.800 
#    1.800    2.000    0.000    7.800    0.000    0.000 
#    0.000    0.000    0.000    0.000    0.000    0.000 
#
# Total GULP energy -495902.905371 kJ/mol
# GULP energy per Si atom -12397.572634 kJ/mol
# Density = 1.992512 g / cm^3
# Si number density = 19.970571 Si / 1000 Ang^3
#
#
#
# Elastic Constant Matrix: (Units=GPa)
#
#
# Indices 1 2 3 4 5 6 
#
# 1 111.8781 39.6000 14.1521 0.0000 0.0000 0.0000
# 2 39.6000 118.6324 13.5432 0.0000 0.0000 0.0000
# 3 14.1521 13.5432 50.4510 0.0000 0.0000 0.0000
# 4 0.0000 0.0000 0.0000 13.9472 0.0000 0.0000
# 5 0.0000 0.0000 0.0000 0.0000 24.6701 0.0000
# 6 0.0000 0.0000 0.0000 0.0000 0.0000 32.6558
#
#
#
# Elastic Compliance Matrix: (Units=1/GPa)
#
#
# Indices 1 2 3 4 5 6 
#
# 1 0.010335 -0.003217 -0.002035 0.000000 0.000000 0.000000
# 2 -0.003217 0.009698 -0.001701 0.000000 0.000000 0.000000
# 3 -0.002035 -0.001701 0.020849 0.000000 0.000000 0.000000
# 4 0.000000 0.000000 0.000000 0.071699 0.000000 0.000000
# 5 0.000000 0.000000 0.000000 0.000000 0.040535 0.000000
# 6 0.000000 0.000000 0.000000 0.000000 0.000000 0.030622
#
#
# Mechanical properties :
#
#
# Convention : Reuss Voigt Hill
#
# Bulk Modulus (GPa) = 37.07270 46.17245 41.62257
# Shear Modulus (GPa) = 24.19723 28.49904 26.34813
#
# Velocity S-wave (km/s) = 3.48464 3.78173 3.63622
# Velocity P-wave (km/s) = 5.89867 6.49916 6.20618
#
# Compressibility (1/GPa) = 0.02697403
#
# Stress axis : x y z
#
# Youngs Moduli (GPa) = 96.76267 103.11906 47.96464
#
# Poissons Ratio (x) = 0.33177 0.09762
# Poissons Ratio (y) = 0.31132 0.08157
# Poissons Ratio (z) = 0.19694 0.17538
#
# Static dielectric constant tensor:
#      x y z
#    x 3.812120 0.000000 0.000000 
#    y 0.000000 3.649590 0.000000 
#    z 0.000000 0.000000 3.719200 
# 
# 
# High freq. dielectric constant tensor:
#      x y z
#    x 1.794780 0.000000 0.000000 
#    y 0.000000 1.765610 0.000000 
#    z 0.000000 0.000000 1.767530 
# 
# From -- ./inp_files/13839.got.cif
#   From: 2010.03.12/outbox.cif.g09.slc.cpg/sg65_7_cif.got.tgz:13839.got - 2010.04.10 20:52:16.
