data_PCOD8274886
_publ_section_title
;
Structure prediction by ZEFSAII (Michael W. Deem and Ramdas Pophale) SiO2 
 PCOD8274886
Probable space group: C M M M
;
_chemical_formula_sum "Si O2"
_cell_formula_units_Z 104
_cell_length_a 9.923508
_cell_length_b 29.616348
_cell_length_c 22.377015
_cell_angle_alpha 90.000000
_cell_angle_beta 90.000000
_cell_angle_gamma 90.000000
_cell_volume 6576.561438
_symmetry_space_group_name_H-M "C M M M"
_symmetry_group_IT_number 65
_symmetry_cell_setting 'orthorhombic'
loop_
_space_group_symop_operation_xyz
x,y,z
-x,-y,z
x,-y,-z
-x,y,-z
-x,-y,-z
x,y,-z
-x,y,z
x,-y,z
1/2+x,1/2+y,z
1/2-x,1/2-y,z
1/2+x,1/2-y,-z
1/2-x,1/2+y,-z
1/2-x,1/2-y,-z
1/2+x,1/2+y,-z
1/2-x,1/2+y,z
1/2+x,1/2-y,z
loop_
_atom_site_type_symbol
_atom_site_label
_atom_site_fract_x
_atom_site_fract_y
_atom_site_fract_z
Si Si1 0.148986 0.786907 0.351831
Si Si2 0.154418 0.553903 0.129250
Si Si3 0.153090 0.447207 0.568243
Si Si4 0.158869 0.450895 0.000000
Si Si5 0.850583 0.787356 0.209738
Si Si6 0.343130 0.388868 0.212201
Si Si7 0.343536 0.611856 0.351089
O O1 0.250000 0.750000 0.379771
O O2 0.146298 0.783686 0.280744
O O3 0.194374 0.837124 0.370480
O O4 0.000000 0.776535 0.377020
O O5 0.171126 0.500000 0.131060
O O6 0.197214 0.573142 0.062954
O O7 0.252432 0.575830 0.177108
O O8 0.000000 0.567187 0.144046
O O9 0.185290 0.434147 0.500000
O O10 0.174384 0.500000 0.578348
O O11 0.254570 0.421859 0.611121
O O12 0.000000 0.433565 0.584187
O O13 0.228977 0.500000 0.000000
O O14 0.000000 0.458072 0.000000
O O15 0.750000 0.750000 0.181976
O O16 0.804825 0.837918 0.191932
O O17 0.000000 0.777532 0.184377
O O18 0.500000 0.398277 0.199004
O O19 0.311385 0.395815 0.281726
O O20 0.500000 0.602312 0.364181
#
# Coordination Sequence:
#
# PCOD8274886 Si02
#       7
#    16  16  16   8  16  16  16
#     4   8  14  25  41  62  87 113 141 172 207 250
#     4   9  17  29  45  64  86 115 151 185 215 253
#     4   9  19  35  51  66  85 110 144 187 227 258
#     4   7  12  26  45  61  80 109 146 187 222 249
#     4   8  14  25  40  58  83 114 144 174 209 250
#     4   9  18  30  42  63  96 123 141 171 219 265
#     4   9  18  31  46  66  92 119 145 175 214 261
#
# _framework density 15.813734
#
# number of rings (size 3 to 8) (size 9 to 14) (size 15 to 20)
#    0.000    3.462    0.000    3.231    0.000    3.385 
#    0.000    7.308    0.000    1.846    0.000    0.538 
#    0.000    0.000    0.000    0.000    0.000    0.000 
#
# Total GULP energy -644325.703247 kJ/mol
# GULP energy per Si atom -12390.878909 kJ/mol
# Density = 1.577774 g / cm^3
# Si number density = 15.813734 Si / 1000 Ang^3
#
#
#
# Elastic Constant Matrix: (Units=GPa)
#
#
# Indices 1 2 3 4 5 6 
#
# 1 90.8819 61.8599 57.3348 0.0000 0.0000 0.0000
# 2 61.8599 75.5655 47.3421 0.0000 0.0000 0.0000
# 3 57.3348 47.3421 68.2772 0.0000 0.0000 0.0000
# 4 0.0000 0.0000 0.0000 -2.2846 0.0000 0.0000
# 5 0.0000 0.0000 0.0000 0.0000 17.7143 0.0000
# 6 0.0000 0.0000 0.0000 0.0000 0.0000 35.7864
#
#
#
# Elastic Compliance Matrix: (Units=1/GPa)
#
#
# Indices 1 2 3 4 5 6 
#
# 1 0.031946 -0.016523 -0.015370 0.000000 0.000000 0.000000
# 2 -0.016523 0.031943 -0.008274 0.000000 0.000000 0.000000
# 3 -0.015370 -0.008274 0.033290 0.000000 0.000000 0.000000
# 4 0.000000 0.000000 0.000000 -0.437705 0.000000 0.000000
# 5 0.000000 0.000000 0.000000 0.000000 0.056451 0.000000
# 6 0.000000 0.000000 0.000000 0.000000 0.000000 0.027944
#
#
# Mechanical properties :
#
#
# Convention : Reuss Voigt Hill
#
# Bulk Modulus (GPa) = 59.36128 63.08870 61.22499
# Shear Modulus (GPa) = -29.38024 14.78907 -7.29558
#
# Velocity S-wave (km/s) = -4.31501 3.06143 -2.15022
# Velocity P-wave (km/s) = 3.57681 7.24417 5.71277
#
# Compressibility (1/GPa) = 0.01684600
#
# Stress axis : x y z
#
# Youngs Moduli (GPa) = 31.30290 31.30556 30.03926
#
# Poissons Ratio (x) = 0.51725 0.46169
# Poissons Ratio (y) = 0.51721 0.24855
# Poissons Ratio (z) = 0.48111 0.25903
#
# Static dielectric constant tensor:
#      x y z
#    x 3.091660 0.000000 0.000000 
#    y 0.000000 2.991070 0.000000 
#    z 0.000000 0.000000 2.814040 
# 
# 
# High freq. dielectric constant tensor:
#      x y z
#    x 1.605900 0.000000 0.000000 
#    y 0.000000 1.600400 0.000000 
#    z 0.000000 0.000000 1.575210 
# 
# From -- ./inp_files/68530.got.cif
#   From: 2010.03.12/outbox.cif.g09.slc.cpg/sg65_35_cif.got.tgz:68530.got - 2010.04.10 20:52:16.
