data_PCOD8274829
_publ_section_title
;
Structure prediction by ZEFSAII (Michael W. Deem and Ramdas Pophale) SiO2 
 PCOD8274829
Probable space group: C M M M
;
_chemical_formula_sum "Si O2"
_cell_formula_units_Z 72
_cell_length_a 28.462914
_cell_length_b 15.193712
_cell_length_c 9.063258
_cell_angle_alpha 90.000000
_cell_angle_beta 90.000000
_cell_angle_gamma 90.000000
_cell_volume 3919.472247
_symmetry_space_group_name_H-M "C M M M"
_symmetry_group_IT_number 65
_symmetry_cell_setting 'orthorhombic'
loop_
_space_group_symop_operation_xyz
x,y,z
-x,-y,z
x,-y,-z
-x,y,-z
-x,-y,-z
x,y,-z
-x,y,z
x,-y,z
1/2+x,1/2+y,z
1/2-x,1/2-y,z
1/2+x,1/2-y,-z
1/2-x,1/2+y,-z
1/2-x,1/2-y,-z
1/2+x,1/2+y,-z
1/2-x,1/2+y,z
1/2+x,1/2-y,z
loop_
_atom_site_type_symbol
_atom_site_label
_atom_site_fract_x
_atom_site_fract_y
_atom_site_fract_z
Si Si1 0.554151 0.690823 0.175167
Si Si2 0.139905 0.254382 0.673609
Si Si3 0.697538 0.100442 0.167742
Si Si4 0.446031 0.500000 0.827581
Si Si5 0.807155 0.899794 0.169887
O O1 0.500000 0.705910 0.222570
O O2 0.587680 0.760660 0.255720
O O3 0.573697 0.593838 0.229818
O O4 0.558794 0.700517 0.000000
O O5 0.135069 0.253671 0.500000
O O6 0.168440 0.340126 0.720961
O O7 0.165639 0.166067 0.724965
O O8 0.752272 0.110429 0.203864
O O9 0.681554 0.000000 0.190318
O O10 0.687783 0.130795 0.000000
O O11 0.500000 0.500000 0.785337
O O12 0.438782 0.500000 0.000000
O O13 0.823713 0.000000 0.201616
O O14 0.817815 0.875710 0.000000
#
# Coordination Sequence:
#
# PCOD8274829 Si02
#       5
#    16  16  16   8  16
#     4   9  18  34  55  76 100 136 183 227 261 300
#     4  12  24  33  49  80 116 147 172 208 266 330
#     4   9  19  38  61  80  99 132 183 233 268 304
#     4   7  12  26  49  73  93 121 167 217 257 291
#     4   9  19  36  57  79 105 140 182 225 261 300
#
# _framework density 18.369820000000001
#
# number of rings (size 3 to 8) (size 9 to 14) (size 15 to 20)
#    0.000    2.556    0.000    5.333    1.556    4.889 
#    0.000    2.222    0.000    2.667    0.000    4.667 
#    0.000    0.000    0.000    0.000    0.000    0.000 
#
# Total GULP energy -446172.957345 kJ/mol
# GULP energy per Si atom -12393.693260 kJ/mol
# Density = 1.832801 g / cm^3
# Si number density = 18.369820 Si / 1000 Ang^3
#
#
#
# Elastic Constant Matrix: (Units=GPa)
#
#
# Indices 1 2 3 4 5 6 
#
# 1 74.3493 43.2567 47.9116 0.0000 0.0000 0.0000
# 2 43.2567 72.9556 39.4200 0.0000 0.0000 0.0000
# 3 47.9116 39.4200 92.7106 0.0000 0.0000 0.0000
# 4 0.0000 0.0000 0.0000 15.5580 0.0000 0.0000
# 5 0.0000 0.0000 0.0000 0.0000 0.1286 0.0000
# 6 0.0000 0.0000 0.0000 0.0000 0.0000 27.1993
#
#
#
# Elastic Compliance Matrix: (Units=1/GPa)
#
#
# Indices 1 2 3 4 5 6 
#
# 1 0.024833 -0.010113 -0.008533 0.000000 0.000000 0.000000
# 2 -0.010113 0.021914 -0.004091 0.000000 0.000000 0.000000
# 3 -0.008533 -0.004091 0.016936 0.000000 0.000000 0.000000
# 4 0.000000 0.000000 0.000000 0.064276 0.000000 0.000000
# 5 0.000000 0.000000 0.000000 0.000000 7.777566 0.000000
# 6 0.000000 0.000000 0.000000 0.000000 0.000000 0.036766
#
#
# Mechanical properties :
#
#
# Convention : Reuss Voigt Hill
#
# Bulk Modulus (GPa) = 54.92369 55.68801 55.30585
# Shear Modulus (GPa) = 0.62548 15.87230 8.24889
#
# Velocity S-wave (km/s) = 0.58415 2.94265 2.12137
# Velocity P-wave (km/s) = 5.51532 6.47505 6.01436
#
# Compressibility (1/GPa) = 0.01820708
#
# Stress axis : x y z
#
# Youngs Moduli (GPa) = 40.26937 45.63317 59.04673
#
# Poissons Ratio (x) = 0.46149 0.50386
# Poissons Ratio (y) = 0.40725 0.24158
# Poissons Ratio (z) = 0.34363 0.18670
#
# Static dielectric constant tensor:
#      x y z
#    x 3.438650 0.000000 0.000000 
#    y 0.000000 3.422160 0.000000 
#    z 0.000000 0.000000 3.057510 
# 
# 
# High freq. dielectric constant tensor:
#      x y z
#    x 1.716640 0.000000 0.000000 
#    y 0.000000 1.701960 0.000000 
#    z 0.000000 0.000000 1.682510 
# 
# From -- ./inp_files/7245.got.cif
#   From: 2010.03.12/outbox.cif.g09.slc.cpg/sg65_4_cif.got.tgz:7245.got - 2010.04.10 20:52:16.
