data_PCOD8274370
_publ_section_title
;
Structure prediction by ZEFSAII (Michael W. Deem and Ramdas Pophale) SiO2 
 PCOD8274370
Probable space group: C M M M
;
_chemical_formula_sum "Si O2"
_cell_formula_units_Z 88
_cell_length_a 18.057825
_cell_length_b 31.185957
_cell_length_c 7.785567
_cell_angle_alpha 90.000000
_cell_angle_beta 90.000000
_cell_angle_gamma 90.000000
_cell_volume 4384.446369
_symmetry_space_group_name_H-M "C M M M"
_symmetry_group_IT_number 65
_symmetry_cell_setting 'orthorhombic'
loop_
_space_group_symop_operation_xyz
x,y,z
-x,-y,z
x,-y,-z
-x,y,-z
-x,-y,-z
x,y,-z
-x,y,z
x,-y,z
1/2+x,1/2+y,z
1/2-x,1/2-y,z
1/2+x,1/2-y,-z
1/2-x,1/2+y,-z
1/2-x,1/2-y,-z
1/2+x,1/2+y,-z
1/2-x,1/2+y,z
1/2+x,1/2-y,z
loop_
_atom_site_type_symbol
_atom_site_label
_atom_site_fract_x
_atom_site_fract_y
_atom_site_fract_z
Si Si1 0.087697 0.091461 0.000000
Si Si2 0.674924 0.081168 0.802932
Si Si3 0.912867 0.500000 0.301766
Si Si4 0.083524 0.661997 0.796054
Si Si5 0.172238 0.950441 0.692320
Si Si6 0.412117 0.254387 0.690544
Si Si7 0.411668 0.311490 0.000000
O O1 0.114669 0.068449 0.827699
O O2 0.118023 0.140086 0.000000
O O3 0.000000 0.089810 0.000000
O O4 0.634718 0.123398 0.728509
O O5 0.749349 0.073583 0.696660
O O6 0.618713 0.041844 0.789545
O O7 0.698146 0.087534 0.000000
O O8 0.888904 0.500000 0.500000
O O9 0.000000 0.500000 0.276419
O O10 0.117543 0.706406 0.725103
O O11 0.000000 0.654749 0.726462
O O12 0.082622 0.663755 0.000000
O O13 0.139292 0.945119 0.500000
O O14 0.186162 0.000000 0.738070
O O15 0.387633 0.269419 0.500000
O O16 0.500000 0.253224 0.708918
O O17 0.379943 0.287640 0.830460
O O18 0.500000 0.310811 0.000000
#
# Coordination Sequence:
#
# PCOD8274370 Si02
#       7
#     8  16   8  16  16  16   8
#     4  11  25  44  70  98 119 145 183 238 310 376
#     4  11  21  35  58  83 115 163 214 254 292 347
#     4  11  23  35  49  79 123 166 211 265 307 333
#     4   9  17  30  50  81 120 160 208 259 293 324
#     4  11  24  43  66  91 122 159 199 239 292 365
#     4   9  16  28  51  81 116 159 197 235 290 347
#     4   9  18  35  57  85 119 144 178 236 295 363
#
# _framework density 20.070948999999999
#
# number of rings (size 3 to 8) (size 9 to 14) (size 15 to 20)
#    0.000    1.909    2.727    1.636    0.000    4.727 
#    0.000    4.545    0.000    2.182    0.000    2.545 
#    0.000    0.000    0.000    0.000    0.000    0.000 
#
# Total GULP energy -545658.931580 kJ/mol
# GULP energy per Si atom -12401.339354 kJ/mol
# Density = 2.002527 g / cm^3
# Si number density = 20.070949 Si / 1000 Ang^3
#
#
#
# Elastic Constant Matrix: (Units=GPa)
#
#
# Indices 1 2 3 4 5 6 
#
# 1 62.7149 39.1093 31.3824 0.0000 0.0000 0.0000
# 2 39.1093 123.1211 70.0265 0.0000 0.0000 0.0000
# 3 31.3824 70.0265 120.4278 0.0000 0.0000 0.0000
# 4 0.0000 0.0000 0.0000 2.5719 0.0000 0.0000
# 5 0.0000 0.0000 0.0000 0.0000 13.1243 0.0000
# 6 0.0000 0.0000 0.0000 0.0000 0.0000 5.5635
#
#
#
# Elastic Compliance Matrix: (Units=1/GPa)
#
#
# Indices 1 2 3 4 5 6 
#
# 1 0.020302 -0.005140 -0.002302 0.000000 0.000000 0.000000
# 2 -0.005140 0.013437 -0.006474 0.000000 0.000000 0.000000
# 3 -0.002302 -0.006474 0.012668 0.000000 0.000000 0.000000
# 4 0.000000 0.000000 0.000000 0.388814 0.000000 0.000000
# 5 0.000000 0.000000 0.000000 0.000000 0.076195 0.000000
# 6 0.000000 0.000000 0.000000 0.000000 0.000000 0.179742
#
#
# Mechanical properties :
#
#
# Convention : Reuss Voigt Hill
#
# Bulk Modulus (GPa) = 53.83296 65.25559 59.54427
# Shear Modulus (GPa) = 6.89483 15.30166 11.09825
#
# Velocity S-wave (km/s) = 1.85545 2.76412 2.35404
# Velocity P-wave (km/s) = 5.60980 6.53989 6.09262
#
# Compressibility (1/GPa) = 0.01857598
#
# Stress axis : x y z
#
# Youngs Moduli (GPa) = 49.25571 74.42251 78.93893
#
# Poissons Ratio (x) = 0.38251 0.18171
# Poissons Ratio (y) = 0.25316 0.51104
# Poissons Ratio (z) = 0.11338 0.48180
#
# Static dielectric constant tensor:
#      x y z
#    x 3.243710 0.000000 0.000000 
#    y 0.000000 3.840910 0.000000 
#    z 0.000000 0.000000 3.729510 
# 
# 
# High freq. dielectric constant tensor:
#      x y z
#    x 1.743560 0.000000 0.000000 
#    y 0.000000 1.789890 0.000000 
#    z 0.000000 0.000000 1.792600 
# 
# From -- ./inp_files/10210.got.cif
#   From: 2010.03.12/outbox.cif.g09.slc.cpg/sg65_6_cif.got.tgz:10210.got - 2010.04.10 20:52:16.
