data_PCOD8274491
_publ_section_title
;
Structure prediction by ZEFSAII (Michael W. Deem and Ramdas Pophale) SiO2 
 PCOD8274491
Probable space group: C M M M
;
_chemical_formula_sum "Si O2"
_cell_formula_units_Z 72
_cell_length_a 32.024584
_cell_length_b 13.327488
_cell_length_c 8.822353
_cell_angle_alpha 90.000000
_cell_angle_beta 90.000000
_cell_angle_gamma 90.000000
_cell_volume 3765.444302
_symmetry_space_group_name_H-M "C M M M"
_symmetry_group_IT_number 65
_symmetry_cell_setting 'orthorhombic'
loop_
_space_group_symop_operation_xyz
x,y,z
-x,-y,z
x,-y,-z
-x,y,-z
-x,-y,-z
x,y,-z
-x,y,z
x,-y,z
1/2+x,1/2+y,z
1/2-x,1/2-y,z
1/2+x,1/2-y,-z
1/2-x,1/2+y,-z
1/2-x,1/2-y,-z
1/2+x,1/2+y,-z
1/2-x,1/2+y,z
1/2+x,1/2-y,z
loop_
_atom_site_type_symbol
_atom_site_label
_atom_site_fract_x
_atom_site_fract_y
_atom_site_fract_z
Si Si1 0.593790 0.698519 0.820924
Si Si2 0.952078 0.613773 0.321555
Si Si3 0.952980 0.000000 0.180235
Si Si4 0.266165 0.108170 0.320298
Si Si5 0.317871 0.292520 0.320666
O O1 0.576645 0.803514 0.757369
O O2 0.568608 0.601796 0.758120
O O3 0.641047 0.680308 0.770742
O O4 0.590736 0.704253 0.000000
O O5 0.946260 0.625228 0.500000
O O6 0.939122 0.500000 0.272619
O O7 0.000000 0.633182 0.274591
O O8 0.000000 0.000000 0.242355
O O9 0.951567 0.000000 0.000000
O O10 0.265687 0.112360 0.500000
O O11 0.301827 0.183647 0.264935
O O12 0.218976 0.132661 0.269082
O O13 0.278513 0.000000 0.255200
O O14 0.327109 0.296825 0.500000
#
# Coordination Sequence:
#
# PCOD8274491 Si02
#       5
#    16  16   8  16  16
#     4  11  22  35  54  80 111 145 183 224 267 324
#     4   9  19  37  59  81 106 137 174 220 274 325
#     4   9  20  38  55  73 105 151 191 223 267 321
#     4   8  15  30  52  74  99 135 176 219 266 320
#     4   9  18  32  51  77 103 132 176 223 270 318
#
# _framework density 19.121248999999999
#
# number of rings (size 3 to 8) (size 9 to 14) (size 15 to 20)
#    0.000    2.778    0.000    3.333    1.556    2.667 
#    0.000    7.222    0.000    5.333    0.000    0.000 
#    0.000    0.000    0.000    0.000    0.000    0.000 
#
# Total GULP energy -446176.277013 kJ/mol
# GULP energy per Si atom -12393.785473 kJ/mol
# Density = 1.907773 g / cm^3
# Si number density = 19.121249 Si / 1000 Ang^3
#
#
#
# Elastic Constant Matrix: (Units=GPa)
#
#
# Indices 1 2 3 4 5 6 
#
# 1 119.2147 49.1527 16.4707 0.0000 0.0000 0.0000
# 2 49.1527 128.6956 18.1048 0.0000 0.0000 0.0000
# 3 16.4707 18.1048 28.3649 0.0000 0.0000 0.0000
# 4 0.0000 0.0000 0.0000 20.8216 0.0000 0.0000
# 5 0.0000 0.0000 0.0000 0.0000 25.0580 0.0000
# 6 0.0000 0.0000 0.0000 0.0000 0.0000 35.7029
#
#
#
# Elastic Compliance Matrix: (Units=1/GPa)
#
#
# Indices 1 2 3 4 5 6 
#
# 1 0.010319 -0.003404 -0.003819 0.000000 0.000000 0.000000
# 2 -0.003404 0.009660 -0.004189 0.000000 0.000000 0.000000
# 3 -0.003819 -0.004189 0.040146 0.000000 0.000000 0.000000
# 4 0.000000 0.000000 0.000000 0.048027 0.000000 0.000000
# 5 0.000000 0.000000 0.000000 0.000000 0.039907 0.000000
# 6 0.000000 0.000000 0.000000 0.000000 0.000000 0.028009
#
#
# Mechanical properties :
#
#
# Convention : Reuss Voigt Hill
#
# Bulk Modulus (GPa) = 26.80920 49.30351 38.05636
# Shear Modulus (GPa) = 23.65997 29.15296 26.40647
#
# Velocity S-wave (km/s) = 3.52144 3.90890 3.72021
# Velocity P-wave (km/s) = 5.53038 6.79803 6.19671
#
# Compressibility (1/GPa) = 0.03730063
#
# Stress axis : x y z
#
# Youngs Moduli (GPa) = 96.90494 103.52336 24.90879
#
# Poissons Ratio (x) = 0.35239 0.09514
# Poissons Ratio (y) = 0.32986 0.10434
# Poissons Ratio (z) = 0.37013 0.43366
#
# Static dielectric constant tensor:
#      x y z
#    x 3.484730 0.000000 0.000000 
#    y 0.000000 4.095520 0.000000 
#    z 0.000000 0.000000 3.049390 
# 
# 
# High freq. dielectric constant tensor:
#      x y z
#    x 1.747260 0.000000 0.000000 
#    y 0.000000 1.760530 0.000000 
#    z 0.000000 0.000000 1.700950 
# 
# From -- ./inp_files/15755.got.cif
#   From: 2010.03.12/outbox.cif.g09.slc.cpg/sg65_8_cif.got.tgz:15755.got - 2010.04.10 20:52:16.
