data_PCOD8274539
_publ_section_title
;
Structure prediction by ZEFSAII (Michael W. Deem and Ramdas Pophale) SiO2 
 PCOD8274539
Probable space group: C M M M
;
_chemical_formula_sum "Si O2"
_cell_formula_units_Z 80
_cell_length_a 19.563158
_cell_length_b 8.700511
_cell_length_c 25.715464
_cell_angle_alpha 90.000000
_cell_angle_beta 90.000000
_cell_angle_gamma 90.000000
_cell_volume 4377.015534
_symmetry_space_group_name_H-M "C M M M"
_symmetry_group_IT_number 65
_symmetry_cell_setting 'orthorhombic'
loop_
_space_group_symop_operation_xyz
x,y,z
-x,-y,z
x,-y,-z
-x,y,-z
-x,-y,-z
x,y,-z
-x,y,z
x,-y,z
1/2+x,1/2+y,z
1/2-x,1/2-y,z
1/2+x,1/2-y,-z
1/2-x,1/2+y,-z
1/2-x,1/2-y,-z
1/2+x,1/2+y,-z
1/2-x,1/2+y,z
1/2+x,1/2-y,z
loop_
_atom_site_type_symbol
_atom_site_label
_atom_site_fract_x
_atom_site_fract_y
_atom_site_fract_z
Si Si1 0.920759 0.323987 0.559672
Si Si2 0.919910 0.821134 0.945183
Si Si3 0.321565 0.320294 0.638937
Si Si4 0.919500 0.819686 0.832471
Si Si5 0.822372 0.680790 0.748851
O O1 0.902828 0.287734 0.500000
O O2 0.902310 0.500000 0.572892
O O3 0.878065 0.210201 0.595500
O O4 0.000000 0.292509 0.570498
O O5 0.892834 0.758299 0.889550
O O6 0.000000 0.792234 0.945597
O O7 0.903648 0.000000 0.945915
O O8 0.889526 0.749232 0.000000
O O9 0.312335 0.500000 0.647463
O O10 0.250000 0.250000 0.619870
O O11 0.345166 0.246277 0.693166
O O12 0.880507 0.721809 0.789829
O O13 0.000000 0.789571 0.826049
O O14 0.903425 0.000000 0.825722
O O15 0.814536 0.500000 0.744362
O O16 0.750000 0.750000 0.766847
#
# Coordination Sequence:
#
# PCOD8274539 Si02
#       5
#    16  16  16  16  16
#     4   9  19  37  59  82 110 142 173 207 250 298
#     4   7  10  19  39  68  99 129 161 199 244 293
#     4  11  22  37  57  79 104 134 172 215 256 302
#     4   9  17  30  50  77 106 133 166 208 251 300
#     4  11  22  37  55  73  99 134 172 213 258 308
#
# _framework density 18.277294999999999
#
# number of rings (size 3 to 8) (size 9 to 14) (size 15 to 20)
#    0.000    2.600    0.000    7.200    0.000    2.400 
#    0.000    1.000    0.000    1.200    0.000    2.800 
#    0.000    0.000    0.000    0.000    0.000    0.000 
#
# Total GULP energy -495629.013289 kJ/mol
# GULP energy per Si atom -12390.725332 kJ/mol
# Density = 1.823569 g / cm^3
# Si number density = 18.277295 Si / 1000 Ang^3
#
#
#
# Elastic Constant Matrix: (Units=GPa)
#
#
# Indices 1 2 3 4 5 6 
#
# 1 63.5342 38.2209 65.4340 0.0000 0.0000 0.0000
# 2 38.2209 110.7063 53.3356 0.0000 0.0000 0.0000
# 3 65.4340 53.3356 134.2753 0.0000 0.0000 0.0000
# 4 0.0000 0.0000 0.0000 19.1454 0.0000 0.0000
# 5 0.0000 0.0000 0.0000 0.0000 -13.2180 0.0000
# 6 0.0000 0.0000 0.0000 0.0000 0.0000 23.5795
#
#
#
# Elastic Compliance Matrix: (Units=1/GPa)
#
#
# Indices 1 2 3 4 5 6 
#
# 1 0.033359 -0.004557 -0.014446 0.000000 0.000000 0.000000
# 2 -0.004557 0.011793 -0.002464 0.000000 0.000000 0.000000
# 3 -0.014446 -0.002464 0.015466 0.000000 0.000000 0.000000
# 4 0.000000 0.000000 0.000000 0.052232 0.000000 0.000000
# 5 0.000000 0.000000 0.000000 0.000000 -0.075655 0.000000
# 6 0.000000 0.000000 0.000000 0.000000 0.000000 0.042410
#
#
# Mechanical properties :
#
#
# Convention : Reuss Voigt Hill
#
# Bulk Modulus (GPa) = 56.54794 69.16633 62.85714
# Shear Modulus (GPa) = 38.93054 16.00308 27.46681
#
# Velocity S-wave (km/s) = 4.62019 2.96222 3.88078
# Velocity P-wave (km/s) = 7.71153 7.04447 7.38553
#
# Compressibility (1/GPa) = 0.01768411
#
# Stress axis : x y z
#
# Youngs Moduli (GPa) = 29.97668 84.79474 64.65922
#
# Poissons Ratio (x) = 0.38644 0.93408
# Poissons Ratio (y) = 0.13661 0.15929
# Poissons Ratio (z) = 0.43305 0.20889
#
# Static dielectric constant tensor:
#      x y z
#    x 3.078520 0.000000 0.000000 
#    y 0.000000 3.150150 0.000000 
#    z 0.000000 0.000000 3.760830 
# 
# 
# High freq. dielectric constant tensor:
#      x y z
#    x 1.679000 0.000000 0.000000 
#    y 0.000000 1.689810 0.000000 
#    z 0.000000 0.000000 1.730690 
# 
# From -- ./inp_files/75035.got.cif
#   From: 2010.03.12/outbox.cif.g09.slc.cpg/sg65_38_cif.got.tgz:75035.got - 2010.04.10 20:52:16.
