data_PCOD8274025
_publ_section_title
;
Structure prediction by ZEFSAII (Michael W. Deem and Ramdas Pophale) SiO2 
 PCOD8274025
Probable space group: C M M M
;
_chemical_formula_sum "Si O2"
_cell_formula_units_Z 88
_cell_length_a 9.167638
_cell_length_b 20.307810
_cell_length_c 24.309089
_cell_angle_alpha 90.000000
_cell_angle_beta 90.000000
_cell_angle_gamma 90.000000
_cell_volume 4525.736152
_symmetry_space_group_name_H-M "C M M M"
_symmetry_group_IT_number 65
_symmetry_cell_setting 'orthorhombic'
loop_
_space_group_symop_operation_xyz
x,y,z
-x,-y,z
x,-y,-z
-x,y,-z
-x,-y,-z
x,y,-z
-x,y,z
x,-y,z
1/2+x,1/2+y,z
1/2-x,1/2-y,z
1/2+x,1/2-y,-z
1/2-x,1/2+y,-z
1/2-x,1/2-y,-z
1/2+x,1/2+y,-z
1/2-x,1/2+y,z
1/2+x,1/2-y,z
loop_
_atom_site_type_symbol
_atom_site_label
_atom_site_fract_x
_atom_site_fract_y
_atom_site_fract_z
Si Si1 0.670657 0.684742 0.937483
Si Si2 0.170218 0.423870 0.739603
Si Si3 0.165842 0.126005 0.561239
Si Si4 0.831654 0.185326 0.672604
Si Si5 0.331819 0.574941 0.851631
Si Si6 0.339376 0.000000 0.565134
O O1 0.500000 0.698119 0.933457
O O2 0.750000 0.750000 0.914990
O O3 0.717185 0.622218 0.901160
O O4 0.719083 0.669584 0.000000
O O5 0.197444 0.500000 0.723579
O O6 0.257642 0.379604 0.696707
O O7 0.230004 0.408710 0.800173
O O8 0.000000 0.405934 0.737960
O O9 0.217652 0.149454 0.500000
O O10 0.182550 0.183957 0.605907
O O11 0.258359 0.065283 0.584701
O O12 0.000000 0.101478 0.557963
O O13 0.750000 0.250000 0.694813
O O14 0.000000 0.188263 0.691041
O O15 0.500000 0.587103 0.834745
O O16 0.308818 0.500000 0.871662
O O17 0.500000 0.000000 0.592069
O O18 0.347688 0.000000 0.500000
#
# Coordination Sequence:
#
# PCOD8274025 Si02
#       6
#    16  16  16  16  16   8
#     4   9  18  32  51  78 112 149 187 226 271 323
#     4  10  22  40  61  84 111 145 185 233 283 333
#     4   9  19  36  56  79 109 144 180 219 269 330
#     4  11  24  40  59  83 112 146 184 227 277 334
#     4   9  18  34  56  81 109 143 185 231 277 327
#     4   9  17  29  49  79 109 137 173 217 260 307
#
# _framework density 19.444351000000001
#
# number of rings (size 3 to 8) (size 9 to 14) (size 15 to 20)
#    0.000    2.455    0.000    1.364    1.273    5.818 
#    0.000    3.636    0.000    0.000    0.000    5.091 
#    0.000    0.000    0.000    0.000    0.000    0.000 
#
# Total GULP energy -545571.220468 kJ/mol
# GULP energy per Si atom -12399.345920 kJ/mol
# Density = 1.940010 g / cm^3
# Si number density = 19.444351 Si / 1000 Ang^3
#
#
#
# Elastic Constant Matrix: (Units=GPa)
#
#
# Indices 1 2 3 4 5 6 
#
# 1 106.8259 58.3928 46.0509 0.0000 0.0000 0.0000
# 2 58.3928 106.9087 61.1138 0.0000 0.0000 0.0000
# 3 46.0509 61.1138 87.5964 0.0000 0.0000 0.0000
# 4 0.0000 0.0000 0.0000 27.2012 0.0000 0.0000
# 5 0.0000 0.0000 0.0000 0.0000 23.9725 0.0000
# 6 0.0000 0.0000 0.0000 0.0000 0.0000 31.0265
#
#
#
# Elastic Compliance Matrix: (Units=1/GPa)
#
#
# Indices 1 2 3 4 5 6 
#
# 1 0.013911 -0.005685 -0.003347 0.000000 0.000000 0.000000
# 2 -0.005685 0.017882 -0.009487 0.000000 0.000000 0.000000
# 3 -0.003347 -0.009487 0.019795 0.000000 0.000000 0.000000
# 4 0.000000 0.000000 0.000000 0.036763 0.000000 0.000000
# 5 0.000000 0.000000 0.000000 0.000000 0.041715 0.000000
# 6 0.000000 0.000000 0.000000 0.000000 0.000000 0.032231
#
#
# Mechanical properties :
#
#
# Convention : Reuss Voigt Hill
#
# Bulk Modulus (GPa) = 68.73111 70.27178 69.50145
# Shear Modulus (GPa) = 24.48757 25.49160 24.98959
#
# Velocity S-wave (km/s) = 3.55261 3.62471 3.58884
# Velocity P-wave (km/s) = 7.22858 7.33051 7.27972
#
# Compressibility (1/GPa) = 0.01454945
#
# Stress axis : x y z
#
# Youngs Moduli (GPa) = 71.88327 55.92163 50.51845
#
# Poissons Ratio (x) = 0.31791 0.16910
# Poissons Ratio (y) = 0.40865 0.47928
# Poissons Ratio (z) = 0.24061 0.53054
#
# Static dielectric constant tensor:
#      x y z
#    x 3.641400 0.000000 0.000000 
#    y 0.000000 3.442880 0.000000 
#    z 0.000000 0.000000 3.524470 
# 
# 
# High freq. dielectric constant tensor:
#      x y z
#    x 1.759480 0.000000 0.000000 
#    y 0.000000 1.749610 0.000000 
#    z 0.000000 0.000000 1.751930 
# 
# From -- ./inp_files/67515.got.cif
#   From: 2010.03.12/outbox.cif.g09.slc.cpg/sg65_34_cif.got.tgz:67515.got - 2010.04.10 20:52:16.
