data_PCOD8274641
_publ_section_title
;
Structure prediction by ZEFSAII (Michael W. Deem and Ramdas Pophale) SiO2 
 PCOD8274641
Probable space group: C M M M
;
_chemical_formula_sum "Si O2"
_cell_formula_units_Z 64
_cell_length_a 11.486304
_cell_length_b 15.563559
_cell_length_c 16.191211
_cell_angle_alpha 90.000000
_cell_angle_beta 90.000000
_cell_angle_gamma 90.000000
_cell_volume 2894.466684
_symmetry_space_group_name_H-M "C M M M"
_symmetry_group_IT_number 65
_symmetry_cell_setting 'orthorhombic'
loop_
_space_group_symop_operation_xyz
x,y,z
-x,-y,z
x,-y,-z
-x,y,-z
-x,-y,-z
x,y,-z
-x,y,z
x,-y,z
1/2+x,1/2+y,z
1/2-x,1/2-y,z
1/2+x,1/2-y,-z
1/2-x,1/2+y,-z
1/2-x,1/2-y,-z
1/2+x,1/2+y,-z
1/2-x,1/2+y,z
1/2+x,1/2-y,z
loop_
_atom_site_type_symbol
_atom_site_label
_atom_site_fract_x
_atom_site_fract_y
_atom_site_fract_z
Si Si1 0.247674 0.102705 0.852131
Si Si2 0.125020 0.500000 0.595745
Si Si3 0.637507 0.187595 0.000000
Si Si4 0.000000 0.899354 0.406402
Si Si5 0.000000 0.905218 0.096665
Si Si6 0.764406 0.847314 0.669064
O O1 0.119838 0.141620 0.876668
O O2 0.275940 0.142535 0.763626
O O3 0.245328 0.000000 0.848539
O O4 0.346651 0.130408 0.917466
O O5 0.106629 0.500000 0.500000
O O6 0.188905 0.412067 0.615930
O O7 0.000000 0.500000 0.641336
O O8 0.750000 0.250000 0.000000
O O9 0.500000 0.224252 0.000000
O O10 0.103729 0.870851 0.347941
O O11 0.000000 0.858801 0.500000
O O12 0.000000 0.000000 0.418199
O O13 0.000000 0.000000 0.137485
O O14 0.000000 0.914451 0.000000
O O15 0.750000 0.750000 0.639087
#
# Coordination Sequence:
#
# PCOD8274641 Si02
#       6
#    16   8   8   8   8  16
#     4  11  22  44  72 102 141 191 239 302 356 438
#     4  11  26  49  73 100 141 189 238 299 381 461
#     4  12  29  47  68 106 144 195 248 306 368 430
#     4  11  23  45  77 107 143 188 245 308 369 446
#     4   9  17  33  67 101 131 173 238 283 352 419
#     4  12  26  46  72 110 146 189 244 303 370 434
#
# _framework density 22.111155
#
# number of rings (size 3 to 8) (size 9 to 14) (size 15 to 20)
#    0.000    0.875    3.750    2.625    3.500    5.000 
#    4.500    0.000    0.000    0.000    0.000    0.000 
#    0.000    0.000    0.000    0.000    0.000    0.000 
#
# Total GULP energy -396592.417964 kJ/mol
# GULP energy per Si atom -12393.513061 kJ/mol
# Density = 2.206083 g / cm^3
# Si number density = 22.111155 Si / 1000 Ang^3
#
#
#
# Elastic Constant Matrix: (Units=GPa)
#
#
# Indices 1 2 3 4 5 6 
#
# 1 151.9116 54.1375 24.8002 0.0000 0.0000 0.0000
# 2 54.1375 131.5854 23.8538 0.0000 0.0000 0.0000
# 3 24.8002 23.8538 104.7892 0.0000 0.0000 0.0000
# 4 0.0000 0.0000 0.0000 37.7222 0.0000 0.0000
# 5 0.0000 0.0000 0.0000 0.0000 50.2089 0.0000
# 6 0.0000 0.0000 0.0000 0.0000 0.0000 33.3109
#
#
#
# Elastic Compliance Matrix: (Units=1/GPa)
#
#
# Indices 1 2 3 4 5 6 
#
# 1 0.007849 -0.003017 -0.001171 0.000000 0.000000 0.000000
# 2 -0.003017 0.009086 -0.001354 0.000000 0.000000 0.000000
# 3 -0.001171 -0.001354 0.010128 0.000000 0.000000 0.000000
# 4 0.000000 0.000000 0.000000 0.026510 0.000000 0.000000
# 5 0.000000 0.000000 0.000000 0.000000 0.019917 0.000000
# 6 0.000000 0.000000 0.000000 0.000000 0.000000 0.030020
#
#
# Mechanical properties :
#
#
# Convention : Reuss Voigt Hill
#
# Bulk Modulus (GPa) = 62.58057 65.98545 64.28301
# Shear Modulus (GPa) = 41.69393 43.28138 42.48766
#
# Velocity S-wave (km/s) = 4.34712 4.42910 4.38830
# Velocity P-wave (km/s) = 7.31852 7.48754 7.40352
#
# Compressibility (1/GPa) = 0.01597940
#
# Stress axis : x y z
#
# Youngs Moduli (GPa) = 127.40265 110.05403 98.73254
#
# Poissons Ratio (x) = 0.33204 0.11560
# Poissons Ratio (y) = 0.38438 0.13372
# Poissons Ratio (z) = 0.14917 0.14905
#
# Static dielectric constant tensor:
#      x y z
#    x 5.070390 0.000000 0.000000 
#    y 0.000000 4.060480 0.000000 
#    z 0.000000 0.000000 4.090410 
# 
# 
# High freq. dielectric constant tensor:
#      x y z
#    x 1.874630 0.000000 0.000000 
#    y 0.000000 1.866930 0.000000 
#    z 0.000000 0.000000 1.878390 
# 
# From -- ./inp_files/37856.got.cif
#   From: 2010.03.12/outbox.cif.g09.slc.cpg/sg65_19_cif.got.tgz:37856.got - 2010.04.10 20:52:16.
