data_PCOD8274792
_publ_section_title
;
Structure prediction by ZEFSAII (Michael W. Deem and Ramdas Pophale) SiO2 
 PCOD8274792
Probable space group: C M M M
;
_chemical_formula_sum "Si O2"
_cell_formula_units_Z 96
_cell_length_a 12.625177
_cell_length_b 16.989245
_cell_length_c 22.946619
_cell_angle_alpha 90.000000
_cell_angle_beta 90.000000
_cell_angle_gamma 90.000000
_cell_volume 4921.871371
_symmetry_space_group_name_H-M "C M M M"
_symmetry_group_IT_number 65
_symmetry_cell_setting 'orthorhombic'
loop_
_space_group_symop_operation_xyz
x,y,z
-x,-y,z
x,-y,-z
-x,y,-z
-x,-y,-z
x,y,-z
-x,y,z
x,-y,z
1/2+x,1/2+y,z
1/2-x,1/2-y,z
1/2+x,1/2-y,-z
1/2-x,1/2+y,-z
1/2-x,1/2-y,-z
1/2+x,1/2+y,-z
1/2-x,1/2+y,z
1/2+x,1/2-y,z
loop_
_atom_site_type_symbol
_atom_site_label
_atom_site_fract_x
_atom_site_fract_y
_atom_site_fract_z
Si Si1 0.200110 0.668284 0.566752
Si Si2 0.123131 0.409049 0.933857
Si Si3 0.884660 0.908093 0.749216
Si Si4 0.115083 0.091727 0.621329
Si Si5 0.000000 0.591672 0.627511
Si Si6 0.708500 0.162160 0.176982
Si Si7 0.000000 0.592245 0.234041
O O1 0.162818 0.674529 0.500000
O O2 0.250000 0.750000 0.590068
O O3 0.297518 0.608375 0.572572
O O4 0.102365 0.638079 0.604768
O O5 0.152959 0.500000 0.924152
O O6 0.193055 0.354750 0.891578
O O7 0.000000 0.395942 0.919234
O O8 0.147941 0.383624 0.000000
O O9 0.849516 0.875309 0.685310
O O10 0.801482 0.891961 0.799420
O O11 0.000000 0.871894 0.765773
O O12 0.896232 0.000000 0.743607
O O13 0.000000 0.128760 0.604197
O O14 0.100894 0.000000 0.625504
O O15 0.000000 0.594377 0.696691
O O16 0.000000 0.500000 0.606180
O O17 0.750000 0.250000 0.187287
O O18 0.601706 0.139668 0.211150
O O19 0.000000 0.500000 0.212749
#
# Coordination Sequence:
#
# PCOD8274792 Si02
#       7
#    16  16  16  16   8  16   8
#     4  11  25  41  59  86 119 155 195 243 305 370
#     4   9  18  36  63  89 116 160 214 257 298 353
#     4   9  19  36  57  81 115 157 195 235 293 365
#     4   9  19  37  60  85 111 146 195 245 292 348
#     4  11  25  44  67  91 119 159 206 254 309 365
#     4  12  24  35  58  91 130 156 199 253 307 355
#     4  11  24  43  65  91 122 162 208 254 303 365
#
# _framework density 19.504777000000001
#
# number of rings (size 3 to 8) (size 9 to 14) (size 15 to 20)
#    0.000    1.833    0.833    4.750    2.333    7.667 
#    0.000    0.833    0.000    0.500    0.000    2.333 
#    0.000    0.000    0.000    0.000    0.000    0.000 
#
# Total GULP energy -594883.303452 kJ/mol
# GULP energy per Si atom -12393.402155 kJ/mol
# Density = 1.946038 g / cm^3
# Si number density = 19.504777 Si / 1000 Ang^3
#
#
#
# Elastic Constant Matrix: (Units=GPa)
#
#
# Indices 1 2 3 4 5 6 
#
# 1 129.6638 53.5687 47.1925 0.0000 0.0000 0.0000
# 2 53.5687 86.6202 39.5889 0.0000 0.0000 0.0000
# 3 47.1925 39.5889 82.8961 0.0000 0.0000 0.0000
# 4 0.0000 0.0000 0.0000 19.7624 0.0000 0.0000
# 5 0.0000 0.0000 0.0000 0.0000 7.7665 0.0000
# 6 0.0000 0.0000 0.0000 0.0000 0.0000 31.5295
#
#
#
# Elastic Compliance Matrix: (Units=1/GPa)
#
#
# Indices 1 2 3 4 5 6 
#
# 1 0.011290 -0.005174 -0.003956 0.000000 0.000000 0.000000
# 2 -0.005174 0.017139 -0.005240 0.000000 0.000000 0.000000
# 3 -0.003956 -0.005240 0.016818 0.000000 0.000000 0.000000
# 4 0.000000 0.000000 0.000000 0.050601 0.000000 0.000000
# 5 0.000000 0.000000 0.000000 0.000000 0.128759 0.000000
# 6 0.000000 0.000000 0.000000 0.000000 0.000000 0.031716
#
#
# Mechanical properties :
#
#
# Convention : Reuss Voigt Hill
#
# Bulk Modulus (GPa) = 60.58010 64.43114 62.50562
# Shear Modulus (GPa) = 17.20786 22.40033 19.80410
#
# Velocity S-wave (km/s) = 2.97347 3.39256 3.18991
# Velocity P-wave (km/s) = 6.55097 6.96069 6.75894
#
# Compressibility (1/GPa) = 0.01650707
#
# Stress axis : x y z
#
# Youngs Moduli (GPa) = 88.57689 58.34656 59.46010
#
# Poissons Ratio (x) = 0.30186 0.23525
# Poissons Ratio (y) = 0.45827 0.31156
# Poissons Ratio (z) = 0.35044 0.30572
#
# Static dielectric constant tensor:
#      x y z
#    x 3.969240 0.000000 0.000000 
#    y 0.000000 3.571770 0.000000 
#    z 0.000000 0.000000 3.565870 
# 
# 
# High freq. dielectric constant tensor:
#      x y z
#    x 1.766190 0.000000 0.000000 
#    y 0.000000 1.747450 0.000000 
#    z 0.000000 0.000000 1.759250 
# 
# From -- ./inp_files/69040.got.cif
#   From: 2010.03.12/outbox.cif.g09.slc.cpg/sg65_35_cif.got.tgz:69040.got - 2010.04.10 20:52:16.
