data_PCOD8274138
_publ_section_title
;
Structure prediction by ZEFSAII (Michael W. Deem and Ramdas Pophale) SiO2 
 PCOD8274138
Probable space group: C M M M
;
_chemical_formula_sum "Si O2"
_cell_formula_units_Z 96
_cell_length_a 8.792491
_cell_length_b 23.263951
_cell_length_c 25.754488
_cell_angle_alpha 90.000000
_cell_angle_beta 90.000000
_cell_angle_gamma 90.000000
_cell_volume 5268.031066
_symmetry_space_group_name_H-M "C M M M"
_symmetry_group_IT_number 65
_symmetry_cell_setting 'orthorhombic'
loop_
_space_group_symop_operation_xyz
x,y,z
-x,-y,z
x,-y,-z
-x,y,-z
-x,-y,-z
x,y,-z
-x,y,z
x,-y,z
1/2+x,1/2+y,z
1/2-x,1/2-y,z
1/2+x,1/2-y,-z
1/2-x,1/2+y,-z
1/2-x,1/2-y,-z
1/2+x,1/2+y,-z
1/2-x,1/2+y,z
1/2+x,1/2-y,z
loop_
_atom_site_type_symbol
_atom_site_label
_atom_site_fract_x
_atom_site_fract_y
_atom_site_fract_z
Si Si1 0.319357 0.500000 0.874029
Si Si2 0.677872 0.618334 0.709223
Si Si3 0.821648 0.188270 0.809828
Si Si4 0.319652 0.883536 0.900208
Si Si5 0.318111 0.500000 0.245277
Si Si6 0.679237 0.187571 0.000000
Si Si7 0.176991 0.811170 0.500000
Si Si8 0.680238 0.313118 0.612188
O O1 0.500000 0.500000 0.876298
O O2 0.254104 0.554059 0.905080
O O3 0.261412 0.500000 0.814253
O O4 0.500000 0.608531 0.702996
O O5 0.712832 0.666481 0.752076
O O6 0.748317 0.556510 0.725387
O O7 0.746453 0.642520 0.655056
O O8 0.750000 0.250000 0.817932
O O9 0.741998 0.144446 0.848090
O O10 0.000000 0.190439 0.821976
O O11 0.500000 0.888875 0.897949
O O12 0.264897 0.846411 0.949285
O O13 0.500000 0.500000 0.245140
O O14 0.750000 0.250000 0.000000
O O15 0.500000 0.194608 0.000000
O O16 0.250000 0.750000 0.500000
O O17 0.222676 0.840730 0.555111
O O18 0.000000 0.800727 0.500000
O O19 0.500000 0.306452 0.619190
O O20 0.750000 0.250000 0.619786
#
# Coordination Sequence:
#
# PCOD8274138 Si02
#       8
#     8  16  16  16   8   8   8  16
#     4  11  21  38  62  85 109 140 180 220 259 312
#     4   9  17  29  48  71  98 132 170 211 258 309
#     4  11  21  34  52  78 107 138 174 215 265 321
#     4  11  23  40  60  83 110 142 177 218 264 310
#     4   9  16  31  52  73  97 131 172 209 248 303
#     4  10  24  43  62  83 111 144 178 216 261 316
#     4   8  14  24  40  63  93 127 165 206 249 300
#     4   9  16  27  44  68  97 130 166 207 255 305
#
# _framework density 18.223127000000002
#
# number of rings (size 3 to 8) (size 9 to 14) (size 15 to 20)
#    0.000    2.167    1.667    2.250    0.000    3.000 
#    0.000    2.500    0.000    0.500    0.000    3.500 
#    0.000    0.000    0.000   12.250    0.000    8.500 
#
# Total GULP energy -594945.270659 kJ/mol
# GULP energy per Si atom -12394.693139 kJ/mol
# Density = 1.818165 g / cm^3
# Si number density = 18.223127 Si / 1000 Ang^3
#
#
#
# Elastic Constant Matrix: (Units=GPa)
#
#
# Indices 1 2 3 4 5 6 
#
# 1 40.8638 32.1081 32.6099 0.0000 0.0000 0.0000
# 2 32.1081 130.8354 52.6894 0.0000 0.0000 0.0000
# 3 32.6099 52.6894 127.2532 0.0000 0.0000 0.0000
# 4 0.0000 0.0000 0.0000 20.6698 0.0000 0.0000
# 5 0.0000 0.0000 0.0000 0.0000 19.5249 0.0000
# 6 0.0000 0.0000 0.0000 0.0000 0.0000 25.0335
#
#
#
# Elastic Compliance Matrix: (Units=1/GPa)
#
#
# Indices 1 2 3 4 5 6 
#
# 1 0.034093 -0.005818 -0.006327 0.000000 0.000000 0.000000
# 2 -0.005818 0.010166 -0.002718 0.000000 0.000000 0.000000
# 3 -0.006327 -0.002718 0.010605 0.000000 0.000000 0.000000
# 4 0.000000 0.000000 0.000000 0.048380 0.000000 0.000000
# 5 0.000000 0.000000 0.000000 0.000000 0.051217 0.000000
# 6 0.000000 0.000000 0.000000 0.000000 0.000000 0.039946
#
#
# Mechanical properties :
#
#
# Convention : Reuss Voigt Hill
#
# Bulk Modulus (GPa) = 39.78416 59.30748 49.54582
# Shear Modulus (GPa) = 21.50418 25.14866 23.32642
#
# Velocity S-wave (km/s) = 3.43891 3.71892 3.58165
# Velocity P-wave (km/s) = 6.13573 7.14537 6.65971
#
# Compressibility (1/GPa) = 0.02513563
#
# Stress axis : x y z
#
# Youngs Moduli (GPa) = 29.33181 98.36998 94.29293
#
# Poissons Ratio (x) = 0.57236 0.59663
# Poissons Ratio (y) = 0.17067 0.25630
# Poissons Ratio (z) = 0.18560 0.26738
#
# Static dielectric constant tensor:
#      x y z
#    x 2.898320 0.000000 0.000000 
#    y 0.000000 3.490100 0.000000 
#    z 0.000000 0.000000 3.916890 
# 
# 
# High freq. dielectric constant tensor:
#      x y z
#    x 1.685350 0.000000 0.000000 
#    y 0.000000 1.699160 0.000000 
#    z 0.000000 0.000000 1.719200 
# 
# From -- ./inp_files/67937.got.cif
#   From: 2010.03.12/outbox.cif.g09.slc.cpg/sg65_34_cif.got.tgz:67937.got - 2010.04.10 20:52:16.
