data_PCOD8274375
_publ_section_title
;
Structure prediction by ZEFSAII (Michael W. Deem and Ramdas Pophale) SiO2 
 PCOD8274375
Probable space group: C M M M
;
_chemical_formula_sum "Si O2"
_cell_formula_units_Z 72
_cell_length_a 19.132589
_cell_length_b 22.214253
_cell_length_c 8.817651
_cell_angle_alpha 90.000000
_cell_angle_beta 90.000000
_cell_angle_gamma 90.000000
_cell_volume 3747.644279
_symmetry_space_group_name_H-M "C M M M"
_symmetry_group_IT_number 65
_symmetry_cell_setting 'orthorhombic'
loop_
_space_group_symop_operation_xyz
x,y,z
-x,-y,z
x,-y,-z
-x,y,-z
-x,-y,-z
x,y,-z
-x,y,z
x,-y,z
1/2+x,1/2+y,z
1/2-x,1/2-y,z
1/2+x,1/2-y,-z
1/2-x,1/2+y,-z
1/2-x,1/2-y,-z
1/2+x,1/2+y,-z
1/2-x,1/2+y,z
1/2+x,1/2-y,z
loop_
_atom_site_type_symbol
_atom_site_label
_atom_site_fract_x
_atom_site_fract_y
_atom_site_fract_z
Si Si1 0.577245 0.223608 0.320124
Si Si2 0.918414 0.500000 0.177476
Si Si3 0.837538 0.389851 0.679757
Si Si4 0.918444 0.857993 0.675243
Si Si5 0.800991 0.930554 0.177452
O O1 0.572668 0.223380 0.500000
O O2 0.500000 0.208386 0.254584
O O3 0.632447 0.174226 0.262490
O O4 0.600327 0.290405 0.268291
O O5 0.884635 0.558636 0.248910
O O6 0.000000 0.500000 0.214676
O O7 0.902326 0.500000 0.000000
O O8 0.841044 0.395720 0.500000
O O9 0.758029 0.393586 0.733814
O O10 0.897628 0.866658 0.500000
O O11 0.876276 0.905049 0.776877
O O12 0.000000 0.871140 0.699556
O O13 0.796621 0.000000 0.226131
O O14 0.788818 0.922788 0.000000
#
# Coordination Sequence:
#
# PCOD8274375 Si02
#       5
#    16   8  16  16  16
#     4   8  16  33  57  86 116 143 179 234 290 333
#     4  11  23  37  53  79 118 157 190 229 281 333
#     4  11  21  35  59  85 111 148 195 238 275 329
#     4   9  19  38  63  87 111 141 183 236 288 340
#     4  11  24  40  56  77 115 156 188 232 288 342
#
# _framework density 19.212067000000001
#
# number of rings (size 3 to 8) (size 9 to 14) (size 15 to 20)
#    0.000    2.111    1.111    3.667    0.000    4.889 
#    0.000    8.889    0.000    2.667    0.000    0.000 
#    0.000    0.000    0.000    0.000    0.000    0.000 
#
# Total GULP energy -446446.469320 kJ/mol
# GULP energy per Si atom -12401.290814 kJ/mol
# Density = 1.916834 g / cm^3
# Si number density = 19.212067 Si / 1000 Ang^3
#
#
#
# Elastic Constant Matrix: (Units=GPa)
#
#
# Indices 1 2 3 4 5 6 
#
# 1 106.7873 57.6243 36.1765 0.0000 0.0000 0.0000
# 2 57.6243 85.0955 29.4258 0.0000 0.0000 0.0000
# 3 36.1765 29.4258 47.3755 0.0000 0.0000 0.0000
# 4 0.0000 0.0000 0.0000 -3.1045 0.0000 0.0000
# 5 0.0000 0.0000 0.0000 0.0000 27.6387 0.0000
# 6 0.0000 0.0000 0.0000 0.0000 0.0000 38.9547
#
#
#
# Elastic Compliance Matrix: (Units=1/GPa)
#
#
# Indices 1 2 3 4 5 6 
#
# 1 0.016483 -0.008672 -0.007200 0.000000 0.000000 0.000000
# 2 -0.008672 0.019528 -0.005507 0.000000 0.000000 0.000000
# 3 -0.007200 -0.005507 0.030027 0.000000 0.000000 0.000000
# 4 0.000000 0.000000 0.000000 -0.322112 0.000000 0.000000
# 5 0.000000 0.000000 0.000000 0.000000 0.036181 0.000000
# 6 0.000000 0.000000 0.000000 0.000000 0.000000 0.025671
#
#
# Mechanical properties :
#
#
# Convention : Reuss Voigt Hill
#
# Bulk Modulus (GPa) = 42.95725 53.96793 48.46259
# Shear Modulus (GPa) = -34.79441 20.43321 -7.18060
#
# Velocity S-wave (km/s) = -4.26028 3.26477 -1.93537
# Velocity P-wave (km/s) = 1.33865 6.50870 4.50396
#
# Compressibility (1/GPa) = 0.02327896
#
# Stress axis : x y z
#
# Youngs Moduli (GPa) = 60.66717 51.20723 33.30335
#
# Poissons Ratio (x) = 0.44408 0.23980
# Poissons Ratio (y) = 0.52612 0.18341
# Poissons Ratio (z) = 0.43683 0.28202
#
# Static dielectric constant tensor:
#      x y z
#    x 3.568810 0.000000 0.000000 
#    y 0.000000 3.989810 0.000000 
#    z 0.000000 0.000000 3.300960 
# 
# 
# High freq. dielectric constant tensor:
#      x y z
#    x 1.754610 0.000000 0.000000 
#    y 0.000000 1.755090 0.000000 
#    z 0.000000 0.000000 1.728730 
# 
# From -- ./inp_files/9223.got.cif
#   From: 2010.03.12/outbox.cif.g09.slc.cpg/sg65_5_cif.got.tgz:9223.got - 2010.04.10 20:52:16.
