data_PCOD8274881
_publ_section_title
;
Structure prediction by ZEFSAII (Michael W. Deem and Ramdas Pophale) SiO2 
 PCOD8274881
Probable space group: C M M M
;
_chemical_formula_sum "Si O2"
_cell_formula_units_Z 104
_cell_length_a 37.735310
_cell_length_b 17.701389
_cell_length_c 9.459265
_cell_angle_alpha 90.000000
_cell_angle_beta 90.000000
_cell_angle_gamma 90.000000
_cell_volume 6318.480661
_symmetry_space_group_name_H-M "C M M M"
_symmetry_group_IT_number 65
_symmetry_cell_setting 'orthorhombic'
loop_
_space_group_symop_operation_xyz
x,y,z
-x,-y,z
x,-y,-z
-x,y,-z
-x,-y,-z
x,y,-z
-x,y,z
x,-y,z
1/2+x,1/2+y,z
1/2-x,1/2-y,z
1/2+x,1/2-y,-z
1/2-x,1/2+y,-z
1/2-x,1/2-y,-z
1/2+x,1/2+y,-z
1/2-x,1/2+y,z
1/2+x,1/2-y,z
loop_
_atom_site_type_symbol
_atom_site_label
_atom_site_fract_x
_atom_site_fract_y
_atom_site_fract_z
Si Si1 0.039469 0.837320 0.168847
Si Si2 0.104326 0.739717 0.166175
Si Si3 0.169630 0.793381 0.337604
Si Si4 0.275804 0.584802 0.332306
Si Si5 0.133922 0.582962 0.837370
Si Si6 0.458082 0.500000 0.153971
Si Si7 0.800726 0.369141 0.337970
O O1 0.066452 0.771866 0.218529
O O2 0.000000 0.816319 0.224554
O O3 0.051982 0.920157 0.230689
O O4 0.038667 0.843721 0.000000
O O5 0.134587 0.786822 0.244358
O O6 0.106827 0.650371 0.206342
O O7 0.109226 0.752541 0.000000
O O8 0.158200 0.806616 0.500000
O O9 0.192691 0.862355 0.274943
O O10 0.194225 0.720122 0.323798
O O11 0.274553 0.592741 0.500000
O O12 0.284084 0.500000 0.282459
O O13 0.237575 0.610401 0.273105
O O14 0.116215 0.500000 0.812613
O O15 0.169662 0.586121 0.748015
O O16 0.144744 0.593643 0.000000
O O17 0.500000 0.500000 0.135069
O O18 0.439633 0.500000 0.000000
O O19 0.803826 0.395973 0.500000
#
# Coordination Sequence:
#
# PCOD8274881 Si02
#       7
#    16  16  16  16  16   8  16
#     4   8  13  23  41  63  84 106 134 168 203 237
#     4   9  17  29  44  62  84 109 137 167 202 246
#     4   9  17  29  43  59  82 110 138 167 205 249
#     4   9  16  26  41  60  81 106 138 173 207 244
#     4   9  17  28  41  59  85 113 136 163 206 253
#     4   7  10  18  34  58  83 101 123 161 203 233
#     4   9  16  27  45  64  78  99 139 185 212 231
#
# _framework density 16.459652999999999
#
# number of rings (size 3 to 8) (size 9 to 14) (size 15 to 20)
#    0.000    3.308    0.000    1.846    0.000    2.769 
#    1.385    0.769    0.000    5.538    0.000    3.231 
#    0.000    1.846    0.000    7.692    0.000    8.000 
#
# Total GULP energy -644314.507314 kJ/mol
# GULP energy per Si atom -12390.663602 kJ/mol
# Density = 1.642219 g / cm^3
# Si number density = 16.459653 Si / 1000 Ang^3
#
#
#
# Elastic Constant Matrix: (Units=GPa)
#
#
# Indices 1 2 3 4 5 6 
#
# 1 108.6009 82.6215 22.4485 0.0000 0.0000 0.0000
# 2 82.6215 135.5986 23.0854 0.0000 0.0000 0.0000
# 3 22.4485 23.0854 22.0682 0.0000 0.0000 0.0000
# 4 0.0000 0.0000 0.0000 12.3171 0.0000 0.0000
# 5 0.0000 0.0000 0.0000 0.0000 8.1303 0.0000
# 6 0.0000 0.0000 0.0000 0.0000 0.0000 24.4348
#
#
#
# Elastic Compliance Matrix: (Units=1/GPa)
#
#
# Indices 1 2 3 4 5 6 
#
# 1 0.018387 -0.009757 -0.008498 0.000000 0.000000 0.000000
# 2 -0.009757 0.014150 -0.004877 0.000000 0.000000 0.000000
# 3 -0.008498 -0.004877 0.059060 0.000000 0.000000 0.000000
# 4 0.000000 0.000000 0.000000 0.081188 0.000000 0.000000
# 5 0.000000 0.000000 0.000000 0.000000 0.122996 0.000000
# 6 0.000000 0.000000 0.000000 0.000000 0.000000 0.040925
#
#
# Mechanical properties :
#
#
# Convention : Reuss Voigt Hill
#
# Bulk Modulus (GPa) = 22.05846 58.06427 40.06136
# Shear Modulus (GPa) = 12.56024 18.18395 15.37209
#
# Velocity S-wave (km/s) = 2.76541 3.32740 3.05933
# Velocity P-wave (km/s) = 4.86079 7.07922 6.07218
#
# Compressibility (1/GPa) = 0.04533409
#
# Stress axis : x y z
#
# Youngs Moduli (GPa) = 54.38496 70.67133 16.93190
#
# Poissons Ratio (x) = 0.68953 0.14388
# Poissons Ratio (y) = 0.53063 0.08258
# Poissons Ratio (z) = 0.46215 0.34467
#
# Static dielectric constant tensor:
#      x y z
#    x 3.022870 0.000000 0.000000 
#    y 0.000000 3.441180 0.000000 
#    z 0.000000 0.000000 2.749880 
# 
# 
# High freq. dielectric constant tensor:
#      x y z
#    x 1.610390 0.000000 0.000000 
#    y 0.000000 1.647850 0.000000 
#    z 0.000000 0.000000 1.588830 
# 
# From -- ./inp_files/34112.got.cif
#   From: 2010.03.12/outbox.cif.g09.slc.cpg/sg65_18_cif.got.tgz:34112.got - 2010.04.10 20:52:16.
