data_PCOD8274633
_publ_section_title
;
Structure prediction by ZEFSAII (Michael W. Deem and Ramdas Pophale) SiO2 
 PCOD8274633
Probable space group: C M M M
;
_chemical_formula_sum "Si O2"
_cell_formula_units_Z 64
_cell_length_a 32.659292
_cell_length_b 10.615432
_cell_length_c 8.647951
_cell_angle_alpha 90.000000
_cell_angle_beta 90.000000
_cell_angle_gamma 90.000000
_cell_volume 2998.179695
_symmetry_space_group_name_H-M "C M M M"
_symmetry_group_IT_number 65
_symmetry_cell_setting 'orthorhombic'
loop_
_space_group_symop_operation_xyz
x,y,z
-x,-y,z
x,-y,-z
-x,y,-z
-x,-y,-z
x,y,-z
-x,y,z
x,-y,z
1/2+x,1/2+y,z
1/2-x,1/2-y,z
1/2+x,1/2-y,-z
1/2-x,1/2+y,-z
1/2-x,1/2-y,-z
1/2+x,1/2+y,-z
1/2-x,1/2+y,z
1/2+x,1/2-y,z
loop_
_atom_site_type_symbol
_atom_site_label
_atom_site_fract_x
_atom_site_fract_y
_atom_site_fract_z
Si Si1 0.500000 0.357817 0.167461
Si Si2 0.579890 0.260648 0.318252
Si Si3 0.165122 0.234487 0.818097
Si Si4 0.788489 0.000000 0.321470
Si Si5 0.954362 0.500000 0.682040
Si Si6 0.691974 0.000000 0.678446
O O1 0.500000 0.500000 0.120781
O O2 0.539687 0.335299 0.271217
O O3 0.500000 0.284235 0.000000
O O4 0.587632 0.275637 0.500000
O O5 0.619513 0.310098 0.227639
O O6 0.572151 0.117883 0.264710
O O7 0.173828 0.373026 0.751558
O O8 0.195658 0.128434 0.754902
O O9 0.170186 0.239701 0.000000
O O10 0.740209 0.000000 0.298607
O O11 0.801390 0.000000 0.500000
O O12 0.960697 0.500000 0.500000
O O13 0.000000 0.500000 0.757969
O O14 0.678939 0.000000 0.500000
#
# Coordination Sequence:
#
# PCOD8274633 Si02
#       6
#     8  16  16   8   8   8
#     4  11  25  42  59  84 126 171 216 273 330 380
#     4  11  22  40  66  92 125 168 218 266 319 389
#     4  12  26  43  67 101 140 176 219 276 338 398
#     4  11  25  46  72 100 132 175 225 274 330 401
#     4   9  17  34  59  89 116 149 202 261 312 363
#     4  11  24  46  73 101 134 174 223 273 328 402
#
# _framework density 21.346285000000002
#
# number of rings (size 3 to 8) (size 9 to 14) (size 15 to 20)
#    0.000    1.000    1.250    5.625    1.750    7.000 
#    0.000    2.500    0.000    0.000    0.000    0.000 
#    0.000    0.000    0.000    0.000    0.000    0.000 
#
# Total GULP energy -396798.192907 kJ/mol
# GULP energy per Si atom -12399.943528 kJ/mol
# Density = 2.129770 g / cm^3
# Si number density = 21.346285 Si / 1000 Ang^3
#
#
#
# Elastic Constant Matrix: (Units=GPa)
#
#
# Indices 1 2 3 4 5 6 
#
# 1 111.8854 30.5405 58.8112 0.0000 0.0000 0.0000
# 2 30.5405 111.8803 49.0639 0.0000 0.0000 0.0000
# 3 58.8112 49.0639 142.8915 0.0000 0.0000 0.0000
# 4 0.0000 0.0000 0.0000 30.2974 0.0000 0.0000
# 5 0.0000 0.0000 0.0000 0.0000 24.0372 0.0000
# 6 0.0000 0.0000 0.0000 0.0000 0.0000 8.1029
#
#
#
# Elastic Compliance Matrix: (Units=1/GPa)
#
#
# Indices 1 2 3 4 5 6 
#
# 1 0.011554 -0.001258 -0.004323 0.000000 0.000000 0.000000
# 2 -0.001258 0.010660 -0.003142 0.000000 0.000000 0.000000
# 3 -0.004323 -0.003142 0.009857 0.000000 0.000000 0.000000
# 4 0.000000 0.000000 0.000000 0.033006 0.000000 0.000000
# 5 0.000000 0.000000 0.000000 0.000000 0.041602 0.000000
# 6 0.000000 0.000000 0.000000 0.000000 0.000000 0.123413
#
#
# Mechanical properties :
#
#
# Convention : Reuss Voigt Hill
#
# Bulk Modulus (GPa) = 68.38713 71.49874 69.94293
# Shear Modulus (GPa) = 19.80885 27.70359 23.75622
#
# Velocity S-wave (km/s) = 3.04958 3.60643 3.33963
# Velocity P-wave (km/s) = 6.67132 7.13507 6.90709
#
# Compressibility (1/GPa) = 0.01462263
#
# Stress axis : x y z
#
# Youngs Moduli (GPa) = 86.55341 93.81252 101.45405
#
# Poissons Ratio (x) = 0.11801 0.43862
# Poissons Ratio (y) = 0.10888 0.31881
# Poissons Ratio (z) = 0.37420 0.29480
#
# Static dielectric constant tensor:
#      x y z
#    x 4.121150 0.000000 0.000000 
#    y 0.000000 3.710300 0.000000 
#    z 0.000000 0.000000 3.865840 
# 
# 
# High freq. dielectric constant tensor:
#      x y z
#    x 1.854580 0.000000 0.000000 
#    y 0.000000 1.844670 0.000000 
#    z 0.000000 0.000000 1.840650 
# 
# From -- ./inp_files/17857.got.cif
#   From: 2010.03.12/outbox.cif.g09.slc.cpg/sg65_9_cif.got.tgz:17857.got - 2010.04.10 20:52:16.
