data_PCOD8274222
_publ_section_title
;
Structure prediction by ZEFSAII (Michael W. Deem and Ramdas Pophale) SiO2 
 PCOD8274222
Probable space group: C M M M
;
_chemical_formula_sum "Si O2"
_cell_formula_units_Z 120
_cell_length_a 19.236698
_cell_length_b 24.145516
_cell_length_c 13.893885
_cell_angle_alpha 90.000000
_cell_angle_beta 90.000000
_cell_angle_gamma 90.000000
_cell_volume 6453.431696
_symmetry_space_group_name_H-M "C M M M"
_symmetry_group_IT_number 65
_symmetry_cell_setting 'orthorhombic'
loop_
_space_group_symop_operation_xyz
x,y,z
-x,-y,z
x,-y,-z
-x,y,-z
-x,-y,-z
x,y,-z
-x,y,z
x,-y,z
1/2+x,1/2+y,z
1/2-x,1/2-y,z
1/2+x,1/2-y,-z
1/2-x,1/2+y,-z
1/2-x,1/2-y,-z
1/2+x,1/2+y,-z
1/2-x,1/2+y,z
1/2+x,1/2-y,z
loop_
_atom_site_type_symbol
_atom_site_label
_atom_site_fract_x
_atom_site_fract_y
_atom_site_fract_z
Si Si1 0.079467 0.188033 0.211115
Si Si2 0.419410 0.083519 0.888551
Si Si3 0.294310 0.162136 0.610611
Si Si4 0.828227 0.099029 0.114532
Si Si5 0.352153 0.279608 0.390675
Si Si6 0.700718 0.062030 0.759079
Si Si7 0.918913 0.294479 0.897130
Si Si8 0.423658 0.500000 0.886253
O O1 0.136135 0.154806 0.150821
O O2 0.090775 0.188553 0.325671
O O3 0.097888 0.250923 0.184433
O O4 0.000000 0.170787 0.185017
O O5 0.500000 0.075215 0.859034
O O6 0.371039 0.049545 0.816024
O O7 0.389466 0.145465 0.871248
O O8 0.409455 0.065536 0.000000
O O9 0.304546 0.144063 0.500000
O O10 0.345201 0.214028 0.634960
O O11 0.217970 0.186350 0.627416
O O12 0.308438 0.106785 0.673254
O O13 0.755677 0.086979 0.165343
O O14 0.882777 0.053266 0.149189
O O15 0.816337 0.100266 0.000000
O O16 0.377096 0.285711 0.500000
O O17 0.723194 0.000000 0.721244
O O18 0.000000 0.303843 0.910184
O O19 0.888194 0.273887 0.000000
O O20 0.500000 0.500000 0.838307
O O21 0.430320 0.500000 0.000000
#
# Coordination Sequence:
#
# PCOD8274222 Si02
#       8
#    16  16  16  16  16  16  16   8
#     4  11  20  31  52  81 113 146 182 226 277 335
#     4   9  19  36  56  79 110 147 183 219 270 337
#     4   9  19  38  61  82 106 138 178 225 282 341
#     4  11  22  35  49  75 111 148 194 239 277 319
#     4   9  18  35  59  82 107 138 175 225 279 336
#     4  12  23  36  57  82 111 145 187 239 281 322
#     4   8  15  29  48  72 104 140 175 213 260 318
#     4   9  18  34  52  66  94 146 196 233 274 320
#
# _framework density 18.594757999999999
#
# number of rings (size 3 to 8) (size 9 to 14) (size 15 to 20)
#    0.000    2.200    2.000    3.600    0.000    2.933 
#    0.000    0.667    0.000    4.400    0.000    0.933 
#    0.000    4.267    0.000    0.000    0.000    0.000 
#
# Total GULP energy -743329.947991 kJ/mol
# GULP energy per Si atom -12388.832467 kJ/mol
# Density = 1.855244 g / cm^3
# Si number density = 18.594758 Si / 1000 Ang^3
#
#
#
# Elastic Constant Matrix: (Units=GPa)
#
#
# Indices 1 2 3 4 5 6 
#
# 1 75.5255 22.3061 34.1528 0.0000 0.0000 0.0000
# 2 22.3061 84.3612 35.6629 0.0000 0.0000 0.0000
# 3 34.1528 35.6629 85.6419 0.0000 0.0000 0.0000
# 4 0.0000 0.0000 0.0000 25.9307 0.0000 0.0000
# 5 0.0000 0.0000 0.0000 0.0000 24.9441 0.0000
# 6 0.0000 0.0000 0.0000 0.0000 0.0000 22.5718
#
#
#
# Elastic Compliance Matrix: (Units=1/GPa)
#
#
# Indices 1 2 3 4 5 6 
#
# 1 0.016403 -0.001908 -0.005747 0.000000 0.000000 0.000000
# 2 -0.001908 0.014608 -0.005322 0.000000 0.000000 0.000000
# 3 -0.005747 -0.005322 0.016185 0.000000 0.000000 0.000000
# 4 0.000000 0.000000 0.000000 0.038564 0.000000 0.000000
# 5 0.000000 0.000000 0.000000 0.000000 0.040090 0.000000
# 6 0.000000 0.000000 0.000000 0.000000 0.000000 0.044303
#
#
# Mechanical properties :
#
#
# Convention : Reuss Voigt Hill
#
# Bulk Modulus (GPa) = 47.07689 47.75245 47.41467
# Shear Modulus (GPa) = 24.60788 24.91642 24.76215
#
# Velocity S-wave (km/s) = 3.64177 3.66453 3.65317
# Velocity P-wave (km/s) = 6.56168 6.60616 6.58396
#
# Compressibility (1/GPa) = 0.02124184
#
# Stress axis : x y z
#
# Youngs Moduli (GPa) = 60.96567 68.45474 61.78710
#
# Poissons Ratio (x) = 0.13059 0.35508
# Poissons Ratio (y) = 0.11630 0.32885
# Poissons Ratio (z) = 0.35036 0.36434
#
# Static dielectric constant tensor:
#      x y z
#    x 3.256180 0.000000 0.000000 
#    y 0.000000 3.685200 0.000000 
#    z 0.000000 0.000000 3.296200 
# 
# 
# High freq. dielectric constant tensor:
#      x y z
#    x 1.708190 0.000000 0.000000 
#    y 0.000000 1.726990 0.000000 
#    z 0.000000 0.000000 1.706910 
# 
# From -- ./inp_files/29436.got.cif
#   From: 2010.03.12/outbox.cif.g09.slc.cpg/sg65_15_cif.got.tgz:29436.got - 2010.04.10 20:52:16.
