data_PCOD8274781
_publ_section_title
;
Structure prediction by ZEFSAII (Michael W. Deem and Ramdas Pophale) SiO2 
 PCOD8274781
Probable space group: C M M M
;
_chemical_formula_sum "Si O2"
_cell_formula_units_Z 96
_cell_length_a 17.585075
_cell_length_b 14.352618
_cell_length_c 19.935398
_cell_angle_alpha 90.000000
_cell_angle_beta 90.000000
_cell_angle_gamma 90.000000
_cell_volume 5031.532260
_symmetry_space_group_name_H-M "C M M M"
_symmetry_group_IT_number 65
_symmetry_cell_setting 'orthorhombic'
loop_
_space_group_symop_operation_xyz
x,y,z
-x,-y,z
x,-y,-z
-x,y,-z
-x,-y,-z
x,y,-z
-x,y,z
x,-y,z
1/2+x,1/2+y,z
1/2-x,1/2-y,z
1/2+x,1/2-y,-z
1/2-x,1/2+y,-z
1/2-x,1/2-y,-z
1/2+x,1/2+y,-z
1/2-x,1/2+y,z
1/2+x,1/2-y,z
loop_
_atom_site_type_symbol
_atom_site_label
_atom_site_fract_x
_atom_site_fract_y
_atom_site_fract_z
Si Si1 0.336879 0.278045 0.312062
Si Si2 0.667572 0.722361 0.924885
Si Si3 0.089416 0.110371 0.809795
Si Si4 0.410634 0.897683 0.882876
Si Si5 0.586630 0.608214 0.422568
Si Si6 0.410770 0.898364 0.730900
O O1 0.250000 0.250000 0.302185
O O2 0.367399 0.340679 0.251210
O O3 0.352364 0.332872 0.380715
O O4 0.380391 0.180161 0.318530
O O5 0.750000 0.750000 0.895414
O O6 0.625340 0.646500 0.879161
O O7 0.621376 0.818623 0.930850
O O8 0.674151 0.680304 0.000000
O O9 0.000000 0.136288 0.807514
O O10 0.101668 0.000000 0.804702
O O11 0.500000 0.900538 0.890633
O O12 0.387069 0.872147 0.806768
O O13 0.377698 0.000000 0.902093
O O14 0.597473 0.634545 0.500000
O O15 0.500000 0.630554 0.399617
O O16 0.603630 0.500000 0.410414
O O17 0.500000 0.903559 0.724434
O O18 0.376449 0.000000 0.711846
#
# Coordination Sequence:
#
# PCOD8274781 Si02
#       6
#    16  16  16  16  16  16
#     4  12  23  35  57  89 123 153 185 236 295 347
#     4  11  24  40  56  81 115 149 185 234 299 361
#     4  11  24  41  61  84 111 150 200 246 288 342
#     4   9  18  34  57  81 104 137 184 234 279 329
#     4   9  19  38  64  91 120 159 204 243 279 326
#     4   9  18  33  54  79 108 144 186 230 276 332
#
# _framework density 19.079675000000002
#
# number of rings (size 3 to 8) (size 9 to 14) (size 15 to 20)
#    0.000    1.833    1.667    4.500    0.000    5.667 
#    0.000    3.333    0.000    0.500    0.000    2.333 
#    0.000    0.000    0.000    0.000    0.000    0.000 
#
# Total GULP energy -595104.725406 kJ/mol
# GULP energy per Si atom -12398.015113 kJ/mol
# Density = 1.903625 g / cm^3
# Si number density = 19.079675 Si / 1000 Ang^3
#
#
#
# Elastic Constant Matrix: (Units=GPa)
#
#
# Indices 1 2 3 4 5 6 
#
# 1 94.6933 58.6745 51.3811 0.0000 0.0000 0.0000
# 2 58.6745 110.1900 49.6925 0.0000 0.0000 0.0000
# 3 51.3811 49.6925 88.8623 0.0000 0.0000 0.0000
# 4 0.0000 0.0000 0.0000 18.0761 0.0000 0.0000
# 5 0.0000 0.0000 0.0000 0.0000 27.1605 0.0000
# 6 0.0000 0.0000 0.0000 0.0000 0.0000 9.0467
#
#
#
# Elastic Compliance Matrix: (Units=1/GPa)
#
#
# Indices 1 2 3 4 5 6 
#
# 1 0.018483 -0.006716 -0.006931 0.000000 0.000000 0.000000
# 2 -0.006716 0.014576 -0.004268 0.000000 0.000000 0.000000
# 3 -0.006931 -0.004268 0.017648 0.000000 0.000000 0.000000
# 4 0.000000 0.000000 0.000000 0.055322 0.000000 0.000000
# 5 0.000000 0.000000 0.000000 0.000000 0.036818 0.000000
# 6 0.000000 0.000000 0.000000 0.000000 0.000000 0.110537
#
#
# Mechanical properties :
#
#
# Convention : Reuss Voigt Hill
#
# Bulk Modulus (GPa) = 67.22068 68.13797 67.67932
# Shear Modulus (GPa) = 16.99682 19.78983 18.39332
#
# Velocity S-wave (km/s) = 2.98792 3.22408 3.10825
# Velocity P-wave (km/s) = 6.87107 7.04624 6.95921
#
# Compressibility (1/GPa) = 0.01487637
#
# Stress axis : x y z
#
# Youngs Moduli (GPa) = 54.10441 68.60577 56.66470
#
# Poissons Ratio (x) = 0.46076 0.39276
# Poissons Ratio (y) = 0.36336 0.24183
# Poissons Ratio (z) = 0.37501 0.29279
#
# Static dielectric constant tensor:
#      x y z
#    x 4.266610 0.000000 0.000000 
#    y 0.000000 3.497840 0.000000 
#    z 0.000000 0.000000 3.328810 
# 
# 
# High freq. dielectric constant tensor:
#      x y z
#    x 1.735560 0.000000 0.000000 
#    y 0.000000 1.755200 0.000000 
#    z 0.000000 0.000000 1.723090 
# 
# From -- ./inp_files/62615.got.cif
#   From: 2010.03.12/outbox.cif.g09.slc.cpg/sg65_32_cif.got.tgz:62615.got - 2010.04.10 20:52:16.
