data_PCOD8274022
_publ_section_title
;
Structure prediction by ZEFSAII (Michael W. Deem and Ramdas Pophale) SiO2 
 PCOD8274022
Probable space group: C M M M
;
_chemical_formula_sum "Si O2"
_cell_formula_units_Z 112
_cell_length_a 15.208320
_cell_length_b 23.103246
_cell_length_c 15.479723
_cell_angle_alpha 90.000000
_cell_angle_beta 90.000000
_cell_angle_gamma 90.000000
_cell_volume 5438.979594
_symmetry_space_group_name_H-M "C M M M"
_symmetry_group_IT_number 65
_symmetry_cell_setting 'orthorhombic'
loop_
_space_group_symop_operation_xyz
x,y,z
-x,-y,z
x,-y,-z
-x,y,-z
-x,-y,-z
x,y,-z
-x,y,z
x,-y,z
1/2+x,1/2+y,z
1/2-x,1/2-y,z
1/2+x,1/2-y,-z
1/2-x,1/2+y,-z
1/2-x,1/2-y,-z
1/2+x,1/2+y,-z
1/2-x,1/2+y,z
1/2+x,1/2-y,z
loop_
_atom_site_type_symbol
_atom_site_label
_atom_site_fract_x
_atom_site_fract_y
_atom_site_fract_z
Si Si1 0.214233 0.937039 0.904842
Si Si2 0.741479 0.063527 0.400068
Si Si3 0.403994 0.863436 0.311200
Si Si4 0.148056 0.761524 0.262018
Si Si5 0.100763 0.857910 0.400773
Si Si6 0.404831 0.065392 0.858846
Si Si7 0.600580 0.332114 0.899974
O O1 0.318660 0.923939 0.916815
O O2 0.161607 0.884175 0.860702
O O3 0.199870 0.000000 0.858047
O O4 0.173660 0.941422 0.000000
O O5 0.726082 0.055314 0.500000
O O6 0.671548 0.111402 0.371234
O O7 0.839556 0.086172 0.380483
O O8 0.729620 0.000000 0.355269
O O9 0.500000 0.877687 0.351436
O O10 0.399309 0.795166 0.297138
O O11 0.393062 0.891754 0.219105
O O12 0.250000 0.750000 0.253025
O O13 0.127942 0.808742 0.334198
O O14 0.113152 0.778772 0.166156
O O15 0.115982 0.836571 0.500000
O O16 0.000000 0.876278 0.386156
O O17 0.500000 0.077076 0.906214
O O18 0.404805 0.000000 0.823608
O O19 0.500000 0.352887 0.897330
O O20 0.626204 0.315155 0.000000
#
# Coordination Sequence:
#
# PCOD8274022 Si02
#       7
#    16  16  16  16  16  16  16
#     4   9  18  33  55  83 113 150 198 250 309 371
#     4  10  22  40  62  90 122 158 202 251 308 370
#     4  11  22  37  57  84 118 158 202 249 303 363
#     4  12  23  40  65  89 122 165 208 260 312 366
#     4  10  22  41  64  92 127 164 203 250 304 366
#     4   9  18  33  53  78 111 150 192 244 304 361
#     4  10  22  40  60  86 124 164 205 257 312 368
#
# _framework density 20.592098
#
# number of rings (size 3 to 8) (size 9 to 14) (size 15 to 20)
#    0.000    1.857    1.429    2.571    0.000    3.143 
#    0.000    5.714    0.000    2.571    0.000    0.000 
#    0.000    0.000    0.000    0.000    0.000    0.000 
#
# Total GULP energy -693826.452213 kJ/mol
# GULP energy per Si atom -12389.758075 kJ/mol
# Density = 2.054523 g / cm^3
# Si number density = 20.592098 Si / 1000 Ang^3
#
#
#
# Elastic Constant Matrix: (Units=GPa)
#
#
# Indices 1 2 3 4 5 6 
#
# 1 143.9708 49.8244 35.1716 0.0000 0.0000 0.0000
# 2 49.8244 122.3888 46.9306 0.0000 0.0000 0.0000
# 3 35.1716 46.9306 71.1171 0.0000 0.0000 0.0000
# 4 0.0000 0.0000 0.0000 23.9050 0.0000 0.0000
# 5 0.0000 0.0000 0.0000 0.0000 28.9257 0.0000
# 6 0.0000 0.0000 0.0000 0.0000 0.0000 50.8795
#
#
#
# Elastic Compliance Matrix: (Units=1/GPa)
#
#
# Indices 1 2 3 4 5 6 
#
# 1 0.008416 -0.002450 -0.002545 0.000000 0.000000 0.000000
# 2 -0.002450 0.011652 -0.006477 0.000000 0.000000 0.000000
# 3 -0.002545 -0.006477 0.019595 0.000000 0.000000 0.000000
# 4 0.000000 0.000000 0.000000 0.041832 0.000000 0.000000
# 5 0.000000 0.000000 0.000000 0.000000 0.034571 0.000000
# 6 0.000000 0.000000 0.000000 0.000000 0.000000 0.019654
#
#
# Mechanical properties :
#
#
# Convention : Reuss Voigt Hill
#
# Bulk Modulus (GPa) = 59.82060 66.81443 63.31751
# Shear Modulus (GPa) = 30.44372 34.44538 32.44455
#
# Velocity S-wave (km/s) = 3.84919 4.09436 3.97367
# Velocity P-wave (km/s) = 6.99059 7.40735 7.20198
#
# Compressibility (1/GPa) = 0.01671665
#
# Stress axis : x y z
#
# Youngs Moduli (GPa) = 118.82819 85.82301 51.03450
#
# Poissons Ratio (x) = 0.21026 0.12989
# Poissons Ratio (y) = 0.29113 0.33058
# Poissons Ratio (z) = 0.30244 0.55592
#
# Static dielectric constant tensor:
#      x y z
#    x 4.076120 0.000000 0.000000 
#    y 0.000000 1.900660 0.000000 
#    z 0.000000 0.000000 3.680830 
# 
# 
# High freq. dielectric constant tensor:
#      x y z
#    x 1.823480 0.000000 0.000000 
#    y 0.000000 1.803000 0.000000 
#    z 0.000000 0.000000 1.789350 
# 
# From -- ./inp_files/40791.got.cif
#   From: 2010.03.12/outbox.cif.g09.slc.cpg/sg65_21_cif.got.tgz:40791.got - 2010.04.10 20:52:16.
