data_PCOD8274865
_publ_section_title
;
Structure prediction by ZEFSAII (Michael W. Deem and Ramdas Pophale) SiO2 
 PCOD8274865
Probable space group: C M M M
;
_chemical_formula_sum "Si O2"
_cell_formula_units_Z 64
_cell_length_a 22.739528
_cell_length_b 18.424390
_cell_length_c 7.686332
_cell_angle_alpha 90.000000
_cell_angle_beta 90.000000
_cell_angle_gamma 90.000000
_cell_volume 3220.280507
_symmetry_space_group_name_H-M "C M M M"
_symmetry_group_IT_number 65
_symmetry_cell_setting 'orthorhombic'
loop_
_space_group_symop_operation_xyz
x,y,z
-x,-y,z
x,-y,-z
-x,y,-z
-x,-y,-z
x,y,-z
-x,y,z
x,-y,z
1/2+x,1/2+y,z
1/2-x,1/2-y,z
1/2+x,1/2-y,-z
1/2-x,1/2+y,-z
1/2-x,1/2-y,-z
1/2+x,1/2+y,-z
1/2-x,1/2+y,z
1/2+x,1/2-y,z
loop_
_atom_site_type_symbol
_atom_site_label
_atom_site_fract_x
_atom_site_fract_y
_atom_site_fract_z
Si Si1 0.126632 0.917977 0.791368
Si Si2 0.565284 0.086358 0.500000
Si Si3 0.236854 0.829463 0.794318
Si Si4 0.648339 0.914388 0.803845
Si Si5 0.500000 0.586096 0.809578
O O1 0.176555 0.863586 0.717463
O O2 0.062112 0.892305 0.716743
O O3 0.141042 0.000000 0.728585
O O4 0.124807 0.916746 0.000000
O O5 0.500000 0.119784 0.500000
O O6 0.597830 0.113849 0.325811
O O7 0.562730 0.000000 0.500000
O O8 0.250000 0.750000 0.714506
O O9 0.290214 0.881389 0.741623
O O10 0.230289 0.824024 0.000000
O O11 0.655698 0.000000 0.793550
O O12 0.631806 0.889502 0.000000
O O13 0.500000 0.500000 0.829572
O O14 0.500000 0.622569 0.000000
#
# Coordination Sequence:
#
# PCOD8274865 Si02
#       5
#    16   8  16  16   8
#     4   8  12  19  33  53  78 111 150 190 233 277
#     4   9  18  32  51  74  96 121 159 206 248 288
#     4   9  16  25  39  60  92 127 158 194 234 279
#     4   9  17  30  49  72  98 127 160 200 245 290
#     4   7  10  16  28  48  72  99 136 182 226 268
#
# _framework density 19.874044999999999
#
# number of rings (size 3 to 8) (size 9 to 14) (size 15 to 20)
#    0.000    3.500    0.000    2.250    0.000    3.500 
#    0.000    3.125    2.750    0.000    0.000    0.000 
#    0.000    0.000    0.000    9.250    0.000   21.625 
#
# Total GULP energy -396424.067641 kJ/mol
# GULP energy per Si atom -12388.252114 kJ/mol
# Density = 1.982881 g / cm^3
# Si number density = 19.874045 Si / 1000 Ang^3
#
#
#
# Elastic Constant Matrix: (Units=GPa)
#
#
# Indices 1 2 3 4 5 6 
#
# 1 230.1787 69.4066 48.1737 0.0000 0.0000 0.0000
# 2 69.4066 66.1758 12.1354 0.0000 0.0000 0.0000
# 3 48.1737 12.1354 56.8989 0.0000 0.0000 0.0000
# 4 0.0000 0.0000 0.0000 1.1931 0.0000 0.0000
# 5 0.0000 0.0000 0.0000 0.0000 9.3189 0.0000
# 6 0.0000 0.0000 0.0000 0.0000 0.0000 10.6206
#
#
#
# Elastic Compliance Matrix: (Units=1/GPa)
#
#
# Indices 1 2 3 4 5 6 
#
# 1 0.007440 -0.006919 -0.004824 0.000000 0.000000 0.000000
# 2 -0.006919 0.022161 0.001132 0.000000 0.000000 0.000000
# 3 -0.004824 0.001132 0.021418 0.000000 0.000000 0.000000
# 4 0.000000 0.000000 0.000000 0.838149 0.000000 0.000000
# 5 0.000000 0.000000 0.000000 0.000000 0.107309 0.000000
# 6 0.000000 0.000000 0.000000 0.000000 0.000000 0.094157
#
#
# Mechanical properties :
#
#
# Convention : Reuss Voigt Hill
#
# Bulk Modulus (GPa) = 33.56115 68.07607 50.81861
# Shear Modulus (GPa) = 4.45717 19.12902 11.79310
#
# Velocity S-wave (km/s) = 1.49919 3.10580 2.43861
# Velocity P-wave (km/s) = 4.46322 6.86946 5.79266
#
# Compressibility (1/GPa) = 0.02979636
#
# Stress axis : x y z
#
# Youngs Moduli (GPa) = 134.40337 45.12528 46.69037
#
# Poissons Ratio (x) = 0.31222 0.22522
# Poissons Ratio (y) = 0.92993 -0.05283
# Poissons Ratio (z) = 0.64832 -0.05106
#
# Static dielectric constant tensor:
#      x y z
#    x 4.164330 0.000000 0.000000 
#    y 0.000000 3.380680 0.000000 
#    z 0.000000 0.000000 3.214320 
# 
# 
# High freq. dielectric constant tensor:
#      x y z
#    x 1.789700 0.000000 0.000000 
#    y 0.000000 1.731180 0.000000 
#    z 0.000000 0.000000 1.735710 
# 
# From -- ./inp_files/13538.got.cif
#   From: 2010.03.12/outbox.cif.g09.slc.cpg/sg65_7_cif.got.tgz:13538.got - 2010.04.10 20:52:16.
