data_PCOD8274218
_publ_section_title
;
Structure prediction by ZEFSAII (Michael W. Deem and Ramdas Pophale) SiO2 
 PCOD8274218
Probable space group: C M M M
;
_chemical_formula_sum "Si O2"
_cell_formula_units_Z 104
_cell_length_a 30.015379
_cell_length_b 22.616307
_cell_length_c 9.103899
_cell_angle_alpha 90.000000
_cell_angle_beta 90.000000
_cell_angle_gamma 90.000000
_cell_volume 6180.063724
_symmetry_space_group_name_H-M "C M M M"
_symmetry_group_IT_number 65
_symmetry_cell_setting 'orthorhombic'
loop_
_space_group_symop_operation_xyz
x,y,z
-x,-y,z
x,-y,-z
-x,y,-z
-x,-y,-z
x,y,-z
-x,y,z
x,-y,z
1/2+x,1/2+y,z
1/2-x,1/2-y,z
1/2+x,1/2-y,-z
1/2-x,1/2+y,-z
1/2-x,1/2-y,-z
1/2+x,1/2+y,-z
1/2-x,1/2+y,z
1/2+x,1/2-y,z
loop_
_atom_site_type_symbol
_atom_site_label
_atom_site_fract_x
_atom_site_fract_y
_atom_site_fract_z
Si Si1 0.549144 0.152096 0.174326
Si Si2 0.597710 0.390199 0.673693
Si Si3 0.447305 0.500000 0.830446
Si Si4 0.448090 0.285845 0.168575
Si Si5 0.308732 0.434458 0.326117
Si Si6 0.125861 0.567496 0.173575
Si Si7 0.712639 0.929538 0.336183
O O1 0.500000 0.135867 0.236921
O O2 0.561931 0.218830 0.218772
O O3 0.585430 0.106569 0.238814
O O4 0.547517 0.147547 0.000000
O O5 0.591239 0.397609 0.500000
O O6 0.570770 0.441703 0.752741
O O7 0.580321 0.326942 0.724880
O O8 0.649931 0.393134 0.718999
O O9 0.500000 0.500000 0.815467
O O10 0.432400 0.500000 0.000000
O O11 0.500000 0.300681 0.187118
O O12 0.433653 0.296304 0.000000
O O13 0.304987 0.440053 0.500000
O O14 0.317492 0.500000 0.259888
O O15 0.260872 0.408170 0.271627
O O16 0.117930 0.500000 0.224475
O O17 0.172375 0.593162 0.234812
O O18 0.128072 0.572485 0.000000
O O19 0.704534 0.904606 0.500000
O O20 0.714008 0.000000 0.338572
#
# Coordination Sequence:
#
# PCOD8274218 Si02
#       7
#    16  16   8  16  16  16  16
#     4   8  15  29  48  67  90 125 159 183 219 275
#     4  11  20  31  49  70  91 115 152 201 242 270
#     4  11  23  35  45  63  95 129 155 183 230 289
#     4   9  18  33  49  63  85 121 161 191 221 275
#     4   8  14  27  45  64  87 116 149 184 226 274
#     4   9  16  26  44  73 101 117 142 190 234 264
#     4   8  14  26  45  64  87 122 153 174 213 278
#
# _framework density 16.828305
#
# number of rings (size 3 to 8) (size 9 to 14) (size 15 to 20)
#    0.000    3.000    0.769    3.000    0.000    3.077 
#    0.000    3.846    0.000    2.308    0.000    8.615 
#    0.000    0.000    0.000    0.000    0.000    0.000 
#
# Total GULP energy -644461.048627 kJ/mol
# GULP energy per Si atom -12393.481704 kJ/mol
# Density = 1.679000 g / cm^3
# Si number density = 16.828305 Si / 1000 Ang^3
#
#
#
# Elastic Constant Matrix: (Units=GPa)
#
#
# Indices 1 2 3 4 5 6 
#
# 1 151.7497 72.5511 44.4491 0.0000 0.0000 0.0000
# 2 72.5511 79.5708 30.0846 0.0000 0.0000 0.0000
# 3 44.4491 30.0846 46.2427 0.0000 0.0000 0.0000
# 4 0.0000 0.0000 0.0000 13.4456 0.0000 0.0000
# 5 0.0000 0.0000 0.0000 0.0000 25.2130 0.0000
# 6 0.0000 0.0000 0.0000 0.0000 0.0000 15.1263
#
#
#
# Elastic Compliance Matrix: (Units=1/GPa)
#
#
# Indices 1 2 3 4 5 6 
#
# 1 0.012938 -0.009409 -0.006315 0.000000 0.000000 0.000000
# 2 -0.009409 0.023510 -0.006251 0.000000 0.000000 0.000000
# 3 -0.006315 -0.006251 0.031762 0.000000 0.000000 0.000000
# 4 0.000000 0.000000 0.000000 0.074374 0.000000 0.000000
# 5 0.000000 0.000000 0.000000 0.000000 0.039662 0.000000
# 6 0.000000 0.000000 0.000000 0.000000 0.000000 0.066110
#
#
# Mechanical properties :
#
#
# Convention : Reuss Voigt Hill
#
# Bulk Modulus (GPa) = 41.22037 63.52587 52.37312
# Shear Modulus (GPa) = 16.64495 19.45552 18.05024
#
# Velocity S-wave (km/s) = 3.14842 3.40386 3.27863
# Velocity P-wave (km/s) = 6.14529 7.29930 6.74701
#
# Compressibility (1/GPa) = 0.02425985
#
# Stress axis : x y z
#
# Youngs Moduli (GPa) = 77.29252 42.53552 31.48455
#
# Poissons Ratio (x) = 0.40022 0.19882
# Poissons Ratio (y) = 0.72724 0.19681
# Poissons Ratio (z) = 0.48808 0.26589
#
# Static dielectric constant tensor:
#      x y z
#    x 3.643230 0.000000 0.000000 
#    y 0.000000 3.025800 0.000000 
#    z 0.000000 0.000000 2.923660 
# 
# 
# High freq. dielectric constant tensor:
#      x y z
#    x 1.662500 0.000000 0.000000 
#    y 0.000000 1.618890 0.000000 
#    z 0.000000 0.000000 1.620710 
# 
# From -- ./inp_files/18889.got.cif
#   From: 2010.03.12/outbox.cif.g09.slc.cpg/sg65_10_cif.got.tgz:18889.got - 2010.04.10 20:52:16.
