data_PCOD8274212
_publ_section_title
;
Structure prediction by ZEFSAII (Michael W. Deem and Ramdas Pophale) SiO2 
 PCOD8274212
Probable space group: C M M M
;
_chemical_formula_sum "Si O2"
_cell_formula_units_Z 64
_cell_length_a 9.148547
_cell_length_b 25.802258
_cell_length_c 18.550451
_cell_angle_alpha 90.000000
_cell_angle_beta 90.000000
_cell_angle_gamma 90.000000
_cell_volume 4378.892764
_symmetry_space_group_name_H-M "C M M M"
_symmetry_group_IT_number 65
_symmetry_cell_setting 'orthorhombic'
loop_
_space_group_symop_operation_xyz
x,y,z
-x,-y,z
x,-y,-z
-x,y,-z
-x,-y,-z
x,y,-z
-x,y,z
x,-y,z
1/2+x,1/2+y,z
1/2-x,1/2-y,z
1/2+x,1/2-y,-z
1/2-x,1/2+y,-z
1/2-x,1/2-y,-z
1/2+x,1/2+y,-z
1/2-x,1/2+y,z
1/2+x,1/2-y,z
loop_
_atom_site_type_symbol
_atom_site_label
_atom_site_fract_x
_atom_site_fract_y
_atom_site_fract_z
Si Si1 0.172160 0.905536 0.839704
Si Si2 0.826767 0.500000 0.420841
Si Si3 0.330583 0.000000 0.914906
Si Si4 0.336732 0.058096 0.288656
Si Si5 0.670630 0.300934 0.082206
O O1 0.223677 0.906940 0.756087
O O2 0.217696 0.849808 0.870195
O O3 0.000000 0.915475 0.844631
O O4 0.254535 0.948568 0.885444
O O5 0.750728 0.500000 0.500000
O O6 0.785244 0.551279 0.373010
O O7 0.000000 0.500000 0.429730
O O8 0.500000 0.000000 0.892445
O O9 0.310179 0.000000 0.000000
O O10 0.500000 0.082237 0.284591
O O11 0.339357 0.000000 0.253878
O O12 0.500000 0.290544 0.087656
O O13 0.750000 0.250000 0.112898
O O14 0.718937 0.311894 0.000000
#
# Coordination Sequence:
#
# PCOD8274212 Si02
#       5
#    16   8   8  16  16
#     4  11  20  30  45  62  85 113 140 173 214 258
#     4   7  11  22  40  60  84 115 146 173 198 232
#     4  11  22  31  40  58  82 109 142 175 210 252
#     4   8  15  26  41  61  86 113 141 170 200 241
#     4   9  19  34  48  62  79 104 142 184 223 259
#
# _framework density 14.615568
#
# number of rings (size 3 to 8) (size 9 to 14) (size 15 to 20)
#    0.750    2.000    1.250    1.875    0.000    4.000 
#    0.000    2.500    0.000    1.500    0.000    0.000 
#    0.000    1.000    0.000    2.250    0.000    3.500 
#
# Total GULP energy -396452.425223 kJ/mol
# GULP energy per Si atom -12389.138288 kJ/mol
# Density = 1.458230 g / cm^3
# Si number density = 14.615568 Si / 1000 Ang^3
#
#
#
# Elastic Constant Matrix: (Units=GPa)
#
#
# Indices 1 2 3 4 5 6 
#
# 1 62.2494 44.3838 41.8089 0.0000 0.0000 0.0000
# 2 44.3838 95.1470 56.6112 0.0000 0.0000 0.0000
# 3 41.8089 56.6112 111.2837 0.0000 0.0000 0.0000
# 4 0.0000 0.0000 0.0000 13.0123 0.0000 0.0000
# 5 0.0000 0.0000 0.0000 0.0000 14.5822 0.0000
# 6 0.0000 0.0000 0.0000 0.0000 0.0000 23.2941
#
#
#
# Elastic Compliance Matrix: (Units=1/GPa)
#
#
# Indices 1 2 3 4 5 6 
#
# 1 0.025982 -0.009052 -0.005156 0.000000 0.000000 0.000000
# 2 -0.009052 0.018226 -0.005871 0.000000 0.000000 0.000000
# 3 -0.005156 -0.005871 0.013910 0.000000 0.000000 0.000000
# 4 0.000000 0.000000 0.000000 0.076851 0.000000 0.000000
# 5 0.000000 0.000000 0.000000 0.000000 0.068577 0.000000
# 6 0.000000 0.000000 0.000000 0.000000 0.000000 0.042929
#
#
# Mechanical properties :
#
#
# Convention : Reuss Voigt Hill
#
# Bulk Modulus (GPa) = 55.68271 61.58756 58.63513
# Shear Modulus (GPa) = 17.08713 18.56947 17.82830
#
# Velocity S-wave (km/s) = 3.42293 3.56831 3.49638
# Velocity P-wave (km/s) = 7.33504 7.69460 7.51697
#
# Compressibility (1/GPa) = 0.01795890
#
# Stress axis : x y z
#
# Youngs Moduli (GPa) = 38.48876 54.86799 71.89143
#
# Poissons Ratio (x) = 0.49665 0.37071
# Poissons Ratio (y) = 0.34839 0.42206
# Poissons Ratio (z) = 0.19847 0.32212
#
# Static dielectric constant tensor:
#      x y z
#    x 2.762410 0.000000 0.000000 
#    y 0.000000 2.659120 0.000000 
#    z 0.000000 0.000000 3.072520 
# 
# 
# High freq. dielectric constant tensor:
#      x y z
#    x 1.555910 0.000000 0.000000 
#    y 0.000000 1.527220 0.000000 
#    z 0.000000 0.000000 1.549460 
# 
# From -- ./inp_files/59976.got.cif
#   From: 2010.03.12/outbox.cif.g09.slc.cpg/sg65_30_cif.got.tgz:59976.got - 2010.04.10 20:52:16.
