data_PCOD8274473
_publ_section_title
;
Structure prediction by ZEFSAII (Michael W. Deem and Ramdas Pophale) SiO2 
 PCOD8274473
Probable space group: C M M M
;
_chemical_formula_sum "Si O2"
_cell_formula_units_Z 104
_cell_length_a 24.774427
_cell_length_b 18.872676
_cell_length_c 11.826926
_cell_angle_alpha 90.000000
_cell_angle_beta 90.000000
_cell_angle_gamma 90.000000
_cell_volume 5529.794373
_symmetry_space_group_name_H-M "C M M M"
_symmetry_group_IT_number 65
_symmetry_cell_setting 'orthorhombic'
loop_
_space_group_symop_operation_xyz
x,y,z
-x,-y,z
x,-y,-z
-x,y,-z
-x,-y,-z
x,y,-z
-x,y,z
x,-y,z
1/2+x,1/2+y,z
1/2-x,1/2-y,z
1/2+x,1/2-y,-z
1/2-x,1/2+y,-z
1/2-x,1/2-y,-z
1/2+x,1/2+y,-z
1/2-x,1/2+y,z
1/2+x,1/2-y,z
loop_
_atom_site_type_symbol
_atom_site_label
_atom_site_fract_x
_atom_site_fract_y
_atom_site_fract_z
Si Si1 0.559127 0.500000 0.133348
Si Si2 0.169364 0.346925 0.865312
Si Si3 0.330630 0.259191 0.500000
Si Si4 0.735133 0.868814 0.500000
Si Si5 0.344351 0.291995 0.743975
Si Si6 0.440184 0.920378 0.133944
Si Si7 0.938491 0.848551 0.867714
Si Si8 0.238086 0.919626 0.259305
O O1 0.500000 0.500000 0.189271
O O2 0.586857 0.425932 0.167705
O O3 0.551266 0.500000 0.000000
O O4 0.186534 0.275480 0.797583
O O5 0.109288 0.371007 0.825096
O O6 0.212991 0.405497 0.827679
O O7 0.172796 0.335048 0.000000
O O8 0.321491 0.174021 0.500000
O O9 0.276484 0.304478 0.500000
O O10 0.361600 0.280585 0.613953
O O11 0.740852 0.916287 0.611591
O O12 0.401318 0.291896 0.807944
O O13 0.309470 0.362959 0.762708
O O14 0.500000 0.891739 0.172251
O O15 0.431953 0.000000 0.181922
O O16 0.438287 0.923432 0.000000
O O17 0.000000 0.840989 0.826440
O O18 0.934948 0.834965 0.000000
O O19 0.216978 0.000000 0.237514
#
# Coordination Sequence:
#
# PCOD8274473 Si02
#       8
#     8  16   8   8  16  16  16  16
#     4   7  12  26  48  71  99 139 183 224 262 306
#     4  11  22  35  52  79 116 150 180 219 277 345
#     4   9  18  36  59  80 102 139 181 231 284 330
#     4   9  17  38  62  78  99 134 187 232 269 332
#     4  11  22  36  57  80 110 146 187 236 284 336
#     4   8  15  30  52  76 104 140 179 219 264 316
#     4   9  18  33  54  80 110 148 192 231 270 327
#     4  11  23  37  57  83 108 141 184 234 288 337
#
# _framework density 18.807210000000001
#
# number of rings (size 3 to 8) (size 9 to 14) (size 15 to 20)
#    0.000    2.385    1.538    3.000    1.077    3.385 
#    0.000    1.923    0.000    0.000    0.000    2.154 
#    0.000    3.692    0.000    0.000    0.000    0.000 
#
# Total GULP energy -644195.696900 kJ/mol
# GULP energy per Si atom -12388.378787 kJ/mol
# Density = 1.876440 g / cm^3
# Si number density = 18.807210 Si / 1000 Ang^3
#
#
#
# Elastic Constant Matrix: (Units=GPa)
#
#
# Indices 1 2 3 4 5 6 
#
# 1 82.0577 32.9296 33.3014 0.0000 0.0000 0.0000
# 2 32.9296 103.3111 24.6899 0.0000 0.0000 0.0000
# 3 33.3014 24.6899 65.5721 0.0000 0.0000 0.0000
# 4 0.0000 0.0000 0.0000 -94.9182 0.0000 0.0000
# 5 0.0000 0.0000 0.0000 0.0000 3.2854 0.0000
# 6 0.0000 0.0000 0.0000 0.0000 0.0000 25.7663
#
#
#
# Elastic Compliance Matrix: (Units=1/GPa)
#
#
# Indices 1 2 3 4 5 6 
#
# 1 0.016468 -0.003572 -0.007019 0.000000 0.000000 0.000000
# 2 -0.003572 0.011411 -0.002483 0.000000 0.000000 0.000000
# 3 -0.007019 -0.002483 0.019750 0.000000 0.000000 0.000000
# 4 0.000000 0.000000 0.000000 -0.010535 0.000000 0.000000
# 5 0.000000 0.000000 0.000000 0.000000 0.304380 0.000000
# 6 0.000000 0.000000 0.000000 0.000000 0.000000 0.038810
#
#
# Mechanical properties :
#
#
# Convention : Reuss Voigt Hill
#
# Bulk Modulus (GPa) = 46.54864 48.08697 47.31780
# Shear Modulus (GPa) = 12.08922 -2.50530 4.79196
#
# Velocity S-wave (km/s) = 2.53809 -1.15542 1.59796
# Velocity P-wave (km/s) = 5.77870 4.88302 5.34964
#
# Compressibility (1/GPa) = 0.02148290
#
# Stress axis : x y z
#
# Youngs Moduli (GPa) = 60.72279 87.63234 50.63355
#
# Poissons Ratio (x) = 0.31300 0.35538
# Poissons Ratio (y) = 0.21689 0.12571
# Poissons Ratio (z) = 0.42620 0.21757
#
# Static dielectric constant tensor:
#      x y z
#    x 3.361020 0.000000 0.000000 
#    y 0.000000 3.652060 0.000000 
#    z 0.000000 0.000000 3.285860 
# 
# 
# High freq. dielectric constant tensor:
#      x y z
#    x 1.713410 0.000000 0.000000 
#    y 0.000000 1.740070 0.000000 
#    z 0.000000 0.000000 1.699570 
# 
# From -- ./inp_files/32593.got.cif
#   From: 2010.03.12/outbox.cif.g09.slc.cpg/sg65_17_cif.got.tgz:32593.got - 2010.04.10 20:52:16.
