data_PCOD8274095
_publ_section_title
;
Structure prediction by ZEFSAII (Michael W. Deem and Ramdas Pophale) SiO2 
 PCOD8274095
Probable space group: C M M M
;
_chemical_formula_sum "Si O2"
_cell_formula_units_Z 88
_cell_length_a 17.166819
_cell_length_b 17.501912
_cell_length_c 16.664606
_cell_angle_alpha 90.000000
_cell_angle_beta 90.000000
_cell_angle_gamma 90.000000
_cell_volume 5006.916793
_symmetry_space_group_name_H-M "C M M M"
_symmetry_group_IT_number 65
_symmetry_cell_setting 'orthorhombic'
loop_
_space_group_symop_operation_xyz
x,y,z
-x,-y,z
x,-y,-z
-x,y,-z
-x,-y,-z
x,y,-z
-x,y,z
x,-y,z
1/2+x,1/2+y,z
1/2-x,1/2-y,z
1/2+x,1/2-y,-z
1/2-x,1/2+y,-z
1/2-x,1/2-y,-z
1/2+x,1/2+y,-z
1/2-x,1/2+y,z
1/2+x,1/2-y,z
loop_
_atom_site_type_symbol
_atom_site_label
_atom_site_fract_x
_atom_site_fract_y
_atom_site_fract_z
Si Si1 0.409544 0.667387 0.745307
Si Si2 0.092065 0.085427 0.588205
Si Si3 0.908478 0.763999 0.000000
Si Si4 0.867805 0.312449 0.161311
Si Si5 0.224745 0.085890 0.831393
Si Si6 0.000000 0.410611 0.906351
Si Si7 0.337229 0.581826 0.000000
O O1 0.500000 0.647088 0.759282
O O2 0.382815 0.649026 0.653727
O O3 0.395576 0.756201 0.767347
O O4 0.359934 0.611117 0.800842
O O5 0.125132 0.108664 0.500000
O O6 0.000000 0.082439 0.583750
O O7 0.122699 0.000000 0.611432
O O8 0.862173 0.735268 0.921496
O O9 0.904555 0.855219 0.000000
O O10 0.000000 0.740559 0.000000
O O11 0.788386 0.350568 0.193387
O O12 0.926241 0.381096 0.142839
O O13 0.222686 0.087281 0.926874
O O14 0.244712 0.000000 0.800025
O O15 0.000000 0.500000 0.901730
O O16 0.000000 0.383685 0.000000
O O17 0.381061 0.500000 0.000000
#
# Coordination Sequence:
#
# PCOD8274095 Si02
#       7
#    16  16   8  16  16   8   8
#     4  11  21  34  56  83 111 139 175 216 266 328
#     4   8  15  30  53  81 112 143 173 210 261 321
#     4  12  21  36  55  75 101 141 184 233 284 315
#     4  12  21  37  53  77 107 142 186 228 277 321
#     4  11  24  37  52  75 106 146 187 225 269 317
#     4  11  22  36  56  78 103 140 191 245 278 309
#     4  10  23  36  49  72 103 144 188 224 263 323
#
# _framework density 17.575686999999999
#
# number of rings (size 3 to 8) (size 9 to 14) (size 15 to 20)
#    0.000    1.364    4.545    2.727    0.000    2.000 
#    0.000    1.818    0.000    2.182    0.000    0.000 
#    0.000    2.909    0.000    0.000    0.000    0.182 
#
# Total GULP energy -545283.794591 kJ/mol
# GULP energy per Si atom -12392.813513 kJ/mol
# Density = 1.753568 g / cm^3
# Si number density = 17.575687 Si / 1000 Ang^3
#
#
#
# Elastic Constant Matrix: (Units=GPa)
#
#
# Indices 1 2 3 4 5 6 
#
# 1 76.6643 42.9927 28.4516 0.0000 0.0000 0.0000
# 2 42.9927 133.3944 49.3062 0.0000 0.0000 0.0000
# 3 28.4516 49.3062 100.2815 0.0000 0.0000 0.0000
# 4 0.0000 0.0000 0.0000 24.4616 0.0000 0.0000
# 5 0.0000 0.0000 0.0000 0.0000 7.2557 0.0000
# 6 0.0000 0.0000 0.0000 0.0000 0.0000 27.4606
#
#
#
# Elastic Compliance Matrix: (Units=1/GPa)
#
#
# Indices 1 2 3 4 5 6 
#
# 1 0.016424 -0.004364 -0.002514 0.000000 0.000000 0.000000
# 2 -0.004364 0.010321 -0.003837 0.000000 0.000000 0.000000
# 3 -0.002514 -0.003837 0.012572 0.000000 0.000000 0.000000
# 4 0.000000 0.000000 0.000000 0.040880 0.000000 0.000000
# 5 0.000000 0.000000 0.000000 0.000000 0.137824 0.000000
# 6 0.000000 0.000000 0.000000 0.000000 0.000000 0.036416
#
#
# Mechanical properties :
#
#
# Convention : Reuss Voigt Hill
#
# Bulk Modulus (GPa) = 55.90510 61.31568 58.61039
# Shear Modulus (GPa) = 17.74124 24.47486 21.10805
#
# Velocity S-wave (km/s) = 3.18058 3.73572 3.46928
# Velocity P-wave (km/s) = 6.73538 7.31915 7.03332
#
# Compressibility (1/GPa) = 0.01788745
#
# Stress axis : x y z
#
# Youngs Moduli (GPa) = 60.88526 96.88759 79.54474
#
# Poissons Ratio (x) = 0.42284 0.19998
# Poissons Ratio (y) = 0.26572 0.30517
# Poissons Ratio (z) = 0.15307 0.37171
#
# Static dielectric constant tensor:
#      x y z
#    x 3.026900 0.000000 0.000000 
#    y 0.000000 3.455980 0.000000 
#    z 0.000000 0.000000 3.419380 
# 
# 
# High freq. dielectric constant tensor:
#      x y z
#    x 1.655640 0.000000 0.000000 
#    y 0.000000 1.692920 0.000000 
#    z 0.000000 0.000000 1.651740 
# 
# From -- ./inp_files/53063.got.cif
#   From: 2010.03.12/outbox.cif.g09.slc.cpg/sg65_27_cif.got.tgz:53063.got - 2010.04.10 20:52:16.
