data_PCOD8274161
_publ_section_title
;
Structure prediction by ZEFSAII (Michael W. Deem and Ramdas Pophale) SiO2 
 PCOD8274161
Probable space group: C M M M
;
_chemical_formula_sum "Si O2"
_cell_formula_units_Z 96
_cell_length_a 23.313146
_cell_length_b 21.542248
_cell_length_c 12.528216
_cell_angle_alpha 90.000000
_cell_angle_beta 90.000000
_cell_angle_gamma 90.000000
_cell_volume 6291.890231
_symmetry_space_group_name_H-M "C M M M"
_symmetry_group_IT_number 65
_symmetry_cell_setting 'orthorhombic'
loop_
_space_group_symop_operation_xyz
x,y,z
-x,-y,z
x,-y,-z
-x,y,-z
-x,-y,-z
x,y,-z
-x,y,z
x,-y,z
1/2+x,1/2+y,z
1/2-x,1/2-y,z
1/2+x,1/2-y,-z
1/2-x,1/2+y,-z
1/2-x,1/2-y,-z
1/2+x,1/2+y,-z
1/2-x,1/2+y,z
1/2+x,1/2-y,z
loop_
_atom_site_type_symbol
_atom_site_label
_atom_site_fract_x
_atom_site_fract_y
_atom_site_fract_z
Si Si1 0.753072 0.429597 0.622059
Si Si2 0.227763 0.848239 0.810606
Si Si3 0.065269 0.649492 0.193025
Si Si4 0.886771 0.429833 0.377075
Si Si5 0.762085 0.426931 0.000000
Si Si6 0.106820 0.573071 0.000000
Si Si7 0.834467 0.267919 0.127352
O O1 0.742094 0.410350 0.500000
O O2 0.731488 0.500000 0.642126
O O3 0.719418 0.380407 0.695460
O O4 0.819917 0.425677 0.651456
O O5 0.174177 0.802896 0.833574
O O6 0.286782 0.810207 0.816576
O O7 0.228862 0.903194 0.896506
O O8 0.078750 0.619732 0.307575
O O9 0.075097 0.596906 0.104741
O O10 0.103421 0.709851 0.166799
O O11 0.000000 0.672448 0.191447
O O12 0.897590 0.412693 0.500000
O O13 0.908327 0.500000 0.353766
O O14 0.827759 0.402151 0.000000
O O15 0.761109 0.500000 0.000000
O O16 0.104130 0.500000 0.000000
O O17 0.827671 0.271544 0.000000
#
# Coordination Sequence:
#
# PCOD8274161 Si02
#       7
#    16  16  16  16   8   8  16
#     4   9  17  30  49  72  99 126 151 187 236 285
#     4  11  17  31  49  68  92 120 157 190 229 288
#     4  12  22  33  47  64  89 123 167 204 234 270
#     4   9  18  33  49  65  91 127 164 200 235 269
#     4  11  18  27  49  73  93 116 147 194 242 278
#     4  11  21  31  43  65  95 120 154 197 237 277
#     4  11  20  33  47  65  92 127 159 195 238 278
#
# _framework density 15.257736
#
# number of rings (size 3 to 8) (size 9 to 14) (size 15 to 20)
#    0.000    1.500    5.833    2.750    0.000    4.667 
#    0.000    3.333    0.000    0.000    0.000    0.000 
#    0.000    3.333    0.000    1.833    0.000    0.000 
#
# Total GULP energy -595245.733230 kJ/mol
# GULP energy per Si atom -12400.952776 kJ/mol
# Density = 1.522301 g / cm^3
# Si number density = 15.257736 Si / 1000 Ang^3
#
#
#
# Elastic Constant Matrix: (Units=GPa)
#
#
# Indices 1 2 3 4 5 6 
#
# 1 60.8719 40.2712 27.4546 0.0000 0.0000 0.0000
# 2 40.2712 78.4631 46.8989 0.0000 0.0000 0.0000
# 3 27.4546 46.8989 95.3714 0.0000 0.0000 0.0000
# 4 0.0000 0.0000 0.0000 30.6410 0.0000 0.0000
# 5 0.0000 0.0000 0.0000 0.0000 10.3758 0.0000
# 6 0.0000 0.0000 0.0000 0.0000 0.0000 19.6128
#
#
#
# Elastic Compliance Matrix: (Units=1/GPa)
#
#
# Indices 1 2 3 4 5 6 
#
# 1 0.024980 -0.012071 -0.001255 0.000000 0.000000 0.000000
# 2 -0.012071 0.023883 -0.008270 0.000000 0.000000 0.000000
# 3 -0.001255 -0.008270 0.014913 0.000000 0.000000 0.000000
# 4 0.000000 0.000000 0.000000 0.032636 0.000000 0.000000
# 5 0.000000 0.000000 0.000000 0.000000 0.096378 0.000000
# 6 0.000000 0.000000 0.000000 0.000000 0.000000 0.050987
#
#
# Mechanical properties :
#
#
# Convention : Reuss Voigt Hill
#
# Bulk Modulus (GPa) = 48.57905 51.55064 50.06484
# Shear Modulus (GPa) = 17.01668 20.13138 18.57403
#
# Velocity S-wave (km/s) = 3.34321 3.63632 3.49284
# Velocity P-wave (km/s) = 6.84184 7.17568 7.01075
#
# Compressibility (1/GPa) = 0.02058501
#
# Stress axis : x y z
#
# Youngs Moduli (GPa) = 40.03268 41.87076 67.05415
#
# Poissons Ratio (x) = 0.50540 0.08417
# Poissons Ratio (y) = 0.48321 0.55452
# Poissons Ratio (z) = 0.05025 0.34626
#
# Static dielectric constant tensor:
#      x y z
#    x 2.676880 0.000000 0.000000 
#    y 0.000000 2.938330 0.000000 
#    z 0.000000 0.000000 3.002210 
# 
# 
# High freq. dielectric constant tensor:
#      x y z
#    x 1.536580 0.000000 0.000000 
#    y 0.000000 1.577280 0.000000 
#    z 0.000000 0.000000 1.596580 
# 
# From -- ./inp_files/29281.got.cif
#   From: 2010.03.12/outbox.cif.g09.slc.cpg/sg65_15_cif.got.tgz:29281.got - 2010.04.10 20:52:16.
