data_PCOD8274148
_publ_section_title
;
Structure prediction by ZEFSAII (Michael W. Deem and Ramdas Pophale) SiO2 
 PCOD8274148
Probable space group: C M M M
;
_chemical_formula_sum "Si O2"
_cell_formula_units_Z 56
_cell_length_a 13.640722
_cell_length_b 13.237944
_cell_length_c 13.469055
_cell_angle_alpha 90.000000
_cell_angle_beta 90.000000
_cell_angle_gamma 90.000000
_cell_volume 2432.176141
_symmetry_space_group_name_H-M "C M M M"
_symmetry_group_IT_number 65
_symmetry_cell_setting 'orthorhombic'
loop_
_space_group_symop_operation_xyz
x,y,z
-x,-y,z
x,-y,-z
-x,y,-z
-x,-y,-z
x,y,-z
-x,y,z
x,-y,z
1/2+x,1/2+y,z
1/2-x,1/2-y,z
1/2+x,1/2-y,-z
1/2-x,1/2+y,-z
1/2-x,1/2-y,-z
1/2+x,1/2+y,-z
1/2-x,1/2+y,z
1/2+x,1/2-y,z
loop_
_atom_site_type_symbol
_atom_site_label
_atom_site_fract_x
_atom_site_fract_y
_atom_site_fract_z
Si Si1 0.700804 0.114192 0.298208
Si Si2 0.609927 0.304045 0.615654
Si Si3 0.390774 0.201149 0.888467
Si Si4 0.500000 0.611544 0.882413
O O1 0.635695 0.186080 0.368483
O O2 0.815265 0.124977 0.324947
O O3 0.685278 0.146081 0.183695
O O4 0.666459 0.000000 0.315513
O O5 0.616746 0.329511 0.500000
O O6 0.500000 0.325612 0.656070
O O7 0.500000 0.151041 0.883087
O O8 0.403459 0.320095 0.855642
O O9 0.348537 0.191303 0.000000
O O10 0.500000 0.500000 0.831405
O O11 0.500000 0.598726 0.000000
#
# Coordination Sequence:
#
# PCOD8274148 Si02
#       4
#    16  16  16   8
#     4  11  22  39  68  99 130 172 223 274 331 398
#     4  10  24  46  68  93 131 169 215 284 348 407
#     4   8  17  33  57  96 141 181 224 273 318 382
#     4   7  12  28  55  87 130 183 227 265 315 373
#
# _framework density 23.024647999999999
#
# number of rings (size 3 to 8) (size 9 to 14) (size 15 to 20)
#    0.857    1.857    0.000    2.571    0.000    5.714 
#    0.000   12.857    0.000    2.571    0.000    2.000 
#    0.000    0.000    0.000    0.000    0.000    0.000 
#
# Total GULP energy -346918.700219 kJ/mol
# GULP energy per Si atom -12389.953579 kJ/mol
# Density = 2.297224 g / cm^3
# Si number density = 23.024648 Si / 1000 Ang^3
#
#
#
# Elastic Constant Matrix: (Units=GPa)
#
#
# Indices 1 2 3 4 5 6 
#
# 1 134.7252 16.0211 51.3820 0.0000 0.0000 0.0000
# 2 16.0211 114.8742 8.2477 0.0000 0.0000 0.0000
# 3 51.3820 8.2477 91.7979 0.0000 0.0000 0.0000
# 4 0.0000 0.0000 0.0000 18.3486 0.0000 0.0000
# 5 0.0000 0.0000 0.0000 0.0000 40.6051 0.0000
# 6 0.0000 0.0000 0.0000 0.0000 0.0000 12.5112
#
#
#
# Elastic Compliance Matrix: (Units=1/GPa)
#
#
# Indices 1 2 3 4 5 6 
#
# 1 0.009540 -0.000953 -0.005254 0.000000 0.000000 0.000000
# 2 -0.000953 0.008857 -0.000262 0.000000 0.000000 0.000000
# 3 -0.005254 -0.000262 0.013858 0.000000 0.000000 0.000000
# 4 0.000000 0.000000 0.000000 0.054500 0.000000 0.000000
# 5 0.000000 0.000000 0.000000 0.000000 0.024627 0.000000
# 6 0.000000 0.000000 0.000000 0.000000 0.000000 0.079928
#
#
# Mechanical properties :
#
#
# Convention : Reuss Voigt Hill
#
# Bulk Modulus (GPa) = 51.77163 54.74435 53.25799
# Shear Modulus (GPa) = 23.73183 32.00943 27.87063
#
# Velocity S-wave (km/s) = 3.21396 3.73262 3.48295
# Velocity P-wave (km/s) = 6.02551 6.51188 6.27341
#
# Compressibility (1/GPa) = 0.01931560
#
# Stress axis : x y z
#
# Youngs Moduli (GPa) = 104.82561 112.90575 72.16123
#
# Poissons Ratio (x) = 0.10763 0.37913
# Poissons Ratio (y) = 0.09992 0.01892
# Poissons Ratio (z) = 0.55075 0.02960
#
# Static dielectric constant tensor:
#      x y z
#    x 3.983560 0.000000 0.000000 
#    y 0.000000 4.166260 0.000000 
#    z 0.000000 0.000000 4.096020 
# 
# 
# High freq. dielectric constant tensor:
#      x y z
#    x 1.900820 0.000000 0.000000 
#    y 0.000000 1.877940 0.000000 
#    z 0.000000 0.000000 1.920670 
# 
# From -- ./inp_files/39426.got.cif
#   From: 2010.03.12/outbox.cif.g09.slc.cpg/sg65_20_cif.got.tgz:39426.got - 2010.04.10 20:52:16.
