data_PCOD8274415
_publ_section_title
;
Structure prediction by ZEFSAII (Michael W. Deem and Ramdas Pophale) SiO2 
 PCOD8274415
Probable space group: C M M M
;
_chemical_formula_sum "Si O2"
_cell_formula_units_Z 88
_cell_length_a 31.947263
_cell_length_b 14.198181
_cell_length_c 12.615301
_cell_angle_alpha 90.000000
_cell_angle_beta 90.000000
_cell_angle_gamma 90.000000
_cell_volume 5722.212511
_symmetry_space_group_name_H-M "C M M M"
_symmetry_group_IT_number 65
_symmetry_cell_setting 'orthorhombic'
loop_
_space_group_symop_operation_xyz
x,y,z
-x,-y,z
x,-y,-z
-x,y,-z
-x,-y,-z
x,y,-z
-x,y,z
x,-y,z
1/2+x,1/2+y,z
1/2-x,1/2-y,z
1/2+x,1/2-y,-z
1/2-x,1/2+y,-z
1/2-x,1/2-y,-z
1/2+x,1/2+y,-z
1/2-x,1/2+y,z
1/2+x,1/2-y,z
loop_
_atom_site_type_symbol
_atom_site_label
_atom_site_fract_x
_atom_site_fract_y
_atom_site_fract_z
Si Si1 0.451317 0.610941 0.500000
Si Si2 0.048020 0.891463 0.877805
Si Si3 0.090782 0.786000 0.304474
Si Si4 0.260140 0.895750 0.625570
Si Si5 0.048163 0.393504 0.623552
Si Si6 0.817091 0.772020 0.625472
O O1 0.443845 0.500000 0.500000
O O2 0.500000 0.637644 0.500000
O O3 0.430840 0.653089 0.395484
O O4 0.078220 0.826201 0.809262
O O5 0.000000 0.872076 0.845803
O O6 0.059064 0.000000 0.856040
O O7 0.055525 0.865864 0.000000
O O8 0.076797 0.677198 0.310028
O O9 0.140575 0.791774 0.312072
O O10 0.260647 0.900789 0.500000
O O11 0.215558 0.852758 0.660124
O O12 0.298327 0.828961 0.661734
O O13 0.265555 0.000000 0.675460
O O14 0.054515 0.371407 0.500000
O O15 0.062385 0.500000 0.649255
O O16 0.000000 0.378987 0.655478
O O17 0.825872 0.773444 0.500000
#
# Coordination Sequence:
#
# PCOD8274415 Si02
#       6
#     8  16  16  16  16  16
#     4  11  22  30  39  64  99 127 146 174 231 295
#     4   9  19  35  51  66  88 124 167 201 231 274
#     4  12  19  29  47  69  95 122 153 198 238 274
#     4   8  15  28  44  57  85 127 155 180 218 269
#     4   9  17  28  41  60  90 127 159 183 218 273
#     4   9  17  28  39  65  94 116 152 186 223 281
#
# _framework density 15.378667
#
# number of rings (size 3 to 8) (size 9 to 14) (size 15 to 20)
#    0.000    2.455    1.818    4.364    0.000    3.636 
#    0.000    1.818    0.000    0.545    0.000    5.091 
#    0.000    1.455    0.000    0.000    0.000    0.000 
#
# Total GULP energy -545556.258774 kJ/mol
# GULP energy per Si atom -12399.005881 kJ/mol
# Density = 1.534366 g / cm^3
# Si number density = 15.378667 Si / 1000 Ang^3
#
#
#
# Elastic Constant Matrix: (Units=GPa)
#
#
# Indices 1 2 3 4 5 6 
#
# 1 113.9337 54.9400 38.5757 0.0000 0.0000 0.0000
# 2 54.9400 105.4713 33.7214 0.0000 0.0000 0.0000
# 3 38.5757 33.7214 51.8164 0.0000 0.0000 0.0000
# 4 0.0000 0.0000 0.0000 19.3424 0.0000 0.0000
# 5 0.0000 0.0000 0.0000 0.0000 18.3965 0.0000
# 6 0.0000 0.0000 0.0000 0.0000 0.0000 10.0308
#
#
#
# Elastic Compliance Matrix: (Units=1/GPa)
#
#
# Indices 1 2 3 4 5 6 
#
# 1 0.013412 -0.004791 -0.006867 0.000000 0.000000 0.000000
# 2 -0.004791 0.013684 -0.005338 0.000000 0.000000 0.000000
# 3 -0.006867 -0.005338 0.027886 0.000000 0.000000 0.000000
# 4 0.000000 0.000000 0.000000 0.051700 0.000000 0.000000
# 5 0.000000 0.000000 0.000000 0.000000 0.054358 0.000000
# 6 0.000000 0.000000 0.000000 0.000000 0.000000 0.099693
#
#
# Mechanical properties :
#
#
# Convention : Reuss Voigt Hill
#
# Bulk Modulus (GPa) = 47.64541 58.41062 53.02802
# Shear Modulus (GPa) = 16.57156 19.15290 17.86223
#
# Velocity S-wave (km/s) = 3.28619 3.53288 3.41177
# Velocity P-wave (km/s) = 6.74148 7.39633 7.07648
#
# Compressibility (1/GPa) = 0.02098838
#
# Stress axis : x y z
#
# Youngs Moduli (GPa) = 74.55803 73.07992 35.86088
#
# Poissons Ratio (x) = 0.35012 0.24627
# Poissons Ratio (y) = 0.35720 0.19144
# Poissons Ratio (z) = 0.51201 0.39013
#
# Static dielectric constant tensor:
#      x y z
#    x 2.901470 0.000000 0.000000 
#    y 0.000000 3.309580 0.000000 
#    z 0.000000 0.000000 2.505240 
# 
# 
# High freq. dielectric constant tensor:
#      x y z
#    x 1.587810 0.000000 0.000000 
#    y 0.000000 1.603720 0.000000 
#    z 0.000000 0.000000 1.531940 
# 
# From -- ./inp_files/32201.got.cif
#   From: 2010.03.12/outbox.cif.g09.slc.cpg/sg65_17_cif.got.tgz:32201.got - 2010.04.10 20:52:16.
