data_PCOD8274379
_publ_section_title
;
Structure prediction by ZEFSAII (Michael W. Deem and Ramdas Pophale) SiO2 
 PCOD8274379
Probable space group: C M M M
;
_chemical_formula_sum "Si O2"
_cell_formula_units_Z 56
_cell_length_a 7.566183
_cell_length_b 26.707992
_cell_length_c 15.696606
_cell_angle_alpha 90.000000
_cell_angle_beta 90.000000
_cell_angle_gamma 90.000000
_cell_volume 3171.931763
_symmetry_space_group_name_H-M "C M M M"
_symmetry_group_IT_number 65
_symmetry_cell_setting 'orthorhombic'
loop_
_space_group_symop_operation_xyz
x,y,z
-x,-y,z
x,-y,-z
-x,y,-z
-x,-y,-z
x,y,-z
-x,y,z
x,-y,z
1/2+x,1/2+y,z
1/2-x,1/2-y,z
1/2+x,1/2-y,-z
1/2-x,1/2+y,-z
1/2-x,1/2-y,-z
1/2+x,1/2+y,-z
1/2-x,1/2+y,z
1/2+x,1/2-y,z
loop_
_atom_site_type_symbol
_atom_site_label
_atom_site_fract_x
_atom_site_fract_y
_atom_site_fract_z
Si Si1 0.292576 0.307911 0.000000
Si Si2 0.206554 0.307577 0.500000
Si Si3 0.297994 0.870924 0.159424
Si Si4 0.000000 0.058205 0.899725
Si Si5 0.207908 0.692175 0.683036
O O1 0.250000 0.250000 0.000000
O O2 0.204674 0.331587 0.082876
O O3 0.500000 0.319240 0.000000
O O4 0.250000 0.250000 0.500000
O O5 0.285318 0.327336 0.409327
O O6 0.000000 0.317851 0.500000
O O7 0.500000 0.889134 0.173114
O O8 0.177060 0.918799 0.140628
O O9 0.216909 0.843096 0.242540
O O10 0.000000 0.000000 0.878253
O O11 0.000000 0.069065 0.000000
O O12 0.250000 0.750000 0.701705
O O13 0.000000 0.686470 0.682091
#
# Coordination Sequence:
#
# PCOD8274379 Si02
#       5
#     8   8  16   8  16
#     4  12  22  34  50  76 111 147 176 208 254 313
#     4   8  14  28  42  66 104 139 179 212 240 297
#     4  11  21  36  54  79 106 136 177 218 264 322
#     4  11  24  42  60  77 101 137 179 232 280 315
#     4   9  18  28  47  74 106 145 176 208 254 306
#
# _framework density 17.654857
#
# number of rings (size 3 to 8) (size 9 to 14) (size 15 to 20)
#    0.000    1.857    2.857    2.143    2.000    2.857 
#    0.000    1.429    0.000    0.000    0.000    2.000 
#    0.000    5.714    0.000    0.000    0.000    0.000 
#
# Total GULP energy -346934.323055 kJ/mol
# GULP energy per Si atom -12390.511538 kJ/mol
# Density = 1.761467 g / cm^3
# Si number density = 17.654857 Si / 1000 Ang^3
#
#
#
# Elastic Constant Matrix: (Units=GPa)
#
#
# Indices 1 2 3 4 5 6 
#
# 1 73.8424 35.1998 25.6094 0.0000 0.0000 0.0000
# 2 35.1998 106.0561 64.8266 0.0000 0.0000 0.0000
# 3 25.6094 64.8266 174.5389 0.0000 0.0000 0.0000
# 4 0.0000 0.0000 0.0000 16.6353 0.0000 0.0000
# 5 0.0000 0.0000 0.0000 0.0000 74.5812 0.0000
# 6 0.0000 0.0000 0.0000 0.0000 0.0000 24.5319
#
#
#
# Elastic Compliance Matrix: (Units=1/GPa)
#
#
# Indices 1 2 3 4 5 6 
#
# 1 0.016120 -0.005051 -0.000489 0.000000 0.000000 0.000000
# 2 -0.005051 0.013781 -0.004377 0.000000 0.000000 0.000000
# 3 -0.000489 -0.004377 0.007427 0.000000 0.000000 0.000000
# 4 0.000000 0.000000 0.000000 0.060113 0.000000 0.000000
# 5 0.000000 0.000000 0.000000 0.000000 0.013408 0.000000
# 6 0.000000 0.000000 0.000000 0.000000 0.000000 0.040763
#
#
# Mechanical properties :
#
#
# Convention : Reuss Voigt Hill
#
# Bulk Modulus (GPa) = 57.16712 67.30101 62.23406
# Shear Modulus (GPa) = 28.20417 38.40313 33.30365
#
# Velocity S-wave (km/s) = 4.00125 4.66898 4.34795
# Velocity P-wave (km/s) = 7.33467 8.20177 7.78031
#
# Compressibility (1/GPa) = 0.01749257
#
# Stress axis : x y z
#
# Youngs Moduli (GPa) = 62.03544 72.56306 134.64413
#
# Poissons Ratio (x) = 0.36653 0.06586
# Poissons Ratio (y) = 0.31335 0.58939
# Poissons Ratio (z) = 0.03034 0.31764
#
# Static dielectric constant tensor:
#      x y z
#    x 3.334500 0.000000 0.000000 
#    y 0.000000 3.190720 0.000000 
#    z 0.000000 0.000000 4.247050 
# 
# 
# High freq. dielectric constant tensor:
#      x y z
#    x 1.690430 0.000000 0.000000 
#    y 0.000000 1.628760 0.000000 
#    z 0.000000 0.000000 1.704180 
# 
# From -- ./inp_files/35851.got.cif
#   From: 2010.03.12/outbox.cif.g09.slc.cpg/sg65_18_cif.got.tgz:35851.got - 2010.04.10 20:52:16.
