data_PCOD8274605
_publ_section_title
;
Structure prediction by ZEFSAII (Michael W. Deem and Ramdas Pophale) SiO2 
 PCOD8274605
Probable space group: C M M M
;
_chemical_formula_sum "Si O2"
_cell_formula_units_Z 88
_cell_length_a 17.088821
_cell_length_b 18.535927
_cell_length_c 14.132301
_cell_angle_alpha 90.000000
_cell_angle_beta 90.000000
_cell_angle_gamma 90.000000
_cell_volume 4476.507226
_symmetry_space_group_name_H-M "C M M M"
_symmetry_group_IT_number 65
_symmetry_cell_setting 'orthorhombic'
loop_
_space_group_symop_operation_xyz
x,y,z
-x,-y,z
x,-y,-z
-x,y,-z
-x,-y,-z
x,y,-z
-x,y,z
x,-y,z
1/2+x,1/2+y,z
1/2-x,1/2-y,z
1/2+x,1/2-y,-z
1/2-x,1/2+y,-z
1/2-x,1/2-y,-z
1/2+x,1/2+y,-z
1/2-x,1/2+y,z
1/2+x,1/2-y,z
loop_
_atom_site_type_symbol
_atom_site_label
_atom_site_fract_x
_atom_site_fract_y
_atom_site_fract_z
Si Si1 0.411206 0.706047 0.894035
Si Si2 0.702443 0.917398 0.711764
Si Si3 0.000000 0.080366 0.387432
Si Si4 0.295086 0.580400 0.106563
Si Si5 0.845611 0.839651 0.387906
Si Si6 0.409229 0.206736 0.288037
O O1 0.500000 0.678952 0.890202
O O2 0.360399 0.637578 0.862465
O O3 0.397536 0.771665 0.821849
O O4 0.388988 0.732668 0.000000
O O5 0.722067 0.912816 0.823033
O O6 0.770730 0.880739 0.651418
O O7 0.621414 0.874551 0.696666
O O8 0.691036 0.000000 0.678245
O O9 0.077058 0.120059 0.349448
O O10 0.000000 0.079816 0.500000
O O11 0.000000 0.000000 0.346126
O O12 0.331722 0.500000 0.114137
O O13 0.265027 0.595539 0.000000
O O14 0.839491 0.839350 0.500000
O O15 0.853967 0.757702 0.352045
O O16 0.500000 0.210847 0.319528
#
# Coordination Sequence:
#
# PCOD8274605 Si02
#       6
#    16  16   8  16  16  16
#     4   9  18  33  54  83 118 154 192 233 281 341
#     4  11  24  40  59  86 118 154 198 243 290 344
#     4   9  18  34  58  86 116 148 180 221 282 352
#     4   9  18  33  54  83 119 155 190 231 283 344
#     4  11  22  39  61  88 119 150 190 239 294 352
#     4  11  23  40  61  86 116 153 199 244 290 344
#
# _framework density 19.658183000000001
#
# number of rings (size 3 to 8) (size 9 to 14) (size 15 to 20)
#    0.000    1.909    2.727    1.091    0.000    4.000 
#    0.000    3.636    0.000    0.000    0.000    7.636 
#    0.000    0.000    0.000    0.000    0.000    0.000 
#
# Total GULP energy -545586.603102 kJ/mol
# GULP energy per Si atom -12399.695525 kJ/mol
# Density = 1.961344 g / cm^3
# Si number density = 19.658183 Si / 1000 Ang^3
#
#
#
# Elastic Constant Matrix: (Units=GPa)
#
#
# Indices 1 2 3 4 5 6 
#
# 1 63.3881 58.3491 24.2408 0.0000 0.0000 0.0000
# 2 58.3491 138.3207 31.1546 0.0000 0.0000 0.0000
# 3 24.2408 31.1546 73.0226 0.0000 0.0000 0.0000
# 4 0.0000 0.0000 0.0000 18.8077 0.0000 0.0000
# 5 0.0000 0.0000 0.0000 0.0000 19.8336 0.0000
# 6 0.0000 0.0000 0.0000 0.0000 0.0000 31.6219
#
#
#
# Elastic Compliance Matrix: (Units=1/GPa)
#
#
# Indices 1 2 3 4 5 6 
#
# 1 0.027094 -0.010403 -0.004556 0.000000 0.000000 0.000000
# 2 -0.010403 0.011993 -0.001663 0.000000 0.000000 0.000000
# 3 -0.004556 -0.001663 0.015916 0.000000 0.000000 0.000000
# 4 0.000000 0.000000 0.000000 0.053170 0.000000 0.000000
# 5 0.000000 0.000000 0.000000 0.000000 0.050419 0.000000
# 6 0.000000 0.000000 0.000000 0.000000 0.000000 0.031624
#
#
# Mechanical properties :
#
#
# Convention : Reuss Voigt Hill
#
# Bulk Modulus (GPa) = 45.95817 55.80227 50.88022
# Shear Modulus (GPa) = 21.67189 24.78510 23.22849
#
# Velocity S-wave (km/s) = 3.32390 3.55463 3.44120
# Velocity P-wave (km/s) = 6.17741 6.73016 6.45970
#
# Compressibility (1/GPa) = 0.02175891
#
# Stress axis : x y z
#
# Youngs Moduli (GPa) = 36.90799 83.38404 62.82865
#
# Poissons Ratio (x) = 0.86747 0.28624
# Poissons Ratio (y) = 0.38397 0.10449
# Poissons Ratio (z) = 0.16815 0.13868
#
# Static dielectric constant tensor:
#      x y z
#    x 3.390730 0.000000 0.000000 
#    y 0.000000 3.575580 0.000000 
#    z 0.000000 0.000000 3.647120 
# 
# 
# High freq. dielectric constant tensor:
#      x y z
#    x 1.747650 0.000000 0.000000 
#    y 0.000000 1.760370 0.000000 
#    z 0.000000 0.000000 1.771980 
# 
# From -- ./inp_files/42534.got.cif
#   From: 2010.03.12/outbox.cif.g09.slc.cpg/sg65_22_cif.got.tgz:42534.got - 2010.04.10 20:52:16.
