data_PCOD8274629
_publ_section_title
;
Structure prediction by ZEFSAII (Michael W. Deem and Ramdas Pophale) SiO2 
 PCOD8274629
Probable space group: C M M M
;
_chemical_formula_sum "Si O2"
_cell_formula_units_Z 88
_cell_length_a 11.522165
_cell_length_b 17.407019
_cell_length_c 22.441882
_cell_angle_alpha 90.000000
_cell_angle_beta 90.000000
_cell_angle_gamma 90.000000
_cell_volume 4501.090738
_symmetry_space_group_name_H-M "C M M M"
_symmetry_group_IT_number 65
_symmetry_cell_setting 'orthorhombic'
loop_
_space_group_symop_operation_xyz
x,y,z
-x,-y,z
x,-y,-z
-x,y,-z
-x,-y,-z
x,y,-z
-x,y,z
x,-y,z
1/2+x,1/2+y,z
1/2-x,1/2-y,z
1/2+x,1/2-y,-z
1/2-x,1/2+y,-z
1/2-x,1/2-y,-z
1/2+x,1/2+y,-z
1/2-x,1/2+y,z
1/2+x,1/2-y,z
loop_
_atom_site_type_symbol
_atom_site_label
_atom_site_fract_x
_atom_site_fract_y
_atom_site_fract_z
Si Si1 0.633684 0.410437 0.932493
Si Si2 0.000000 0.912402 0.624474
Si Si3 0.500000 0.411540 0.765574
Si Si4 0.136901 0.413985 0.500000
Si Si5 0.772217 0.839792 0.820233
Si Si6 0.242258 0.159576 0.610762
Si Si7 0.866784 0.410422 0.721966
O O1 0.500000 0.394042 0.914624
O O2 0.660915 0.500000 0.925885
O O3 0.719883 0.363456 0.889616
O O4 0.656928 0.383228 0.000000
O O5 0.888325 0.868517 0.598960
O O6 0.000000 0.910816 0.695155
O O7 0.000000 0.000000 0.601141
O O8 0.500000 0.500000 0.789552
O O9 0.388932 0.365516 0.787627
O O10 0.187583 0.500000 0.500000
O O11 0.176477 0.371835 0.559259
O O12 0.000000 0.415131 0.500000
O O13 0.750000 0.750000 0.814754
O O14 0.665213 0.882939 0.788521
O O15 0.250000 0.250000 0.609456
O O16 0.285906 0.131831 0.674797
O O17 0.841481 0.500000 0.716153
O O18 0.000000 0.390374 0.709150
#
# Coordination Sequence:
#
# PCOD8274629 Si02
#       7
#    16   8   8   8  16  16  16
#     4   9  18  35  61  89 117 157 211 261 308 372
#     4  11  24  41  68  98 129 166 209 259 322 379
#     4  11  22  40  64  90 124 168 211 251 311 382
#     4  11  25  47  71  89 123 173 215 247 303 389
#     4  12  24  35  61  91 129 161 205 261 318 362
#     4  12  26  42  67  97 131 161 207 268 318 365
#     4  11  24  41  63  90 126 168 211 251 302 380
#
# _framework density 19.550816999999999
#
# number of rings (size 3 to 8) (size 9 to 14) (size 15 to 20)
#    0.000    1.000    2.727    5.182    3.818    2.182 
#    0.000    0.909    0.000    0.545    0.000    2.545 
#    0.000    0.000    0.000    0.000    0.000    0.000 
#
# Total GULP energy -545786.667941 kJ/mol
# GULP energy per Si atom -12404.242453 kJ/mol
# Density = 1.950632 g / cm^3
# Si number density = 19.550817 Si / 1000 Ang^3
#
#
#
# Elastic Constant Matrix: (Units=GPa)
#
#
# Indices 1 2 3 4 5 6 
#
# 1 86.6684 73.9054 33.6187 0.0000 0.0000 0.0000
# 2 73.9054 137.2975 36.0463 0.0000 0.0000 0.0000
# 3 33.6187 36.0463 94.3389 0.0000 0.0000 0.0000
# 4 0.0000 0.0000 0.0000-3968.0218 0.0000 0.0000
# 5 0.0000 0.0000 0.0000 0.0000 24.5397 0.0000
# 6 0.0000 0.0000 0.0000 0.0000 0.0000 29.9710
#
#
#
# Elastic Compliance Matrix: (Units=1/GPa)
#
#
# Indices 1 2 3 4 5 6 
#
# 1 0.022469 -0.011107 -0.003763 0.000000 0.000000 0.000000
# 2 -0.011107 0.013586 -0.001233 0.000000 0.000000 0.000000
# 3 -0.003763 -0.001233 0.012412 0.000000 0.000000 0.000000
# 4 0.000000 0.000000 0.000000 -0.000252 0.000000 0.000000
# 5 0.000000 0.000000 0.000000 0.000000 0.040750 0.000000
# 6 0.000000 0.000000 0.000000 0.000000 0.000000 0.033366
#
#
# Mechanical properties :
#
#
# Convention : Reuss Voigt Hill
#
# Bulk Modulus (GPa) = 61.49668 67.27173 64.38420
# Shear Modulus (GPa) = 31.25822 -771.05325 -369.89752
#
# Velocity S-wave (km/s) = 4.00286 -19.88065 -13.76985
# Velocity P-wave (km/s) = 7.27234 22.19243 14.82594
#
# Compressibility (1/GPa) = 0.01626104
#
# Stress axis : x y z
#
# Youngs Moduli (GPa) = 44.50524 73.60600 80.56525
#
# Poissons Ratio (x) = 0.81753 0.30319
# Poissons Ratio (y) = 0.49431 0.09934
# Poissons Ratio (z) = 0.16749 0.09076
#
# Static dielectric constant tensor:
#      x y z
#    x 3.629040 0.000000 0.000000 
#    y 0.000000 3.607460 0.000000 
#    z 0.000000 0.000000 3.738050 
# 
# 
# High freq. dielectric constant tensor:
#      x y z
#    x 1.759050 0.000000 0.000000 
#    y 0.000000 1.767340 0.000000 
#    z 0.000000 0.000000 1.770410 
# 
# From -- ./inp_files/68968.got.cif
#   From: 2010.03.12/outbox.cif.g09.slc.cpg/sg65_35_cif.got.tgz:68968.got - 2010.04.10 20:52:16.
