data_PCOD8274677
_publ_section_title
;
Structure prediction by ZEFSAII (Michael W. Deem and Ramdas Pophale) SiO2 
 PCOD8274677
Probable space group: C M M M
;
_chemical_formula_sum "Si O2"
_cell_formula_units_Z 88
_cell_length_a 9.422456
_cell_length_b 18.332139
_cell_length_c 28.205698
_cell_angle_alpha 90.000000
_cell_angle_beta 90.000000
_cell_angle_gamma 90.000000
_cell_volume 4872.076639
_symmetry_space_group_name_H-M "C M M M"
_symmetry_group_IT_number 65
_symmetry_cell_setting 'orthorhombic'
loop_
_space_group_symop_operation_xyz
x,y,z
-x,-y,z
x,-y,-z
-x,y,-z
-x,-y,-z
x,y,-z
-x,y,z
x,-y,z
1/2+x,1/2+y,z
1/2-x,1/2-y,z
1/2+x,1/2-y,-z
1/2-x,1/2+y,-z
1/2-x,1/2-y,-z
1/2+x,1/2+y,-z
1/2-x,1/2+y,z
1/2+x,1/2-y,z
loop_
_atom_site_type_symbol
_atom_site_label
_atom_site_fract_x
_atom_site_fract_y
_atom_site_fract_z
Si Si1 0.340335 0.413357 0.808404
Si Si2 0.659763 0.586820 0.087211
Si Si3 0.164697 0.583466 0.720781
Si Si4 0.838702 0.915675 0.444858
Si Si5 0.168214 0.674868 0.371531
Si Si6 0.340411 0.912808 0.000000
O O1 0.500000 0.386402 0.799008
O O2 0.332341 0.500000 0.807604
O O3 0.289472 0.386139 0.860547
O O4 0.242621 0.381668 0.766523
O O5 0.500000 0.614353 0.077145
O O6 0.661959 0.500000 0.085724
O O7 0.763120 0.618571 0.046863
O O8 0.211614 0.500000 0.711849
O O9 0.207394 0.628269 0.674601
O O10 0.000000 0.588951 0.731976
O O11 0.818889 0.898303 0.500000
O O12 0.724882 0.867355 0.417345
O O13 0.000000 0.896614 0.429272
O O14 0.806454 0.000000 0.434308
O O15 0.250000 0.750000 0.366672
O O16 0.000000 0.687403 0.376923
O O17 0.500000 0.882897 0.000000
O O18 0.337155 0.000000 0.000000
#
# Coordination Sequence:
#
# PCOD8274677 Si02
#       6
#    16  16  16  16  16   8
#     4   8  14  24  39  59  80 106 145 189 231 279
#     4   8  13  21  31  44  67 100 137 177 221 270
#     4   9  18  32  49  69  93 121 155 198 246 292
#     4   9  19  37  60  84 108 134 166 204 245 290
#     4  11  23  37  53  75 104 137 171 206 247 294
#     4   9  15  19  25  41  65  97 138 179 220 269
#
# _framework density 18.062113
#
# number of rings (size 3 to 8) (size 9 to 14) (size 15 to 20)
#    0.000    3.000    0.000    3.000    0.000    5.091 
#    0.000    6.364    0.000    0.000    0.000    0.000 
#    0.000    0.000    0.000    0.818    0.000   11.636 
#
# Total GULP energy -545407.371891 kJ/mol
# GULP energy per Si atom -12395.622088 kJ/mol
# Density = 1.802100 g / cm^3
# Si number density = 18.062113 Si / 1000 Ang^3
#
#
#
# Elastic Constant Matrix: (Units=GPa)
#
#
# Indices 1 2 3 4 5 6 
#
# 1 107.5136 42.0375 84.3453 0.0000 0.0000 0.0000
# 2 42.0375 50.5248 48.2799 0.0000 0.0000 0.0000
# 3 84.3453 48.2799 145.5457 0.0000 0.0000 0.0000
# 4 0.0000 0.0000 0.0000 -0.5423 0.0000 0.0000
# 5 0.0000 0.0000 0.0000 0.0000 39.2475 0.0000
# 6 0.0000 0.0000 0.0000 0.0000 0.0000 0.7052
#
#
#
# Elastic Compliance Matrix: (Units=1/GPa)
#
#
# Indices 1 2 3 4 5 6 
#
# 1 0.018901 -0.007700 -0.008399 0.000000 0.000000 0.000000
# 2 -0.007700 0.032114 -0.006191 0.000000 0.000000 0.000000
# 3 -0.008399 -0.006191 0.013792 0.000000 0.000000 0.000000
# 4 0.000000 0.000000 0.000000 -1.844011 0.000000 0.000000
# 5 0.000000 0.000000 0.000000 0.000000 0.025479 0.000000
# 6 0.000000 0.000000 0.000000 0.000000 0.000000 1.418049
#
#
# Mechanical properties :
#
#
# Convention : Reuss Voigt Hill
#
# Bulk Modulus (GPa) = 49.43771 72.54548 60.99159
# Shear Modulus (GPa) = -17.58369 16.47684 -0.55343
#
# Velocity S-wave (km/s) = -3.12350 3.02359 -0.55414
# Velocity P-wave (km/s) = 3.79763 7.24163 5.78200
#
# Compressibility (1/GPa) = 0.02022747
#
# Stress axis : x y z
#
# Youngs Moduli (GPa) = 52.90726 31.13871 72.50795
#
# Poissons Ratio (x) = 0.23977 0.60900
# Poissons Ratio (y) = 0.40739 0.44887
# Poissons Ratio (z) = 0.44437 0.19277
#
# Static dielectric constant tensor:
#      x y z
#    x 3.416760 0.000000 0.000000 
#    y 0.000000 2.854370 0.000000 
#    z 0.000000 0.000000 3.677830 
# 
# 
# High freq. dielectric constant tensor:
#      x y z
#    x 1.700760 0.000000 0.000000 
#    y 0.000000 1.640850 0.000000 
#    z 0.000000 0.000000 1.716640 
# 
# From -- ./inp_files/76683.got.cif
#   From: 2010.03.12/outbox.cif.g09.slc.cpg/sg65_39_cif.got.tgz:76683.got - 2010.04.10 20:52:16.
