data_PCOD8274132
_publ_section_title
;
Structure prediction by ZEFSAII (Michael W. Deem and Ramdas Pophale) SiO2 
 PCOD8274132
Probable space group: C M M M
;
_chemical_formula_sum "Si O2"
_cell_formula_units_Z 72
_cell_length_a 9.233621
_cell_length_b 23.673953
_cell_length_c 20.479269
_cell_angle_alpha 90.000000
_cell_angle_beta 90.000000
_cell_angle_gamma 90.000000
_cell_volume 4476.692626
_symmetry_space_group_name_H-M "C M M M"
_symmetry_group_IT_number 65
_symmetry_cell_setting 'orthorhombic'
loop_
_space_group_symop_operation_xyz
x,y,z
-x,-y,z
x,-y,-z
-x,y,-z
-x,-y,-z
x,y,-z
-x,y,z
x,-y,z
1/2+x,1/2+y,z
1/2-x,1/2-y,z
1/2+x,1/2-y,-z
1/2-x,1/2+y,-z
1/2-x,1/2-y,-z
1/2+x,1/2+y,-z
1/2-x,1/2+y,z
1/2+x,1/2-y,z
loop_
_atom_site_type_symbol
_atom_site_label
_atom_site_fract_x
_atom_site_fract_y
_atom_site_fract_z
Si Si1 0.661346 0.067548 0.500000
Si Si2 0.671671 0.107302 0.115010
Si Si3 0.659714 0.433608 0.621220
Si Si4 0.329610 0.434162 0.232903
Si Si5 0.342543 0.500000 0.072920
Si Si6 0.330868 0.191415 0.000000
O O1 0.500000 0.091780 0.500000
O O2 0.738326 0.091950 0.564969
O O3 0.661372 0.000000 0.500000
O O4 0.500000 0.100326 0.121380
O O5 0.743477 0.110681 0.187337
O O6 0.742948 0.053187 0.083966
O O7 0.712103 0.158865 0.066867
O O8 0.500000 0.406374 0.614290
O O9 0.645489 0.500000 0.610863
O O10 0.724395 0.422138 0.693338
O O11 0.500000 0.422406 0.228495
O O12 0.295888 0.500000 0.212390
O O13 0.500000 0.500000 0.112133
O O14 0.393144 0.500000 0.000000
O O15 0.250000 0.250000 0.000000
O O16 0.500000 0.203350 0.000000
#
# Coordination Sequence:
#
# PCOD8274132 Si02
#       6
#     8  16  16  16   8   8
#     4   9  15  21  31  49  73 105 150 191 218 255
#     4  11  21  33  49  70  95 118 144 188 237 276
#     4   8  14  24  36  50  75 111 148 185 217 253
#     4   9  17  28  42  64  90 117 152 185 221 274
#     4  11  21  31  47  71  93 118 149 178 219 277
#     4  10  24  41  54  69  89 116 154 190 229 278
#
# _framework density 16.083303000000001
#
# number of rings (size 3 to 8) (size 9 to 14) (size 15 to 20)
#    0.000    2.444    2.222    2.667    0.000    4.444 
#    0.000    2.222    0.000    0.000    0.000    0.000 
#    0.000    0.000    0.000    1.000    0.000   13.222 
#
# Total GULP energy -445976.110118 kJ/mol
# GULP energy per Si atom -12388.225281 kJ/mol
# Density = 1.604670 g / cm^3
# Si number density = 16.083303 Si / 1000 Ang^3
#
#
#
# Elastic Constant Matrix: (Units=GPa)
#
#
# Indices 1 2 3 4 5 6 
#
# 1 87.1102 37.3036 68.0055 0.0000 0.0000 0.0000
# 2 37.3036 61.2994 39.9593 0.0000 0.0000 0.0000
# 3 68.0055 39.9593 148.7018 0.0000 0.0000 0.0000
# 4 0.0000 0.0000 0.0000 4.8041 0.0000 0.0000
# 5 0.0000 0.0000 0.0000 0.0000 27.4702 0.0000
# 6 0.0000 0.0000 0.0000 0.0000 0.0000 19.5934
#
#
#
# Elastic Compliance Matrix: (Units=1/GPa)
#
#
# Indices 1 2 3 4 5 6 
#
# 1 0.020472 -0.007705 -0.007292 0.000000 0.000000 0.000000
# 2 -0.007705 0.022678 -0.002570 0.000000 0.000000 0.000000
# 3 -0.007292 -0.002570 0.010750 0.000000 0.000000 0.000000
# 4 0.000000 0.000000 0.000000 0.208154 0.000000 0.000000
# 5 0.000000 0.000000 0.000000 0.000000 0.036403 0.000000
# 6 0.000000 0.000000 0.000000 0.000000 0.000000 0.051038
#
#
# Mechanical properties :
#
#
# Convention : Reuss Voigt Hill
#
# Bulk Modulus (GPa) = 53.28836 65.29425 59.29130
# Shear Modulus (GPa) = 12.79153 20.49640 16.64397
#
# Velocity S-wave (km/s) = 2.82322 3.57373 3.22041
# Velocity P-wave (km/s) = 6.62058 7.59700 7.12554
#
# Compressibility (1/GPa) = 0.01876583
#
# Stress axis : x y z
#
# Youngs Moduli (GPa) = 48.84768 44.09637 93.01996
#
# Poissons Ratio (x) = 0.33975 0.67829
# Poissons Ratio (y) = 0.37636 0.23910
# Poissons Ratio (z) = 0.35619 0.11334
#
# Static dielectric constant tensor:
#      x y z
#    x 3.167690 0.000000 0.000000 
#    y 0.000000 2.421020 0.000000 
#    z 0.000000 0.000000 3.508990 
# 
# 
# High freq. dielectric constant tensor:
#      x y z
#    x 1.627610 0.000000 0.000000 
#    y 0.000000 1.533890 0.000000 
#    z 0.000000 0.000000 1.642730 
# 
# From -- ./inp_files/60024.got.cif
#   From: 2010.03.12/outbox.cif.g09.slc.cpg/sg65_31_cif.got.tgz:60024.got - 2010.04.10 20:52:16.
