data_PCOD8274436
_publ_section_title
;
Structure prediction by ZEFSAII (Michael W. Deem and Ramdas Pophale) SiO2 
 PCOD8274436
Probable space group: C M M M
;
_chemical_formula_sum "Si O2"
_cell_formula_units_Z 104
_cell_length_a 18.399774
_cell_length_b 20.832217
_cell_length_c 14.574498
_cell_angle_alpha 90.000000
_cell_angle_beta 90.000000
_cell_angle_gamma 90.000000
_cell_volume 5586.522914
_symmetry_space_group_name_H-M "C M M M"
_symmetry_group_IT_number 65
_symmetry_cell_setting 'orthorhombic'
loop_
_space_group_symop_operation_xyz
x,y,z
-x,-y,z
x,-y,-z
-x,y,-z
-x,-y,-z
x,y,-z
-x,y,z
x,-y,z
1/2+x,1/2+y,z
1/2-x,1/2-y,z
1/2+x,1/2-y,-z
1/2-x,1/2+y,-z
1/2-x,1/2-y,-z
1/2+x,1/2+y,-z
1/2-x,1/2+y,z
1/2+x,1/2-y,z
loop_
_atom_site_type_symbol
_atom_site_label
_atom_site_fract_x
_atom_site_fract_y
_atom_site_fract_z
Si Si1 0.415753 0.726398 0.394709
Si Si2 0.919055 0.576297 0.897276
Si Si3 0.414571 0.426385 0.102517
Si Si4 0.085815 0.000000 0.391725
Si Si5 0.346213 0.382237 0.717695
Si Si6 0.418780 0.125879 0.393558
Si Si7 0.812056 0.426345 0.743431
O O1 0.396118 0.710251 0.500000
O O2 0.500000 0.709913 0.376853
O O3 0.365614 0.685440 0.327356
O O4 0.399155 0.800315 0.372970
O O5 0.919893 0.500000 0.890435
O O6 0.857377 0.603418 0.829069
O O7 0.000000 0.602046 0.871356
O O8 0.898858 0.598618 0.000000
O O9 0.500000 0.418384 0.112876
O O10 0.391698 0.500000 0.119388
O O11 0.376221 0.383127 0.178632
O O12 0.390016 0.405090 0.000000
O O13 0.120396 0.937676 0.345680
O O14 0.103068 0.000000 0.500000
O O15 0.000000 0.000000 0.372791
O O16 0.259677 0.385649 0.724777
O O17 0.413133 0.111167 0.500000
O O18 0.500000 0.110977 0.358208
O O19 0.363343 0.078138 0.344879
O O20 0.789937 0.500000 0.761004
#
# Coordination Sequence:
#
# PCOD8274436 Si02
#       7
#    16  16  16   8  16  16  16
#     4   9  19  37  59  78  97 133 187 234 267 307
#     4   8  15  30  53  77 101 134 176 219 261 310
#     4   9  17  30  49  72 101 140 183 221 256 305
#     4  11  22  34  49  71 102 141 181 221 259 298
#     4  12  21  33  50  78 111 143 175 215 269 316
#     4   9  20  39  59  77  99 134 182 227 266 316
#     4  11  22  34  49  80 116 144 170 208 268 329
#
# _framework density 18.616230000000002
#
# number of rings (size 3 to 8) (size 9 to 14) (size 15 to 20)
#    0.000    2.231    1.538    4.154    0.000    4.923 
#    0.000    3.846    0.000    0.923    0.000    6.462 
#    0.000    0.000    0.000    0.000    0.000    0.000 
#
# Total GULP energy -644758.934137 kJ/mol
# GULP energy per Si atom -12399.210272 kJ/mol
# Density = 1.857386 g / cm^3
# Si number density = 18.616230 Si / 1000 Ang^3
#
#
#
# Elastic Constant Matrix: (Units=GPa)
#
#
# Indices 1 2 3 4 5 6 
#
# 1 106.4451 13.2621 53.9695 0.0000 0.0000 0.0000
# 2 13.2621 15.4240 15.0304 0.0000 0.0000 0.0000
# 3 53.9695 15.0304 104.9641 0.0000 0.0000 0.0000
# 4 0.0000 0.0000 0.0000 14.2968 0.0000 0.0000
# 5 0.0000 0.0000 0.0000 0.0000 9.4672 0.0000
# 6 0.0000 0.0000 0.0000 0.0000 0.0000 19.3775
#
#
#
# Elastic Compliance Matrix: (Units=1/GPa)
#
#
# Indices 1 2 3 4 5 6 
#
# 1 0.013091 -0.005459 -0.005949 0.000000 0.000000 0.000000
# 2 -0.005459 0.077625 -0.008309 0.000000 0.000000 0.000000
# 3 -0.005949 -0.008309 0.013776 0.000000 0.000000 0.000000
# 4 0.000000 0.000000 0.000000 0.069946 0.000000 0.000000
# 5 0.000000 0.000000 0.000000 0.000000 0.105628 0.000000
# 6 0.000000 0.000000 0.000000 0.000000 0.000000 0.051606
#
#
# Mechanical properties :
#
#
# Convention : Reuss Voigt Hill
#
# Bulk Modulus (GPa) = 15.37095 43.48414 29.42755
# Shear Modulus (GPa) = 12.72941 18.26636 15.49789
#
# Velocity S-wave (km/s) = 2.61776 3.13582 2.88843
# Velocity P-wave (km/s) = 4.17271 6.04318 5.19286
#
# Compressibility (1/GPa) = 0.06505778
#
# Stress axis : x y z
#
# Youngs Moduli (GPa) = 76.38803 12.88253 72.59078
#
# Poissons Ratio (x) = 0.07032 0.43187
# Poissons Ratio (y) = 0.41697 0.60314
# Poissons Ratio (z) = 0.45446 0.10704
#
# Static dielectric constant tensor:
#      x y z
#    x 3.440070 0.000000 0.000000 
#    y 0.000000 3.054280 0.000000 
#    z 0.000000 0.000000 3.627180 
# 
# 
# High freq. dielectric constant tensor:
#      x y z
#    x 1.722040 0.000000 0.000000 
#    y 0.000000 1.682830 0.000000 
#    z 0.000000 0.000000 1.733970 
# 
# From -- ./inp_files/42888.got.cif
#   From: 2010.03.12/outbox.cif.g09.slc.cpg/sg65_22_cif.got.tgz:42888.got - 2010.04.10 20:52:16.
