data_PCOD8274193
_publ_section_title
;
Structure prediction by ZEFSAII (Michael W. Deem and Ramdas Pophale) SiO2 
 PCOD8274193
Probable space group: C M M M
;
_chemical_formula_sum "Si O2"
_cell_formula_units_Z 72
_cell_length_a 16.224329
_cell_length_b 24.072652
_cell_length_c 10.393567
_cell_angle_alpha 90.000000
_cell_angle_beta 90.000000
_cell_angle_gamma 90.000000
_cell_volume 4059.338821
_symmetry_space_group_name_H-M "C M M M"
_symmetry_group_IT_number 65
_symmetry_cell_setting 'orthorhombic'
loop_
_space_group_symop_operation_xyz
x,y,z
-x,-y,z
x,-y,-z
-x,y,-z
-x,-y,-z
x,y,-z
-x,y,z
x,-y,z
1/2+x,1/2+y,z
1/2-x,1/2-y,z
1/2+x,1/2-y,-z
1/2-x,1/2+y,-z
1/2-x,1/2-y,-z
1/2+x,1/2+y,-z
1/2-x,1/2+y,z
1/2+x,1/2-y,z
loop_
_atom_site_type_symbol
_atom_site_label
_atom_site_fract_x
_atom_site_fract_y
_atom_site_fract_z
Si Si1 0.410963 0.830010 0.500000
Si Si2 0.093327 0.654479 0.000000
Si Si3 0.091719 0.200319 0.500000
Si Si4 0.095901 0.500000 0.347588
Si Si5 0.901371 0.223376 0.000000
Si Si6 0.805101 0.193779 0.247205
Si Si7 0.162382 0.614438 0.743688
O O1 0.500000 0.860432 0.500000
O O2 0.421663 0.765313 0.500000
O O3 0.365728 0.845420 0.629939
O O4 0.138238 0.714242 0.000000
O O5 0.110234 0.619212 0.126702
O O6 0.000000 0.672081 0.000000
O O7 0.142771 0.182943 0.624788
O O8 0.000000 0.172599 0.500000
O O9 0.093840 0.500000 0.500000
O O10 0.150822 0.448643 0.299694
O O11 0.000000 0.500000 0.297177
O O12 0.867607 0.194827 0.128195
O O13 0.000000 0.219617 0.000000
O O14 0.750000 0.250000 0.257327
O O15 0.753696 0.136676 0.226158
#
# Coordination Sequence:
#
# PCOD8274193 Si02
#       7
#     8   8   8   8   8  16  16
#     4  11  19  32  52  78 111 153 194 229 283 348
#     4  11  21  34  54  84 119 155 192 233 285 342
#     4  11  22  34  52  83 118 150 187 238 300 359
#     4  11  24  41  59  83 116 159 205 237 279 345
#     4  11  22  38  58  85 122 160 189 226 294 369
#     4  12  21  36  56  86 117 152 194 242 292 349
#     4  12  23  36  57  81 113 157 198 242 284 329
#
# _framework density 17.736878000000001
#
# number of rings (size 3 to 8) (size 9 to 14) (size 15 to 20)
#    0.000    0.556    5.556    4.667    0.000    4.000 
#    0.000    1.111    0.000    0.000    0.000    4.667 
#    0.000    0.000    0.000    0.000    0.000    0.000 
#
# Total GULP energy -446227.897257 kJ/mol
# GULP energy per Si atom -12395.219368 kJ/mol
# Density = 1.769651 g / cm^3
# Si number density = 17.736878 Si / 1000 Ang^3
#
#
#
# Elastic Constant Matrix: (Units=GPa)
#
#
# Indices 1 2 3 4 5 6 
#
# 1 97.6224 41.9923 38.5394 0.0000 0.0000 0.0000
# 2 41.9923 92.3829 20.5457 0.0000 0.0000 0.0000
# 3 38.5394 20.5457 140.8948 0.0000 0.0000 0.0000
# 4 0.0000 0.0000 0.0000 18.9017 0.0000 0.0000
# 5 0.0000 0.0000 0.0000 0.0000 32.0621 0.0000
# 6 0.0000 0.0000 0.0000 0.0000 0.0000 24.0911
#
#
#
# Elastic Compliance Matrix: (Units=1/GPa)
#
#
# Indices 1 2 3 4 5 6 
#
# 1 0.013835 -0.005630 -0.002963 0.000000 0.000000 0.000000
# 2 -0.005630 0.013478 -0.000426 0.000000 0.000000 0.000000
# 3 -0.002963 -0.000426 0.007970 0.000000 0.000000 0.000000
# 4 0.000000 0.000000 0.000000 0.052905 0.000000 0.000000
# 5 0.000000 0.000000 0.000000 0.000000 0.031189 0.000000
# 6 0.000000 0.000000 0.000000 0.000000 0.000000 0.041509
#
#
# Mechanical properties :
#
#
# Convention : Reuss Voigt Hill
#
# Bulk Modulus (GPa) = 57.98397 59.22830 58.60613
# Shear Modulus (GPa) = 27.07489 30.33249 28.70369
#
# Velocity S-wave (km/s) = 3.91125 4.13987 4.02718
# Velocity P-wave (km/s) = 7.29105 7.50444 7.39851
#
# Compressibility (1/GPa) = 0.01724615
#
# Stress axis : x y z
#
# Youngs Moduli (GPa) = 72.28031 74.19462 125.46831
#
# Poissons Ratio (x) = 0.41769 0.37181
# Poissons Ratio (y) = 0.40691 0.05339
# Poissons Ratio (z) = 0.21420 0.03157
#
# Static dielectric constant tensor:
#      x y z
#    x 3.490140 0.000000 0.000000 
#    y 0.000000 3.010230 0.000000 
#    z 0.000000 0.000000 3.452220 
# 
# 
# High freq. dielectric constant tensor:
#      x y z
#    x 1.686430 0.000000 0.000000 
#    y 0.000000 1.647220 0.000000 
#    z 0.000000 0.000000 1.711030 
# 
# From -- ./inp_files/9355.got.cif
#   From: 2010.03.12/outbox.cif.g09.slc.cpg/sg65_5_cif.got.tgz:9355.got - 2010.04.10 20:52:16.
