data_PCOD8274635
_publ_section_title
;
Structure prediction by ZEFSAII (Michael W. Deem and Ramdas Pophale) SiO2 
 PCOD8274635
Probable space group: C M M M
;
_chemical_formula_sum "Si O2"
_cell_formula_units_Z 88
_cell_length_a 12.085835
_cell_length_b 14.137668
_cell_length_c 27.839137
_cell_angle_alpha 90.000000
_cell_angle_beta 90.000000
_cell_angle_gamma 90.000000
_cell_volume 4756.748696
_symmetry_space_group_name_H-M "C M M M"
_symmetry_group_IT_number 65
_symmetry_cell_setting 'orthorhombic'
loop_
_space_group_symop_operation_xyz
x,y,z
-x,-y,z
x,-y,-z
-x,y,-z
-x,-y,-z
x,y,-z
-x,y,z
x,-y,z
1/2+x,1/2+y,z
1/2-x,1/2-y,z
1/2+x,1/2-y,-z
1/2-x,1/2+y,-z
1/2-x,1/2-y,-z
1/2+x,1/2+y,-z
1/2-x,1/2+y,z
1/2+x,1/2-y,z
loop_
_atom_site_type_symbol
_atom_site_label
_atom_site_fract_x
_atom_site_fract_y
_atom_site_fract_z
Si Si1 0.626839 0.103776 0.709365
Si Si2 0.217855 0.645036 0.609597
Si Si3 0.132067 0.892214 0.845745
Si Si4 0.750000 0.750000 0.775346
Si Si5 0.876746 0.887966 0.050766
Si Si6 0.869411 0.000000 0.556818
Si Si7 0.500000 0.888306 0.554233
O O1 0.500000 0.127377 0.696730
O O2 0.695300 0.094801 0.660141
O O3 0.669707 0.186362 0.743462
O O4 0.636621 0.000000 0.734426
O O5 0.250000 0.750000 0.622615
O O6 0.314901 0.592337 0.580623
O O7 0.108886 0.652415 0.577924
O O8 0.176268 0.820135 0.806625
O O9 0.179785 0.858565 0.898480
O O10 0.000000 0.887718 0.846545
O O11 0.170140 0.000000 0.833845
O O12 0.000000 0.844924 0.049302
O O13 0.885221 0.000000 0.052141
O O14 0.816204 0.856698 0.000000
O O15 0.844637 0.000000 0.500000
O O16 0.000000 0.000000 0.567459
O O17 0.500000 0.852845 0.500000
O O18 0.500000 0.000000 0.559062
#
# Coordination Sequence:
#
# PCOD8274635 Si02
#       7
#    16  16  16   8  16   8   8
#     4  11  23  41  62  82 107 144 188 238 281 328
#     4  12  24  42  65  91 118 150 191 234 279 330
#     4   9  18  33  52  77 109 143 182 229 278 334
#     4  12  22  36  55  82 109 144 184 232 290 336
#     4   7  10  20  42  70 100 137 178 219 268 325
#     4  11  26  45  63  91 131 158 175 217 284 347
#     4  11  22  40  68  93 117 153 195 232 269 325
#
# _framework density 18.500032000000001
#
# number of rings (size 3 to 8) (size 9 to 14) (size 15 to 20)
#    0.000    1.818    3.636    3.273    1.273    1.455 
#    0.000    0.455    0.000    0.000    0.000    0.000 
#    0.000    0.000    0.000   22.182    0.000    1.455 
#
# Total GULP energy -545133.390552 kJ/mol
# GULP energy per Si atom -12389.395240 kJ/mol
# Density = 1.845792 g / cm^3
# Si number density = 18.500032 Si / 1000 Ang^3
#
#
#
# Elastic Constant Matrix: (Units=GPa)
#
#
# Indices 1 2 3 4 5 6 
#
# 1 83.6902 38.9352 46.4514 0.0000 0.0000 0.0000
# 2 38.9352 101.9985 53.5355 0.0000 0.0000 0.0000
# 3 46.4514 53.5355 139.5315 0.0000 0.0000 0.0000
# 4 0.0000 0.0000 0.0000 -32.7106 0.0000 0.0000
# 5 0.0000 0.0000 0.0000 0.0000 10.9536 0.0000
# 6 0.0000 0.0000 0.0000 0.0000 0.0000 2.1067
#
#
#
# Elastic Compliance Matrix: (Units=1/GPa)
#
#
# Indices 1 2 3 4 5 6 
#
# 1 0.015935 -0.004130 -0.003720 0.000000 0.000000 0.000000
# 2 -0.004130 0.013347 -0.003746 0.000000 0.000000 0.000000
# 3 -0.003720 -0.003746 0.009843 0.000000 0.000000 0.000000
# 4 0.000000 0.000000 0.000000 -0.030571 0.000000 0.000000
# 5 0.000000 0.000000 0.000000 0.000000 0.091294 0.000000
# 6 0.000000 0.000000 0.000000 0.000000 0.000000 0.474671
#
#
# Mechanical properties :
#
#
# Convention : Reuss Voigt Hill
#
# Bulk Modulus (GPa) = 62.76771 67.00717 64.88744
# Shear Modulus (GPa) = 8.29158 8.48982 8.39070
#
# Velocity S-wave (km/s) = 2.11935 2.14454 2.13198
# Velocity P-wave (km/s) = 6.32384 6.51389 6.41957
#
# Compressibility (1/GPa) = 0.01593176
#
# Stress axis : x y z
#
# Youngs Moduli (GPa) = 62.75399 74.92458 101.59918
#
# Poissons Ratio (x) = 0.30945 0.37798
# Poissons Ratio (y) = 0.25919 0.38058
# Poissons Ratio (z) = 0.23346 0.28066
#
# Static dielectric constant tensor:
#      x y z
#    x 3.103270 0.000000 0.000000 
#    y 0.000000 3.301740 0.000000 
#    z 0.000000 0.000000 3.909930 
# 
# 
# High freq. dielectric constant tensor:
#      x y z
#    x 1.692010 0.000000 0.000000 
#    y 0.000000 1.709420 0.000000 
#    z 0.000000 0.000000 1.737490 
# 
# From -- ./inp_files/74325.got.cif
#   From: 2010.03.12/outbox.cif.g09.slc.cpg/sg65_38_cif.got.tgz:74325.got - 2010.04.10 20:52:16.
