data_PCOD8274322
_publ_section_title
;
Structure prediction by ZEFSAII (Michael W. Deem and Ramdas Pophale) SiO2 
 PCOD8274322
Probable space group: C M M M
;
_chemical_formula_sum "Si O2"
_cell_formula_units_Z 104
_cell_length_a 20.378018
_cell_length_b 28.776889
_cell_length_c 9.319716
_cell_angle_alpha 90.000000
_cell_angle_beta 90.000000
_cell_angle_gamma 90.000000
_cell_volume 5465.230224
_symmetry_space_group_name_H-M "C M M M"
_symmetry_group_IT_number 65
_symmetry_cell_setting 'orthorhombic'
loop_
_space_group_symop_operation_xyz
x,y,z
-x,-y,z
x,-y,-z
-x,y,-z
-x,-y,-z
x,y,-z
-x,y,z
x,-y,z
1/2+x,1/2+y,z
1/2-x,1/2-y,z
1/2+x,1/2-y,-z
1/2-x,1/2+y,-z
1/2-x,1/2-y,-z
1/2+x,1/2+y,-z
1/2-x,1/2+y,z
1/2+x,1/2-y,z
loop_
_atom_site_type_symbol
_atom_site_label
_atom_site_fract_x
_atom_site_fract_y
_atom_site_fract_z
Si Si1 0.327634 0.699829 0.166123
Si Si2 0.268682 0.054078 0.161039
Si Si3 0.372500 0.890651 0.670107
Si Si4 0.000000 0.447047 0.670221
Si Si5 0.573750 0.636401 0.336720
Si Si6 0.883029 0.052696 0.164495
Si Si7 0.677553 0.806741 0.833863
O O1 0.378214 0.671754 0.260154
O O2 0.336641 0.753646 0.206910
O O3 0.253927 0.682410 0.198608
O O4 0.344112 0.691561 0.000000
O O5 0.308639 0.081600 0.280027
O O6 0.192883 0.066203 0.182766
O O7 0.281666 0.000000 0.184105
O O8 0.290424 0.068944 0.000000
O O9 0.372214 0.885368 0.500000
O O10 0.436360 0.918815 0.724422
O O11 0.369968 0.839357 0.739541
O O12 0.000000 0.500000 0.732503
O O13 0.000000 0.449812 0.500000
O O14 0.596731 0.630953 0.500000
O O15 0.500000 0.656164 0.326672
O O16 0.574338 0.585919 0.263749
O O17 0.895703 0.000000 0.214054
O O18 0.904602 0.059184 0.000000
O O19 0.662147 0.815921 0.000000
#
# Coordination Sequence:
#
# PCOD8274322 Si02
#       7
#    16  16  16   8  16  16  16
#     4   9  19  38  62  83 106 141 180 219 268 328
#     4   9  18  33  53  78 108 138 172 223 279 320
#     4  11  21  33  53  80 107 143 184 224 271 326
#     4   9  20  38  53  69 105 153 193 225 262 321
#     4  11  24  38  52  77 113 148 179 218 267 313
#     4   9  19  36  57  80 106 140 182 224 266 318
#     4   9  19  37  60  85 110 134 170 225 280 324
#
# _framework density 19.029391
#
# number of rings (size 3 to 8) (size 9 to 14) (size 15 to 20)
#    0.000    2.385    0.000    4.154    0.000    8.308 
#    1.385    6.154    0.000    2.769    0.000    0.000 
#    0.000    0.000    0.000    0.000    0.000    0.000 
#
# Total GULP energy -644842.035055 kJ/mol
# GULP energy per Si atom -12400.808366 kJ/mol
# Density = 1.898608 g / cm^3
# Si number density = 19.029391 Si / 1000 Ang^3
#
#
#
# Elastic Constant Matrix: (Units=GPa)
#
#
# Indices 1 2 3 4 5 6 
#
# 1 75.8476 55.5651 50.0722 0.0000 0.0000 0.0000
# 2 55.5651 100.8106 55.2658 0.0000 0.0000 0.0000
# 3 50.0722 55.2658 89.6596 0.0000 0.0000 0.0000
# 4 0.0000 0.0000 0.0000 19.9808 0.0000 0.0000
# 5 0.0000 0.0000 0.0000 0.0000 -134.6577 0.0000
# 6 0.0000 0.0000 0.0000 0.0000 0.0000 29.3980
#
#
#
# Elastic Compliance Matrix: (Units=1/GPa)
#
#
# Indices 1 2 3 4 5 6 
#
# 1 0.025811 -0.009552 -0.008527 0.000000 0.000000 0.000000
# 2 -0.009552 0.018517 -0.006079 0.000000 0.000000 0.000000
# 3 -0.008527 -0.006079 0.019663 0.000000 0.000000 0.000000
# 4 0.000000 0.000000 0.000000 0.050048 0.000000 0.000000
# 5 0.000000 0.000000 0.000000 0.000000 -0.007426 0.000000
# 6 0.000000 0.000000 0.000000 0.000000 0.000000 0.034016
#
#
# Mechanical properties :
#
#
# Convention : Reuss Voigt Hill
#
# Bulk Modulus (GPa) = 63.79866 65.34711 64.57289
# Shear Modulus (GPa) = 25.75045 -10.02813 7.86116
#
# Velocity S-wave (km/s) = 3.68257 -2.29810 2.03471
# Velocity P-wave (km/s) = 7.18894 5.23192 6.28705
#
# Compressibility (1/GPa) = 0.01567431
#
# Stress axis : x y z
#
# Youngs Moduli (GPa) = 38.74254 54.00302 50.85776
#
# Poissons Ratio (x) = 0.51585 0.43366
# Poissons Ratio (y) = 0.37008 0.30919
# Poissons Ratio (z) = 0.33036 0.32831
#
# Static dielectric constant tensor:
#      x y z
#    x 3.382490 0.000000 0.000000 
#    y 0.000000 3.604860 0.000000 
#    z 0.000000 0.000000 3.337230 
# 
# 
# High freq. dielectric constant tensor:
#      x y z
#    x 1.730520 0.000000 0.000000 
#    y 0.000000 1.753040 0.000000 
#    z 0.000000 0.000000 1.727620 
# 
# From -- ./inp_files/12741.got.cif
#   From: 2010.03.12/outbox.cif.g09.slc.cpg/sg65_7_cif.got.tgz:12741.got - 2010.04.10 20:52:16.
