data_PCOD8274448
_publ_section_title
;
Structure prediction by ZEFSAII (Michael W. Deem and Ramdas Pophale) SiO2 
 PCOD8274448
Probable space group: C M M M
;
_chemical_formula_sum "Si O2"
_cell_formula_units_Z 112
_cell_length_a 24.708736
_cell_length_b 17.072707
_cell_length_c 13.872375
_cell_angle_alpha 90.000000
_cell_angle_beta 90.000000
_cell_angle_gamma 90.000000
_cell_volume 5851.992172
_symmetry_space_group_name_H-M "C M M M"
_symmetry_group_IT_number 65
_symmetry_cell_setting 'orthorhombic'
loop_
_space_group_symop_operation_xyz
x,y,z
-x,-y,z
x,-y,-z
-x,y,-z
-x,-y,-z
x,y,-z
-x,y,z
x,-y,z
1/2+x,1/2+y,z
1/2-x,1/2-y,z
1/2+x,1/2-y,-z
1/2-x,1/2+y,-z
1/2-x,1/2-y,-z
1/2+x,1/2+y,-z
1/2-x,1/2+y,z
1/2+x,1/2-y,z
loop_
_atom_site_type_symbol
_atom_site_label
_atom_site_fract_x
_atom_site_fract_y
_atom_site_fract_z
Si Si1 0.562077 0.155543 0.109706
Si Si2 0.662848 0.591790 0.231346
Si Si3 0.060352 0.201433 0.237303
Si Si4 0.208691 0.813762 0.394413
Si Si5 0.253272 0.157575 0.109728
Si Si6 0.150836 0.589425 0.763262
Si Si7 0.889119 0.297508 0.393505
O O1 0.500000 0.129879 0.121737
O O2 0.570926 0.245238 0.143323
O O3 0.597308 0.095286 0.171606
O O4 0.581544 0.150853 0.000000
O O5 0.652248 0.500000 0.229575
O O6 0.604322 0.632668 0.237962
O O7 0.701377 0.613418 0.322407
O O8 0.695276 0.619560 0.136762
O O9 0.062954 0.260865 0.328876
O O10 0.000000 0.164411 0.235606
O O11 0.229704 0.842755 0.500000
O O12 0.250000 0.750000 0.349636
O O13 0.151394 0.773713 0.407359
O O14 0.250000 0.250000 0.120770
O O15 0.299681 0.128047 0.180539
O O16 0.266702 0.133093 0.000000
O O17 0.164819 0.500000 0.741490
O O18 0.140803 0.631041 0.660554
O O19 0.909728 0.324832 0.500000
#
# Coordination Sequence:
#
# PCOD8274448 Si02
#       7
#    16  16  16  16  16  16  16
#     4   9  18  34  56  78 101 136 182 227 268 314
#     4  11  22  34  52  80 112 141 173 222 282 335
#     4   9  19  36  56  78 105 140 186 230 267 321
#     4   9  17  32  54  75  98 133 175 216 258 309
#     4  11  23  39  58  77 104 146 191 231 272 325
#     4  11  22  34  52  81 115 145 176 220 276 335
#     4   9  18  33  54  78 104 138 180 221 259 308
#
# _framework density 19.138781999999999
#
# number of rings (size 3 to 8) (size 9 to 14) (size 15 to 20)
#    0.000    2.143    0.000    4.714    0.000    5.143 
#    0.000    0.714    0.000    4.286    0.000   11.000 
#    0.000    0.000    0.000    0.000    0.000    0.000 
#
# Total GULP energy -694215.174538 kJ/mol
# GULP energy per Si atom -12396.699545 kJ/mol
# Density = 1.909522 g / cm^3
# Si number density = 19.138782 Si / 1000 Ang^3
#
#
#
# Elastic Constant Matrix: (Units=GPa)
#
#
# Indices 1 2 3 4 5 6 
#
# 1 82.6235 28.5005 20.8553 0.0000 0.0000 0.0000
# 2 28.5005 100.4391 35.2771 0.0000 0.0000 0.0000
# 3 20.8553 35.2771 110.5103 0.0000 0.0000 0.0000
# 4 0.0000 0.0000 0.0000 7.8629 0.0000 0.0000
# 5 0.0000 0.0000 0.0000 0.0000 21.3503 0.0000
# 6 0.0000 0.0000 0.0000 0.0000 0.0000 22.4875
#
#
#
# Elastic Compliance Matrix: (Units=1/GPa)
#
#
# Indices 1 2 3 4 5 6 
#
# 1 0.013636 -0.003340 -0.001507 0.000000 0.000000 0.000000
# 2 -0.003340 0.012032 -0.003210 0.000000 0.000000 0.000000
# 3 -0.001507 -0.003210 0.010358 0.000000 0.000000 0.000000
# 4 0.000000 0.000000 0.000000 0.127180 0.000000 0.000000
# 5 0.000000 0.000000 0.000000 0.000000 0.046838 0.000000
# 6 0.000000 0.000000 0.000000 0.000000 0.000000 0.044469
#
#
# Mechanical properties :
#
#
# Convention : Reuss Voigt Hill
#
# Bulk Modulus (GPa) = 50.22474 51.42651 50.82563
# Shear Modulus (GPa) = 18.03336 24.26947 21.15141
#
# Velocity S-wave (km/s) = 3.07293 3.56487 3.32800
# Velocity P-wave (km/s) = 6.23617 6.62367 6.43284
#
# Compressibility (1/GPa) = 0.01991051
#
# Stress axis : x y z
#
# Youngs Moduli (GPa) = 73.33748 83.11445 96.54204
#
# Poissons Ratio (x) = 0.27759 0.14550
# Poissons Ratio (y) = 0.24494 0.30994
# Poissons Ratio (z) = 0.11053 0.26683
#
# Static dielectric constant tensor:
#      x y z
#    x 3.556990 0.000000 0.000000 
#    y 0.000000 3.193740 0.000000 
#    z 0.000000 0.000000 4.014790 
# 
# 
# High freq. dielectric constant tensor:
#      x y z
#    x 1.745930 0.000000 0.000000 
#    y 0.000000 1.716600 0.000000 
#    z 0.000000 0.000000 1.754290 
# 
# From -- ./inp_files/45808.got.cif
#   From: 2010.03.12/outbox.cif.g09.slc.cpg/sg65_23_cif.got.tgz:45808.got - 2010.04.10 20:52:16.
