data_PCOD8274738
_publ_section_title
;
Structure prediction by ZEFSAII (Michael W. Deem and Ramdas Pophale) SiO2 
 PCOD8274738
Probable space group: C M M M
;
_chemical_formula_sum "Si O2"
_cell_formula_units_Z 64
_cell_length_a 17.491429
_cell_length_b 10.295275
_cell_length_c 19.598712
_cell_angle_alpha 90.000000
_cell_angle_beta 90.000000
_cell_angle_gamma 90.000000
_cell_volume 3529.317863
_symmetry_space_group_name_H-M "C M M M"
_symmetry_group_IT_number 65
_symmetry_cell_setting 'orthorhombic'
loop_
_space_group_symop_operation_xyz
x,y,z
-x,-y,z
x,-y,-z
-x,y,-z
-x,-y,-z
x,y,-z
-x,y,z
x,-y,z
1/2+x,1/2+y,z
1/2-x,1/2-y,z
1/2+x,1/2-y,-z
1/2-x,1/2+y,-z
1/2-x,1/2-y,-z
1/2+x,1/2+y,-z
1/2-x,1/2+y,z
1/2+x,1/2-y,z
loop_
_atom_site_type_symbol
_atom_site_label
_atom_site_fract_x
_atom_site_fract_y
_atom_site_fract_z
Si Si1 0.590735 0.354014 0.927907
Si Si2 0.414385 0.500000 0.580382
Si Si3 0.590599 0.000000 0.578933
Si Si4 0.411007 0.345828 0.780322
Si Si5 0.159964 0.246873 0.353395
O O1 0.500000 0.357903 0.925367
O O2 0.622418 0.500000 0.930488
O O3 0.617324 0.293138 0.855416
O O4 0.617048 0.283908 0.000000
O O5 0.500000 0.500000 0.611732
O O6 0.418235 0.500000 0.500000
O O7 0.370815 0.626422 0.604333
O O8 0.623829 0.875443 0.616130
O O9 0.500000 0.000000 0.585824
O O10 0.615970 0.000000 0.500000
O O11 0.500000 0.314836 0.768613
O O12 0.396299 0.500000 0.772993
O O13 0.361940 0.266307 0.725902
O O14 0.250000 0.250000 0.361180
#
# Coordination Sequence:
#
# PCOD8274738 Si02
#       5
#    16   8   8  16  16
#     4   7  10  18  37  70 105 131 164 217 270 305
#     4  11  23  41  65  85 102 135 184 229 271 326
#     4  11  25  43  59  77 106 143 180 221 271 326
#     4   9  16  29  52  77 104 140 181 223 263 312
#     4  12  24  37  56  83 114 143 177 222 272 324
#
# _framework density 18.133814999999998
#
# number of rings (size 3 to 8) (size 9 to 14) (size 15 to 20)
#    0.000    2.250    1.250    6.000    0.000    5.000 
#    0.000    0.000    0.000    0.750    0.000    0.875 
#    0.000    5.000    0.000    0.000    0.000    0.000 
#
# Total GULP energy -396417.903918 kJ/mol
# GULP energy per Si atom -12388.059497 kJ/mol
# Density = 1.809254 g / cm^3
# Si number density = 18.133815 Si / 1000 Ang^3
#
#
#
# Elastic Constant Matrix: (Units=GPa)
#
#
# Indices 1 2 3 4 5 6 
#
# 1 96.1674 43.6715 53.9548 0.0000 0.0000 0.0000
# 2 43.6715 102.5734 58.8840 0.0000 0.0000 0.0000
# 3 53.9548 58.8840 173.3703 0.0000 0.0000 0.0000
# 4 0.0000 0.0000 0.0000 9.6510 0.0000 0.0000
# 5 0.0000 0.0000 0.0000 0.0000 -2.4235 0.0000
# 6 0.0000 0.0000 0.0000 0.0000 0.0000 19.4745
#
#
#
# Elastic Compliance Matrix: (Units=1/GPa)
#
#
# Indices 1 2 3 4 5 6 
#
# 1 0.013967 -0.004287 -0.002891 0.000000 0.000000 0.000000
# 2 -0.004287 0.013426 -0.003226 0.000000 0.000000 0.000000
# 3 -0.002891 -0.003226 0.007763 0.000000 0.000000 0.000000
# 4 0.000000 0.000000 0.000000 0.103616 0.000000 0.000000
# 5 0.000000 0.000000 0.000000 0.000000 -0.412625 0.000000
# 6 0.000000 0.000000 0.000000 0.000000 0.000000 0.051349
#
#
# Mechanical properties :
#
#
# Convention : Reuss Voigt Hill
#
# Bulk Modulus (GPa) = 69.69013 76.12576 72.90795
# Shear Modulus (GPa) = -25.39205 19.71378 -2.83913
#
# Velocity S-wave (km/s) = -3.74606 3.30074 -1.25262
# Velocity P-wave (km/s) = 4.45015 7.52314 6.18067
#
# Compressibility (1/GPa) = 0.01434923
#
# Stress axis : x y z
#
# Youngs Moduli (GPa) = 71.59602 74.48039 128.81191
#
# Poissons Ratio (x) = 0.31932 0.37235
# Poissons Ratio (y) = 0.30695 0.41554
# Poissons Ratio (z) = 0.20696 0.24027
#
# Static dielectric constant tensor:
#      x y z
#    x 3.134510 0.000000 0.000000 
#    y 0.000000 3.004270 0.000000 
#    z 0.000000 0.000000 4.149500 
# 
# 
# High freq. dielectric constant tensor:
#      x y z
#    x 1.674870 0.000000 0.000000 
#    y 0.000000 1.662520 0.000000 
#    z 0.000000 0.000000 1.739730 
# 
# From -- ./inp_files/63272.got.cif
#   From: 2010.03.12/outbox.cif.g09.slc.cpg/sg65_32_cif.got.tgz:63272.got - 2010.04.10 20:52:16.
