data_PCOD8274021
_publ_section_title
;
Structure prediction by ZEFSAII (Michael W. Deem and Ramdas Pophale) SiO2 
 PCOD8274021
Probable space group: C M M M
;
_chemical_formula_sum "Si O2"
_cell_formula_units_Z 72
_cell_length_a 23.503609
_cell_length_b 15.184705
_cell_length_c 10.008154
_cell_angle_alpha 90.000000
_cell_angle_beta 90.000000
_cell_angle_gamma 90.000000
_cell_volume 3571.863816
_symmetry_space_group_name_H-M "C M M M"
_symmetry_group_IT_number 65
_symmetry_cell_setting 'orthorhombic'
loop_
_space_group_symop_operation_xyz
x,y,z
-x,-y,z
x,-y,-z
-x,y,-z
-x,-y,-z
x,y,-z
-x,y,z
x,-y,z
1/2+x,1/2+y,z
1/2-x,1/2-y,z
1/2+x,1/2-y,-z
1/2-x,1/2+y,-z
1/2-x,1/2-y,-z
1/2+x,1/2+y,-z
1/2-x,1/2+y,z
1/2+x,1/2-y,z
loop_
_atom_site_type_symbol
_atom_site_label
_atom_site_fract_x
_atom_site_fract_y
_atom_site_fract_z
Si Si1 0.437407 0.604476 0.500000
Si Si2 0.937374 0.745971 0.148902
Si Si3 0.249179 0.645701 0.344731
Si Si4 0.646167 0.099543 0.155127
Si Si5 0.871091 0.100693 0.755336
O O1 0.439316 0.500000 0.500000
O O2 0.500000 0.645771 0.500000
O O3 0.403452 0.638632 0.626366
O O4 0.901969 0.665353 0.214113
O O5 0.897611 0.833619 0.136101
O O6 0.000000 0.760999 0.218002
O O7 0.949700 0.715296 0.000000
O O8 0.245586 0.613380 0.500000
O O9 0.250000 0.750000 0.339316
O O10 0.198893 0.607675 0.255493
O O11 0.304533 0.607783 0.271097
O O12 0.622918 0.000000 0.162386
O O13 0.663294 0.122494 0.000000
O O14 0.886581 0.000000 0.792590
#
# Coordination Sequence:
#
# PCOD8274021 Si02
#       5
#     8  16  16  16  16
#     4   9  18  32  51  76 109 149 191 232 271 327
#     4  10  22  40  60  84 116 152 193 245 297 347
#     4  11  22  38  62  90 122 159 198 243 298 356
#     4  10  22  40  63  89 116 154 202 247 297 355
#     4  11  21  35  56  84 116 152 192 232 285 352
#
# _framework density 20.157544000000001
#
# number of rings (size 3 to 8) (size 9 to 14) (size 15 to 20)
#    0.000    1.667    3.333    1.333    0.000    4.889 
#    0.000    3.333    0.000    0.000    0.000    1.556 
#    0.000    0.000    0.000    0.000    0.000    0.000 
#
# Total GULP energy -446079.133667 kJ/mol
# GULP energy per Si atom -12391.087046 kJ/mol
# Density = 2.011166 g / cm^3
# Si number density = 20.157544 Si / 1000 Ang^3
#
#
#
# Elastic Constant Matrix: (Units=GPa)
#
#
# Indices 1 2 3 4 5 6 
#
# 1 158.2117 55.8463 34.9766 0.0000 0.0000 0.0000
# 2 55.8463 129.4206 16.5785 0.0000 0.0000 0.0000
# 3 34.9766 16.5785 51.2720 0.0000 0.0000 0.0000
# 4 0.0000 0.0000 0.0000 -30.7935 0.0000 0.0000
# 5 0.0000 0.0000 0.0000 0.0000 27.1849 0.0000
# 6 0.0000 0.0000 0.0000 0.0000 0.0000 24.7448
#
#
#
# Elastic Compliance Matrix: (Units=1/GPa)
#
#
# Indices 1 2 3 4 5 6 
#
# 1 0.008449 -0.003033 -0.004783 0.000000 0.000000 0.000000
# 2 -0.003033 0.009149 -0.000889 0.000000 0.000000 0.000000
# 3 -0.004783 -0.000889 0.023054 0.000000 0.000000 0.000000
# 4 0.000000 0.000000 0.000000 -0.032474 0.000000 0.000000
# 5 0.000000 0.000000 0.000000 0.000000 0.036785 0.000000
# 6 0.000000 0.000000 0.000000 0.000000 0.000000 0.040413
#
#
# Mechanical properties :
#
#
# Convention : Reuss Voigt Hill
#
# Bulk Modulus (GPa) = 43.02577 61.52301 52.27439
# Shear Modulus (GPa) = 45.23545 19.66078 32.44812
#
# Velocity S-wave (km/s) = 4.74233 3.12646 4.01649
# Velocity P-wave (km/s) = 7.16780 6.60457 6.89194
#
# Compressibility (1/GPa) = 0.02324189
#
# Stress axis : x y z
#
# Youngs Moduli (GPa) = 118.36305 109.29631 43.37629
#
# Poissons Ratio (x) = 0.33149 0.20746
# Poissons Ratio (y) = 0.35899 0.03858
# Poissons Ratio (z) = 0.56610 0.09721
#
# Static dielectric constant tensor:
#      x y z
#    x 4.045490 0.000000 0.000000 
#    y 0.000000 3.615680 0.000000 
#    z 0.000000 0.000000 3.841530 
# 
# 
# High freq. dielectric constant tensor:
#      x y z
#    x 1.793750 0.000000 0.000000 
#    y 0.000000 1.788600 0.000000 
#    z 0.000000 0.000000 1.771450 
# 
# From -- ./inp_files/15757.got.cif
#   From: 2010.03.12/outbox.cif.g09.slc.cpg/sg65_8_cif.got.tgz:15757.got - 2010.04.10 20:52:16.
