data_PCOD8274477
_publ_section_title
;
Structure prediction by ZEFSAII (Michael W. Deem and Ramdas Pophale) SiO2 
 PCOD8274477
Probable space group: C M M M
;
_chemical_formula_sum "Si O2"
_cell_formula_units_Z 96
_cell_length_a 18.996804
_cell_length_b 8.972242
_cell_length_c 30.569610
_cell_angle_alpha 90.000000
_cell_angle_beta 90.000000
_cell_angle_gamma 90.000000
_cell_volume 5210.404244
_symmetry_space_group_name_H-M "C M M M"
_symmetry_group_IT_number 65
_symmetry_cell_setting 'orthorhombic'
loop_
_space_group_symop_operation_xyz
x,y,z
-x,-y,z
x,-y,-z
-x,y,-z
-x,-y,-z
x,y,-z
-x,y,z
x,-y,z
1/2+x,1/2+y,z
1/2-x,1/2-y,z
1/2+x,1/2-y,-z
1/2-x,1/2+y,-z
1/2-x,1/2-y,-z
1/2+x,1/2+y,-z
1/2-x,1/2+y,z
1/2+x,1/2-y,z
loop_
_atom_site_type_symbol
_atom_site_label
_atom_site_fract_x
_atom_site_fract_y
_atom_site_fract_z
Si Si1 0.826102 0.323494 0.120316
Si Si2 0.578322 0.176901 0.547921
Si Si3 0.322976 0.824416 0.376704
Si Si4 0.920945 0.676929 0.200926
Si Si5 0.176413 0.324959 0.721644
Si Si6 0.419914 0.328249 0.051048
O O1 0.816423 0.500000 0.120744
O O2 0.750000 0.250000 0.124162
O O3 0.874445 0.266237 0.160322
O O4 0.864749 0.275732 0.075915
O O5 0.609019 0.222729 0.500000
O O6 0.500000 0.242007 0.552737
O O7 0.623318 0.243481 0.587811
O O8 0.576157 0.000000 0.551697
O O9 0.250000 0.750000 0.387971
O O10 0.347679 0.782728 0.327575
O O11 0.314634 0.000000 0.381855
O O12 0.925393 0.500000 0.200220
O O13 0.884221 0.732596 0.245695
O O14 0.000000 0.744400 0.198258
O O15 0.188175 0.500000 0.726817
O O16 0.250000 0.250000 0.734240
O O17 0.500000 0.283938 0.063583
O O18 0.406000 0.500000 0.063298
O O19 0.407266 0.301623 0.000000
#
# Coordination Sequence:
#
# PCOD8274477 Si02
#       6
#    16  16  16  16  16  16
#     4  11  22  35  53  76 103 135 169 205 245 290
#     4   8  14  25  41  62  88 116 149 192 235 272
#     4   9  17  28  44  67  91 118 152 188 230 279
#     4   9  18  32  50  73  98 123 156 200 245 285
#     4   9  17  30  48  68  93 123 153 189 232 280
#     4   9  19  37  59  81 106 135 166 203 247 292
#
# _framework density 18.424672999999999
#
# number of rings (size 3 to 8) (size 9 to 14) (size 15 to 20)
#    0.000    2.833    0.000    2.500    0.000    2.667 
#    0.000    5.000    0.000    3.000    0.000    5.833 
#    0.000    0.000    0.000    0.000    0.000    0.000 
#
# Total GULP energy -595041.756219 kJ/mol
# GULP energy per Si atom -12396.703255 kJ/mol
# Density = 1.838274 g / cm^3
# Si number density = 18.424673 Si / 1000 Ang^3
#
#
#
# Elastic Constant Matrix: (Units=GPa)
#
#
# Indices 1 2 3 4 5 6 
#
# 1 153.9353 36.4298 97.5625 0.0000 0.0000 0.0000
# 2 36.4298 30.8659 29.9359 0.0000 0.0000 0.0000
# 3 97.5625 29.9359 134.9325 0.0000 0.0000 0.0000
# 4 0.0000 0.0000 0.0000 16.1525 0.0000 0.0000
# 5 0.0000 0.0000 0.0000 0.0000 41.5960 0.0000
# 6 0.0000 0.0000 0.0000 0.0000 0.0000 21.7043
#
#
#
# Elastic Compliance Matrix: (Units=1/GPa)
#
#
# Indices 1 2 3 4 5 6 
#
# 1 0.013446 -0.008207 -0.007902 0.000000 0.000000 0.000000
# 2 -0.008207 0.046289 -0.004336 0.000000 0.000000 0.000000
# 3 -0.007902 -0.004336 0.014086 0.000000 0.000000 0.000000
# 4 0.000000 0.000000 0.000000 0.061910 0.000000 0.000000
# 5 0.000000 0.000000 0.000000 0.000000 0.024041 0.000000
# 6 0.000000 0.000000 0.000000 0.000000 0.000000 0.046074
#
#
# Mechanical properties :
#
#
# Convention : Reuss Voigt Hill
#
# Bulk Modulus (GPa) = 30.36398 71.95446 51.15922
# Shear Modulus (GPa) = 19.40142 26.27759 22.83951
#
# Velocity S-wave (km/s) = 3.24854 3.78063 3.52464
# Velocity P-wave (km/s) = 5.53051 7.62861 6.66266
#
# Compressibility (1/GPa) = 0.03293376
#
# Stress axis : x y z
#
# Youngs Moduli (GPa) = 74.36954 21.60317 70.99091
#
# Poissons Ratio (x) = 0.17729 0.56094
# Poissons Ratio (y) = 0.61033 0.30781
# Poissons Ratio (z) = 0.58764 0.09367
#
# Static dielectric constant tensor:
#      x y z
#    x 3.606620 0.000000 0.000000 
#    y 0.000000 3.019680 0.000000 
#    z 0.000000 0.000000 3.673310 
# 
# 
# High freq. dielectric constant tensor:
#      x y z
#    x 1.715550 0.000000 0.000000 
#    y 0.000000 1.675910 0.000000 
#    z 0.000000 0.000000 1.729870 
# 
# From -- ./inp_files/75325.got.cif
#   From: 2010.03.12/outbox.cif.g09.slc.cpg/sg65_38_cif.got.tgz:75325.got - 2010.04.10 20:52:16.
