data_PCOD8274052
_publ_section_title
;
Structure prediction by ZEFSAII (Michael W. Deem and Ramdas Pophale) SiO2 
 PCOD8274052
Probable space group: C M M M
;
_chemical_formula_sum "Si O2"
_cell_formula_units_Z 72
_cell_length_a 9.783250
_cell_length_b 28.275012
_cell_length_c 13.434636
_cell_angle_alpha 90.000000
_cell_angle_beta 90.000000
_cell_angle_gamma 90.000000
_cell_volume 3716.309312
_symmetry_space_group_name_H-M "C M M M"
_symmetry_group_IT_number 65
_symmetry_cell_setting 'orthorhombic'
loop_
_space_group_symop_operation_xyz
x,y,z
-x,-y,z
x,-y,-z
-x,y,-z
-x,-y,-z
x,y,-z
-x,y,z
x,-y,z
1/2+x,1/2+y,z
1/2-x,1/2-y,z
1/2+x,1/2-y,-z
1/2-x,1/2+y,-z
1/2-x,1/2-y,-z
1/2+x,1/2+y,-z
1/2-x,1/2+y,z
1/2+x,1/2-y,z
loop_
_atom_site_type_symbol
_atom_site_label
_atom_site_fract_x
_atom_site_fract_y
_atom_site_fract_z
Si Si1 0.159606 0.088169 0.615649
Si Si2 0.155312 0.552361 0.116754
Si Si3 0.000000 0.800691 0.112795
Si Si4 0.843118 0.500000 0.617964
Si Si5 0.000000 0.311305 0.116802
Si Si6 0.739444 0.357179 0.206331
O O1 0.182212 0.099535 0.500000
O O2 0.258954 0.046050 0.653195
O O3 0.207188 0.134753 0.676688
O O4 0.000000 0.075476 0.636197
O O5 0.182143 0.500000 0.164555
O O6 0.263189 0.590512 0.157241
O O7 0.000000 0.568716 0.141551
O O8 0.175745 0.548219 0.000000
O O9 0.000000 0.744666 0.121132
O O10 0.130623 0.821704 0.163882
O O11 0.000000 0.817367 0.000000
O O12 0.847551 0.500000 0.500000
O O13 0.000000 0.500000 0.659958
O O14 0.877544 0.331045 0.181346
O O15 0.000000 0.328449 0.000000
#
# Coordination Sequence:
#
# PCOD8274052 Si02
#       6
#    16  16   8   8   8  16
#     4  10  22  41  61  86 127 172 210 255 310 366
#     4   9  18  33  54  83 122 162 196 232 290 370
#     4  11  24  42  64  92 123 154 204 266 317 375
#     4   9  19  35  61  93 122 159 214 267 302 349
#     4  11  24  42  66  92 123 160 200 258 327 379
#     4  12  22  38  63  92 119 163 209 253 307 379
#
# _framework density 19.37406
#
# number of rings (size 3 to 8) (size 9 to 14) (size 15 to 20)
#    0.000    1.667    2.222    3.667    3.111    3.111 
#    0.000    0.556    0.000    6.000    0.000    0.000 
#    0.000    0.000    0.000    0.000    0.000    0.000 
#
# Total GULP energy -446234.290550 kJ/mol
# GULP energy per Si atom -12395.396960 kJ/mol
# Density = 1.932996 g / cm^3
# Si number density = 19.374060 Si / 1000 Ang^3
#
#
#
# Elastic Constant Matrix: (Units=GPa)
#
#
# Indices 1 2 3 4 5 6 
#
# 1 143.4030 47.4268 51.1117 0.0000 0.0000 0.0000
# 2 47.4268 87.2582 49.4951 0.0000 0.0000 0.0000
# 3 51.1117 49.4951 84.7592 0.0000 0.0000 0.0000
# 4 0.0000 0.0000 0.0000 30.9892 0.0000 0.0000
# 5 0.0000 0.0000 0.0000 0.0000 26.9140 0.0000
# 6 0.0000 0.0000 0.0000 0.0000 0.0000 -42.1856
#
#
#
# Elastic Compliance Matrix: (Units=1/GPa)
#
#
# Indices 1 2 3 4 5 6 
#
# 1 0.009321 -0.002808 -0.003981 0.000000 0.000000 0.000000
# 2 -0.002808 0.017982 -0.008807 0.000000 0.000000 0.000000
# 3 -0.003981 -0.008807 0.019342 0.000000 0.000000 0.000000
# 4 0.000000 0.000000 0.000000 0.032269 0.000000 0.000000
# 5 0.000000 0.000000 0.000000 0.000000 0.037155 0.000000
# 6 0.000000 0.000000 0.000000 0.000000 0.000000 -0.023705
#
#
# Mechanical properties :
#
#
# Convention : Reuss Voigt Hill
#
# Bulk Modulus (GPa) = 64.71587 67.94306 66.32946
# Shear Modulus (GPa) = 38.84739 14.30262 26.57500
#
# Velocity S-wave (km/s) = 4.48272 2.72000 3.70764
# Velocity P-wave (km/s) = 7.76330 6.70893 7.25530
#
# Compressibility (1/GPa) = 0.01545216
#
# Stress axis : x y z
#
# Youngs Moduli (GPa) = 107.28533 55.61026 51.70125
#
# Poissons Ratio (x) = 0.15615 0.20582
# Poissons Ratio (y) = 0.30126 0.45536
# Poissons Ratio (z) = 0.42710 0.48979
#
# Static dielectric constant tensor:
#      x y z
#    x 3.513520 0.000000 0.000000 
#    y 0.000000 3.627970 0.000000 
#    z 0.000000 0.000000 3.608970 
# 
# 
# High freq. dielectric constant tensor:
#      x y z
#    x 1.756520 0.000000 0.000000 
#    y 0.000000 1.749720 0.000000 
#    z 0.000000 0.000000 1.759810 
# 
# From -- ./inp_files/37080.got.cif
#   From: 2010.03.12/outbox.cif.g09.slc.cpg/sg65_19_cif.got.tgz:37080.got - 2010.04.10 20:52:16.
