data_PCOD8274995
_publ_section_title
;
Structure prediction by ZEFSAII (Michael W. Deem and Ramdas Pophale) SiO2 
 PCOD8274995
Probable space group: C M M M
;
_chemical_formula_sum "Si O2"
_cell_formula_units_Z 96
_cell_length_a 25.457229
_cell_length_b 9.351147
_cell_length_c 25.100753
_cell_angle_alpha 90.000000
_cell_angle_beta 90.000000
_cell_angle_gamma 90.000000
_cell_volume 5975.341949
_symmetry_space_group_name_H-M "C M M M"
_symmetry_group_IT_number 65
_symmetry_cell_setting 'orthorhombic'
loop_
_space_group_symop_operation_xyz
x,y,z
-x,-y,z
x,-y,-z
-x,y,-z
-x,-y,-z
x,y,-z
-x,y,z
x,-y,z
1/2+x,1/2+y,z
1/2-x,1/2-y,z
1/2+x,1/2-y,-z
1/2-x,1/2+y,-z
1/2-x,1/2-y,-z
1/2+x,1/2+y,-z
1/2-x,1/2+y,z
1/2+x,1/2-y,z
loop_
_atom_site_type_symbol
_atom_site_label
_atom_site_fract_x
_atom_site_fract_y
_atom_site_fract_z
Si Si1 0.197007 0.164492 0.443804
Si Si2 0.698840 0.333748 0.938848
Si Si3 0.600323 0.665964 0.130137
Si Si4 0.000000 0.661859 0.744371
Si Si5 0.601236 0.333541 0.745961
Si Si6 0.804479 0.832562 0.672056
Si Si7 0.000000 0.661261 0.870992
O O1 0.165049 0.196891 0.500000
O O2 0.250000 0.250000 0.446127
O O3 0.169885 0.200714 0.386915
O O4 0.213025 0.000000 0.442768
O O5 0.710337 0.500000 0.930585
O O6 0.750000 0.250000 0.919168
O O7 0.650609 0.282317 0.902827
O O8 0.685466 0.297395 0.000000
O O9 0.587608 0.500000 0.120022
O O10 0.611457 0.696232 0.192005
O O11 0.551386 0.756684 0.108159
O O12 0.051736 0.744148 0.723952
O O13 0.000000 0.663063 0.807678
O O14 0.000000 0.500000 0.722109
O O15 0.589516 0.500000 0.735091
O O16 0.652900 0.280331 0.714890
O O17 0.750000 0.750000 0.681407
O O18 0.792596 0.000000 0.679421
O O19 0.000000 0.500000 0.893398
#
# Coordination Sequence:
#
# PCOD8274995 Si02
#       7
#    16  16  16   8  16  16   8
#     4   8  13  22  36  53  75 105 138 168 198 235
#     4   9  18  32  48  65  85 111 144 177 205 238
#     4   9  17  30  47  64  84 112 141 168 205 252
#     4   9  17  29  45  64  83 106 140 177 208 241
#     4   9  17  29  44  62  85 112 139 168 206 250
#     4   9  17  27  39  59  87 114 138 167 204 245
#     4   9  17  29  46  68  89 107 133 172 212 247
#
# _framework density 16.066026999999998
#
# number of rings (size 3 to 8) (size 9 to 14) (size 15 to 20)
#    0.000    3.167    0.000    0.500    0.000    4.000 
#    0.000    0.417    0.000    2.500    0.000    0.583 
#    0.000    4.667    0.000    0.000    0.000    0.000 
#
# Total GULP energy -594736.484769 kJ/mol
# GULP energy per Si atom -12390.343433 kJ/mol
# Density = 1.602946 g / cm^3
# Si number density = 16.066027 Si / 1000 Ang^3
#
#
#
# Elastic Constant Matrix: (Units=GPa)
#
#
# Indices 1 2 3 4 5 6 
#
# 1 137.6694 60.2961 65.9502 0.0000 0.0000 0.0000
# 2 60.2961 61.8410 35.1495 0.0000 0.0000 0.0000
# 3 65.9502 35.1495 72.0250 0.0000 0.0000 0.0000
# 4 0.0000 0.0000 0.0000 14.7667 0.0000 0.0000
# 5 0.0000 0.0000 0.0000 0.0000 2.6500 0.0000
# 6 0.0000 0.0000 0.0000 0.0000 0.0000 28.2048
#
#
#
# Elastic Compliance Matrix: (Units=1/GPa)
#
#
# Indices 1 2 3 4 5 6 
#
# 1 0.016779 -0.010555 -0.010213 0.000000 0.000000 0.000000
# 2 -0.010555 0.029017 -0.004496 0.000000 0.000000 0.000000
# 3 -0.010213 -0.004496 0.025430 0.000000 0.000000 0.000000
# 4 0.000000 0.000000 0.000000 0.067720 0.000000 0.000000
# 5 0.000000 0.000000 0.000000 0.000000 0.377354 0.000000
# 6 0.000000 0.000000 0.000000 0.000000 0.000000 0.035455
#
#
# Mechanical properties :
#
#
# Convention : Reuss Voigt Hill
#
# Bulk Modulus (GPa) = 48.31367 66.03632 57.17500
# Shear Modulus (GPa) = 8.20772 16.46697 12.33734
#
# Velocity S-wave (km/s) = 2.26271 3.20497 2.77413
# Velocity P-wave (km/s) = 6.07978 7.40865 6.77686
#
# Compressibility (1/GPa) = 0.02069807
#
# Stress axis : x y z
#
# Youngs Moduli (GPa) = 59.59795 34.46200 39.32408
#
# Poissons Ratio (x) = 0.36375 0.40161
# Poissons Ratio (y) = 0.62906 0.17681
# Poissons Ratio (z) = 0.60866 0.15495
#
# Static dielectric constant tensor:
#      x y z
#    x 2.890410 0.000000 0.000000 
#    y 0.000000 3.050970 0.000000 
#    z 0.000000 0.000000 3.335610 
# 
# 
# High freq. dielectric constant tensor:
#      x y z
#    x 1.593880 0.000000 0.000000 
#    y 0.000000 1.619360 0.000000 
#    z 0.000000 0.000000 1.609770 
# 
# From -- ./inp_files/75713.got.cif
#   From: 2010.03.12/outbox.cif.g09.slc.cpg/sg65_38_cif.got.tgz:75713.got - 2010.04.10 20:52:16.
