data_PCOD8274504
_publ_section_title
;
Structure prediction by ZEFSAII (Michael W. Deem and Ramdas Pophale) SiO2 
 PCOD8274504
Probable space group: C M M M
;
_chemical_formula_sum "Si O2"
_cell_formula_units_Z 104
_cell_length_a 29.720819
_cell_length_b 9.099127
_cell_length_c 23.185432
_cell_angle_alpha 90.000000
_cell_angle_beta 90.000000
_cell_angle_gamma 90.000000
_cell_volume 6270.117678
_symmetry_space_group_name_H-M "C M M M"
_symmetry_group_IT_number 65
_symmetry_cell_setting 'orthorhombic'
loop_
_space_group_symop_operation_xyz
x,y,z
-x,-y,z
x,-y,-z
-x,y,-z
-x,-y,-z
x,y,-z
-x,y,z
x,-y,z
1/2+x,1/2+y,z
1/2-x,1/2-y,z
1/2+x,1/2-y,-z
1/2-x,1/2+y,-z
1/2-x,1/2-y,-z
1/2+x,1/2+y,-z
1/2-x,1/2+y,z
1/2+x,1/2-y,z
loop_
_atom_site_type_symbol
_atom_site_label
_atom_site_fract_x
_atom_site_fract_y
_atom_site_fract_z
Si Si1 0.621301 0.334300 0.270749
Si Si2 0.551259 0.673903 0.175761
Si Si3 0.418466 0.339415 0.604731
Si Si4 0.295038 0.824620 0.320825
Si Si5 0.446681 0.164671 0.063034
Si Si6 0.500000 0.171490 0.563295
Si Si7 0.322102 0.670413 0.564775
O O1 0.637418 0.500000 0.254552
O O2 0.587147 0.268505 0.222920
O O3 0.593438 0.339666 0.328777
O O4 0.664325 0.229434 0.279910
O O5 0.500000 0.731786 0.188366
O O6 0.550626 0.500000 0.175456
O O7 0.569807 0.728952 0.113969
O O8 0.437272 0.500000 0.587143
O O9 0.455797 0.217388 0.597043
O O10 0.375454 0.300852 0.565725
O O11 0.250000 0.750000 0.295650
O O12 0.299195 0.774203 0.387774
O O13 0.292079 0.000000 0.318613
O O14 0.500000 0.165128 0.061311
O O15 0.429011 0.000000 0.075432
O O16 0.428646 0.218241 0.000000
O O17 0.500000 0.244495 0.500000
O O18 0.500000 0.000000 0.558431
O O19 0.304616 0.707806 0.500000
O O20 0.312104 0.500000 0.580882
#
# Coordination Sequence:
#
# PCOD8274504 Si02
#       7
#    16  16  16  16  16   8  16
#     4   9  19  35  52  70  95 123 156 197 239 282
#     4   9  17  28  46  71  98 130 166 203 238 273
#     4   9  18  32  50  65  82 115 153 188 228 278
#     4  11  22  36  54  73  95 121 152 189 237 289
#     4   8  14  25  40  60  92 133 170 202 236 272
#     4  11  23  33  41  59  87 115 148 193 236 273
#     4   9  18  34  54  73  92 114 144 184 232 287
#
# _framework density 16.586611000000001
#
# number of rings (size 3 to 8) (size 9 to 14) (size 15 to 20)
#    0.000    2.692    0.000    3.462    1.077    5.231 
#    0.000    1.538    0.000    0.000    0.000    0.000 
#    0.000    0.615    0.000    2.000    0.000    2.923 
#
# Total GULP energy -644476.370243 kJ/mol
# GULP energy per Si atom -12393.776351 kJ/mol
# Density = 1.654886 g / cm^3
# Si number density = 16.586611 Si / 1000 Ang^3
#
#
#
# Elastic Constant Matrix: (Units=GPa)
#
#
# Indices 1 2 3 4 5 6 
#
# 1 84.6969 45.6985 40.4547 0.0000 0.0000 0.0000
# 2 45.6985 74.8283 28.1377 0.0000 0.0000 0.0000
# 3 40.4547 28.1377 89.2538 0.0000 0.0000 0.0000
# 4 0.0000 0.0000 0.0000 24.8387 0.0000 0.0000
# 5 0.0000 0.0000 0.0000 0.0000 9.5730 0.0000
# 6 0.0000 0.0000 0.0000 0.0000 0.0000 23.1531
#
#
#
# Elastic Compliance Matrix: (Units=1/GPa)
#
#
# Indices 1 2 3 4 5 6 
#
# 1 0.020038 -0.010009 -0.005927 0.000000 0.000000 0.000000
# 2 -0.010009 0.020160 -0.001819 0.000000 0.000000 0.000000
# 3 -0.005927 -0.001819 0.014464 0.000000 0.000000 0.000000
# 4 0.000000 0.000000 0.000000 0.040260 0.000000 0.000000
# 5 0.000000 0.000000 0.000000 0.000000 0.104460 0.000000
# 6 0.000000 0.000000 0.000000 0.000000 0.000000 0.043191
#
#
# Mechanical properties :
#
#
# Convention : Reuss Voigt Hill
#
# Bulk Modulus (GPa) = 52.21231 53.04010 52.62620
# Shear Modulus (GPa) = 17.57673 20.47884 19.02778
#
# Velocity S-wave (km/s) = 3.25883 3.51759 3.39068
# Velocity P-wave (km/s) = 6.76068 6.96742 6.86483
#
# Compressibility (1/GPa) = 0.01915257
#
# Stress axis : x y z
#
# Youngs Moduli (GPa) = 49.90511 49.60209 69.13730
#
# Poissons Ratio (x) = 0.49645 0.40978
# Poissons Ratio (y) = 0.49949 0.12577
# Poissons Ratio (z) = 0.29579 0.09024
#
# Static dielectric constant tensor:
#      x y z
#    x 3.043410 0.000000 0.000000 
#    y 0.000000 3.102450 0.000000 
#    z 0.000000 0.000000 3.288630 
# 
# 
# High freq. dielectric constant tensor:
#      x y z
#    x 1.615030 0.000000 0.000000 
#    y 0.000000 1.634440 0.000000 
#    z 0.000000 0.000000 1.624600 
# 
# From -- ./inp_files/68520.got.cif
#   From: 2010.03.12/outbox.cif.g09.slc.cpg/sg65_35_cif.got.tgz:68520.got - 2010.04.10 20:52:16.
