data_PCOD8274648
_publ_section_title
;
Structure prediction by ZEFSAII (Michael W. Deem and Ramdas Pophale) SiO2 
 PCOD8274648
Probable space group: C M M M
;
_chemical_formula_sum "Si O2"
_cell_formula_units_Z 88
_cell_length_a 9.573162
_cell_length_b 30.098561
_cell_length_c 17.419524
_cell_angle_alpha 90.000000
_cell_angle_beta 90.000000
_cell_angle_gamma 90.000000
_cell_volume 5019.233781
_symmetry_space_group_name_H-M "C M M M"
_symmetry_group_IT_number 65
_symmetry_cell_setting 'orthorhombic'
loop_
_space_group_symop_operation_xyz
x,y,z
-x,-y,z
x,-y,-z
-x,y,-z
-x,-y,-z
x,y,-z
-x,y,z
x,-y,z
1/2+x,1/2+y,z
1/2-x,1/2-y,z
1/2+x,1/2-y,-z
1/2-x,1/2+y,-z
1/2-x,1/2-y,-z
1/2+x,1/2+y,-z
1/2-x,1/2+y,z
1/2+x,1/2-y,z
loop_
_atom_site_type_symbol
_atom_site_label
_atom_site_fract_x
_atom_site_fract_y
_atom_site_fract_z
Si Si1 0.844061 0.614152 0.190598
Si Si2 0.665744 0.791759 0.744661
Si Si3 0.338158 0.450051 0.910323
Si Si4 0.656466 0.080095 0.639415
Si Si5 0.834623 0.325621 0.583571
Si Si6 0.840640 0.000000 0.590317
O O1 0.795703 0.665168 0.204253
O O2 0.743580 0.588654 0.132903
O O3 0.844586 0.589093 0.270753
O O4 0.000000 0.613805 0.155514
O O5 0.500000 0.783082 0.746835
O O6 0.750000 0.750000 0.779350
O O7 0.721443 0.797958 0.656510
O O8 0.500000 0.444644 0.889722
O O9 0.288444 0.500000 0.886540
O O10 0.312131 0.443125 0.000000
O O11 0.500000 0.065886 0.613085
O O12 0.708253 0.123042 0.592668
O O13 0.768022 0.042739 0.624407
O O14 0.777792 0.308503 0.500000
O O15 0.000000 0.322613 0.586142
O O16 0.826218 0.000000 0.500000
O O17 0.000000 0.000000 0.617856
#
# Coordination Sequence:
#
# PCOD8274648 Si02
#       6
#    16  16  16  16  16   8
#     4   9  19  34  52  76 103 130 166 210 247 287
#     4   9  18  32  49  72 100 128 164 209 253 298
#     4   9  19  35  54  79 110 139 165 194 236 296
#     4   9  18  32  49  67  88 123 169 208 243 292
#     4   8  14  27  47  67  89 121 162 207 251 293
#     4  11  23  33  41  61  94 127 162 209 257 294
#
# _framework density 17.532558000000002
#
# number of rings (size 3 to 8) (size 9 to 14) (size 15 to 20)
#    0.000    3.000    0.000    3.545    1.273    4.000 
#    0.000    3.636    0.000    1.636    0.000    0.000 
#    0.000    0.000    0.000    0.000    0.000    0.000 
#
# Total GULP energy -545291.942102 kJ/mol
# GULP energy per Si atom -12392.998684 kJ/mol
# Density = 1.749265 g / cm^3
# Si number density = 17.532558 Si / 1000 Ang^3
#
#
#
# Elastic Constant Matrix: (Units=GPa)
#
#
# Indices 1 2 3 4 5 6 
#
# 1 75.4758 69.8028 34.6484 0.0000 0.0000 0.0000
# 2 69.8028 133.2620 45.4298 0.0000 0.0000 0.0000
# 3 34.6484 45.4298 58.3871 0.0000 0.0000 0.0000
# 4 0.0000 0.0000 0.0000 12.2589 0.0000 0.0000
# 5 0.0000 0.0000 0.0000 0.0000 25.9120 0.0000
# 6 0.0000 0.0000 0.0000 0.0000 0.0000 32.6789
#
#
#
# Elastic Compliance Matrix: (Units=1/GPa)
#
#
# Indices 1 2 3 4 5 6 
#
# 1 0.027649 -0.012098 -0.006994 0.000000 0.000000 0.000000
# 2 -0.012098 0.015507 -0.004886 0.000000 0.000000 0.000000
# 3 -0.006994 -0.004886 0.025079 0.000000 0.000000 0.000000
# 4 0.000000 0.000000 0.000000 0.081573 0.000000 0.000000
# 5 0.000000 0.000000 0.000000 0.000000 0.038592 0.000000
# 6 0.000000 0.000000 0.000000 0.000000 0.000000 0.030601
#
#
# Mechanical properties :
#
#
# Convention : Reuss Voigt Hill
#
# Bulk Modulus (GPa) = 49.31444 62.98745 56.15095
# Shear Modulus (GPa) = 18.26699 21.98622 20.12660
#
# Velocity S-wave (km/s) = 3.23133 3.54506 3.39183
# Velocity P-wave (km/s) = 6.48926 7.26365 6.88734
#
# Compressibility (1/GPa) = 0.02027804
#
# Stress axis : x y z
#
# Youngs Moduli (GPa) = 36.16775 64.48794 39.87324
#
# Poissons Ratio (x) = 0.78019 0.27888
# Poissons Ratio (y) = 0.43756 0.19483
# Poissons Ratio (z) = 0.25297 0.31510
#
# Static dielectric constant tensor:
#      x y z
#    x 3.144380 0.000000 0.000000 
#    y 0.000000 3.304260 0.000000 
#    z 0.000000 0.000000 3.176730 
# 
# 
# High freq. dielectric constant tensor:
#      x y z
#    x 1.657810 0.000000 0.000000 
#    y 0.000000 1.679170 0.000000 
#    z 0.000000 0.000000 1.663020 
# 
# From -- ./inp_files/50299.got.cif
#   From: 2010.03.12/outbox.cif.g09.slc.cpg/sg65_26_cif.got.tgz:50299.got - 2010.04.10 20:52:16.
