data_PCOD8274295
_publ_section_title
;
Structure prediction by ZEFSAII (Michael W. Deem and Ramdas Pophale) SiO2 
 PCOD8274295
Probable space group: C M M M
;
_chemical_formula_sum "Si O2"
_cell_formula_units_Z 72
_cell_length_a 17.234531
_cell_length_b 24.190924
_cell_length_c 9.181920
_cell_angle_alpha 90.000000
_cell_angle_beta 90.000000
_cell_angle_gamma 90.000000
_cell_volume 3828.119013
_symmetry_space_group_name_H-M "C M M M"
_symmetry_group_IT_number 65
_symmetry_cell_setting 'orthorhombic'
loop_
_space_group_symop_operation_xyz
x,y,z
-x,-y,z
x,-y,-z
-x,y,-z
-x,-y,-z
x,y,-z
-x,y,z
x,-y,z
1/2+x,1/2+y,z
1/2-x,1/2-y,z
1/2+x,1/2-y,-z
1/2-x,1/2+y,-z
1/2-x,1/2-y,-z
1/2+x,1/2+y,-z
1/2-x,1/2+y,z
1/2+x,1/2-y,z
loop_
_atom_site_type_symbol
_atom_site_label
_atom_site_fract_x
_atom_site_fract_y
_atom_site_fract_z
Si Si1 0.857734 0.139131 0.328044
Si Si2 0.159320 0.260423 0.341171
Si Si3 0.803730 0.636935 0.829551
Si Si4 0.086398 0.434949 0.661581
Si Si5 0.000000 0.936523 0.327054
O O1 0.842762 0.132193 0.500000
O O2 0.882483 0.202922 0.293682
O O3 0.778818 0.126068 0.244496
O O4 0.923926 0.096741 0.272218
O O5 0.127109 0.279114 0.500000
O O6 0.250000 0.250000 0.355182
O O7 0.148623 0.308806 0.223959
O O8 0.857042 0.585538 0.788039
O O9 0.790658 0.641601 0.000000
O O10 0.114976 0.416251 0.500000
O O11 0.085375 0.500000 0.670855
O O12 0.000000 0.411689 0.689284
O O13 0.000000 0.937284 0.500000
O O14 0.000000 0.000000 0.267206
#
# Coordination Sequence:
#
# PCOD8274295 Si02
#       5
#    16  16  16  16   8
#     4   9  18  34  55  78 106 140 183 228 270 315
#     4   8  15  30  51  74 102 135 175 220 262 308
#     4  11  21  32  52  81 112 142 175 215 268 330
#     4   9  19  37  58  77 100 134 176 219 261 309
#     4   9  18  34  57  83 107 135 180 237 282 313
#
# _framework density 18.808191999999998
#
# number of rings (size 3 to 8) (size 9 to 14) (size 15 to 20)
#    0.000    2.778    0.000    4.000    0.000    5.778 
#    2.000    3.889    0.000    0.667    0.000    0.000 
#    0.000    0.000    0.000    0.000    0.000    0.000 
#
# Total GULP energy -446120.309892 kJ/mol
# GULP energy per Si atom -12392.230830 kJ/mol
# Density = 1.876538 g / cm^3
# Si number density = 18.808192 Si / 1000 Ang^3
#
#
#
# Elastic Constant Matrix: (Units=GPa)
#
#
# Indices 1 2 3 4 5 6 
#
# 1 90.1452 63.6906 47.0385 0.0000 0.0000 0.0000
# 2 63.6906 105.5359 37.5372 0.0000 0.0000 0.0000
# 3 47.0385 37.5372 85.4263 0.0000 0.0000 0.0000
# 4 0.0000 0.0000 0.0000 7.0033 0.0000 0.0000
# 5 0.0000 0.0000 0.0000 0.0000 -0.0260 0.0000
# 6 0.0000 0.0000 0.0000 0.0000 0.0000 35.0203
#
#
#
# Elastic Compliance Matrix: (Units=1/GPa)
#
#
# Indices 1 2 3 4 5 6 
#
# 1 0.023011 -0.011118 -0.007785 0.000000 0.000000 0.000000
# 2 -0.011118 0.016602 -0.001173 0.000000 0.000000 0.000000
# 3 -0.007785 -0.001173 0.016508 0.000000 0.000000 0.000000
# 4 0.000000 0.000000 0.000000 0.142790 0.000000 0.000000
# 5 0.000000 0.000000 0.000000 0.000000-38.533709 0.000000
# 6 0.000000 0.000000 0.000000 0.000000 0.000000 0.028555
#
#
# Mechanical properties :
#
#
# Convention : Reuss Voigt Hill
#
# Bulk Modulus (GPa) = 62.62274 64.18223 63.40249
# Shear Modulus (GPa) = -0.13068 17.25559 8.56245
#
# Velocity S-wave (km/s) = -0.26388 3.03223 2.13598
# Velocity P-wave (km/s) = 5.76844 6.81601 6.31399
#
# Compressibility (1/GPa) = 0.01596864
#
# Stress axis : x y z
#
# Youngs Moduli (GPa) = 43.45805 60.23222 60.57537
#
# Poissons Ratio (x) = 0.66965 0.47159
# Poissons Ratio (y) = 0.48316 0.07108
# Poissons Ratio (z) = 0.33833 0.07068
#
# Static dielectric constant tensor:
#      x y z
#    x 3.377890 0.000000 0.000000 
#    y 0.000000 3.754490 0.000000 
#    z 0.000000 0.000000 3.202760 
# 
# 
# High freq. dielectric constant tensor:
#      x y z
#    x 1.712600 0.000000 0.000000 
#    y 0.000000 1.737130 0.000000 
#    z 0.000000 0.000000 1.700570 
# 
# From -- ./inp_files/9263.got.cif
#   From: 2010.03.12/outbox.cif.g09.slc.cpg/sg65_5_cif.got.tgz:9263.got - 2010.04.10 20:52:16.
