data_PCOD8274137
_publ_section_title
;
Structure prediction by ZEFSAII (Michael W. Deem and Ramdas Pophale) SiO2 
 PCOD8274137
Probable space group: C M M M
;
_chemical_formula_sum "Si O2"
_cell_formula_units_Z 56
_cell_length_a 14.682029
_cell_length_b 9.800344
_cell_length_c 19.182466
_cell_angle_alpha 90.000000
_cell_angle_beta 90.000000
_cell_angle_gamma 90.000000
_cell_volume 2760.144600
_symmetry_space_group_name_H-M "C M M M"
_symmetry_group_IT_number 65
_symmetry_cell_setting 'orthorhombic'
loop_
_space_group_symop_operation_xyz
x,y,z
-x,-y,z
x,-y,-z
-x,y,-z
-x,-y,-z
x,y,-z
-x,y,z
x,-y,z
1/2+x,1/2+y,z
1/2-x,1/2-y,z
1/2+x,1/2-y,-z
1/2-x,1/2+y,-z
1/2-x,1/2-y,-z
1/2+x,1/2+y,-z
1/2-x,1/2+y,z
1/2+x,1/2-y,z
loop_
_atom_site_type_symbol
_atom_site_label
_atom_site_fract_x
_atom_site_fract_y
_atom_site_fract_z
Si Si1 0.703197 0.500000 0.078689
Si Si2 0.000000 0.837750 0.421728
Si Si3 0.602015 0.000000 0.127228
Si Si4 0.896766 0.203514 0.824099
Si Si5 0.665386 0.653953 0.329961
O O1 0.813849 0.500000 0.073394
O O2 0.667620 0.635451 0.117655
O O3 0.665529 0.500000 0.000000
O O4 0.911835 0.785179 0.380462
O O5 0.000000 0.777990 0.500000
O O6 0.000000 0.000000 0.422129
O O7 0.612846 0.867095 0.175625
O O8 0.500000 0.000000 0.091499
O O9 0.868219 0.150777 0.749134
O O10 0.000000 0.158039 0.839904
O O11 0.691781 0.500000 0.351307
O O12 0.750000 0.750000 0.340949
#
# Coordination Sequence:
#
# PCOD8274137 Si02
#       5
#     8   8   8  16  16
#     4  12  25  41  64  91 123 161 208 260 311 373
#     4   9  20  40  65  95 129 171 212 250 307 370
#     4  10  24  42  61  88 122 164 204 260 309 377
#     4  11  23  41  63  90 122 160 211 259 312 366
#     4  11  22  38  64  95 126 168 207 261 305 365
#
# _framework density 20.288792000000001
#
# number of rings (size 3 to 8) (size 9 to 14) (size 15 to 20)
#    0.000    1.286    2.857    3.000    2.000    4.286 
#    0.000    3.571    0.000    0.857    0.000    0.000 
#    0.000    0.000    0.000    0.000    0.000    0.000 
#
# Total GULP energy -347194.064406 kJ/mol
# GULP energy per Si atom -12399.788015 kJ/mol
# Density = 2.024261 g / cm^3
# Si number density = 20.288792 Si / 1000 Ang^3
#
#
#
# Elastic Constant Matrix: (Units=GPa)
#
#
# Indices 1 2 3 4 5 6 
#
# 1 171.4003 51.8594 64.6011 0.0000 0.0000 0.0000
# 2 51.8594 116.6141 27.5536 0.0000 0.0000 0.0000
# 3 64.6011 27.5536 150.3032 0.0000 0.0000 0.0000
# 4 0.0000 0.0000 0.0000 -10.4457 0.0000 0.0000
# 5 0.0000 0.0000 0.0000 0.0000 19.4431 0.0000
# 6 0.0000 0.0000 0.0000 0.0000 0.0000 48.6911
#
#
#
# Elastic Compliance Matrix: (Units=1/GPa)
#
#
# Indices 1 2 3 4 5 6 
#
# 1 0.007735 -0.002775 -0.002816 0.000000 0.000000 0.000000
# 2 -0.002775 0.009959 -0.000633 0.000000 0.000000 0.000000
# 3 -0.002816 -0.000633 0.007980 0.000000 0.000000 0.000000
# 4 0.000000 0.000000 0.000000 -0.095733 0.000000 0.000000
# 5 0.000000 0.000000 0.000000 0.000000 0.051432 0.000000
# 6 0.000000 0.000000 0.000000 0.000000 0.000000 0.020538
#
#
# Mechanical properties :
#
#
# Convention : Reuss Voigt Hill
#
# Bulk Modulus (GPa) = 75.60741 80.70510 78.15626
# Shear Modulus (GPa) = 266.43399 31.15792 148.79596
#
# Velocity S-wave (km/s) = 11.47196 3.92308 8.57311
# Velocity P-wave (km/s) = 14.58839 7.77080 11.68773
#
# Compressibility (1/GPa) = 0.01322622
#
# Stress axis : x y z
#
# Youngs Moduli (GPa) = 129.28071 100.41421 125.31957
#
# Poissons Ratio (x) = 0.27860 0.35290
# Poissons Ratio (y) = 0.35869 0.07934
# Poissons Ratio (z) = 0.36405 0.06358
#
# Static dielectric constant tensor:
#      x y z
#    x 4.017070 0.000000 0.000000 
#    y 0.000000 3.655780 0.000000 
#    z 0.000000 0.000000 3.553820 
# 
# 
# High freq. dielectric constant tensor:
#      x y z
#    x 1.812300 0.000000 0.000000 
#    y 0.000000 1.791360 0.000000 
#    z 0.000000 0.000000 1.769800 
# 
# From -- ./inp_files/52462.got.cif
#   From: 2010.03.12/outbox.cif.g09.slc.cpg/sg65_27_cif.got.tgz:52462.got - 2010.04.10 20:52:16.
