data_PCOD8274787
_publ_section_title
;
Structure prediction by ZEFSAII (Michael W. Deem and Ramdas Pophale) SiO2 
 PCOD8274787
Probable space group: C M M M
;
_chemical_formula_sum "Si O2"
_cell_formula_units_Z 66
_cell_length_a 14.911268
_cell_length_b 23.595533
_cell_length_c 9.134317
_cell_angle_alpha 90.000000
_cell_angle_beta 90.000000
_cell_angle_gamma 90.000000
_cell_volume 3213.811847
_symmetry_space_group_name_H-M "C M M M"
_symmetry_group_IT_number 65
_symmetry_cell_setting 'orthorhombic'
loop_
_space_group_symop_operation_xyz
x,y,z
-x,-y,z
x,-y,-z
-x,y,-z
-x,-y,-z
x,y,-z
-x,y,z
x,-y,z
1/2+x,1/2+y,z
1/2-x,1/2-y,z
1/2+x,1/2-y,-z
1/2-x,1/2+y,-z
1/2-x,1/2-y,-z
1/2+x,1/2+y,-z
1/2-x,1/2+y,z
1/2+x,1/2-y,z
loop_
_atom_site_type_symbol
_atom_site_label
_atom_site_fract_x
_atom_site_fract_y
_atom_site_fract_z
Si Si1 0.898418 0.886870 0.332019
Si Si2 0.150409 0.500000 0.241215
Si Si3 0.353481 0.500000 0.833318
Si Si4 0.000000 0.500000 0.000000
Si Si5 0.247985 0.816781 0.168499
Si Si6 0.602395 0.880468 0.335782
O O1 0.868519 0.895793 0.500000
O O2 0.892208 0.945791 0.248485
O O3 0.835294 0.839975 0.259915
O O4 0.000000 0.864054 0.322629
O O5 0.246771 0.500000 0.165840
O O6 0.140684 0.444106 0.340484
O O7 0.075927 0.500000 0.120485
O O8 0.388209 0.500000 0.000000
O O9 0.250000 0.750000 0.187675
O O10 0.341598 0.841826 0.225323
O O11 0.236611 0.835057 0.000000
O O12 0.608780 0.855795 0.500000
O O13 0.500000 0.879887 0.278425
#
# Coordination Sequence:
#
# PCOD8274787 Si02
#       6
#    16   8   8   2  16  16
#     4  11  25  44  68  96 130 170 214 267 326 386
#     4  12  23  36  62  97 135 170 206 252 316 380
#     4  12  24  38  64 101 133 170 211 258 321 386
#     4  12  24  36  58 104 142 180 206 260 308 394
#     4  11  26  45  66  93 126 168 219 270 322 380
#     4  11  24  41  65  96 131 168 208 259 319 386
#
# _framework density 20.536362
#
# number of rings (size 3 to 8) (size 9 to 14) (size 15 to 20)
#    0.000    0.727    4.242    2.545    1.697    8.727 
#    0.000    4.848    0.000    0.000    0.000    0.000 
#    0.000    0.000    0.000    0.000    0.000    0.000 
#
# Total GULP energy -408839.914852 kJ/mol
# GULP energy per Si atom -12389.088329 kJ/mol
# Density = 2.048962 g / cm^3
# Si number density = 20.536362 Si / 1000 Ang^3
#
#
#
# Elastic Constant Matrix: (Units=GPa)
#
#
# Indices 1 2 3 4 5 6 
#
# 1 122.3341 43.1381 57.4028 0.0000 0.0000 0.0000
# 2 43.1381 100.3032 60.4748 0.0000 0.0000 0.0000
# 3 57.4028 60.4748 166.1486 0.0000 0.0000 0.0000
# 4 0.0000 0.0000 0.0000 5.9630 0.0000 0.0000
# 5 0.0000 0.0000 0.0000 0.0000 37.7678 0.0000
# 6 0.0000 0.0000 0.0000 0.0000 0.0000 6.6136
#
#
#
# Elastic Compliance Matrix: (Units=1/GPa)
#
#
# Indices 1 2 3 4 5 6 
#
# 1 0.010397 -0.002954 -0.002517 0.000000 0.000000 0.000000
# 2 -0.002954 0.013612 -0.003934 0.000000 0.000000 0.000000
# 3 -0.002517 -0.003934 0.008320 0.000000 0.000000 0.000000
# 4 0.000000 0.000000 0.000000 0.167702 0.000000 0.000000
# 5 0.000000 0.000000 0.000000 0.000000 0.026478 0.000000
# 6 0.000000 0.000000 0.000000 0.000000 0.000000 0.151204
#
#
# Mechanical properties :
#
#
# Convention : Reuss Voigt Hill
#
# Bulk Modulus (GPa) = 73.96697 78.97970 76.47333
# Shear Modulus (GPa) = 12.46794 25.25356 18.86075
#
# Velocity S-wave (km/s) = 2.46664 3.51051 3.03381
# Velocity P-wave (km/s) = 6.64892 7.41441 7.04208
#
# Compressibility (1/GPa) = 0.01351955
#
# Stress axis : x y z
#
# Youngs Moduli (GPa) = 96.18171 73.46410 120.19045
#
# Poissons Ratio (x) = 0.21702 0.30250
# Poissons Ratio (y) = 0.28413 0.47282
# Poissons Ratio (z) = 0.24207 0.28900
#
# Static dielectric constant tensor:
#      x y z
#    x 4.028070 0.000000 0.000000 
#    y 0.000000 3.610430 0.000000 
#    z 0.000000 0.000000 3.876630 
# 
# 
# High freq. dielectric constant tensor:
#      x y z
#    x 1.826340 0.000000 0.000000 
#    y 0.000000 1.785040 0.000000 
#    z 0.000000 0.000000 1.822180 
# 
# From -- ./inp_files/7138.got.cif
#   From: 2010.03.12/outbox.cif.g09.slc.cpg/sg65_4_cif.got.tgz:7138.got - 2010.04.10 20:52:16.
