data_PCOD8274271
_publ_section_title
;
Structure prediction by ZEFSAII (Michael W. Deem and Ramdas Pophale) SiO2 
 PCOD8274271
Probable space group: C M M M
;
_chemical_formula_sum "Si O2"
_cell_formula_units_Z 64
_cell_length_a 14.610330
_cell_length_b 27.186934
_cell_length_c 9.042892
_cell_angle_alpha 90.000000
_cell_angle_beta 90.000000
_cell_angle_gamma 90.000000
_cell_volume 3591.927831
_symmetry_space_group_name_H-M "C M M M"
_symmetry_group_IT_number 65
_symmetry_cell_setting 'orthorhombic'
loop_
_space_group_symop_operation_xyz
x,y,z
-x,-y,z
x,-y,-z
-x,y,-z
-x,-y,-z
x,y,-z
-x,y,z
x,-y,z
1/2+x,1/2+y,z
1/2-x,1/2-y,z
1/2+x,1/2-y,-z
1/2-x,1/2+y,-z
1/2-x,1/2-y,-z
1/2+x,1/2+y,-z
1/2-x,1/2+y,z
1/2+x,1/2-y,z
loop_
_atom_site_type_symbol
_atom_site_label
_atom_site_fract_x
_atom_site_fract_y
_atom_site_fract_z
Si Si1 0.650738 0.772311 0.838674
Si Si2 0.895321 0.557137 0.829945
Si Si3 0.218297 0.362673 0.674302
Si Si4 0.899855 0.168720 0.173324
O O1 0.750000 0.750000 0.857373
O O2 0.652352 0.818200 0.727343
O O3 0.591128 0.726424 0.779022
O O4 0.615252 0.790722 0.000000
O O5 0.875860 0.500000 0.802466
O O6 0.826442 0.586548 0.725434
O O7 0.000000 0.569806 0.788467
O O8 0.876191 0.571021 0.000000
O O9 0.224748 0.360992 0.500000
O O10 0.321344 0.359572 0.737397
O O11 0.000000 0.144803 0.205077
O O12 0.874638 0.165617 0.000000
#
# Coordination Sequence:
#
# PCOD8274271 Si02
#       4
#    16  16  16  16
#     4   8  15  29  47  67  93 128 171 210 239 275
#     4   9  19  37  59  78  95 122 164 209 249 293
#     4  11  21  31  48  76 108 137 162 197 252 309
#     4   9  18  33  52  72  97 135 180 217 245 279
#
# _framework density 17.817730999999998
#
# number of rings (size 3 to 8) (size 9 to 14) (size 15 to 20)
#    0.000    2.750    0.000    4.500    0.000    7.000 
#    0.000    3.750    0.000    0.750    0.000    5.250 
#    0.000    0.000    0.000    0.000    0.000    0.000 
#
# Total GULP energy -396565.335617 kJ/mol
# GULP energy per Si atom -12392.666738 kJ/mol
# Density = 1.777718 g / cm^3
# Si number density = 17.817731 Si / 1000 Ang^3
#
#
#
# Elastic Constant Matrix: (Units=GPa)
#
#
# Indices 1 2 3 4 5 6 
#
# 1 100.1155 49.4146 56.5506 0.0000 0.0000 0.0000
# 2 49.4146 78.9456 52.1389 0.0000 0.0000 0.0000
# 3 56.5506 52.1389 112.6193 0.0000 0.0000 0.0000
# 4 0.0000 0.0000 0.0000 7.5577 0.0000 0.0000
# 5 0.0000 0.0000 0.0000 0.0000 20.0419 0.0000
# 6 0.0000 0.0000 0.0000 0.0000 0.0000 25.4397
#
#
#
# Elastic Compliance Matrix: (Units=1/GPa)
#
#
# Indices 1 2 3 4 5 6 
#
# 1 0.016163 -0.006852 -0.004944 0.000000 0.000000 0.000000
# 2 -0.006852 0.021150 -0.006351 0.000000 0.000000 0.000000
# 3 -0.004944 -0.006351 0.014302 0.000000 0.000000 0.000000
# 4 0.000000 0.000000 0.000000 0.132315 0.000000 0.000000
# 5 0.000000 0.000000 0.000000 0.000000 0.049896 0.000000
# 6 0.000000 0.000000 0.000000 0.000000 0.000000 0.039309
#
#
# Mechanical properties :
#
#
# Convention : Reuss Voigt Hill
#
# Bulk Modulus (GPa) = 65.26684 67.54318 66.40501
# Shear Modulus (GPa) = 15.89644 19.51295 17.70470
#
# Velocity S-wave (km/s) = 2.99016 3.31288 3.15565
# Velocity P-wave (km/s) = 6.97361 7.25422 7.11530
#
# Compressibility (1/GPa) = 0.01532172
#
# Stress axis : x y z
#
# Youngs Moduli (GPa) = 61.87013 47.28053 69.91801
#
# Poissons Ratio (x) = 0.32395 0.34567
# Poissons Ratio (y) = 0.42392 0.44408
# Poissons Ratio (z) = 0.30588 0.30030
#
# Static dielectric constant tensor:
#      x y z
#    x -2.000790 0.000000 0.000000 
#    y 0.000000 3.263580 0.000000 
#    z 0.000000 0.000000 3.111130 
# 
# 
# High freq. dielectric constant tensor:
#      x y z
#    x 1.687580 0.000000 0.000000 
#    y 0.000000 1.667110 0.000000 
#    z 0.000000 0.000000 1.673490 
# 
# From -- ./inp_files/6703.got.cif
#   From: 2010.03.12/outbox.cif.g09.slc.cpg/sg65_4_cif.got.tgz:6703.got - 2010.04.10 20:52:16.
