data_PCOD8274570
_publ_section_title
;
Structure prediction by ZEFSAII (Michael W. Deem and Ramdas Pophale) SiO2 
 PCOD8274570
Probable space group: C M M M
;
_chemical_formula_sum "Si O2"
_cell_formula_units_Z 64
_cell_length_a 34.954826
_cell_length_b 9.565922
_cell_length_c 10.493062
_cell_angle_alpha 90.000000
_cell_angle_beta 90.000000
_cell_angle_gamma 90.000000
_cell_volume 3508.619065
_symmetry_space_group_name_H-M "C M M M"
_symmetry_group_IT_number 65
_symmetry_cell_setting 'orthorhombic'
loop_
_space_group_symop_operation_xyz
x,y,z
-x,-y,z
x,-y,-z
-x,y,-z
-x,-y,-z
x,y,-z
-x,y,z
x,-y,z
1/2+x,1/2+y,z
1/2-x,1/2-y,z
1/2+x,1/2-y,-z
1/2-x,1/2+y,-z
1/2-x,1/2-y,-z
1/2+x,1/2+y,-z
1/2-x,1/2+y,z
1/2+x,1/2-y,z
loop_
_atom_site_type_symbol
_atom_site_label
_atom_site_fract_x
_atom_site_fract_y
_atom_site_fract_z
Si Si1 0.541746 0.000000 0.204359
Si Si2 0.622568 0.343748 0.000000
Si Si3 0.458340 0.764218 0.000000
Si Si4 0.794599 0.000000 0.347752
Si Si5 0.618172 0.000000 0.357267
Si Si6 0.274566 0.000000 0.851600
Si Si7 0.832685 0.729112 0.765600
O O1 0.545141 0.139357 0.122612
O O2 0.500000 0.000000 0.273628
O O3 0.576917 0.000000 0.296645
O O4 0.576379 0.345482 0.000000
O O5 0.638233 0.268232 0.123724
O O6 0.638344 0.500000 0.000000
O O7 0.500000 0.687327 0.000000
O O8 0.818489 0.861659 0.314963
O O9 0.783737 0.000000 0.500000
O O10 0.758404 0.000000 0.254134
O O11 0.643377 0.864446 0.330187
O O12 0.606369 0.000000 0.500000
O O13 0.298268 0.141701 0.828975
O O14 0.259749 0.000000 0.000000
#
# Coordination Sequence:
#
# PCOD8274570 Si02
#       7
#     8   8   8   8   8   8  16
#     4   9  17  31  55  85 116 152 189 237 293 346
#     4  12  21  36  63  92 115 156 200 243 296 351
#     4   9  18  33  57  88 121 149 187 241 298 345
#     4  12  27  45  61  84 123 160 197 250 310 365
#     4  11  22  37  59  85 116 159 202 240 287 354
#     4  11  25  40  66  91 117 151 199 255 300 356
#     4  11  24  40  62  89 117 150 200 250 298 353
#
# _framework density 18.240794000000001
#
# number of rings (size 3 to 8) (size 9 to 14) (size 15 to 20)
#    0.000    1.250    5.000    2.250    1.750    5.500 
#    0.000    0.000    0.000    0.000    0.000    0.000 
#    0.000    8.000    0.000    0.000    0.000    0.000 
#
# Total GULP energy -396631.081459 kJ/mol
# GULP energy per Si atom -12394.721296 kJ/mol
# Density = 1.819928 g / cm^3
# Si number density = 18.240794 Si / 1000 Ang^3
#
#
#
# Elastic Constant Matrix: (Units=GPa)
#
#
# Indices 1 2 3 4 5 6 
#
# 1 145.2276 48.0088 68.3722 0.0000 0.0000 0.0000
# 2 48.0088 107.6409 36.4888 0.0000 0.0000 0.0000
# 3 68.3722 36.4888 132.2316 0.0000 0.0000 0.0000
# 4 0.0000 0.0000 0.0000 22.9716 0.0000 0.0000
# 5 0.0000 0.0000 0.0000 0.0000 -36.5946 0.0000
# 6 0.0000 0.0000 0.0000 0.0000 0.0000 25.0964
#
#
#
# Elastic Compliance Matrix: (Units=1/GPa)
#
#
# Indices 1 2 3 4 5 6 
#
# 1 0.009884 -0.002952 -0.004296 0.000000 0.000000 0.000000
# 2 -0.002952 0.011131 -0.001545 0.000000 0.000000 0.000000
# 3 -0.004296 -0.001545 0.010210 0.000000 0.000000 0.000000
# 4 0.000000 0.000000 0.000000 0.043532 0.000000 0.000000
# 5 0.000000 0.000000 0.000000 0.000000 -0.027326 0.000000
# 6 0.000000 0.000000 0.000000 0.000000 0.000000 0.039846
#
#
# Mechanical properties :
#
#
# Convention : Reuss Voigt Hill
#
# Bulk Modulus (GPa) = 73.32208 76.75995 75.04101
# Shear Modulus (GPa) = 45.69979 17.77669 31.73824
#
# Velocity S-wave (km/s) = 5.01079 3.12518 4.17581
# Velocity P-wave (km/s) = 8.58844 7.42934 8.02983
#
# Compressibility (1/GPa) = 0.01363846
#
# Stress axis : x y z
#
# Youngs Moduli (GPa) = 101.17111 89.84284 97.94112
#
# Poissons Ratio (x) = 0.26523 0.42077
# Poissons Ratio (y) = 0.29867 0.15132
# Poissons Ratio (z) = 0.43465 0.13881
#
# Static dielectric constant tensor:
#      x y z
#    x 3.539320 0.000000 0.000000 
#    y 0.000000 3.462250 0.000000 
#    z 0.000000 0.000000 3.279860 
# 
# 
# High freq. dielectric constant tensor:
#      x y z
#    x 1.720460 0.000000 0.000000 
#    y 0.000000 1.710180 0.000000 
#    z 0.000000 0.000000 1.700440 
# 
# From -- ./inp_files/33328.got.cif
#   From: 2010.03.12/outbox.cif.g09.slc.cpg/sg65_17_cif.got.tgz:33328.got - 2010.04.10 20:52:16.
