data_PCOD8274751
_publ_section_title
;
Structure prediction by ZEFSAII (Michael W. Deem and Ramdas Pophale) SiO2 
 PCOD8274751
Probable space group: C M M M
;
_chemical_formula_sum "Si O2"
_cell_formula_units_Z 80
_cell_length_a 23.194960
_cell_length_b 19.257344
_cell_length_c 8.743773
_cell_angle_alpha 90.000000
_cell_angle_beta 90.000000
_cell_angle_gamma 90.000000
_cell_volume 3905.610148
_symmetry_space_group_name_H-M "C M M M"
_symmetry_group_IT_number 65
_symmetry_cell_setting 'orthorhombic'
loop_
_space_group_symop_operation_xyz
x,y,z
-x,-y,z
x,-y,-z
-x,y,-z
-x,-y,-z
x,y,-z
-x,y,z
x,-y,z
1/2+x,1/2+y,z
1/2-x,1/2-y,z
1/2+x,1/2-y,-z
1/2-x,1/2+y,-z
1/2-x,1/2-y,-z
1/2+x,1/2+y,-z
1/2-x,1/2+y,z
1/2+x,1/2-y,z
loop_
_atom_site_type_symbol
_atom_site_label
_atom_site_fract_x
_atom_site_fract_y
_atom_site_fract_z
Si Si1 0.657013 0.419767 0.319432
Si Si2 0.259548 0.168533 0.825899
Si Si3 0.623736 0.807735 0.675743
Si Si4 0.066505 0.174624 0.819009
Si Si5 0.567080 0.075352 0.832155
O O1 0.656898 0.410340 0.500000
O O2 0.665213 0.500000 0.272189
O O3 0.708279 0.373855 0.251401
O O4 0.595592 0.393544 0.254173
O O5 0.250000 0.250000 0.815788
O O6 0.318108 0.155698 0.734575
O O7 0.265151 0.143105 0.000000
O O8 0.628768 0.785728 0.500000
O O9 0.604322 0.740726 0.770439
O O10 0.577851 0.868646 0.700042
O O11 0.000000 0.180971 0.763062
O O12 0.069332 0.168173 0.000000
O O13 0.500000 0.065853 0.845310
O O14 0.594496 0.000000 0.790208
O O15 0.590658 0.099973 0.000000
#
# Coordination Sequence:
#
# PCOD8274751 Si02
#       5
#    16  16  16  16  16
#     4  11  25  44  67  97 131 165 205 258 318 376
#     4  11  23  41  67  93 120 161 208 251 302 365
#     4  12  24  37  61  93 127 163 204 257 316 372
#     4  11  24  42  65  93 126 168 217 262 307 369
#     4   9  19  37  59  83 117 162 208 254 304 360
#
# _framework density 20.483356000000001
#
# number of rings (size 3 to 8) (size 9 to 14) (size 15 to 20)
#    0.000    1.200    2.000    4.800    0.000    8.400 
#    0.000    3.000    0.000    0.000    0.000    0.000 
#    0.000    0.000    0.000    0.000    0.000    0.000 
#
# Total GULP energy -495932.812863 kJ/mol
# GULP energy per Si atom -12398.320322 kJ/mol
# Density = 2.043673 g / cm^3
# Si number density = 20.483356 Si / 1000 Ang^3
#
#
#
# Elastic Constant Matrix: (Units=GPa)
#
#
# Indices 1 2 3 4 5 6 
#
# 1 110.7974 45.2089 40.9167 0.0000 0.0000 0.0000
# 2 45.2089 111.4972 44.1287 0.0000 0.0000 0.0000
# 3 40.9167 44.1287 102.8690 0.0000 0.0000 0.0000
# 4 0.0000 0.0000 0.0000 30.6903 0.0000 0.0000
# 5 0.0000 0.0000 0.0000 0.0000 24.6453 0.0000
# 6 0.0000 0.0000 0.0000 0.0000 0.0000 32.8718
#
#
#
# Elastic Compliance Matrix: (Units=1/GPa)
#
#
# Indices 1 2 3 4 5 6 
#
# 1 0.011593 -0.003464 -0.003125 0.000000 0.000000 0.000000
# 2 -0.003464 0.011838 -0.003701 0.000000 0.000000 0.000000
# 3 -0.003125 -0.003701 0.012552 0.000000 0.000000 0.000000
# 4 0.000000 0.000000 0.000000 0.032584 0.000000 0.000000
# 5 0.000000 0.000000 0.000000 0.000000 0.040576 0.000000
# 6 0.000000 0.000000 0.000000 0.000000 0.000000 0.030421
#
#
# Mechanical properties :
#
#
# Convention : Reuss Voigt Hill
#
# Bulk Modulus (GPa) = 64.92040 65.07469 64.99754
# Shear Modulus (GPa) = 30.25237 30.63544 30.44390
#
# Velocity S-wave (km/s) = 3.84725 3.87153 3.85941
# Velocity P-wave (km/s) = 7.17622 7.19885 7.18754
#
# Compressibility (1/GPa) = 0.01540348
#
# Stress axis : x y z
#
# Youngs Moduli (GPa) = 86.25958 84.47494 79.67075
#
# Poissons Ratio (x) = 0.29259 0.24900
# Poissons Ratio (y) = 0.29877 0.29482
# Poissons Ratio (z) = 0.26959 0.31260
#
# Static dielectric constant tensor:
#      x y z
#    x 3.991780 0.000000 0.000000 
#    y 0.000000 3.886150 0.000000 
#    z 0.000000 0.000000 3.768180 
# 
# 
# High freq. dielectric constant tensor:
#      x y z
#    x 1.804950 0.000000 0.000000 
#    y 0.000000 1.805060 0.000000 
#    z 0.000000 0.000000 1.804180 
# 
# From -- ./inp_files/16035.got.cif
#   From: 2010.03.12/outbox.cif.g09.slc.cpg/sg65_9_cif.got.tgz:16035.got - 2010.04.10 20:52:16.
