data_PCOD8274776
_publ_section_title
;
Structure prediction by ZEFSAII (Michael W. Deem and Ramdas Pophale) SiO2 
 PCOD8274776
Probable space group: C M M M
;
_chemical_formula_sum "Si O2"
_cell_formula_units_Z 64
_cell_length_a 24.426347
_cell_length_b 9.205273
_cell_length_c 14.586676
_cell_angle_alpha 90.000000
_cell_angle_beta 90.000000
_cell_angle_gamma 90.000000
_cell_volume 3279.831494
_symmetry_space_group_name_H-M "C M M M"
_symmetry_group_IT_number 65
_symmetry_cell_setting 'orthorhombic'
loop_
_space_group_symop_operation_xyz
x,y,z
-x,-y,z
x,-y,-z
-x,y,-z
-x,-y,-z
x,y,-z
-x,y,z
x,-y,z
1/2+x,1/2+y,z
1/2-x,1/2-y,z
1/2+x,1/2-y,-z
1/2-x,1/2+y,-z
1/2-x,1/2-y,-z
1/2+x,1/2+y,-z
1/2-x,1/2+y,z
1/2+x,1/2-y,z
loop_
_atom_site_type_symbol
_atom_site_label
_atom_site_fract_x
_atom_site_fract_y
_atom_site_fract_z
Si Si1 0.000000 0.837758 0.391066
Si Si2 0.394503 0.832174 0.604597
Si Si3 0.306803 0.829862 0.244377
Si Si4 0.381601 0.333261 0.109206
Si Si5 0.000000 0.828508 0.099679
O O1 0.054242 0.757470 0.355788
O O2 0.000000 0.838503 0.500000
O O3 0.000000 0.000000 0.349869
O O4 0.380598 0.788248 0.500000
O O5 0.341888 0.795045 0.665192
O O6 0.410869 0.000000 0.611446
O O7 0.250000 0.750000 0.258318
O O8 0.336881 0.770498 0.154174
O O9 0.296632 0.000000 0.230921
O O10 0.368795 0.500000 0.135609
O O11 0.442349 0.286093 0.148177
O O12 0.379424 0.313129 0.000000
O O13 0.000000 0.000000 0.085609
O O14 0.000000 0.753407 0.000000
#
# Coordination Sequence:
#
# PCOD8274776 Si02
#       5
#     8  16  16  16   8
#     4   9  17  30  53  86 115 139 174 218 263 315
#     4   9  19  37  58  79 108 145 179 216 268 325
#     4  11  24  39  55  77 105 140 185 230 270 316
#     4   9  18  35  59  84 111 143 176 214 264 320
#     4   7  12  27  53  82 107 133 168 207 253 312
#
# _framework density 19.513197999999999
#
# number of rings (size 3 to 8) (size 9 to 14) (size 15 to 20)
#    0.000    2.750    0.000    2.625    0.000    6.000 
#    0.000    3.125    0.000    2.250    0.000    0.000 
#    0.000    0.000    0.000    0.000    0.000    0.000 
#
# Total GULP energy -396637.807612 kJ/mol
# GULP energy per Si atom -12394.931488 kJ/mol
# Density = 1.946878 g / cm^3
# Si number density = 19.513198 Si / 1000 Ang^3
#
#
#
# Elastic Constant Matrix: (Units=GPa)
#
#
# Indices 1 2 3 4 5 6 
#
# 1 182.9386 92.7740 53.6675 0.0000 0.0000 0.0000
# 2 92.7740 108.0434 45.7833 0.0000 0.0000 0.0000
# 3 53.6675 45.7833 70.4067 0.0000 0.0000 0.0000
# 4 0.0000 0.0000 0.0000 22.1150 0.0000 0.0000
# 5 0.0000 0.0000 0.0000 0.0000 33.1383 0.0000
# 6 0.0000 0.0000 0.0000 0.0000 0.0000 -30.3208
#
#
#
# Elastic Compliance Matrix: (Units=1/GPa)
#
#
# Indices 1 2 3 4 5 6 
#
# 1 0.010077 -0.007451 -0.002836 0.000000 0.000000 0.000000
# 2 -0.007451 0.018285 -0.006211 0.000000 0.000000 0.000000
# 3 -0.002836 -0.006211 0.020404 0.000000 0.000000 0.000000
# 4 0.000000 0.000000 0.000000 0.045218 0.000000 0.000000
# 5 0.000000 0.000000 0.000000 0.000000 0.030177 0.000000
# 6 0.000000 0.000000 0.000000 0.000000 0.000000 -0.032981
#
#
# Mechanical properties :
#
#
# Convention : Reuss Voigt Hill
#
# Bulk Modulus (GPa) = 63.41065 82.87092 73.14078
# Shear Modulus (GPa) = 38.63012 16.26409 27.44710
#
# Velocity S-wave (km/s) = 4.45420 2.89016 3.75452
# Velocity P-wave (km/s) = 7.68245 7.32794 7.50729
#
# Compressibility (1/GPa) = 0.01577022
#
# Stress axis : x y z
#
# Youngs Moduli (GPa) = 99.23624 54.68829 49.01094
#
# Poissons Ratio (x) = 0.40749 0.13899
# Poissons Ratio (y) = 0.73942 0.30440
# Poissons Ratio (z) = 0.28143 0.33966
#
# Static dielectric constant tensor:
#      x y z
#    x 3.730960 0.000000 0.000000 
#    y 0.000000 3.486830 0.000000 
#    z 0.000000 0.000000 3.401820 
# 
# 
# High freq. dielectric constant tensor:
#      x y z
#    x 1.766000 0.000000 0.000000 
#    y 0.000000 1.745530 0.000000 
#    z 0.000000 0.000000 1.753140 
# 
# From -- ./inp_files/36012.got.cif
#   From: 2010.03.12/outbox.cif.g09.slc.cpg/sg65_19_cif.got.tgz:36012.got - 2010.04.10 20:52:16.
