data_PCOD8274460
_publ_section_title
;
Structure prediction by ZEFSAII (Michael W. Deem and Ramdas Pophale) SiO2 
 PCOD8274460
Probable space group: C M M M
;
_chemical_formula_sum "Si O2"
_cell_formula_units_Z 72
_cell_length_a 32.373278
_cell_length_b 8.790963
_cell_length_c 13.676914
_cell_angle_alpha 90.000000
_cell_angle_beta 90.000000
_cell_angle_gamma 90.000000
_cell_volume 3892.344263
_symmetry_space_group_name_H-M "C M M M"
_symmetry_group_IT_number 65
_symmetry_cell_setting 'orthorhombic'
loop_
_space_group_symop_operation_xyz
x,y,z
-x,-y,z
x,-y,-z
-x,y,-z
-x,-y,-z
x,y,-z
-x,y,z
x,-y,z
1/2+x,1/2+y,z
1/2-x,1/2-y,z
1/2+x,1/2-y,-z
1/2-x,1/2+y,-z
1/2-x,1/2-y,-z
1/2+x,1/2+y,-z
1/2-x,1/2+y,z
1/2+x,1/2-y,z
loop_
_atom_site_type_symbol
_atom_site_label
_atom_site_fract_x
_atom_site_fract_y
_atom_site_fract_z
Si Si1 0.792684 0.320714 0.291904
Si Si2 0.083118 0.821320 0.796050
Si Si3 0.000000 0.182004 0.111607
Si Si4 0.369821 0.677705 0.610045
Si Si5 0.832494 0.179176 0.110757
O O1 0.789188 0.500000 0.293519
O O2 0.750000 0.250000 0.329920
O O3 0.828415 0.268727 0.365629
O O4 0.800965 0.265602 0.181249
O O5 0.040231 0.748424 0.833376
O O6 0.093350 0.773251 0.683946
O O7 0.120738 0.768303 0.865338
O O8 0.077860 0.000000 0.804221
O O9 0.000000 0.000000 0.114670
O O10 0.000000 0.239213 0.000000
O O11 0.384260 0.715229 0.500000
O O12 0.359757 0.500000 0.624206
O O13 0.827731 0.000000 0.129152
O O14 0.821905 0.224517 0.000000
#
# Coordination Sequence:
#
# PCOD8274460 Si02
#       5
#    16  16   8  16  16
#     4  11  22  35  51  72  98 125 158 202 247 295
#     4   8  14  25  42  68 100 131 163 198 239 287
#     4   9  14  20  37  69 106 137 163 195 236 283
#     4   9  18  34  53  70  93 127 164 204 250 295
#     4   9  17  31  50  70  97 134 170 203 242 288
#
# _framework density 18.497851000000001
#
# number of rings (size 3 to 8) (size 9 to 14) (size 15 to 20)
#    0.000    2.778    0.000    4.000    0.000    4.444 
#    0.000    0.556    0.000    3.333    0.000   12.444 
#    0.000   28.444    0.000    0.000    0.000    0.000 
#
# Total GULP energy -446284.289792 kJ/mol
# GULP energy per Si atom -12396.785828 kJ/mol
# Density = 1.845575 g / cm^3
# Si number density = 18.497851 Si / 1000 Ang^3
#
#
#
# Elastic Constant Matrix: (Units=GPa)
#
#
# Indices 1 2 3 4 5 6 
#
# 1 112.2083 25.0684 42.3617 0.0000 0.0000 0.0000
# 2 25.0684 58.8657 27.6386 0.0000 0.0000 0.0000
# 3 42.3617 27.6386 131.9125 0.0000 0.0000 0.0000
# 4 0.0000 0.0000 0.0000 18.2738 0.0000 0.0000
# 5 0.0000 0.0000 0.0000 0.0000 10.2175 0.0000
# 6 0.0000 0.0000 0.0000 0.0000 0.0000 14.8070
#
#
#
# Elastic Compliance Matrix: (Units=1/GPa)
#
#
# Indices 1 2 3 4 5 6 
#
# 1 0.010676 -0.003257 -0.002746 0.000000 0.000000 0.000000
# 2 -0.003257 0.019835 -0.003110 0.000000 0.000000 0.000000
# 3 -0.002746 -0.003110 0.009114 0.000000 0.000000 0.000000
# 4 0.000000 0.000000 0.000000 0.054723 0.000000 0.000000
# 5 0.000000 0.000000 0.000000 0.000000 0.097871 0.000000
# 6 0.000000 0.000000 0.000000 0.000000 0.000000 0.067536
#
#
# Mechanical properties :
#
#
# Convention : Reuss Voigt Hill
#
# Bulk Modulus (GPa) = 46.73059 54.79154 50.76107
# Shear Modulus (GPa) = 17.53678 22.52087 20.02882
#
# Velocity S-wave (km/s) = 3.08237 3.49303 3.29411
# Velocity P-wave (km/s) = 6.16325 6.77888 6.47838
#
# Compressibility (1/GPa) = 0.02139926
#
# Stress axis : x y z
#
# Youngs Moduli (GPa) = 93.66432 50.41570 109.71850
#
# Poissons Ratio (x) = 0.16422 0.30130
# Poissons Ratio (y) = 0.30509 0.34121
# Poissons Ratio (z) = 0.25721 0.15679
#
# Static dielectric constant tensor:
#      x y z
#    x 3.560250 0.000000 0.000000 
#    y 0.000000 2.983950 0.000000 
#    z 0.000000 0.000000 3.555110 
# 
# 
# High freq. dielectric constant tensor:
#      x y z
#    x 1.712220 0.000000 0.000000 
#    y 0.000000 1.674780 0.000000 
#    z 0.000000 0.000000 1.722550 
# 
# From -- ./inp_files/36547.got.cif
#   From: 2010.03.12/outbox.cif.g09.slc.cpg/sg65_19_cif.got.tgz:36547.got - 2010.04.10 20:52:16.
