data_PCOD8274231
_publ_section_title
;
Structure prediction by ZEFSAII (Michael W. Deem and Ramdas Pophale) SiO2 
 PCOD8274231
Probable space group: C M M M
;
_chemical_formula_sum "Si O2"
_cell_formula_units_Z 96
_cell_length_a 24.090573
_cell_length_b 18.025291
_cell_length_c 11.510681
_cell_angle_alpha 90.000000
_cell_angle_beta 90.000000
_cell_angle_gamma 90.000000
_cell_volume 4998.393383
_symmetry_space_group_name_H-M "C M M M"
_symmetry_group_IT_number 65
_symmetry_cell_setting 'orthorhombic'
loop_
_space_group_symop_operation_xyz
x,y,z
-x,-y,z
x,-y,-z
-x,y,-z
-x,-y,-z
x,y,-z
-x,y,z
x,-y,z
1/2+x,1/2+y,z
1/2-x,1/2-y,z
1/2+x,1/2-y,-z
1/2-x,1/2+y,-z
1/2-x,1/2-y,-z
1/2+x,1/2+y,-z
1/2-x,1/2+y,z
1/2+x,1/2-y,z
loop_
_atom_site_type_symbol
_atom_site_label
_atom_site_fract_x
_atom_site_fract_y
_atom_site_fract_z
Si Si1 0.272192 0.833470 0.711853
Si Si2 0.723016 0.418234 0.500000
Si Si3 0.904866 0.155595 0.735497
Si Si4 0.896166 0.315256 0.360889
Si Si5 0.500000 0.083166 0.363309
Si Si6 0.500000 0.582401 0.134913
Si Si7 0.592842 0.580328 0.500000
Si Si8 0.302651 0.412526 0.134562
O O1 0.250000 0.750000 0.721958
O O2 0.238155 0.871942 0.611300
O O3 0.336673 0.844380 0.681754
O O4 0.257484 0.878155 0.830893
O O5 0.751393 0.500000 0.500000
O O6 0.658098 0.427428 0.500000
O O7 0.907212 0.243078 0.716120
O O8 0.926550 0.121814 0.615058
O O9 0.845005 0.128705 0.779003
O O10 0.946422 0.130078 0.834577
O O11 0.895183 0.298992 0.500000
O O12 0.943999 0.373718 0.325910
O O13 0.500000 0.075908 0.500000
O O14 0.500000 0.000000 0.308300
O O15 0.500000 0.500000 0.193506
O O16 0.500000 0.570077 0.000000
O O17 0.564331 0.500000 0.500000
O O18 0.304534 0.500000 0.159421
O O19 0.315361 0.395499 0.000000
#
# Coordination Sequence:
#
# PCOD8274231 Si02
#       8
#    16   8  16  16   8   8   8  16
#     4  12  22  37  60  90 127 164 204 253 310 376
#     4  11  21  33  56  89 124 159 201 243 300 379
#     4  12  22  39  61  87 121 161 200 248 311 376
#     4  11  22  39  61  91 127 161 197 251 321 372
#     4   9  21  40  60  84 120 163 207 249 294 363
#     4  11  25  43  61  83 115 159 212 256 289 344
#     4  11  20  32  55  87 124 160 197 244 301 378
#     4  11  24  41  60  85 123 168 210 257 311 367
#
# _framework density 19.206171000000001
#
# number of rings (size 3 to 8) (size 9 to 14) (size 15 to 20)
#    0.000    0.833    5.000    3.250    0.000    3.333 
#    0.000    0.833    0.000    0.000    0.000    0.000 
#    0.000    6.667    0.000    0.000    0.000    0.000 
#
# Total GULP energy -595042.825726 kJ/mol
# GULP energy per Si atom -12396.725536 kJ/mol
# Density = 1.916246 g / cm^3
# Si number density = 19.206171 Si / 1000 Ang^3
#
#
#
# Elastic Constant Matrix: (Units=GPa)
#
#
# Indices 1 2 3 4 5 6 
#
# 1 110.0049 44.4393 26.2692 0.0000 0.0000 0.0000
# 2 44.4393 143.3589 47.0335 0.0000 0.0000 0.0000
# 3 26.2692 47.0335 83.0582 0.0000 0.0000 0.0000
# 4 0.0000 0.0000 0.0000 30.5799 0.0000 0.0000
# 5 0.0000 0.0000 0.0000 0.0000 23.2422 0.0000
# 6 0.0000 0.0000 0.0000 0.0000 0.0000 27.8068
#
#
#
# Elastic Compliance Matrix: (Units=1/GPa)
#
#
# Indices 1 2 3 4 5 6 
#
# 1 0.010615 -0.002688 -0.001835 0.000000 0.000000 0.000000
# 2 -0.002688 0.009248 -0.004387 0.000000 0.000000 0.000000
# 3 -0.001835 -0.004387 0.015104 0.000000 0.000000 0.000000
# 4 0.000000 0.000000 0.000000 0.032701 0.000000 0.000000
# 5 0.000000 0.000000 0.000000 0.000000 0.043025 0.000000
# 6 0.000000 0.000000 0.000000 0.000000 0.000000 0.035962
#
#
# Mechanical properties :
#
#
# Convention : Reuss Voigt Hill
#
# Bulk Modulus (GPa) = 58.31876 63.54511 60.93194
# Shear Modulus (GPa) = 29.37873 30.90444 30.14159
#
# Velocity S-wave (km/s) = 3.91532 4.01570 3.96583
# Velocity P-wave (km/s) = 7.13233 7.39315 7.26391
#
# Compressibility (1/GPa) = 0.01714714
#
# Stress axis : x y z
#
# Youngs Moduli (GPa) = 94.20882 108.13078 66.20730
#
# Poissons Ratio (x) = 0.29071 0.12148
# Poissons Ratio (y) = 0.25328 0.29043
# Poissons Ratio (z) = 0.17285 0.47433
#
# Static dielectric constant tensor:
#      x y z
#    x 3.662450 0.000000 0.000000 
#    y 0.000000 3.796450 0.000000 
#    z 0.000000 0.000000 3.930520 
# 
# 
# High freq. dielectric constant tensor:
#      x y z
#    x 1.748590 0.000000 0.000000 
#    y 0.000000 1.756960 0.000000 
#    z 0.000000 0.000000 1.733400 
# 
# From -- ./inp_files/30876.got.cif
#   From: 2010.03.12/outbox.cif.g09.slc.cpg/sg65_16_cif.got.tgz:30876.got - 2010.04.10 20:52:16.
