data_PCOD8274461
_publ_section_title
;
Structure prediction by ZEFSAII (Michael W. Deem and Ramdas Pophale) SiO2 
 PCOD8274461
Probable space group: C M M M
;
_chemical_formula_sum "Si O2"
_cell_formula_units_Z 88
_cell_length_a 30.713761
_cell_length_b 9.088617
_cell_length_c 17.262190
_cell_angle_alpha 90.000000
_cell_angle_beta 90.000000
_cell_angle_gamma 90.000000
_cell_volume 4818.664564
_symmetry_space_group_name_H-M "C M M M"
_symmetry_group_IT_number 65
_symmetry_cell_setting 'orthorhombic'
loop_
_space_group_symop_operation_xyz
x,y,z
-x,-y,z
x,-y,-z
-x,y,-z
-x,-y,-z
x,y,-z
-x,y,z
x,-y,z
1/2+x,1/2+y,z
1/2-x,1/2-y,z
1/2+x,1/2-y,-z
1/2-x,1/2+y,-z
1/2-x,1/2-y,-z
1/2+x,1/2+y,-z
1/2-x,1/2+y,z
1/2+x,1/2-y,z
loop_
_atom_site_type_symbol
_atom_site_label
_atom_site_fract_x
_atom_site_fract_y
_atom_site_fract_z
Si Si1 0.379797 0.175117 0.291923
Si Si2 0.951488 0.674687 0.587389
Si Si3 0.793344 0.175675 0.757525
Si Si4 0.092320 0.662712 0.125172
Si Si5 0.450214 0.655560 0.000000
Si Si6 0.309966 0.834208 0.913809
O O1 0.411980 0.234033 0.359341
O O2 0.333739 0.260244 0.292226
O O3 0.403979 0.218326 0.212931
O O4 0.370505 0.000000 0.296566
O O5 0.942439 0.729219 0.500000
O O6 0.951128 0.500000 0.591295
O O7 0.000000 0.729549 0.613837
O O8 0.750000 0.250000 0.721398
O O9 0.794234 0.219581 0.848844
O O10 0.792218 0.000000 0.749792
O O11 0.072549 0.500000 0.124411
O O12 0.059259 0.762212 0.079299
O O13 0.138228 0.667153 0.082063
O O14 0.424451 0.500000 0.000000
O O15 0.500000 0.621504 0.000000
O O16 0.294206 0.000000 0.891552
O O17 0.292812 0.789810 0.000000
#
# Coordination Sequence:
#
# PCOD8274461 Si02
#       6
#    16  16  16  16   8  16
#     4   9  18  33  54  79 107 138 172 213 260 309
#     4   8  14  27  52  87 119 141 166 206 256 311
#     4  11  22  35  51  73 102 137 178 220 264 313
#     4   9  17  31  48  66  89 125 169 210 251 300
#     4  11  23  33  41  59  90 127 168 217 265 303
#     4   9  17  32  52  71  94 124 163 214 266 313
#
# _framework density 18.262322000000001
#
# number of rings (size 3 to 8) (size 9 to 14) (size 15 to 20)
#    0.000    2.636    0.909    3.545    0.000    5.091 
#    0.000    1.818    0.000    1.636    0.000    1.273 
#    0.000    0.000    0.000    0.000    0.000    0.000 
#
# Total GULP energy -545227.896049 kJ/mol
# GULP energy per Si atom -12391.543092 kJ/mol
# Density = 1.822076 g / cm^3
# Si number density = 18.262322 Si / 1000 Ang^3
#
#
#
# Elastic Constant Matrix: (Units=GPa)
#
#
# Indices 1 2 3 4 5 6 
#
# 1 121.1077 52.1011 68.2744 0.0000 0.0000 0.0000
# 2 52.1011 77.1645 34.1106 0.0000 0.0000 0.0000
# 3 68.2744 34.1106 97.2059 0.0000 0.0000 0.0000
# 4 0.0000 0.0000 0.0000 10.5477 0.0000 0.0000
# 5 0.0000 0.0000 0.0000 0.0000 -23.0381 0.0000
# 6 0.0000 0.0000 0.0000 0.0000 0.0000 22.1278
#
#
#
# Elastic Compliance Matrix: (Units=1/GPa)
#
#
# Indices 1 2 3 4 5 6 
#
# 1 0.016392 -0.007076 -0.009030 0.000000 0.000000 0.000000
# 2 -0.007076 0.018393 -0.001484 0.000000 0.000000 0.000000
# 3 -0.009030 -0.001484 0.017151 0.000000 0.000000 0.000000
# 4 0.000000 0.000000 0.000000 0.094807 0.000000 0.000000
# 5 0.000000 0.000000 0.000000 0.000000 -0.043406 0.000000
# 6 0.000000 0.000000 0.000000 0.000000 0.000000 0.045192
#
#
# Mechanical properties :
#
#
# Convention : Reuss Voigt Hill
#
# Bulk Modulus (GPa) = 59.68418 67.16115 63.42266
# Shear Modulus (GPa) = 26.41384 11.32697 18.87040
#
# Velocity S-wave (km/s) = 3.80723 2.49316 3.21798
# Velocity P-wave (km/s) = 7.21659 6.71889 6.97218
#
# Compressibility (1/GPa) = 0.01675486
#
# Stress axis : x y z
#
# Youngs Moduli (GPa) = 61.00531 54.36788 58.30617
#
# Poissons Ratio (x) = 0.38471 0.52652
# Poissons Ratio (y) = 0.43167 0.08655
# Poissons Ratio (z) = 0.55089 0.08070
#
# Static dielectric constant tensor:
#      x y z
#    x 3.455640 0.000000 0.000000 
#    y 0.000000 3.186680 0.000000 
#    z 0.000000 0.000000 3.321560 
# 
# 
# High freq. dielectric constant tensor:
#      x y z
#    x 1.709890 0.000000 0.000000 
#    y 0.000000 1.685240 0.000000 
#    z 0.000000 0.000000 1.684370 
# 
# From -- ./inp_files/57965.got.cif
#   From: 2010.03.12/outbox.cif.g09.slc.cpg/sg65_29_cif.got.tgz:57965.got - 2010.04.10 20:52:16.
