data_PCOD8274836
_publ_section_title
;
Structure prediction by ZEFSAII (Michael W. Deem and Ramdas Pophale) SiO2 
 PCOD8274836
Probable space group: C M M M
;
_chemical_formula_sum "Si O2"
_cell_formula_units_Z 80
_cell_length_a 27.366817
_cell_length_b 9.003499
_cell_length_c 18.584711
_cell_angle_alpha 90.000000
_cell_angle_beta 90.000000
_cell_angle_gamma 90.000000
_cell_volume 4579.219071
_symmetry_space_group_name_H-M "C M M M"
_symmetry_group_IT_number 65
_symmetry_cell_setting 'orthorhombic'
loop_
_space_group_symop_operation_xyz
x,y,z
-x,-y,z
x,-y,-z
-x,y,-z
-x,-y,-z
x,y,-z
-x,y,z
x,-y,z
1/2+x,1/2+y,z
1/2-x,1/2-y,z
1/2+x,1/2-y,-z
1/2-x,1/2+y,-z
1/2-x,1/2-y,-z
1/2+x,1/2+y,-z
1/2-x,1/2+y,z
1/2+x,1/2-y,z
loop_
_atom_site_type_symbol
_atom_site_label
_atom_site_fract_x
_atom_site_fract_y
_atom_site_fract_z
Si Si1 0.102227 0.677013 0.854003
Si Si2 0.444459 0.822696 0.000000
Si Si3 0.650015 0.173458 0.365874
Si Si4 0.197404 0.824358 0.500000
Si Si5 0.699871 0.172459 0.215912
Si Si6 0.946284 0.676313 0.289398
O O1 0.100360 0.500000 0.854300
O O2 0.157722 0.729851 0.838550
O O3 0.067687 0.737538 0.789774
O O4 0.083211 0.741129 0.929781
O O5 0.500000 0.764658 0.000000
O O6 0.443594 0.000000 0.000000
O O7 0.667488 0.275667 0.430343
O O8 0.684386 0.206335 0.297727
O O9 0.594375 0.223311 0.347833
O O10 0.652581 0.000000 0.387486
O O11 0.250000 0.750000 0.500000
O O12 0.204265 0.000000 0.500000
O O13 0.750000 0.250000 0.195397
O O14 0.708233 0.000000 0.205004
O O15 0.946666 0.500000 0.285185
O O16 0.000000 0.737631 0.311353
#
# Coordination Sequence:
#
# PCOD8274836 Si02
#       6
#    16   8  16   8  16  16
#     4   8  14  23  36  60  92 120 149 186 227 267
#     4   9  14  20  35  60  91 123 147 175 224 277
#     4   9  18  32  49  70  94 119 151 188 225 268
#     4  12  24  36  51  70  93 119 146 183 231 276
#     4   9  17  29  45  64  88 119 152 188 225 262
#     4   8  13  24  44  67  90 118 153 191 225 260
#
# _framework density 17.470227000000001
#
# number of rings (size 3 to 8) (size 9 to 14) (size 15 to 20)
#    0.000    3.100    0.000    4.500    0.000    4.800 
#    0.000    1.000    0.000    3.600    0.000    0.000 
#    0.000    3.200    0.000    0.000    0.000    0.400 
#
# Total GULP energy -495758.773555 kJ/mol
# GULP energy per Si atom -12393.969339 kJ/mol
# Density = 1.743046 g / cm^3
# Si number density = 17.470227 Si / 1000 Ang^3
#
#
#
# Elastic Constant Matrix: (Units=GPa)
#
#
# Indices 1 2 3 4 5 6 
#
# 1 179.1983 36.4235 81.4461 0.0000 0.0000 0.0000
# 2 36.4235 38.4013 38.2081 0.0000 0.0000 0.0000
# 3 81.4461 38.2081 124.4753 0.0000 0.0000 0.0000
# 4 0.0000 0.0000 0.0000 9.3911 0.0000 0.0000
# 5 0.0000 0.0000 0.0000 0.0000 22.4010 0.0000
# 6 0.0000 0.0000 0.0000 0.0000 0.0000 20.5746
#
#
#
# Elastic Compliance Matrix: (Units=1/GPa)
#
#
# Indices 1 2 3 4 5 6 
#
# 1 0.008263 -0.003539 -0.004321 0.000000 0.000000 0.000000
# 2 -0.003539 0.039007 -0.009658 0.000000 0.000000 0.000000
# 3 -0.004321 -0.009658 0.013825 0.000000 0.000000 0.000000
# 4 0.000000 0.000000 0.000000 0.106484 0.000000 0.000000
# 5 0.000000 0.000000 0.000000 0.000000 0.044641 0.000000
# 6 0.000000 0.000000 0.000000 0.000000 0.000000 0.048604
#
#
# Mechanical properties :
#
#
# Convention : Reuss Voigt Hill
#
# Bulk Modulus (GPa) = 38.37176 72.69225 55.53201
# Shear Modulus (GPa) = 16.41795 22.87314 19.64554
#
# Velocity S-wave (km/s) = 3.06889 3.62230 3.35702
# Velocity P-wave (km/s) = 5.87956 7.69378 6.84703
#
# Compressibility (1/GPa) = 0.02606083
#
# Stress axis : x y z
#
# Youngs Moduli (GPa) = 121.01467 25.63673 72.33178
#
# Poissons Ratio (x) = 0.09073 0.31252
# Poissons Ratio (y) = 0.42827 0.69855
# Poissons Ratio (z) = 0.52286 0.24759
#
# Static dielectric constant tensor:
#      x y z
#    x 3.688150 0.000000 0.000000 
#    y 0.000000 2.695040 0.000000 
#    z 0.000000 0.000000 3.319330 
# 
# 
# High freq. dielectric constant tensor:
#      x y z
#    x 1.690080 0.000000 0.000000 
#    y 0.000000 1.616510 0.000000 
#    z 0.000000 0.000000 1.667930 
# 
# From -- ./inp_files/57261.got.cif
#   From: 2010.03.12/outbox.cif.g09.slc.cpg/sg65_29_cif.got.tgz:57261.got - 2010.04.10 20:52:16.
