data_PCOD8274270
_publ_section_title
;
Structure prediction by ZEFSAII (Michael W. Deem and Ramdas Pophale) SiO2 
 PCOD8274270
Probable space group: C M M M
;
_chemical_formula_sum "Si O2"
_cell_formula_units_Z 64
_cell_length_a 27.176376
_cell_length_b 9.373854
_cell_length_c 14.228721
_cell_angle_alpha 90.000000
_cell_angle_beta 90.000000
_cell_angle_gamma 90.000000
_cell_volume 3624.729408
_symmetry_space_group_name_H-M "C M M M"
_symmetry_group_IT_number 65
_symmetry_cell_setting 'orthorhombic'
loop_
_space_group_symop_operation_xyz
x,y,z
-x,-y,z
x,-y,-z
-x,y,-z
-x,-y,-z
x,y,-z
-x,y,z
x,-y,z
1/2+x,1/2+y,z
1/2-x,1/2-y,z
1/2+x,1/2-y,-z
1/2-x,1/2+y,-z
1/2-x,1/2-y,-z
1/2+x,1/2+y,-z
1/2-x,1/2+y,z
1/2+x,1/2-y,z
loop_
_atom_site_type_symbol
_atom_site_label
_atom_site_fract_x
_atom_site_fract_y
_atom_site_fract_z
Si Si1 0.700729 0.166781 0.892723
Si Si2 0.388833 0.832961 0.760264
Si Si3 0.443935 0.333822 0.609086
Si Si4 0.942703 0.154980 0.102064
O O1 0.750000 0.250000 0.867375
O O2 0.661267 0.214465 0.813450
O O3 0.711433 0.000000 0.883593
O O4 0.683370 0.202672 0.000000
O O5 0.400811 0.752810 0.662707
O O6 0.431843 0.786360 0.830295
O O7 0.390207 0.000000 0.740931
O O8 0.436378 0.300199 0.500000
O O9 0.500000 0.289912 0.639025
O O10 0.436481 0.500000 0.630457
O O11 0.000000 0.145910 0.090060
O O12 0.923590 0.000000 0.140728
O O13 0.918568 0.183858 0.000000
#
# Coordination Sequence:
#
# PCOD8274270 Si02
#       4
#    16  16  16  16
#     4   9  19  35  52  72 100 132 166 204 246 294
#     4  11  21  31  48  75 103 128 158 203 256 303
#     4   9  19  36  55  74  99 133 172 210 245 288
#     4   9  18  31  45  64  94 132 170 201 230 278
#
# _framework density 17.656490000000002
#
# number of rings (size 3 to 8) (size 9 to 14) (size 15 to 20)
#    0.000    2.500    0.000    3.750    0.000    8.000 
#    0.000    5.000    0.000    0.750    0.000    0.000 
#    0.000    0.000    0.000    0.000    0.000    0.000 
#
# Total GULP energy -396427.787758 kJ/mol
# GULP energy per Si atom -12388.368367 kJ/mol
# Density = 1.761630 g / cm^3
# Si number density = 17.656490 Si / 1000 Ang^3
#
#
#
# Elastic Constant Matrix: (Units=GPa)
#
#
# Indices 1 2 3 4 5 6 
#
# 1 87.8053 51.5063 61.2045 0.0000 0.0000 0.0000
# 2 51.5063 65.2947 51.1705 0.0000 0.0000 0.0000
# 3 61.2045 51.1705 112.6869 0.0000 0.0000 0.0000
# 4 0.0000 0.0000 0.0000 -13.1314 0.0000 0.0000
# 5 0.0000 0.0000 0.0000 0.0000 33.2557 0.0000
# 6 0.0000 0.0000 0.0000 0.0000 0.0000 30.4014
#
#
#
# Elastic Compliance Matrix: (Units=1/GPa)
#
#
# Indices 1 2 3 4 5 6 
#
# 1 0.024276 -0.013688 -0.006970 0.000000 0.000000 0.000000
# 2 -0.013688 0.031494 -0.006867 0.000000 0.000000 0.000000
# 3 -0.006970 -0.006867 0.015778 0.000000 0.000000 0.000000
# 4 0.000000 0.000000 0.000000 -0.076153 0.000000 0.000000
# 5 0.000000 0.000000 0.000000 0.000000 0.030070 0.000000
# 6 0.000000 0.000000 0.000000 0.000000 0.000000 0.032893
#
#
# Mechanical properties :
#
#
# Convention : Reuss Voigt Hill
#
# Bulk Modulus (GPa) = 60.60878 65.94995 63.27937
# Shear Modulus (GPa) = 42.04983 16.89887 29.47435
#
# Velocity S-wave (km/s) = 4.88541 3.09704 4.09016
# Velocity P-wave (km/s) = 8.13782 7.08673 7.63039
#
# Compressibility (1/GPa) = 0.01649926
#
# Stress axis : x y z
#
# Youngs Moduli (GPa) = 41.19243 31.75223 63.37938
#
# Poissons Ratio (x) = 0.43461 0.44175
# Poissons Ratio (y) = 0.56383 0.43522
# Poissons Ratio (z) = 0.28711 0.21804
#
# Static dielectric constant tensor:
#      x y z
#    x 3.120970 0.000000 0.000000 
#    y 0.000000 3.363340 0.000000 
#    z 0.000000 0.000000 3.351250 
# 
# 
# High freq. dielectric constant tensor:
#      x y z
#    x 1.658390 0.000000 0.000000 
#    y 0.000000 1.682290 0.000000 
#    z 0.000000 0.000000 1.680880 
# 
# From -- ./inp_files/36804.got.cif
#   From: 2010.03.12/outbox.cif.g09.slc.cpg/sg65_19_cif.got.tgz:36804.got - 2010.04.10 20:52:16.
