data_PCOD8274772
_publ_section_title
;
Structure prediction by ZEFSAII (Michael W. Deem and Ramdas Pophale) SiO2 
 PCOD8274772
Probable space group: C M M M
;
_chemical_formula_sum "Si O2"
_cell_formula_units_Z 104
_cell_length_a 10.159638
_cell_length_b 18.293718
_cell_length_c 30.369502
_cell_angle_alpha 90.000000
_cell_angle_beta 90.000000
_cell_angle_gamma 90.000000
_cell_volume 5644.401314
_symmetry_space_group_name_H-M "C M M M"
_symmetry_group_IT_number 65
_symmetry_cell_setting 'orthorhombic'
loop_
_space_group_symop_operation_xyz
x,y,z
-x,-y,z
x,-y,-z
-x,y,-z
-x,-y,-z
x,y,-z
-x,y,z
x,-y,z
1/2+x,1/2+y,z
1/2-x,1/2-y,z
1/2+x,1/2-y,-z
1/2-x,1/2+y,-z
1/2-x,1/2-y,-z
1/2+x,1/2+y,-z
1/2-x,1/2+y,z
1/2+x,1/2-y,z
loop_
_atom_site_type_symbol
_atom_site_label
_atom_site_fract_x
_atom_site_fract_y
_atom_site_fract_z
Si Si1 0.147088 0.186137 0.625155
Si Si2 0.851019 0.585207 0.870418
Si Si3 0.500000 0.921513 0.551484
Si Si4 0.353034 0.412995 0.799044
Si Si5 0.649631 0.813136 0.049881
Si Si6 0.344261 0.418839 0.298601
Si Si7 0.215558 0.087045 0.449431
O O1 0.250000 0.250000 0.615074
O O2 0.207475 0.138760 0.665448
O O3 0.124522 0.133120 0.582998
O O4 0.000000 0.216761 0.636076
O O5 0.825632 0.500000 0.876280
O O6 0.750944 0.618793 0.834301
O O7 0.823009 0.619429 0.917990
O O8 0.000000 0.601414 0.854516
O O9 0.500000 0.937146 0.500000
O O10 0.362804 0.881887 0.562759
O O11 0.500000 0.000000 0.575770
O O12 0.500000 0.382596 0.809512
O O13 0.356090 0.500000 0.800719
O O14 0.306131 0.389521 0.750105
O O15 0.500000 0.783995 0.054992
O O16 0.750000 0.750000 0.063328
O O17 0.675735 0.840022 0.000000
O O18 0.500000 0.425357 0.302156
O O19 0.283396 0.500000 0.307133
O O20 0.177754 0.104246 0.500000
O O21 0.202840 0.000000 0.441028
#
# Coordination Sequence:
#
# PCOD8274772 Si02
#       7
#    16  16   8  16  16  16  16
#     4  11  24  38  53  75 106 139 168 204 251 299
#     4   9  17  29  47  73 103 129 156 199 252 299
#     4   7  12  26  50  78 102 124 151 191 241 283
#     4   8  14  27  50  76  98 123 159 202 246 295
#     4   9  18  32  48  66  92 130 172 208 244 289
#     4   8  15  32  57  78  95 124 168 209 244 288
#     4   9  18  34  58  83 104 130 168 210 247 288
#
# _framework density 18.425336999999999
#
# number of rings (size 3 to 8) (size 9 to 14) (size 15 to 20)
#    0.000    3.154    0.000    2.308    1.077    2.462 
#    0.000    3.846    0.000    4.615    0.000    4.308 
#    0.000    0.000    0.000    0.000    0.000    0.000 
#
# Total GULP energy -644283.548342 kJ/mol
# GULP energy per Si atom -12390.068237 kJ/mol
# Density = 1.838340 g / cm^3
# Si number density = 18.425337 Si / 1000 Ang^3
#
#
#
# Elastic Constant Matrix: (Units=GPa)
#
#
# Indices 1 2 3 4 5 6 
#
# 1 80.6755 35.1105 49.5378 0.0000 0.0000 0.0000
# 2 35.1105 58.3823 50.6145 0.0000 0.0000 0.0000
# 3 49.5378 50.6145 123.0762 0.0000 0.0000 0.0000
# 4 0.0000 0.0000 0.0000 13.4140 0.0000 0.0000
# 5 0.0000 0.0000 0.0000 0.0000 24.8749 0.0000
# 6 0.0000 0.0000 0.0000 0.0000 0.0000 22.3344
#
#
#
# Elastic Compliance Matrix: (Units=1/GPa)
#
#
# Indices 1 2 3 4 5 6 
#
# 1 0.018197 -0.007139 -0.004388 0.000000 0.000000 0.000000
# 2 -0.007139 0.029420 -0.009225 0.000000 0.000000 0.000000
# 3 -0.004388 -0.009225 0.013685 0.000000 0.000000 0.000000
# 4 0.000000 0.000000 0.000000 0.074549 0.000000 0.000000
# 5 0.000000 0.000000 0.000000 0.000000 0.040201 0.000000
# 6 0.000000 0.000000 0.000000 0.000000 0.000000 0.044774
#
#
# Mechanical properties :
#
#
# Convention : Reuss Voigt Hill
#
# Bulk Modulus (GPa) = 50.51377 59.18439 54.84908
# Shear Modulus (GPa) = 18.59223 20.58274 19.58748
#
# Velocity S-wave (km/s) = 3.18001 3.34591 3.26402
# Velocity P-wave (km/s) = 6.39986 6.86424 6.63611
#
# Compressibility (1/GPa) = 0.01979658
#
# Stress axis : x y z
#
# Youngs Moduli (GPa) = 54.95458 33.99095 73.07180
#
# Poissons Ratio (x) = 0.24266 0.32066
# Poissons Ratio (y) = 0.39232 0.67411
# Poissons Ratio (z) = 0.24116 0.31358
#
# Static dielectric constant tensor:
#      x y z
#    x 3.620370 0.000000 0.000000 
#    y 0.000000 3.107590 0.000000 
#    z 0.000000 0.000000 3.549760 
# 
# 
# High freq. dielectric constant tensor:
#      x y z
#    x 1.709130 0.000000 0.000000 
#    y 0.000000 1.677150 0.000000 
#    z 0.000000 0.000000 1.714010 
# 
# From -- ./inp_files/74397.got.cif
#   From: 2010.03.12/outbox.cif.g09.slc.cpg/sg65_38_cif.got.tgz:74397.got - 2010.04.10 20:52:16.
