data_PCOD8274997
_publ_section_title
;
Structure prediction by ZEFSAII (Michael W. Deem and Ramdas Pophale) SiO2 
 PCOD8274997
Probable space group: C M M M
;
_chemical_formula_sum "Si O2"
_cell_formula_units_Z 64
_cell_length_a 9.873148
_cell_length_b 41.292356
_cell_length_c 9.686244
_cell_angle_alpha 90.000000
_cell_angle_beta 90.000000
_cell_angle_gamma 90.000000
_cell_volume 3948.941636
_symmetry_space_group_name_H-M "C M M M"
_symmetry_group_IT_number 65
_symmetry_cell_setting 'orthorhombic'
loop_
_space_group_symop_operation_xyz
x,y,z
-x,-y,z
x,-y,-z
-x,y,-z
-x,-y,-z
x,y,-z
-x,y,z
x,-y,z
1/2+x,1/2+y,z
1/2-x,1/2-y,z
1/2+x,1/2-y,-z
1/2-x,1/2+y,-z
1/2-x,1/2-y,-z
1/2+x,1/2+y,-z
1/2-x,1/2+y,z
1/2+x,1/2-y,z
loop_
_atom_site_type_symbol
_atom_site_label
_atom_site_fract_x
_atom_site_fract_y
_atom_site_fract_z
Si Si1 0.157432 0.907360 0.661311
Si Si2 0.651665 0.964093 0.663925
Si Si3 0.849007 0.777291 0.835663
Si Si4 0.660950 0.348578 0.846595
O O1 0.183750 0.901543 0.500000
O O2 0.240749 0.938026 0.720038
O O3 0.212647 0.875720 0.740466
O O4 0.000000 0.914030 0.692130
O O5 0.656826 0.964492 0.500000
O O6 0.500000 0.954826 0.713605
O O7 0.690262 0.000000 0.719466
O O8 0.750000 0.750000 0.772683
O O9 0.792338 0.812950 0.794671
O O10 0.000000 0.771672 0.775310
O O11 0.854460 0.774930 0.000000
O O12 0.500000 0.348344 0.853021
O O13 0.718944 0.355972 0.000000
#
# Coordination Sequence:
#
# PCOD8274997 Si02
#       4
#    16  16  16  16
#     4   9  16  25  40  62  81  97 125 164 195 219
#     4   8  14  25  40  57  78 104 130 155 189 232
#     4   8  13  22  37  55  73  95 125 158 188 219
#     4   8  14  25  40  57  79 106 129 151 189 237
#
# _framework density 16.206875
#
# number of rings (size 3 to 8) (size 9 to 14) (size 15 to 20)
#    0.000    3.750    0.000    2.250    0.000    0.500 
#    0.000    3.750    0.000    3.750    0.000    5.250 
#    0.000    0.000    0.000    0.000    0.000    0.000 
#
# Total GULP energy -396510.439837 kJ/mol
# GULP energy per Si atom -12390.951245 kJ/mol
# Density = 1.616999 g / cm^3
# Si number density = 16.206875 Si / 1000 Ang^3
#
#
#
# Elastic Constant Matrix: (Units=GPa)
#
#
# Indices 1 2 3 4 5 6 
#
# 1 66.9223 74.7635 21.6664 0.0000 0.0000 0.0000
# 2 74.7635 175.4124 42.3364 0.0000 0.0000 0.0000
# 3 21.6664 42.3364 28.9599 0.0000 0.0000 0.0000
# 4 0.0000 0.0000 0.0000 22.9600 0.0000 0.0000
# 5 0.0000 0.0000 0.0000 0.0000 7.8508 0.0000
# 6 0.0000 0.0000 0.0000 0.0000 0.0000 30.5656
#
#
#
# Elastic Compliance Matrix: (Units=1/GPa)
#
#
# Indices 1 2 3 4 5 6 
#
# 1 0.029106 -0.011048 -0.005625 0.000000 0.000000 0.000000
# 2 -0.011048 0.013002 -0.010743 0.000000 0.000000 0.000000
# 3 -0.005625 -0.010743 0.054444 0.000000 0.000000 0.000000
# 4 0.000000 0.000000 0.000000 0.043554 0.000000 0.000000
# 5 0.000000 0.000000 0.000000 0.000000 0.127376 0.000000
# 6 0.000000 0.000000 0.000000 0.000000 0.000000 0.032716
#
#
# Mechanical properties :
#
#
# Convention : Reuss Voigt Hill
#
# Bulk Modulus (GPa) = 23.96864 60.98080 42.47472
# Shear Modulus (GPa) = 13.55246 21.11049 17.33148
#
# Velocity S-wave (km/s) = 2.89488 3.61302 3.27370
# Velocity P-wave (km/s) = 5.09853 7.42384 6.36822
#
# Compressibility (1/GPa) = 0.04172119
#
# Stress axis : x y z
#
# Youngs Moduli (GPa) = 34.35697 76.90847 18.36761
#
# Poissons Ratio (x) = 0.84968 0.10331
# Poissons Ratio (y) = 0.37957 0.19732
# Poissons Ratio (z) = 0.19325 0.82621
#
# Static dielectric constant tensor:
#      x y z
#    x 3.045310 0.000000 0.000000 
#    y 0.000000 3.566870 0.000000 
#    z 0.000000 0.000000 2.693920 
# 
# 
# High freq. dielectric constant tensor:
#      x y z
#    x 1.599120 0.000000 0.000000 
#    y 0.000000 1.637790 0.000000 
#    z 0.000000 0.000000 1.566870 
# 
# From -- ./inp_files/22196.got.cif
#   From: 2010.03.12/outbox.cif.g09.slc.cpg/sg65_12_cif.got.tgz:22196.got - 2010.04.10 20:52:16.
