data_PCOD8274969
_publ_section_title
;
Structure prediction by ZEFSAII (Michael W. Deem and Ramdas Pophale) SiO2 
 PCOD8274969
Probable space group: C M M M
;
_chemical_formula_sum "Si O2"
_cell_formula_units_Z 80
_cell_length_a 9.375053
_cell_length_b 27.866150
_cell_length_c 19.082167
_cell_angle_alpha 90.000000
_cell_angle_beta 90.000000
_cell_angle_gamma 90.000000
_cell_volume 4985.151882
_symmetry_space_group_name_H-M "C M M M"
_symmetry_group_IT_number 65
_symmetry_cell_setting 'orthorhombic'
loop_
_space_group_symop_operation_xyz
x,y,z
-x,-y,z
x,-y,-z
-x,y,-z
-x,-y,-z
x,y,-z
-x,y,z
x,-y,z
1/2+x,1/2+y,z
1/2-x,1/2-y,z
1/2+x,1/2-y,-z
1/2-x,1/2+y,-z
1/2-x,1/2-y,-z
1/2+x,1/2+y,-z
1/2-x,1/2+y,z
1/2+x,1/2-y,z
loop_
_atom_site_type_symbol
_atom_site_label
_atom_site_fract_x
_atom_site_fract_y
_atom_site_fract_z
Si Si1 0.668713 0.143643 0.709465
Si Si2 0.833116 0.298364 0.421064
Si Si3 0.832952 0.297762 0.157974
Si Si4 0.329527 0.053228 0.789313
Si Si5 0.831590 0.608541 0.922973
O O1 0.500000 0.140672 0.712929
O O2 0.719780 0.159982 0.632132
O O3 0.719470 0.182847 0.766281
O O4 0.727396 0.090508 0.729783
O O5 0.799608 0.315959 0.500000
O O6 0.750000 0.250000 0.403221
O O7 0.000000 0.287537 0.410954
O O8 0.750000 0.250000 0.137945
O O9 0.793725 0.337380 0.099848
O O10 0.000000 0.286323 0.158805
O O11 0.500000 0.052767 0.789708
O O12 0.272790 0.070740 0.865518
O O13 0.269031 0.000000 0.773522
O O14 0.000000 0.602815 0.926490
O O15 0.764739 0.598264 0.000000
#
# Coordination Sequence:
#
# PCOD8274969 Si02
#       5
#    16  16  16  16  16
#     4   8  14  24  36  51  73  98 122 150 184 218
#     4   9  16  25  38  56  78 103 127 150 178 212
#     4   9  16  25  37  52  72  99 125 148 178 215
#     4   8  13  21  34  51  70  95 124 150 181 222
#     4   8  14  23  33  48  71  95 119 150 186 218
#
# _framework density 16.047656
#
# number of rings (size 3 to 8) (size 9 to 14) (size 15 to 20)
#    0.000    3.600    0.000    3.000    0.000    0.800 
#    0.000    2.000    0.000    0.600    0.000    4.200 
#    0.000   20.000    0.000   12.200    0.000   13.200 
#
# Total GULP energy -495579.091973 kJ/mol
# GULP energy per Si atom -12389.477299 kJ/mol
# Density = 1.601113 g / cm^3
# Si number density = 16.047656 Si / 1000 Ang^3
#
#
#
# Elastic Constant Matrix: (Units=GPa)
#
#
# Indices 1 2 3 4 5 6 
#
# 1 12.8896 18.9559 12.5177 0.0000 0.0000 0.0000
# 2 18.9559 134.1779 71.6463 0.0000 0.0000 0.0000
# 3 12.5177 71.6463 131.4614 0.0000 0.0000 0.0000
# 4 0.0000 0.0000 0.0000 19.5413 0.0000 0.0000
# 5 0.0000 0.0000 0.0000 0.0000 8.9002 0.0000
# 6 0.0000 0.0000 0.0000 0.0000 0.0000 14.8351
#
#
#
# Elastic Compliance Matrix: (Units=1/GPa)
#
#
# Indices 1 2 3 4 5 6 
#
# 1 0.098521 -0.012566 -0.002533 0.000000 0.000000 0.000000
# 2 -0.012566 0.012115 -0.005406 0.000000 0.000000 0.000000
# 3 -0.002533 -0.005406 0.010794 0.000000 0.000000 0.000000
# 4 0.000000 0.000000 0.000000 0.051174 0.000000 0.000000
# 5 0.000000 0.000000 0.000000 0.000000 0.112358 0.000000
# 6 0.000000 0.000000 0.000000 0.000000 0.000000 0.067408
#
#
# Mechanical properties :
#
#
# Convention : Reuss Voigt Hill
#
# Bulk Modulus (GPa) = 12.43460 53.86318 33.14889
# Shear Modulus (GPa) = 11.89951 20.34925 16.12438
#
# Velocity S-wave (km/s) = 2.72602 3.56483 3.17327
# Velocity P-wave (km/s) = 4.20400 7.11206 5.84188
#
# Compressibility (1/GPa) = 0.08042077
#
# Stress axis : x y z
#
# Youngs Moduli (GPa) = 10.15008 82.54473 92.64263
#
# Poissons Ratio (x) = 1.03727 0.23462
# Poissons Ratio (y) = 0.12755 0.50082
# Poissons Ratio (z) = 0.02571 0.44623
#
# Static dielectric constant tensor:
#      x y z
#    x 2.474240 0.000000 0.000000 
#    y 0.000000 3.242920 0.000000 
#    z 0.000000 0.000000 3.417060 
# 
# 
# High freq. dielectric constant tensor:
#      x y z
#    x 1.552160 0.000000 0.000000 
#    y 0.000000 1.611650 0.000000 
#    z 0.000000 0.000000 1.619380 
# 
# From -- ./inp_files/50140.got.cif
#   From: 2010.03.12/outbox.cif.g09.slc.cpg/sg65_26_cif.got.tgz:50140.got - 2010.04.10 20:52:16.
