data_PCOD8274175
_publ_section_title
;
Structure prediction by ZEFSAII (Michael W. Deem and Ramdas Pophale) SiO2 
 PCOD8274175
Probable space group: C M M M
;
_chemical_formula_sum "Si O2"
_cell_formula_units_Z 96
_cell_length_a 14.296674
_cell_length_b 30.712173
_cell_length_c 13.775994
_cell_angle_alpha 90.000000
_cell_angle_beta 90.000000
_cell_angle_gamma 90.000000
_cell_volume 6048.789967
_symmetry_space_group_name_H-M "C M M M"
_symmetry_group_IT_number 65
_symmetry_cell_setting 'orthorhombic'
loop_
_space_group_symop_operation_xyz
x,y,z
-x,-y,z
x,-y,-z
-x,y,-z
-x,-y,-z
x,y,-z
-x,y,z
x,-y,z
1/2+x,1/2+y,z
1/2-x,1/2-y,z
1/2+x,1/2-y,-z
1/2-x,1/2+y,-z
1/2-x,1/2-y,-z
1/2+x,1/2+y,-z
1/2-x,1/2+y,z
1/2+x,1/2-y,z
loop_
_atom_site_type_symbol
_atom_site_label
_atom_site_fract_x
_atom_site_fract_y
_atom_site_fract_z
Si Si1 0.397086 0.000000 0.614098
Si Si2 0.896924 0.000000 0.614076
Si Si3 0.604547 0.281620 0.775248
Si Si4 0.104342 0.717774 0.390241
Si Si5 0.110005 0.695505 0.889546
Si Si6 0.749782 0.071398 0.615059
Si Si7 0.229884 0.658049 0.265989
O O1 0.341683 0.043539 0.643303
O O2 0.500000 0.000000 0.663515
O O3 0.407573 0.000000 0.500000
O O4 0.841093 0.043462 0.643196
O O5 0.907449 0.000000 0.500000
O O6 0.000000 0.000000 0.663318
O O7 0.500000 0.297644 0.803186
O O8 0.606754 0.263179 0.666341
O O9 0.637569 0.243175 0.848153
O O10 0.674404 0.322072 0.777247
O O11 0.128457 0.729125 0.500000
O O12 0.183192 0.685532 0.351864
O O13 0.000000 0.696745 0.379498
O O14 0.159202 0.657628 0.825948
O O15 0.000000 0.688337 0.879716
O O16 0.144343 0.692069 0.000000
O O17 0.749498 0.084234 0.500000
O O18 0.751373 0.111608 0.688163
#
# Coordination Sequence:
#
# PCOD8274175 Si02
#       7
#     8   8  16  16  16  16  16
#     4   8  15  29  46  61  83 115 142 169 212 263
#     4   8  15  31  50  63  85 124 160 186 216 258
#     4   9  19  31  41  59  86 117 154 188 216 255
#     4   9  17  28  40  56  83 119 152 178 210 258
#     4   9  18  33  50  66  87 117 152 188 225 265
#     4   9  18  29  42  67  95 116 147 184 217 262
#     4  11  19  27  44  67  90 113 144 186 229 266
#
# _framework density 15.870943
#
# number of rings (size 3 to 8) (size 9 to 14) (size 15 to 20)
#    0.000    2.833    0.000    5.000    0.000    5.333 
#    0.000    1.667    0.000    0.000    0.000    2.333 
#    0.000    6.667    0.000    0.000    0.000    0.000 
#
# Total GULP energy -594848.991557 kJ/mol
# GULP energy per Si atom -12392.687324 kJ/mol
# Density = 1.583482 g / cm^3
# Si number density = 15.870943 Si / 1000 Ang^3
#
#
#
# Elastic Constant Matrix: (Units=GPa)
#
#
# Indices 1 2 3 4 5 6 
#
# 1 104.1126 48.5552 27.7473 0.0000 0.0000 0.0000
# 2 48.5552 90.5145 36.8170 0.0000 0.0000 0.0000
# 3 27.7473 36.8170 100.7162 0.0000 0.0000 0.0000
# 4 0.0000 0.0000 0.0000 17.9366 0.0000 0.0000
# 5 0.0000 0.0000 0.0000 0.0000 15.2205 0.0000
# 6 0.0000 0.0000 0.0000 0.0000 0.0000 12.2527
#
#
#
# Elastic Compliance Matrix: (Units=1/GPa)
#
#
# Indices 1 2 3 4 5 6 
#
# 1 0.012933 -0.006447 -0.001206 0.000000 0.000000 0.000000
# 2 -0.006447 0.016191 -0.004143 0.000000 0.000000 0.000000
# 3 -0.001206 -0.004143 0.011776 0.000000 0.000000 0.000000
# 4 0.000000 0.000000 0.000000 0.055752 0.000000 0.000000
# 5 0.000000 0.000000 0.000000 0.000000 0.065701 0.000000
# 6 0.000000 0.000000 0.000000 0.000000 0.000000 0.081615
#
#
# Mechanical properties :
#
#
# Convention : Reuss Voigt Hill
#
# Bulk Modulus (GPa) = 57.77663 57.95359 57.86511
# Shear Modulus (GPa) = 18.29293 21.23020 19.76157
#
# Velocity S-wave (km/s) = 3.39869 3.66140 3.53248
# Velocity P-wave (km/s) = 7.20309 7.38033 7.29225
#
# Compressibility (1/GPa) = 0.01730804
#
# Stress axis : x y z
#
# Youngs Moduli (GPa) = 77.31985 61.76085 84.92147
#
# Poissons Ratio (x) = 0.39818 0.10244
# Poissons Ratio (y) = 0.49850 0.35180
# Poissons Ratio (z) = 0.09327 0.25585
#
# Static dielectric constant tensor:
#      x y z
#    x 3.648820 0.000000 0.000000 
#    y 0.000000 2.699290 0.000000 
#    z 0.000000 0.000000 2.926640 
# 
# 
# High freq. dielectric constant tensor:
#      x y z
#    x 1.628240 0.000000 0.000000 
#    y 0.000000 1.571770 0.000000 
#    z 0.000000 0.000000 1.584460 
# 
# From -- ./inp_files/41006.got.cif
#   From: 2010.03.12/outbox.cif.g09.slc.cpg/sg65_21_cif.got.tgz:41006.got - 2010.04.10 20:52:16.
