data_PCOD8274053
_publ_section_title
;
Structure prediction by ZEFSAII (Michael W. Deem and Ramdas Pophale) SiO2 
 PCOD8274053
Probable space group: C M M M
;
_chemical_formula_sum "Si O2"
_cell_formula_units_Z 72
_cell_length_a 14.559776
_cell_length_b 27.131361
_cell_length_c 9.780078
_cell_angle_alpha 90.000000
_cell_angle_beta 90.000000
_cell_angle_gamma 90.000000
_cell_volume 3863.390361
_symmetry_space_group_name_H-M "C M M M"
_symmetry_group_IT_number 65
_symmetry_cell_setting 'orthorhombic'
loop_
_space_group_symop_operation_xyz
x,y,z
-x,-y,z
x,-y,-z
-x,y,-z
-x,-y,-z
x,y,-z
-x,y,z
x,-y,z
1/2+x,1/2+y,z
1/2-x,1/2-y,z
1/2+x,1/2-y,-z
1/2-x,1/2+y,-z
1/2-x,1/2-y,-z
1/2+x,1/2+y,-z
1/2-x,1/2+y,z
1/2+x,1/2-y,z
loop_
_atom_site_type_symbol
_atom_site_label
_atom_site_fract_x
_atom_site_fract_y
_atom_site_fract_z
Si Si1 0.605370 0.946814 0.500000
Si Si2 0.500000 0.184761 0.157746
Si Si3 0.000000 0.945531 0.659123
Si Si4 0.160501 0.618655 0.251358
Si Si5 0.137072 0.861286 0.663378
Si Si6 0.108608 0.557969 0.000000
Si Si7 0.500000 0.301139 0.838752
O O1 0.500000 0.959055 0.500000
O O2 0.629573 0.915550 0.628655
O O3 0.657649 0.000000 0.500000
O O4 0.591040 0.163985 0.230392
O O5 0.500000 0.242799 0.172074
O O6 0.500000 0.167982 0.000000
O O7 0.090849 0.914209 0.698473
O O8 0.000000 0.954865 0.500000
O O9 0.000000 0.000000 0.731232
O O10 0.259243 0.640579 0.285987
O O11 0.161536 0.581914 0.125186
O O12 0.128090 0.849906 0.500000
O O13 0.088607 0.820116 0.756350
O O14 0.124698 0.500000 0.000000
O O15 0.000000 0.570571 0.000000
O O16 0.500000 0.317481 0.000000
#
# Coordination Sequence:
#
# PCOD8274053 Si02
#       7
#     8   8   8  16  16   8   8
#     4  11  22  36  56  90 132 166 204 243 296 365
#     4  11  23  43  64  89 121 157 212 258 309 368
#     4   8  16  34  59  81 111 156 197 236 285 349
#     4  12  21  39  61  90 126 165 202 255 304 361
#     4  10  22  41  61  91 128 157 198 252 311 367
#     4  11  22  38  60  86 126 174 210 245 298 355
#     4  10  24  44  69  88 111 160 206 261 315 365
#
# _framework density 18.636479999999999
#
# number of rings (size 3 to 8) (size 9 to 14) (size 15 to 20)
#    0.000    1.444    4.444    1.667    1.556    4.444 
#    4.000    3.333    0.000    1.333    0.000    0.000 
#    0.000    0.000    0.000    0.000    0.000    0.000 
#
# Total GULP energy -446202.682485 kJ/mol
# GULP energy per Si atom -12394.518958 kJ/mol
# Density = 1.859406 g / cm^3
# Si number density = 18.636480 Si / 1000 Ang^3
#
#
#
# Elastic Constant Matrix: (Units=GPa)
#
#
# Indices 1 2 3 4 5 6 
#
# 1 143.6181 57.8313 54.6552 0.0000 0.0000 0.0000
# 2 57.8313 132.5188 64.7104 0.0000 0.0000 0.0000
# 3 54.6552 64.7104 150.5476 0.0000 0.0000 0.0000
# 4 0.0000 0.0000 0.0000 38.5259 0.0000 0.0000
# 5 0.0000 0.0000 0.0000 0.0000 34.9470 0.0000
# 6 0.0000 0.0000 0.0000 0.0000 0.0000 20.9922
#
#
#
# Elastic Compliance Matrix: (Units=1/GPa)
#
#
# Indices 1 2 3 4 5 6 
#
# 1 0.008888 -0.002915 -0.001974 0.000000 0.000000 0.000000
# 2 -0.002915 0.010507 -0.003458 0.000000 0.000000 0.000000
# 3 -0.001974 -0.003458 0.008845 0.000000 0.000000 0.000000
# 4 0.000000 0.000000 0.000000 0.025957 0.000000 0.000000
# 5 0.000000 0.000000 0.000000 0.000000 0.028615 0.000000
# 6 0.000000 0.000000 0.000000 0.000000 0.000000 0.047637
#
#
# Mechanical properties :
#
#
# Convention : Reuss Voigt Hill
#
# Bulk Modulus (GPa) = 86.60437 86.78647 86.69542
# Shear Modulus (GPa) = 33.11486 35.52553 34.32019
#
# Velocity S-wave (km/s) = 4.21988 4.37078 4.29600
# Velocity P-wave (km/s) = 8.38537 8.49357 8.43965
#
# Compressibility (1/GPa) = 0.01154676
#
# Stress axis : x y z
#
# Youngs Moduli (GPa) = 112.51426 95.17767 113.05435
#
# Poissons Ratio (x) = 0.27743 0.22314
# Poissons Ratio (y) = 0.32796 0.39093
# Poissons Ratio (z) = 0.22208 0.32912
#
# Static dielectric constant tensor:
#      x y z
#    x 3.233280 0.000000 0.000000 
#    y 0.000000 3.606520 0.000000 
#    z 0.000000 0.000000 3.537650 
# 
# 
# High freq. dielectric constant tensor:
#      x y z
#    x 1.721560 0.000000 0.000000 
#    y 0.000000 1.730850 0.000000 
#    z 0.000000 0.000000 1.729510 
# 
# From -- ./inp_files/7454.got.cif
#   From: 2010.03.12/outbox.cif.g09.slc.cpg/sg65_4_cif.got.tgz:7454.got - 2010.04.10 20:52:16.
