data_PCOD8274769
_publ_section_title
;
Structure prediction by ZEFSAII (Michael W. Deem and Ramdas Pophale) SiO2 
 PCOD8274769
Probable space group: C M M M
;
_chemical_formula_sum "Si O2"
_cell_formula_units_Z 88
_cell_length_a 13.798736
_cell_length_b 22.480556
_cell_length_c 17.219245
_cell_angle_alpha 90.000000
_cell_angle_beta 90.000000
_cell_angle_gamma 90.000000
_cell_volume 5341.465889
_symmetry_space_group_name_H-M "C M M M"
_symmetry_group_IT_number 65
_symmetry_cell_setting 'orthorhombic'
loop_
_space_group_symop_operation_xyz
x,y,z
-x,-y,z
x,-y,-z
-x,y,-z
-x,-y,-z
x,y,-z
-x,y,z
x,-y,z
1/2+x,1/2+y,z
1/2-x,1/2-y,z
1/2+x,1/2-y,-z
1/2-x,1/2+y,-z
1/2-x,1/2-y,-z
1/2+x,1/2+y,-z
1/2-x,1/2+y,z
1/2+x,1/2-y,z
loop_
_atom_site_type_symbol
_atom_site_label
_atom_site_fract_x
_atom_site_fract_y
_atom_site_fract_z
Si Si1 0.385212 0.570060 0.500000
Si Si2 0.606875 0.778254 0.380227
Si Si3 0.792167 0.157244 0.803020
Si Si4 0.606027 0.776550 0.196625
Si Si5 0.703930 0.343313 0.619587
Si Si6 0.889323 0.930706 0.087065
O O1 0.362859 0.500000 0.500000
O O2 0.500000 0.582195 0.500000
O O3 0.335643 0.598491 0.576272
O O4 0.500000 0.792992 0.414830
O O5 0.602794 0.775441 0.288535
O O6 0.640133 0.713002 0.408201
O O7 0.684465 0.828782 0.405133
O O8 0.681937 0.172740 0.827816
O O9 0.860154 0.211472 0.830872
O O10 0.803304 0.144901 0.711489
O O11 0.819833 0.099137 0.850343
O O12 0.500000 0.790734 0.161128
O O13 0.000000 0.917003 0.109466
O O14 0.867812 0.000000 0.091222
O O15 0.867584 0.907249 0.000000
#
# Coordination Sequence:
#
# PCOD8274769 Si02
#       6
#     8  16  16  16  16  16
#     4  11  24  37  45  59  91 125 147 182 230 263
#     4   8  14  27  49  73  93 113 142 186 229 259
#     4   9  16  28  49  70  89 120 152 176 214 269
#     4   8  14  25  43  71 101 119 138 177 223 263
#     4   9  18  31  47  69  93 118 150 181 215 267
#     4   9  18  31  46  66  90 114 146 191 231 256
#
# _framework density 16.474878
#
# number of rings (size 3 to 8) (size 9 to 14) (size 15 to 20)
#    0.000    3.182    0.000    3.818    0.000    4.364 
#    0.000    5.000    0.000    3.273    0.000    6.364 
#    0.000    0.000    0.000    0.000    0.000    0.000 
#
# Total GULP energy -545269.294534 kJ/mol
# GULP energy per Si atom -12392.483967 kJ/mol
# Density = 1.643738 g / cm^3
# Si number density = 16.474878 Si / 1000 Ang^3
#
#
#
# Elastic Constant Matrix: (Units=GPa)
#
#
# Indices 1 2 3 4 5 6 
#
# 1 148.5041 58.8573 38.0494 0.0000 0.0000 0.0000
# 2 58.8573 85.0478 41.5215 0.0000 0.0000 0.0000
# 3 38.0494 41.5215 62.7824 0.0000 0.0000 0.0000
# 4 0.0000 0.0000 0.0000 -30.2589 0.0000 0.0000
# 5 0.0000 0.0000 0.0000 0.0000 15.2038 0.0000
# 6 0.0000 0.0000 0.0000 0.0000 0.0000 25.8486
#
#
#
# Elastic Compliance Matrix: (Units=1/GPa)
#
#
# Indices 1 2 3 4 5 6 
#
# 1 0.009458 -0.005534 -0.002072 0.000000 0.000000 0.000000
# 2 -0.005534 0.020603 -0.010272 0.000000 0.000000 0.000000
# 3 -0.002072 -0.010272 0.023977 0.000000 0.000000 0.000000
# 4 0.000000 0.000000 0.000000 -0.033048 0.000000 0.000000
# 5 0.000000 0.000000 0.000000 0.000000 0.065773 0.000000
# 6 0.000000 0.000000 0.000000 0.000000 0.000000 0.038687
#
#
# Mechanical properties :
#
#
# Convention : Reuss Voigt Hill
#
# Bulk Modulus (GPa) = 54.69832 63.68785 59.19308
# Shear Modulus (GPa) = 29.88660 12.68580 21.28620
#
# Velocity S-wave (km/s) = 4.26381 2.77791 3.59840
# Velocity P-wave (km/s) = 7.58375 7.00218 7.29876
#
# Compressibility (1/GPa) = 0.01828210
#
# Stress axis : x y z
#
# Youngs Moduli (GPa) = 105.73105 48.53771 41.70603
#
# Poissons Ratio (x) = 0.26859 0.08643
# Poissons Ratio (y) = 0.58508 0.42840
# Poissons Ratio (z) = 0.21911 0.49858
#
# Static dielectric constant tensor:
#      x y z
#    x 3.779650 0.000000 0.000000 
#    y 0.000000 2.821660 0.000000 
#    z 0.000000 0.000000 2.853110 
# 
# 
# High freq. dielectric constant tensor:
#      x y z
#    x 1.641400 0.000000 0.000000 
#    y 0.000000 1.604490 0.000000 
#    z 0.000000 0.000000 1.616780 
# 
# From -- ./inp_files/53210.got.cif
#   From: 2010.03.12/outbox.cif.g09.slc.cpg/sg65_27_cif.got.tgz:53210.got - 2010.04.10 20:52:16.
