data_PCOD8274382
_publ_section_title
;
Structure prediction by ZEFSAII (Michael W. Deem and Ramdas Pophale) SiO2 
 PCOD8274382
Probable space group: C M M M
;
_chemical_formula_sum "Si O2"
_cell_formula_units_Z 80
_cell_length_a 8.710031
_cell_length_b 23.911049
_cell_length_c 20.411482
_cell_angle_alpha 90.000000
_cell_angle_beta 90.000000
_cell_angle_gamma 90.000000
_cell_volume 4251.017262
_symmetry_space_group_name_H-M "C M M M"
_symmetry_group_IT_number 65
_symmetry_cell_setting 'orthorhombic'
loop_
_space_group_symop_operation_xyz
x,y,z
-x,-y,z
x,-y,-z
-x,y,-z
-x,-y,-z
x,y,-z
-x,y,z
x,-y,z
1/2+x,1/2+y,z
1/2-x,1/2-y,z
1/2+x,1/2-y,-z
1/2-x,1/2+y,-z
1/2-x,1/2-y,-z
1/2+x,1/2+y,-z
1/2-x,1/2+y,z
1/2+x,1/2-y,z
loop_
_atom_site_type_symbol
_atom_site_label
_atom_site_fract_x
_atom_site_fract_y
_atom_site_fract_z
Si Si1 0.681679 0.615623 0.308497
Si Si2 0.182048 0.688915 0.806968
Si Si3 0.819653 0.808022 0.573165
Si Si4 0.317660 0.000000 0.871846
Si Si5 0.182435 0.500000 0.278092
Si Si6 0.817504 0.616171 0.927246
O O1 0.500000 0.615602 0.297671
O O2 0.760228 0.648187 0.249313
O O3 0.730271 0.643697 0.377029
O O4 0.746899 0.553511 0.313617
O O5 0.250000 0.750000 0.797407
O O6 0.238421 0.663654 0.876599
O O7 0.000000 0.692285 0.803215
O O8 0.759065 0.822838 0.500000
O O9 0.750000 0.750000 0.598547
O O10 0.000000 0.800352 0.572799
O O11 0.263131 0.000000 0.797039
O O12 0.251091 0.944614 0.906905
O O13 0.500000 0.000000 0.875599
O O14 0.000000 0.500000 0.284689
O O15 0.000000 0.612869 0.926128
O O16 0.757077 0.631493 0.000000
#
# Coordination Sequence:
#
# PCOD8274382 Si02
#       6
#    16  16  16   8   8  16
#     4  11  22  37  58  84 112 145 183 226 276 327
#     4  11  22  36  54  79 110 145 186 229 277 329
#     4   9  19  36  58  84 113 145 183 225 270 320
#     4   9  15  29  52  79 103 131 173 224 273 320
#     4  11  21  36  58  84 112 146 183 225 275 325
#     4   9  17  30  51  78 106 138 180 228 277 329
#
# _framework density 18.819025
#
# number of rings (size 3 to 8) (size 9 to 14) (size 15 to 20)
#    0.000    2.000    2.000    2.400    0.000    4.800 
#    0.000    0.500    0.000    4.800    0.000    1.400 
#    0.000    0.000    0.000    0.000    0.000    0.000 
#
# Total GULP energy -496016.026330 kJ/mol
# GULP energy per Si atom -12400.400658 kJ/mol
# Density = 1.877619 g / cm^3
# Si number density = 18.819025 Si / 1000 Ang^3
#
#
#
# Elastic Constant Matrix: (Units=GPa)
#
#
# Indices 1 2 3 4 5 6 
#
# 1 46.8870 35.7846 37.0244 0.0000 0.0000 0.0000
# 2 35.7846 159.5680 75.6518 0.0000 0.0000 0.0000
# 3 37.0244 75.6518 132.3013 0.0000 0.0000 0.0000
# 4 0.0000 0.0000 0.0000 85.6983 0.0000 0.0000
# 5 0.0000 0.0000 0.0000 0.0000 22.1919 0.0000
# 6 0.0000 0.0000 0.0000 0.0000 0.0000 23.9892
#
#
#
# Elastic Compliance Matrix: (Units=1/GPa)
#
#
# Indices 1 2 3 4 5 6 
#
# 1 0.028827 -0.003622 -0.005996 0.000000 0.000000 0.000000
# 2 -0.003622 0.009053 -0.004163 0.000000 0.000000 0.000000
# 3 -0.005996 -0.004163 0.011617 0.000000 0.000000 0.000000
# 4 0.000000 0.000000 0.000000 0.011669 0.000000 0.000000
# 5 0.000000 0.000000 0.000000 0.000000 0.045062 0.000000
# 6 0.000000 0.000000 0.000000 0.000000 0.000000 0.041685
#
#
# Mechanical properties :
#
#
# Convention : Reuss Voigt Hill
#
# Bulk Modulus (GPa) = 45.58969 70.63088 58.11028
# Shear Modulus (GPa) = 27.35435 39.06225 33.20830
#
# Velocity S-wave (km/s) = 3.81668 4.56090 4.20529
# Velocity P-wave (km/s) = 6.61064 8.08387 7.38409
#
# Compressibility (1/GPa) = 0.02193478
#
# Stress axis : x y z
#
# Youngs Moduli (GPa) = 34.68960 110.46251 86.08103
#
# Poissons Ratio (x) = 0.40009 0.51616
# Poissons Ratio (y) = 0.12564 0.35835
# Poissons Ratio (z) = 0.20800 0.45985
#
# Static dielectric constant tensor:
#      x y z
#    x 3.213360 0.000000 0.000000 
#    y 0.000000 3.588170 0.000000 
#    z 0.000000 0.000000 3.846930 
# 
# 
# High freq. dielectric constant tensor:
#      x y z
#    x 1.707390 0.000000 0.000000 
#    y 0.000000 1.737550 0.000000 
#    z 0.000000 0.000000 1.738190 
# 
# From -- ./inp_files/59649.got.cif
#   From: 2010.03.12/outbox.cif.g09.slc.cpg/sg65_30_cif.got.tgz:59649.got - 2010.04.10 20:52:16.
