data_PCOD8274288
_publ_section_title
;
Structure prediction by ZEFSAII (Michael W. Deem and Ramdas Pophale) SiO2 
 PCOD8274288
Probable space group: C M M M
;
_chemical_formula_sum "Si O2"
_cell_formula_units_Z 88
_cell_length_a 28.011225
_cell_length_b 19.337058
_cell_length_c 8.902240
_cell_angle_alpha 90.000000
_cell_angle_beta 90.000000
_cell_angle_gamma 90.000000
_cell_volume 4821.939981
_symmetry_space_group_name_H-M "C M M M"
_symmetry_group_IT_number 65
_symmetry_cell_setting 'orthorhombic'
loop_
_space_group_symop_operation_xyz
x,y,z
-x,-y,z
x,-y,-z
-x,y,-z
-x,-y,-z
x,y,-z
-x,y,z
x,-y,z
1/2+x,1/2+y,z
1/2-x,1/2-y,z
1/2+x,1/2-y,-z
1/2-x,1/2+y,-z
1/2-x,1/2-y,-z
1/2+x,1/2+y,-z
1/2-x,1/2+y,z
1/2+x,1/2-y,z
loop_
_atom_site_type_symbol
_atom_site_label
_atom_site_fract_x
_atom_site_fract_y
_atom_site_fract_z
Si Si1 0.737957 0.077949 0.178951
Si Si2 0.176007 0.825190 0.178346
Si Si3 0.500000 0.421247 0.163702
Si Si4 0.947445 0.706209 0.825056
Si Si5 0.844922 0.671206 0.176826
Si Si6 0.079282 0.846278 0.322783
O O1 0.778509 0.131199 0.235910
O O2 0.687446 0.108619 0.240722
O O3 0.744991 0.000000 0.243588
O O4 0.738545 0.074738 0.000000
O O5 0.176174 0.745046 0.234097
O O6 0.130433 0.861161 0.250781
O O7 0.171998 0.828483 0.000000
O O8 0.500000 0.500000 0.124417
O O9 0.546236 0.406808 0.263258
O O10 0.500000 0.381826 0.000000
O O11 0.901090 0.659796 0.777943
O O12 0.945107 0.775147 0.728618
O O13 0.000000 0.670890 0.795936
O O14 0.942075 0.725616 0.000000
O O15 0.839371 0.670635 0.000000
O O16 0.083509 0.847360 0.500000
#
# Coordination Sequence:
#
# PCOD8274288 Si02
#       6
#    16  16   8  16  16  16
#     4   9  16  26  44  70  96 122 160 209 252 288
#     4   9  17  30  48  68  92 126 164 200 241 293
#     4  11  23  37  51  65  89 129 168 197 230 283
#     4   9  16  28  49  71  94 124 158 194 235 288
#     4   8  14  25  43  68  94 123 160 203 245 289
#     4  11  21  32  48  71  97 122 153 201 249 283
#
# _framework density 18.249915999999999
#
# number of rings (size 3 to 8) (size 9 to 14) (size 15 to 20)
#    0.000    2.636    0.909    3.545    0.000    3.636 
#    0.000    1.818    0.000    9.273    0.000    3.818 
#    0.000    0.000    0.000    6.545    0.000    7.273 
#
# Total GULP energy -545078.942037 kJ/mol
# GULP energy per Si atom -12388.157774 kJ/mol
# Density = 1.820838 g / cm^3
# Si number density = 18.249916 Si / 1000 Ang^3
#
#
#
# Elastic Constant Matrix: (Units=GPa)
#
#
# Indices 1 2 3 4 5 6 
#
# 1 171.2115 61.0461 15.1319 0.0000 0.0000 0.0000
# 2 61.0461 74.1163 7.3998 0.0000 0.0000 0.0000
# 3 15.1319 7.3998 21.1509 0.0000 0.0000 0.0000
# 4 0.0000 0.0000 0.0000 2.5086 0.0000 0.0000
# 5 0.0000 0.0000 0.0000 0.0000 -1.2237 0.0000
# 6 0.0000 0.0000 0.0000 0.0000 0.0000 -4.1915
#
#
#
# Elastic Compliance Matrix: (Units=1/GPa)
#
#
# Indices 1 2 3 4 5 6 
#
# 1 0.008552 -0.006666 -0.003786 0.000000 0.000000 0.000000
# 2 -0.006666 0.019176 -0.001940 0.000000 0.000000 0.000000
# 3 -0.003786 -0.001940 0.050667 0.000000 0.000000 0.000000
# 4 0.000000 0.000000 0.000000 0.398621 0.000000 0.000000
# 5 0.000000 0.000000 0.000000 0.000000 -0.817161 0.000000
# 6 0.000000 0.000000 0.000000 0.000000 0.000000 -0.238579
#
#
# Mechanical properties :
#
#
# Convention : Reuss Voigt Hill
#
# Bulk Modulus (GPa) = 18.65292 48.18158 33.41725
# Shear Modulus (GPa) = -9.32715 11.61208 1.14246
#
# Velocity S-wave (km/s) = -2.26316 2.52520 0.79207
# Velocity P-wave (km/s) = 1.84766 5.91274 4.38031
#
# Compressibility (1/GPa) = 0.05361091
#
# Stress axis : x y z
#
# Youngs Moduli (GPa) = 116.92973 52.14731 19.73679
#
# Poissons Ratio (x) = 0.34761 0.07473
# Poissons Ratio (y) = 0.77945 0.03829
# Poissons Ratio (z) = 0.44273 0.10116
#
# Static dielectric constant tensor:
#      x y z
#    x 3.869420 0.000000 0.000000 
#    y 0.000000 3.305400 0.000000 
#    z 0.000000 0.000000 2.950730 
# 
# 
# High freq. dielectric constant tensor:
#      x y z
#    x 1.728670 0.000000 0.000000 
#    y 0.000000 1.669960 0.000000 
#    z 0.000000 0.000000 1.662870 
# 
# From -- ./inp_files/10037.got.cif
#   From: 2010.03.12/outbox.cif.g09.slc.cpg/sg65_6_cif.got.tgz:10037.got - 2010.04.10 20:52:16.
