data_PCOD8274445
_publ_section_title
;
Structure prediction by ZEFSAII (Michael W. Deem and Ramdas Pophale) SiO2 
 PCOD8274445
Probable space group: C M M M
;
_chemical_formula_sum "Si O2"
_cell_formula_units_Z 88
_cell_length_a 8.880835
_cell_length_b 18.574431
_cell_length_c 28.698428
_cell_angle_alpha 90.000000
_cell_angle_beta 90.000000
_cell_angle_gamma 90.000000
_cell_volume 4733.991002
_symmetry_space_group_name_H-M "C M M M"
_symmetry_group_IT_number 65
_symmetry_cell_setting 'orthorhombic'
loop_
_space_group_symop_operation_xyz
x,y,z
-x,-y,z
x,-y,-z
-x,y,-z
-x,-y,-z
x,y,-z
-x,y,z
x,-y,z
1/2+x,1/2+y,z
1/2-x,1/2-y,z
1/2+x,1/2-y,-z
1/2-x,1/2+y,-z
1/2-x,1/2-y,-z
1/2+x,1/2+y,-z
1/2-x,1/2+y,z
1/2+x,1/2-y,z
loop_
_atom_site_type_symbol
_atom_site_label
_atom_site_fract_x
_atom_site_fract_y
_atom_site_fract_z
Si Si1 0.178156 0.420491 0.182426
Si Si2 0.678868 0.081767 0.717316
Si Si3 0.827490 0.916634 0.446488
Si Si4 0.174744 0.414385 0.918473
Si Si5 0.323139 0.328021 0.000000
Si Si6 0.177389 0.672733 0.631319
O O1 0.248540 0.500000 0.183384
O O2 0.227889 0.384207 0.231819
O O3 0.225804 0.384486 0.133128
O O4 0.000000 0.427102 0.181297
O O5 0.500000 0.080386 0.713467
O O6 0.745673 0.130863 0.676191
O O7 0.739897 0.000000 0.711892
O O8 0.795437 0.896783 0.500000
O O9 0.715990 0.870172 0.415354
O O10 0.000000 0.898799 0.433731
O O11 0.792881 0.000000 0.437366
O O12 0.202212 0.500000 0.922280
O O13 0.000000 0.396959 0.928498
O O14 0.276654 0.372599 0.954707
O O15 0.250000 0.250000 0.000000
O O16 0.500000 0.317614 0.000000
O O17 0.250000 0.750000 0.629202
O O18 0.000000 0.681229 0.635083
#
# Coordination Sequence:
#
# PCOD8274445 Si02
#       6
#    16  16  16  16   8  16
#     4   7  11  23  47  77 103 127 159 201 247 295
#     4   8  14  27  49  76 102 129 166 209 250 294
#     4   9  19  37  59  80 102 129 163 207 259 311
#     4   9  17  32  56  82 105 131 165 204 248 302
#     4  12  25  38  51  69  99 137 173 212 257 302
#     4  11  22  34  50  74 106 142 176 211 250 295
#
# _framework density 18.588965999999999
#
# number of rings (size 3 to 8) (size 9 to 14) (size 15 to 20)
#    0.000    2.909    0.000    4.909    0.000    3.273 
#    0.000    1.818    0.000    4.364    0.000    5.091 
#    0.000    0.000    0.000    0.000    0.000    0.000 
#
# Total GULP energy -545096.836293 kJ/mol
# GULP energy per Si atom -12388.564461 kJ/mol
# Density = 1.854666 g / cm^3
# Si number density = 18.588966 Si / 1000 Ang^3
#
#
#
# Elastic Constant Matrix: (Units=GPa)
#
#
# Indices 1 2 3 4 5 6 
#
# 1 60.4433 34.4519 44.2994 0.0000 0.0000 0.0000
# 2 34.4519 77.6698 67.8889 0.0000 0.0000 0.0000
# 3 44.2994 67.8889 168.0928 0.0000 0.0000 0.0000
# 4 0.0000 0.0000 0.0000 0.0041 0.0000 0.0000
# 5 0.0000 0.0000 0.0000 0.0000 13.1114 0.0000
# 6 0.0000 0.0000 0.0000 0.0000 0.0000 4.3031
#
#
#
# Elastic Compliance Matrix: (Units=1/GPa)
#
#
# Indices 1 2 3 4 5 6 
#
# 1 0.023089 -0.007609 -0.003012 0.000000 0.000000 0.000000
# 2 -0.007609 0.022408 -0.007045 0.000000 0.000000 0.000000
# 3 -0.003012 -0.007045 0.009588 0.000000 0.000000 0.000000
# 4 0.000000 0.000000 0.000000243.461509 0.000000 0.000000
# 5 0.000000 0.000000 0.000000 0.000000 0.076269 0.000000
# 6 0.000000 0.000000 0.000000 0.000000 0.000000 0.232391
#
#
# Mechanical properties :
#
#
# Convention : Reuss Voigt Hill
#
# Bulk Modulus (GPa) = 50.62357 66.60959 58.61658
# Shear Modulus (GPa) = 0.02050 14.12145 7.07097
#
# Velocity S-wave (km/s) = 0.10514 2.75920 1.95246
# Velocity P-wave (km/s) = 5.22561 6.78687 6.05675
#
# Compressibility (1/GPa) = 0.01975364
#
# Stress axis : x y z
#
# Youngs Moduli (GPa) = 43.31107 44.62764 104.29706
#
# Poissons Ratio (x) = 0.33957 0.31412
# Poissons Ratio (y) = 0.32955 0.73474
# Poissons Ratio (z) = 0.13044 0.31439
#
# Static dielectric constant tensor:
#      x y z
#    x 3.013330 0.000000 0.000000 
#    y 0.000000 3.222660 0.000000 
#    z 0.000000 0.000000 3.999010 
# 
# 
# High freq. dielectric constant tensor:
#      x y z
#    x 1.681800 0.000000 0.000000 
#    y 0.000000 1.692490 0.000000 
#    z 0.000000 0.000000 1.750710 
# 
# From -- ./inp_files/76437.got.cif
#   From: 2010.03.12/outbox.cif.g09.slc.cpg/sg65_39_cif.got.tgz:76437.got - 2010.04.10 20:52:16.
