data_PCOD8274746
_publ_section_title
;
Structure prediction by ZEFSAII (Michael W. Deem and Ramdas Pophale) SiO2 
 PCOD8274746
Probable space group: C M M M
;
_chemical_formula_sum "Si O2"
_cell_formula_units_Z 64
_cell_length_a 15.364740
_cell_length_b 9.088167
_cell_length_c 21.944328
_cell_angle_alpha 90.000000
_cell_angle_beta 90.000000
_cell_angle_gamma 90.000000
_cell_volume 3064.247218
_symmetry_space_group_name_H-M "C M M M"
_symmetry_group_IT_number 65
_symmetry_cell_setting 'orthorhombic'
loop_
_space_group_symop_operation_xyz
x,y,z
-x,-y,z
x,-y,-z
-x,y,-z
-x,-y,-z
x,y,-z
-x,y,z
x,-y,z
1/2+x,1/2+y,z
1/2-x,1/2-y,z
1/2+x,1/2-y,-z
1/2-x,1/2+y,-z
1/2-x,1/2-y,-z
1/2+x,1/2+y,-z
1/2-x,1/2+y,z
1/2+x,1/2-y,z
loop_
_atom_site_type_symbol
_atom_site_label
_atom_site_fract_x
_atom_site_fract_y
_atom_site_fract_z
Si Si1 0.896207 0.165905 0.618025
Si Si2 0.337837 0.173227 0.868598
Si Si3 0.000000 0.831684 0.927869
Si Si4 0.396090 0.165905 0.500000
Si Si5 0.099769 0.330997 0.263978
O O1 0.859001 0.253515 0.559960
O O2 0.860635 0.236193 0.680630
O O3 0.000000 0.173770 0.617920
O O4 0.862056 0.000000 0.613879
O O5 0.250000 0.250000 0.891888
O O6 0.415932 0.246975 0.904506
O O7 0.346220 0.202760 0.796576
O O8 0.336377 0.000000 0.883183
O O9 0.000000 0.000000 0.903786
O O10 0.000000 0.828100 0.000000
O O11 0.500000 0.170626 0.500000
O O12 0.361256 0.000000 0.500000
O O13 0.106310 0.500000 0.283745
O O14 0.000000 0.287476 0.250438
#
# Coordination Sequence:
#
# PCOD8274746 Si02
#       5
#    16  16   8   8  16
#     4   9  16  24  38  64  97 136 184 239 296 351
#     4  11  23  41  65  95 128 166 208 255 306 363
#     4  11  25  45  69  97 129 166 207 252 303 361
#     4   9  15  23  35  55  90 137 184 234 293 354
#     4   9  17  32  52  76 109 149 194 241 297 359
#
# _framework density 20.886043999999998
#
# number of rings (size 3 to 8) (size 9 to 14) (size 15 to 20)
#    0.000    2.250    1.250    2.250    0.000    8.000 
#    0.000    0.000    0.000    0.000    0.000    0.875 
#    0.000    0.000    0.000    0.000    0.000    0.000 
#
# Total GULP energy -396872.153800 kJ/mol
# GULP energy per Si atom -12402.254806 kJ/mol
# Density = 2.083851 g / cm^3
# Si number density = 20.886044 Si / 1000 Ang^3
#
#
#
# Elastic Constant Matrix: (Units=GPa)
#
#
# Indices 1 2 3 4 5 6 
#
# 1 92.8068 56.5445 35.9267 0.0000 0.0000 0.0000
# 2 56.5445 174.1304 76.1808 0.0000 0.0000 0.0000
# 3 35.9267 76.1808 98.8159 0.0000 0.0000 0.0000
# 4 0.0000 0.0000 0.0000 39.6447 0.0000 0.0000
# 5 0.0000 0.0000 0.0000 0.0000 14.7274 0.0000
# 6 0.0000 0.0000 0.0000 0.0000 0.0000 23.0861
#
#
#
# Elastic Compliance Matrix: (Units=1/GPa)
#
#
# Indices 1 2 3 4 5 6 
#
# 1 0.013787 -0.003446 -0.002356 0.000000 0.000000 0.000000
# 2 -0.003446 0.009527 -0.006092 0.000000 0.000000 0.000000
# 3 -0.002356 -0.006092 0.015673 0.000000 0.000000 0.000000
# 4 0.000000 0.000000 0.000000 0.025224 0.000000 0.000000
# 5 0.000000 0.000000 0.000000 0.000000 0.067901 0.000000
# 6 0.000000 0.000000 0.000000 0.000000 0.000000 0.043316
#
#
# Mechanical properties :
#
#
# Convention : Reuss Voigt Hill
#
# Bulk Modulus (GPa) = 65.79359 78.11745 71.95552
# Shear Modulus (GPa) = 24.47613 28.63172 26.55392
#
# Velocity S-wave (km/s) = 3.42700 3.70652 3.56950
# Velocity P-wave (km/s) = 6.87232 7.46999 7.17737
#
# Compressibility (1/GPa) = 0.01519905
#
# Stress axis : x y z
#
# Youngs Moduli (GPa) = 72.53368 104.96451 63.80579
#
# Poissons Ratio (x) = 0.36175 0.15030
# Poissons Ratio (y) = 0.24998 0.38869
# Poissons Ratio (z) = 0.17085 0.63942
#
# Static dielectric constant tensor:
#      x y z
#    x 3.539480 0.000000 0.000000 
#    y 0.000000 3.923730 0.000000 
#    z 0.000000 0.000000 3.812700 
# 
# 
# High freq. dielectric constant tensor:
#      x y z
#    x 1.788410 0.000000 0.000000 
#    y 0.000000 1.827770 0.000000 
#    z 0.000000 0.000000 1.821550 
# 
# From -- ./inp_files/66791.got.cif
#   From: 2010.03.12/outbox.cif.g09.slc.cpg/sg65_34_cif.got.tgz:66791.got - 2010.04.10 20:52:16.
