data_PCOD8274979
_publ_section_title
;
Structure prediction by ZEFSAII (Michael W. Deem and Ramdas Pophale) SiO2 
 PCOD8274979
Probable space group: C M M M
;
_chemical_formula_sum "Si O2"
_cell_formula_units_Z 120
_cell_length_a 19.503018
_cell_length_b 14.351517
_cell_length_c 23.358175
_cell_angle_alpha 90.000000
_cell_angle_beta 90.000000
_cell_angle_gamma 90.000000
_cell_volume 6537.903999
_symmetry_space_group_name_H-M "C M M M"
_symmetry_group_IT_number 65
_symmetry_cell_setting 'orthorhombic'
loop_
_space_group_symop_operation_xyz
x,y,z
-x,-y,z
x,-y,-z
-x,y,-z
-x,-y,-z
x,y,-z
-x,y,z
x,-y,z
1/2+x,1/2+y,z
1/2-x,1/2-y,z
1/2+x,1/2-y,-z
1/2-x,1/2+y,-z
1/2-x,1/2-y,-z
1/2+x,1/2+y,-z
1/2-x,1/2+y,z
1/2+x,1/2-y,z
loop_
_atom_site_type_symbol
_atom_site_label
_atom_site_fract_x
_atom_site_fract_y
_atom_site_fract_z
Si Si1 0.576516 0.888723 0.000000
Si Si2 0.081616 0.395069 0.436633
Si Si3 0.659105 0.110950 0.108302
Si Si4 0.576191 0.610898 0.855060
Si Si5 0.195794 0.888762 0.065024
Si Si6 0.081291 0.897801 0.727151
Si Si7 0.921485 0.610102 0.782093
Si Si8 0.918462 0.716162 0.329820
O O1 0.614323 0.850123 0.055996
O O2 0.500000 0.848939 0.000000
O O3 0.577030 0.000000 0.000000
O O4 0.106374 0.363450 0.500000
O O5 0.107437 0.500000 0.423743
O O6 0.112544 0.324584 0.389035
O O7 0.000000 0.393870 0.434109
O O8 0.736575 0.146730 0.098502
O O9 0.626517 0.149890 0.167104
O O10 0.656668 0.000000 0.109394
O O11 0.500000 0.650571 0.868396
O O12 0.574365 0.500000 0.859025
O O13 0.630087 0.652059 0.900997
O O14 0.600442 0.638127 0.790885
O O15 0.194644 0.000000 0.064273
O O16 0.194970 0.850758 0.000000
O O17 0.108182 0.821995 0.680967
O O18 0.000000 0.906291 0.724028
O O19 0.113763 0.000000 0.713938
O O20 0.915812 0.500000 0.776949
O O21 0.894199 0.652171 0.722748
O O22 0.000000 0.640375 0.794673
O O23 0.000000 0.714820 0.333205
#
# Coordination Sequence:
#
# PCOD8274979 Si02
#       8
#     8  16  16  16  16  16  16  16
#     4   9  14  20  32  48  69 102 144 182 209 246
#     4   8  13  21  34  55  86 122 155 182 208 247
#     4   9  15  23  33  50  77 108 140 173 212 261
#     4   8  14  24  38  57  78  98 127 174 229 279
#     4   9  15  23  36  55  79 105 135 173 218 275
#     4   8  14  25  40  58  78 100 132 177 226 271
#     4   9  16  24  35  55  82 109 141 181 219 256
#     4   9  15  23  38  58  79 109 145 181 220 258
#
# _framework density 18.354507000000002
#
# number of rings (size 3 to 8) (size 9 to 14) (size 15 to 20)
#    0.000    3.400    0.667    2.000    0.000    3.467 
#    0.000    1.333    0.000    1.200    1.733    3.733 
#    0.000    0.000    0.000    2.400    0.000   23.600 
#
# Total GULP energy -743551.523238 kJ/mol
# GULP energy per Si atom -12392.525387 kJ/mol
# Density = 1.831273 g / cm^3
# Si number density = 18.354507 Si / 1000 Ang^3
#
#
#
# Elastic Constant Matrix: (Units=GPa)
#
#
# Indices 1 2 3 4 5 6 
#
# 1 71.0433 22.2949 50.4338 0.0000 0.0000 0.0000
# 2 22.2949 48.8374 61.3954 0.0000 0.0000 0.0000
# 3 50.4338 61.3954 169.3072 0.0000 0.0000 0.0000
# 4 0.0000 0.0000 0.0000 19.6631 0.0000 0.0000
# 5 0.0000 0.0000 0.0000 0.0000 7.8334 0.0000
# 6 0.0000 0.0000 0.0000 0.0000 0.0000 2.8089
#
#
#
# Elastic Compliance Matrix: (Units=1/GPa)
#
#
# Indices 1 2 3 4 5 6 
#
# 1 0.018045 -0.002720 -0.004389 0.000000 0.000000 0.000000
# 2 -0.002720 0.038041 -0.012984 0.000000 0.000000 0.000000
# 3 -0.004389 -0.012984 0.011922 0.000000 0.000000 0.000000
# 4 0.000000 0.000000 0.000000 0.050857 0.000000 0.000000
# 5 0.000000 0.000000 0.000000 0.000000 0.127659 0.000000
# 6 0.000000 0.000000 0.000000 0.000000 0.000000 0.356008
#
#
# Mechanical properties :
#
#
# Convention : Reuss Voigt Hill
#
# Bulk Modulus (GPa) = 35.94358 61.93735 48.94047
# Shear Modulus (GPa) = 7.66878 16.39866 12.03372
#
# Velocity S-wave (km/s) = 2.04627 2.99229 2.56330
# Velocity P-wave (km/s) = 5.02080 6.76437 5.95672
#
# Compressibility (1/GPa) = 0.02782138
#
# Stress axis : x y z
#
# Youngs Moduli (GPa) = 55.41588 26.28720 83.87628
#
# Poissons Ratio (x) = 0.07151 0.36812
# Poissons Ratio (y) = 0.15076 1.08909
# Poissons Ratio (z) = 0.24321 0.34132
#
# Static dielectric constant tensor:
#      x y z
#    x 3.132320 0.000000 0.000000 
#    y 0.000000 3.352360 0.000000 
#    z 0.000000 0.000000 3.592010 
# 
# 
# High freq. dielectric constant tensor:
#      x y z
#    x 1.657680 0.000000 0.000000 
#    y 0.000000 1.703660 0.000000 
#    z 0.000000 0.000000 1.699120 
# 
# From -- ./inp_files/71271.got.cif
#   From: 2010.03.12/outbox.cif.g09.slc.cpg/sg65_36_cif.got.tgz:71271.got - 2010.04.10 20:52:16.
