data_PCOD8274281
_publ_section_title
;
Structure prediction by ZEFSAII (Michael W. Deem and Ramdas Pophale) SiO2 
 PCOD8274281
Probable space group: C M M M
;
_chemical_formula_sum "Si O2"
_cell_formula_units_Z 104
_cell_length_a 21.819040
_cell_length_b 14.710712
_cell_length_c 18.820242
_cell_angle_alpha 90.000000
_cell_angle_beta 90.000000
_cell_angle_gamma 90.000000
_cell_volume 6040.801083
_symmetry_space_group_name_H-M "C M M M"
_symmetry_group_IT_number 65
_symmetry_cell_setting 'orthorhombic'
loop_
_space_group_symop_operation_xyz
x,y,z
-x,-y,z
x,-y,-z
-x,y,-z
-x,-y,-z
x,y,-z
-x,y,z
x,-y,z
1/2+x,1/2+y,z
1/2-x,1/2-y,z
1/2+x,1/2-y,-z
1/2-x,1/2+y,-z
1/2-x,1/2-y,-z
1/2+x,1/2+y,-z
1/2-x,1/2+y,z
1/2+x,1/2-y,z
loop_
_atom_site_type_symbol
_atom_site_label
_atom_site_fract_x
_atom_site_fract_y
_atom_site_fract_z
Si Si1 0.691336 0.400227 0.309077
Si Si2 0.207586 0.105296 0.151441
Si Si3 0.612656 0.274406 0.917428
Si Si4 0.823006 0.758461 0.420714
Si Si5 0.163866 0.400940 0.326972
Si Si6 0.649310 0.104757 0.833252
Si Si7 0.500000 0.396607 0.915644
O O1 0.662852 0.500000 0.317938
O O2 0.681306 0.364926 0.228796
O O3 0.657574 0.338686 0.367392
O O4 0.763340 0.402859 0.321884
O O5 0.176235 0.171784 0.094776
O O6 0.279951 0.120359 0.146986
O O7 0.191710 0.000000 0.135615
O O8 0.609546 0.176871 0.877863
O O9 0.559152 0.340758 0.888809
O O10 0.604780 0.252790 0.000000
O O11 0.848501 0.776350 0.500000
O O12 0.750000 0.750000 0.422813
O O13 0.855307 0.668694 0.388765
O O14 0.139231 0.500000 0.349682
O O15 0.137226 0.374617 0.249882
O O16 0.630642 0.000000 0.850966
O O17 0.500000 0.500000 0.884303
O O18 0.500000 0.402912 0.000000
#
# Coordination Sequence:
#
# PCOD8274281 Si02
#       7
#    16  16  16  16  16  16   8
#     4   8  14  24  36  51  75 108 142 173 210 258
#     4   9  17  29  46  67  89 115 148 185 225 268
#     4  11  21  32  48  67  87 115 148 182 221 262
#     4   9  15  20  29  48  73 104 144 183 209 234
#     4   8  14  25  38  51  74 109 142 172 209 253
#     4   9  18  31  46  66  91 117 146 181 223 271
#     4   9  20  38  53  65  85 113 145 178 214 262
#
# _framework density 17.216259000000001
#
# number of rings (size 3 to 8) (size 9 to 14) (size 15 to 20)
#    0.000    3.000    0.000    3.692    0.000    5.538 
#    0.000    5.000    0.000    1.385    0.000    0.000 
#    0.000    0.000    0.000   11.077    0.000   72.615 
#
# Total GULP energy -644424.569966 kJ/mol
# GULP energy per Si atom -12392.780192 kJ/mol
# Density = 1.717707 g / cm^3
# Si number density = 17.216259 Si / 1000 Ang^3
#
#
#
# Elastic Constant Matrix: (Units=GPa)
#
#
# Indices 1 2 3 4 5 6 
#
# 1 27.1459 27.9145 13.8100 0.0000 0.0000 0.0000
# 2 27.9145 127.7553 59.2804 0.0000 0.0000 0.0000
# 3 13.8100 59.2804 85.2455 0.0000 0.0000 0.0000
# 4 0.0000 0.0000 0.0000 27.6103 0.0000 0.0000
# 5 0.0000 0.0000 0.0000 0.0000 4.1624 0.0000
# 6 0.0000 0.0000 0.0000 0.0000 0.0000 18.9614
#
#
#
# Elastic Compliance Matrix: (Units=1/GPa)
#
#
# Indices 1 2 3 4 5 6 
#
# 1 0.047542 -0.010061 -0.000706 0.000000 0.000000 0.000000
# 2 -0.010061 0.013685 -0.007887 0.000000 0.000000 0.000000
# 3 -0.000706 -0.007887 0.017330 0.000000 0.000000 0.000000
# 4 0.000000 0.000000 0.000000 0.036218 0.000000 0.000000
# 5 0.000000 0.000000 0.000000 0.000000 0.240244 0.000000
# 6 0.000000 0.000000 0.000000 0.000000 0.000000 0.052739
#
#
# Mechanical properties :
#
#
# Convention : Reuss Voigt Hill
#
# Bulk Modulus (GPa) = 24.24189 49.12850 36.68519
# Shear Modulus (GPa) = 10.89761 19.42294 15.16027
#
# Velocity S-wave (km/s) = 2.51865 3.36247 2.97067
# Velocity P-wave (km/s) = 4.75073 6.60856 5.75511
#
# Compressibility (1/GPa) = 0.04125091
#
# Stress axis : x y z
#
# Youngs Moduli (GPa) = 21.03382 73.07038 57.70361
#
# Poissons Ratio (x) = 0.73513 0.04073
# Poissons Ratio (y) = 0.21161 0.45512
# Poissons Ratio (z) = 0.01485 0.57632
#
# Static dielectric constant tensor:
#      x y z
#    x 2.588650 0.000000 0.000000 
#    y 0.000000 3.662360 0.000000 
#    z 0.000000 0.000000 3.253750 
# 
# 
# High freq. dielectric constant tensor:
#      x y z
#    x 1.583540 0.000000 0.000000 
#    y 0.000000 1.684650 0.000000 
#    z 0.000000 0.000000 1.657160 
# 
# From -- ./inp_files/53298.got.cif
#   From: 2010.03.12/outbox.cif.g09.slc.cpg/sg65_27_cif.got.tgz:53298.got - 2010.04.10 20:52:16.
