data_PCOD8274576
_publ_section_title
;
Structure prediction by ZEFSAII (Michael W. Deem and Ramdas Pophale) SiO2 
 PCOD8274576
Probable space group: C M M M
;
_chemical_formula_sum "Si O2"
_cell_formula_units_Z 64
_cell_length_a 9.010609
_cell_length_b 15.914086
_cell_length_c 22.054501
_cell_angle_alpha 90.000000
_cell_angle_beta 90.000000
_cell_angle_gamma 90.000000
_cell_volume 3162.518548
_symmetry_space_group_name_H-M "C M M M"
_symmetry_group_IT_number 65
_symmetry_cell_setting 'orthorhombic'
loop_
_space_group_symop_operation_xyz
x,y,z
-x,-y,z
x,-y,-z
-x,y,-z
-x,-y,-z
x,y,-z
-x,y,z
x,-y,z
1/2+x,1/2+y,z
1/2-x,1/2-y,z
1/2+x,1/2-y,-z
1/2-x,1/2+y,-z
1/2-x,1/2-y,-z
1/2+x,1/2+y,-z
1/2-x,1/2+y,z
1/2+x,1/2-y,z
loop_
_atom_site_type_symbol
_atom_site_label
_atom_site_fract_x
_atom_site_fract_y
_atom_site_fract_z
Si Si1 0.323787 0.335305 0.139943
Si Si2 0.823781 0.000000 0.068332
Si Si3 0.672726 0.662093 0.500000
Si Si4 0.838422 0.402146 0.387917
Si Si5 0.326127 0.097083 0.745842
O O1 0.500000 0.326107 0.137012
O O2 0.250000 0.250000 0.113646
O O3 0.266199 0.415522 0.101373
O O4 0.271778 0.347321 0.209062
O O5 0.000000 0.000000 0.068851
O O6 0.761326 0.000000 0.000000
O O7 0.500000 0.673682 0.500000
O O8 0.750000 0.750000 0.500000
O O9 0.717425 0.613788 0.560821
O O10 0.859865 0.500000 0.379206
O O11 0.789208 0.367961 0.321918
O O12 0.000000 0.363685 0.406701
O O13 0.500000 0.108576 0.760181
O O14 0.278743 0.000000 0.752999
#
# Coordination Sequence:
#
# PCOD8274576 Si02
#       5
#    16   8   8  16  16
#     4  11  22  37  60  90 122 160 201 246 298 351
#     4   9  20  40  63  87 121 162 201 244 295 351
#     4  12  25  38  53  75 107 147 189 240 291 342
#     4   9  19  37  60  83 109 145 185 230 288 349
#     4   9  18  35  60  87 116 150 190 239 293 350
#
# _framework density 20.237034999999999
#
# number of rings (size 3 to 8) (size 9 to 14) (size 15 to 20)
#    0.000    2.125    1.250    3.750    0.000    4.500 
#    0.000    2.500    0.000    5.250    0.000    0.000 
#    0.000    0.000    0.000    0.000    0.000    0.000 
#
# Total GULP energy -396723.928118 kJ/mol
# GULP energy per Si atom -12397.622754 kJ/mol
# Density = 2.019097 g / cm^3
# Si number density = 20.237035 Si / 1000 Ang^3
#
#
#
# Elastic Constant Matrix: (Units=GPa)
#
#
# Indices 1 2 3 4 5 6 
#
# 1 92.8838 38.5033 49.3387 0.0000 0.0000 0.0000
# 2 38.5033 110.9131 54.6933 0.0000 0.0000 0.0000
# 3 49.3387 54.6933 141.3111 0.0000 0.0000 0.0000
# 4 0.0000 0.0000 0.0000 13.5517 0.0000 0.0000
# 5 0.0000 0.0000 0.0000 0.0000 23.2157 0.0000
# 6 0.0000 0.0000 0.0000 0.0000 0.0000 30.6254
#
#
#
# Elastic Compliance Matrix: (Units=1/GPa)
#
#
# Indices 1 2 3 4 5 6 
#
# 1 0.013994 -0.003026 -0.003715 0.000000 0.000000 0.000000
# 2 -0.003026 0.011797 -0.003509 0.000000 0.000000 0.000000
# 3 -0.003715 -0.003509 0.009732 0.000000 0.000000 0.000000
# 4 0.000000 0.000000 0.000000 0.073792 0.000000 0.000000
# 5 0.000000 0.000000 0.000000 0.000000 0.043074 0.000000
# 6 0.000000 0.000000 0.000000 0.000000 0.000000 0.032653
#
#
# Mechanical properties :
#
#
# Convention : Reuss Voigt Hill
#
# Bulk Modulus (GPa) = 66.56768 70.01984 68.29376
# Shear Modulus (GPa) = 23.74742 26.98340 25.36541
#
# Velocity S-wave (km/s) = 3.42930 3.65549 3.54420
# Velocity P-wave (km/s) = 6.97464 7.24512 7.11116
#
# Compressibility (1/GPa) = 0.01502231
#
# Stress axis : x y z
#
# Youngs Moduli (GPa) = 71.46051 84.76633 102.75545
#
# Poissons Ratio (x) = 0.25651 0.38170
# Poissons Ratio (y) = 0.21625 0.36061
# Poissons Ratio (z) = 0.26545 0.29748
#
# Static dielectric constant tensor:
#      x y z
#    x 3.321960 0.000000 0.000000 
#    y 0.000000 3.675280 0.000000 
#    z 0.000000 0.000000 3.547360 
# 
# 
# High freq. dielectric constant tensor:
#      x y z
#    x 1.773150 0.000000 0.000000 
#    y 0.000000 1.786880 0.000000 
#    z 0.000000 0.000000 1.793920 
# 
# From -- ./inp_files/66793.got.cif
#   From: 2010.03.12/outbox.cif.g09.slc.cpg/sg65_34_cif.got.tgz:66793.got - 2010.04.10 20:52:16.
