data_PCOD8274511
_publ_section_title
;
Structure prediction by ZEFSAII (Michael W. Deem and Ramdas Pophale) SiO2 
 PCOD8274511
Probable space group: C M M M
;
_chemical_formula_sum "Si O2"
_cell_formula_units_Z 72
_cell_length_a 9.116302
_cell_length_b 14.789493
_cell_length_c 28.768705
_cell_angle_alpha 90.000000
_cell_angle_beta 90.000000
_cell_angle_gamma 90.000000
_cell_volume 3878.754593
_symmetry_space_group_name_H-M "C M M M"
_symmetry_group_IT_number 65
_symmetry_cell_setting 'orthorhombic'
loop_
_space_group_symop_operation_xyz
x,y,z
-x,-y,z
x,-y,-z
-x,y,-z
-x,-y,-z
x,y,-z
-x,y,z
x,-y,z
1/2+x,1/2+y,z
1/2-x,1/2-y,z
1/2+x,1/2-y,-z
1/2-x,1/2+y,-z
1/2-x,1/2-y,-z
1/2+x,1/2+y,-z
1/2-x,1/2+y,z
1/2+x,1/2-y,z
loop_
_atom_site_type_symbol
_atom_site_label
_atom_site_fract_x
_atom_site_fract_y
_atom_site_fract_z
Si Si1 0.172976 0.337197 0.859030
Si Si2 0.825949 0.500000 0.448125
Si Si3 0.334323 0.606748 0.947982
Si Si4 0.174084 0.500000 0.692748
Si Si5 0.173803 0.652173 0.377653
Si Si6 0.174277 0.500000 0.796595
O O1 0.250000 0.250000 0.837720
O O2 0.220668 0.349638 0.912418
O O3 0.232054 0.415135 0.825496
O O4 0.000000 0.327948 0.857639
O O5 0.758598 0.500000 0.500000
O O6 0.775776 0.407781 0.422184
O O7 0.000000 0.500000 0.449217
O O8 0.500000 0.636566 0.935055
O O9 0.319911 0.500000 0.945215
O O10 0.294506 0.639834 0.000000
O O11 0.224337 0.407706 0.666905
O O12 0.241225 0.500000 0.744672
O O13 0.000000 0.500000 0.693562
O O14 0.250000 0.750000 0.377697
O O15 0.000000 0.668334 0.377633
O O16 0.000000 0.500000 0.793943
#
# Coordination Sequence:
#
# PCOD8274511 Si02
#       6
#    16   8  16   8  16   8
#     4  11  22  36  54  78 103 132 167 204 248 298
#     4   8  15  29  47  69 101 142 181 208 243 305
#     4   9  18  34  56  79 103 132 164 201 246 293
#     4   8  16  33  53  71  96 133 169 203 251 311
#     4   9  17  30  51  75  99 132 172 213 256 299
#     4   9  19  36  55  74 100 131 167 208 250 301
#
# _framework density 18.562659
#
# number of rings (size 3 to 8) (size 9 to 14) (size 15 to 20)
#    0.000    2.778    1.111    2.667    0.000    2.222 
#    0.000    3.333    0.000    4.667    0.000    0.000 
#    0.000    0.000    0.000    0.000    0.000    0.000 
#
# Total GULP energy -446186.230847 kJ/mol
# GULP energy per Si atom -12394.061968 kJ/mol
# Density = 1.852041 g / cm^3
# Si number density = 18.562659 Si / 1000 Ang^3
#
#
#
# Elastic Constant Matrix: (Units=GPa)
#
#
# Indices 1 2 3 4 5 6 
#
# 1 51.8627 45.2094 34.3164 0.0000 0.0000 0.0000
# 2 45.2094 167.6305 82.0827 0.0000 0.0000 0.0000
# 3 34.3164 82.0827 156.8647 0.0000 0.0000 0.0000
# 4 0.0000 0.0000 0.0000 -208.9166 0.0000 0.0000
# 5 0.0000 0.0000 0.0000 0.0000 13.5256 0.0000
# 6 0.0000 0.0000 0.0000 0.0000 0.0000 33.1236
#
#
#
# Elastic Compliance Matrix: (Units=1/GPa)
#
#
# Indices 1 2 3 4 5 6 
#
# 1 0.026043 -0.005692 -0.002719 0.000000 0.000000 0.000000
# 2 -0.005692 0.009265 -0.003603 0.000000 0.000000 0.000000
# 3 -0.002719 -0.003603 0.008855 0.000000 0.000000 0.000000
# 4 0.000000 0.000000 0.000000 -0.004787 0.000000 0.000000
# 5 0.000000 0.000000 0.000000 0.000000 0.073934 0.000000
# 6 0.000000 0.000000 0.000000 0.000000 0.000000 0.030190
#
#
# Mechanical properties :
#
#
# Convention : Reuss Voigt Hill
#
# Bulk Modulus (GPa) = 49.66485 77.73054 63.69769
# Shear Modulus (GPa) = 28.69623 -18.13688 5.27967
#
# Velocity S-wave (km/s) = 3.93607 -3.12919 1.68832
# Velocity P-wave (km/s) = 6.88986 5.37678 6.17981
#
# Compressibility (1/GPa) = 0.02013497
#
# Stress axis : x y z
#
# Youngs Moduli (GPa) = 38.39854 107.93460 112.93266
#
# Poissons Ratio (x) = 0.61441 0.30701
# Poissons Ratio (y) = 0.21858 0.40687
# Poissons Ratio (z) = 0.10439 0.38886
#
# Static dielectric constant tensor:
#      x y z
#    x 3.035570 0.000000 0.000000 
#    y 0.000000 3.519770 0.000000 
#    z 0.000000 0.000000 3.863720 
# 
# 
# High freq. dielectric constant tensor:
#      x y z
#    x 1.683060 0.000000 0.000000 
#    y 0.000000 1.730120 0.000000 
#    z 0.000000 0.000000 1.721390 
# 
# From -- ./inp_files/76372.got.cif
#   From: 2010.03.12/outbox.cif.g09.slc.cpg/sg65_39_cif.got.tgz:76372.got - 2010.04.10 20:52:16.
