data_PCOD8274402
_publ_section_title
;
Structure prediction by ZEFSAII (Michael W. Deem and Ramdas Pophale) SiO2 
 PCOD8274402
Probable space group: C M M M
;
_chemical_formula_sum "Si O2"
_cell_formula_units_Z 88
_cell_length_a 18.604443
_cell_length_b 7.913382
_cell_length_c 28.864353
_cell_angle_alpha 90.000000
_cell_angle_beta 90.000000
_cell_angle_gamma 90.000000
_cell_volume 4249.527364
_symmetry_space_group_name_H-M "C M M M"
_symmetry_group_IT_number 65
_symmetry_cell_setting 'orthorhombic'
loop_
_space_group_symop_operation_xyz
x,y,z
-x,-y,z
x,-y,-z
-x,y,-z
-x,-y,-z
x,y,-z
-x,y,z
x,-y,z
1/2+x,1/2+y,z
1/2-x,1/2-y,z
1/2+x,1/2-y,-z
1/2-x,1/2+y,-z
1/2-x,1/2-y,-z
1/2+x,1/2+y,-z
1/2-x,1/2+y,z
1/2+x,1/2-y,z
loop_
_atom_site_type_symbol
_atom_site_label
_atom_site_fract_x
_atom_site_fract_y
_atom_site_fract_z
Si Si1 0.583567 0.000000 0.945673
Si Si2 0.330982 0.190380 0.363057
Si Si3 0.325947 0.809174 0.801627
Si Si4 0.582135 0.697735 0.552578
Si Si5 0.668914 0.306042 0.901302
Si Si6 0.919343 0.191747 0.720805
O O1 0.616350 0.826136 0.926000
O O2 0.500000 0.000000 0.932534
O O3 0.597089 0.000000 0.000000
O O4 0.250000 0.250000 0.366300
O O5 0.365714 0.200380 0.413802
O O6 0.375452 0.301136 0.326827
O O7 0.333230 0.000000 0.344860
O O8 0.250000 0.750000 0.779857
O O9 0.345589 0.696493 0.846107
O O10 0.385135 0.801276 0.761683
O O11 0.319651 0.000000 0.819756
O O12 0.601718 0.747484 0.500000
O O13 0.500000 0.747507 0.563342
O O14 0.593805 0.500000 0.560711
O O15 0.655607 0.500000 0.918408
O O16 0.750000 0.250000 0.912567
O O17 0.000000 0.258422 0.711727
O O18 0.919717 0.000000 0.738072
#
# Coordination Sequence:
#
# PCOD8274402 Si02
#       6
#     8  16  16  16  16  16
#     4  11  26  46  66  98 141 179 223 283 343 397
#     4  12  25  40  59  83 115 153 196 246 299 353
#     4  11  21  38  64  93 128 164 206 260 311 370
#     4   9  19  38  63  88 115 149 187 232 292 358
#     4  11  21  42  70 100 133 175 229 277 333 398
#     4  11  24  41  60  86 120 159 202 246 302 369
#
# _framework density 20.708183999999999
#
# number of rings (size 3 to 8) (size 9 to 14) (size 15 to 20)
#    0.000    1.182    1.818    6.545    0.000    6.545 
#    0.000    1.818    0.000    0.000    0.000    0.000 
#    0.000    0.000    0.000    0.000    0.000    0.000 
#
# Total GULP energy -545753.962674 kJ/mol
# GULP energy per Si atom -12403.499152 kJ/mol
# Density = 2.066105 g / cm^3
# Si number density = 20.708184 Si / 1000 Ang^3
#
#
#
# Elastic Constant Matrix: (Units=GPa)
#
#
# Indices 1 2 3 4 5 6 
#
# 1 151.1238 44.4654 73.0221 0.0000 0.0000 0.0000
# 2 44.4654 125.6208 30.6105 0.0000 0.0000 0.0000
# 3 73.0221 30.6105 99.4907 0.0000 0.0000 0.0000
# 4 0.0000 0.0000 0.0000 27.7043 0.0000 0.0000
# 5 0.0000 0.0000 0.0000 0.0000 -2.1536 0.0000
# 6 0.0000 0.0000 0.0000 0.0000 0.0000 27.7060
#
#
#
# Elastic Compliance Matrix: (Units=1/GPa)
#
#
# Indices 1 2 3 4 5 6 
#
# 1 0.010711 -0.002028 -0.007237 0.000000 0.000000 0.000000
# 2 -0.002028 0.008990 -0.001278 0.000000 0.000000 0.000000
# 3 -0.007237 -0.001278 0.015756 0.000000 0.000000 0.000000
# 4 0.000000 0.000000 0.000000 0.036095 0.000000 0.000000
# 5 0.000000 0.000000 0.000000 0.000000 -0.464340 0.000000
# 6 0.000000 0.000000 0.000000 0.000000 0.000000 0.036093
#
#
# Mechanical properties :
#
#
# Convention : Reuss Voigt Hill
#
# Bulk Modulus (GPa) = 69.58376 74.71457 72.14916
# Shear Modulus (GPa) = -15.11399 25.86050 5.37325
#
# Velocity S-wave (km/s) = -2.70452 3.53768 1.61257
# Velocity P-wave (km/s) = 4.89106 7.26945 6.19546
#
# Compressibility (1/GPa) = 0.01437117
#
# Stress axis : x y z
#
# Youngs Moduli (GPa) = 93.36394 111.24084 63.46693
#
# Poissons Ratio (x) = 0.22556 0.45934
# Poissons Ratio (y) = 0.18931 0.08108
# Poissons Ratio (z) = 0.67571 0.14212
#
# Static dielectric constant tensor:
#      x y z
#    x 3.723860 0.000000 0.000000 
#    y 0.000000 3.784640 0.000000 
#    z 0.000000 0.000000 3.618550 
# 
# 
# High freq. dielectric constant tensor:
#      x y z
#    x 1.809080 0.000000 0.000000 
#    y 0.000000 1.819790 0.000000 
#    z 0.000000 0.000000 1.808250 
# 
# From -- ./inp_files/77874.got.cif
#   From: 2010.03.12/outbox.cif.g09.slc.cpg/sg65_39_cif.got.tgz:77874.got - 2010.04.10 20:52:16.
