data_PCOD8274848
_publ_section_title
;
Structure prediction by ZEFSAII (Michael W. Deem and Ramdas Pophale) SiO2 
 PCOD8274848
Probable space group: C M M M
;
_chemical_formula_sum "Si O2"
_cell_formula_units_Z 64
_cell_length_a 8.888086
_cell_length_b 19.237183
_cell_length_c 20.785231
_cell_angle_alpha 90.000000
_cell_angle_beta 90.000000
_cell_angle_gamma 90.000000
_cell_volume 3553.894898
_symmetry_space_group_name_H-M "C M M M"
_symmetry_group_IT_number 65
_symmetry_cell_setting 'orthorhombic'
loop_
_space_group_symop_operation_xyz
x,y,z
-x,-y,z
x,-y,-z
-x,y,-z
-x,-y,-z
x,y,-z
-x,y,z
x,-y,z
1/2+x,1/2+y,z
1/2-x,1/2-y,z
1/2+x,1/2-y,-z
1/2-x,1/2+y,-z
1/2-x,1/2-y,-z
1/2+x,1/2+y,-z
1/2-x,1/2+y,z
1/2+x,1/2-y,z
loop_
_atom_site_type_symbol
_atom_site_label
_atom_site_fract_x
_atom_site_fract_y
_atom_site_fract_z
Si Si1 0.824566 0.919051 0.106360
Si Si2 0.177662 0.825014 0.361378
Si Si3 0.325676 0.323387 0.500000
Si Si4 0.322354 0.826018 0.000000
Si Si5 0.177973 0.076448 0.251394
O O1 0.726001 0.869113 0.062489
O O2 0.782670 0.898294 0.179488
O O3 0.000000 0.905916 0.092054
O O4 0.786044 0.000000 0.093190
O O5 0.250000 0.750000 0.355124
O O6 0.216267 0.860431 0.431787
O O7 0.247651 0.872577 0.305060
O O8 0.000000 0.817046 0.352264
O O9 0.500000 0.307700 0.500000
O O10 0.250000 0.250000 0.500000
O O11 0.250000 0.750000 0.000000
O O12 0.500000 0.816774 0.000000
O O13 0.000000 0.072316 0.259163
O O14 0.247043 0.000000 0.262974
#
# Coordination Sequence:
#
# PCOD8274848 Si02
#       5
#    16  16   8   8  16
#     4   9  18  35  57  76  97 129 164 195 235 290
#     4   9  16  27  44  66  92 122 158 196 234 276
#     4   8  14  24  39  61  89 121 155 192 232 274
#     4  12  25  38  53  75 103 129 157 198 243 284
#     4   8  15  29  49  71  95 124 156 190 230 278
#
# _framework density 18.008412
#
# number of rings (size 3 to 8) (size 9 to 14) (size 15 to 20)
#    0.000    3.000    0.000    3.000    0.000    3.000 
#    0.000    4.375    0.000    6.000    0.000    0.000 
#    0.000   10.000    0.000    0.000    0.000    0.000 
#
# Total GULP energy -396424.994954 kJ/mol
# GULP energy per Si atom -12388.281092 kJ/mol
# Density = 1.796742 g / cm^3
# Si number density = 18.008412 Si / 1000 Ang^3
#
#
#
# Elastic Constant Matrix: (Units=GPa)
#
#
# Indices 1 2 3 4 5 6 
#
# 1 48.8289 38.2952 44.2341 0.0000 0.0000 0.0000
# 2 38.2952 98.7743 90.4269 0.0000 0.0000 0.0000
# 3 44.2341 90.4269 184.4296 0.0000 0.0000 0.0000
# 4 0.0000 0.0000 0.0000 29.7464 0.0000 0.0000
# 5 0.0000 0.0000 0.0000 0.0000 17.2326 0.0000
# 6 0.0000 0.0000 0.0000 0.0000 0.0000 21.6584
#
#
#
# Elastic Compliance Matrix: (Units=1/GPa)
#
#
# Indices 1 2 3 4 5 6 
#
# 1 0.030163 -0.009202 -0.002723 0.000000 0.000000 0.000000
# 2 -0.009202 0.021177 -0.008176 0.000000 0.000000 0.000000
# 3 -0.002723 -0.008176 0.010084 0.000000 0.000000 0.000000
# 4 0.000000 0.000000 0.000000 0.033618 0.000000 0.000000
# 5 0.000000 0.000000 0.000000 0.000000 0.058029 0.000000
# 6 0.000000 0.000000 0.000000 0.000000 0.000000 0.046172
#
#
# Mechanical properties :
#
#
# Convention : Reuss Voigt Hill
#
# Bulk Modulus (GPa) = 47.11971 75.32724 61.22348
# Shear Modulus (GPa) = 20.28256 24.33258 22.30757
#
# Velocity S-wave (km/s) = 3.35965 3.67983 3.52338
# Velocity P-wave (km/s) = 6.42432 7.74432 7.11500
#
# Compressibility (1/GPa) = 0.02122254
#
# Stress axis : x y z
#
# Youngs Moduli (GPa) = 33.15347 47.22152 99.16737
#
# Poissons Ratio (x) = 0.43451 0.27001
# Poissons Ratio (y) = 0.30507 0.81081
# Poissons Ratio (z) = 0.09027 0.38609
#
# Static dielectric constant tensor:
#      x y z
#    x 3.106300 0.000000 0.000000 
#    y 0.000000 3.326060 0.000000 
#    z 0.000000 0.000000 3.996880 
# 
# 
# High freq. dielectric constant tensor:
#      x y z
#    x 1.664540 0.000000 0.000000 
#    y 0.000000 1.674760 0.000000 
#    z 0.000000 0.000000 1.724040 
# 
# From -- ./inp_files/58860.got.cif
#   From: 2010.03.12/outbox.cif.g09.slc.cpg/sg65_30_cif.got.tgz:58860.got - 2010.04.10 20:52:16.
