data_PCOD8274200
_publ_section_title
;
Structure prediction by ZEFSAII (Michael W. Deem and Ramdas Pophale) SiO2 
 PCOD8274200
Probable space group: C M M M
;
_chemical_formula_sum "Si O2"
_cell_formula_units_Z 104
_cell_length_a 22.229079
_cell_length_b 14.285370
_cell_length_c 15.754800
_cell_angle_alpha 90.000000
_cell_angle_beta 90.000000
_cell_angle_gamma 90.000000
_cell_volume 5002.946481
_symmetry_space_group_name_H-M "C M M M"
_symmetry_group_IT_number 65
_symmetry_cell_setting 'orthorhombic'
loop_
_space_group_symop_operation_xyz
x,y,z
-x,-y,z
x,-y,-z
-x,y,-z
-x,-y,-z
x,y,-z
-x,y,z
x,-y,z
1/2+x,1/2+y,z
1/2-x,1/2-y,z
1/2+x,1/2-y,-z
1/2-x,1/2+y,-z
1/2-x,1/2-y,-z
1/2+x,1/2+y,-z
1/2-x,1/2+y,z
1/2+x,1/2-y,z
loop_
_atom_site_type_symbol
_atom_site_label
_atom_site_fract_x
_atom_site_fract_y
_atom_site_fract_z
Si Si1 0.744871 0.859526 0.677315
Si Si2 0.433295 0.611719 0.500000
Si Si3 0.380230 0.603426 0.329993
Si Si4 0.571173 0.224398 0.752781
Si Si5 0.253713 0.607815 0.134286
Si Si6 0.876400 0.605574 0.596569
Si Si7 0.153224 0.737648 0.093477
O O1 0.750000 0.750000 0.666138
O O2 0.808928 0.907038 0.663639
O O3 0.725045 0.886196 0.771955
O O4 0.695621 0.896724 0.611239
O O5 0.431490 0.500000 0.500000
O O6 0.500000 0.652317 0.500000
O O7 0.400565 0.651235 0.417658
O O8 0.407733 0.500000 0.316016
O O9 0.407512 0.668251 0.257111
O O10 0.500000 0.214713 0.763321
O O11 0.592387 0.166011 0.670522
O O12 0.603158 0.196509 0.841437
O O13 0.265080 0.500000 0.106793
O O14 0.203680 0.657869 0.077105
O O15 0.316273 0.665985 0.128534
O O16 0.889172 0.643272 0.500000
O O17 0.901352 0.500000 0.603532
O O18 0.124559 0.756755 0.000000
#
# Coordination Sequence:
#
# PCOD8274200 Si02
#       7
#    16   8  16  16  16  16  16
#     4  12  20  37  64  97 133 163 200 253 318 382
#     4   9  20  36  53  80 119 163 209 250 291 349
#     4  11  22  38  61  90 125 164 205 256 313 372
#     4  12  26  44  65  89 121 169 221 266 313 370
#     4  11  19  37  67  96 129 163 194 247 320 384
#     4  11  25  44  67  95 128 168 211 260 320 381
#     4  11  24  42  62  95 131 158 207 262 313 383
#
# _framework density 20.787751
#
# number of rings (size 3 to 8) (size 9 to 14) (size 15 to 20)
#    0.000    0.846    6.154    2.769    2.154    3.385 
#    0.000    0.769    0.000    0.000    0.000    4.308 
#    0.000    0.000    0.000    0.000    0.000    0.000 
#
# Total GULP energy -644477.506687 kJ/mol
# GULP energy per Si atom -12393.798206 kJ/mol
# Density = 2.074044 g / cm^3
# Si number density = 20.787751 Si / 1000 Ang^3
#
#
#
# Elastic Constant Matrix: (Units=GPa)
#
#
# Indices 1 2 3 4 5 6 
#
# 1 105.5626 12.7804 46.6167 0.0000 0.0000 0.0000
# 2 12.7804 108.6386 30.0244 0.0000 0.0000 0.0000
# 3 46.6167 30.0244 141.1516 0.0000 0.0000 0.0000
# 4 0.0000 0.0000 0.0000 13.0165 0.0000 0.0000
# 5 0.0000 0.0000 0.0000 0.0000 -2.0212 0.0000
# 6 0.0000 0.0000 0.0000 0.0000 0.0000 28.0638
#
#
#
# Elastic Compliance Matrix: (Units=1/GPa)
#
#
# Indices 1 2 3 4 5 6 
#
# 1 0.011100 -0.000311 -0.003600 0.000000 0.000000 0.000000
# 2 -0.000311 0.009788 -0.001979 0.000000 0.000000 0.000000
# 3 -0.003600 -0.001979 0.008695 0.000000 0.000000 0.000000
# 4 0.000000 0.000000 0.000000 0.076826 0.000000 0.000000
# 5 0.000000 0.000000 0.000000 0.000000 -0.494765 0.000000
# 6 0.000000 0.000000 0.000000 0.000000 0.000000 0.035633
#
#
# Mechanical properties :
#
#
# Convention : Reuss Voigt Hill
#
# Bulk Modulus (GPa) = 56.17064 59.35507 57.76286
# Shear Modulus (GPa) = -14.92499 25.54057 5.30779
#
# Velocity S-wave (km/s) = -2.68240 3.50899 1.59965
# Velocity P-wave (km/s) = 4.18162 6.71061 5.59099
#
# Compressibility (1/GPa) = 0.01780289
#
# Stress axis : x y z
#
# Youngs Moduli (GPa) = 90.08671 102.16114 115.01501
#
# Poissons Ratio (x) = 0.03177 0.41404
# Poissons Ratio (y) = 0.02801 0.22766
# Poissons Ratio (z) = 0.32430 0.20222
#
# Static dielectric constant tensor:
#      x y z
#    x 3.425090 0.000000 0.000000 
#    y 0.000000 3.796980 0.000000 
#    z 0.000000 0.000000 3.843950 
# 
# 
# High freq. dielectric constant tensor:
#      x y z
#    x 1.787790 0.000000 0.000000 
#    y 0.000000 1.815810 0.000000 
#    z 0.000000 0.000000 1.816850 
# 
# From -- ./inp_files/45798.got.cif
#   From: 2010.03.12/outbox.cif.g09.slc.cpg/sg65_23_cif.got.tgz:45798.got - 2010.04.10 20:52:16.
