data_PCOD8274947
_publ_section_title
;
Structure prediction by ZEFSAII (Michael W. Deem and Ramdas Pophale) SiO2 
 PCOD8274947
Probable space group: C M M M
;
_chemical_formula_sum "Si O2"
_cell_formula_units_Z 112
_cell_length_a 25.521542
_cell_length_b 30.383250
_cell_length_c 9.881988
_cell_angle_alpha 90.000000
_cell_angle_beta 90.000000
_cell_angle_gamma 90.000000
_cell_volume 7662.764172
_symmetry_space_group_name_H-M "C M M M"
_symmetry_group_IT_number 65
_symmetry_cell_setting 'orthorhombic'
loop_
_space_group_symop_operation_xyz
x,y,z
-x,-y,z
x,-y,-z
-x,y,-z
-x,-y,-z
x,y,-z
-x,y,z
x,-y,z
1/2+x,1/2+y,z
1/2-x,1/2-y,z
1/2+x,1/2-y,-z
1/2-x,1/2+y,-z
1/2-x,1/2-y,-z
1/2+x,1/2+y,-z
1/2-x,1/2+y,z
1/2+x,1/2-y,z
loop_
_atom_site_type_symbol
_atom_site_label
_atom_site_fract_x
_atom_site_fract_y
_atom_site_fract_z
Si Si1 0.441579 0.381916 0.161329
Si Si2 0.557914 0.113400 0.660691
Si Si3 0.742267 0.947746 0.150501
Si Si4 0.150159 0.551384 0.657270
Si Si5 0.937781 0.710788 0.650419
Si Si6 0.858162 0.950908 0.839081
Si Si7 0.937756 0.784360 0.849580
O O1 0.500000 0.392306 0.216926
O O2 0.401383 0.417735 0.222405
O O3 0.423136 0.333020 0.205766
O O4 0.442422 0.383694 0.000000
O O5 0.554220 0.113027 0.500000
O O6 0.500000 0.102453 0.720439
O O7 0.599014 0.077009 0.711471
O O8 0.576652 0.162137 0.706531
O O9 0.699494 0.930642 0.257442
O O10 0.800202 0.933320 0.200596
O O11 0.741453 0.000000 0.143459
O O12 0.730124 0.928788 0.000000
O O13 0.161428 0.561237 0.500000
O O14 0.139835 0.500000 0.682520
O O15 0.914319 0.718160 0.500000
O O16 0.913509 0.747591 0.749928
O O17 0.000000 0.715127 0.643729
O O18 0.868312 0.000000 0.780306
O O19 0.862328 0.952641 0.000000
O O20 0.000000 0.780249 0.856357
O O21 0.914399 0.776806 0.000000
#
# Coordination Sequence:
#
# PCOD8274947 Si02
#       7
#    16  16  16  16  16  16  16
#     4   8  13  20  31  51  78 102 122 148 184 221
#     4   8  14  24  37  55  78  99 119 146 181 219
#     4   8  14  25  39  53  71  96 125 156 185 210
#     4   9  16  25  39  58  76  95 121 151 181 215
#     4   8  13  22  36  51  68  93 122 148 174 208
#     4   8  13  21  34  52  73  99 129 154 178 214
#     4   8  13  21  33  50  73  97 118 145 182 216
#
# _framework density 14.616135999999999
#
# number of rings (size 3 to 8) (size 9 to 14) (size 15 to 20)
#    0.000    3.857    0.000    2.571    0.000    0.571 
#    0.000    3.571    0.000    2.143    0.000    3.000 
#    0.000    8.000    0.000   11.143    0.000   11.429 
#
# Total GULP energy -693839.031624 kJ/mol
# GULP energy per Si atom -12389.982708 kJ/mol
# Density = 1.458287 g / cm^3
# Si number density = 14.616136 Si / 1000 Ang^3
#
#
#
# Elastic Constant Matrix: (Units=GPa)
#
#
# Indices 1 2 3 4 5 6 
#
# 1 89.9241 58.7631 32.0053 0.0000 0.0000 0.0000
# 2 58.7631 91.6666 33.9216 0.0000 0.0000 0.0000
# 3 32.0053 33.9216 39.6973 0.0000 0.0000 0.0000
# 4 0.0000 0.0000 0.0000 15.8938 0.0000 0.0000
# 5 0.0000 0.0000 0.0000 0.0000 12.9763 0.0000
# 6 0.0000 0.0000 0.0000 0.0000 0.0000 3.4126
#
#
#
# Elastic Compliance Matrix: (Units=1/GPa)
#
#
# Indices 1 2 3 4 5 6 
#
# 1 0.020671 -0.010360 -0.007813 0.000000 0.000000 0.000000
# 2 -0.010360 0.021146 -0.009717 0.000000 0.000000 0.000000
# 3 -0.007813 -0.009717 0.039793 0.000000 0.000000 0.000000
# 4 0.000000 0.000000 0.000000 0.062918 0.000000 0.000000
# 5 0.000000 0.000000 0.000000 0.000000 0.077064 0.000000
# 6 0.000000 0.000000 0.000000 0.000000 0.000000 0.293035
#
#
# Mechanical properties :
#
#
# Convention : Reuss Voigt Hill
#
# Bulk Modulus (GPa) = 38.71429 52.29643 45.50536
# Shear Modulus (GPa) = 8.63532 12.89639 10.76586
#
# Velocity S-wave (km/s) = 2.43329 2.97364 2.71693
# Velocity P-wave (km/s) = 5.86851 6.90273 6.40652
#
# Compressibility (1/GPa) = 0.02583026
#
# Stress axis : x y z
#
# Youngs Moduli (GPa) = 48.37603 47.28964 25.13003
#
# Poissons Ratio (x) = 0.48993 0.19634
# Poissons Ratio (y) = 0.50118 0.24419
# Poissons Ratio (z) = 0.37797 0.45951
#
# Static dielectric constant tensor:
#      x y z
#    x 2.921000 0.000000 0.000000 
#    y 0.000000 3.013170 0.000000 
#    z 0.000000 0.000000 2.726340 
# 
# 
# High freq. dielectric constant tensor:
#      x y z
#    x 1.530080 0.000000 0.000000 
#    y 0.000000 1.551100 0.000000 
#    z 0.000000 0.000000 1.520530 
# 
# From -- ./inp_files/31220.got.cif
#   From: 2010.03.12/outbox.cif.g09.slc.cpg/sg65_16_cif.got.tgz:31220.got - 2010.04.10 20:52:16.
