data_PCOD8274697
_publ_section_title
;
Structure prediction by ZEFSAII (Michael W. Deem and Ramdas Pophale) SiO2 
 PCOD8274697
Probable space group: C M M M
;
_chemical_formula_sum "Si O2"
_cell_formula_units_Z 96
_cell_length_a 14.599413
_cell_length_b 23.530472
_cell_length_c 13.561752
_cell_angle_alpha 90.000000
_cell_angle_beta 90.000000
_cell_angle_gamma 90.000000
_cell_volume 4658.883295
_symmetry_space_group_name_H-M "C M M M"
_symmetry_group_IT_number 65
_symmetry_cell_setting 'orthorhombic'
loop_
_space_group_symop_operation_xyz
x,y,z
-x,-y,z
x,-y,-z
-x,y,-z
-x,-y,-z
x,y,-z
-x,y,z
x,-y,z
1/2+x,1/2+y,z
1/2-x,1/2-y,z
1/2+x,1/2-y,-z
1/2-x,1/2+y,-z
1/2-x,1/2-y,-z
1/2+x,1/2+y,-z
1/2-x,1/2+y,z
1/2+x,1/2-y,z
loop_
_atom_site_type_symbol
_atom_site_label
_atom_site_fract_x
_atom_site_fract_y
_atom_site_fract_z
Si Si1 0.395339 0.887301 0.614434
Si Si2 0.598755 0.653532 0.609139
Si Si3 0.276717 0.435352 0.711135
Si Si4 0.394534 0.604120 0.887193
Si Si5 0.348652 0.766203 0.689568
Si Si6 0.893615 0.237141 0.107597
O O1 0.368766 0.900002 0.500000
O O2 0.500000 0.906610 0.633808
O O3 0.330812 0.920525 0.693308
O O4 0.388714 0.819927 0.633258
O O5 0.623857 0.673810 0.500000
O O6 0.500000 0.623047 0.614958
O O7 0.672909 0.608007 0.639934
O O8 0.590081 0.710229 0.674535
O O9 0.293103 0.500000 0.678472
O O10 0.317512 0.427580 0.821340
O O11 0.500000 0.589331 0.855053
O O12 0.377234 0.670600 0.873820
O O13 0.379844 0.584876 0.000000
O O14 0.250000 0.750000 0.646117
O O15 0.344335 0.775402 0.808597
O O16 0.000000 0.251655 0.110061
O O17 0.853644 0.254251 0.000000
#
# Coordination Sequence:
#
# PCOD8274697 Si02
#       6
#    16  16  16  16  16  16
#     4  11  25  44  65  89 119 163 219 269 313 368
#     4  11  23  38  58  87 123 157 190 240 310 383
#     4  12  25  41  62  88 121 161 208 265 314 358
#     4   9  18  36  63  95 131 168 204 244 299 374
#     4  12  21  35  62  91 122 158 196 252 314 375
#     4   9  17  31  54  85 122 159 193 235 294 367
#
# _framework density 20.605796999999999
#
# number of rings (size 3 to 8) (size 9 to 14) (size 15 to 20)
#    0.000    1.333    3.333    4.000    0.000    5.667 
#    0.000    3.333    0.000    1.500    0.000    1.167 
#    0.000    0.000    0.000    0.000    0.000    0.000 
#
# Total GULP energy -594864.293891 kJ/mol
# GULP energy per Si atom -12393.006123 kJ/mol
# Density = 2.055890 g / cm^3
# Si number density = 20.605797 Si / 1000 Ang^3
#
#
#
# Elastic Constant Matrix: (Units=GPa)
#
#
# Indices 1 2 3 4 5 6 
#
# 1 105.8426 16.6438 42.0811 0.0000 0.0000 0.0000
# 2 16.6438 62.7717 22.9953 0.0000 0.0000 0.0000
# 3 42.0811 22.9953 118.0037 0.0000 0.0000 0.0000
# 4 0.0000 0.0000 0.0000 9.7257 0.0000 0.0000
# 5 0.0000 0.0000 0.0000 0.0000 32.8663 0.0000
# 6 0.0000 0.0000 0.0000 0.0000 0.0000 -0.6642
#
#
#
# Elastic Compliance Matrix: (Units=1/GPa)
#
#
# Indices 1 2 3 4 5 6 
#
# 1 0.011159 -0.001616 -0.003664 0.000000 0.000000 0.000000
# 2 -0.001616 0.017390 -0.002812 0.000000 0.000000 0.000000
# 3 -0.003664 -0.002812 0.010329 0.000000 0.000000 0.000000
# 4 0.000000 0.000000 0.000000 0.102820 0.000000 0.000000
# 5 0.000000 0.000000 0.000000 0.000000 0.030426 0.000000
# 6 0.000000 0.000000 0.000000 0.000000 0.000000 -1.505571
#
#
# Mechanical properties :
#
#
# Convention : Reuss Voigt Hill
#
# Bulk Modulus (GPa) = 44.06932 50.00650 47.03791
# Shear Modulus (GPa) = -3.81768 22.04542 9.11387
#
# Velocity S-wave (km/s) = -1.36262 3.27443 2.10537
# Velocity P-wave (km/s) = 4.35404 6.21423 5.36537
#
# Compressibility (1/GPa) = 0.02269152
#
# Stress axis : x y z
#
# Youngs Moduli (GPa) = 89.61300 57.50577 96.81384
#
# Poissons Ratio (x) = 0.09295 0.35477
# Poissons Ratio (y) = 0.14485 0.27227
# Poissons Ratio (z) = 0.32838 0.16172
#
# Static dielectric constant tensor:
#      x y z
#    x 3.791400 0.000000 0.000000 
#    y 0.000000 3.382280 0.000000 
#    z 0.000000 0.000000 3.972390 
# 
# 
# High freq. dielectric constant tensor:
#      x y z
#    x 1.810410 0.000000 0.000000 
#    y 0.000000 1.767840 0.000000 
#    z 0.000000 0.000000 1.815900 
# 
# From -- ./inp_files/40377.got.cif
#   From: 2010.03.12/outbox.cif.g09.slc.cpg/sg65_21_cif.got.tgz:40377.got - 2010.04.10 20:52:16.
