data_PCOD8274799
_publ_section_title
;
Structure prediction by ZEFSAII (Michael W. Deem and Ramdas Pophale) SiO2 
 PCOD8274799
Probable space group: C M M M
;
_chemical_formula_sum "Si O2"
_cell_formula_units_Z 72
_cell_length_a 18.002409
_cell_length_b 8.564420
_cell_length_c 22.705011
_cell_angle_alpha 90.000000
_cell_angle_beta 90.000000
_cell_angle_gamma 90.000000
_cell_volume 3500.662948
_symmetry_space_group_name_H-M "C M M M"
_symmetry_group_IT_number 65
_symmetry_cell_setting 'orthorhombic'
loop_
_space_group_symop_operation_xyz
x,y,z
-x,-y,z
x,-y,-z
-x,y,-z
-x,-y,-z
x,y,-z
-x,y,z
x,-y,z
1/2+x,1/2+y,z
1/2-x,1/2-y,z
1/2+x,1/2-y,-z
1/2-x,1/2+y,-z
1/2-x,1/2-y,-z
1/2+x,1/2+y,-z
1/2-x,1/2+y,z
1/2+x,1/2-y,z
loop_
_atom_site_type_symbol
_atom_site_label
_atom_site_fract_x
_atom_site_fract_y
_atom_site_fract_z
Si Si1 0.085318 0.319081 0.432312
Si Si2 0.583385 0.184294 0.000000
Si Si3 0.913020 0.680345 0.219345
Si Si4 0.168471 0.182037 0.889434
Si Si5 0.168493 0.817412 0.327588
O O1 0.104382 0.283697 0.500000
O O2 0.099670 0.500000 0.417588
O O3 0.139685 0.213109 0.393556
O O4 0.000000 0.275580 0.418966
O O5 0.624279 0.239265 0.058082
O O6 0.500000 0.252717 0.000000
O O7 0.581680 0.000000 0.000000
O O8 0.892944 0.500000 0.208077
O O9 0.872034 0.786728 0.171897
O O10 0.887518 0.730149 0.283989
O O11 0.000000 0.710180 0.213823
O O12 0.250000 0.250000 0.886261
O O13 0.173045 0.000000 0.901764
O O14 0.250000 0.750000 0.318547
O O15 0.169524 0.000000 0.313994
#
# Coordination Sequence:
#
# PCOD8274799 Si02
#       5
#    16   8  16  16  16
#     4   9  19  38  63  89 119 156 197 243 298 359
#     4  11  24  43  66  93 127 165 206 251 302 359
#     4  11  24  43  66  91 122 159 199 246 302 362
#     4  12  25  42  65  93 127 163 204 252 302 357
#     4  12  25  40  60  87 121 159 201 249 300 356
#
# _framework density 20.567533000000001
#
# number of rings (size 3 to 8) (size 9 to 14) (size 15 to 20)
#    0.000    1.000    0.000    8.000    0.000    9.333 
#    0.000    1.111    0.000    0.000    0.000    0.000 
#    0.000    0.000    0.000    0.000    0.000    0.000 
#
# Total GULP energy -446672.222806 kJ/mol
# GULP energy per Si atom -12407.561745 kJ/mol
# Density = 2.052072 g / cm^3
# Si number density = 20.567533 Si / 1000 Ang^3
#
#
#
# Elastic Constant Matrix: (Units=GPa)
#
#
# Indices 1 2 3 4 5 6 
#
# 1 115.5409 50.7593 46.0420 0.0000 0.0000 0.0000
# 2 50.7593 76.1694 20.7998 0.0000 0.0000 0.0000
# 3 46.0420 20.7998 106.1309 0.0000 0.0000 0.0000
# 4 0.0000 0.0000 0.0000 10.6886 0.0000 0.0000
# 5 0.0000 0.0000 0.0000 0.0000 52.7177 0.0000
# 6 0.0000 0.0000 0.0000 0.0000 0.0000 32.1376
#
#
#
# Elastic Compliance Matrix: (Units=1/GPa)
#
#
# Indices 1 2 3 4 5 6 
#
# 1 0.014005 -0.008107 -0.004487 0.000000 0.000000 0.000000
# 2 -0.008107 0.018565 -0.000121 0.000000 0.000000 0.000000
# 3 -0.004487 -0.000121 0.011392 0.000000 0.000000 0.000000
# 4 0.000000 0.000000 0.000000 0.093558 0.000000 0.000000
# 5 0.000000 0.000000 0.000000 0.000000 0.018969 0.000000
# 6 0.000000 0.000000 0.000000 0.000000 0.000000 0.031116
#
#
# Mechanical properties :
#
#
# Convention : Reuss Voigt Hill
#
# Bulk Modulus (GPa) = 53.96306 59.22705 56.59505
# Shear Modulus (GPa) = 22.80896 31.12477 26.96687
#
# Velocity S-wave (km/s) = 3.33375 3.89433 3.62489
# Velocity P-wave (km/s) = 6.41190 7.00571 6.71537
#
# Compressibility (1/GPa) = 0.01853120
#
# Stress axis : x y z
#
# Youngs Moduli (GPa) = 71.40527 53.86615 87.77747
#
# Poissons Ratio (x) = 0.43672 0.39382
# Poissons Ratio (y) = 0.57892 0.01063
# Poissons Ratio (z) = 0.32037 0.00652
#
# Static dielectric constant tensor:
#      x y z
#    x 3.857540 0.000000 0.000000 
#    y 0.000000 3.793770 0.000000 
#    z 0.000000 0.000000 3.824480 
# 
# 
# High freq. dielectric constant tensor:
#      x y z
#    x 1.817630 0.000000 0.000000 
#    y 0.000000 1.811510 0.000000 
#    z 0.000000 0.000000 1.820450 
# 
# From -- ./inp_files/74600.got.cif
#   From: 2010.03.12/outbox.cif.g09.slc.cpg/sg65_38_cif.got.tgz:74600.got - 2010.04.10 20:52:16.
