data_PCOD8274859
_publ_section_title
;
Structure prediction by ZEFSAII (Michael W. Deem and Ramdas Pophale) SiO2 
 PCOD8274859
Probable space group: C M M M
;
_chemical_formula_sum "Si O2"
_cell_formula_units_Z 88
_cell_length_a 9.995622
_cell_length_b 19.279514
_cell_length_c 28.195552
_cell_angle_alpha 90.000000
_cell_angle_beta 90.000000
_cell_angle_gamma 90.000000
_cell_volume 5433.585530
_symmetry_space_group_name_H-M "C M M M"
_symmetry_group_IT_number 65
_symmetry_cell_setting 'orthorhombic'
loop_
_space_group_symop_operation_xyz
x,y,z
-x,-y,z
x,-y,-z
-x,y,-z
-x,-y,-z
x,y,-z
-x,y,z
x,-y,z
1/2+x,1/2+y,z
1/2-x,1/2-y,z
1/2+x,1/2-y,-z
1/2-x,1/2+y,-z
1/2-x,1/2-y,-z
1/2+x,1/2+y,-z
1/2-x,1/2+y,z
1/2+x,1/2-y,z
loop_
_atom_site_type_symbol
_atom_site_label
_atom_site_fract_x
_atom_site_fract_y
_atom_site_fract_z
Si Si1 0.349956 0.417532 0.319297
Si Si2 0.850194 0.917599 0.786101
Si Si3 0.653266 0.079964 0.866430
Si Si4 0.349473 0.083219 0.398096
Si Si5 0.346934 0.811395 0.945730
Si Si6 0.158434 0.575720 0.500000
O O1 0.500000 0.393446 0.332324
O O2 0.341169 0.500000 0.320091
O O3 0.311716 0.390468 0.266569
O O4 0.247869 0.385777 0.357795
O O5 0.744867 0.888657 0.824378
O O6 0.000000 0.892544 0.799557
O O7 0.844658 0.000000 0.785813
O O8 0.500000 0.088763 0.850202
O O9 0.683720 0.121060 0.914548
O O10 0.687933 0.000000 0.876904
O O11 0.500000 0.107810 0.386077
O O12 0.302258 0.113048 0.450078
O O13 0.344054 0.000000 0.399903
O O14 0.500000 0.786494 0.939294
O O15 0.250000 0.750000 0.928816
O O16 0.317176 0.832112 0.000000
O O17 0.227099 0.500000 0.500000
O O18 0.000000 0.566312 0.500000
#
# Coordination Sequence:
#
# PCOD8274859 Si02
#       6
#    16  16  16  16  16   8
#     4   8  13  20  28  39  57  80 106 138 178 223
#     4   8  14  24  36  50  71  98 123 150 190 237
#     4   9  17  28  43  64  86 106 132 168 205 238
#     4   8  12  17  25  35  47  68 100 137 177 220
#     4   9  18  32  48  65  86 112 139 166 198 237
#     4   7  10  16  23  31  45  65  93 133 178 219
#
# _framework density 16.195568000000002
#
# number of rings (size 3 to 8) (size 9 to 14) (size 15 to 20)
#    0.000    3.727    0.000    2.182    0.000    1.818 
#    0.000    5.909    0.000    2.727    0.000    5.091 
#    0.000    0.000    0.000    0.000    0.000    0.000 
#
# Total GULP energy -545109.616788 kJ/mol
# GULP energy per Si atom -12388.854927 kJ/mol
# Density = 1.615871 g / cm^3
# Si number density = 16.195568 Si / 1000 Ang^3
#
#
#
# Elastic Constant Matrix: (Units=GPa)
#
#
# Indices 1 2 3 4 5 6 
#
# 1 95.4675 26.4799 83.7930 0.0000 0.0000 0.0000
# 2 26.4799 23.7708 32.2501 0.0000 0.0000 0.0000
# 3 83.7930 32.2501 138.7189 0.0000 0.0000 0.0000
# 4 0.0000 0.0000 0.0000 1.5991 0.0000 0.0000
# 5 0.0000 0.0000 0.0000 0.0000 28.7157 0.0000
# 6 0.0000 0.0000 0.0000 0.0000 0.0000 11.3146
#
#
#
# Elastic Compliance Matrix: (Units=1/GPa)
#
#
# Indices 1 2 3 4 5 6 
#
# 1 0.023899 -0.010279 -0.012047 0.000000 0.000000 0.000000
# 2 -0.010279 0.065872 -0.009105 0.000000 0.000000 0.000000
# 3 -0.012047 -0.009105 0.016602 0.000000 0.000000 0.000000
# 4 0.000000 0.000000 0.000000 0.625354 0.000000 0.000000
# 5 0.000000 0.000000 0.000000 0.000000 0.034824 0.000000
# 6 0.000000 0.000000 0.000000 0.000000 0.000000 0.088382
#
#
# Mechanical properties :
#
#
# Convention : Reuss Voigt Hill
#
# Bulk Modulus (GPa) = 22.98223 60.33370 41.65796
# Shear Modulus (GPa) = 5.36308 16.02147 10.69227
#
# Velocity S-wave (km/s) = 1.82171 3.14865 2.57222
# Velocity P-wave (km/s) = 4.31811 7.11004 5.88213
#
# Compressibility (1/GPa) = 0.04351188
#
# Stress axis : x y z
#
# Youngs Moduli (GPa) = 41.84197 15.18087 60.23237
#
# Poissons Ratio (x) = 0.15605 0.72560
# Poissons Ratio (y) = 0.43011 0.54842
# Poissons Ratio (z) = 0.50405 0.13822
#
# Static dielectric constant tensor:
#      x y z
#    x 3.191200 0.000000 0.000000 
#    y 0.000000 2.379730 0.000000 
#    z 0.000000 0.000000 3.509880 
# 
# 
# High freq. dielectric constant tensor:
#      x y z
#    x 1.619680 0.000000 0.000000 
#    y 0.000000 1.540800 0.000000 
#    z 0.000000 0.000000 1.638700 
# 
# From -- ./inp_files/61474.got.cif
#   From: 2010.03.12/outbox.cif.g09.slc.cpg/sg65_31_cif.got.tgz:61474.got - 2010.04.10 20:52:16.
