data_PCOD8274416
_publ_section_title
;
Structure prediction by ZEFSAII (Michael W. Deem and Ramdas Pophale) SiO2 
 PCOD8274416
Probable space group: C M M M
;
_chemical_formula_sum "Si O2"
_cell_formula_units_Z 72
_cell_length_a 25.333237
_cell_length_b 14.098836
_cell_length_c 12.618950
_cell_angle_alpha 90.000000
_cell_angle_beta 90.000000
_cell_angle_gamma 90.000000
_cell_volume 4507.099693
_symmetry_space_group_name_H-M "C M M M"
_symmetry_group_IT_number 65
_symmetry_cell_setting 'orthorhombic'
loop_
_space_group_symop_operation_xyz
x,y,z
-x,-y,z
x,-y,-z
-x,y,-z
-x,-y,-z
x,y,-z
-x,y,z
x,-y,z
1/2+x,1/2+y,z
1/2-x,1/2-y,z
1/2+x,1/2-y,-z
1/2-x,1/2+y,-z
1/2-x,1/2-y,-z
1/2+x,1/2+y,-z
1/2-x,1/2+y,z
1/2+x,1/2-y,z
loop_
_atom_site_type_symbol
_atom_site_label
_atom_site_fract_x
_atom_site_fract_y
_atom_site_fract_z
Si Si1 0.938004 0.110716 0.000000
Si Si2 0.279738 0.609927 0.879662
Si Si3 0.840401 0.393695 0.125494
Si Si4 0.379687 0.704539 0.804084
Si Si5 0.938792 0.891601 0.378038
O O1 0.913980 0.156733 0.104450
O O2 0.000000 0.129287 0.000000
O O3 0.924126 0.000000 0.000000
O O4 0.293857 0.500000 0.871758
O O5 0.220036 0.628479 0.842289
O O6 0.319535 0.667813 0.805827
O O7 0.287743 0.645803 0.000000
O O8 0.856107 0.500000 0.162088
O O9 0.878922 0.318647 0.182399
O O10 0.846480 0.384546 0.000000
O O11 0.404414 0.680491 0.690841
O O12 0.924075 0.874273 0.500000
O O13 0.000000 0.870237 0.357667
O O14 0.926076 0.000000 0.345610
#
# Coordination Sequence:
#
# PCOD8274416 Si02
#       5
#     8  16  16  16  16
#     4  11  22  30  40  69 103 119 136 184 252 299
#     4   9  16  26  43  70 101 127 154 188 228 280
#     4   9  18  31  45  67 100 134 164 191 221 269
#     4  12  18  28  50  71  94 127 158 191 232 283
#     4   9  19  35  52  70  93 122 157 195 236 287
#
# _framework density 15.974797000000001
#
# number of rings (size 3 to 8) (size 9 to 14) (size 15 to 20)
#    0.000    2.111    2.222    5.333    0.000    3.556 
#    0.000    0.000    0.000    6.667    0.000    4.667 
#    0.000    0.000    0.000    0.000    0.000    0.000 
#
# Total GULP energy -446394.240246 kJ/mol
# GULP energy per Si atom -12399.840007 kJ/mol
# Density = 1.593844 g / cm^3
# Si number density = 15.974797 Si / 1000 Ang^3
#
#
#
# Elastic Constant Matrix: (Units=GPa)
#
#
# Indices 1 2 3 4 5 6 
#
# 1 62.3433 66.8404 39.4820 0.0000 0.0000 0.0000
# 2 66.8404 117.8380 53.0418 0.0000 0.0000 0.0000
# 3 39.4820 53.0418 71.5472 0.0000 0.0000 0.0000
# 4 0.0000 0.0000 0.0000 22.4051 0.0000 0.0000
# 5 0.0000 0.0000 0.0000 0.0000 26.0743 0.0000
# 6 0.0000 0.0000 0.0000 0.0000 0.0000 25.4641
#
#
#
# Elastic Compliance Matrix: (Units=1/GPa)
#
#
# Indices 1 2 3 4 5 6 
#
# 1 0.044291 -0.021193 -0.008729 0.000000 0.000000 0.000000
# 2 -0.021193 0.022878 -0.005265 0.000000 0.000000 0.000000
# 3 -0.008729 -0.005265 0.022697 0.000000 0.000000 0.000000
# 4 0.000000 0.000000 0.000000 0.044633 0.000000 0.000000
# 5 0.000000 0.000000 0.000000 0.000000 0.038352 0.000000
# 6 0.000000 0.000000 0.000000 0.000000 0.000000 0.039271
#
#
# Mechanical properties :
#
#
# Convention : Reuss Voigt Hill
#
# Bulk Modulus (GPa) = 51.30869 63.38411 57.34640
# Shear Modulus (GPa) = 17.30144 20.94632 19.12388
#
# Velocity S-wave (km/s) = 3.29454 3.62499 3.46371
# Velocity P-wave (km/s) = 6.83083 7.56865 7.20918
#
# Compressibility (1/GPa) = 0.01948987
#
# Stress axis : x y z
#
# Youngs Moduli (GPa) = 22.57815 43.71076 44.05845
#
# Poissons Ratio (x) = 0.92638 0.38459
# Poissons Ratio (y) = 0.47851 0.23198
# Poissons Ratio (z) = 0.19709 0.23015
#
# Static dielectric constant tensor:
#      x y z
#    x 3.011940 0.000000 0.000000 
#    y 0.000000 3.153580 0.000000 
#    z 0.000000 0.000000 2.721880 
# 
# 
# High freq. dielectric constant tensor:
#      x y z
#    x 1.610280 0.000000 0.000000 
#    y 0.000000 1.616170 0.000000 
#    z 0.000000 0.000000 1.573100 
# 
# From -- ./inp_files/30288.got.cif
#   From: 2010.03.12/outbox.cif.g09.slc.cpg/sg65_16_cif.got.tgz:30288.got - 2010.04.10 20:52:16.
