data_PCOD8274642
_publ_section_title
;
Structure prediction by ZEFSAII (Michael W. Deem and Ramdas Pophale) SiO2 
 PCOD8274642
Probable space group: C M M M
;
_chemical_formula_sum "Si O2"
_cell_formula_units_Z 88
_cell_length_a 30.775276
_cell_length_b 27.678240
_cell_length_c 7.829766
_cell_angle_alpha 90.000000
_cell_angle_beta 90.000000
_cell_angle_gamma 90.000000
_cell_volume 6669.437548
_symmetry_space_group_name_H-M "C M M M"
_symmetry_group_IT_number 65
_symmetry_cell_setting 'orthorhombic'
loop_
_space_group_symop_operation_xyz
x,y,z
-x,-y,z
x,-y,-z
-x,y,-z
-x,-y,-z
x,y,-z
-x,y,z
x,-y,z
1/2+x,1/2+y,z
1/2-x,1/2-y,z
1/2+x,1/2-y,-z
1/2-x,1/2+y,-z
1/2-x,1/2-y,-z
1/2+x,1/2+y,-z
1/2-x,1/2+y,z
1/2+x,1/2-y,z
loop_
_atom_site_type_symbol
_atom_site_label
_atom_site_fract_x
_atom_site_fract_y
_atom_site_fract_z
Si Si1 0.952122 0.692593 0.297306
Si Si2 0.592355 0.097879 0.299848
Si Si3 0.131218 0.745830 0.309202
Si Si4 0.820822 0.643838 0.309394
Si Si5 0.730534 0.826392 0.000000
Si Si6 0.047791 0.500000 0.196790
Si Si7 0.817494 0.775825 0.000000
O O1 0.953412 0.688135 0.500000
O O2 0.936566 0.641096 0.218274
O O3 0.918302 0.735120 0.248427
O O4 0.000000 0.705018 0.223967
O O5 0.588074 0.102357 0.500000
O O6 0.643120 0.104563 0.249942
O O7 0.575830 0.046337 0.242281
O O8 0.132630 0.769331 0.500000
O O9 0.156137 0.695406 0.315619
O O10 0.153282 0.781300 0.170895
O O11 0.802406 0.631976 0.500000
O O12 0.782100 0.643778 0.170737
O O13 0.782256 0.818616 0.000000
O O14 0.705689 0.775760 0.000000
O O15 0.000000 0.500000 0.288644
O O16 0.038671 0.500000 0.000000
#
# Coordination Sequence:
#
# PCOD8274642 Si02
#       7
#    16  16  16  16   8   8   8
#     4   8  13  23  39  53  63  83 115 143 169 200
#     4   9  17  29  43  52  62  84 111 142 175 209
#     4   8  14  24  35  48  69  88 103 132 162 190
#     4   8  15  26  39  54  65  81 108 130 161 203
#     4   9  16  24  38  51  67  86  98 127 157 191
#     4  11  23  31  35  51  73  89 109 139 177 217
#     4   9  16  24  33  52  68  84 107 118 154 206
#
# _framework density 13.194516
#
# number of rings (size 3 to 8) (size 9 to 14) (size 15 to 20)
#    0.000    3.364    0.000    3.000    1.273    2.182 
#    1.636    4.091    0.000    0.000    0.000    0.000 
#    0.000    0.000    0.000    0.000    0.000    0.000 
#
# Total GULP energy -545135.528991 kJ/mol
# GULP energy per Si atom -12389.443841 kJ/mol
# Density = 1.316448 g / cm^3
# Si number density = 13.194516 Si / 1000 Ang^3
#
#
#
# Elastic Constant Matrix: (Units=GPa)
#
#
# Indices 1 2 3 4 5 6 
#
# 1 101.0193 40.1620 55.6714 0.0000 0.0000 0.0000
# 2 40.1620 27.4027 23.4992 0.0000 0.0000 0.0000
# 3 55.6714 23.4992 55.6645 0.0000 0.0000 0.0000
# 4 0.0000 0.0000 0.0000 10.3475 0.0000 0.0000
# 5 0.0000 0.0000 0.0000 0.0000 16.6200 0.0000
# 6 0.0000 0.0000 0.0000 0.0000 0.0000 21.3920
#
#
#
# Elastic Compliance Matrix: (Units=1/GPa)
#
#
# Indices 1 2 3 4 5 6 
#
# 1 0.033939 -0.032342 -0.020290 0.000000 0.000000 0.000000
# 2 -0.032342 0.088022 -0.004813 0.000000 0.000000 0.000000
# 3 -0.020290 -0.004813 0.040289 0.000000 0.000000 0.000000
# 4 0.000000 0.000000 0.000000 0.096642 0.000000 0.000000
# 5 0.000000 0.000000 0.000000 0.000000 0.060169 0.000000
# 6 0.000000 0.000000 0.000000 0.000000 0.000000 0.046746
#
#
# Mechanical properties :
#
#
# Convention : Reuss Voigt Hill
#
# Bulk Modulus (GPa) = 21.11484 46.97242 34.04363
# Shear Modulus (GPa) = 10.07087 13.98882 12.02984
#
# Velocity S-wave (km/s) = 2.76572 3.25960 3.02276
# Velocity P-wave (km/s) = 5.12215 7.06002 6.16767
#
# Compressibility (1/GPa) = 0.04736005
#
# Stress axis : x y z
#
# Youngs Moduli (GPa) = 29.46467 11.36085 24.82093
#
# Poissons Ratio (x) = 0.36744 0.50361
# Poissons Ratio (y) = 0.95296 0.11945
# Poissons Ratio (z) = 0.59783 0.05467
#
# Static dielectric constant tensor:
#      x y z
#    x 2.742290 0.000000 0.000000 
#    y 0.000000 2.163540 0.000000 
#    z 0.000000 0.000000 2.814190 
# 
# 
# High freq. dielectric constant tensor:
#      x y z
#    x 1.490990 0.000000 0.000000 
#    y 0.000000 1.428310 0.000000 
#    z 0.000000 0.000000 1.510520 
# 
# From -- ./inp_files/14976.got.cif
#   From: 2010.03.12/outbox.cif.g09.slc.cpg/sg65_8_cif.got.tgz:14976.got - 2010.04.10 20:52:16.
