data_PCOD8274347
_publ_section_title
;
Structure prediction by ZEFSAII (Michael W. Deem and Ramdas Pophale) SiO2 
 PCOD8274347
Probable space group: C M M M
;
_chemical_formula_sum "Si O2"
_cell_formula_units_Z 72
_cell_length_a 18.040697
_cell_length_b 8.489067
_cell_length_c 23.315067
_cell_angle_alpha 90.000000
_cell_angle_beta 90.000000
_cell_angle_gamma 90.000000
_cell_volume 3570.671865
_symmetry_space_group_name_H-M "C M M M"
_symmetry_group_IT_number 65
_symmetry_cell_setting 'orthorhombic'
loop_
_space_group_symop_operation_xyz
x,y,z
-x,-y,z
x,-y,-z
-x,y,-z
-x,-y,-z
x,y,-z
-x,y,z
x,-y,z
1/2+x,1/2+y,z
1/2-x,1/2-y,z
1/2+x,1/2-y,-z
1/2-x,1/2+y,-z
1/2-x,1/2-y,-z
1/2+x,1/2+y,-z
1/2-x,1/2+y,z
1/2+x,1/2-y,z
loop_
_atom_site_type_symbol
_atom_site_label
_atom_site_fract_x
_atom_site_fract_y
_atom_site_fract_z
Si Si1 0.331716 0.684143 0.937949
Si Si2 0.917326 0.814800 0.500000
Si Si3 0.586507 0.682364 0.713936
Si Si4 0.333349 0.185030 0.821865
Si Si5 0.668399 0.817116 0.392362
O O1 0.328784 0.500000 0.923012
O O2 0.250000 0.750000 0.944155
O O3 0.369326 0.775132 0.884457
O O4 0.372325 0.712089 0.000000
O O5 0.874735 0.764416 0.443544
O O6 0.000000 0.740539 0.500000
O O7 0.923301 0.000000 0.500000
O O8 0.500000 0.719313 0.711341
O O9 0.603372 0.500000 0.701164
O O10 0.616016 0.727383 0.776158
O O11 0.626686 0.788664 0.667034
O O12 0.250000 0.250000 0.817971
O O13 0.333989 0.000000 0.810293
O O14 0.750000 0.750000 0.387399
O O15 0.672949 0.000000 0.405781
#
# Coordination Sequence:
#
# PCOD8274347 Si02
#       5
#    16   8  16  16  16
#     4   9  16  27  46  74 108 144 184 231 283 338
#     4  11  24  43  66  93 127 163 198 237 286 341
#     4  11  24  42  62  84 114 151 191 237 291 348
#     4  11  21  34  55  82 114 149 189 236 285 341
#     4  12  25  42  65  92 123 156 196 242 287 338
#
# _framework density 20.164272
#
# number of rings (size 3 to 8) (size 9 to 14) (size 15 to 20)
#    0.000    1.222    0.000    8.667    0.000    6.667 
#    0.000    0.000    0.000    0.667    0.000    4.667 
#    0.000    0.000    0.000    0.000    0.000    0.000 
#
# Total GULP energy -446381.010792 kJ/mol
# GULP energy per Si atom -12399.472522 kJ/mol
# Density = 2.011838 g / cm^3
# Si number density = 20.164272 Si / 1000 Ang^3
#
#
#
# Elastic Constant Matrix: (Units=GPa)
#
#
# Indices 1 2 3 4 5 6 
#
# 1 96.8888 33.2556 50.5887 0.0000 0.0000 0.0000
# 2 33.2556 74.8628 10.4605 0.0000 0.0000 0.0000
# 3 50.5887 10.4605 144.6809 0.0000 0.0000 0.0000
# 4 0.0000 0.0000 0.0000 49.7204 0.0000 0.0000
# 5 0.0000 0.0000 0.0000 0.0000 294.2914 0.0000
# 6 0.0000 0.0000 0.0000 0.0000 0.0000 28.3101
#
#
#
# Elastic Compliance Matrix: (Units=1/GPa)
#
#
# Indices 1 2 3 4 5 6 
#
# 1 0.014841 -0.005928 -0.004761 0.000000 0.000000 0.000000
# 2 -0.005928 0.015862 0.000926 0.000000 0.000000 0.000000
# 3 -0.004761 0.000926 0.008509 0.000000 0.000000 0.000000
# 4 0.000000 0.000000 0.000000 0.020112 0.000000 0.000000
# 5 0.000000 0.000000 0.000000 0.000000 0.003398 0.000000
# 6 0.000000 0.000000 0.000000 0.000000 0.000000 0.035323
#
#
# Mechanical properties :
#
#
# Convention : Reuss Voigt Hill
#
# Bulk Modulus (GPa) = 50.79440 56.11581 53.45510
# Shear Modulus (GPa) = 40.27909 89.27289 64.77599
#
# Velocity S-wave (km/s) = 4.47424 6.66100 5.67396
# Velocity P-wave (km/s) = 7.20672 9.32997 8.33622
#
# Compressibility (1/GPa) = 0.01968721
#
# Stress axis : x y z
#
# Youngs Moduli (GPa) = 67.37869 63.04540 117.51589
#
# Poissons Ratio (x) = 0.37371 0.55948
# Poissons Ratio (y) = 0.39940 -0.10880
# Poissons Ratio (z) = 0.32078 -0.05837
#
# Static dielectric constant tensor:
#      x y z
#    x 3.496040 0.000000 0.000000 
#    y 0.000000 3.947480 0.000000 
#    z 0.000000 0.000000 4.339330 
# 
# 
# High freq. dielectric constant tensor:
#      x y z
#    x 1.758180 0.000000 0.000000 
#    y 0.000000 1.803960 0.000000 
#    z 0.000000 0.000000 1.816690 
# 
# From -- ./inp_files/70307.got.cif
#   From: 2010.03.12/outbox.cif.g09.slc.cpg/sg65_36_cif.got.tgz:70307.got - 2010.04.10 20:52:16.
