data_PCOD8274296
_publ_section_title
;
Structure prediction by ZEFSAII (Michael W. Deem and Ramdas Pophale) SiO2 
 PCOD8274296
Probable space group: C M M M
;
_chemical_formula_sum "Si O2"
_cell_formula_units_Z 96
_cell_length_a 14.952985
_cell_length_b 22.247155
_cell_length_c 14.141139
_cell_angle_alpha 90.000000
_cell_angle_beta 90.000000
_cell_angle_gamma 90.000000
_cell_volume 4704.210744
_symmetry_space_group_name_H-M "C M M M"
_symmetry_group_IT_number 65
_symmetry_cell_setting 'orthorhombic'
loop_
_space_group_symop_operation_xyz
x,y,z
-x,-y,z
x,-y,-z
-x,y,-z
-x,-y,-z
x,y,-z
-x,y,z
x,-y,z
1/2+x,1/2+y,z
1/2-x,1/2-y,z
1/2+x,1/2-y,-z
1/2-x,1/2+y,-z
1/2-x,1/2-y,-z
1/2+x,1/2+y,-z
1/2-x,1/2+y,z
1/2+x,1/2-y,z
loop_
_atom_site_type_symbol
_atom_site_label
_atom_site_fract_x
_atom_site_fract_y
_atom_site_fract_z
Si Si1 0.636705 0.193069 0.394332
Si Si2 0.901762 0.348834 0.799725
Si Si3 0.600628 0.724213 0.892578
Si Si4 0.725004 0.387458 0.889354
Si Si5 0.846012 0.172593 0.395063
Si Si6 0.100984 0.065669 0.256688
O O1 0.601563 0.176328 0.500000
O O2 0.594905 0.149327 0.314892
O O3 0.741341 0.182448 0.389549
O O4 0.610058 0.262549 0.371503
O O5 0.879917 0.280583 0.827025
O O6 0.825135 0.389857 0.846115
O O7 0.000000 0.369187 0.837425
O O8 0.500000 0.698277 0.876001
O O9 0.676156 0.675769 0.868434
O O10 0.611292 0.746462 0.000000
O O11 0.665691 0.436127 0.834592
O O12 0.728634 0.402941 0.000000
O O13 0.874997 0.152406 0.500000
O O14 0.876502 0.120322 0.325673
O O15 0.000000 0.073914 0.220612
O O16 0.112242 0.000000 0.306593
#
# Coordination Sequence:
#
# PCOD8274296 Si02
#       6
#    16  16  16  16  16  16
#     4   9  18  33  56  85 117 155 193 232 285 344
#     4  11  21  32  52  82 115 148 187 237 287 346
#     4   9  18  31  49  77 110 146 188 232 284 347
#     4  11  22  37  56  76 108 153 196 241 294 345
#     4   9  18  35  58  85 119 156 194 235 282 342
#     4  11  24  40  60  87 117 153 198 242 286 342
#
# _framework density 20.407249
#
# number of rings (size 3 to 8) (size 9 to 14) (size 15 to 20)
#    0.000    2.000    1.667    3.500    2.333    6.667 
#    0.000    3.333    0.000    0.500    0.000    1.167 
#    0.000    2.667    0.000    0.000    0.000    0.000 
#
# Total GULP energy -594847.937325 kJ/mol
# GULP energy per Si atom -12392.665361 kJ/mol
# Density = 2.036080 g / cm^3
# Si number density = 20.407249 Si / 1000 Ang^3
#
#
#
# Elastic Constant Matrix: (Units=GPa)
#
#
# Indices 1 2 3 4 5 6 
#
# 1 122.6780 33.3555 43.1921 0.0000 0.0000 0.0000
# 2 33.3555 58.3100 38.7746 0.0000 0.0000 0.0000
# 3 43.1921 38.7746 114.9685 0.0000 0.0000 0.0000
# 4 0.0000 0.0000 0.0000 13.8343 0.0000 0.0000
# 5 0.0000 0.0000 0.0000 0.0000 18.9592 0.0000
# 6 0.0000 0.0000 0.0000 0.0000 0.0000 -0.9929
#
#
#
# Elastic Compliance Matrix: (Units=1/GPa)
#
#
# Indices 1 2 3 4 5 6 
#
# 1 0.010137 -0.004211 -0.002388 0.000000 0.000000 0.000000
# 2 -0.004211 0.023857 -0.006464 0.000000 0.000000 0.000000
# 3 -0.002388 -0.006464 0.011775 0.000000 0.000000 0.000000
# 4 0.000000 0.000000 0.000000 0.072284 0.000000 0.000000
# 5 0.000000 0.000000 0.000000 0.000000 0.052745 0.000000
# 6 0.000000 0.000000 0.000000 0.000000 0.000000 -1.007123
#
#
# Mechanical properties :
#
#
# Convention : Reuss Voigt Hill
#
# Bulk Modulus (GPa) = 50.90823 58.51123 54.70973
# Shear Modulus (GPa) = -6.22160 18.40241 6.09040
#
# Velocity S-wave (km/s) = -1.74795 3.00619 1.72942
# Velocity P-wave (km/s) = 4.57455 6.38620 5.55473
#
# Compressibility (1/GPa) = 0.01964319
#
# Stress axis : x y z
#
# Youngs Moduli (GPa) = 98.64718 41.91666 84.92285
#
# Poissons Ratio (x) = 0.17650 0.20282
# Poissons Ratio (y) = 0.41537 0.54895
# Poissons Ratio (z) = 0.23560 0.27096
#
# Static dielectric constant tensor:
#      x y z
#    x 3.804630 0.000000 0.000000 
#    y 0.000000 3.447660 0.000000 
#    z 0.000000 0.000000 4.035200 
# 
# 
# High freq. dielectric constant tensor:
#      x y z
#    x 1.807300 0.000000 0.000000 
#    y 0.000000 1.739200 0.000000 
#    z 0.000000 0.000000 1.809060 
# 
# From -- ./inp_files/40401.got.cif
#   From: 2010.03.12/outbox.cif.g09.slc.cpg/sg65_21_cif.got.tgz:40401.got - 2010.04.10 20:52:16.
