data_PCOD8274849
_publ_section_title
;
Structure prediction by ZEFSAII (Michael W. Deem and Ramdas Pophale) SiO2 
 PCOD8274849
Probable space group: C M M M
;
_chemical_formula_sum "Si O2"
_cell_formula_units_Z 88
_cell_length_a 8.784497
_cell_length_b 19.826598
_cell_length_c 27.915896
_cell_angle_alpha 90.000000
_cell_angle_beta 90.000000
_cell_angle_gamma 90.000000
_cell_volume 4862.019223
_symmetry_space_group_name_H-M "C M M M"
_symmetry_group_IT_number 65
_symmetry_cell_setting 'orthorhombic'
loop_
_space_group_symop_operation_xyz
x,y,z
-x,-y,z
x,-y,-z
-x,y,-z
-x,-y,-z
x,y,-z
-x,y,z
x,-y,z
1/2+x,1/2+y,z
1/2-x,1/2-y,z
1/2+x,1/2-y,-z
1/2-x,1/2+y,-z
1/2-x,1/2-y,-z
1/2+x,1/2+y,-z
1/2-x,1/2+y,z
1/2+x,1/2-y,z
loop_
_atom_site_type_symbol
_atom_site_label
_atom_site_fract_x
_atom_site_fract_y
_atom_site_fract_z
Si Si1 0.820002 0.679153 0.130296
Si Si2 0.820010 0.825158 0.500000
Si Si3 0.819077 0.575138 0.946849
Si Si4 0.319663 0.073994 0.314365
Si Si5 0.179992 0.679254 0.238291
Si Si6 0.321262 0.077988 0.577142
O O1 0.750000 0.750000 0.115242
O O2 0.751320 0.624200 0.093691
O O3 0.771774 0.658940 0.184303
O O4 0.000000 0.684610 0.125774
O O5 0.750000 0.750000 0.500000
O O6 0.770249 0.868205 0.546050
O O7 0.000000 0.816706 0.500000
O O8 0.756174 0.500000 0.937067
O O9 0.000000 0.574416 0.943699
O O10 0.768207 0.599331 0.000000
O O11 0.500000 0.071538 0.309626
O O12 0.250780 0.125051 0.275313
O O13 0.276272 0.095322 0.368237
O O14 0.252260 0.000000 0.303214
O O15 0.250000 0.750000 0.253290
O O16 0.000000 0.684536 0.242862
O O17 0.500000 0.088144 0.567860
O O18 0.277577 0.000000 0.564941
#
# Coordination Sequence:
#
# PCOD8274849 Si02
#       6
#    16   8  16  16  16  16
#     4   9  17  28  43  64  89 118 151 187 227 271
#     4  12  25  38  53  75 103 131 163 202 239 278
#     4   8  14  25  41  62  87 113 145 188 233 272
#     4   8  15  29  50  74  96 120 153 191 228 269
#     4   9  17  29  45  66  93 122 152 187 227 271
#     4   9  18  35  57  77 100 130 160 192 236 287
#
# _framework density 18.099475999999999
#
# number of rings (size 3 to 8) (size 9 to 14) (size 15 to 20)
#    0.000    3.091    0.000    2.727    0.000    3.273 
#    0.000    6.364    0.000    2.182    0.000    6.364 
#    0.000    0.000    0.000    0.000    0.000    0.000 
#
# Total GULP energy -545347.646371 kJ/mol
# GULP energy per Si atom -12394.264690 kJ/mol
# Density = 1.805828 g / cm^3
# Si number density = 18.099476 Si / 1000 Ang^3
#
#
#
# Elastic Constant Matrix: (Units=GPa)
#
#
# Indices 1 2 3 4 5 6 
#
# 1 30.8383 36.1484 27.2207 0.0000 0.0000 0.0000
# 2 36.1484 156.1678 119.1458 0.0000 0.0000 0.0000
# 3 27.2207 119.1458 156.4437 0.0000 0.0000 0.0000
# 4 0.0000 0.0000 0.0000 38.4368 0.0000 0.0000
# 5 0.0000 0.0000 0.0000 0.0000 14.6684 0.0000
# 6 0.0000 0.0000 0.0000 0.0000 0.0000 25.6602
#
#
#
# Elastic Compliance Matrix: (Units=1/GPa)
#
#
# Indices 1 2 3 4 5 6 
#
# 1 0.044506 -0.010487 0.000243 0.000000 0.000000 0.000000
# 2 -0.010487 0.017755 -0.011697 0.000000 0.000000 0.000000
# 3 0.000243 -0.011697 0.015258 0.000000 0.000000 0.000000
# 4 0.000000 0.000000 0.000000 0.026017 0.000000 0.000000
# 5 0.000000 0.000000 0.000000 0.000000 0.068174 0.000000
# 6 0.000000 0.000000 0.000000 0.000000 0.000000 0.038971
#
#
# Mechanical properties :
#
#
# Convention : Reuss Voigt Hill
#
# Bulk Modulus (GPa) = 29.72988 78.71995 54.22492
# Shear Modulus (GPa) = 18.81281 26.48207 22.64744
#
# Velocity S-wave (km/s) = 3.22749 3.82925 3.54118
# Velocity P-wave (km/s) = 5.50912 7.94596 6.83698
#
# Compressibility (1/GPa) = 0.03363619
#
# Stress axis : x y z
#
# Youngs Moduli (GPa) = 22.46904 56.32114 65.53749
#
# Poissons Ratio (x) = 0.59066 -0.01594
# Poissons Ratio (y) = 0.23564 0.76662
# Poissons Ratio (z) = -0.00547 0.65882
#
# Static dielectric constant tensor:
#      x y z
#    x 2.895990 0.000000 0.000000 
#    y 0.000000 3.645530 0.000000 
#    z 0.000000 0.000000 3.664550 
# 
# 
# High freq. dielectric constant tensor:
#      x y z
#    x 1.655780 0.000000 0.000000 
#    y 0.000000 1.703610 0.000000 
#    z 0.000000 0.000000 1.713370 
# 
# From -- ./inp_files/76703.got.cif
#   From: 2010.03.12/outbox.cif.g09.slc.cpg/sg65_39_cif.got.tgz:76703.got - 2010.04.10 20:52:16.
