data_PCOD8274735
_publ_section_title
;
Structure prediction by ZEFSAII (Michael W. Deem and Ramdas Pophale) SiO2 
 PCOD8274735
Probable space group: C M M M
;
_chemical_formula_sum "Si O2"
_cell_formula_units_Z 72
_cell_length_a 18.133455
_cell_length_b 9.664863
_cell_length_c 21.389666
_cell_angle_alpha 90.000000
_cell_angle_beta 90.000000
_cell_angle_gamma 90.000000
_cell_volume 3748.696358
_symmetry_space_group_name_H-M "C M M M"
_symmetry_group_IT_number 65
_symmetry_cell_setting 'orthorhombic'
loop_
_space_group_symop_operation_xyz
x,y,z
-x,-y,z
x,-y,-z
-x,y,-z
-x,-y,-z
x,y,-z
-x,y,z
x,-y,z
1/2+x,1/2+y,z
1/2-x,1/2-y,z
1/2+x,1/2-y,-z
1/2-x,1/2+y,-z
1/2-x,1/2-y,-z
1/2+x,1/2+y,-z
1/2-x,1/2+y,z
1/2+x,1/2-y,z
loop_
_atom_site_type_symbol
_atom_site_label
_atom_site_fract_x
_atom_site_fract_y
_atom_site_fract_z
Si Si1 0.088005 0.843071 0.634859
Si Si2 0.663586 0.239813 0.130595
Si Si3 0.579964 0.000000 0.928611
Si Si4 0.420080 0.662542 0.500000
Si Si5 0.675869 0.834829 0.728824
Si Si6 0.912112 0.000000 0.073128
O O1 0.120562 0.800605 0.565708
O O2 0.114819 0.726752 0.682754
O O3 0.000000 0.839186 0.632675
O O4 0.113740 0.000000 0.653274
O O5 0.750000 0.250000 0.117426
O O6 0.629500 0.130205 0.084762
O O7 0.647850 0.194875 0.201477
O O8 0.621241 0.377063 0.113035
O O9 0.500000 0.000000 0.892920
O O10 0.560174 0.000000 0.000000
O O11 0.433023 0.500000 0.500000
O O12 0.500000 0.736873 0.500000
O O13 0.750000 0.750000 0.715080
O O14 0.686957 0.000000 0.718758
O O15 0.000000 0.000000 0.077510
O O16 0.887500 0.000000 0.000000
#
# Coordination Sequence:
#
# PCOD8274735 Si02
#       6
#    16  16   8   8  16   8
#     4   9  18  34  60  91 121 157 199 243 293 352
#     4  11  24  41  63  88 117 159 204 247 294 358
#     4  11  23  41  63  89 121 154 191 244 307 357
#     4   7  12  28  54  85 120 155 195 241 288 343
#     4  11  24  41  60  84 118 157 198 249 300 351
#     4  11  25  43  63  91 125 156 193 248 307 361
#
# _framework density 19.206676000000002
#
# number of rings (size 3 to 8) (size 9 to 14) (size 15 to 20)
#    0.000    1.889    1.111    4.000    6.222    6.667 
#    0.000    1.111    0.000    2.000    0.000    0.000 
#    0.000    0.000    0.000    0.000    0.000    0.000 
#
# Total GULP energy -446040.548374 kJ/mol
# GULP energy per Si atom -12390.015233 kJ/mol
# Density = 1.916296 g / cm^3
# Si number density = 19.206676 Si / 1000 Ang^3
#
#
#
# Elastic Constant Matrix: (Units=GPa)
#
#
# Indices 1 2 3 4 5 6 
#
# 1 78.3613 47.9589 53.6718 0.0000 0.0000 0.0000
# 2 47.9589 159.4715 56.9095 0.0000 0.0000 0.0000
# 3 53.6718 56.9095 100.4138 0.0000 0.0000 0.0000
# 4 0.0000 0.0000 0.0000 171.9060 0.0000 0.0000
# 5 0.0000 0.0000 0.0000 0.0000 16.0291 0.0000
# 6 0.0000 0.0000 0.0000 0.0000 0.0000 -61.4920
#
#
#
# Elastic Compliance Matrix: (Units=1/GPa)
#
#
# Indices 1 2 3 4 5 6 
#
# 1 0.021162 -0.002918 -0.009658 0.000000 0.000000 0.000000
# 2 -0.002918 0.008263 -0.003123 0.000000 0.000000 0.000000
# 3 -0.009658 -0.003123 0.016891 0.000000 0.000000 0.000000
# 4 0.000000 0.000000 0.000000 0.005817 0.000000 0.000000
# 5 0.000000 0.000000 0.000000 0.000000 0.062386 0.000000
# 6 0.000000 0.000000 0.000000 0.000000 0.000000 -0.016262
#
#
# Mechanical properties :
#
#
# Convention : Reuss Voigt Hill
#
# Bulk Modulus (GPa) = 67.03161 72.81411 69.92286
# Shear Modulus (GPa) = 37.13966 37.26906 37.20436
#
# Velocity S-wave (km/s) = 4.40214 4.40980 4.40597
# Velocity P-wave (km/s) = 7.79836 7.99510 7.89734
#
# Compressibility (1/GPa) = 0.01491834
#
# Stress axis : x y z
#
# Youngs Moduli (GPa) = 47.25495 121.02432 59.20315
#
# Poissons Ratio (x) = 0.35311 0.57176
# Poissons Ratio (y) = 0.13788 0.18492
# Poissons Ratio (z) = 0.45637 0.37801
#
# Static dielectric constant tensor:
#      x y z
#    x 3.400780 0.000000 0.000000 
#    y 0.000000 3.521820 0.000000 
#    z 0.000000 0.000000 3.880150 
# 
# 
# High freq. dielectric constant tensor:
#      x y z
#    x 1.737020 0.000000 0.000000 
#    y 0.000000 1.746160 0.000000 
#    z 0.000000 0.000000 1.760360 
# 
# From -- ./inp_files/70395.got.cif
#   From: 2010.03.12/outbox.cif.g09.slc.cpg/sg65_36_cif.got.tgz:70395.got - 2010.04.10 20:52:16.
