data_PCOD8274503
_publ_section_title
;
Structure prediction by ZEFSAII (Michael W. Deem and Ramdas Pophale) SiO2 
 PCOD8274503
Probable space group: C M M M
;
_chemical_formula_sum "Si O2"
_cell_formula_units_Z 88
_cell_length_a 30.817116
_cell_length_b 8.726539
_cell_length_c 17.676094
_cell_angle_alpha 90.000000
_cell_angle_beta 90.000000
_cell_angle_gamma 90.000000
_cell_volume 4753.574771
_symmetry_space_group_name_H-M "C M M M"
_symmetry_group_IT_number 65
_symmetry_cell_setting 'orthorhombic'
loop_
_space_group_symop_operation_xyz
x,y,z
-x,-y,z
x,-y,-z
-x,y,-z
-x,-y,-z
x,y,-z
-x,y,z
x,-y,z
1/2+x,1/2+y,z
1/2-x,1/2-y,z
1/2+x,1/2-y,-z
1/2-x,1/2+y,-z
1/2-x,1/2-y,-z
1/2+x,1/2+y,-z
1/2-x,1/2+y,z
1/2+x,1/2-y,z
loop_
_atom_site_type_symbol
_atom_site_label
_atom_site_fract_x
_atom_site_fract_y
_atom_site_fract_z
Si Si1 0.293898 0.180710 0.261564
Si Si2 0.588328 0.673459 0.636004
Si Si3 0.451590 0.317903 0.914084
Si Si4 0.379024 0.325580 0.198725
Si Si5 0.178787 0.818209 0.415275
Si Si6 0.500000 0.328144 0.588320
O O1 0.250000 0.250000 0.225229
O O2 0.334364 0.232722 0.209666
O O3 0.294490 0.236280 0.349188
O O4 0.291739 0.000000 0.260537
O O5 0.584185 0.500000 0.606234
O O6 0.593847 0.681272 0.725052
O O7 0.629487 0.744883 0.592291
O O8 0.543474 0.760614 0.615832
O O9 0.500000 0.260150 0.888504
O O10 0.451006 0.500000 0.907074
O O11 0.411644 0.251789 0.863799
O O12 0.443108 0.265249 0.000000
O O13 0.366390 0.500000 0.177902
O O14 0.196185 0.778128 0.500000
O O15 0.180572 0.000000 0.399724
O O16 0.500000 0.500000 0.623951
O O17 0.500000 0.335215 0.500000
#
# Coordination Sequence:
#
# PCOD8274503 Si02
#       6
#    16  16  16  16  16   8
#     4  11  22  36  53  72  96 126 167 212 259 309
#     4   8  14  22  35  59  90 124 160 199 241 279
#     4   8  14  25  46  80 116 143 167 200 243 289
#     4   9  17  30  49  73 102 133 167 205 247 294
#     4   9  17  31  49  69  96 128 163 207 257 305
#     4   9  14  18  28  52  86 120 156 199 241 275
#
# _framework density 18.512383
#
# number of rings (size 3 to 8) (size 9 to 14) (size 15 to 20)
#    0.000    3.000    0.000    3.818    1.273    2.909 
#    0.000    0.000    0.000    1.636    0.000    1.273 
#    0.000    6.909    0.000    0.000    0.000    0.000 
#
# Total GULP energy -545082.338243 kJ/mol
# GULP energy per Si atom -12388.234960 kJ/mol
# Density = 1.847025 g / cm^3
# Si number density = 18.512383 Si / 1000 Ang^3
#
#
#
# Elastic Constant Matrix: (Units=GPa)
#
#
# Indices 1 2 3 4 5 6 
#
# 1 156.5458 39.8133 51.7992 0.0000 0.0000 0.0000
# 2 39.8133 58.7249 22.8952 0.0000 0.0000 0.0000
# 3 51.7992 22.8952 75.0666 0.0000 0.0000 0.0000
# 4 0.0000 0.0000 0.0000 11.5876 0.0000 0.0000
# 5 0.0000 0.0000 0.0000 0.0000 18.4151 0.0000
# 6 0.0000 0.0000 0.0000 0.0000 0.0000 16.2267
#
#
#
# Elastic Compliance Matrix: (Units=1/GPa)
#
#
# Indices 1 2 3 4 5 6 
#
# 1 0.009119 -0.004233 -0.005002 0.000000 0.000000 0.000000
# 2 -0.004233 0.021291 -0.003573 0.000000 0.000000 0.000000
# 3 -0.005002 -0.003573 0.017863 0.000000 0.000000 0.000000
# 4 0.000000 0.000000 0.000000 0.086299 0.000000 0.000000
# 5 0.000000 0.000000 0.000000 0.000000 0.054303 0.000000
# 6 0.000000 0.000000 0.000000 0.000000 0.000000 0.061627
#
#
# Mechanical properties :
#
#
# Convention : Reuss Voigt Hill
#
# Bulk Modulus (GPa) = 44.13398 57.70585 50.91991
# Shear Modulus (GPa) = 17.62611 20.96786 19.29699
#
# Velocity S-wave (km/s) = 3.08900 3.36912 3.23210
# Velocity P-wave (km/s) = 6.05100 6.80983 6.44160
#
# Compressibility (1/GPa) = 0.02265828
#
# Stress axis : x y z
#
# Youngs Moduli (GPa) = 109.65630 46.96794 55.98224
#
# Poissons Ratio (x) = 0.19879 0.28002
# Poissons Ratio (y) = 0.46412 0.20003
# Poissons Ratio (z) = 0.54849 0.16782
#
# Static dielectric constant tensor:
#      x y z
#    x 3.843940 0.000000 0.000000 
#    y 0.000000 2.871240 0.000000 
#    z 0.000000 0.000000 3.316410 
# 
# 
# High freq. dielectric constant tensor:
#      x y z
#    x 1.738050 0.000000 0.000000 
#    y 0.000000 1.656200 0.000000 
#    z 0.000000 0.000000 1.695500 
# 
# From -- ./inp_files/57991.got.cif
#   From: 2010.03.12/outbox.cif.g09.slc.cpg/sg65_29_cif.got.tgz:57991.got - 2010.04.10 20:52:16.
