data_PCOD8274304
_publ_section_title
;
Structure prediction by ZEFSAII (Michael W. Deem and Ramdas Pophale) SiO2 
 PCOD8274304
Probable space group: C M M M
;
_chemical_formula_sum "Si O2"
_cell_formula_units_Z 104
_cell_length_a 28.683755
_cell_length_b 8.696798
_cell_length_c 23.194414
_cell_angle_alpha 90.000000
_cell_angle_beta 90.000000
_cell_angle_gamma 90.000000
_cell_volume 5786.004830
_symmetry_space_group_name_H-M "C M M M"
_symmetry_group_IT_number 65
_symmetry_cell_setting 'orthorhombic'
loop_
_space_group_symop_operation_xyz
x,y,z
-x,-y,z
x,-y,-z
-x,y,-z
-x,-y,-z
x,y,-z
-x,y,z
x,-y,z
1/2+x,1/2+y,z
1/2-x,1/2-y,z
1/2+x,1/2-y,-z
1/2-x,1/2+y,-z
1/2-x,1/2-y,-z
1/2+x,1/2+y,-z
1/2-x,1/2+y,z
1/2+x,1/2-y,z
loop_
_atom_site_type_symbol
_atom_site_label
_atom_site_fract_x
_atom_site_fract_y
_atom_site_fract_z
Si Si1 0.698954 0.317330 0.284366
Si Si2 0.852267 0.321192 0.392269
Si Si3 0.856045 0.817690 0.828406
Si Si4 0.551641 0.824118 0.655134
Si Si5 0.698795 0.319697 0.500000
Si Si6 0.799734 0.818004 0.935622
Si Si7 0.949160 0.818483 0.776442
O O1 0.699558 0.500000 0.292796
O O2 0.750000 0.250000 0.290950
O O3 0.666815 0.240608 0.332206
O O4 0.678892 0.267346 0.222347
O O5 0.839807 0.500000 0.399526
O O6 0.908400 0.293355 0.392628
O O7 0.829715 0.229072 0.444126
O O8 0.837348 0.753944 0.889640
O O9 0.907975 0.749893 0.816717
O O10 0.858714 0.000000 0.830265
O O11 0.500000 0.788593 0.629054
O O12 0.561567 0.718831 0.710230
O O13 0.554533 0.000000 0.676285
O O14 0.704892 0.500000 0.500000
O O15 0.750000 0.250000 0.500000
O O16 0.750000 0.750000 0.918859
O O17 0.795588 0.000000 0.931671
O O18 0.814911 0.765853 0.000000
O O19 0.000000 0.751017 0.794890
O O20 0.949630 0.000000 0.782470
#
# Coordination Sequence:
#
# PCOD8274304 Si02
#       7
#    16  16  16  16   8  16  16
#     4  11  21  33  49  72 103 133 166 209 258 307
#     4  11  22  38  58  80 106 136 171 208 252 303
#     4   9  17  29  46  71 100 129 165 208 256 304
#     4   9  18  33  54  80 108 135 165 205 252 301
#     4  12  26  44  63  80 103 137 178 215 251 298
#     4   9  17  30  47  66  93 131 172 212 253 300
#     4   9  16  28  48  72  99 131 166 204 250 305
#
# _framework density 17.974406999999999
#
# number of rings (size 3 to 8) (size 9 to 14) (size 15 to 20)
#    0.000    2.154    1.538    2.538    0.000    0.615 
#    0.000    1.923    0.000    2.769    0.000    3.231 
#    0.000    0.000    0.000    7.692    0.000    8.000 
#
# Total GULP energy -644578.721071 kJ/mol
# GULP energy per Si atom -12395.744636 kJ/mol
# Density = 1.793350 g / cm^3
# Si number density = 17.974407 Si / 1000 Ang^3
#
#
#
# Elastic Constant Matrix: (Units=GPa)
#
#
# Indices 1 2 3 4 5 6 
#
# 1 155.6623 33.4582 67.2350 0.0000 0.0000 0.0000
# 2 33.4582 50.6026 25.2097 0.0000 0.0000 0.0000
# 3 67.2350 25.2097 105.2245 0.0000 0.0000 0.0000
# 4 0.0000 0.0000 0.0000 3.9522 0.0000 0.0000
# 5 0.0000 0.0000 0.0000 0.0000 28.7489 0.0000
# 6 0.0000 0.0000 0.0000 0.0000 0.0000 18.1865
#
#
#
# Elastic Compliance Matrix: (Units=1/GPa)
#
#
# Indices 1 2 3 4 5 6 
#
# 1 0.009439 -0.003675 -0.005151 0.000000 0.000000 0.000000
# 2 -0.003675 0.023871 -0.003371 0.000000 0.000000 0.000000
# 3 -0.005151 -0.003371 0.013602 0.000000 0.000000 0.000000
# 4 0.000000 0.000000 0.000000 0.253023 0.000000 0.000000
# 5 0.000000 0.000000 0.000000 0.000000 0.034784 0.000000
# 6 0.000000 0.000000 0.000000 0.000000 0.000000 0.054986
#
#
# Mechanical properties :
#
#
# Convention : Reuss Voigt Hill
#
# Bulk Modulus (GPa) = 44.40670 62.58836 53.49753
# Shear Modulus (GPa) = 11.85948 22.54996 17.20472
#
# Velocity S-wave (km/s) = 2.57144 3.54582 3.09719
# Velocity P-wave (km/s) = 5.79444 7.18750 6.52824
#
# Compressibility (1/GPa) = 0.02251913
#
# Stress axis : x y z
#
# Youngs Moduli (GPa) = 105.94626 41.89190 73.51767
#
# Poissons Ratio (x) = 0.15395 0.37866
# Poissons Ratio (y) = 0.38934 0.24782
# Poissons Ratio (z) = 0.54569 0.14121
#
# Static dielectric constant tensor:
#      x y z
#    x 3.969030 0.000000 0.000000 
#    y 0.000000 3.241330 0.000000 
#    z 0.000000 0.000000 3.538470 
# 
# 
# High freq. dielectric constant tensor:
#      x y z
#    x 1.711950 0.000000 0.000000 
#    y 0.000000 1.684320 0.000000 
#    z 0.000000 0.000000 1.676140 
# 
# From -- ./inp_files/66350.got.cif
#   From: 2010.03.12/outbox.cif.g09.slc.cpg/sg65_34_cif.got.tgz:66350.got - 2010.04.10 20:52:16.
