data_PCOD8274317
_publ_section_title
;
Structure prediction by ZEFSAII (Michael W. Deem and Ramdas Pophale) SiO2 
 PCOD8274317
Probable space group: C M M M
;
_chemical_formula_sum "Si O2"
_cell_formula_units_Z 72
_cell_length_a 19.038881
_cell_length_b 8.859018
_cell_length_c 23.258770
_cell_angle_alpha 90.000000
_cell_angle_beta 90.000000
_cell_angle_gamma 90.000000
_cell_volume 3922.958804
_symmetry_space_group_name_H-M "C M M M"
_symmetry_group_IT_number 65
_symmetry_cell_setting 'orthorhombic'
loop_
_space_group_symop_operation_xyz
x,y,z
-x,-y,z
x,-y,-z
-x,y,-z
-x,-y,-z
x,y,-z
-x,y,z
x,-y,z
1/2+x,1/2+y,z
1/2-x,1/2-y,z
1/2+x,1/2-y,-z
1/2-x,1/2+y,-z
1/2-x,1/2-y,-z
1/2+x,1/2+y,-z
1/2-x,1/2+y,z
1/2+x,1/2-y,z
loop_
_atom_site_type_symbol
_atom_site_label
_atom_site_fract_x
_atom_site_fract_y
_atom_site_fract_z
Si Si1 0.825625 0.323572 0.102948
Si Si2 0.673706 0.677287 0.658840
Si Si3 0.825754 0.323349 0.770565
Si Si4 0.921174 0.320127 0.000000
Si Si5 0.581402 0.827474 0.433927
O O1 0.813484 0.500000 0.094012
O O2 0.750000 0.250000 0.093831
O O3 0.859185 0.291922 0.166441
O O4 0.880590 0.259748 0.056433
O O5 0.682214 0.500000 0.665080
O O6 0.750000 0.750000 0.650286
O O7 0.635242 0.743504 0.716675
O O8 0.626367 0.714060 0.604160
O O9 0.820727 0.500000 0.757725
O O10 0.750000 0.250000 0.772618
O O11 0.924179 0.500000 0.000000
O O12 0.000000 0.253288 0.000000
O O13 0.601288 0.797760 0.500000
O O14 0.500000 0.792807 0.423330
O O15 0.598725 0.000000 0.417220
#
# Coordination Sequence:
#
# PCOD8274317 Si02
#       5
#    16  16  16   8  16
#     4   9  17  29  49  73  94 123 162 202 242 287
#     4  11  21  33  52  77 105 135 167 206 251 296
#     4   9  16  28  46  70  98 126 161 202 246 293
#     4   9  17  30  47  69  98 127 158 198 242 289
#     4   9  19  37  58  77 100 132 168 206 249 297
#
# _framework density 18.353494000000001
#
# number of rings (size 3 to 8) (size 9 to 14) (size 15 to 20)
#    0.000    2.556    0.000    5.000    0.000    2.222 
#    0.000    2.222    0.000    5.333    0.000    0.000 
#    0.000    0.000    0.000    0.000    0.000    0.000 
#
# Total GULP energy -446156.732119 kJ/mol
# GULP energy per Si atom -12393.242559 kJ/mol
# Density = 1.831172 g / cm^3
# Si number density = 18.353494 Si / 1000 Ang^3
#
#
#
# Elastic Constant Matrix: (Units=GPa)
#
#
# Indices 1 2 3 4 5 6 
#
# 1 75.7266 34.1680 65.1916 0.0000 0.0000 0.0000
# 2 34.1680 96.5455 58.4965 0.0000 0.0000 0.0000
# 3 65.1916 58.4965 155.9729 0.0000 0.0000 0.0000
# 4 0.0000 0.0000 0.0000 25.2314 0.0000 0.0000
# 5 0.0000 0.0000 0.0000 0.0000 5.6229 0.0000
# 6 0.0000 0.0000 0.0000 0.0000 0.0000 21.5536
#
#
#
# Elastic Compliance Matrix: (Units=1/GPa)
#
#
# Indices 1 2 3 4 5 6 
#
# 1 0.021181 -0.002759 -0.007818 0.000000 0.000000 0.000000
# 2 -0.002759 0.013763 -0.004009 0.000000 0.000000 0.000000
# 3 -0.007818 -0.004009 0.011182 0.000000 0.000000 0.000000
# 4 0.000000 0.000000 0.000000 0.039633 0.000000 0.000000
# 5 0.000000 0.000000 0.000000 0.000000 0.177843 0.000000
# 6 0.000000 0.000000 0.000000 0.000000 0.000000 0.046396
#
#
# Mechanical properties :
#
#
# Convention : Reuss Voigt Hill
#
# Bulk Modulus (GPa) = 58.98014 71.55079 65.26546
# Shear Modulus (GPa) = 14.50027 21.84086 18.17057
#
# Velocity S-wave (km/s) = 2.81384 3.45340 3.14989
# Velocity P-wave (km/s) = 6.53929 7.41422 6.99046
#
# Compressibility (1/GPa) = 0.01695486
#
# Stress axis : x y z
#
# Youngs Moduli (GPa) = 47.21271 72.65862 89.42584
#
# Poissons Ratio (x) = 0.20047 0.69914
# Poissons Ratio (y) = 0.13026 0.35847
# Poissons Ratio (z) = 0.36911 0.29125
#
# Static dielectric constant tensor:
#      x y z
#    x 3.080170 0.000000 0.000000 
#    y 0.000000 3.278480 0.000000 
#    z 0.000000 0.000000 4.250050 
# 
# 
# High freq. dielectric constant tensor:
#      x y z
#    x 1.671760 0.000000 0.000000 
#    y 0.000000 1.703630 0.000000 
#    z 0.000000 0.000000 1.737120 
# 
# From -- ./inp_files/70334.got.cif
#   From: 2010.03.12/outbox.cif.g09.slc.cpg/sg65_36_cif.got.tgz:70334.got - 2010.04.10 20:52:16.
