data_PCOD8274247
_publ_section_title
;
Structure prediction by ZEFSAII (Michael W. Deem and Ramdas Pophale) SiO2 
 PCOD8274247
Probable space group: C M M M
;
_chemical_formula_sum "Si O2"
_cell_formula_units_Z 88
_cell_length_a 18.628525
_cell_length_b 17.593747
_cell_length_c 14.194642
_cell_angle_alpha 90.000000
_cell_angle_beta 90.000000
_cell_angle_gamma 90.000000
_cell_volume 4652.230832
_symmetry_space_group_name_H-M "C M M M"
_symmetry_group_IT_number 65
_symmetry_cell_setting 'orthorhombic'
loop_
_space_group_symop_operation_xyz
x,y,z
-x,-y,z
x,-y,-z
-x,y,-z
-x,-y,-z
x,y,-z
-x,y,z
x,-y,z
1/2+x,1/2+y,z
1/2-x,1/2-y,z
1/2+x,1/2-y,-z
1/2-x,1/2+y,-z
1/2-x,1/2-y,-z
1/2+x,1/2+y,-z
1/2-x,1/2+y,z
1/2+x,1/2-y,z
loop_
_atom_site_type_symbol
_atom_site_label
_atom_site_fract_x
_atom_site_fract_y
_atom_site_fract_z
Si Si1 0.844332 0.631567 0.221851
Si Si2 0.083546 0.860026 0.391366
Si Si3 0.916043 0.685068 0.396865
Si Si4 0.832579 0.226873 0.895426
Si Si5 0.181089 0.912673 0.226505
Si Si6 0.582395 0.000000 0.111345
O O1 0.881095 0.627394 0.323386
O O2 0.865804 0.712568 0.176548
O O3 0.761484 0.616435 0.243931
O O4 0.876547 0.572310 0.149720
O O5 0.098445 0.883618 0.500000
O O6 0.103585 0.772262 0.375427
O O7 0.134274 0.908022 0.321905
O O8 0.000000 0.875520 0.367055
O O9 0.886475 0.663024 0.500000
O O10 0.000000 0.673455 0.393340
O O11 0.750000 0.250000 0.903636
O O12 0.848942 0.142243 0.855856
O O13 0.867309 0.231127 0.000000
O O14 0.180391 0.000000 0.191389
O O15 0.500000 0.000000 0.144583
O O16 0.589028 0.000000 0.000000
#
# Coordination Sequence:
#
# PCOD8274247 Si02
#       6
#    16  16  16  16  16   8
#     4  11  20  38  59  86 119 152 191 239 290 339
#     4   9  19  37  60  85 113 148 192 241 292 346
#     4   9  18  34  59  86 112 149 192 233 285 348
#     4   9  19  35  56  81 110 148 192 236 283 340
#     4  11  22  36  55  86 118 150 193 238 291 347
#     4  11  24  40  61  91 124 157 193 237 287 338
#
# _framework density 18.915656999999999
#
# number of rings (size 3 to 8) (size 9 to 14) (size 15 to 20)
#    0.000    2.091    2.727    2.182    0.000    2.545 
#    0.000    3.182    0.000    3.273    0.000    1.273 
#    0.000    0.000    0.000    0.000    0.000    0.000 
#
# Total GULP energy -545420.079276 kJ/mol
# GULP energy per Si atom -12395.910893 kJ/mol
# Density = 1.887260 g / cm^3
# Si number density = 18.915657 Si / 1000 Ang^3
#
#
#
# Elastic Constant Matrix: (Units=GPa)
#
#
# Indices 1 2 3 4 5 6 
#
# 1 56.3954 19.7913 40.1238 0.0000 0.0000 0.0000
# 2 19.7913 108.3555 52.1105 0.0000 0.0000 0.0000
# 3 40.1238 52.1105 126.7806 0.0000 0.0000 0.0000
# 4 0.0000 0.0000 0.0000 33.5965 0.0000 0.0000
# 5 0.0000 0.0000 0.0000 0.0000 27.1669 0.0000
# 6 0.0000 0.0000 0.0000 0.0000 0.0000 28.9968
#
#
#
# Elastic Compliance Matrix: (Units=1/GPa)
#
#
# Indices 1 2 3 4 5 6 
#
# 1 0.022951 -0.000871 -0.006905 0.000000 0.000000 0.000000
# 2 -0.000871 0.011536 -0.004466 0.000000 0.000000 0.000000
# 3 -0.006905 -0.004466 0.011909 0.000000 0.000000 0.000000
# 4 0.000000 0.000000 0.000000 0.029765 0.000000 0.000000
# 5 0.000000 0.000000 0.000000 0.000000 0.036810 0.000000
# 6 0.000000 0.000000 0.000000 0.000000 0.000000 0.034487
#
#
# Mechanical properties :
#
#
# Convention : Reuss Voigt Hill
#
# Bulk Modulus (GPa) = 45.64038 57.28696 51.46367
# Shear Modulus (GPa) = 27.89491 29.91911 28.90701
#
# Velocity S-wave (km/s) = 3.84435 3.98139 3.91347
# Velocity P-wave (km/s) = 6.62466 7.17541 6.90553
#
# Compressibility (1/GPa) = 0.02191042
#
# Stress axis : x y z
#
# Youngs Moduli (GPa) = 43.57178 86.68742 83.97230
#
# Poissons Ratio (x) = 0.07550 0.57987
# Poissons Ratio (y) = 0.03795 0.37501
# Poissons Ratio (z) = 0.30088 0.38713
#
# Static dielectric constant tensor:
#      x y z
#    x 3.290920 0.000000 0.000000 
#    y 0.000000 3.759410 0.000000 
#    z 0.000000 0.000000 3.638890 
# 
# 
# High freq. dielectric constant tensor:
#      x y z
#    x 1.715450 0.000000 0.000000 
#    y 0.000000 1.728850 0.000000 
#    z 0.000000 0.000000 1.745110 
# 
# From -- ./inp_files/42522.got.cif
#   From: 2010.03.12/outbox.cif.g09.slc.cpg/sg65_22_cif.got.tgz:42522.got - 2010.04.10 20:52:16.
