data_PCOD8274590
_publ_section_title
;
Structure prediction by ZEFSAII (Michael W. Deem and Ramdas Pophale) SiO2 
 PCOD8274590
Probable space group: C M M M
;
_chemical_formula_sum "Si O2"
_cell_formula_units_Z 64
_cell_length_a 8.710575
_cell_length_b 15.074967
_cell_length_c 24.475764
_cell_angle_alpha 90.000000
_cell_angle_beta 90.000000
_cell_angle_gamma 90.000000
_cell_volume 3213.952483
_symmetry_space_group_name_H-M "C M M M"
_symmetry_group_IT_number 65
_symmetry_cell_setting 'orthorhombic'
loop_
_space_group_symop_operation_xyz
x,y,z
-x,-y,z
x,-y,-z
-x,y,-z
-x,-y,-z
x,y,-z
-x,y,z
x,-y,z
1/2+x,1/2+y,z
1/2-x,1/2-y,z
1/2+x,1/2-y,-z
1/2-x,1/2+y,-z
1/2-x,1/2-y,-z
1/2+x,1/2+y,-z
1/2-x,1/2+y,z
1/2+x,1/2-y,z
loop_
_atom_site_type_symbol
_atom_site_label
_atom_site_fract_x
_atom_site_fract_y
_atom_site_fract_z
Si Si1 0.679606 0.653819 0.742182
Si Si2 0.316553 0.500000 0.061592
Si Si3 0.320728 0.654022 0.862206
Si Si4 0.181695 0.651515 0.633301
Si Si5 0.823877 0.000000 0.435465
O O1 0.500000 0.657514 0.728548
O O2 0.750000 0.750000 0.746611
O O3 0.710812 0.610984 0.801835
O O4 0.764672 0.606892 0.691191
O O5 0.500000 0.500000 0.062746
O O6 0.253098 0.413088 0.092717
O O7 0.252529 0.500000 0.000000
O O8 0.500000 0.666787 0.870292
O O9 0.250000 0.750000 0.871134
O O10 0.250000 0.750000 0.626027
O O11 0.241082 0.588730 0.585347
O O12 0.000000 0.657274 0.631067
O O13 0.809966 0.000000 0.500000
O O14 0.000000 0.000000 0.415961
#
# Coordination Sequence:
#
# PCOD8274590 Si02
#       5
#    16   8  16  16   8
#     4   9  16  29  51  79 110 140 176 220 270 329
#     4   9  18  33  51  72 100 137 182 223 264 323
#     4   9  18  32  52  77 104 138 176 219 270 321
#     4  11  22  38  61  88 118 150 185 227 279 334
#     4  11  25  44  63  84 112 149 194 237 276 323
#
# _framework density 19.913174000000001
#
# number of rings (size 3 to 8) (size 9 to 14) (size 15 to 20)
#    0.000    2.250    0.000    4.875    0.000    4.000 
#    0.000    3.125    0.000    0.750    0.000    0.000 
#    0.000    0.000    0.000    0.000    0.000    0.000 
#
# Total GULP energy -396566.421043 kJ/mol
# GULP energy per Si atom -12392.700658 kJ/mol
# Density = 1.986785 g / cm^3
# Si number density = 19.913174 Si / 1000 Ang^3
#
#
#
# Elastic Constant Matrix: (Units=GPa)
#
#
# Indices 1 2 3 4 5 6 
#
# 1 120.0972 44.4410 60.0840 0.0000 0.0000 0.0000
# 2 44.4410 111.2434 68.2393 0.0000 0.0000 0.0000
# 3 60.0840 68.2393 141.8194 0.0000 0.0000 0.0000
# 4 0.0000 0.0000 0.0000 14.5513 0.0000 0.0000
# 5 0.0000 0.0000 0.0000 0.0000 23.4941 0.0000
# 6 0.0000 0.0000 0.0000 0.0000 0.0000 20.9925
#
#
#
# Elastic Compliance Matrix: (Units=1/GPa)
#
#
# Indices 1 2 3 4 5 6 
#
# 1 0.010921 -0.002163 -0.003586 0.000000 0.000000 0.000000
# 2 -0.002163 0.013182 -0.005426 0.000000 0.000000 0.000000
# 3 -0.003586 -0.005426 0.011182 0.000000 0.000000 0.000000
# 4 0.000000 0.000000 0.000000 0.068723 0.000000 0.000000
# 5 0.000000 0.000000 0.000000 0.000000 0.042564 0.000000
# 6 0.000000 0.000000 0.000000 0.000000 0.000000 0.047636
#
#
# Mechanical properties :
#
#
# Convention : Reuss Voigt Hill
#
# Bulk Modulus (GPa) = 77.31810 79.85428 78.58619
# Shear Modulus (GPa) = 22.63778 25.16729 23.90253
#
# Velocity S-wave (km/s) = 3.37534 3.55893 3.46835
# Velocity P-wave (km/s) = 7.35544 7.55488 7.45583
#
# Compressibility (1/GPa) = 0.01293358
#
# Stress axis : x y z
#
# Youngs Moduli (GPa) = 91.56557 75.86024 89.43321
#
# Poissons Ratio (x) = 0.16410 0.32071
# Poissons Ratio (y) = 0.19807 0.48530
# Poissons Ratio (z) = 0.32836 0.41165
#
# Static dielectric constant tensor:
#      x y z
#    x 3.570540 0.000000 0.000000 
#    y 0.000000 4.695560 0.000000 
#    z 0.000000 0.000000 4.310690 
# 
# 
# High freq. dielectric constant tensor:
#      x y z
#    x 1.769600 0.000000 0.000000 
#    y 0.000000 1.763740 0.000000 
#    z 0.000000 0.000000 1.787440 
# 
# From -- ./inp_files/66770.got.cif
#   From: 2010.03.12/outbox.cif.g09.slc.cpg/sg65_34_cif.got.tgz:66770.got - 2010.04.10 20:52:16.
