data_PCOD8274343
_publ_section_title
;
Structure prediction by ZEFSAII (Michael W. Deem and Ramdas Pophale) SiO2 
 PCOD8274343
Probable space group: C M M M
;
_chemical_formula_sum "Si O2"
_cell_formula_units_Z 80
_cell_length_a 18.376843
_cell_length_b 8.531967
_cell_length_c 26.024857
_cell_angle_alpha 90.000000
_cell_angle_beta 90.000000
_cell_angle_gamma 90.000000
_cell_volume 4080.453413
_symmetry_space_group_name_H-M "C M M M"
_symmetry_group_IT_number 65
_symmetry_cell_setting 'orthorhombic'
loop_
_space_group_symop_operation_xyz
x,y,z
-x,-y,z
x,-y,-z
-x,y,-z
-x,-y,-z
x,y,-z
-x,y,z
x,-y,z
1/2+x,1/2+y,z
1/2-x,1/2-y,z
1/2+x,1/2-y,-z
1/2-x,1/2+y,-z
1/2-x,1/2-y,-z
1/2+x,1/2+y,-z
1/2-x,1/2+y,z
1/2+x,1/2-y,z
loop_
_atom_site_type_symbol
_atom_site_label
_atom_site_fract_x
_atom_site_fract_y
_atom_site_fract_z
Si Si1 0.170853 0.183403 0.151991
Si Si2 0.330031 0.816765 0.555608
Si Si3 0.081633 0.186447 0.943150
Si Si4 0.915277 0.317978 0.245402
Si Si5 0.668373 0.315565 0.340729
O O1 0.250000 0.250000 0.162273
O O2 0.135806 0.256403 0.099913
O O3 0.119608 0.219742 0.199708
O O4 0.178249 0.000000 0.145737
O O5 0.369920 0.789568 0.500000
O O6 0.250000 0.750000 0.550136
O O7 0.367297 0.726538 0.603470
O O8 0.326611 0.000000 0.568983
O O9 0.000000 0.249550 0.932568
O O10 0.080648 0.000000 0.940251
O O11 0.107635 0.241083 0.000000
O O12 0.900095 0.500000 0.235518
O O13 0.880932 0.267961 0.298981
O O14 0.000000 0.278311 0.247269
O O15 0.668514 0.500000 0.331356
O O16 0.750000 0.250000 0.337128
#
# Coordination Sequence:
#
# PCOD8274343 Si02
#       5
#    16  16  16  16  16
#     4  11  22  36  56  82 112 144 181 224 269 319
#     4   9  16  27  46  74 108 143 179 219 264 314
#     4   8  15  30  53  80 109 143 183 224 266 314
#     4  11  24  41  59  78 104 138 177 223 275 330
#     4  11  21  34  55  81 111 143 179 223 268 318
#
# _framework density 19.605664999999998
#
# number of rings (size 3 to 8) (size 9 to 14) (size 15 to 20)
#    0.000    2.000    0.000    6.600    0.000    4.000 
#    0.000    0.000    0.000    2.400    0.000   11.200 
#    0.000    0.000    0.000    0.000    0.000    0.000 
#
# Total GULP energy -495822.813442 kJ/mol
# GULP energy per Si atom -12395.570336 kJ/mol
# Density = 1.956104 g / cm^3
# Si number density = 19.605665 Si / 1000 Ang^3
#
#
#
# Elastic Constant Matrix: (Units=GPa)
#
#
# Indices 1 2 3 4 5 6 
#
# 1 84.3539 23.6767 54.4255 0.0000 0.0000 0.0000
# 2 23.6767 36.6219 5.0750 0.0000 0.0000 0.0000
# 3 54.4255 5.0750 151.1273 0.0000 0.0000 0.0000
# 4 0.0000 0.0000 0.0000 35.2660 0.0000 0.0000
# 5 0.0000 0.0000 0.0000 0.0000 16.4632 0.0000
# 6 0.0000 0.0000 0.0000 0.0000 0.0000 14.2938
#
#
#
# Elastic Compliance Matrix: (Units=1/GPa)
#
#
# Indices 1 2 3 4 5 6 
#
# 1 0.019358 -0.011603 -0.006582 0.000000 0.000000 0.000000
# 2 -0.011603 0.034389 0.003024 0.000000 0.000000 0.000000
# 3 -0.006582 0.003024 0.008886 0.000000 0.000000 0.000000
# 4 0.000000 0.000000 0.000000 0.028356 0.000000 0.000000
# 5 0.000000 0.000000 0.000000 0.000000 0.060742 0.000000
# 6 0.000000 0.000000 0.000000 0.000000 0.000000 0.069960
#
#
# Mechanical properties :
#
#
# Convention : Reuss Voigt Hill
#
# Bulk Modulus (GPa) = 30.94995 48.71748 39.83371
# Shear Modulus (GPa) = 19.02706 25.79965 22.41335
#
# Velocity S-wave (km/s) = 3.11864 3.63151 3.38480
# Velocity P-wave (km/s) = 5.36548 6.51816 5.96971
#
# Compressibility (1/GPa) = 0.03231023
#
# Stress axis : x y z
#
# Youngs Moduli (GPa) = 51.65727 29.07916 112.54000
#
# Poissons Ratio (x) = 0.33742 0.74073
# Poissons Ratio (y) = 0.59940 -0.34032
# Poissons Ratio (z) = 0.34000 -0.08793
#
# Static dielectric constant tensor:
#      x y z
#    x 3.409480 0.000000 0.000000 
#    y 0.000000 3.586870 0.000000 
#    z 0.000000 0.000000 4.340240 
# 
# 
# High freq. dielectric constant tensor:
#      x y z
#    x 1.731270 0.000000 0.000000 
#    y 0.000000 1.756630 0.000000 
#    z 0.000000 0.000000 1.792880 
# 
# From -- ./inp_files/72732.got.cif
#   From: 2010.03.12/outbox.cif.g09.slc.cpg/sg65_37_cif.got.tgz:72732.got - 2010.04.10 20:52:16.
