data_PCOD8274672
_publ_section_title
;
Structure prediction by ZEFSAII (Michael W. Deem and Ramdas Pophale) SiO2 
 PCOD8274672
Probable space group: C M M M
;
_chemical_formula_sum "Si O2"
_cell_formula_units_Z 72
_cell_length_a 18.977424
_cell_length_b 27.667972
_cell_length_c 8.655515
_cell_angle_alpha 90.000000
_cell_angle_beta 90.000000
_cell_angle_gamma 90.000000
_cell_volume 4544.723874
_symmetry_space_group_name_H-M "C M M M"
_symmetry_group_IT_number 65
_symmetry_cell_setting 'orthorhombic'
loop_
_space_group_symop_operation_xyz
x,y,z
-x,-y,z
x,-y,-z
-x,y,-z
-x,-y,-z
x,y,-z
-x,y,z
x,-y,z
1/2+x,1/2+y,z
1/2-x,1/2-y,z
1/2+x,1/2-y,-z
1/2-x,1/2+y,-z
1/2-x,1/2-y,-z
1/2+x,1/2+y,-z
1/2-x,1/2+y,z
1/2+x,1/2-y,z
loop_
_atom_site_type_symbol
_atom_site_label
_atom_site_fract_x
_atom_site_fract_y
_atom_site_fract_z
Si Si1 0.500000 0.153290 0.680866
Si Si2 0.359364 0.728197 0.319435
Si Si3 0.220070 0.325452 0.319540
Si Si4 0.629579 0.097782 0.819014
Si Si5 0.500000 0.255793 0.179294
Si Si6 0.080837 0.500000 0.317561
O O1 0.500000 0.141039 0.500000
O O2 0.567623 0.131311 0.759950
O O3 0.500000 0.210070 0.707464
O O4 0.377205 0.727029 0.500000
O O5 0.300329 0.688397 0.279229
O O6 0.331213 0.781281 0.271945
O O7 0.429042 0.714634 0.220981
O O8 0.210954 0.335964 0.500000
O O9 0.201417 0.374196 0.226002
O O10 0.624643 0.045919 0.739379
O O11 0.625008 0.089904 0.000000
O O12 0.500000 0.241309 0.000000
O O13 0.078340 0.500000 0.500000
O O14 0.000000 0.500000 0.252922
#
# Coordination Sequence:
#
# PCOD8274672 Si02
#       6
#     8  16  16  16   8   8
#     4  12  22  33  47  64  92 132 170 199 234 289
#     4   9  18  32  50  69  93 128 166 198 233 285
#     4   9  18  33  51  69  92 128 166 197 235 289
#     4  12  23  34  50  72  97 123 159 209 252 284
#     4  12  22  30  45  73 100 125 161 206 249 283
#     4  11  23  37  53  69  92 131 168 201 238 284
#
# _framework density 15.842547
#
# number of rings (size 3 to 8) (size 9 to 14) (size 15 to 20)
#    0.000    1.444    3.333    5.667    0.000    1.333 
#    0.000    2.222    0.000    0.000    0.000    0.000 
#    0.000    0.889    0.000    9.333    0.000    4.444 
#
# Total GULP energy -446414.795729 kJ/mol
# GULP energy per Si atom -12400.410992 kJ/mol
# Density = 1.580649 g / cm^3
# Si number density = 15.842547 Si / 1000 Ang^3
#
#
#
# Elastic Constant Matrix: (Units=GPa)
#
#
# Indices 1 2 3 4 5 6 
#
# 1 104.5739 41.4600 36.5861 0.0000 0.0000 0.0000
# 2 41.4600 86.5033 29.6933 0.0000 0.0000 0.0000
# 3 36.5861 29.6933 73.9034 0.0000 0.0000 0.0000
# 4 0.0000 0.0000 0.0000 18.9941 0.0000 0.0000
# 5 0.0000 0.0000 0.0000 0.0000 11.3636 0.0000
# 6 0.0000 0.0000 0.0000 0.0000 0.0000 33.3601
#
#
#
# Elastic Compliance Matrix: (Units=1/GPa)
#
#
# Indices 1 2 3 4 5 6 
#
# 1 0.013011 -0.004669 -0.004565 0.000000 0.000000 0.000000
# 2 -0.004669 0.015085 -0.003750 0.000000 0.000000 0.000000
# 3 -0.004565 -0.003750 0.017298 0.000000 0.000000 0.000000
# 4 0.000000 0.000000 0.000000 0.052648 0.000000 0.000000
# 5 0.000000 0.000000 0.000000 0.000000 0.088000 0.000000
# 6 0.000000 0.000000 0.000000 0.000000 0.000000 0.029976
#
#
# Mechanical properties :
#
#
# Convention : Reuss Voigt Hill
#
# Bulk Modulus (GPa) = 51.47663 53.38440 52.43051
# Shear Modulus (GPa) = 20.12392 23.22631 21.67512
#
# Velocity S-wave (km/s) = 3.56792 3.83309 3.70288
# Velocity P-wave (km/s) = 7.03822 7.30480 7.17275
#
# Compressibility (1/GPa) = 0.01942629
#
# Stress axis : x y z
#
# Youngs Moduli (GPa) = 76.85904 66.29054 57.81110
#
# Poissons Ratio (x) = 0.30950 0.26392
# Poissons Ratio (y) = 0.35885 0.21677
# Poissons Ratio (z) = 0.35087 0.24856
#
# Static dielectric constant tensor:
#      x y z
#    x 3.061580 0.000000 0.000000 
#    y 0.000000 2.889580 0.000000 
#    z 0.000000 0.000000 2.985010 
# 
# 
# High freq. dielectric constant tensor:
#      x y z
#    x 1.599590 0.000000 0.000000 
#    y 0.000000 1.575780 0.000000 
#    z 0.000000 0.000000 1.615460 
# 
# From -- ./inp_files/9533.got.cif
#   From: 2010.03.12/outbox.cif.g09.slc.cpg/sg65_5_cif.got.tgz:9533.got - 2010.04.10 20:52:16.
