data_PCOD8274502
_publ_section_title
;
Structure prediction by ZEFSAII (Michael W. Deem and Ramdas Pophale) SiO2 
 PCOD8274502
Probable space group: C M M M
;
_chemical_formula_sum "Si O2"
_cell_formula_units_Z 88
_cell_length_a 8.850984
_cell_length_b 27.328985
_cell_length_c 21.481896
_cell_angle_alpha 90.000000
_cell_angle_beta 90.000000
_cell_angle_gamma 90.000000
_cell_volume 5196.221645
_symmetry_space_group_name_H-M "C M M M"
_symmetry_group_IT_number 65
_symmetry_cell_setting 'orthorhombic'
loop_
_space_group_symop_operation_xyz
x,y,z
-x,-y,z
x,-y,-z
-x,y,-z
-x,-y,-z
x,y,-z
-x,y,z
x,-y,z
1/2+x,1/2+y,z
1/2-x,1/2-y,z
1/2+x,1/2-y,-z
1/2-x,1/2+y,-z
1/2-x,1/2-y,-z
1/2+x,1/2+y,-z
1/2-x,1/2+y,z
1/2+x,1/2-y,z
loop_
_atom_site_type_symbol
_atom_site_label
_atom_site_fract_x
_atom_site_fract_y
_atom_site_fract_z
Si Si1 0.329419 0.941859 0.000000
Si Si2 0.676786 0.610273 0.752095
Si Si3 0.823480 0.946826 0.630571
Si Si4 0.178468 0.055620 0.875096
Si Si5 0.678808 0.199158 0.313960
Si Si6 0.678507 0.349356 0.429433
O O1 0.248414 0.921775 0.938035
O O2 0.500000 0.922812 0.000000
O O3 0.318026 0.000000 0.000000
O O4 0.500000 0.623712 0.752278
O O5 0.711270 0.568513 0.701355
O O6 0.732249 0.589499 0.818159
O O7 0.770409 0.658669 0.735910
O O8 0.763300 0.904839 0.583789
O O9 0.000000 0.952500 0.619964
O O10 0.746660 0.000000 0.617429
O O11 0.000000 0.056405 0.881700
O O12 0.234965 0.000000 0.863693
O O13 0.500000 0.203113 0.315053
O O14 0.750000 0.250000 0.291739
O O15 0.736932 0.187529 0.383605
O O16 0.718508 0.335016 0.500000
O O17 0.500000 0.345717 0.415951
#
# Coordination Sequence:
#
# PCOD8274502 Si02
#       6
#     8  16  16  16  16  16
#     4   9  17  27  39  61  98 139 172 201 231 265
#     4   9  17  30  48  71  96 121 154 195 235 275
#     4   8  13  23  42  68  95 121 151 187 224 263
#     4   9  16  27  46  71  99 132 167 199 229 264
#     4  11  22  36  53  70  90 116 148 190 239 288
#     4   9  18  32  49  70  95 121 152 190 230 275
#
# _framework density 16.935383000000002
#
# number of rings (size 3 to 8) (size 9 to 14) (size 15 to 20)
#    0.000    2.818    0.000    3.545    0.000    5.091 
#    0.000    1.818    0.000   13.091    0.000    5.727 
#    0.000    0.000    0.000    0.000    0.000    0.000 
#
# Total GULP energy -545443.677073 kJ/mol
# GULP energy per Si atom -12396.447206 kJ/mol
# Density = 1.689684 g / cm^3
# Si number density = 16.935383 Si / 1000 Ang^3
#
#
#
# Elastic Constant Matrix: (Units=GPa)
#
#
# Indices 1 2 3 4 5 6 
#
# 1 62.5148 32.9497 39.3587 0.0000 0.0000 0.0000
# 2 32.9497 84.8450 32.1089 0.0000 0.0000 0.0000
# 3 39.3587 32.1089 120.0284 0.0000 0.0000 0.0000
# 4 0.0000 0.0000 0.0000 24.8206 0.0000 0.0000
# 5 0.0000 0.0000 0.0000 0.0000 21.0923 0.0000
# 6 0.0000 0.0000 0.0000 0.0000 0.0000 19.8902
#
#
#
# Elastic Compliance Matrix: (Units=1/GPa)
#
#
# Indices 1 2 3 4 5 6 
#
# 1 0.023247 -0.006835 -0.005794 0.000000 0.000000 0.000000
# 2 -0.006835 0.015123 -0.001804 0.000000 0.000000 0.000000
# 3 -0.005794 -0.001804 0.010714 0.000000 0.000000 0.000000
# 4 0.000000 0.000000 0.000000 0.040289 0.000000 0.000000
# 5 0.000000 0.000000 0.000000 0.000000 0.047411 0.000000
# 6 0.000000 0.000000 0.000000 0.000000 0.000000 0.050276
#
#
# Mechanical properties :
#
#
# Convention : Reuss Voigt Hill
#
# Bulk Modulus (GPa) = 49.46429 52.91366 51.18897
# Shear Modulus (GPa) = 22.45503 24.02534 23.24019
#
# Velocity S-wave (km/s) = 3.64527 3.77058 3.70846
# Velocity P-wave (km/s) = 6.85481 7.09004 6.97342
#
# Compressibility (1/GPa) = 0.02021660
#
# Stress axis : x y z
#
# Youngs Moduli (GPa) = 43.01639 66.12235 93.33465
#
# Poissons Ratio (x) = 0.45195 0.54083
# Poissons Ratio (y) = 0.29402 0.16841
# Poissons Ratio (z) = 0.24926 0.11931
#
# Static dielectric constant tensor:
#      x y z
#    x 2.934820 0.000000 0.000000 
#    y 0.000000 3.132270 0.000000 
#    z 0.000000 0.000000 3.218430 
# 
# 
# High freq. dielectric constant tensor:
#      x y z
#    x 1.630750 0.000000 0.000000 
#    y 0.000000 1.635770 0.000000 
#    z 0.000000 0.000000 1.648540 
# 
# From -- ./inp_files/59788.got.cif
#   From: 2010.03.12/outbox.cif.g09.slc.cpg/sg65_30_cif.got.tgz:59788.got - 2010.04.10 20:52:16.
