data_PCOD8274354
_publ_section_title
;
Structure prediction by ZEFSAII (Michael W. Deem and Ramdas Pophale) SiO2 
 PCOD8274354
Probable space group: C M M M
;
_chemical_formula_sum "Si O2"
_cell_formula_units_Z 96
_cell_length_a 8.878339
_cell_length_b 28.657103
_cell_length_c 20.326829
_cell_angle_alpha 90.000000
_cell_angle_beta 90.000000
_cell_angle_gamma 90.000000
_cell_volume 5171.703781
_symmetry_space_group_name_H-M "C M M M"
_symmetry_group_IT_number 65
_symmetry_cell_setting 'orthorhombic'
loop_
_space_group_symop_operation_xyz
x,y,z
-x,-y,z
x,-y,-z
-x,y,-z
-x,-y,-z
x,y,-z
-x,y,z
x,-y,z
1/2+x,1/2+y,z
1/2-x,1/2-y,z
1/2+x,1/2-y,-z
1/2-x,1/2+y,-z
1/2-x,1/2-y,-z
1/2+x,1/2+y,-z
1/2-x,1/2+y,z
1/2+x,1/2-y,z
loop_
_atom_site_type_symbol
_atom_site_label
_atom_site_fract_x
_atom_site_fract_y
_atom_site_fract_z
Si Si1 0.678245 0.800539 0.688328
Si Si2 0.672110 0.356767 0.425335
Si Si3 0.827891 0.552399 0.231204
Si Si4 0.327308 0.947548 0.385863
Si Si5 0.676292 0.702215 0.926631
Si Si6 0.324227 0.357915 0.804554
O O1 0.500000 0.795559 0.689488
O O2 0.750000 0.750000 0.695865
O O3 0.725715 0.823923 0.619757
O O4 0.729043 0.832650 0.748426
O O5 0.688118 0.338881 0.500000
O O6 0.500000 0.353397 0.401083
O O7 0.722818 0.410679 0.422848
O O8 0.782119 0.500000 0.210704
O O9 0.807179 0.559495 0.308524
O O10 0.717801 0.587578 0.193350
O O11 0.000000 0.562519 0.211212
O O12 0.500000 0.938758 0.406170
O O13 0.278828 0.000000 0.406304
O O14 0.500000 0.710737 0.926888
O O15 0.750000 0.750000 0.902033
O O16 0.721592 0.661909 0.875819
O O17 0.733471 0.688515 0.000000
O O18 0.500000 0.351110 0.789498
#
# Coordination Sequence:
#
# PCOD8274354 Si02
#       6
#    16  16  16  16  16  16
#     4  12  25  41  60  81 108 141 181 227 274 326
#     4  11  24  40  57  80 110 142 180 226 276 329
#     4   9  18  33  54  81 112 145 181 224 273 323
#     4   9  18  34  56  81 109 143 181 222 272 327
#     4   9  19  35  54  80 115 151 185 222 266 320
#     4  11  21  34  57  87 115 144 182 226 273 322
#
# _framework density 18.562548
#
# number of rings (size 3 to 8) (size 9 to 14) (size 15 to 20)
#    0.000    1.833    1.667    4.000    0.000    5.333 
#    0.000    3.333    0.000    0.500    0.000    3.500 
#    0.000    0.000    0.000    0.000    0.000    0.000 
#
# Total GULP energy -595298.797185 kJ/mol
# GULP energy per Si atom -12402.058275 kJ/mol
# Density = 1.852030 g / cm^3
# Si number density = 18.562548 Si / 1000 Ang^3
#
#
#
# Elastic Constant Matrix: (Units=GPa)
#
#
# Indices 1 2 3 4 5 6 
#
# 1 97.1012 48.3891 42.2102 0.0000 0.0000 0.0000
# 2 48.3891 117.2854 47.1804 0.0000 0.0000 0.0000
# 3 42.2102 47.1804 84.8983 0.0000 0.0000 0.0000
# 4 0.0000 0.0000 0.0000 19.6988 0.0000 0.0000
# 5 0.0000 0.0000 0.0000 0.0000 17.1782 0.0000
# 6 0.0000 0.0000 0.0000 0.0000 0.0000 36.9718
#
#
#
# Elastic Compliance Matrix: (Units=1/GPa)
#
#
# Indices 1 2 3 4 5 6 
#
# 1 0.014432 -0.003951 -0.004980 0.000000 0.000000 0.000000
# 2 -0.003951 0.012063 -0.004739 0.000000 0.000000 0.000000
# 3 -0.004980 -0.004739 0.016888 0.000000 0.000000 0.000000
# 4 0.000000 0.000000 0.000000 0.050764 0.000000 0.000000
# 5 0.000000 0.000000 0.000000 0.000000 0.058213 0.000000
# 6 0.000000 0.000000 0.000000 0.000000 0.000000 0.027048
#
#
# Mechanical properties :
#
#
# Convention : Reuss Voigt Hill
#
# Bulk Modulus (GPa) = 62.33157 63.87158 63.10158
# Shear Modulus (GPa) = 23.57416 25.53678 24.55547
#
# Velocity S-wave (km/s) = 3.56755 3.71309 3.64105
# Velocity P-wave (km/s) = 7.11491 7.27092 7.19334
#
# Compressibility (1/GPa) = 0.01604323
#
# Stress axis : x y z
#
# Youngs Moduli (GPa) = 69.28924 82.89950 59.21251
#
# Poissons Ratio (x) = 0.32755 0.29486
# Poissons Ratio (y) = 0.27378 0.28062
# Poissons Ratio (z) = 0.34504 0.39287
#
# Static dielectric constant tensor:
#      x y z
#    x 3.414610 0.000000 0.000000 
#    y 0.000000 3.639460 0.000000 
#    z 0.000000 0.000000 3.426760 
# 
# 
# High freq. dielectric constant tensor:
#      x y z
#    x 1.723050 0.000000 0.000000 
#    y 0.000000 1.725000 0.000000 
#    z 0.000000 0.000000 1.705480 
# 
# From -- ./inp_files/60195.got.cif
#   From: 2010.03.12/outbox.cif.g09.slc.cpg/sg65_31_cif.got.tgz:60195.got - 2010.04.10 20:52:16.
