data_PCOD8274479
_publ_section_title
;
Structure prediction by ZEFSAII (Michael W. Deem and Ramdas Pophale) SiO2 
 PCOD8274479
Probable space group: C M M M
;
_chemical_formula_sum "Si O2"
_cell_formula_units_Z 64
_cell_length_a 18.686278
_cell_length_b 8.978505
_cell_length_c 20.243448
_cell_angle_alpha 90.000000
_cell_angle_beta 90.000000
_cell_angle_gamma 90.000000
_cell_volume 3396.341258
_symmetry_space_group_name_H-M "C M M M"
_symmetry_group_IT_number 65
_symmetry_cell_setting 'orthorhombic'
loop_
_space_group_symop_operation_xyz
x,y,z
-x,-y,z
x,-y,-z
-x,y,-z
-x,-y,-z
x,y,-z
-x,y,z
x,-y,z
1/2+x,1/2+y,z
1/2-x,1/2-y,z
1/2+x,1/2-y,-z
1/2-x,1/2+y,-z
1/2-x,1/2-y,-z
1/2+x,1/2+y,-z
1/2-x,1/2+y,z
1/2+x,1/2-y,z
loop_
_atom_site_type_symbol
_atom_site_label
_atom_site_fract_x
_atom_site_fract_y
_atom_site_fract_z
Si Si1 0.579788 0.323088 0.192915
Si Si2 0.173209 0.176142 0.684188
Si Si3 0.823959 0.824821 0.074393
Si Si4 0.918056 0.328662 0.576654
O O1 0.500000 0.255078 0.197482
O O2 0.575994 0.500000 0.194576
O O3 0.626175 0.264767 0.254410
O O4 0.614938 0.268179 0.124298
O O5 0.250000 0.250000 0.689003
O O6 0.134243 0.222063 0.616879
O O7 0.182687 0.000000 0.685529
O O8 0.750000 0.750000 0.095385
O O9 0.812602 0.000000 0.080526
O O10 0.846514 0.779017 0.000000
O O11 0.902364 0.300167 0.500000
O O12 0.902639 0.500000 0.594931
O O13 0.000000 0.287803 0.593396
#
# Coordination Sequence:
#
# PCOD8274479 Si02
#       4
#    16  16  16  16
#     4   9  18  32  50  74 102 130 166 213 258 300
#     4  11  22  35  53  76 104 138 174 214 258 304
#     4   9  17  30  50  74 100 132 167 204 248 298
#     4   9  19  37  59  81 106 135 167 207 255 306
#
# _framework density 18.843806000000001
#
# number of rings (size 3 to 8) (size 9 to 14) (size 15 to 20)
#    0.000    2.500    0.000    3.000    0.000    3.000 
#    0.000    5.000    0.000    3.750    0.000    3.500 
#    0.000    0.000    0.000    0.000    0.000    0.000 
#
# Total GULP energy -396832.657083 kJ/mol
# GULP energy per Si atom -12401.020534 kJ/mol
# Density = 1.880092 g / cm^3
# Si number density = 18.843806 Si / 1000 Ang^3
#
#
#
# Elastic Constant Matrix: (Units=GPa)
#
#
# Indices 1 2 3 4 5 6 
#
# 1 173.4395 45.2282 94.2248 0.0000 0.0000 0.0000
# 2 45.2282 44.9287 35.4902 0.0000 0.0000 0.0000
# 3 94.2248 35.4902 124.1029 0.0000 0.0000 0.0000
# 4 0.0000 0.0000 0.0000 20.7609 0.0000 0.0000
# 5 0.0000 0.0000 0.0000 0.0000 39.4496 0.0000
# 6 0.0000 0.0000 0.0000 0.0000 0.0000 16.6579
#
#
#
# Elastic Compliance Matrix: (Units=1/GPa)
#
#
# Indices 1 2 3 4 5 6 
#
# 1 0.010836 -0.005696 -0.006598 0.000000 0.000000 0.000000
# 2 -0.005696 0.031747 -0.004754 0.000000 0.000000 0.000000
# 3 -0.006598 -0.004754 0.014427 0.000000 0.000000 0.000000
# 4 0.000000 0.000000 0.000000 0.048168 0.000000 0.000000
# 5 0.000000 0.000000 0.000000 0.000000 0.025349 0.000000
# 6 0.000000 0.000000 0.000000 0.000000 0.000000 0.060032
#
#
# Mechanical properties :
#
#
# Convention : Reuss Voigt Hill
#
# Bulk Modulus (GPa) = 43.64312 76.92861 60.28586
# Shear Modulus (GPa) = 21.52475 26.54220 24.03348
#
# Velocity S-wave (km/s) = 3.38342 3.75712 3.57516
# Velocity P-wave (km/s) = 6.20275 7.72879 7.00744
#
# Compressibility (1/GPa) = 0.02291312
#
# Stress axis : x y z
#
# Youngs Moduli (GPa) = 92.28921 31.49932 69.31496
#
# Poissons Ratio (x) = 0.17941 0.45734
# Poissons Ratio (y) = 0.52566 0.32954
# Poissons Ratio (z) = 0.60892 0.14975
#
# Static dielectric constant tensor:
#      x y z
#    x 3.620510 0.000000 0.000000 
#    y 0.000000 3.164860 0.000000 
#    z 0.000000 0.000000 3.625220 
# 
# 
# High freq. dielectric constant tensor:
#      x y z
#    x 1.737190 0.000000 0.000000 
#    y 0.000000 1.704240 0.000000 
#    z 0.000000 0.000000 1.745340 
# 
# From -- ./inp_files/49030.got.cif
#   From: 2010.03.12/outbox.cif.g09.slc.cpg/sg65_25_cif.got.tgz:49030.got - 2010.04.10 20:52:16.
