data_PCOD8274471
_publ_section_title
;
Structure prediction by ZEFSAII (Michael W. Deem and Ramdas Pophale) SiO2 
 PCOD8274471
Probable space group: C M M M
;
_chemical_formula_sum "Si O2"
_cell_formula_units_Z 72
_cell_length_a 18.701556
_cell_length_b 9.208643
_cell_length_c 23.093652
_cell_angle_alpha 90.000000
_cell_angle_beta 90.000000
_cell_angle_gamma 90.000000
_cell_volume 3977.095282
_symmetry_space_group_name_H-M "C M M M"
_symmetry_group_IT_number 65
_symmetry_cell_setting 'orthorhombic'
loop_
_space_group_symop_operation_xyz
x,y,z
-x,-y,z
x,-y,-z
-x,y,-z
-x,-y,-z
x,y,-z
-x,y,z
x,-y,z
1/2+x,1/2+y,z
1/2-x,1/2-y,z
1/2+x,1/2-y,-z
1/2-x,1/2+y,-z
1/2-x,1/2-y,-z
1/2+x,1/2+y,-z
1/2-x,1/2+y,z
1/2+x,1/2-y,z
loop_
_atom_site_type_symbol
_atom_site_label
_atom_site_fract_x
_atom_site_fract_y
_atom_site_fract_z
Si Si1 0.920462 0.827261 0.735641
Si Si2 0.674535 0.327279 0.841992
Si Si3 0.414572 0.162390 0.500000
Si Si4 0.414900 0.338536 0.391160
Si Si5 0.082639 0.334486 0.932826
O O1 0.866414 0.771841 0.784569
O O2 0.893069 0.775058 0.672123
O O3 0.000000 0.764778 0.748642
O O4 0.924568 0.000000 0.735111
O O5 0.684116 0.500000 0.843158
O O6 0.750000 0.250000 0.842977
O O7 0.629994 0.279275 0.897821
O O8 0.500000 0.166794 0.500000
O O9 0.383846 0.238830 0.442337
O O10 0.385011 0.000000 0.500000
O O11 0.500000 0.344846 0.394231
O O12 0.383460 0.500000 0.400033
O O13 0.101077 0.500000 0.914914
O O14 0.000000 0.301097 0.919997
O O15 0.099986 0.310697 0.000000
#
# Coordination Sequence:
#
# PCOD8274471 Si02
#       5
#    16  16   8  16  16
#     4   8  15  29  49  71  93 121 162 208 247 288
#     4  11  22  35  52  75 104 136 170 208 250 295
#     4   9  15  21  31  55  92 123 146 181 233 287
#     4   8  13  23  40  60  83 115 154 192 233 284
#     4   9  19  37  59  81 105 132 163 202 248 297
#
# _framework density 18.103663999999998
#
# number of rings (size 3 to 8) (size 9 to 14) (size 15 to 20)
#    0.000    3.000    0.000    3.667    0.000    3.556 
#    0.000    3.333    0.000    5.333    0.000    0.778 
#    0.000    0.000    0.000    0.000    0.000    0.000 
#
# Total GULP energy -446243.739001 kJ/mol
# GULP energy per Si atom -12395.659417 kJ/mol
# Density = 1.806246 g / cm^3
# Si number density = 18.103664 Si / 1000 Ang^3
#
#
#
# Elastic Constant Matrix: (Units=GPa)
#
#
# Indices 1 2 3 4 5 6 
#
# 1 72.0686 40.0730 62.7755 0.0000 0.0000 0.0000
# 2 40.0730 86.3082 61.6180 0.0000 0.0000 0.0000
# 3 62.7755 61.6180 145.4027 0.0000 0.0000 0.0000
# 4 0.0000 0.0000 0.0000 19.3549 0.0000 0.0000
# 5 0.0000 0.0000 0.0000 0.0000 1.4436 0.0000
# 6 0.0000 0.0000 0.0000 0.0000 0.0000 6.7319
#
#
#
# Elastic Compliance Matrix: (Units=1/GPa)
#
#
# Indices 1 2 3 4 5 6 
#
# 1 0.023837 -0.005334 -0.008031 0.000000 0.000000 0.000000
# 2 -0.005334 0.017806 -0.005243 0.000000 0.000000 0.000000
# 3 -0.008031 -0.005243 0.012566 0.000000 0.000000 0.000000
# 4 0.000000 0.000000 0.000000 0.051666 0.000000 0.000000
# 5 0.000000 0.000000 0.000000 0.000000 0.692726 0.000000
# 6 0.000000 0.000000 0.000000 0.000000 0.000000 0.148547
#
#
# Mechanical properties :
#
#
# Convention : Reuss Voigt Hill
#
# Bulk Modulus (GPa) = 58.84459 70.30139 64.57299
# Shear Modulus (GPa) = 5.05036 14.79360 9.92198
#
# Velocity S-wave (km/s) = 1.67205 2.86170 2.34362
# Velocity P-wave (km/s) = 6.02515 7.05947 6.56272
#
# Compressibility (1/GPa) = 0.01699392
#
# Stress axis : x y z
#
# Youngs Moduli (GPa) = 41.95192 56.16078 79.57726
#
# Poissons Ratio (x) = 0.29956 0.63907
# Poissons Ratio (y) = 0.22377 0.41721
# Poissons Ratio (z) = 0.33691 0.29444
#
# Static dielectric constant tensor:
#      x y z
#    x 3.002810 0.000000 0.000000 
#    y 0.000000 3.208670 0.000000 
#    z 0.000000 0.000000 3.701910 
# 
# 
# High freq. dielectric constant tensor:
#      x y z
#    x 1.657440 0.000000 0.000000 
#    y 0.000000 1.682120 0.000000 
#    z 0.000000 0.000000 1.719830 
# 
# From -- ./inp_files/64347.got.cif
#   From: 2010.03.12/outbox.cif.g09.slc.cpg/sg65_33_cif.got.tgz:64347.got - 2010.04.10 20:52:16.
