data_PCOD8274821
_publ_section_title
;
Structure prediction by ZEFSAII (Michael W. Deem and Ramdas Pophale) SiO2 
 PCOD8274821
Probable space group: C M M M
;
_chemical_formula_sum "Si O2"
_cell_formula_units_Z 96
_cell_length_a 28.226823
_cell_length_b 14.258736
_cell_length_c 14.243499
_cell_angle_alpha 90.000000
_cell_angle_beta 90.000000
_cell_angle_gamma 90.000000
_cell_volume 5732.706631
_symmetry_space_group_name_H-M "C M M M"
_symmetry_group_IT_number 65
_symmetry_cell_setting 'orthorhombic'
loop_
_space_group_symop_operation_xyz
x,y,z
-x,-y,z
x,-y,-z
-x,y,-z
-x,-y,-z
x,y,-z
-x,y,z
x,-y,z
1/2+x,1/2+y,z
1/2-x,1/2-y,z
1/2+x,1/2-y,-z
1/2-x,1/2+y,-z
1/2-x,1/2-y,-z
1/2+x,1/2+y,-z
1/2-x,1/2+y,z
1/2+x,1/2-y,z
loop_
_atom_site_type_symbol
_atom_site_label
_atom_site_fract_x
_atom_site_fract_y
_atom_site_fract_z
Si Si1 0.173221 0.736196 0.107838
Si Si2 0.945350 0.606873 0.608208
Si Si3 0.866067 0.277783 0.296249
Si Si4 0.323225 0.393829 0.389099
Si Si5 0.784410 0.609836 0.393672
Si Si6 0.241739 0.102357 0.107972
O O1 0.130602 0.724837 0.182218
O O2 0.201952 0.826968 0.146193
O O3 0.206077 0.644931 0.117310
O O4 0.155054 0.746841 0.000000
O O5 0.930777 0.618899 0.500000
O O6 0.935694 0.500000 0.639764
O O7 0.914764 0.677399 0.669794
O O8 0.000000 0.633016 0.623325
O O9 0.860621 0.173557 0.337947
O O10 0.820466 0.338078 0.325833
O O11 0.328333 0.381865 0.500000
O O12 0.335337 0.500000 0.359279
O O13 0.269111 0.368638 0.359592
O O14 0.791885 0.646575 0.500000
O O15 0.794981 0.500000 0.389708
O O16 0.239693 0.000000 0.159000
O O17 0.229624 0.088925 0.000000
#
# Coordination Sequence:
#
# PCOD8274821 Si02
#       6
#    16  16  16  16  16  16
#     4   9  20  32  41  65  96 123 164 208 237 269
#     4   9  19  36  56  78 100 117 144 195 249 293
#     4  12  20  28  50  72  89 127 166 196 234 290
#     4   9  19  32  43  64 101 133 157 191 231 278
#     4   9  18  30  43  65  97 126 155 192 231 279
#     4   8  15  30  46  57  83 128 167 201 240 272
#
# _framework density 16.746016999999998
#
# number of rings (size 3 to 8) (size 9 to 14) (size 15 to 20)
#    0.000    2.667    0.000    5.000    4.667    4.667 
#    0.000    0.000    0.000    1.000    0.000    3.500 
#    0.000    0.000    0.000    5.667    0.000    0.167 
#
# Total GULP energy -594981.365118 kJ/mol
# GULP energy per Si atom -12395.445107 kJ/mol
# Density = 1.670790 g / cm^3
# Si number density = 16.746017 Si / 1000 Ang^3
#
#
#
# Elastic Constant Matrix: (Units=GPa)
#
#
# Indices 1 2 3 4 5 6 
#
# 1 62.1807 39.0008 39.6486 0.0000 0.0000 0.0000
# 2 39.0008 95.5150 33.4498 0.0000 0.0000 0.0000
# 3 39.6486 33.4498 79.9605 0.0000 0.0000 0.0000
# 4 0.0000 0.0000 0.0000 1.0474 0.0000 0.0000
# 5 0.0000 0.0000 0.0000 0.0000 20.7468 0.0000
# 6 0.0000 0.0000 0.0000 0.0000 0.0000 24.8414
#
#
#
# Elastic Compliance Matrix: (Units=1/GPa)
#
#
# Indices 1 2 3 4 5 6 
#
# 1 0.027504 -0.007562 -0.010474 0.000000 0.000000 0.000000
# 2 -0.007562 0.014346 -0.002252 0.000000 0.000000 0.000000
# 3 -0.010474 -0.002252 0.018642 0.000000 0.000000 0.000000
# 4 0.000000 0.000000 0.000000 0.954705 0.000000 0.000000
# 5 0.000000 0.000000 0.000000 0.000000 0.048200 0.000000
# 6 0.000000 0.000000 0.000000 0.000000 0.000000 0.040255
#
#
# Mechanical properties :
#
#
# Convention : Reuss Voigt Hill
#
# Bulk Modulus (GPa) = 50.21259 51.31718 50.76488
# Shear Modulus (GPa) = 4.34455 17.69759 11.02107
#
# Velocity S-wave (km/s) = 1.61245 3.25441 2.56819
# Velocity P-wave (km/s) = 5.78935 6.69571 6.25896
#
# Compressibility (1/GPa) = 0.01991532
#
# Stress axis : x y z
#
# Youngs Moduli (GPa) = 36.35800 69.70624 53.64276
#
# Poissons Ratio (x) = 0.52714 0.56188
# Poissons Ratio (y) = 0.27495 0.12078
# Poissons Ratio (z) = 0.38083 0.15694
#
# Static dielectric constant tensor:
#      x y z
#    x 2.670780 0.000000 0.000000 
#    y 0.000000 3.586620 0.000000 
#    z 0.000000 0.000000 3.125700 
# 
# 
# High freq. dielectric constant tensor:
#      x y z
#    x 1.582260 0.000000 0.000000 
#    y 0.000000 1.658720 0.000000 
#    z 0.000000 0.000000 1.645210 
# 
# From -- ./inp_files/41261.got.cif
#   From: 2010.03.12/outbox.cif.g09.slc.cpg/sg65_21_cif.got.tgz:41261.got - 2010.04.10 20:52:16.
