data_PCOD8274981
_publ_section_title
;
Structure prediction by ZEFSAII (Michael W. Deem and Ramdas Pophale) SiO2 
 PCOD8274981
Probable space group: C M M M
;
_chemical_formula_sum "Si O2"
_cell_formula_units_Z 104
_cell_length_a 24.145105
_cell_length_b 28.175240
_cell_length_c 9.767702
_cell_angle_alpha 90.000000
_cell_angle_beta 90.000000
_cell_angle_gamma 90.000000
_cell_volume 6644.910317
_symmetry_space_group_name_H-M "C M M M"
_symmetry_group_IT_number 65
_symmetry_cell_setting 'orthorhombic'
loop_
_space_group_symop_operation_xyz
x,y,z
-x,-y,z
x,-y,-z
-x,y,-z
-x,-y,-z
x,y,-z
-x,y,z
x,-y,z
1/2+x,1/2+y,z
1/2-x,1/2-y,z
1/2+x,1/2-y,-z
1/2-x,1/2+y,-z
1/2-x,1/2-y,-z
1/2+x,1/2+y,-z
1/2-x,1/2+y,z
1/2+x,1/2-y,z
loop_
_atom_site_type_symbol
_atom_site_label
_atom_site_fract_x
_atom_site_fract_y
_atom_site_fract_z
Si Si1 0.436360 0.132322 0.342055
Si Si2 0.438008 0.320809 0.837018
Si Si3 0.253604 0.555433 0.842576
Si Si4 0.871098 0.909845 0.837291
Si Si5 0.065884 0.716502 0.152472
Si Si6 0.651604 0.945717 0.657801
Si Si7 0.937468 0.000000 0.163425
O O1 0.430106 0.146585 0.500000
O O2 0.500000 0.121402 0.304219
O O3 0.412009 0.176138 0.254698
O O4 0.402080 0.085270 0.305914
O O5 0.500000 0.329973 0.778710
O O6 0.396278 0.360717 0.778540
O O7 0.415421 0.268639 0.793893
O O8 0.440655 0.323094 0.000000
O O9 0.267068 0.500000 0.823053
O O10 0.307165 0.584956 0.792656
O O11 0.202569 0.571972 0.749620
O O12 0.238813 0.566512 0.000000
O O13 0.906837 0.953481 0.778146
O O14 0.874827 0.910871 0.000000
O O15 0.000000 0.716279 0.147965
O O16 0.089464 0.706449 0.000000
O O17 0.668984 0.939788 0.500000
O O18 0.636142 0.000000 0.692151
O O19 0.000000 0.000000 0.218710
O O20 0.936226 0.000000 0.000000
#
# Coordination Sequence:
#
# PCOD8274981 Si02
#       7
#    16  16  16  16  16  16   8
#     4   9  17  29  46  67  87 106 129 162 207 252
#     4   8  13  21  35  57  84 113 143 174 209 247
#     4   9  16  27  42  60  84 113 145 177 207 239
#     4   9  14  21  34  55  84 115 144 175 210 247
#     4   8  14  25  41  61  85 112 140 168 200 244
#     4   9  18  31  46  64  85 108 135 166 200 247
#     4   9  14  18  28  52  87 119 140 167 214 260
#
# _framework density 15.651076
#
# number of rings (size 3 to 8) (size 9 to 14) (size 15 to 20)
#    0.000    3.308    0.769    1.385    0.000    2.769 
#    0.000    1.538    0.000    1.846    0.000   10.769 
#    0.000    2.462    0.000    0.000    0.000    0.308 
#
# Total GULP energy -644541.917792 kJ/mol
# GULP energy per Si atom -12395.036881 kJ/mol
# Density = 1.561545 g / cm^3
# Si number density = 15.651076 Si / 1000 Ang^3
#
#
#
# Elastic Constant Matrix: (Units=GPa)
#
#
# Indices 1 2 3 4 5 6 
#
# 1 95.0444 67.7032 38.5007 0.0000 0.0000 0.0000
# 2 67.7032 122.0576 41.9335 0.0000 0.0000 0.0000
# 3 38.5007 41.9335 39.2221 0.0000 0.0000 0.0000
# 4 0.0000 0.0000 0.0000 13.0902 0.0000 0.0000
# 5 0.0000 0.0000 0.0000 0.0000 13.7466 0.0000
# 6 0.0000 0.0000 0.0000 0.0000 0.0000 15.5003
#
#
#
# Elastic Compliance Matrix: (Units=1/GPa)
#
#
# Indices 1 2 3 4 5 6 
#
# 1 0.020777 -0.007141 -0.012761 0.000000 0.000000 0.000000
# 2 -0.007141 0.015403 -0.009459 0.000000 0.000000 0.000000
# 3 -0.012761 -0.009459 0.048134 0.000000 0.000000 0.000000
# 4 0.000000 0.000000 0.000000 0.076393 0.000000 0.000000
# 5 0.000000 0.000000 0.000000 0.000000 0.072745 0.000000
# 6 0.000000 0.000000 0.000000 0.000000 0.000000 0.064515
#
#
# Mechanical properties :
#
#
# Convention : Reuss Voigt Hill
#
# Bulk Modulus (GPa) = 39.07072 61.39987 50.23530
# Shear Modulus (GPa) = 13.69041 15.67987 14.68514
#
# Velocity S-wave (km/s) = 2.96079 3.16862 3.06646
# Velocity P-wave (km/s) = 6.05856 7.25965 6.68613
#
# Compressibility (1/GPa) = 0.02559462
#
# Stress axis : x y z
#
# Youngs Moduli (GPa) = 48.13015 64.92140 20.77524
#
# Poissons Ratio (x) = 0.46358 0.26510
# Poissons Ratio (y) = 0.34368 0.19651
# Poissons Ratio (z) = 0.61417 0.61407
#
# Static dielectric constant tensor:
#      x y z
#    x 2.920060 0.000000 0.000000 
#    y 0.000000 3.234900 0.000000 
#    z 0.000000 0.000000 2.720120 
# 
# 
# High freq. dielectric constant tensor:
#      x y z
#    x 1.582840 0.000000 0.000000 
#    y 0.000000 1.601870 0.000000 
#    z 0.000000 0.000000 1.558760 
# 
# From -- ./inp_files/16992.got.cif
#   From: 2010.03.12/outbox.cif.g09.slc.cpg/sg65_9_cif.got.tgz:16992.got - 2010.04.10 20:52:16.
