data_PCOD8274003
_publ_section_title
;
Structure prediction by ZEFSAII (Michael W. Deem and Ramdas Pophale) SiO2 
 PCOD8274003
Probable space group: C M M M
;
_chemical_formula_sum "Si O2"
_cell_formula_units_Z 60
_cell_length_a 12.032189
_cell_length_b 23.066503
_cell_length_c 10.981922
_cell_angle_alpha 90.000000
_cell_angle_beta 90.000000
_cell_angle_gamma 90.000000
_cell_volume 3047.928383
_symmetry_space_group_name_H-M "C M M M"
_symmetry_group_IT_number 65
_symmetry_cell_setting 'orthorhombic'
loop_
_space_group_symop_operation_xyz
x,y,z
-x,-y,z
x,-y,-z
-x,y,-z
-x,-y,-z
x,y,-z
-x,y,z
x,-y,z
1/2+x,1/2+y,z
1/2-x,1/2-y,z
1/2+x,1/2-y,-z
1/2-x,1/2+y,-z
1/2-x,1/2-y,-z
1/2+x,1/2+y,-z
1/2-x,1/2+y,z
1/2+x,1/2-y,z
loop_
_atom_site_type_symbol
_atom_site_label
_atom_site_fract_x
_atom_site_fract_y
_atom_site_fract_z
Si Si1 0.000000 0.747967 0.645831
Si Si2 0.723052 0.564247 0.358058
Si Si3 0.260351 0.316870 0.000000
Si Si4 0.877320 0.651273 0.768339
Si Si5 0.500000 0.363674 0.000000
Si Si6 0.000000 0.121049 0.731618
O O1 0.890746 0.711235 0.689784
O O2 0.000000 0.809267 0.715437
O O3 0.000000 0.756469 0.500000
O O4 0.735695 0.557679 0.500000
O O5 0.723841 0.500000 0.297759
O O6 0.828606 0.600703 0.314623
O O7 0.608229 0.596068 0.331181
O O8 0.250000 0.250000 0.000000
O O9 0.205431 0.343506 0.880806
O O10 0.391221 0.324850 0.000000
O O11 0.000000 0.632337 0.815036
O O12 0.500000 0.399481 0.126369
#
# Coordination Sequence:
#
# PCOD8274003 Si02
#       6
#     8  16   8  16   4   8
#     4  10  22  39  64  99 134 166 209 270 332 396
#     4  11  24  43  67  94 130 176 223 271 323 391
#     4  12  23  42  65  96 137 178 217 268 329 396
#     4  10  24  40  65  96 132 168 218 266 331 390
#     4  12  24  40  67  92 126 176 217 264 328 386
#     4  12  23  43  63  98 131 171 219 275 336 387
#
# _framework density 19.685500999999999
#
# number of rings (size 3 to 8) (size 9 to 14) (size 15 to 20)
#    0.800    0.267    2.667    4.400    1.867    1.600 
#    0.000    7.333    0.000    1.600    0.000    0.000 
#    0.000    0.000    0.000    0.000    0.000    0.000 
#
# Total GULP energy -371854.997034 kJ/mol
# GULP energy per Si atom -12395.166568 kJ/mol
# Density = 1.964070 g / cm^3
# Si number density = 19.685501 Si / 1000 Ang^3
#
#
#
# Elastic Constant Matrix: (Units=GPa)
#
#
# Indices 1 2 3 4 5 6 
#
# 1 145.0878 49.4009 28.2875 0.0000 0.0000 0.0000
# 2 49.4009 141.9767 28.7288 0.0000 0.0000 0.0000
# 3 28.2875 28.7288 108.7001 0.0000 0.0000 0.0000
# 4 0.0000 0.0000 0.0000 11.1875 0.0000 0.0000
# 5 0.0000 0.0000 0.0000 0.0000 34.8042 0.0000
# 6 0.0000 0.0000 0.0000 0.0000 0.0000 21.5346
#
#
#
# Elastic Compliance Matrix: (Units=1/GPa)
#
#
# Indices 1 2 3 4 5 6 
#
# 1 0.008023 -0.002503 -0.001426 0.000000 0.000000 0.000000
# 2 -0.002503 0.008222 -0.001522 0.000000 0.000000 0.000000
# 3 -0.001426 -0.001522 0.009973 0.000000 0.000000 0.000000
# 4 0.000000 0.000000 0.000000 0.089386 0.000000 0.000000
# 5 0.000000 0.000000 0.000000 0.000000 0.028732 0.000000
# 6 0.000000 0.000000 0.000000 0.000000 0.000000 0.046437
#
#
# Mechanical properties :
#
#
# Convention : Reuss Voigt Hill
#
# Bulk Modulus (GPa) = 65.29105 67.62213 66.45659
# Shear Modulus (GPa) = 24.18034 32.79509 28.48771
#
# Velocity S-wave (km/s) = 3.50856 4.08603 3.80826
# Velocity P-wave (km/s) = 7.04645 7.52906 7.29175
#
# Compressibility (1/GPa) = 0.01531604
#
# Stress axis : x y z
#
# Youngs Moduli (GPa) = 124.64692 121.62179 100.27094
#
# Poissons Ratio (x) = 0.30441 0.14301
# Poissons Ratio (y) = 0.31198 0.15259
# Poissons Ratio (z) = 0.17778 0.18508
#
# Static dielectric constant tensor:
#      x y z
#    x 3.568420 0.000000 0.000000 
#    y 0.000000 3.597780 0.000000 
#    z 0.000000 0.000000 3.695760 
# 
# 
# High freq. dielectric constant tensor:
#      x y z
#    x 1.778530 0.000000 0.000000 
#    y 0.000000 1.759520 0.000000 
#    z 0.000000 0.000000 1.775940 
# 
# From -- ./inp_files/21989.got.cif
#   From: 2010.03.12/outbox.cif.g09.slc.cpg/sg65_11_cif.got.tgz:21989.got - 2010.04.10 20:52:16.
