data_PCOD8274143
_publ_section_title
;
Structure prediction by ZEFSAII (Michael W. Deem and Ramdas Pophale) SiO2 
 PCOD8274143
Probable space group: C M M M
;
_chemical_formula_sum "Si O2"
_cell_formula_units_Z 104
_cell_length_a 23.107297
_cell_length_b 8.640781
_cell_length_c 28.120276
_cell_angle_alpha 90.000000
_cell_angle_beta 90.000000
_cell_angle_gamma 90.000000
_cell_volume 5614.637519
_symmetry_space_group_name_H-M "C M M M"
_symmetry_group_IT_number 65
_symmetry_cell_setting 'orthorhombic'
loop_
_space_group_symop_operation_xyz
x,y,z
-x,-y,z
x,-y,-z
-x,y,-z
-x,-y,-z
x,y,-z
-x,y,z
x,-y,z
1/2+x,1/2+y,z
1/2-x,1/2-y,z
1/2+x,1/2-y,-z
1/2-x,1/2+y,-z
1/2-x,1/2-y,-z
1/2+x,1/2+y,-z
1/2-x,1/2+y,z
1/2+x,1/2-y,z
loop_
_atom_site_type_symbol
_atom_site_label
_atom_site_fract_x
_atom_site_fract_y
_atom_site_fract_z
Si Si1 0.686709 0.818963 0.948582
Si Si2 0.813579 0.817453 0.500000
Si Si3 0.615723 0.177435 0.231867
Si Si4 0.812721 0.677845 0.326005
Si Si5 0.685770 0.318044 0.853161
Si Si6 0.000000 0.182799 0.273267
Si Si7 0.500000 0.819000 0.378203
Si Si8 0.384688 0.318119 0.591224
O O1 0.750000 0.750000 0.952593
O O2 0.656949 0.735104 0.903578
O O3 0.690586 0.000000 0.937466
O O4 0.655106 0.789861 0.000000
O O5 0.750000 0.750000 0.500000
O O6 0.847409 0.759119 0.546539
O O7 0.808082 0.000000 0.500000
O O8 0.662178 0.191674 0.273606
O O9 0.641756 0.263500 0.186810
O O10 0.555943 0.255252 0.246361
O O11 0.603636 0.000000 0.218926
O O12 0.811012 0.500000 0.343402
O O13 0.750000 0.750000 0.326080
O O14 0.851868 0.779164 0.360504
O O15 0.691469 0.500000 0.851320
O O16 0.750000 0.250000 0.845704
O O17 0.000000 0.233305 0.327927
O O18 0.000000 0.000000 0.271480
O O19 0.444987 0.772514 0.409636
O O20 0.500000 0.000000 0.367219
O O21 0.396981 0.500000 0.588453
#
# Coordination Sequence:
#
# PCOD8274143 Si02
#       8
#    16   8  16  16  16   8   8  16
#     4   9  16  27  45  70 103 145 190 234 285 342
#     4  10  24  43  64  91 121 154 190 232 285 340
#     4  11  23  39  58  81 113 148 188 234 283 337
#     4  11  23  37  57  84 115 149 189 230 278 339
#     4  11  21  33  51  78 114 152 193 237 287 342
#     4  12  24  40  63  87 113 147 189 234 283 336
#     4  12  24  41  63  90 119 149 191 236 283 334
#     4  11  23  41  64  88 117 152 192 236 283 336
#
# _framework density 18.523012999999999
#
# number of rings (size 3 to 8) (size 9 to 14) (size 15 to 20)
#    0.000    1.231    1.538    6.462    0.000    6.769 
#    0.000    1.538    0.000    0.000    0.000    0.538 
#    0.000    4.308    0.000    0.000    0.000    0.000 
#
# Total GULP energy -644828.251611 kJ/mol
# GULP energy per Si atom -12400.543300 kJ/mol
# Density = 1.848085 g / cm^3
# Si number density = 18.523013 Si / 1000 Ang^3
#
#
#
# Elastic Constant Matrix: (Units=GPa)
#
#
# Indices 1 2 3 4 5 6 
#
# 1 110.7936 30.6586 34.1263 0.0000 0.0000 0.0000
# 2 30.6586 109.0624 31.9324 0.0000 0.0000 0.0000
# 3 34.1263 31.9324 110.1649 0.0000 0.0000 0.0000
# 4 0.0000 0.0000 0.0000 30.2902 0.0000 0.0000
# 5 0.0000 0.0000 0.0000 0.0000 11.9411 0.0000
# 6 0.0000 0.0000 0.0000 0.0000 0.0000 32.4082
#
#
#
# Elastic Compliance Matrix: (Units=1/GPa)
#
#
# Indices 1 2 3 4 5 6 
#
# 1 0.010427 -0.002170 -0.002601 0.000000 0.000000 0.000000
# 2 -0.002170 0.010471 -0.002363 0.000000 0.000000 0.000000
# 3 -0.002601 -0.002363 0.010568 0.000000 0.000000 0.000000
# 4 0.000000 0.000000 0.000000 0.033014 0.000000 0.000000
# 5 0.000000 0.000000 0.000000 0.000000 0.083744 0.000000
# 6 0.000000 0.000000 0.000000 0.000000 0.000000 0.030856
#
#
# Mechanical properties :
#
#
# Convention : Reuss Voigt Hill
#
# Bulk Modulus (GPa) = 58.14447 58.16171 58.15309
# Shear Modulus (GPa) = 25.11537 30.48148 27.79842
#
# Velocity S-wave (km/s) = 3.68625 4.06100 3.87815
# Velocity P-wave (km/s) = 7.04106 7.31142 7.17751
#
# Compressibility (1/GPa) = 0.01719854
#
# Stress axis : x y z
#
# Youngs Moduli (GPa) = 95.90119 95.50342 94.62499
#
# Poissons Ratio (x) = 0.20721 0.24614
# Poissons Ratio (y) = 0.20807 0.22360
# Poissons Ratio (z) = 0.24946 0.22567
#
# Static dielectric constant tensor:
#      x y z
#    x 3.283110 0.000000 0.000000 
#    y 0.000000 4.410180 0.000000 
#    z 0.000000 0.000000 3.935440 
# 
# 
# High freq. dielectric constant tensor:
#      x y z
#    x 1.697660 0.000000 0.000000 
#    y 0.000000 1.738000 0.000000 
#    z 0.000000 0.000000 1.730970 
# 
# From -- ./inp_files/75545.got.cif
#   From: 2010.03.12/outbox.cif.g09.slc.cpg/sg65_38_cif.got.tgz:75545.got - 2010.04.10 20:52:16.
