data_PCOD8274971
_publ_section_title
;
Structure prediction by ZEFSAII (Michael W. Deem and Ramdas Pophale) SiO2 
 PCOD8274971
Probable space group: C M M M
;
_chemical_formula_sum "Si O2"
_cell_formula_units_Z 120
_cell_length_a 14.526199
_cell_length_b 22.958974
_cell_length_c 21.288437
_cell_angle_alpha 90.000000
_cell_angle_beta 90.000000
_cell_angle_gamma 90.000000
_cell_volume 7099.834779
_symmetry_space_group_name_H-M "C M M M"
_symmetry_group_IT_number 65
_symmetry_cell_setting 'orthorhombic'
loop_
_space_group_symop_operation_xyz
x,y,z
-x,-y,z
x,-y,-z
-x,y,-z
-x,-y,-z
x,y,-z
-x,y,z
x,-y,z
1/2+x,1/2+y,z
1/2-x,1/2-y,z
1/2+x,1/2-y,-z
1/2-x,1/2+y,-z
1/2-x,1/2-y,-z
1/2+x,1/2+y,-z
1/2-x,1/2+y,z
1/2+x,1/2-y,z
loop_
_atom_site_type_symbol
_atom_site_label
_atom_site_fract_x
_atom_site_fract_y
_atom_site_fract_z
Si Si1 0.607812 0.067780 0.186359
Si Si2 0.609982 0.855178 0.070240
Si Si3 0.895676 0.569258 0.568661
Si Si4 0.600638 0.566684 0.731623
Si Si5 0.606340 0.273597 0.071886
Si Si6 0.390667 0.500000 0.071967
Si Si7 0.706545 0.932096 0.311869
Si Si8 0.105762 0.114263 0.135534
O O1 0.500000 0.079096 0.197883
O O2 0.645397 0.101334 0.124603
O O3 0.662332 0.092578 0.247339
O O4 0.628420 0.000000 0.175097
O O5 0.500000 0.853226 0.070931
O O6 0.650730 0.790213 0.083992
O O7 0.641826 0.875424 0.000000
O O8 0.860886 0.591551 0.500000
O O9 0.889061 0.500000 0.569717
O O10 0.835991 0.597063 0.625390
O O11 0.000000 0.589561 0.579391
O O12 0.500000 0.577197 0.699745
O O13 0.606874 0.500000 0.756232
O O14 0.683640 0.579619 0.683725
O O15 0.613577 0.609773 0.789779
O O16 0.500000 0.268391 0.090518
O O17 0.653488 0.325266 0.113080
O O18 0.619162 0.292046 0.000000
O O19 0.500000 0.500000 0.082952
O O20 0.346900 0.442154 0.103619
O O21 0.362404 0.500000 0.000000
O O22 0.682679 0.000000 0.312755
O O23 0.000000 0.115916 0.113118
#
# Coordination Sequence:
#
# PCOD8274971 Si02
#       8
#    16  16  16  16  16   8  16  16
#     4   9  16  25  39  60  81 101 130 169 210 252
#     4   8  14  24  37  54  76 102 132 166 207 258
#     4   8  13  22  38  61  88 114 138 164 196 240
#     4   9  16  26  38  53  75 105 138 170 203 242
#     4   8  13  21  34  52  72  96 130 169 211 262
#     4   9  14  18  28  48  70  90 120 169 222 262
#     4   9  16  25  39  58  80 109 137 167 202 242
#     4   9  14  21  33  50  71  96 129 171 214 253
#
# _framework density 16.901800999999999
#
# number of rings (size 3 to 8) (size 9 to 14) (size 15 to 20)
#    0.000    3.400    0.667    2.000    0.000    3.467 
#    0.000    1.333    0.000    2.800    0.000    4.667 
#    0.000    0.000    0.000    2.400    0.000   21.600 
#
# Total GULP energy -743376.712318 kJ/mol
# GULP energy per Si atom -12389.611872 kJ/mol
# Density = 1.686333 g / cm^3
# Si number density = 16.901801 Si / 1000 Ang^3
#
#
#
# Elastic Constant Matrix: (Units=GPa)
#
#
# Indices 1 2 3 4 5 6 
#
# 1 57.4650 21.8495 51.7684 0.0000 0.0000 0.0000
# 2 21.8495 57.1822 43.9014 0.0000 0.0000 0.0000
# 3 51.7684 43.9014 128.6866 0.0000 0.0000 0.0000
# 4 0.0000 0.0000 0.0000 6.6737 0.0000 0.0000
# 5 0.0000 0.0000 0.0000 0.0000 12.2672 0.0000
# 6 0.0000 0.0000 0.0000 0.0000 0.0000 2.8877
#
#
#
# Elastic Compliance Matrix: (Units=1/GPa)
#
#
# Indices 1 2 3 4 5 6 
#
# 1 0.027606 -0.002740 -0.010171 0.000000 0.000000 0.000000
# 2 -0.002740 0.023966 -0.007074 0.000000 0.000000 0.000000
# 3 -0.010171 -0.007074 0.014276 0.000000 0.000000 0.000000
# 4 0.000000 0.000000 0.000000 0.149842 0.000000 0.000000
# 5 0.000000 0.000000 0.000000 0.000000 0.081518 0.000000
# 6 0.000000 0.000000 0.000000 0.000000 0.000000 0.346301
#
#
# Mechanical properties :
#
#
# Convention : Reuss Voigt Hill
#
# Bulk Modulus (GPa) = 38.64175 53.15251 45.89713
# Shear Modulus (GPa) = 7.22436 12.75336 9.98886
#
# Velocity S-wave (km/s) = 2.06968 2.74990 2.43367
# Velocity P-wave (km/s) = 5.35010 6.44970 5.92547
#
# Compressibility (1/GPa) = 0.02587875
#
# Stress axis : x y z
#
# Youngs Moduli (GPa) = 36.22373 41.72637 70.04988
#
# Poissons Ratio (x) = 0.11432 0.71246
# Poissons Ratio (y) = 0.09925 0.49551
# Poissons Ratio (z) = 0.36842 0.29516
#
# Static dielectric constant tensor:
#      x y z
#    x 3.020780 0.000000 0.000000 
#    y 0.000000 3.114380 0.000000 
#    z 0.000000 0.000000 3.218270 
# 
# 
# High freq. dielectric constant tensor:
#      x y z
#    x 1.641160 0.000000 0.000000 
#    y 0.000000 1.609020 0.000000 
#    z 0.000000 0.000000 1.624730 
# 
# From -- ./inp_files/63140.got.cif
#   From: 2010.03.12/outbox.cif.g09.slc.cpg/sg65_32_cif.got.tgz:63140.got - 2010.04.10 20:52:16.
