data_PCOD8274410
_publ_section_title
;
Structure prediction by ZEFSAII (Michael W. Deem and Ramdas Pophale) SiO2 
 PCOD8274410
Probable space group: C M M M
;
_chemical_formula_sum "Si O2"
_cell_formula_units_Z 48
_cell_length_a 15.954570
_cell_length_b 7.804108
_cell_length_c 18.585259
_cell_angle_alpha 90.000000
_cell_angle_beta 90.000000
_cell_angle_gamma 90.000000
_cell_volume 2314.072666
_symmetry_space_group_name_H-M "C M M M"
_symmetry_group_IT_number 65
_symmetry_cell_setting 'orthorhombic'
loop_
_space_group_symop_operation_xyz
x,y,z
-x,-y,z
x,-y,-z
-x,y,-z
-x,-y,-z
x,y,-z
-x,y,z
x,-y,z
1/2+x,1/2+y,z
1/2-x,1/2-y,z
1/2+x,1/2-y,-z
1/2-x,1/2+y,-z
1/2-x,1/2-y,-z
1/2+x,1/2+y,-z
1/2-x,1/2+y,z
1/2+x,1/2-y,z
loop_
_atom_site_type_symbol
_atom_site_label
_atom_site_fract_x
_atom_site_fract_y
_atom_site_fract_z
Si Si1 0.406171 0.000000 0.077312
Si Si2 0.157461 0.696545 0.674409
Si Si3 0.844536 0.194124 0.829861
Si Si4 0.000000 0.799101 0.417018
O O1 0.395182 0.826993 0.122584
O O2 0.500000 0.000000 0.053382
O O3 0.355326 0.000000 0.000000
O O4 0.162559 0.500000 0.697186
O O5 0.250000 0.750000 0.644974
O O6 0.130675 0.800140 0.745696
O O7 0.085560 0.723030 0.615419
O O8 0.750000 0.250000 0.838416
O O9 0.859227 0.000000 0.857712
O O10 0.000000 0.746983 0.500000
O O11 0.000000 0.000000 0.404770
#
# Coordination Sequence:
#
# PCOD8274410 Si02
#       4
#     8  16  16   8
#     4  11  26  44  62  94 133 169 210 265 332 386
#     4  11  22  40  66  95 128 167 219 269 319 381
#     4  11  21  41  67  95 125 166 221 266 316 380
#     4  11  25  43  63  95 131 170 217 263 325 391
#
# _framework density 20.742650000000001
#
# number of rings (size 3 to 8) (size 9 to 14) (size 15 to 20)
#    0.000    1.000    3.333    5.500    2.333    4.000 
#    0.000    1.667    0.000    0.000    0.000    0.000 
#    0.000    0.000    0.000    0.000    0.000    0.000 
#
# Total GULP energy -297499.468224 kJ/mol
# GULP energy per Si atom -12395.811176 kJ/mol
# Density = 2.069544 g / cm^3
# Si number density = 20.742650 Si / 1000 Ang^3
#
#
#
# Elastic Constant Matrix: (Units=GPa)
#
#
# Indices 1 2 3 4 5 6 
#
# 1 107.6879 33.4508 72.3669 0.0000 0.0000 0.0000
# 2 33.4508 173.7362 44.7132 0.0000 0.0000 0.0000
# 3 72.3669 44.7132 101.7256 0.0000 0.0000 0.0000
# 4 0.0000 0.0000 0.0000 29.1393 0.0000 0.0000
# 5 0.0000 0.0000 0.0000 0.0000 31.1594 0.0000
# 6 0.0000 0.0000 0.0000 0.0000 0.0000 35.5253
#
#
#
# Elastic Compliance Matrix: (Units=1/GPa)
#
#
# Indices 1 2 3 4 5 6 
#
# 1 0.017797 -0.000190 -0.012577 0.000000 0.000000 0.000000
# 2 -0.000190 0.006492 -0.002719 0.000000 0.000000 0.000000
# 3 -0.012577 -0.002719 0.019973 0.000000 0.000000 0.000000
# 4 0.000000 0.000000 0.000000 0.034318 0.000000 0.000000
# 5 0.000000 0.000000 0.000000 0.000000 0.032093 0.000000
# 6 0.000000 0.000000 0.000000 0.000000 0.000000 0.028149
#
#
# Mechanical properties :
#
#
# Convention : Reuss Voigt Hill
#
# Bulk Modulus (GPa) = 75.24116 76.02348 75.63232
# Shear Modulus (GPa) = 28.69881 34.67272 31.68577
#
# Velocity S-wave (km/s) = 3.72367 4.09292 3.91265
# Velocity P-wave (km/s) = 7.40540 7.68546 7.54673
#
# Compressibility (1/GPa) = 0.01329060
#
# Stress axis : x y z
#
# Youngs Moduli (GPa) = 56.18907 154.03469 50.06821
#
# Poissons Ratio (x) = 0.02922 0.62972
# Poissons Ratio (y) = 0.01066 0.13612
# Poissons Ratio (z) = 0.70671 0.41876
#
# Static dielectric constant tensor:
#      x y z
#    x 3.978580 0.000000 0.000000 
#    y 0.000000 3.541940 0.000000 
#    z 0.000000 0.000000 3.991440 
# 
# 
# High freq. dielectric constant tensor:
#      x y z
#    x 1.810520 0.000000 0.000000 
#    y 0.000000 1.831080 0.000000 
#    z 0.000000 0.000000 1.805650 
# 
# From -- ./inp_files/48469.got.cif
#   From: 2010.03.12/outbox.cif.g09.slc.cpg/sg65_25_cif.got.tgz:48469.got - 2010.04.10 20:52:16.
