data_PCOD8274717
_publ_section_title
;
Structure prediction by ZEFSAII (Michael W. Deem and Ramdas Pophale) SiO2 
 PCOD8274717
Probable space group: C M M M
;
_chemical_formula_sum "Si O2"
_cell_formula_units_Z 64
_cell_length_a 8.043496
_cell_length_b 14.969194
_cell_length_c 25.758146
_cell_angle_alpha 90.000000
_cell_angle_beta 90.000000
_cell_angle_gamma 90.000000
_cell_volume 3101.400607
_symmetry_space_group_name_H-M "C M M M"
_symmetry_group_IT_number 65
_symmetry_cell_setting 'orthorhombic'
loop_
_space_group_symop_operation_xyz
x,y,z
-x,-y,z
x,-y,-z
-x,y,-z
-x,-y,-z
x,y,-z
-x,y,z
x,-y,z
1/2+x,1/2+y,z
1/2-x,1/2-y,z
1/2+x,1/2-y,-z
1/2-x,1/2+y,-z
1/2-x,1/2-y,-z
1/2+x,1/2+y,-z
1/2-x,1/2+y,z
1/2+x,1/2-y,z
loop_
_atom_site_type_symbol
_atom_site_label
_atom_site_fract_x
_atom_site_fract_y
_atom_site_fract_z
Si Si1 0.684489 0.000000 0.687850
Si Si2 0.310039 0.500000 0.424167
Si Si3 0.500000 0.893419 0.058730
Si Si4 0.806797 0.153241 0.759025
Si Si5 0.312851 0.393990 0.875538
Si Si6 0.195534 0.147617 0.500000
O O1 0.707925 0.085752 0.723423
O O2 0.500000 0.000000 0.665309
O O3 0.800611 0.000000 0.637828
O O4 0.500000 0.500000 0.440687
O O5 0.235891 0.408460 0.449643
O O6 0.330402 0.857101 0.085835
O O7 0.500000 0.000000 0.060683
O O8 0.500000 0.857816 0.000000
O O9 0.750000 0.250000 0.740716
O O10 0.760207 0.140059 0.819059
O O11 0.000000 0.136477 0.749951
O O12 0.500000 0.359969 0.891104
O O13 0.313792 0.500000 0.875448
O O14 0.250000 0.250000 0.500000
O O15 0.000000 0.152642 0.500000
#
# Coordination Sequence:
#
# PCOD8274717 Si02
#       6
#     8   8   8  16  16   8
#     4  12  25  39  61  90 126 163 201 254 312 361
#     4   9  20  40  60  84 122 164 201 247 305 360
#     4   9  18  30  52  84 114 147 191 245 305 359
#     4  11  23  39  60  88 117 156 204 251 305 370
#     4   9  18  33  55  80 111 151 193 242 304 367
#     4   9  19  37  64  90 116 161 209 249 299 354
#
# _framework density 20.635839000000001
#
# number of rings (size 3 to 8) (size 9 to 14) (size 15 to 20)
#    0.000    2.125    1.250    2.625    3.500    2.500 
#    0.000    6.250    0.000    0.750    0.000    0.000 
#    0.000    0.000    0.000    0.000    0.000    0.000 
#
# Total GULP energy -396649.288003 kJ/mol
# GULP energy per Si atom -12395.290250 kJ/mol
# Density = 2.058887 g / cm^3
# Si number density = 20.635839 Si / 1000 Ang^3
#
#
#
# Elastic Constant Matrix: (Units=GPa)
#
#
# Indices 1 2 3 4 5 6 
#
# 1 90.2847 35.1575 46.8990 0.0000 0.0000 0.0000
# 2 35.1575 110.4373 66.8486 0.0000 0.0000 0.0000
# 3 46.8990 66.8486 120.5289 0.0000 0.0000 0.0000
# 4 0.0000 0.0000 0.0000 -72.1959 0.0000 0.0000
# 5 0.0000 0.0000 0.0000 0.0000 24.8052 0.0000
# 6 0.0000 0.0000 0.0000 0.0000 0.0000 24.7893
#
#
#
# Elastic Compliance Matrix: (Units=1/GPa)
#
#
# Indices 1 2 3 4 5 6 
#
# 1 0.014105 -0.001759 -0.004513 0.000000 0.000000 0.000000
# 2 -0.001759 0.013850 -0.006998 0.000000 0.000000 0.000000
# 3 -0.004513 -0.006998 0.013934 0.000000 0.000000 0.000000
# 4 0.000000 0.000000 0.000000 -0.013851 0.000000 0.000000
# 5 0.000000 0.000000 0.000000 0.000000 0.040314 0.000000
# 6 0.000000 0.000000 0.000000 0.000000 0.000000 0.040340
#
#
# Mechanical properties :
#
#
# Convention : Reuss Voigt Hill
#
# Bulk Modulus (GPa) = 65.14196 68.78456 66.96326
# Shear Modulus (GPa) = 35.62575 6.96945 21.29760
#
# Velocity S-wave (km/s) = 4.15951 1.83975 3.21607
# Velocity P-wave (km/s) = 7.39625 6.15775 6.80523
#
# Compressibility (1/GPa) = 0.01535109
#
# Stress axis : x y z
#
# Youngs Moduli (GPa) = 70.89565 72.20001 71.76736
#
# Poissons Ratio (x) = 0.12697 0.32390
# Poissons Ratio (y) = 0.12467 0.50220
# Poissons Ratio (z) = 0.31996 0.50522
#
# Static dielectric constant tensor:
#      x y z
#    x 3.909420 0.000000 0.000000 
#    y 0.000000 -0.290220 0.000000 
#    z 0.000000 0.000000 3.618020 
# 
# 
# High freq. dielectric constant tensor:
#      x y z
#    x 1.812080 0.000000 0.000000 
#    y 0.000000 1.803000 0.000000 
#    z 0.000000 0.000000 1.797250 
# 
# From -- ./inp_files/66884.got.cif
#   From: 2010.03.12/outbox.cif.g09.slc.cpg/sg65_34_cif.got.tgz:66884.got - 2010.04.10 20:52:16.
