data_PCOD8274918
_publ_section_title
;
Structure prediction by ZEFSAII (Michael W. Deem and Ramdas Pophale) SiO2 
 PCOD8274918
Probable space group: C M M M
;
_chemical_formula_sum "Si O2"
_cell_formula_units_Z 96
_cell_length_a 30.602779
_cell_length_b 9.382000
_cell_length_c 25.686323
_cell_angle_alpha 90.000000
_cell_angle_beta 90.000000
_cell_angle_gamma 90.000000
_cell_volume 7374.935630
_symmetry_space_group_name_H-M "C M M M"
_symmetry_group_IT_number 65
_symmetry_cell_setting 'orthorhombic'
loop_
_space_group_symop_operation_xyz
x,y,z
-x,-y,z
x,-y,-z
-x,y,-z
-x,-y,-z
x,y,-z
-x,y,z
x,-y,z
1/2+x,1/2+y,z
1/2-x,1/2-y,z
1/2+x,1/2-y,-z
1/2-x,1/2+y,-z
1/2-x,1/2-y,-z
1/2+x,1/2+y,-z
1/2-x,1/2+y,z
1/2+x,1/2-y,z
loop_
_atom_site_type_symbol
_atom_site_label
_atom_site_fract_x
_atom_site_fract_y
_atom_site_fract_z
Si Si1 0.875878 0.333737 0.060403
Si Si2 0.447781 0.340041 0.653558
Si Si3 0.208922 0.161565 0.938124
Si Si4 0.448138 0.841586 0.749435
Si Si5 0.951596 0.669432 0.864141
Si Si6 0.448055 0.160004 0.557514
O O1 0.865919 0.500000 0.070940
O O2 0.834788 0.242214 0.079875
O O3 0.917671 0.277396 0.092448
O O4 0.886145 0.306750 0.000000
O O5 0.500000 0.337988 0.653541
O O6 0.429596 0.500000 0.653993
O O7 0.429163 0.261244 0.704797
O O8 0.428998 0.263686 0.601814
O O9 0.250000 0.250000 0.915567
O O10 0.209418 0.000000 0.916042
O O11 0.211558 0.158063 0.000000
O O12 0.500000 0.850231 0.745239
O O13 0.435718 0.780585 0.806662
O O14 0.428491 0.000000 0.741027
O O15 0.954330 0.500000 0.863864
O O16 0.000000 0.731380 0.876981
O O17 0.432671 0.211478 0.500000
O O18 0.500000 0.160820 0.559934
O O19 0.431012 0.000000 0.568212
#
# Coordination Sequence:
#
# PCOD8274918 Si02
#       6
#    16  16  16  16  16  16
#     4   9  16  25  38  56  75  92 111 137 170 207
#     4   9  15  20  27  40  55  69  89 121 159 194
#     4   9  16  26  40  56  73  91 110 132 160 197
#     4   8  13  22  34  43  53  74 104 134 161 190
#     4   8  14  24  37  52  68  88 116 146 172 200
#     4   8  13  20  28  37  50  69  91 113 142 186
#
# _framework density 13.017061999999999
#
# number of rings (size 3 to 8) (size 9 to 14) (size 15 to 20)
#    0.000    3.500    0.000    2.500    0.000    4.667 
#    0.000    4.167    0.000    1.500    0.000    2.333 
#    0.000    0.000    0.000    0.000    0.000    0.000 
#
# Total GULP energy -594823.497764 kJ/mol
# GULP energy per Si atom -12392.156203 kJ/mol
# Density = 1.298743 g / cm^3
# Si number density = 13.017062 Si / 1000 Ang^3
#
#
#
# Elastic Constant Matrix: (Units=GPa)
#
#
# Indices 1 2 3 4 5 6 
#
# 1 52.7767 32.0054 38.3994 0.0000 0.0000 0.0000
# 2 32.0054 78.2150 46.0203 0.0000 0.0000 0.0000
# 3 38.3994 46.0203 87.4205 0.0000 0.0000 0.0000
# 4 0.0000 0.0000 0.0000 9.5621 0.0000 0.0000
# 5 0.0000 0.0000 0.0000 0.0000 0.5561 0.0000
# 6 0.0000 0.0000 0.0000 0.0000 0.0000 10.9876
#
#
#
# Elastic Compliance Matrix: (Units=1/GPa)
#
#
# Indices 1 2 3 4 5 6 
#
# 1 0.029999 -0.006552 -0.009728 0.000000 0.000000 0.000000
# 2 -0.006552 0.019953 -0.007626 0.000000 0.000000 0.000000
# 3 -0.009728 -0.007626 0.019727 0.000000 0.000000 0.000000
# 4 0.000000 0.000000 0.000000 0.104580 0.000000 0.000000
# 5 0.000000 0.000000 0.000000 0.000000 1.798295 0.000000
# 6 0.000000 0.000000 0.000000 0.000000 0.000000 0.091011
#
#
# Mechanical properties :
#
#
# Convention : Reuss Voigt Hill
#
# Bulk Modulus (GPa) = 45.73077 50.14027 47.93552
# Shear Modulus (GPa) = 2.35998 11.02030 6.69014
#
# Velocity S-wave (km/s) = 1.34793 2.91280 2.26951
# Velocity P-wave (km/s) = 6.13435 7.06506 6.61609
#
# Compressibility (1/GPa) = 0.02186711
#
# Stress axis : x y z
#
# Youngs Moduli (GPa) = 33.33470 50.11713 50.69318
#
# Poissons Ratio (x) = 0.32835 0.49314
# Poissons Ratio (y) = 0.21840 0.38659
# Poissons Ratio (z) = 0.32428 0.38220
#
# Static dielectric constant tensor:
#      x y z
#    x 2.283230 0.000000 0.000000 
#    y 0.000000 2.694320 0.000000 
#    z 0.000000 0.000000 2.764930 
# 
# 
# High freq. dielectric constant tensor:
#      x y z
#    x 1.428890 0.000000 0.000000 
#    y 0.000000 1.491340 0.000000 
#    z 0.000000 0.000000 1.487400 
# 
# From -- ./inp_files/75690.got.cif
#   From: 2010.03.12/outbox.cif.g09.slc.cpg/sg65_38_cif.got.tgz:75690.got - 2010.04.10 20:52:16.
