data_PCOD8274513
_publ_section_title
;
Structure prediction by ZEFSAII (Michael W. Deem and Ramdas Pophale) SiO2 
 PCOD8274513
Probable space group: C M M M
;
_chemical_formula_sum "Si O2"
_cell_formula_units_Z 64
_cell_length_a 17.937068
_cell_length_b 8.661021
_cell_length_c 20.884553
_cell_angle_alpha 90.000000
_cell_angle_beta 90.000000
_cell_angle_gamma 90.000000
_cell_volume 3244.484700
_symmetry_space_group_name_H-M "C M M M"
_symmetry_group_IT_number 65
_symmetry_cell_setting 'orthorhombic'
loop_
_space_group_symop_operation_xyz
x,y,z
-x,-y,z
x,-y,-z
-x,y,-z
-x,-y,-z
x,y,-z
-x,y,z
x,-y,z
1/2+x,1/2+y,z
1/2-x,1/2-y,z
1/2+x,1/2-y,-z
1/2-x,1/2+y,-z
1/2-x,1/2-y,-z
1/2+x,1/2+y,-z
1/2-x,1/2+y,z
1/2+x,1/2-y,z
loop_
_atom_site_type_symbol
_atom_site_label
_atom_site_fract_x
_atom_site_fract_y
_atom_site_fract_z
Si Si1 0.088532 0.169192 0.000000
Si Si2 0.087762 0.677523 0.620937
Si Si3 0.083679 0.815372 0.137134
Si Si4 0.331722 0.317929 0.500000
Si Si5 0.830952 0.183139 0.739078
O O1 0.111049 0.252331 0.067402
O O2 0.000000 0.151913 0.000000
O O3 0.125839 0.000000 0.000000
O O4 0.113382 0.500000 0.620752
O O5 0.125376 0.764124 0.562522
O O6 0.111714 0.756603 0.686635
O O7 0.000000 0.693825 0.613327
O O8 0.139797 0.757149 0.191955
O O9 0.000000 0.756255 0.152990
O O10 0.082867 0.000000 0.133304
O O11 0.326279 0.500000 0.500000
O O12 0.250000 0.250000 0.500000
O O13 0.750000 0.250000 0.725156
O O14 0.827950 0.000000 0.736071
#
# Coordination Sequence:
#
# PCOD8274513 Si02
#       5
#     8  16  16   8  16
#     4   7  10  20  41  70 101 131 170 223 278 327
#     4  11  24  42  63  87 115 146 183 228 276 326
#     4   8  14  26  47  74 102 135 178 228 278 329
#     4  12  25  42  65  91 121 153 185 222 267 320
#     4  11  22  36  54  78 111 148 188 231 277 330
#
# _framework density 19.725781999999999
#
# number of rings (size 3 to 8) (size 9 to 14) (size 15 to 20)
#    0.000    2.125    0.000    6.000    0.000    4.500 
#    0.000    0.625    0.000    0.000    0.000    2.625 
#    0.000   14.000    0.000    0.000    0.000    0.000 
#
# Total GULP energy -396644.404967 kJ/mol
# GULP energy per Si atom -12395.137655 kJ/mol
# Density = 1.968089 g / cm^3
# Si number density = 19.725782 Si / 1000 Ang^3
#
#
#
# Elastic Constant Matrix: (Units=GPa)
#
#
# Indices 1 2 3 4 5 6 
#
# 1 75.8409 37.3856 45.1717 0.0000 0.0000 0.0000
# 2 37.3856 92.9067 53.0673 0.0000 0.0000 0.0000
# 3 45.1717 53.0673 172.7263 0.0000 0.0000 0.0000
# 4 0.0000 0.0000 0.0000 36.7244 0.0000 0.0000
# 5 0.0000 0.0000 0.0000 0.0000 -18.7283 0.0000
# 6 0.0000 0.0000 0.0000 0.0000 0.0000 20.7267
#
#
#
# Elastic Compliance Matrix: (Units=1/GPa)
#
#
# Indices 1 2 3 4 5 6 
#
# 1 0.017601 -0.005401 -0.002944 0.000000 0.000000 0.000000
# 2 -0.005401 0.014712 -0.003107 0.000000 0.000000 0.000000
# 3 -0.002944 -0.003107 0.007514 0.000000 0.000000 0.000000
# 4 0.000000 0.000000 0.000000 0.027230 0.000000 0.000000
# 5 0.000000 0.000000 0.000000 0.000000 -0.053395 0.000000
# 6 0.000000 0.000000 0.000000 0.000000 0.000000 0.048247
#
#
# Mechanical properties :
#
#
# Convention : Reuss Voigt Hill
#
# Bulk Modulus (GPa) = 59.09326 68.08035 63.58681
# Shear Modulus (GPa) = 55.27624 21.46784 38.37204
#
# Velocity S-wave (km/s) = 5.29936 3.30254 4.41531
# Velocity P-wave (km/s) = 8.21381 7.00933 7.63536
#
# Compressibility (1/GPa) = 0.01692240
#
# Stress axis : x y z
#
# Youngs Moduli (GPa) = 56.81372 67.97210 133.08427
#
# Poissons Ratio (x) = 0.36714 0.39175
# Poissons Ratio (y) = 0.30687 0.41355
# Poissons Ratio (z) = 0.16724 0.21122
#
# Static dielectric constant tensor:
#      x y z
#    x 3.500030 0.000000 0.000000 
#    y 0.000000 3.384530 0.000000 
#    z 0.000000 0.000000 4.067540 
# 
# 
# High freq. dielectric constant tensor:
#      x y z
#    x 1.758420 0.000000 0.000000 
#    y 0.000000 1.738830 0.000000 
#    z 0.000000 0.000000 1.798790 
# 
# From -- ./inp_files/63232.got.cif
#   From: 2010.03.12/outbox.cif.g09.slc.cpg/sg65_32_cif.got.tgz:63232.got - 2010.04.10 20:52:16.
