data_PCOD8274230
_publ_section_title
;
Structure prediction by ZEFSAII (Michael W. Deem and Ramdas Pophale) SiO2 
 PCOD8274230
Probable space group: C M M M
;
_chemical_formula_sum "Si O2"
_cell_formula_units_Z 112
_cell_length_a 26.761241
_cell_length_b 15.978791
_cell_length_c 14.589686
_cell_angle_alpha 90.000000
_cell_angle_beta 90.000000
_cell_angle_gamma 90.000000
_cell_volume 6238.728849
_symmetry_space_group_name_H-M "C M M M"
_symmetry_group_IT_number 65
_symmetry_cell_setting 'orthorhombic'
loop_
_space_group_symop_operation_xyz
x,y,z
-x,-y,z
x,-y,-z
-x,y,-z
-x,-y,-z
x,y,-z
-x,y,z
x,-y,z
1/2+x,1/2+y,z
1/2-x,1/2-y,z
1/2+x,1/2-y,-z
1/2-x,1/2+y,-z
1/2-x,1/2-y,-z
1/2+x,1/2+y,-z
1/2-x,1/2+y,z
1/2+x,1/2-y,z
loop_
_atom_site_type_symbol
_atom_site_label
_atom_site_fract_x
_atom_site_fract_y
_atom_site_fract_z
Si Si1 0.900745 0.245682 0.216935
Si Si2 0.647242 0.906387 0.603198
Si Si3 0.058930 0.404384 0.894464
Si Si4 0.874619 0.093527 0.892445
Si Si5 0.259444 0.595923 0.895991
Si Si6 0.294613 0.194593 0.742226
Si Si7 0.443181 0.213520 0.398003
O O1 0.915780 0.333878 0.169427
O O2 0.909706 0.164002 0.154139
O O3 0.842144 0.247868 0.237954
O O4 0.931227 0.226320 0.311551
O O5 0.666584 0.896999 0.500000
O O6 0.691725 0.872682 0.665617
O O7 0.593695 0.863773 0.617316
O O8 0.636913 0.000000 0.632668
O O9 0.075035 0.500000 0.866643
O O10 0.000000 0.394916 0.883122
O O11 0.074616 0.388225 0.000000
O O12 0.816814 0.108227 0.866465
O O13 0.890761 0.000000 0.860264
O O14 0.882395 0.101800 0.000000
O O15 0.243489 0.500000 0.884511
O O16 0.222919 0.651814 0.835858
O O17 0.251727 0.625609 0.000000
O O18 0.250000 0.250000 0.701015
O O19 0.434091 0.254426 0.500000
O O20 0.500000 0.181435 0.391543
#
# Coordination Sequence:
#
# PCOD8274230 Si02
#       7
#    16  16  16  16  16  16  16
#     4  11  20  32  54  79 103 139 183 218 263 318
#     4   9  19  35  54  76 102 133 171 215 261 312
#     4   9  19  35  53  77 111 144 172 209 263 328
#     4   9  18  33  52  74 101 136 178 222 263 301
#     4   9  18  32  48  67  97 137 176 215 257 299
#     4  11  21  32  46  72 102 137 173 217 263 308
#     4   9  19  35  55  80 107 133 164 208 264 323
#
# _framework density 17.952373999999999
#
# number of rings (size 3 to 8) (size 9 to 14) (size 15 to 20)
#    0.000    2.429    1.429    2.571    0.000    4.857 
#    0.000    2.857    0.000    2.143    0.000    6.000 
#    0.000    0.000    0.000    0.000    0.000    0.000 
#
# Total GULP energy -694004.594634 kJ/mol
# GULP energy per Si atom -12392.939190 kJ/mol
# Density = 1.791151 g / cm^3
# Si number density = 17.952374 Si / 1000 Ang^3
#
#
#
# Elastic Constant Matrix: (Units=GPa)
#
#
# Indices 1 2 3 4 5 6 
#
# 1 76.3269 34.5074 44.7908 0.0000 0.0000 0.0000
# 2 34.5074 80.1508 54.7198 0.0000 0.0000 0.0000
# 3 44.7908 54.7198 104.7650 0.0000 0.0000 0.0000
# 4 0.0000 0.0000 0.0000 26.8551 0.0000 0.0000
# 5 0.0000 0.0000 0.0000 0.0000 29.0572 0.0000
# 6 0.0000 0.0000 0.0000 0.0000 0.0000 18.0270
#
#
#
# Elastic Compliance Matrix: (Units=1/GPa)
#
#
# Indices 1 2 3 4 5 6 
#
# 1 0.018254 -0.003934 -0.005750 0.000000 0.000000 0.000000
# 2 -0.003934 0.020239 -0.008889 0.000000 0.000000 0.000000
# 3 -0.005750 -0.008889 0.016646 0.000000 0.000000 0.000000
# 4 0.000000 0.000000 0.000000 0.037237 0.000000 0.000000
# 5 0.000000 0.000000 0.000000 0.000000 0.034415 0.000000
# 6 0.000000 0.000000 0.000000 0.000000 0.000000 0.055472
#
#
# Mechanical properties :
#
#
# Convention : Reuss Voigt Hill
#
# Bulk Modulus (GPa) = 55.57349 58.80872 57.19111
# Shear Modulus (GPa) = 22.18220 23.26950 22.72585
#
# Velocity S-wave (km/s) = 3.51894 3.60416 3.56180
# Velocity P-wave (km/s) = 6.89448 7.08161 6.98867
#
# Compressibility (1/GPa) = 0.01799419
#
# Stress axis : x y z
#
# Youngs Moduli (GPa) = 54.78262 49.41028 60.07350
#
# Poissons Ratio (x) = 0.19436 0.34541
# Poissons Ratio (y) = 0.21549 0.53400
# Poissons Ratio (z) = 0.31498 0.43922
#
# Static dielectric constant tensor:
#      x y z
#    x 3.238670 0.000000 0.000000 
#    y 0.000000 3.304270 0.000000 
#    z 0.000000 0.000000 3.571700 
# 
# 
# High freq. dielectric constant tensor:
#      x y z
#    x 1.683380 0.000000 0.000000 
#    y 0.000000 1.678980 0.000000 
#    z 0.000000 0.000000 1.701180 
# 
# From -- ./inp_files/47049.got.cif
#   From: 2010.03.12/outbox.cif.g09.slc.cpg/sg65_24_cif.got.tgz:47049.got - 2010.04.10 20:52:16.
