data_PCOD8274548
_publ_section_title
;
Structure prediction by ZEFSAII (Michael W. Deem and Ramdas Pophale) SiO2 
 PCOD8274548
Probable space group: C M M M
;
_chemical_formula_sum "Si O2"
_cell_formula_units_Z 88
_cell_length_a 14.408277
_cell_length_b 17.227759
_cell_length_c 17.629703
_cell_angle_alpha 90.000000
_cell_angle_beta 90.000000
_cell_angle_gamma 90.000000
_cell_volume 4376.085846
_symmetry_space_group_name_H-M "C M M M"
_symmetry_group_IT_number 65
_symmetry_cell_setting 'orthorhombic'
loop_
_space_group_symop_operation_xyz
x,y,z
-x,-y,z
x,-y,-z
-x,y,-z
-x,-y,-z
x,y,-z
-x,y,z
x,-y,z
1/2+x,1/2+y,z
1/2-x,1/2-y,z
1/2+x,1/2-y,-z
1/2-x,1/2+y,-z
1/2-x,1/2-y,-z
1/2+x,1/2+y,-z
1/2-x,1/2+y,z
1/2+x,1/2-y,z
loop_
_atom_site_type_symbol
_atom_site_label
_atom_site_fract_x
_atom_site_fract_y
_atom_site_fract_z
Si Si1 0.897269 0.132582 0.806931
Si Si2 0.895361 0.410598 0.411120
Si Si3 0.731995 0.840510 0.290925
Si Si4 0.389549 0.500000 0.915944
Si Si5 0.606387 0.912723 0.163044
Si Si6 0.642340 0.764267 0.916081
O O1 0.832846 0.125153 0.732149
O O2 0.855011 0.075640 0.870853
O O3 0.905305 0.216417 0.847924
O O4 0.000000 0.107596 0.780084
O O5 0.879440 0.400583 0.500000
O O6 0.887326 0.500000 0.386423
O O7 0.810444 0.364260 0.372079
O O8 0.000000 0.380614 0.389912
O O9 0.750000 0.750000 0.288238
O O10 0.657837 0.870546 0.231308
O O11 0.500000 0.500000 0.921943
O O12 0.345077 0.500000 0.000000
O O13 0.500000 0.919448 0.187047
O O14 0.618975 0.855964 0.090983
O O15 0.645016 0.000000 0.145960
O O16 0.750000 0.750000 0.906434
O O17 0.607995 0.737769 0.000000
#
# Coordination Sequence:
#
# PCOD8274548 Si02
#       6
#    16  16  16   8  16  16
#     4  11  22  37  56  82 116 160 209 255 307 365
#     4   9  20  41  70 101 128 156 193 239 295 360
#     4  12  23  37  59  90 124 158 194 243 296 360
#     4   9  20  36  54  78 104 145 212 272 308 345
#     4  11  23  39  60  86 116 155 205 260 319 377
#     4  11  22  39  59  82 114 158 208 263 327 379
#
# _framework density 20.109294999999999
#
# number of rings (size 3 to 8) (size 9 to 14) (size 15 to 20)
#    0.000    1.364    3.636    2.727    2.545    5.091 
#    0.000    0.909    0.000    0.545    0.000    1.273 
#    0.000    0.000    0.000    0.000    0.000    0.000 
#
# Total GULP energy -545273.309106 kJ/mol
# GULP energy per Si atom -12392.575207 kJ/mol
# Density = 2.006353 g / cm^3
# Si number density = 20.109295 Si / 1000 Ang^3
#
#
#
# Elastic Constant Matrix: (Units=GPa)
#
#
# Indices 1 2 3 4 5 6 
#
# 1 113.6171 41.8848 52.5886 0.0000 0.0000 0.0000
# 2 41.8848 131.5176 34.9860 0.0000 0.0000 0.0000
# 3 52.5886 34.9860 78.3158 0.0000 0.0000 0.0000
# 4 0.0000 0.0000 0.0000 26.5593 0.0000 0.0000
# 5 0.0000 0.0000 0.0000 0.0000 -18.1578 0.0000
# 6 0.0000 0.0000 0.0000 0.0000 0.0000 27.6781
#
#
#
# Elastic Compliance Matrix: (Units=1/GPa)
#
#
# Indices 1 2 3 4 5 6 
#
# 1 0.013265 -0.002105 -0.007967 0.000000 0.000000 0.000000
# 2 -0.002105 0.008963 -0.002590 0.000000 0.000000 0.000000
# 3 -0.007967 -0.002590 0.019276 0.000000 0.000000 0.000000
# 4 0.000000 0.000000 0.000000 0.037652 0.000000 0.000000
# 5 0.000000 0.000000 0.000000 0.000000 -0.055073 0.000000
# 6 0.000000 0.000000 0.000000 0.000000 0.000000 0.036130
#
#
# Mechanical properties :
#
#
# Convention : Reuss Voigt Hill
#
# Bulk Modulus (GPa) = 61.80946 64.70771 63.25858
# Shear Modulus (GPa) = 54.98672 20.14864 37.56768
#
# Velocity S-wave (km/s) = 5.23482 3.16880 4.32693
# Velocity P-wave (km/s) = 8.20617 6.75546 7.51590
#
# Compressibility (1/GPa) = 0.01617875
#
# Stress axis : x y z
#
# Youngs Moduli (GPa) = 75.38528 111.56842 51.87843
#
# Poissons Ratio (x) = 0.23488 0.41332
# Poissons Ratio (y) = 0.15870 0.13439
# Poissons Ratio (z) = 0.60060 0.28901
#
# Static dielectric constant tensor:
#      x y z
#    x 3.877340 0.000000 0.000000 
#    y 0.000000 3.954820 0.000000 
#    z 0.000000 0.000000 3.604840 
# 
# 
# High freq. dielectric constant tensor:
#      x y z
#    x 1.791250 0.000000 0.000000 
#    y 0.000000 1.788320 0.000000 
#    z 0.000000 0.000000 1.754980 
# 
# From -- ./inp_files/53022.got.cif
#   From: 2010.03.12/outbox.cif.g09.slc.cpg/sg65_27_cif.got.tgz:53022.got - 2010.04.10 20:52:16.
