data_PCOD8274691
_publ_section_title
;
Structure prediction by ZEFSAII (Michael W. Deem and Ramdas Pophale) SiO2 
 PCOD8274691
Probable space group: C M M M
;
_chemical_formula_sum "Si O2"
_cell_formula_units_Z 64
_cell_length_a 17.118777
_cell_length_b 14.293567
_cell_length_c 15.534625
_cell_angle_alpha 90.000000
_cell_angle_beta 90.000000
_cell_angle_gamma 90.000000
_cell_volume 3801.142318
_symmetry_space_group_name_H-M "C M M M"
_symmetry_group_IT_number 65
_symmetry_cell_setting 'orthorhombic'
loop_
_space_group_symop_operation_xyz
x,y,z
-x,-y,z
x,-y,-z
-x,y,-z
-x,-y,-z
x,y,-z
-x,y,z
x,-y,z
1/2+x,1/2+y,z
1/2-x,1/2-y,z
1/2+x,1/2-y,-z
1/2-x,1/2+y,-z
1/2-x,1/2-y,-z
1/2+x,1/2+y,-z
1/2-x,1/2+y,z
1/2+x,1/2-y,z
loop_
_atom_site_type_symbol
_atom_site_label
_atom_site_fract_x
_atom_site_fract_y
_atom_site_fract_z
Si Si1 0.908355 0.888930 0.500000
Si Si2 0.091672 0.398243 0.404205
Si Si3 0.092569 0.890987 0.813043
Si Si4 0.085002 0.889744 0.000000
Si Si5 0.161157 0.779403 0.340280
O O1 0.867617 0.846945 0.583922
O O2 0.000000 0.861895 0.500000
O O3 0.896894 0.000000 0.500000
O O4 0.123005 0.372122 0.500000
O O5 0.126141 0.500000 0.376467
O O6 0.115243 0.318475 0.337669
O O7 0.000000 0.405882 0.406824
O O8 0.144965 0.830730 0.749066
O O9 0.000000 0.869323 0.803172
O O10 0.107425 0.000000 0.794040
O O11 0.125046 0.862414 0.908933
O O12 0.000000 0.841901 0.000000
O O13 0.073184 0.000000 0.000000
O O14 0.250000 0.750000 0.352426
#
# Coordination Sequence:
#
# PCOD8274691 Si02
#       5
#     8  16  16   8  16
#     4  11  23  38  55  73  97 131 170 211 256 302
#     4   9  18  33  51  65  83 123 174 214 238 265
#     4   9  17  32  55  79 103 130 163 205 251 300
#     4   7  12  26  51  80 101 123 161 205 246 291
#     4  12  23  33  46  75 105 135 162 198 252 304
#
# _framework density 16.837043999999999
#
# number of rings (size 3 to 8) (size 9 to 14) (size 15 to 20)
#    0.000    2.250    1.250    5.625    0.000    4.000 
#    0.000    0.625    0.000    0.000    0.000    0.875 
#    0.000    5.000    0.000    0.000    0.000    0.750 
#
# Total GULP energy -396456.895884 kJ/mol
# GULP energy per Si atom -12389.277996 kJ/mol
# Density = 1.679872 g / cm^3
# Si number density = 16.837044 Si / 1000 Ang^3
#
#
#
# Elastic Constant Matrix: (Units=GPa)
#
#
# Indices 1 2 3 4 5 6 
#
# 1 71.1870 39.0320 44.0301 0.0000 0.0000 0.0000
# 2 39.0320 102.9964 61.5079 0.0000 0.0000 0.0000
# 3 44.0301 61.5079 137.1887 0.0000 0.0000 0.0000
# 4 0.0000 0.0000 0.0000 11.9098 0.0000 0.0000
# 5 0.0000 0.0000 0.0000 0.0000 15.3786 0.0000
# 6 0.0000 0.0000 0.0000 0.0000 0.0000 4.5942
#
#
#
# Elastic Compliance Matrix: (Units=1/GPa)
#
#
# Indices 1 2 3 4 5 6 
#
# 1 0.019186 -0.004908 -0.003957 0.000000 0.000000 0.000000
# 2 -0.004908 0.014514 -0.004932 0.000000 0.000000 0.000000
# 3 -0.003957 -0.004932 0.010771 0.000000 0.000000 0.000000
# 4 0.000000 0.000000 0.000000 0.083965 0.000000 0.000000
# 5 0.000000 0.000000 0.000000 0.000000 0.065025 0.000000
# 6 0.000000 0.000000 0.000000 0.000000 0.000000 0.217666
#
#
# Mechanical properties :
#
#
# Convention : Reuss Voigt Hill
#
# Bulk Modulus (GPa) = 59.25395 66.72356 62.98875
# Shear Modulus (GPa) = 11.25246 17.49665 14.37456
#
# Velocity S-wave (km/s) = 2.58799 3.22712 2.92506
# Velocity P-wave (km/s) = 6.64825 7.32126 6.99285
#
# Compressibility (1/GPa) = 0.01687651
#
# Stress axis : x y z
#
# Youngs Moduli (GPa) = 52.12126 68.89697 92.84384
#
# Poissons Ratio (x) = 0.33811 0.36742
# Poissons Ratio (y) = 0.25579 0.45795
# Poissons Ratio (z) = 0.20626 0.33983
#
# Static dielectric constant tensor:
#      x y z
#    x 2.873450 0.000000 0.000000 
#    y 0.000000 2.511030 0.000000 
#    z 0.000000 0.000000 3.337650 
# 
# 
# High freq. dielectric constant tensor:
#      x y z
#    x 1.622630 0.000000 0.000000 
#    y 0.000000 1.649300 0.000000 
#    z 0.000000 0.000000 1.641530 
# 
# From -- ./inp_files/42051.got.cif
#   From: 2010.03.12/outbox.cif.g09.slc.cpg/sg65_22_cif.got.tgz:42051.got - 2010.04.10 20:52:16.
