data_PCOD8274666
_publ_section_title
;
Structure prediction by ZEFSAII (Michael W. Deem and Ramdas Pophale) SiO2 
 PCOD8274666
Probable space group: C M M M
;
_chemical_formula_sum "Si O2"
_cell_formula_units_Z 104
_cell_length_a 18.755372
_cell_length_b 9.201689
_cell_length_c 33.896021
_cell_angle_alpha 90.000000
_cell_angle_beta 90.000000
_cell_angle_gamma 90.000000
_cell_volume 5849.812597
_symmetry_space_group_name_H-M "C M M M"
_symmetry_group_IT_number 65
_symmetry_cell_setting 'orthorhombic'
loop_
_space_group_symop_operation_xyz
x,y,z
-x,-y,z
x,-y,-z
-x,y,-z
-x,-y,-z
x,y,-z
-x,y,z
x,-y,z
1/2+x,1/2+y,z
1/2-x,1/2-y,z
1/2+x,1/2-y,-z
1/2-x,1/2+y,-z
1/2-x,1/2-y,-z
1/2+x,1/2+y,-z
1/2-x,1/2+y,z
1/2+x,1/2-y,z
loop_
_atom_site_type_symbol
_atom_site_label
_atom_site_fract_x
_atom_site_fract_y
_atom_site_fract_z
Si Si1 0.915062 0.661576 0.801117
Si Si2 0.323354 0.831143 0.956179
Si Si3 0.078815 0.673221 0.886851
Si Si4 0.577227 0.170789 0.500000
Si Si5 0.173963 0.827219 0.349234
Si Si6 0.080971 0.170710 0.274717
Si Si7 0.414971 0.168016 0.414347
O O1 0.885510 0.500000 0.792806
O O2 0.888208 0.719022 0.844061
O O3 0.887884 0.763407 0.765815
O O4 0.000000 0.659176 0.802936
O O5 0.250000 0.750000 0.951816
O O6 0.375250 0.764716 0.923038
O O7 0.309313 0.000000 0.948432
O O8 0.356130 0.806354 0.000000
O O9 0.074829 0.500000 0.888424
O O10 0.000000 0.739615 0.891896
O O11 0.500000 0.247735 0.500000
O O12 0.614948 0.210853 0.541602
O O13 0.564732 0.000000 0.500000
O O14 0.250000 0.750000 0.349858
O O15 0.132285 0.779145 0.309865
O O16 0.126039 0.775088 0.385474
O O17 0.184159 0.000000 0.351826
O O18 0.000000 0.225853 0.283176
O O19 0.081387 0.000000 0.269715
O O20 0.500000 0.193628 0.411571
O O21 0.397092 0.000000 0.404378
#
# Coordination Sequence:
#
# PCOD8274666 Si02
#       7
#    16  16  16   8  16  16  16
#     4   8  14  26  46  70  93 117 147 186 230 276
#     4   9  17  29  45  64  88 120 154 187 225 270
#     4   8  14  26  45  69  93 115 146 190 232 268
#     4   7  12  26  50  79 106 129 157 197 240 281
#     4  11  23  37  51  70 100 134 167 205 248 289
#     4   9  18  33  52  72  94 121 154 194 239 286
#     4   9  17  32  56  82 105 131 164 200 240 289
#
# _framework density 17.778347
#
# number of rings (size 3 to 8) (size 9 to 14) (size 15 to 20)
#    0.000    3.154    0.000    2.769    0.000    2.462 
#    0.000    5.385    0.000    6.462    0.000    2.154 
#    0.000    0.000    0.000    0.000    0.000    0.000 
#
# Total GULP energy -644297.670865 kJ/mol
# GULP energy per Si atom -12390.339824 kJ/mol
# Density = 1.773788 g / cm^3
# Si number density = 17.778347 Si / 1000 Ang^3
#
#
#
# Elastic Constant Matrix: (Units=GPa)
#
#
# Indices 1 2 3 4 5 6 
#
# 1 65.2673 28.4328 63.5260 0.0000 0.0000 0.0000
# 2 28.4328 37.7453 45.5095 0.0000 0.0000 0.0000
# 3 63.5260 45.5095 182.4345 0.0000 0.0000 0.0000
# 4 0.0000 0.0000 0.0000 22.7551 0.0000 0.0000
# 5 0.0000 0.0000 0.0000 0.0000 2.8199 0.0000
# 6 0.0000 0.0000 0.0000 0.0000 0.0000 18.0170
#
#
#
# Elastic Compliance Matrix: (Units=1/GPa)
#
#
# Indices 1 2 3 4 5 6 
#
# 1 0.026922 -0.012838 -0.006172 0.000000 0.000000 0.000000
# 2 -0.012838 0.044011 -0.006509 0.000000 0.000000 0.000000
# 3 -0.006172 -0.006509 0.009254 0.000000 0.000000 0.000000
# 4 0.000000 0.000000 0.000000 0.043946 0.000000 0.000000
# 5 0.000000 0.000000 0.000000 0.000000 0.354625 0.000000
# 6 0.000000 0.000000 0.000000 0.000000 0.000000 0.055503
#
#
# Mechanical properties :
#
#
# Convention : Reuss Voigt Hill
#
# Bulk Modulus (GPa) = 34.30515 62.26485 48.28500
# Shear Modulus (GPa) = 8.40314 18.58364 13.49339
#
# Velocity S-wave (km/s) = 2.17644 3.23661 2.75795
# Velocity P-wave (km/s) = 5.06495 7.00474 6.11229
#
# Compressibility (1/GPa) = 0.02915014
#
# Stress axis : x y z
#
# Youngs Moduli (GPa) = 37.14493 22.72137 108.05956
#
# Poissons Ratio (x) = 0.29170 0.66693
# Poissons Ratio (y) = 0.47687 0.70331
# Poissons Ratio (z) = 0.22925 0.14788
#
# Static dielectric constant tensor:
#      x y z
#    x 3.108480 0.000000 0.000000 
#    y 0.000000 3.048760 0.000000 
#    z 0.000000 0.000000 3.829990 
# 
# 
# High freq. dielectric constant tensor:
#      x y z
#    x 1.653770 0.000000 0.000000 
#    y 0.000000 1.660110 0.000000 
#    z 0.000000 0.000000 1.711420 
# 
# From -- ./inp_files/78171.got.cif
#   From: 2010.03.12/outbox.cif.g09.slc.cpg/sg65_40_cif.got.tgz:78171.got - 2010.04.10 20:52:16.
