data_PCOD8274721
_publ_section_title
;
Structure prediction by ZEFSAII (Michael W. Deem and Ramdas Pophale) SiO2 
 PCOD8274721
Probable space group: C M M M
;
_chemical_formula_sum "Si O2"
_cell_formula_units_Z 104
_cell_length_a 23.343950
_cell_length_b 26.035522
_cell_length_c 8.717939
_cell_angle_alpha 90.000000
_cell_angle_beta 90.000000
_cell_angle_gamma 90.000000
_cell_volume 5298.518558
_symmetry_space_group_name_H-M "C M M M"
_symmetry_group_IT_number 65
_symmetry_cell_setting 'orthorhombic'
loop_
_space_group_symop_operation_xyz
x,y,z
-x,-y,z
x,-y,-z
-x,y,-z
-x,-y,-z
x,y,-z
-x,y,z
x,-y,z
1/2+x,1/2+y,z
1/2-x,1/2-y,z
1/2+x,1/2-y,-z
1/2-x,1/2+y,-z
1/2-x,1/2-y,-z
1/2+x,1/2+y,-z
1/2-x,1/2+y,z
1/2+x,1/2-y,z
loop_
_atom_site_type_symbol
_atom_site_label
_atom_site_fract_x
_atom_site_fract_y
_atom_site_fract_z
Si Si1 0.214987 0.394643 0.831220
Si Si2 0.211428 0.794275 0.829497
Si Si3 0.000000 0.322981 0.817880
Si Si4 0.933507 0.500000 0.830984
Si Si5 0.670739 0.557921 0.819707
Si Si6 0.389890 0.346328 0.320996
Si Si7 0.596753 0.106110 0.320861
Si Si8 0.500000 0.295153 0.180940
O O1 0.249102 0.342793 0.847742
O O2 0.262203 0.435794 0.770091
O O3 0.163597 0.385217 0.713462
O O4 0.191007 0.410845 0.000000
O O5 0.250000 0.750000 0.754489
O O6 0.158934 0.804772 0.716656
O O7 0.188859 0.778051 0.000000
O O8 0.057260 0.351498 0.760667
O O9 0.000000 0.263949 0.757367
O O10 0.000000 0.325358 0.000000
O O11 0.916531 0.549294 0.734847
O O12 0.000000 0.500000 0.857475
O O13 0.903832 0.500000 0.000000
O O14 0.651381 0.500000 0.780307
O O15 0.628384 0.596734 0.732998
O O16 0.665868 0.570079 0.000000
O O17 0.401934 0.347744 0.500000
O O18 0.446104 0.327491 0.236251
O O19 0.584832 0.110468 0.500000
O O20 0.500000 0.293374 0.000000
#
# Coordination Sequence:
#
# PCOD8274721 Si02
#       8
#    16  16   8   8  16  16  16   8
#     4   9  19  35  57  86 119 156 201 243 285 349
#     4   9  19  37  61  86 115 159 207 245 284 347
#     4  11  25  44  64  84 110 157 210 253 299 356
#     4  11  23  41  63  79 104 154 206 247 290 351
#     4   9  19  39  66  93 121 161 207 247 291 356
#     4  11  23  39  61  93 129 159 194 250 317 368
#     4  12  25  39  58  87 121 152 192 250 312 361
#     4  11  25  45  69  89 117 163 213 254 293 358
#
# _framework density 19.628128
#
# number of rings (size 3 to 8) (size 9 to 14) (size 15 to 20)
#    0.000    1.769    0.769    4.385    3.231    4.615 
#    0.000    0.385    0.000    2.308    0.000    0.000 
#    0.000    0.000    0.000    0.000    0.000    0.000 
#
# Total GULP energy -644668.577858 kJ/mol
# GULP energy per Si atom -12397.472651 kJ/mol
# Density = 1.958345 g / cm^3
# Si number density = 19.628128 Si / 1000 Ang^3
#
#
#
# Elastic Constant Matrix: (Units=GPa)
#
#
# Indices 1 2 3 4 5 6 
#
# 1 115.9867 58.2083 37.6949 0.0000 0.0000 0.0000
# 2 58.2083 89.2223 30.7258 0.0000 0.0000 0.0000
# 3 37.6949 30.7258 91.8484 0.0000 0.0000 0.0000
# 4 0.0000 0.0000 0.0000 21.9975 0.0000 0.0000
# 5 0.0000 0.0000 0.0000 0.0000 355.7568 0.0000
# 6 0.0000 0.0000 0.0000 0.0000 0.0000 -20.2520
#
#
#
# Elastic Compliance Matrix: (Units=1/GPa)
#
#
# Indices 1 2 3 4 5 6 
#
# 1 0.013481 -0.007787 -0.002928 0.000000 0.000000 0.000000
# 2 -0.007787 0.017165 -0.002546 0.000000 0.000000 0.000000
# 3 -0.002928 -0.002546 0.012941 0.000000 0.000000 0.000000
# 4 0.000000 0.000000 0.000000 0.045460 0.000000 0.000000
# 5 0.000000 0.000000 0.000000 0.000000 0.002811 0.000000
# 6 0.000000 0.000000 0.000000 0.000000 0.000000 -0.049378
#
#
# Mechanical properties :
#
#
# Convention : Reuss Voigt Hill
#
# Bulk Modulus (GPa) = 58.59954 61.14615 59.87285
# Shear Modulus (GPa) = 66.94369 82.86236 74.90302
#
# Velocity S-wave (km/s) = 5.84637 6.50444 6.18417
# Velocity P-wave (km/s) = 8.68868 9.36111 9.03115
#
# Compressibility (1/GPa) = 0.01706498
#
# Stress axis : x y z
#
# Youngs Moduli (GPa) = 74.17879 58.25845 77.27421
#
# Poissons Ratio (x) = 0.45364 0.22624
# Poissons Ratio (y) = 0.57761 0.19678
# Poissons Ratio (z) = 0.21718 0.14835
#
# Static dielectric constant tensor:
#      x y z
#    x 1.667540 0.000000 0.000000 
#    y 0.000000 4.393330 0.000000 
#    z 0.000000 0.000000 3.531700 
# 
# 
# High freq. dielectric constant tensor:
#      x y z
#    x 1.763230 0.000000 0.000000 
#    y 0.000000 1.772420 0.000000 
#    z 0.000000 0.000000 1.758190 
# 
# From -- ./inp_files/12459.got.cif
#   From: 2010.03.12/outbox.cif.g09.slc.cpg/sg65_7_cif.got.tgz:12459.got - 2010.04.10 20:52:16.
