data_PCOD8274943
_publ_section_title
;
Structure prediction by ZEFSAII (Michael W. Deem and Ramdas Pophale) SiO2 
 PCOD8274943
Probable space group: C M M M
;
_chemical_formula_sum "Si O2"
_cell_formula_units_Z 112
_cell_length_a 9.390862
_cell_length_b 29.216810
_cell_length_c 24.089072
_cell_angle_alpha 90.000000
_cell_angle_beta 90.000000
_cell_angle_gamma 90.000000
_cell_volume 6609.343515
_symmetry_space_group_name_H-M "C M M M"
_symmetry_group_IT_number 65
_symmetry_cell_setting 'orthorhombic'
loop_
_space_group_symop_operation_xyz
x,y,z
-x,-y,z
x,-y,-z
-x,y,-z
-x,-y,-z
x,y,-z
-x,y,z
x,-y,z
1/2+x,1/2+y,z
1/2-x,1/2-y,z
1/2+x,1/2-y,-z
1/2-x,1/2+y,-z
1/2-x,1/2-y,-z
1/2+x,1/2+y,-z
1/2-x,1/2+y,z
1/2+x,1/2-y,z
loop_
_atom_site_type_symbol
_atom_site_label
_atom_site_fract_x
_atom_site_fract_y
_atom_site_fract_z
Si Si1 0.835436 0.795423 0.062343
Si Si2 0.830402 0.948264 0.647937
Si Si3 0.831867 0.202204 0.647135
Si Si4 0.169832 0.873984 0.142857
Si Si5 0.331004 0.374306 0.561858
Si Si6 0.169588 0.050839 0.061221
Si Si7 0.331039 0.626338 0.266851
O O1 0.750000 0.750000 0.072921
O O2 0.777804 0.830611 0.107897
O O3 0.000000 0.784400 0.071804
O O4 0.810312 0.814766 0.000000
O O5 0.777072 0.920006 0.593808
O O6 0.776949 0.919619 0.701762
O O7 0.000000 0.950884 0.647985
O O8 0.766568 0.000000 0.648154
O O9 0.750000 0.250000 0.646797
O O10 0.785926 0.172223 0.593509
O O11 0.785793 0.172662 0.701123
O O12 0.000000 0.212163 0.647113
O O13 0.231854 0.917749 0.110131
O O14 0.234351 0.872637 0.204906
O O15 0.000000 0.875617 0.145078
O O16 0.264767 0.373793 0.500000
O O17 0.500000 0.376116 0.559515
O O18 0.000000 0.051957 0.062690
O O19 0.226870 0.000000 0.072495
O O20 0.219897 0.067603 0.000000
O O21 0.500000 0.624461 0.264767
#
# Coordination Sequence:
#
# PCOD8274943 Si02
#       7
#    16  16  16  16  16  16  16
#     4   9  17  28  41  57  77 101 130 163 197 234
#     4   8  13  21  33  50  75 106 134 159 190 230
#     4   9  17  29  43  58  79 107 135 164 198 232
#     4   9  15  23  36  52  72 101 132 159 193 236
#     4   8  14  24  37  55  79 104 131 163 196 230
#     4   8  13  20  30  47  72 100 129 159 190 229
#     4   8  15  25  35  51  75 101 130 163 196 230
#
# _framework density 16.945706999999999
#
# number of rings (size 3 to 8) (size 9 to 14) (size 15 to 20)
#    0.000    3.571    0.000    2.571    0.000    3.429 
#    0.000    4.286    0.000    0.000    0.000    0.000 
#    0.000    9.714    0.000   15.571    0.000   19.714 
#
# Total GULP energy -693834.450191 kJ/mol
# GULP energy per Si atom -12389.900896 kJ/mol
# Density = 1.690714 g / cm^3
# Si number density = 16.945707 Si / 1000 Ang^3
#
#
#
# Elastic Constant Matrix: (Units=GPa)
#
#
# Indices 1 2 3 4 5 6 
#
# 1 10.0835 22.7563 15.1579 0.0000 0.0000 0.0000
# 2 22.7563 160.5170 98.0327 0.0000 0.0000 0.0000
# 3 15.1579 98.0327 181.9317 0.0000 0.0000 0.0000
# 4 0.0000 0.0000 0.0000 -9.6806 0.0000 0.0000
# 5 0.0000 0.0000 0.0000 0.0000 6.6109 0.0000
# 6 0.0000 0.0000 0.0000 0.0000 0.0000 14.8533
#
#
#
# Elastic Compliance Matrix: (Units=1/GPa)
#
#
# Indices 1 2 3 4 5 6 
#
# 1 0.146105 -0.019792 -0.001508 0.000000 0.000000 0.000000
# 2 -0.019792 0.011967 -0.004799 0.000000 0.000000 0.000000
# 3 -0.001508 -0.004799 0.008208 0.000000 0.000000 0.000000
# 4 0.000000 0.000000 0.000000 -0.103299 0.000000 0.000000
# 5 0.000000 0.000000 0.000000 0.000000 0.151265 0.000000
# 6 0.000000 0.000000 0.000000 0.000000 0.000000 0.067325
#
#
# Mechanical properties :
#
#
# Convention : Reuss Voigt Hill
#
# Bulk Modulus (GPa) = 8.76568 69.38067 39.07317
# Shear Modulus (GPa) = 13.44817 16.79573 15.12195
#
# Velocity S-wave (km/s) = 2.82015 3.15167 2.99051
# Velocity P-wave (km/s) = 3.97346 7.36721 5.91879
#
# Compressibility (1/GPa) = 0.11408134
#
# Stress axis : x y z
#
# Youngs Moduli (GPa) = 6.84438 83.56449 121.82861
#
# Poissons Ratio (x) = 1.65392 0.18373
# Poissons Ratio (y) = 0.13546 0.58468
# Poissons Ratio (z) = 0.01032 0.40104
#
# Static dielectric constant tensor:
#      x y z
#    x 2.427960 0.000000 0.000000 
#    y 0.000000 3.347210 0.000000 
#    z 0.000000 0.000000 3.716040 
# 
# 
# High freq. dielectric constant tensor:
#      x y z
#    x 1.567870 0.000000 0.000000 
#    y 0.000000 1.662480 0.000000 
#    z 0.000000 0.000000 1.664180 
# 
# From -- ./inp_files/69242.got.cif
#   From: 2010.03.12/outbox.cif.g09.slc.cpg/sg65_35_cif.got.tgz:69242.got - 2010.04.10 20:52:16.
