data_PCOD8274481
_publ_section_title
;
Structure prediction by ZEFSAII (Michael W. Deem and Ramdas Pophale) SiO2 
 PCOD8274481
Probable space group: C M M M
;
_chemical_formula_sum "Si O2"
_cell_formula_units_Z 104
_cell_length_a 18.840645
_cell_length_b 9.135460
_cell_length_c 33.016172
_cell_angle_alpha 90.000000
_cell_angle_beta 90.000000
_cell_angle_gamma 90.000000
_cell_volume 5682.676131
_symmetry_space_group_name_H-M "C M M M"
_symmetry_group_IT_number 65
_symmetry_cell_setting 'orthorhombic'
loop_
_space_group_symop_operation_xyz
x,y,z
-x,-y,z
x,-y,-z
-x,y,-z
-x,-y,-z
x,y,-z
-x,y,z
x,-y,z
1/2+x,1/2+y,z
1/2-x,1/2-y,z
1/2+x,1/2-y,-z
1/2-x,1/2+y,-z
1/2-x,1/2-y,-z
1/2+x,1/2+y,-z
1/2-x,1/2+y,z
1/2+x,1/2-y,z
loop_
_atom_site_type_symbol
_atom_site_label
_atom_site_fract_x
_atom_site_fract_y
_atom_site_fract_z
Si Si1 0.678433 0.171052 0.348658
Si Si2 0.174221 0.674014 0.889405
Si Si3 0.579308 0.173480 0.185738
Si Si4 0.322623 0.827987 0.257439
Si Si5 0.081071 0.167911 0.047331
Si Si6 0.418466 0.170654 0.421467
Si Si7 0.915449 0.834115 0.500000
O O1 0.750000 0.250000 0.361437
O O2 0.654576 0.214621 0.303177
O O3 0.618600 0.221846 0.380081
O O4 0.692763 0.000000 0.351536
O O5 0.184448 0.500000 0.890188
O O6 0.250000 0.750000 0.885855
O O7 0.126618 0.728061 0.851714
O O8 0.134575 0.724250 0.929993
O O9 0.500000 0.241253 0.182947
O O10 0.615299 0.226577 0.227602
O O11 0.574140 0.000000 0.184908
O O12 0.250000 0.750000 0.244837
O O13 0.309589 0.000000 0.252801
O O14 0.000000 0.208125 0.058665
O O15 0.097015 0.000000 0.059314
O O16 0.093977 0.191634 0.000000
O O17 0.500000 0.212270 0.415633
O O18 0.385294 0.255695 0.459817
O O19 0.407699 0.000000 0.429982
O O20 0.000000 0.821629 0.500000
O O21 0.888555 0.000000 0.500000
#
# Coordination Sequence:
#
# PCOD8274481 Si02
#       7
#    16  16  16  16  16  16   8
#     4   9  18  31  48  71  97 127 160 194 237 287
#     4  11  22  35  53  77 106 140 177 215 255 302
#     4   9  18  32  51  76 103 130 164 208 253 295
#     4   9  17  31  51  72  97 129 162 197 238 287
#     4   9  19  37  59  81 106 136 170 211 260 310
#     4   9  17  30  48  69  93 121 156 198 239 280
#     4   9  17  29  46  69  94 121 155 193 238 289
#
# _framework density 18.301235999999999
#
# number of rings (size 3 to 8) (size 9 to 14) (size 15 to 20)
#    0.000    2.692    0.000    2.077    0.000    3.692 
#    0.000    5.000    0.000    2.308    0.000    4.308 
#    0.000    0.000    0.000    0.000    0.000    0.000 
#
# Total GULP energy -644783.913086 kJ/mol
# GULP energy per Si atom -12399.690636 kJ/mol
# Density = 1.825958 g / cm^3
# Si number density = 18.301236 Si / 1000 Ang^3
#
#
#
# Elastic Constant Matrix: (Units=GPa)
#
#
# Indices 1 2 3 4 5 6 
#
# 1 131.1470 45.8025 84.2169 0.0000 0.0000 0.0000
# 2 45.8025 51.5338 45.0527 0.0000 0.0000 0.0000
# 3 84.2169 45.0527 129.1538 0.0000 0.0000 0.0000
# 4 0.0000 0.0000 0.0000 21.8673 0.0000 0.0000
# 5 0.0000 0.0000 0.0000 0.0000 20.8667 0.0000
# 6 0.0000 0.0000 0.0000 0.0000 0.0000 22.8854
#
#
#
# Elastic Compliance Matrix: (Units=1/GPa)
#
#
# Indices 1 2 3 4 5 6 
#
# 1 0.014556 -0.006675 -0.007163 0.000000 0.000000 0.000000
# 2 -0.006675 0.030980 -0.006454 0.000000 0.000000 0.000000
# 3 -0.007163 -0.006454 0.014665 0.000000 0.000000 0.000000
# 4 0.000000 0.000000 0.000000 0.045730 0.000000 0.000000
# 5 0.000000 0.000000 0.000000 0.000000 0.047923 0.000000
# 6 0.000000 0.000000 0.000000 0.000000 0.000000 0.043696
#
#
# Mechanical properties :
#
#
# Convention : Reuss Voigt Hill
#
# Bulk Modulus (GPa) = 50.97792 73.55321 62.26556
# Shear Modulus (GPa) = 20.43540 22.24139 21.33839
#
# Velocity S-wave (km/s) = 3.34520 3.48989 3.41831
# Velocity P-wave (km/s) = 6.54491 7.51776 7.04814
#
# Compressibility (1/GPa) = 0.01961634
#
# Stress axis : x y z
#
# Youngs Moduli (GPa) = 68.69994 32.27911 68.18990
#
# Poissons Ratio (x) = 0.21546 0.48845
# Poissons Ratio (y) = 0.45857 0.44011
# Poissons Ratio (z) = 0.49210 0.20833
#
# Static dielectric constant tensor:
#      x y z
#    x 3.424970 0.000000 0.000000 
#    y 0.000000 3.201530 0.000000 
#    z 0.000000 0.000000 3.596960 
# 
# 
# High freq. dielectric constant tensor:
#      x y z
#    x 1.699780 0.000000 0.000000 
#    y 0.000000 1.691290 0.000000 
#    z 0.000000 0.000000 1.723030 
# 
# From -- ./inp_files/78214.got.cif
#   From: 2010.03.12/outbox.cif.g09.slc.cpg/sg65_40_cif.got.tgz:78214.got - 2010.04.10 20:52:16.
