data_PCOD8274878
_publ_section_title
;
Structure prediction by ZEFSAII (Michael W. Deem and Ramdas Pophale) SiO2 
 PCOD8274878
Probable space group: C M M M
;
_chemical_formula_sum "Si O2"
_cell_formula_units_Z 88
_cell_length_a 9.715323
_cell_length_b 19.861982
_cell_length_c 28.025324
_cell_angle_alpha 90.000000
_cell_angle_beta 90.000000
_cell_angle_gamma 90.000000
_cell_volume 5407.922636
_symmetry_space_group_name_H-M "C M M M"
_symmetry_group_IT_number 65
_symmetry_cell_setting 'orthorhombic'
loop_
_space_group_symop_operation_xyz
x,y,z
-x,-y,z
x,-y,-z
-x,y,-z
-x,-y,-z
x,y,-z
-x,y,z
x,-y,z
1/2+x,1/2+y,z
1/2-x,1/2-y,z
1/2+x,1/2-y,-z
1/2-x,1/2+y,-z
1/2-x,1/2-y,-z
1/2+x,1/2+y,-z
1/2-x,1/2+y,z
1/2+x,1/2-y,z
loop_
_atom_site_type_symbol
_atom_site_label
_atom_site_fract_x
_atom_site_fract_y
_atom_site_fract_z
Si Si1 0.341522 0.813046 0.714765
Si Si2 0.849681 0.579836 0.000000
Si Si3 0.840401 0.577262 0.638083
Si Si4 0.339680 0.186440 0.824324
Si Si5 0.154386 0.920061 0.447344
Si Si6 0.835575 0.574989 0.102269
O O1 0.500000 0.792479 0.707232
O O2 0.250000 0.750000 0.698285
O O3 0.302000 0.878472 0.684048
O O4 0.311771 0.832610 0.769440
O O5 0.775310 0.599698 0.050248
O O6 0.866785 0.500000 0.000000
O O7 0.000000 0.614297 0.000000
O O8 0.799351 0.500000 0.649491
O O9 0.757959 0.607259 0.592825
O O10 0.000000 0.582892 0.624977
O O11 0.500000 0.202493 0.833329
O O12 0.250000 0.250000 0.839937
O O13 0.286048 0.124435 0.856102
O O14 0.197715 0.893109 0.500000
O O15 0.000000 0.895482 0.435139
O O16 0.160086 0.000000 0.447932
O O17 0.781137 0.500000 0.114601
O O18 0.000000 0.573805 0.098751
#
# Coordination Sequence:
#
# PCOD8274878 Si02
#       6
#    16   8  16  16  16  16
#     4   9  18  31  45  61  83 113 144 172 207 252
#     4   7  10  18  33  56  85 109 132 169 212 248
#     4   9  17  28  43  65  89 109 134 173 215 248
#     4   9  17  29  44  61  83 111 141 173 210 252
#     4   8  14  25  41  62  88 115 140 166 200 245
#     4   8  13  22  39  62  84 108 140 176 211 246
#
# _framework density 16.272421000000001
#
# number of rings (size 3 to 8) (size 9 to 14) (size 15 to 20)
#    0.000    3.545    0.000    1.636    0.000    1.818 
#    0.000    5.909    0.000    1.091    0.000    5.091 
#    0.000    2.182    0.000    0.000    0.000    0.000 
#
# Total GULP energy -545194.462606 kJ/mol
# GULP energy per Si atom -12390.783241 kJ/mol
# Density = 1.623538 g / cm^3
# Si number density = 16.272421 Si / 1000 Ang^3
#
#
#
# Elastic Constant Matrix: (Units=GPa)
#
#
# Indices 1 2 3 4 5 6 
#
# 1 42.5721 38.1289 48.1402 0.0000 0.0000 0.0000
# 2 38.1289 85.6377 73.9914 0.0000 0.0000 0.0000
# 3 48.1402 73.9914 128.5375 0.0000 0.0000 0.0000
# 4 0.0000 0.0000 0.0000 9.7781 0.0000 0.0000
# 5 0.0000 0.0000 0.0000 0.0000 13.7296 0.0000
# 6 0.0000 0.0000 0.0000 0.0000 0.0000 19.5585
#
#
#
# Elastic Compliance Matrix: (Units=1/GPa)
#
#
# Indices 1 2 3 4 5 6 
#
# 1 0.045410 -0.010990 -0.010681 0.000000 0.000000 0.000000
# 2 -0.010990 0.025891 -0.010788 0.000000 0.000000 0.000000
# 3 -0.010681 -0.010788 0.017990 0.000000 0.000000 0.000000
# 4 0.000000 0.000000 0.000000 0.102269 0.000000 0.000000
# 5 0.000000 0.000000 0.000000 0.000000 0.072835 0.000000
# 6 0.000000 0.000000 0.000000 0.000000 0.000000 0.051129
#
#
# Mechanical properties :
#
#
# Convention : Reuss Voigt Hill
#
# Bulk Modulus (GPa) = 41.02757 64.14092 52.58424
# Shear Modulus (GPa) = 12.86779 15.04570 13.95674
#
# Velocity S-wave (km/s) = 2.81512 3.04404 2.93182
# Velocity P-wave (km/s) = 5.98617 7.20121 6.62162
#
# Compressibility (1/GPa) = 0.02437386
#
# Stress axis : x y z
#
# Youngs Moduli (GPa) = 22.02139 38.62339 55.58605
#
# Poissons Ratio (x) = 0.42446 0.59372
# Poissons Ratio (y) = 0.24201 0.59966
# Poissons Ratio (z) = 0.23521 0.41667
#
# Static dielectric constant tensor:
#      x y z
#    x 2.873830 0.000000 0.000000 
#    y 0.000000 2.879700 0.000000 
#    z 0.000000 0.000000 3.462630 
# 
# 
# High freq. dielectric constant tensor:
#      x y z
#    x 1.594200 0.000000 0.000000 
#    y 0.000000 1.594290 0.000000 
#    z 0.000000 0.000000 1.639940 
# 
# From -- ./inp_files/76688.got.cif
#   From: 2010.03.12/outbox.cif.g09.slc.cpg/sg65_39_cif.got.tgz:76688.got - 2010.04.10 20:52:16.
