data_PCOD8274172
_publ_section_title
;
Structure prediction by ZEFSAII (Michael W. Deem and Ramdas Pophale) SiO2 
 PCOD8274172
Probable space group: C M M M
;
_chemical_formula_sum "Si O2"
_cell_formula_units_Z 72
_cell_length_a 22.897293
_cell_length_b 19.372743
_cell_length_c 11.562699
_cell_angle_alpha 90.000000
_cell_angle_beta 90.000000
_cell_angle_gamma 90.000000
_cell_volume 5129.021020
_symmetry_space_group_name_H-M "C M M M"
_symmetry_group_IT_number 65
_symmetry_cell_setting 'orthorhombic'
loop_
_space_group_symop_operation_xyz
x,y,z
-x,-y,z
x,-y,-z
-x,y,-z
-x,-y,-z
x,y,-z
-x,y,z
x,-y,z
1/2+x,1/2+y,z
1/2-x,1/2-y,z
1/2+x,1/2-y,-z
1/2-x,1/2+y,-z
1/2-x,1/2-y,-z
1/2+x,1/2+y,-z
1/2-x,1/2+y,z
1/2+x,1/2-y,z
loop_
_atom_site_type_symbol
_atom_site_label
_atom_site_fract_x
_atom_site_fract_y
_atom_site_fract_z
Si Si1 0.726703 0.853022 0.363385
Si Si2 0.842990 0.225476 0.636880
Si Si3 0.387180 0.500000 0.636735
Si Si4 0.567939 0.365994 0.242762
Si Si5 0.930686 0.077628 0.000000
Si Si6 0.754434 0.000000 0.361974
O O1 0.724016 0.852164 0.500000
O O2 0.790007 0.824674 0.327486
O O3 0.674334 0.803099 0.320629
O O4 0.720785 0.931476 0.315655
O O5 0.855713 0.222429 0.500000
O O6 0.899547 0.201074 0.706781
O O7 0.387867 0.500000 0.500000
O O8 0.421039 0.432691 0.678948
O O9 0.320849 0.500000 0.683805
O O10 0.500000 0.347711 0.243612
O O11 0.590774 0.381305 0.113112
O O12 0.000000 0.071469 0.000000
O O13 0.904216 0.000000 0.000000
O O14 0.755385 0.000000 0.500000
#
# Coordination Sequence:
#
# PCOD8274172 Si02
#       6
#    16  16   8  16   8   8
#     4   8  14  24  39  57  83 111 135 162 196 241
#     4   9  16  26  39  60  85 108 131 164 207 241
#     4  11  19  25  37  64  90 106 131 163 198 241
#     4  11  20  29  41  56  81 113 140 167 199 238
#     4   9  18  32  42  51  72 111 155 174 184 223
#     4   9  14  23  39  61  83 108 139 163 188 233
#
# _framework density 14.037767000000001
#
# number of rings (size 3 to 8) (size 9 to 14) (size 15 to 20)
#    0.000    2.556    3.333    2.333    0.000    2.222 
#    0.000    0.000    0.000    2.667    0.000    0.778 
#    0.000    4.444    0.000    4.000    0.000    0.889 
#
# Total GULP energy -446136.205757 kJ/mol
# GULP energy per Si atom -12392.672382 kJ/mol
# Density = 1.400582 g / cm^3
# Si number density = 14.037767 Si / 1000 Ang^3
#
#
#
# Elastic Constant Matrix: (Units=GPa)
#
#
# Indices 1 2 3 4 5 6 
#
# 1 64.0234 50.0343 29.7905 0.0000 0.0000 0.0000
# 2 50.0343 119.2508 28.1130 0.0000 0.0000 0.0000
# 3 29.7905 28.1130 58.9902 0.0000 0.0000 0.0000
# 4 0.0000 0.0000 0.0000 11.8597 0.0000 0.0000
# 5 0.0000 0.0000 0.0000 0.0000 3.7909 0.0000
# 6 0.0000 0.0000 0.0000 0.0000 0.0000 20.9222
#
#
#
# Elastic Compliance Matrix: (Units=1/GPa)
#
#
# Indices 1 2 3 4 5 6 
#
# 1 0.027140 -0.009188 -0.009327 0.000000 0.000000 0.000000
# 2 -0.009188 0.012558 -0.001345 0.000000 0.000000 0.000000
# 3 -0.009327 -0.001345 0.022303 0.000000 0.000000 0.000000
# 4 0.000000 0.000000 0.000000 0.084319 0.000000 0.000000
# 5 0.000000 0.000000 0.000000 0.000000 0.263793 0.000000
# 6 0.000000 0.000000 0.000000 0.000000 0.000000 0.047796
#
#
# Mechanical properties :
#
#
# Convention : Reuss Voigt Hill
#
# Bulk Modulus (GPa) = 44.88129 50.90445 47.89287
# Shear Modulus (GPa) = 9.89991 16.26966 13.08479
#
# Velocity S-wave (km/s) = 2.65851 3.40809 3.05637
# Velocity P-wave (km/s) = 6.43931 7.19917 6.82982
#
# Compressibility (1/GPa) = 0.02228100
#
# Stress axis : x y z
#
# Youngs Moduli (GPa) = 36.84613 79.63161 44.83722
#
# Poissons Ratio (x) = 0.73168 0.41819
# Poissons Ratio (y) = 0.33855 0.06028
# Poissons Ratio (z) = 0.34366 0.10707
#
# Static dielectric constant tensor:
#      x y z
#    x 2.602750 0.000000 0.000000 
#    y 0.000000 3.137250 0.000000 
#    z 0.000000 0.000000 2.579920 
# 
# 
# High freq. dielectric constant tensor:
#      x y z
#    x 1.507350 0.000000 0.000000 
#    y 0.000000 1.533840 0.000000 
#    z 0.000000 0.000000 1.503110 
# 
# From -- ./inp_files/26566.got.cif
#   From: 2010.03.12/outbox.cif.g09.slc.cpg/sg65_14_cif.got.tgz:26566.got - 2010.04.10 20:52:16.
