data_PCOD8274009
_publ_section_title
;
Structure prediction by ZEFSAII (Michael W. Deem and Ramdas Pophale) SiO2 
 PCOD8274009
Probable space group: C M M M
;
_chemical_formula_sum "Si O2"
_cell_formula_units_Z 88
_cell_length_a 17.662461
_cell_length_b 32.492451
_cell_length_c 7.829880
_cell_angle_alpha 90.000000
_cell_angle_beta 90.000000
_cell_angle_gamma 90.000000
_cell_volume 4493.541891
_symmetry_space_group_name_H-M "C M M M"
_symmetry_group_IT_number 65
_symmetry_cell_setting 'orthorhombic'
loop_
_space_group_symop_operation_xyz
x,y,z
-x,-y,z
x,-y,-z
-x,y,-z
-x,-y,-z
x,y,-z
-x,y,z
x,-y,z
1/2+x,1/2+y,z
1/2-x,1/2-y,z
1/2+x,1/2-y,-z
1/2-x,1/2+y,-z
1/2-x,1/2-y,-z
1/2+x,1/2+y,-z
1/2-x,1/2+y,z
1/2+x,1/2-y,z
loop_
_atom_site_type_symbol
_atom_site_label
_atom_site_fract_x
_atom_site_fract_y
_atom_site_fract_z
Si Si1 0.415531 0.500000 0.801048
Si Si2 0.083590 0.170439 0.196728
Si Si3 0.409625 0.195596 0.500000
Si Si4 0.838945 0.747867 0.200263
Si Si5 0.089844 0.600686 0.500000
Si Si6 0.414992 0.414881 0.697816
Si Si7 0.590051 0.046376 0.190096
O O1 0.500000 0.500000 0.716626
O O2 0.372520 0.458016 0.742425
O O3 0.420945 0.500000 0.000000
O O4 0.131836 0.208060 0.270271
O O5 0.124670 0.126069 0.225300
O O6 0.000000 0.169850 0.284189
O O7 0.074539 0.179279 0.000000
O O8 0.500000 0.201380 0.500000
O O9 0.375885 0.214093 0.324552
O O10 0.384913 0.147943 0.500000
O O11 0.750000 0.750000 0.225145
O O12 0.859511 0.738592 0.000000
O O13 0.123031 0.577944 0.331100
O O14 0.000000 0.597065 0.500000
O O15 0.416752 0.408057 0.500000
O O16 0.500000 0.417729 0.776517
O O17 0.500000 0.047413 0.193775
O O18 0.617832 0.000000 0.232682
O O19 0.618488 0.059287 0.000000
#
# Coordination Sequence:
#
# PCOD8274009 Si02
#       7
#     8  16   8  16   8  16  16
#     4   9  15  23  35  53  87 131 163 193 241 302
#     4   9  17  30  49  73  99 129 169 216 264 312
#     4  11  23  36  55  82 112 144 179 220 280 342
#     4  10  22  40  59  78 105 141 185 232 276 328
#     4   9  17  27  40  65 100 135 166 205 255 316
#     4   9  16  24  37  61  93 127 161 200 249 304
#     4   8  13  22  38  61  93 134 172 204 244 300
#
# _framework density 19.583662
#
# number of rings (size 3 to 8) (size 9 to 14) (size 15 to 20)
#    0.000    2.818    0.000    2.455    1.273    6.182 
#    0.000    1.818    0.000    0.000    0.000    0.000 
#    5.455    0.000    4.364    0.000    1.091    0.000 
#
# Total GULP energy -545093.602457 kJ/mol
# GULP energy per Si atom -12388.490965 kJ/mol
# Density = 1.953909 g / cm^3
# Si number density = 19.583662 Si / 1000 Ang^3
#
#
#
# Elastic Constant Matrix: (Units=GPa)
#
#
# Indices 1 2 3 4 5 6 
#
# 1 39.7788 37.4657 25.8128 0.0000 0.0000 0.0000
# 2 37.4657 206.8837 78.7767 0.0000 0.0000 0.0000
# 3 25.8128 78.7767 114.0778 0.0000 0.0000 0.0000
# 4 0.0000 0.0000 0.0000 34.8981 0.0000 0.0000
# 5 0.0000 0.0000 0.0000 0.0000 11.8619 0.0000
# 6 0.0000 0.0000 0.0000 0.0000 0.0000 1.4125
#
#
#
# Elastic Compliance Matrix: (Units=1/GPa)
#
#
# Indices 1 2 3 4 5 6 
#
# 1 0.031839 -0.004101 -0.004372 0.000000 0.000000 0.000000
# 2 -0.004101 0.007086 -0.003966 0.000000 0.000000 0.000000
# 3 -0.004372 -0.003966 0.012494 0.000000 0.000000 0.000000
# 4 0.000000 0.000000 0.000000 0.028655 0.000000 0.000000
# 5 0.000000 0.000000 0.000000 0.000000 0.084303 0.000000
# 6 0.000000 0.000000 0.000000 0.000000 0.000000 0.707942
#
#
# Mechanical properties :
#
#
# Convention : Reuss Voigt Hill
#
# Bulk Modulus (GPa) = 37.67741 71.65006 54.66374
# Shear Modulus (GPa) = 5.51850 24.21353 14.86602
#
# Velocity S-wave (km/s) = 1.68048 3.52008 2.75817
# Velocity P-wave (km/s) = 4.80066 7.29297 6.17389
#
# Compressibility (1/GPa) = 0.02654110
#
# Stress axis : x y z
#
# Youngs Moduli (GPa) = 31.40827 141.11783 80.04046
#
# Poissons Ratio (x) = 0.57872 0.34996
# Poissons Ratio (y) = 0.12880 0.31740
# Poissons Ratio (z) = 0.13733 0.55960
#
# Static dielectric constant tensor:
#      x y z
#    x 3.007370 0.000000 0.000000 
#    y 0.000000 3.202820 0.000000 
#    z 0.000000 0.000000 3.653820 
# 
# 
# High freq. dielectric constant tensor:
#      x y z
#    x 1.682850 0.000000 0.000000 
#    y 0.000000 1.782660 0.000000 
#    z 0.000000 0.000000 1.771390 
# 
# From -- ./inp_files/10188.got.cif
#   From: 2010.03.12/outbox.cif.g09.slc.cpg/sg65_6_cif.got.tgz:10188.got - 2010.04.10 20:52:16.
