data_PCOD8274667
_publ_section_title
;
Structure prediction by ZEFSAII (Michael W. Deem and Ramdas Pophale) SiO2 
 PCOD8274667
Probable space group: C M M M
;
_chemical_formula_sum "Si O2"
_cell_formula_units_Z 72
_cell_length_a 18.435538
_cell_length_b 9.155539
_cell_length_c 23.563170
_cell_angle_alpha 90.000000
_cell_angle_beta 90.000000
_cell_angle_gamma 90.000000
_cell_volume 3977.163541
_symmetry_space_group_name_H-M "C M M M"
_symmetry_group_IT_number 65
_symmetry_cell_setting 'orthorhombic'
loop_
_space_group_symop_operation_xyz
x,y,z
-x,-y,z
x,-y,-z
-x,y,-z
-x,-y,-z
x,y,-z
-x,y,z
x,-y,z
1/2+x,1/2+y,z
1/2-x,1/2-y,z
1/2+x,1/2-y,-z
1/2-x,1/2+y,-z
1/2-x,1/2-y,-z
1/2+x,1/2+y,-z
1/2-x,1/2+y,z
1/2+x,1/2-y,z
loop_
_atom_site_type_symbol
_atom_site_label
_atom_site_fract_x
_atom_site_fract_y
_atom_site_fract_z
Si Si1 0.913808 0.834932 0.938056
Si Si2 0.914485 0.158863 0.500000
Si Si3 0.417574 0.828721 0.829246
Si Si4 0.584298 0.326864 0.376806
Si Si5 0.173167 0.673762 0.279886
O O1 0.882568 0.739052 0.886426
O O2 0.000000 0.825988 0.937476
O O3 0.887356 0.000000 0.928671
O O4 0.886020 0.778508 0.000000
O O5 0.893406 0.234319 0.440036
O O6 0.000000 0.136580 0.500000
O O7 0.877242 0.000000 0.500000
O O8 0.500000 0.773828 0.819652
O O9 0.371168 0.777858 0.775611
O O10 0.415259 0.000000 0.837237
O O11 0.500000 0.296202 0.364267
O O12 0.600568 0.500000 0.371454
O O13 0.631494 0.232565 0.334371
O O14 0.181729 0.500000 0.284441
O O15 0.250000 0.750000 0.275950
#
# Coordination Sequence:
#
# PCOD8274667 Si02
#       5
#    16   8  16  16  16
#     4   8  14  25  43  70 101 127 153 191 238 287
#     4   7  12  26  50  79 106 129 157 197 242 291
#     4   9  18  32  50  72  97 126 160 200 247 296
#     4   9  17  32  56  82 105 131 164 201 245 298
#     4  11  23  37  51  70 100 135 172 213 254 296
#
# _framework density 18.103355000000001
#
# number of rings (size 3 to 8) (size 9 to 14) (size 15 to 20)
#    0.000    3.000    0.000    3.333    0.000    3.556 
#    0.000    5.556    0.000    2.667    0.000    0.000 
#    0.000    0.000    0.000    0.000    0.000    0.000 
#
# Total GULP energy -446044.591651 kJ/mol
# GULP energy per Si atom -12390.127546 kJ/mol
# Density = 1.806215 g / cm^3
# Si number density = 18.103355 Si / 1000 Ang^3
#
#
#
# Elastic Constant Matrix: (Units=GPa)
#
#
# Indices 1 2 3 4 5 6 
#
# 1 72.1974 38.6064 69.0628 0.0000 0.0000 0.0000
# 2 38.6064 52.7771 63.6829 0.0000 0.0000 0.0000
# 3 69.0628 63.6829 205.0199 0.0000 0.0000 0.0000
# 4 0.0000 0.0000 0.0000 28.3820 0.0000 0.0000
# 5 0.0000 0.0000 0.0000 0.0000 -2.7155 0.0000
# 6 0.0000 0.0000 0.0000 0.0000 0.0000 -42.1842
#
#
#
# Elastic Compliance Matrix: (Units=1/GPa)
#
#
# Indices 1 2 3 4 5 6 
#
# 1 0.024991 -0.012992 -0.004383 0.000000 0.000000 0.000000
# 2 -0.012992 0.037061 -0.007135 0.000000 0.000000 0.000000
# 3 -0.004383 -0.007135 0.008570 0.000000 0.000000 0.000000
# 4 0.000000 0.000000 0.000000 0.035234 0.000000 0.000000
# 5 0.000000 0.000000 0.000000 0.000000 -0.368259 0.000000
# 6 0.000000 0.000000 0.000000 0.000000 0.000000 -0.023706
#
#
# Mechanical properties :
#
#
# Convention : Reuss Voigt Hill
#
# Bulk Modulus (GPa) = 46.29303 74.74430 60.51866
# Shear Modulus (GPa) = -21.74978 7.27263 -7.23858
#
# Velocity S-wave (km/s) = -3.46991 2.00649 -2.00179
# Velocity P-wave (km/s) = 3.09407 6.83704 5.30653
#
# Compressibility (1/GPa) = 0.02160153
#
# Stress axis : x y z
#
# Youngs Moduli (GPa) = 40.01474 26.98236 116.68243
#
# Poissons Ratio (x) = 0.35057 0.51138
# Poissons Ratio (y) = 0.51989 0.83256
# Poissons Ratio (z) = 0.17537 0.19253
#
# Static dielectric constant tensor:
#      x y z
#    x 3.037430 0.000000 0.000000 
#    y 0.000000 3.185190 0.000000 
#    z 0.000000 0.000000 3.940790 
# 
# 
# High freq. dielectric constant tensor:
#      x y z
#    x 1.658620 0.000000 0.000000 
#    y 0.000000 1.683400 0.000000 
#    z 0.000000 0.000000 1.728030 
# 
# From -- ./inp_files/67102.got.cif
#   From: 2010.03.12/outbox.cif.g09.slc.cpg/sg65_34_cif.got.tgz:67102.got - 2010.04.10 20:52:16.
