data_PCOD8274012
_publ_section_title
;
Structure prediction by ZEFSAII (Michael W. Deem and Ramdas Pophale) SiO2 
 PCOD8274012
Probable space group: C M M M
;
_chemical_formula_sum "Si O2"
_cell_formula_units_Z 80
_cell_length_a 16.831849
_cell_length_b 28.374268
_cell_length_c 8.419780
_cell_angle_alpha 90.000000
_cell_angle_beta 90.000000
_cell_angle_gamma 90.000000
_cell_volume 4021.214471
_symmetry_space_group_name_H-M "C M M M"
_symmetry_group_IT_number 65
_symmetry_cell_setting 'orthorhombic'
loop_
_space_group_symop_operation_xyz
x,y,z
-x,-y,z
x,-y,-z
-x,y,-z
-x,-y,-z
x,y,-z
-x,y,z
x,-y,z
1/2+x,1/2+y,z
1/2-x,1/2-y,z
1/2+x,1/2-y,-z
1/2-x,1/2+y,-z
1/2-x,1/2-y,-z
1/2+x,1/2+y,-z
1/2-x,1/2+y,z
1/2+x,1/2-y,z
loop_
_atom_site_type_symbol
_atom_site_label
_atom_site_fract_x
_atom_site_fract_y
_atom_site_fract_z
Si Si1 0.500000 0.574091 0.316923
Si Si2 0.348583 0.285156 0.315436
Si Si3 0.734253 0.139467 0.814403
Si Si4 0.162479 0.051524 0.816347
Si Si5 0.000000 0.170239 0.181660
Si Si6 0.410154 0.185232 0.687571
O O1 0.500000 0.590865 0.500000
O O2 0.419014 0.545963 0.282870
O O3 0.500000 0.614487 0.183790
O O4 0.325848 0.284048 0.500000
O O5 0.276857 0.310910 0.225523
O O6 0.425795 0.315176 0.284940
O O7 0.367235 0.232894 0.249503
O O8 0.781509 0.093635 0.746677
O O9 0.645019 0.141464 0.741758
O O10 0.725550 0.133744 0.000000
O O11 0.204945 0.000000 0.800717
O O12 0.143190 0.062782 0.000000
O O13 0.000000 0.189046 0.000000
O O14 0.416492 0.187046 0.500000
O O15 0.500000 0.180901 0.758186
#
# Coordination Sequence:
#
# PCOD8274012 Si02
#       6
#     8  16  16  16   8  16
#     4  12  23  35  56  85 116 152 192 233 275 331
#     4  11  21  37  58  82 114 155 192 227 273 332
#     4  11  23  37  57  86 114 146 189 235 281 333
#     4  10  22  40  59  80 113 153 188 231 287 339
#     4  12  22  33  53  82 118 157 191 231 276 323
#     4  10  22  40  59  81 112 151 189 228 284 341
#
# _framework density 19.894487999999999
#
# number of rings (size 3 to 8) (size 9 to 14) (size 15 to 20)
#    0.000    1.200    3.000    3.900    0.000    6.800 
#    0.000    0.000    0.000    0.600    0.000    4.200 
#    0.000    0.000    0.000    0.000    0.000    0.000 
#
# Total GULP energy -495719.231399 kJ/mol
# GULP energy per Si atom -12392.980785 kJ/mol
# Density = 1.984921 g / cm^3
# Si number density = 19.894488 Si / 1000 Ang^3
#
#
#
# Elastic Constant Matrix: (Units=GPa)
#
#
# Indices 1 2 3 4 5 6 
#
# 1 134.2956 76.9706 16.6728 0.0000 0.0000 0.0000
# 2 76.9706 100.0114 23.0531 0.0000 0.0000 0.0000
# 3 16.6728 23.0531 37.7648 0.0000 0.0000 0.0000
# 4 0.0000 0.0000 0.0000 20.9980 0.0000 0.0000
# 5 0.0000 0.0000 0.0000 0.0000 29.6527 0.0000
# 6 0.0000 0.0000 0.0000 0.0000 0.0000 19.1244
#
#
#
# Elastic Compliance Matrix: (Units=1/GPa)
#
#
# Indices 1 2 3 4 5 6 
#
# 1 0.013329 -0.010360 0.000439 0.000000 0.000000 0.000000
# 2 -0.010360 0.019688 -0.007445 0.000000 0.000000 0.000000
# 3 0.000439 -0.007445 0.030830 0.000000 0.000000 0.000000
# 4 0.000000 0.000000 0.000000 0.047623 0.000000 0.000000
# 5 0.000000 0.000000 0.000000 0.000000 0.033724 0.000000
# 6 0.000000 0.000000 0.000000 0.000000 0.000000 0.052289
#
#
# Mechanical properties :
#
#
# Convention : Reuss Voigt Hill
#
# Bulk Modulus (GPa) = 34.34380 56.16277 45.25328
# Shear Modulus (GPa) = 20.66799 24.31338 22.49069
#
# Velocity S-wave (km/s) = 3.22666 3.49967 3.36594
# Velocity P-wave (km/s) = 5.58411 6.67996 6.15646
#
# Compressibility (1/GPa) = 0.02911734
#
# Stress axis : x y z
#
# Youngs Moduli (GPa) = 75.02240 50.79257 32.43566
#
# Poissons Ratio (x) = 0.52620 -0.01425
# Poissons Ratio (y) = 0.77721 0.24147
# Poissons Ratio (z) = -0.03295 0.37813
#
# Static dielectric constant tensor:
#      x y z
#    x 3.839000 0.000000 0.000000 
#    y 0.000000 3.727410 0.000000 
#    z 0.000000 0.000000 3.389910 
# 
# 
# High freq. dielectric constant tensor:
#      x y z
#    x 1.771930 0.000000 0.000000 
#    y 0.000000 1.762080 0.000000 
#    z 0.000000 0.000000 1.766390 
# 
# From -- ./inp_files/9745.got.cif
#   From: 2010.03.12/outbox.cif.g09.slc.cpg/sg65_5_cif.got.tgz:9745.got - 2010.04.10 20:52:16.
