data_PCOD8274599
_publ_section_title
;
Structure prediction by ZEFSAII (Michael W. Deem and Ramdas Pophale) SiO2 
 PCOD8274599
Probable space group: C M M M
;
_chemical_formula_sum "Si O2"
_cell_formula_units_Z 64
_cell_length_a 21.514563
_cell_length_b 8.337050
_cell_length_c 17.288430
_cell_angle_alpha 90.000000
_cell_angle_beta 90.000000
_cell_angle_gamma 90.000000
_cell_volume 3100.990895
_symmetry_space_group_name_H-M "C M M M"
_symmetry_group_IT_number 65
_symmetry_cell_setting 'orthorhombic'
loop_
_space_group_symop_operation_xyz
x,y,z
-x,-y,z
x,-y,-z
-x,y,-z
-x,-y,-z
x,y,-z
-x,y,z
x,-y,z
1/2+x,1/2+y,z
1/2-x,1/2-y,z
1/2+x,1/2-y,-z
1/2-x,1/2+y,-z
1/2-x,1/2-y,-z
1/2+x,1/2+y,-z
1/2-x,1/2+y,z
1/2+x,1/2-y,z
loop_
_atom_site_type_symbol
_atom_site_label
_atom_site_fract_x
_atom_site_fract_y
_atom_site_fract_z
Si Si1 0.069240 0.190677 0.412301
Si Si2 0.626962 0.186524 0.155178
Si Si3 0.817909 0.808945 0.000000
Si Si4 0.681340 0.314188 0.308441
Si Si5 0.000000 0.689675 0.911425
O O1 0.080876 0.248029 0.500000
O O2 0.125484 0.263666 0.360224
O O3 0.000000 0.250355 0.385085
O O4 0.070323 0.000000 0.407298
O O5 0.654901 0.222512 0.073239
O O6 0.663892 0.285806 0.219439
O O7 0.556417 0.245494 0.143276
O O8 0.632478 0.000000 0.176815
O O9 0.750000 0.750000 0.000000
O O10 0.827400 0.000000 0.000000
O O11 0.684363 0.500000 0.326116
O O12 0.750000 0.250000 0.329054
O O13 0.000000 0.500000 0.922555
O O14 0.000000 0.764069 0.000000
#
# Coordination Sequence:
#
# PCOD8274599 Si02
#       5
#    16  16   8  16   8
#     4   8  16  34  60  88 118 153 193 239 292 348
#     4  11  22  39  60  83 115 153 192 235 289 351
#     4  12  24  39  58  81 109 148 194 242 291 340
#     4  11  23  38  58  87 121 155 197 245 293 346
#     4   9  18  36  60  84 109 144 187 233 292 352
#
# _framework density 20.638563000000001
#
# number of rings (size 3 to 8) (size 9 to 14) (size 15 to 20)
#    0.000    1.875    1.250    4.125    1.750    0.500 
#    0.000    2.500    0.000    2.250    0.000    7.000 
#    0.000    0.000    0.000    0.000    0.000    0.000 
#
# Total GULP energy -396481.557670 kJ/mol
# GULP energy per Si atom -12390.048677 kJ/mol
# Density = 2.059159 g / cm^3
# Si number density = 20.638563 Si / 1000 Ang^3
#
#
#
# Elastic Constant Matrix: (Units=GPa)
#
#
# Indices 1 2 3 4 5 6 
#
# 1 204.9175 20.6852 73.4734 0.0000 0.0000 0.0000
# 2 20.6852 26.9171 1.9256 0.0000 0.0000 0.0000
# 3 73.4734 1.9256 108.5086 0.0000 0.0000 0.0000
# 4 0.0000 0.0000 0.0000 -6.5324 0.0000 0.0000
# 5 0.0000 0.0000 0.0000 0.0000 -13.2829 0.0000
# 6 0.0000 0.0000 0.0000 0.0000 0.0000 13.4400
#
#
#
# Elastic Compliance Matrix: (Units=1/GPa)
#
#
# Indices 1 2 3 4 5 6 
#
# 1 0.007082 -0.005106 -0.004705 0.000000 0.000000 0.000000
# 2 -0.005106 0.040880 0.002732 0.000000 0.000000 0.000000
# 3 -0.004705 0.002732 0.012353 0.000000 0.000000 0.000000
# 4 0.000000 0.000000 0.000000 -0.153083 0.000000 0.000000
# 5 0.000000 0.000000 0.000000 0.000000 -0.075285 0.000000
# 6 0.000000 0.000000 0.000000 0.000000 0.000000 0.074405
#
#
# Mechanical properties :
#
#
# Convention : Reuss Voigt Hill
#
# Bulk Modulus (GPa) = 21.66518 59.16795 40.41656
# Shear Modulus (GPa) = -77.99782 15.00888 -31.49447
#
# Velocity S-wave (km/s) = -6.15421 2.69964 -3.91064
# Velocity P-wave (km/s) = 6.32288 6.20067 0.87482
#
# Compressibility (1/GPa) = 0.04615702
#
# Stress axis : x y z
#
# Youngs Moduli (GPa) = 141.19405 24.46206 80.95019
#
# Poissons Ratio (x) = 0.12491 0.38088
# Poissons Ratio (y) = 0.72095 -0.22116
# Poissons Ratio (z) = 0.66433 -0.06683
#
# Static dielectric constant tensor:
#      x y z
#    x 5.051050 0.000000 0.000000 
#    y 0.000000 3.571460 0.000000 
#    z 0.000000 0.000000 3.734620 
# 
# 
# High freq. dielectric constant tensor:
#      x y z
#    x 1.834540 0.000000 0.000000 
#    y 0.000000 1.773140 0.000000 
#    z 0.000000 0.000000 1.804900 
# 
# From -- ./inp_files/55296.got.cif
#   From: 2010.03.12/outbox.cif.g09.slc.cpg/sg65_28_cif.got.tgz:55296.got - 2010.04.10 20:52:16.
