data_PCOD8274506
_publ_section_title
;
Structure prediction by ZEFSAII (Michael W. Deem and Ramdas Pophale) SiO2 
 PCOD8274506
Probable space group: C M M M
;
_chemical_formula_sum "Si O2"
_cell_formula_units_Z 88
_cell_length_a 9.006265
_cell_length_b 30.073766
_cell_length_c 17.797910
_cell_angle_alpha 90.000000
_cell_angle_beta 90.000000
_cell_angle_gamma 90.000000
_cell_volume 4820.604968
_symmetry_space_group_name_H-M "C M M M"
_symmetry_group_IT_number 65
_symmetry_cell_setting 'orthorhombic'
loop_
_space_group_symop_operation_xyz
x,y,z
-x,-y,z
x,-y,-z
-x,y,-z
-x,-y,-z
x,y,-z
-x,y,z
x,-y,z
1/2+x,1/2+y,z
1/2-x,1/2-y,z
1/2+x,1/2-y,-z
1/2-x,1/2+y,-z
1/2-x,1/2-y,-z
1/2+x,1/2+y,-z
1/2-x,1/2+y,z
1/2+x,1/2-y,z
loop_
_atom_site_type_symbol
_atom_site_label
_atom_site_fract_x
_atom_site_fract_y
_atom_site_fract_z
Si Si1 0.676440 0.549541 0.585009
Si Si2 0.323589 0.205186 0.233286
Si Si3 0.667925 0.378106 0.299270
Si Si4 0.336883 0.581686 0.137604
Si Si5 0.826956 0.500000 0.917620
Si Si6 0.172627 0.176568 0.084391
O O1 0.728069 0.559427 0.500000
O O2 0.500000 0.549664 0.591197
O O3 0.733626 0.500000 0.609258
O O4 0.738932 0.589311 0.637443
O O5 0.500000 0.208177 0.236443
O O6 0.250000 0.250000 0.265682
O O7 0.269488 0.165209 0.286927
O O8 0.273803 0.200644 0.146092
O O9 0.500000 0.362938 0.320399
O O10 0.664560 0.406367 0.224258
O O11 0.500000 0.564185 0.114482
O O12 0.217726 0.543662 0.126978
O O13 0.294243 0.624037 0.086958
O O14 0.000000 0.500000 0.925449
O O15 0.751994 0.500000 0.000000
O O16 0.000000 0.185394 0.104888
O O17 0.210343 0.193694 0.000000
#
# Coordination Sequence:
#
# PCOD8274506 Si02
#       6
#    16  16  16  16   8  16
#     4   8  14  26  50  85 117 142 170 206 248 297
#     4  11  22  36  54  75 102 134 174 217 263 313
#     4   9  18  33  54  78 106 136 170 211 255 303
#     4   9  18  31  48  68  91 126 169 208 249 299
#     4  11  23  33  41  59  90 127 168 216 261 297
#     4   9  18  34  54  74  97 126 165 214 266 317
#
# _framework density 18.254968999999999
#
# number of rings (size 3 to 8) (size 9 to 14) (size 15 to 20)
#    0.000    2.636    0.000    4.091    1.273    5.091 
#    0.000    0.000    0.000    1.091    0.000    1.273 
#    0.000    0.000    0.000    0.000    0.000    0.000 
#
# Total GULP energy -545401.896691 kJ/mol
# GULP energy per Si atom -12395.497652 kJ/mol
# Density = 1.821342 g / cm^3
# Si number density = 18.254969 Si / 1000 Ang^3
#
#
#
# Elastic Constant Matrix: (Units=GPa)
#
#
# Indices 1 2 3 4 5 6 
#
# 1 85.9659 55.9100 24.1897 0.0000 0.0000 0.0000
# 2 55.9100 127.8681 53.3886 0.0000 0.0000 0.0000
# 3 24.1897 53.3886 79.2748 0.0000 0.0000 0.0000
# 4 0.0000 0.0000 0.0000 11.7294 0.0000 0.0000
# 5 0.0000 0.0000 0.0000 0.0000 14.3548 0.0000
# 6 0.0000 0.0000 0.0000 0.0000 0.0000 27.9044
#
#
#
# Elastic Compliance Matrix: (Units=1/GPa)
#
#
# Indices 1 2 3 4 5 6 
#
# 1 0.016258 -0.007008 -0.000241 0.000000 0.000000 0.000000
# 2 -0.007008 0.013901 -0.007223 0.000000 0.000000 0.000000
# 3 -0.000241 -0.007223 0.017553 0.000000 0.000000 0.000000
# 4 0.000000 0.000000 0.000000 0.085256 0.000000 0.000000
# 5 0.000000 0.000000 0.000000 0.000000 0.069663 0.000000
# 6 0.000000 0.000000 0.000000 0.000000 0.000000 0.035837
#
#
# Mechanical properties :
#
#
# Convention : Reuss Voigt Hill
#
# Bulk Modulus (GPa) = 53.28690 62.23172 57.75931
# Shear Modulus (GPa) = 18.27032 21.43909 19.85471
#
# Velocity S-wave (km/s) = 3.16704 3.43071 3.30151
# Velocity P-wave (km/s) = 6.52895 7.06097 6.80017
#
# Compressibility (1/GPa) = 0.01876634
#
# Stress axis : x y z
#
# Youngs Moduli (GPa) = 61.50686 71.93851 56.97185
#
# Poissons Ratio (x) = 0.50416 0.01375
# Poissons Ratio (y) = 0.43105 0.41152
# Poissons Ratio (z) = 0.01484 0.51963
#
# Static dielectric constant tensor:
#      x y z
#    x 3.107490 0.000000 0.000000 
#    y 0.000000 3.467840 0.000000 
#    z 0.000000 0.000000 3.375840 
# 
# 
# High freq. dielectric constant tensor:
#      x y z
#    x 1.680480 0.000000 0.000000 
#    y 0.000000 1.711660 0.000000 
#    z 0.000000 0.000000 1.689230 
# 
# From -- ./inp_files/50304.got.cif
#   From: 2010.03.12/outbox.cif.g09.slc.cpg/sg65_26_cif.got.tgz:50304.got - 2010.04.10 20:52:16.
