data_PCOD8274411
_publ_section_title
;
Structure prediction by ZEFSAII (Michael W. Deem and Ramdas Pophale) SiO2 
 PCOD8274411
Probable space group: C M M M
;
_chemical_formula_sum "Si O2"
_cell_formula_units_Z 88
_cell_length_a 15.500394
_cell_length_b 11.979817
_cell_length_c 25.075295
_cell_angle_alpha 90.000000
_cell_angle_beta 90.000000
_cell_angle_gamma 90.000000
_cell_volume 4656.278759
_symmetry_space_group_name_H-M "C M M M"
_symmetry_group_IT_number 65
_symmetry_cell_setting 'orthorhombic'
loop_
_space_group_symop_operation_xyz
x,y,z
-x,-y,z
x,-y,-z
-x,y,-z
-x,-y,-z
x,y,-z
-x,y,z
x,-y,z
1/2+x,1/2+y,z
1/2-x,1/2-y,z
1/2+x,1/2-y,-z
1/2-x,1/2+y,-z
1/2-x,1/2-y,-z
1/2+x,1/2+y,-z
1/2-x,1/2+y,z
1/2+x,1/2-y,z
loop_
_atom_site_type_symbol
_atom_site_label
_atom_site_fract_x
_atom_site_fract_y
_atom_site_fract_z
Si Si1 0.094457 0.500000 0.336170
Si Si2 0.397981 0.126654 0.059398
Si Si3 0.093968 0.500000 0.211492
Si Si4 0.500000 0.632399 0.340784
Si Si5 0.151577 0.719830 0.387901
Si Si6 0.000000 0.868146 0.214846
Si Si7 0.398117 0.127365 0.500000
Si Si8 0.152476 0.274568 0.165258
O O1 0.084478 0.500000 0.273917
O O2 0.143765 0.609015 0.353659
O O3 0.000000 0.500000 0.363924
O O4 0.500000 0.135482 0.061894
O O5 0.358493 0.213807 0.101434
O O6 0.369159 0.000000 0.073465
O O7 0.365378 0.158575 0.000000
O O8 0.142296 0.391526 0.193459
O O9 0.000000 0.500000 0.183927
O O10 0.500000 0.500000 0.351895
O O11 0.414066 0.685173 0.366922
O O12 0.500000 0.658764 0.277741
O O13 0.250000 0.750000 0.379006
O O14 0.134942 0.696057 0.449627
O O15 0.914051 0.816462 0.188413
O O16 0.000000 0.000000 0.203831
O O17 0.500000 0.123936 0.500000
O O18 0.361821 0.000000 0.500000
O O19 0.250000 0.250000 0.179777
#
# Coordination Sequence:
#
# PCOD8274411 Si02
#       8
#     8  16   8   8  16   8   8  16
#     4  11  22  41  68  95 126 165 219 264 315 367
#     4   9  17  34  63  93 120 157 206 263 321 374
#     4  11  22  40  66  93 123 167 217 270 310 366
#     4  11  26  46  64  88 133 173 208 253 313 378
#     4  12  25  43  67 100 128 165 210 262 316 377
#     4  11  26  45  61  87 129 178 209 247 316 380
#     4  11  21  42  72  97 125 162 211 263 318 371
#     4  12  24  39  64  93 129 163 211 268 314 371
#
# _framework density 18.899213
#
# number of rings (size 3 to 8) (size 9 to 14) (size 15 to 20)
#    0.000    1.000    5.455    1.909    2.545    3.273 
#    0.000    0.909    0.000    1.091    0.000    0.000 
#    0.000    0.000    0.000    0.000    0.000    0.000 
#
# Total GULP energy -545542.225770 kJ/mol
# GULP energy per Si atom -12398.686949 kJ/mol
# Density = 1.885620 g / cm^3
# Si number density = 18.899213 Si / 1000 Ang^3
#
#
#
# Elastic Constant Matrix: (Units=GPa)
#
#
# Indices 1 2 3 4 5 6 
#
# 1 164.6419 76.1601 57.8007 0.0000 0.0000 0.0000
# 2 76.1601 143.5030 63.9880 0.0000 0.0000 0.0000
# 3 57.8007 63.9880 124.6488 0.0000 0.0000 0.0000
# 4 0.0000 0.0000 0.0000 37.1022 0.0000 0.0000
# 5 0.0000 0.0000 0.0000 0.0000 -0.1296 0.0000
# 6 0.0000 0.0000 0.0000 0.0000 0.0000 33.0631
#
#
#
# Elastic Compliance Matrix: (Units=1/GPa)
#
#
# Indices 1 2 3 4 5 6 
#
# 1 0.008452 -0.003551 -0.002097 0.000000 0.000000 0.000000
# 2 -0.003551 0.010529 -0.003758 0.000000 0.000000 0.000000
# 3 -0.002097 -0.003758 0.010924 0.000000 0.000000 0.000000
# 4 0.000000 0.000000 0.000000 0.026953 0.000000 0.000000
# 5 0.000000 0.000000 0.000000 0.000000 -7.713800 0.000000
# 6 0.000000 0.000000 0.000000 0.000000 0.000000 0.030245
#
#
# Mechanical properties :
#
#
# Convention : Reuss Voigt Hill
#
# Bulk Modulus (GPa) = 90.14228 92.07681 91.10955
# Shear Modulus (GPa) = -0.65753 29.66346 14.50296
#
# Velocity S-wave (km/s) = -0.59048 3.96607 2.77318
# Velocity P-wave (km/s) = 6.88004 8.35455 7.65289
#
# Compressibility (1/GPa) = 0.01109357
#
# Stress axis : x y z
#
# Youngs Moduli (GPa) = 118.30860 94.97616 91.54100
#
# Poissons Ratio (x) = 0.33726 0.19192
# Poissons Ratio (y) = 0.42012 0.34404
# Poissons Ratio (z) = 0.24804 0.35695
#
# Static dielectric constant tensor:
#      x y z
#    x 3.343060 0.000000 0.000000 
#    y 0.000000 3.359230 0.000000 
#    z 0.000000 0.000000 3.747040 
# 
# 
# High freq. dielectric constant tensor:
#      x y z
#    x 1.730140 0.000000 0.000000 
#    y 0.000000 1.733420 0.000000 
#    z 0.000000 0.000000 1.756000 
# 
# From -- ./inp_files/69856.got.cif
#   From: 2010.03.12/outbox.cif.g09.slc.cpg/sg65_35_cif.got.tgz:69856.got - 2010.04.10 20:52:16.
