data_PCOD8274215
_publ_section_title
;
Structure prediction by ZEFSAII (Michael W. Deem and Ramdas Pophale) SiO2 
 PCOD8274215
Probable space group: C M M M
;
_chemical_formula_sum "Si O2"
_cell_formula_units_Z 104
_cell_length_a 28.594756
_cell_length_b 24.075248
_cell_length_c 9.082229
_cell_angle_alpha 90.000000
_cell_angle_beta 90.000000
_cell_angle_gamma 90.000000
_cell_volume 6252.441148
_symmetry_space_group_name_H-M "C M M M"
_symmetry_group_IT_number 65
_symmetry_cell_setting 'orthorhombic'
loop_
_space_group_symop_operation_xyz
x,y,z
-x,-y,z
x,-y,-z
-x,y,-z
-x,-y,-z
x,y,-z
-x,y,z
x,-y,z
1/2+x,1/2+y,z
1/2-x,1/2-y,z
1/2+x,1/2-y,-z
1/2-x,1/2+y,-z
1/2-x,1/2-y,-z
1/2+x,1/2+y,-z
1/2-x,1/2+y,z
1/2+x,1/2-y,z
loop_
_atom_site_type_symbol
_atom_site_label
_atom_site_fract_x
_atom_site_fract_y
_atom_site_fract_z
Si Si1 0.051734 0.356264 0.175203
Si Si2 0.175510 0.938231 0.325062
Si Si3 0.084820 0.873637 0.674633
Si Si4 0.868254 0.436675 0.174006
Si Si5 0.500000 0.565598 0.170992
Si Si6 0.277165 0.933921 0.663609
Si Si7 0.054756 0.768479 0.831945
O O1 0.089362 0.399751 0.238826
O O2 0.065275 0.293891 0.224172
O O3 0.000000 0.371849 0.235820
O O4 0.050465 0.358407 0.000000
O O5 0.177198 0.942120 0.500000
O O6 0.134943 0.896915 0.272768
O O7 0.226420 0.915240 0.271839
O O8 0.165673 0.000000 0.260645
O O9 0.077970 0.877502 0.500000
O O10 0.045682 0.910214 0.752510
O O11 0.082775 0.809924 0.726155
O O12 0.876656 0.500000 0.225872
O O13 0.819308 0.412469 0.234186
O O14 0.866298 0.432437 0.000000
O O15 0.500000 0.500000 0.192149
O O16 0.500000 0.583006 0.000000
O O17 0.285194 0.909607 0.500000
O O18 0.276903 0.000000 0.658232
O O19 0.000000 0.781968 0.819750
O O20 0.071567 0.776365 0.000000
#
# Coordination Sequence:
#
# PCOD8274215 Si02
#       7
#    16  16  16  16   8  16  16
#     4   8  15  28  46  67  91 124 157 181 217 269
#     4   8  15  28  45  65  88 115 148 185 226 274
#     4  11  20  30  48  70  90 114 151 199 239 267
#     4   9  16  26  44  72  99 117 143 187 228 263
#     4  11  23  35  45  63  95 129 154 179 224 285
#     4   8  14  27  46  64  86 119 152 177 214 275
#     4   9  17  31  48  62  84 120 159 190 221 271
#
# _framework density 16.633503000000001
#
# number of rings (size 3 to 8) (size 9 to 14) (size 15 to 20)
#    0.000    3.000    0.769    3.000    0.000    1.538 
#    0.000    3.846    0.000    6.000    0.000    8.615 
#    0.000    0.000    0.000    0.000    0.000    0.000 
#
# Total GULP energy -644513.520860 kJ/mol
# GULP energy per Si atom -12394.490786 kJ/mol
# Density = 1.659564 g / cm^3
# Si number density = 16.633503 Si / 1000 Ang^3
#
#
#
# Elastic Constant Matrix: (Units=GPa)
#
#
# Indices 1 2 3 4 5 6 
#
# 1 157.8290 77.7431 38.5678 0.0000 0.0000 0.0000
# 2 77.7431 90.1358 29.9865 0.0000 0.0000 0.0000
# 3 38.5678 29.9865 42.4152 0.0000 0.0000 0.0000
# 4 0.0000 0.0000 0.0000 15.9816 0.0000 0.0000
# 5 0.0000 0.0000 0.0000 0.0000 20.8827 0.0000
# 6 0.0000 0.0000 0.0000 0.0000 0.0000 14.7670
#
#
#
# Elastic Compliance Matrix: (Units=1/GPa)
#
#
# Indices 1 2 3 4 5 6 
#
# 1 0.011655 -0.008534 -0.004564 0.000000 0.000000 0.000000
# 2 -0.008534 0.020755 -0.006913 0.000000 0.000000 0.000000
# 3 -0.004564 -0.006913 0.032614 0.000000 0.000000 0.000000
# 4 0.000000 0.000000 0.000000 0.062572 0.000000 0.000000
# 5 0.000000 0.000000 0.000000 0.000000 0.047887 0.000000
# 6 0.000000 0.000000 0.000000 0.000000 0.000000 0.067719
#
#
# Mechanical properties :
#
#
# Convention : Reuss Voigt Hill
#
# Bulk Modulus (GPa) = 39.99877 64.77499 52.38688
# Shear Modulus (GPa) = 17.14919 19.93177 18.54048
#
# Velocity S-wave (km/s) = 3.21441 3.46539 3.34225
# Velocity P-wave (km/s) = 6.15434 7.41882 6.81597
#
# Compressibility (1/GPa) = 0.02500077
#
# Stress axis : x y z
#
# Youngs Moduli (GPa) = 85.79948 48.18099 30.66127
#
# Poissons Ratio (x) = 0.41118 0.13995
# Poissons Ratio (y) = 0.73222 0.21197
# Poissons Ratio (z) = 0.39163 0.33309
#
# Static dielectric constant tensor:
#      x y z
#    x 3.530900 0.000000 0.000000 
#    y 0.000000 3.120700 0.000000 
#    z 0.000000 0.000000 2.897210 
# 
# 
# High freq. dielectric constant tensor:
#      x y z
#    x 1.643790 0.000000 0.000000 
#    y 0.000000 1.621610 0.000000 
#    z 0.000000 0.000000 1.612770 
# 
# From -- ./inp_files/15043.got.cif
#   From: 2010.03.12/outbox.cif.g09.slc.cpg/sg65_8_cif.got.tgz:15043.got - 2010.04.10 20:52:16.
