data_PCOD8274159
_publ_section_title
;
Structure prediction by ZEFSAII (Michael W. Deem and Ramdas Pophale) SiO2 
 PCOD8274159
Probable space group: C M M M
;
_chemical_formula_sum "Si O2"
_cell_formula_units_Z 72
_cell_length_a 25.173402
_cell_length_b 14.129989
_cell_length_c 12.648671
_cell_angle_alpha 90.000000
_cell_angle_beta 90.000000
_cell_angle_gamma 90.000000
_cell_volume 4499.130926
_symmetry_space_group_name_H-M "C M M M"
_symmetry_group_IT_number 65
_symmetry_cell_setting 'orthorhombic'
loop_
_space_group_symop_operation_xyz
x,y,z
-x,-y,z
x,-y,-z
-x,y,-z
-x,-y,-z
x,y,-z
-x,y,z
x,-y,z
1/2+x,1/2+y,z
1/2-x,1/2-y,z
1/2+x,1/2-y,-z
1/2-x,1/2+y,-z
1/2-x,1/2-y,-z
1/2+x,1/2+y,-z
1/2-x,1/2+y,z
1/2+x,1/2-y,z
loop_
_atom_site_type_symbol
_atom_site_label
_atom_site_fract_x
_atom_site_fract_y
_atom_site_fract_z
Si Si1 0.937144 0.109169 0.000000
Si Si2 0.270133 0.645481 0.885020
Si Si3 0.842696 0.397158 0.124508
Si Si4 0.378163 0.698926 0.804747
Si Si5 0.938655 0.891544 0.378777
O O1 0.916142 0.161198 0.896189
O O2 0.000000 0.118259 0.000000
O O3 0.919202 0.000000 0.000000
O O4 0.250000 0.750000 0.902878
O O5 0.219086 0.590486 0.838408
O O6 0.321383 0.644662 0.809055
O O7 0.287618 0.604159 0.000000
O O8 0.870021 0.500000 0.146598
O O9 0.872241 0.312920 0.186198
O O10 0.843778 0.372080 0.000000
O O11 0.403172 0.678009 0.691207
O O12 0.921857 0.876705 0.500000
O O13 0.000000 0.865034 0.362517
O O14 0.929031 0.000000 0.344166
#
# Coordination Sequence:
#
# PCOD8274159 Si02
#       5
#     8  16  16  16  16
#     4  11  22  30  40  67  99 119 140 186 252 297
#     4   8  14  26  42  66  96 124 155 187 220 266
#     4   9  17  29  46  69 100 134 162 186 217 270
#     4  11  17  30  49  70  96 125 155 191 233 282
#     4   9  19  35  52  69  89 118 159 200 238 285
#
# _framework density 16.003091999999999
#
# number of rings (size 3 to 8) (size 9 to 14) (size 15 to 20)
#    0.000    2.556    2.222    3.333    0.000    3.556 
#    0.000    0.000    0.000   10.000    0.000    1.556 
#    0.000    0.000    0.000    0.000    0.000    0.000 
#
# Total GULP energy -446065.568535 kJ/mol
# GULP energy per Si atom -12390.710237 kJ/mol
# Density = 1.596667 g / cm^3
# Si number density = 16.003092 Si / 1000 Ang^3
#
#
#
# Elastic Constant Matrix: (Units=GPa)
#
#
# Indices 1 2 3 4 5 6 
#
# 1 73.5418 42.4670 44.1842 0.0000 0.0000 0.0000
# 2 42.4670 108.5493 41.3991 0.0000 0.0000 0.0000
# 3 44.1842 41.3991 77.0261 0.0000 0.0000 0.0000
# 4 0.0000 0.0000 0.0000 19.0068 0.0000 0.0000
# 5 0.0000 0.0000 0.0000 0.0000 17.2716 0.0000
# 6 0.0000 0.0000 0.0000 0.0000 0.0000 20.0963
#
#
#
# Elastic Compliance Matrix: (Units=1/GPa)
#
#
# Indices 1 2 3 4 5 6 
#
# 1 0.022657 -0.004915 -0.010355 0.000000 0.000000 0.000000
# 2 -0.004915 0.012654 -0.003982 0.000000 0.000000 0.000000
# 3 -0.010355 -0.003982 0.021063 0.000000 0.000000 0.000000
# 4 0.000000 0.000000 0.000000 0.052613 0.000000 0.000000
# 5 0.000000 0.000000 0.000000 0.000000 0.057898 0.000000
# 6 0.000000 0.000000 0.000000 0.000000 0.000000 0.049760
#
#
# Mechanical properties :
#
#
# Convention : Reuss Voigt Hill
#
# Bulk Modulus (GPa) = 55.95908 57.24640 56.60274
# Shear Modulus (GPa) = 19.14935 20.01275 19.58105
#
# Velocity S-wave (km/s) = 3.46295 3.54016 3.50176
# Velocity P-wave (km/s) = 7.14373 7.24983 7.19698
#
# Compressibility (1/GPa) = 0.01787020
#
# Stress axis : x y z
#
# Youngs Moduli (GPa) = 44.13605 79.02809 47.47708
#
# Poissons Ratio (x) = 0.38840 0.49164
# Poissons Ratio (y) = 0.21691 0.18904
# Poissons Ratio (z) = 0.45704 0.31467
#
# Static dielectric constant tensor:
#      x y z
#    x 3.184140 0.000000 0.000000 
#    y 0.000000 2.617860 0.000000 
#    z 0.000000 0.000000 2.709900 
# 
# 
# High freq. dielectric constant tensor:
#      x y z
#    x 1.611260 0.000000 0.000000 
#    y 0.000000 1.615980 0.000000 
#    z 0.000000 0.000000 1.572230 
# 
# From -- ./inp_files/30307.got.cif
#   From: 2010.03.12/outbox.cif.g09.slc.cpg/sg65_16_cif.got.tgz:30307.got - 2010.04.10 20:52:16.
