data_PCOD8274826
_publ_section_title
;
Structure prediction by ZEFSAII (Michael W. Deem and Ramdas Pophale) SiO2 
 PCOD8274826
Probable space group: C M M M
;
_chemical_formula_sum "Si O2"
_cell_formula_units_Z 72
_cell_length_a 33.520708
_cell_length_b 14.408862
_cell_length_c 8.950789
_cell_angle_alpha 90.000000
_cell_angle_beta 90.000000
_cell_angle_gamma 90.000000
_cell_volume 4323.188622
_symmetry_space_group_name_H-M "C M M M"
_symmetry_group_IT_number 65
_symmetry_cell_setting 'orthorhombic'
loop_
_space_group_symop_operation_xyz
x,y,z
-x,-y,z
x,-y,-z
-x,y,-z
-x,-y,-z
x,y,-z
-x,y,z
x,-y,z
1/2+x,1/2+y,z
1/2-x,1/2-y,z
1/2+x,1/2-y,-z
1/2-x,1/2+y,-z
1/2-x,1/2-y,-z
1/2+x,1/2+y,-z
1/2-x,1/2+y,z
1/2+x,1/2-y,z
loop_
_atom_site_type_symbol
_atom_site_label
_atom_site_fract_x
_atom_site_fract_y
_atom_site_fract_z
Si Si1 0.777791 0.892618 0.829774
Si Si2 0.155587 0.220576 0.675224
Si Si3 0.913887 0.105626 0.821492
Si Si4 0.000000 0.109543 0.837383
Si Si5 0.185563 0.605304 0.826329
O O1 0.804024 0.832324 0.718416
O O2 0.731815 0.873760 0.792421
O O3 0.788520 0.000000 0.807106
O O4 0.787331 0.862825 0.000000
O O5 0.149509 0.216807 0.500000
O O6 0.117848 0.174382 0.752454
O O7 0.158248 0.327075 0.728307
O O8 0.957973 0.135817 0.757416
O O9 0.903730 0.000000 0.773441
O O10 0.913343 0.113562 0.000000
O O11 0.000000 0.000000 0.860292
O O12 0.000000 0.157689 0.000000
O O13 0.175113 0.500000 0.780941
O O14 0.176604 0.621915 0.000000
#
# Coordination Sequence:
#
# PCOD8274826 Si02
#       5
#    16  16  16   8  16
#     4   9  18  33  51  68  88 119 159 199 235 271
#     4  12  23  30  42  69 101 128 153 185 229 280
#     4   9  17  31  51  72  95 124 157 191 225 265
#     4   7  12  26  49  73  92 115 152 193 227 260
#     4   9  19  36  54  67  82 114 162 207 241 273
#
# _framework density 16.654373
#
# number of rings (size 3 to 8) (size 9 to 14) (size 15 to 20)
#    0.000    2.556    0.000    6.000    0.000    7.556 
#    0.000    2.778    0.000    2.000    0.000    0.778 
#    0.000    6.222    0.000    0.000    0.000    0.000 
#
# Total GULP energy -446215.972447 kJ/mol
# GULP energy per Si atom -12394.888124 kJ/mol
# Density = 1.661647 g / cm^3
# Si number density = 16.654373 Si / 1000 Ang^3
#
#
#
# Elastic Constant Matrix: (Units=GPa)
#
#
# Indices 1 2 3 4 5 6 
#
# 1 94.6484 64.7036 34.7785 0.0000 0.0000 0.0000
# 2 64.7036 90.9320 35.4559 0.0000 0.0000 0.0000
# 3 34.7785 35.4559 48.7755 0.0000 0.0000 0.0000
# 4 0.0000 0.0000 0.0000 2.4732 0.0000 0.0000
# 5 0.0000 0.0000 0.0000 0.0000 -3.6079 0.0000
# 6 0.0000 0.0000 0.0000 0.0000 0.0000 19.1905
#
#
#
# Elastic Compliance Matrix: (Units=1/GPa)
#
#
# Indices 1 2 3 4 5 6 
#
# 1 0.021740 -0.013153 -0.005940 0.000000 0.000000 0.000000
# 2 -0.013153 0.023305 -0.007562 0.000000 0.000000 0.000000
# 3 -0.005940 -0.007562 0.030235 0.000000 0.000000 0.000000
# 4 0.000000 0.000000 0.000000 0.404333 0.000000 0.000000
# 5 0.000000 0.000000 0.000000 0.000000 -0.277173 0.000000
# 6 0.000000 0.000000 0.000000 0.000000 0.000000 0.052109
#
#
# Mechanical properties :
#
#
# Convention : Reuss Voigt Hill
#
# Bulk Modulus (GPa) = 45.51909 56.02575 50.77242
# Shear Modulus (GPa) = 15.86385 10.23904 13.05144
#
# Velocity S-wave (km/s) = 3.08966 2.48220 2.80244
# Velocity P-wave (km/s) = 6.33395 6.47521 6.40497
#
# Compressibility (1/GPa) = 0.02196881
#
# Stress axis : x y z
#
# Youngs Moduli (GPa) = 45.99875 42.90904 33.07462
#
# Poissons Ratio (x) = 0.56438 0.19646
# Poissons Ratio (y) = 0.60502 0.25012
# Poissons Ratio (z) = 0.27323 0.32450
#
# Static dielectric constant tensor:
#      x y z
#    x 3.306420 0.000000 0.000000 
#    y 0.000000 3.098660 0.000000 
#    z 0.000000 0.000000 2.881410 
# 
# 
# High freq. dielectric constant tensor:
#      x y z
#    x 1.634100 0.000000 0.000000 
#    y 0.000000 1.628750 0.000000 
#    z 0.000000 0.000000 1.618470 
# 
# From -- ./inp_files/7196.got.cif
#   From: 2010.03.12/outbox.cif.g09.slc.cpg/sg65_4_cif.got.tgz:7196.got - 2010.04.10 20:52:16.
