data_PCOD8274152
_publ_section_title
;
Structure prediction by ZEFSAII (Michael W. Deem and Ramdas Pophale) SiO2 
 PCOD8274152
Probable space group: C M M M
;
_chemical_formula_sum "Si O2"
_cell_formula_units_Z 80
_cell_length_a 29.470306
_cell_length_b 19.478335
_cell_length_c 10.149921
_cell_angle_alpha 90.000000
_cell_angle_beta 90.000000
_cell_angle_gamma 90.000000
_cell_volume 5826.384454
_symmetry_space_group_name_H-M "C M M M"
_symmetry_group_IT_number 65
_symmetry_cell_setting 'orthorhombic'
loop_
_space_group_symop_operation_xyz
x,y,z
-x,-y,z
x,-y,-z
-x,y,-z
-x,-y,-z
x,y,-z
-x,y,z
x,-y,z
1/2+x,1/2+y,z
1/2-x,1/2-y,z
1/2+x,1/2-y,-z
1/2-x,1/2+y,-z
1/2-x,1/2-y,-z
1/2+x,1/2+y,-z
1/2-x,1/2+y,z
1/2+x,1/2-y,z
loop_
_atom_site_type_symbol
_atom_site_label
_atom_site_fract_x
_atom_site_fract_y
_atom_site_fract_z
Si Si1 0.768742 0.000000 0.147784
Si Si2 0.838358 0.500000 0.150273
Si Si3 0.771899 0.852311 0.843951
Si Si4 0.946340 0.581705 0.500000
Si Si5 0.447044 0.920767 0.000000
Si Si6 0.393827 0.876239 0.243797
Si Si7 0.179605 0.282087 0.156155
O O1 0.714947 0.000000 0.148573
O O2 0.784285 0.928010 0.216926
O O3 0.788223 0.000000 0.000000
O O4 0.855862 0.434412 0.229096
O O5 0.856837 0.500000 0.000000
O O6 0.811460 0.798044 0.809483
O O7 0.723108 0.825473 0.793259
O O8 0.766966 0.859828 0.000000
O O9 0.938419 0.500000 0.500000
O O10 0.922224 0.617109 0.623357
O O11 0.000000 0.598150 0.500000
O O12 0.429913 0.881283 0.127654
O O13 0.500000 0.915510 0.000000
O O14 0.431279 0.000000 0.000000
O O15 0.365767 0.804800 0.234429
O O16 0.172352 0.293338 0.000000
#
# Coordination Sequence:
#
# PCOD8274152 Si02
#       7
#     8   8  16   8   8  16  16
#     4   9  14  20  35  60  94 114 135 171 205 235
#     4  11  16  23  40  68  80 102 146 179 199 229
#     4   8  14  21  34  60  90 112 133 168 208 237
#     4  11  24  36  42  55  82 111 139 174 217 255
#     4  11  20  28  42  61  76  97 135 180 217 243
#     4  12  18  30  44  57  79 109 142 178 206 241
#     4   9  15  24  39  61  84 107 139 175 205 234
#
# _framework density 13.730642
#
# number of rings (size 3 to 8) (size 9 to 14) (size 15 to 20)
#    0.000    2.000    6.000    1.800    0.000    1.600 
#    0.000    0.000    0.000    2.400    0.000    0.000 
#    0.000    0.000    0.000    5.400    0.000    0.100 
#
# Total GULP energy -495585.814492 kJ/mol
# GULP energy per Si atom -12389.645362 kJ/mol
# Density = 1.369939 g / cm^3
# Si number density = 13.730642 Si / 1000 Ang^3
#
#
#
# Elastic Constant Matrix: (Units=GPa)
#
#
# Indices 1 2 3 4 5 6 
#
# 1 73.4079 45.3707 33.2880 0.0000 0.0000 0.0000
# 2 45.3707 116.2068 23.8053 0.0000 0.0000 0.0000
# 3 33.2880 23.8053 65.8894 0.0000 0.0000 0.0000
# 4 0.0000 0.0000 0.0000 8.1396 0.0000 0.0000
# 5 0.0000 0.0000 0.0000 0.0000 5.4672 0.0000
# 6 0.0000 0.0000 0.0000 0.0000 0.0000 26.5302
#
#
#
# Elastic Compliance Matrix: (Units=1/GPa)
#
#
# Indices 1 2 3 4 5 6 
#
# 1 0.021618 -0.006699 -0.008501 0.000000 0.000000 0.000000
# 2 -0.006699 0.011369 -0.000723 0.000000 0.000000 0.000000
# 3 -0.008501 -0.000723 0.019733 0.000000 0.000000 0.000000
# 4 0.000000 0.000000 0.000000 0.122857 0.000000 0.000000
# 5 0.000000 0.000000 0.000000 0.000000 0.182909 0.000000
# 6 0.000000 0.000000 0.000000 0.000000 0.000000 0.037693
#
#
# Mechanical properties :
#
#
# Convention : Reuss Voigt Hill
#
# Bulk Modulus (GPa) = 47.90806 51.15913 49.53360
# Shear Modulus (GPa) = 11.49470 18.23007 14.86239
#
# Velocity S-wave (km/s) = 2.89651 3.64770 3.29359
# Velocity P-wave (km/s) = 6.79363 7.42166 7.11458
#
# Compressibility (1/GPa) = 0.02087331
#
# Stress axis : x y z
#
# Youngs Moduli (GPa) = 46.25809 87.95932 50.67599
#
# Poissons Ratio (x) = 0.58922 0.43081
# Poissons Ratio (y) = 0.30987 0.03665
# Poissons Ratio (z) = 0.39326 0.06361
#
# Static dielectric constant tensor:
#      x y z
#    x 2.596290 0.000000 0.000000 
#    y 0.000000 3.166180 0.000000 
#    z 0.000000 0.000000 2.345150 
# 
# 
# High freq. dielectric constant tensor:
#      x y z
#    x 1.506850 0.000000 0.000000 
#    y 0.000000 1.513150 0.000000 
#    z 0.000000 0.000000 1.482680 
# 
# From -- ./inp_files/12582.got.cif
#   From: 2010.03.12/outbox.cif.g09.slc.cpg/sg65_7_cif.got.tgz:12582.got - 2010.04.10 20:52:16.
