data_PCOD8274835
_publ_section_title
;
Structure prediction by ZEFSAII (Michael W. Deem and Ramdas Pophale) SiO2 
 PCOD8274835
Probable space group: C M M M
;
_chemical_formula_sum "Si O2"
_cell_formula_units_Z 88
_cell_length_a 8.999007
_cell_length_b 27.551630
_cell_length_c 21.329304
_cell_angle_alpha 90.000000
_cell_angle_beta 90.000000
_cell_angle_gamma 90.000000
_cell_volume 5288.330284
_symmetry_space_group_name_H-M "C M M M"
_symmetry_group_IT_number 65
_symmetry_cell_setting 'orthorhombic'
loop_
_space_group_symop_operation_xyz
x,y,z
-x,-y,z
x,-y,-z
-x,y,-z
-x,-y,-z
x,y,-z
-x,y,z
x,-y,z
1/2+x,1/2+y,z
1/2-x,1/2-y,z
1/2+x,1/2-y,-z
1/2-x,1/2+y,-z
1/2-x,1/2-y,-z
1/2+x,1/2+y,-z
1/2-x,1/2+y,z
1/2+x,1/2-y,z
loop_
_atom_site_type_symbol
_atom_site_label
_atom_site_fract_x
_atom_site_fract_y
_atom_site_fract_z
Si Si1 0.826971 0.851330 0.384179
Si Si2 0.323515 0.446329 0.684884
Si Si3 0.176763 0.945276 0.931262
Si Si4 0.675871 0.802573 0.500000
Si Si5 0.171803 0.799763 0.254636
Si Si6 0.822589 0.895338 0.191643
O O1 0.775485 0.906206 0.366548
O O2 0.724072 0.833069 0.439766
O O3 0.798373 0.815970 0.325746
O O4 0.000000 0.850165 0.404169
O O5 0.500000 0.446873 0.687348
O O6 0.261623 0.500000 0.667176
O O7 0.264013 0.431497 0.753869
O O8 0.242619 0.911650 0.875810
O O9 0.000000 0.944944 0.928102
O O10 0.234602 0.000000 0.921042
O O11 0.229136 0.926232 0.000000
O O12 0.500000 0.795499 0.500000
O O13 0.750000 0.750000 0.500000
O O14 0.250000 0.750000 0.238294
O O15 0.232861 0.840990 0.207154
O O16 0.000000 0.791384 0.243066
O O17 0.000000 0.896461 0.191777
#
# Coordination Sequence:
#
# PCOD8274835 Si02
#       6
#    16  16  16   8  16  16
#     4   9  18  32  48  68  91 112 140 176 212 254
#     4   8  13  23  42  65  86 110 141 177 213 247
#     4   8  12  17  28  50  81 114 141 165 202 253
#     4  12  24  36  51  68  87 113 142 173 215 260
#     4   9  17  28  43  62  83 109 140 176 216 252
#     4   8  13  21  34  55  83 111 140 175 213 251
#
# _framework density 16.640412999999999
#
# number of rings (size 3 to 8) (size 9 to 14) (size 15 to 20)
#    0.000    3.273    0.000    4.636    0.000    4.364 
#    0.000    0.455    0.000    3.818    0.000    0.000 
#    0.000    2.182    0.000    2.000    0.000    3.818 
#
# Total GULP energy -545220.941753 kJ/mol
# GULP energy per Si atom -12391.385040 kJ/mol
# Density = 1.660254 g / cm^3
# Si number density = 16.640413 Si / 1000 Ang^3
#
#
#
# Elastic Constant Matrix: (Units=GPa)
#
#
# Indices 1 2 3 4 5 6 
#
# 1 32.8935 30.9717 35.4782 0.0000 0.0000 0.0000
# 2 30.9717 152.9391 77.6888 0.0000 0.0000 0.0000
# 3 35.4782 77.6888 126.9633 0.0000 0.0000 0.0000
# 4 0.0000 0.0000 0.0000 19.8550 0.0000 0.0000
# 5 0.0000 0.0000 0.0000 0.0000 7.1812 0.0000
# 6 0.0000 0.0000 0.0000 0.0000 0.0000 18.4000
#
#
#
# Elastic Compliance Matrix: (Units=1/GPa)
#
#
# Indices 1 2 3 4 5 6 
#
# 1 0.045115 -0.003965 -0.010181 0.000000 0.000000 0.000000
# 2 -0.003965 0.009836 -0.004911 0.000000 0.000000 0.000000
# 3 -0.010181 -0.004911 0.013726 0.000000 0.000000 0.000000
# 4 0.000000 0.000000 0.000000 0.050365 0.000000 0.000000
# 5 0.000000 0.000000 0.000000 0.000000 0.139252 0.000000
# 6 0.000000 0.000000 0.000000 0.000000 0.000000 0.054348
#
#
# Mechanical properties :
#
#
# Convention : Reuss Voigt Hill
#
# Bulk Modulus (GPa) = 32.71766 66.78593 49.75179
# Shear Modulus (GPa) = 13.85262 20.33106 17.09184
#
# Velocity S-wave (km/s) = 2.88838 3.49920 3.20836
# Velocity P-wave (km/s) = 5.55229 7.51983 6.60968
#
# Compressibility (1/GPa) = 0.03056453
#
# Stress axis : x y z
#
# Youngs Moduli (GPa) = 22.16563 101.66774 72.85414
#
# Poissons Ratio (x) = 0.40308 0.74171
# Poissons Ratio (y) = 0.08788 0.35777
# Poissons Ratio (z) = 0.22566 0.49926
#
# Static dielectric constant tensor:
#      x y z
#    x 2.578430 0.000000 0.000000 
#    y 0.000000 3.446090 0.000000 
#    z 0.000000 0.000000 3.316280 
# 
# 
# High freq. dielectric constant tensor:
#      x y z
#    x 1.582200 0.000000 0.000000 
#    y 0.000000 1.645070 0.000000 
#    z 0.000000 0.000000 1.637010 
# 
# From -- ./inp_files/60708.got.cif
#   From: 2010.03.12/outbox.cif.g09.slc.cpg/sg65_31_cif.got.tgz:60708.got - 2010.04.10 20:52:16.
