data_PCOD8274223
_publ_section_title
;
Structure prediction by ZEFSAII (Michael W. Deem and Ramdas Pophale) SiO2 
 PCOD8274223
Probable space group: C M M M
;
_chemical_formula_sum "Si O2"
_cell_formula_units_Z 80
_cell_length_a 22.792514
_cell_length_b 10.008826
_cell_length_c 21.310258
_cell_angle_alpha 90.000000
_cell_angle_beta 90.000000
_cell_angle_gamma 90.000000
_cell_volume 4861.430453
_symmetry_space_group_name_H-M "C M M M"
_symmetry_group_IT_number 65
_symmetry_cell_setting 'orthorhombic'
loop_
_space_group_symop_operation_xyz
x,y,z
-x,-y,z
x,-y,-z
-x,y,-z
-x,-y,-z
x,y,-z
-x,y,z
x,-y,z
1/2+x,1/2+y,z
1/2-x,1/2-y,z
1/2+x,1/2-y,-z
1/2-x,1/2+y,-z
1/2-x,1/2-y,-z
1/2+x,1/2+y,-z
1/2-x,1/2+y,z
1/2+x,1/2-y,z
loop_
_atom_site_type_symbol
_atom_site_label
_atom_site_fract_x
_atom_site_fract_y
_atom_site_fract_z
Si Si1 0.327416 0.000000 0.572303
Si Si2 0.000000 0.850479 0.573644
Si Si3 0.430038 0.846996 0.000000
Si Si4 0.688398 0.500000 0.428156
Si Si5 0.067035 0.156688 0.247706
Si Si6 0.619330 0.260511 0.629052
Si Si7 0.930255 0.850608 0.107046
O O1 0.352019 0.123178 0.610329
O O2 0.348941 0.000000 0.500000
O O3 0.257837 0.000000 0.574726
O O4 0.943091 0.772506 0.595730
O O5 0.000000 0.859067 0.500000
O O6 0.000000 0.000000 0.602983
O O7 0.406480 0.764327 0.939628
O O8 0.500000 0.851422 0.000000
O O9 0.405574 0.000000 0.000000
O O10 0.665930 0.500000 0.500000
O O11 0.664454 0.628218 0.393067
O O12 0.109583 0.233429 0.295899
O O13 0.089623 0.187982 0.177398
O O14 0.000000 0.206014 0.256782
O O15 0.070546 0.000000 0.261655
O O16 0.000000 0.856149 0.104359
O O17 0.906805 0.000000 0.088934
#
# Coordination Sequence:
#
# PCOD8274223 Si02
#       7
#     8   8   8   8  16  16  16
#     4  11  26  41  51  73 103 131 167 212 268 317
#     4  11  20  31  53  79  97 124 167 210 254 302
#     4   9  15  23  35  59  89 127 168 199 224 268
#     4  11  22  39  61  75  91 129 175 216 256 309
#     4   9  16  30  49  72  95 126 167 207 247 298
#     4  12  21  36  56  76 101 130 165 213 259 310
#     4   8  14  24  41  60  87 122 163 202 235 275
#
# _framework density 16.456061999999999
#
# number of rings (size 3 to 8) (size 9 to 14) (size 15 to 20)
#    0.000    2.000    3.000    3.900    0.000    3.200 
#    1.800    1.000    0.000    0.000    0.000    0.000 
#    0.000    0.000    0.000    5.400    0.000    0.700 
#
# Total GULP energy -495874.807400 kJ/mol
# GULP energy per Si atom -12396.870185 kJ/mol
# Density = 1.641861 g / cm^3
# Si number density = 16.456062 Si / 1000 Ang^3
#
#
#
# Elastic Constant Matrix: (Units=GPa)
#
#
# Indices 1 2 3 4 5 6 
#
# 1 46.6838 29.8166 29.1378 0.0000 0.0000 0.0000
# 2 29.8166 130.1011 73.4958 0.0000 0.0000 0.0000
# 3 29.1378 73.4958 148.4384 0.0000 0.0000 0.0000
# 4 0.0000 0.0000 0.0000 22.7905 0.0000 0.0000
# 5 0.0000 0.0000 0.0000 0.0000 2.5633 0.0000
# 6 0.0000 0.0000 0.0000 0.0000 0.0000 47.2590
#
#
#
# Elastic Compliance Matrix: (Units=1/GPa)
#
#
# Indices 1 2 3 4 5 6 
#
# 1 0.026017 -0.004273 -0.002991 0.000000 0.000000 0.000000
# 2 -0.004273 0.011373 -0.004792 0.000000 0.000000 0.000000
# 3 -0.002991 -0.004792 0.009697 0.000000 0.000000 0.000000
# 4 0.000000 0.000000 0.000000 0.043878 0.000000 0.000000
# 5 0.000000 0.000000 0.000000 0.000000 0.390115 0.000000
# 6 0.000000 0.000000 0.000000 0.000000 0.000000 0.021160
#
#
# Mechanical properties :
#
#
# Convention : Reuss Voigt Hill
#
# Bulk Modulus (GPa) = 43.52825 65.56929 54.54877
# Shear Modulus (GPa) = 9.36313 27.37413 18.36863
#
# Velocity S-wave (km/s) = 2.38791 4.08299 3.34462
# Velocity P-wave (km/s) = 5.84050 7.88412 6.93797
#
# Compressibility (1/GPa) = 0.02297359
#
# Stress axis : x y z
#
# Youngs Moduli (GPa) = 38.43682 87.92969 103.12699
#
# Poissons Ratio (x) = 0.37569 0.30850
# Poissons Ratio (y) = 0.16422 0.49421
# Poissons Ratio (z) = 0.11498 0.42138
#
# Static dielectric constant tensor:
#      x y z
#    x 2.745220 0.000000 0.000000 
#    y 0.000000 3.053990 0.000000 
#    z 0.000000 0.000000 3.409800 
# 
# 
# High freq. dielectric constant tensor:
#      x y z
#    x 1.584780 0.000000 0.000000 
#    y 0.000000 1.628340 0.000000 
#    z 0.000000 0.000000 1.645370 
# 
# From -- ./inp_files/70901.got.cif
#   From: 2010.03.12/outbox.cif.g09.slc.cpg/sg65_36_cif.got.tgz:70901.got - 2010.04.10 20:52:16.
