data_PCOD8274598
_publ_section_title
;
Structure prediction by ZEFSAII (Michael W. Deem and Ramdas Pophale) SiO2 
 PCOD8274598
Probable space group: C M M M
;
_chemical_formula_sum "Si O2"
_cell_formula_units_Z 64
_cell_length_a 18.219353
_cell_length_b 10.179415
_cell_length_c 19.035375
_cell_angle_alpha 90.000000
_cell_angle_beta 90.000000
_cell_angle_gamma 90.000000
_cell_volume 3530.345480
_symmetry_space_group_name_H-M "C M M M"
_symmetry_group_IT_number 65
_symmetry_cell_setting 'orthorhombic'
loop_
_space_group_symop_operation_xyz
x,y,z
-x,-y,z
x,-y,-z
-x,y,-z
-x,-y,-z
x,y,-z
-x,y,z
x,-y,z
1/2+x,1/2+y,z
1/2-x,1/2-y,z
1/2+x,1/2-y,-z
1/2-x,1/2+y,-z
1/2-x,1/2-y,-z
1/2+x,1/2+y,-z
1/2-x,1/2+y,z
1/2+x,1/2-y,z
loop_
_atom_site_type_symbol
_atom_site_label
_atom_site_fract_x
_atom_site_fract_y
_atom_site_fract_z
Si Si1 0.657134 0.500000 0.083646
Si Si2 0.315598 0.150223 0.578298
Si Si3 0.325439 0.000000 0.082850
Si Si4 0.416202 0.850682 0.705448
Si Si5 0.413414 0.758752 0.144544
O O1 0.741313 0.500000 0.110679
O O2 0.613525 0.376666 0.113128
O O3 0.653378 0.500000 0.000000
O O4 0.349858 0.163347 0.500000
O O5 0.250000 0.250000 0.587507
O O6 0.373974 0.194657 0.636127
O O7 0.289165 0.000000 0.590853
O O8 0.367646 0.127913 0.107764
O O9 0.323748 0.000000 0.000000
O O10 0.500000 0.836757 0.684152
O O11 0.396826 0.759585 0.771978
O O12 0.396973 0.000000 0.727234
O O13 0.500000 0.780325 0.130296
#
# Coordination Sequence:
#
# PCOD8274598 Si02
#       5
#     8  16   8  16  16
#     4  11  25  41  57  83 118 147 182 237 291 340
#     4   9  18  33  54  81 112 145 181 221 266 319
#     4  11  23  39  59  83 110 145 188 231 281 342
#     4   9  18  35  56  80 109 140 182 231 271 318
#     4  11  22  39  60  83 112 148 189 234 282 336
#
# _framework density 18.128536
#
# number of rings (size 3 to 8) (size 9 to 14) (size 15 to 20)
#    0.000    2.000    1.250    2.250    0.000    7.500 
#    2.250    2.500    0.000    0.000    0.000    3.500 
#    0.000    0.000    0.000    0.000    0.000    0.000 
#
# Total GULP energy -396747.988817 kJ/mol
# GULP energy per Si atom -12398.374651 kJ/mol
# Density = 1.808727 g / cm^3
# Si number density = 18.128536 Si / 1000 Ang^3
#
#
#
# Elastic Constant Matrix: (Units=GPa)
#
#
# Indices 1 2 3 4 5 6 
#
# 1 86.8699 29.1785 65.4261 0.0000 0.0000 0.0000
# 2 29.1785 86.0861 49.5125 0.0000 0.0000 0.0000
# 3 65.4261 49.5125 121.9360 0.0000 0.0000 0.0000
# 4 0.0000 0.0000 0.0000 20.2313 0.0000 0.0000
# 5 0.0000 0.0000 0.0000 0.0000 35.7309 0.0000
# 6 0.0000 0.0000 0.0000 0.0000 0.0000 31.2836
#
#
#
# Elastic Compliance Matrix: (Units=1/GPa)
#
#
# Indices 1 2 3 4 5 6 
#
# 1 0.019357 -0.000766 -0.010075 0.000000 0.000000 0.000000
# 2 -0.000766 0.015186 -0.005755 0.000000 0.000000 0.000000
# 3 -0.010075 -0.005755 0.015944 0.000000 0.000000 0.000000
# 4 0.000000 0.000000 0.000000 0.049428 0.000000 0.000000
# 5 0.000000 0.000000 0.000000 0.000000 0.027987 0.000000
# 6 0.000000 0.000000 0.000000 0.000000 0.000000 0.031966
#
#
# Mechanical properties :
#
#
# Convention : Reuss Voigt Hill
#
# Bulk Modulus (GPa) = 57.82422 64.79180 61.30801
# Shear Modulus (GPa) = 25.14774 27.50084 26.32429
#
# Velocity S-wave (km/s) = 3.72854 3.89908 3.81477
# Velocity P-wave (km/s) = 7.10648 7.48921 7.30035
#
# Compressibility (1/GPa) = 0.01729379
#
# Stress axis : x y z
#
# Youngs Moduli (GPa) = 51.66144 65.84960 62.72050
#
# Poissons Ratio (x) = 0.05046 0.63190
# Poissons Ratio (y) = 0.03959 0.36097
# Poissons Ratio (z) = 0.52049 0.37898
#
# Static dielectric constant tensor:
#      x y z
#    x 3.468450 0.000000 0.000000 
#    y 0.000000 3.592440 0.000000 
#    z 0.000000 0.000000 3.615510 
# 
# 
# High freq. dielectric constant tensor:
#      x y z
#    x 1.702240 0.000000 0.000000 
#    y 0.000000 1.699440 0.000000 
#    z 0.000000 0.000000 1.717420 
# 
# From -- ./inp_files/41915.got.cif
#   From: 2010.03.12/outbox.cif.g09.slc.cpg/sg65_21_cif.got.tgz:41915.got - 2010.04.10 20:52:16.
