data_PCOD8274660
_publ_section_title
;
Structure prediction by ZEFSAII (Michael W. Deem and Ramdas Pophale) SiO2 
 PCOD8274660
Probable space group: C M M M
;
_chemical_formula_sum "Si O2"
_cell_formula_units_Z 72
_cell_length_a 18.987625
_cell_length_b 8.027336
_cell_length_c 24.753154
_cell_angle_alpha 90.000000
_cell_angle_beta 90.000000
_cell_angle_gamma 90.000000
_cell_volume 3772.876864
_symmetry_space_group_name_H-M "C M M M"
_symmetry_group_IT_number 65
_symmetry_cell_setting 'orthorhombic'
loop_
_space_group_symop_operation_xyz
x,y,z
-x,-y,z
x,-y,-z
-x,y,-z
-x,-y,-z
x,y,-z
-x,y,z
x,-y,z
1/2+x,1/2+y,z
1/2-x,1/2-y,z
1/2+x,1/2-y,-z
1/2-x,1/2+y,-z
1/2-x,1/2-y,-z
1/2+x,1/2+y,-z
1/2-x,1/2+y,z
1/2+x,1/2-y,z
loop_
_atom_site_type_symbol
_atom_site_label
_atom_site_fract_x
_atom_site_fract_y
_atom_site_fract_z
Si Si1 0.579411 0.303893 0.438869
Si Si2 0.170887 0.309455 0.342329
Si Si3 0.416321 0.314253 0.871418
Si Si4 0.419615 0.197905 0.244451
Si Si5 0.415950 0.000000 0.061259
O O1 0.597925 0.250531 0.500000
O O2 0.500000 0.246366 0.424684
O O3 0.586436 0.500000 0.432090
O O4 0.634198 0.216222 0.399759
O O5 0.171925 0.500000 0.327854
O O6 0.250000 0.250000 0.345344
O O7 0.126806 0.225634 0.293530
O O8 0.500000 0.305432 0.873106
O O9 0.390641 0.500000 0.889607
O O10 0.390724 0.280847 0.810382
O O11 0.386169 0.168436 0.910293
O O12 0.500000 0.250793 0.255983
O O13 0.414030 0.000000 0.238139
O O14 0.500000 0.000000 0.063872
O O15 0.388504 0.000000 0.000000
#
# Coordination Sequence:
#
# PCOD8274660 Si02
#       5
#    16  16  16  16   8
#     4   9  19  37  59  80 103 133 172 218 265 317
#     4  11  23  36  52  76 107 141 173 217 267 318
#     4   9  16  26  43  67  94 131 175 213 257 313
#     4   9  17  32  52  71  96 132 173 218 265 316
#     4   9  16  26  40  62 100 140 169 211 262 307
#
# _framework density 19.083580999999999
#
# number of rings (size 3 to 8) (size 9 to 14) (size 15 to 20)
#    0.000    2.556    1.111    2.000    0.000    4.444 
#    0.000    5.556    0.000    0.000    0.000    0.000 
#    0.000    0.889    0.444    0.000    0.000    0.000 
#
# Total GULP energy -446244.982837 kJ/mol
# GULP energy per Si atom -12395.693968 kJ/mol
# Density = 1.904015 g / cm^3
# Si number density = 19.083581 Si / 1000 Ang^3
#
#
#
# Elastic Constant Matrix: (Units=GPa)
#
#
# Indices 1 2 3 4 5 6 
#
# 1 78.0199 26.1471 57.2859 0.0000 0.0000 0.0000
# 2 26.1471 85.7937 55.6612 0.0000 0.0000 0.0000
# 3 57.2859 55.6612 147.7439 0.0000 0.0000 0.0000
# 4 0.0000 0.0000 0.0000 21.7952 0.0000 0.0000
# 5 0.0000 0.0000 0.0000 0.0000 5.0532 0.0000
# 6 0.0000 0.0000 0.0000 0.0000 0.0000 1.1572
#
#
#
# Elastic Compliance Matrix: (Units=1/GPa)
#
#
# Indices 1 2 3 4 5 6 
#
# 1 0.018022 -0.001269 -0.006510 0.000000 0.000000 0.000000
# 2 -0.001269 0.015516 -0.005353 0.000000 0.000000 0.000000
# 3 -0.006510 -0.005353 0.011309 0.000000 0.000000 0.000000
# 4 0.000000 0.000000 0.000000 0.045882 0.000000 0.000000
# 5 0.000000 0.000000 0.000000 0.000000 0.197894 0.000000
# 6 0.000000 0.000000 0.000000 0.000000 0.000000 0.864140
#
#
# Mechanical properties :
#
#
# Convention : Reuss Voigt Hill
#
# Bulk Modulus (GPa) = 53.81283 65.52733 59.67008
# Shear Modulus (GPa) = 4.21862 17.09868 10.65865
#
# Velocity S-wave (km/s) = 1.48842 2.99656 2.36588
# Velocity P-wave (km/s) = 5.58691 6.81058 6.22887
#
# Compressibility (1/GPa) = 0.01858293
#
# Stress axis : x y z
#
# Youngs Moduli (GPa) = 55.48645 64.45037 88.42206
#
# Poissons Ratio (x) = 0.08180 0.57561
# Poissons Ratio (y) = 0.07042 0.47335
# Poissons Ratio (z) = 0.36121 0.34502
#
# Static dielectric constant tensor:
#      x y z
#    x 3.022680 0.000000 0.000000 
#    y 0.000000 3.568560 0.000000 
#    z 0.000000 0.000000 3.703350 
# 
# 
# High freq. dielectric constant tensor:
#      x y z
#    x 1.691040 0.000000 0.000000 
#    y 0.000000 1.744420 0.000000 
#    z 0.000000 0.000000 1.748470 
# 
# From -- ./inp_files/67007.got.cif
#   From: 2010.03.12/outbox.cif.g09.slc.cpg/sg65_34_cif.got.tgz:67007.got - 2010.04.10 20:52:16.
