data_PCOD8274337
_publ_section_title
;
Structure prediction by ZEFSAII (Michael W. Deem and Ramdas Pophale) SiO2 
 PCOD8274337
Probable space group: C M M M
;
_chemical_formula_sum "Si O2"
_cell_formula_units_Z 88
_cell_length_a 28.708669
_cell_length_b 14.378630
_cell_length_c 10.600868
_cell_angle_alpha 90.000000
_cell_angle_beta 90.000000
_cell_angle_gamma 90.000000
_cell_volume 4375.946394
_symmetry_space_group_name_H-M "C M M M"
_symmetry_group_IT_number 65
_symmetry_cell_setting 'orthorhombic'
loop_
_space_group_symop_operation_xyz
x,y,z
-x,-y,z
x,-y,-z
-x,y,-z
-x,-y,-z
x,y,-z
-x,y,z
x,-y,z
1/2+x,1/2+y,z
1/2-x,1/2-y,z
1/2+x,1/2-y,-z
1/2-x,1/2+y,-z
1/2-x,1/2-y,-z
1/2+x,1/2+y,-z
1/2-x,1/2+y,z
1/2+x,1/2-y,z
loop_
_atom_site_type_symbol
_atom_site_label
_atom_site_fract_x
_atom_site_fract_y
_atom_site_fract_z
Si Si1 0.372322 0.100977 0.644175
Si Si2 0.796587 0.889358 0.859555
Si Si3 0.902513 0.104593 0.853670
Si Si4 0.270797 0.110387 0.357395
Si Si5 0.053948 0.718735 0.758940
Si Si6 0.444931 0.103622 0.000000
O O1 0.361345 0.082828 0.500000
O O2 0.322339 0.136932 0.696575
O O3 0.413567 0.176566 0.650667
O O4 0.386667 0.000000 0.704522
O O5 0.849900 0.860365 0.833043
O O6 0.765286 0.846996 0.745876
O O7 0.793257 0.000000 0.860589
O O8 0.781433 0.853148 0.000000
O O9 0.937224 0.171834 0.777126
O O10 0.909490 0.000000 0.801339
O O11 0.916299 0.107850 0.000000
O O12 0.260708 0.149564 0.500000
O O13 0.265574 0.000000 0.360959
O O14 0.071893 0.661386 0.879976
O O15 0.000000 0.701790 0.726167
O O16 0.500000 0.096965 0.000000
O O17 0.422995 0.000000 0.000000
#
# Coordination Sequence:
#
# PCOD8274337 Si02
#       6
#    16  16  16  16  16   8
#     4   9  19  36  56  78 106 142 182 220 263 324
#     4   8  14  27  49  76 105 138 177 221 268 320
#     4   9  18  34  55  78 107 143 182 223 268 322
#     4   8  14  28  51  77 106 140 176 216 266 325
#     4  11  21  34  53  77 106 139 178 227 273 315
#     4   9  18  32  49  73 104 133 162 208 271 323
#
# _framework density 20.109936000000001
#
# number of rings (size 3 to 8) (size 9 to 14) (size 15 to 20)
#    0.000    3.000    0.909    2.727    0.000    1.818 
#    1.636    3.636    0.000    6.000    0.000    1.273 
#    0.000    0.000    0.000    0.000    0.000    0.000 
#
# Total GULP energy -545197.217892 kJ/mol
# GULP energy per Si atom -12390.845861 kJ/mol
# Density = 2.006417 g / cm^3
# Si number density = 20.109936 Si / 1000 Ang^3
#
#
#
# Elastic Constant Matrix: (Units=GPa)
#
#
# Indices 1 2 3 4 5 6 
#
# 1 79.9061 21.7975 26.2389 0.0000 0.0000 0.0000
# 2 21.7975 73.3348 6.0325 0.0000 0.0000 0.0000
# 3 26.2389 6.0325 59.4776 0.0000 0.0000 0.0000
# 4 0.0000 0.0000 0.0000 12.5241 0.0000 0.0000
# 5 0.0000 0.0000 0.0000 0.0000 28.6667 0.0000
# 6 0.0000 0.0000 0.0000 0.0000 0.0000 28.1716
#
#
#
# Elastic Compliance Matrix: (Units=1/GPa)
#
#
# Indices 1 2 3 4 5 6 
#
# 1 0.015799 -0.004157 -0.006548 0.000000 0.000000 0.000000
# 2 -0.004157 0.014845 0.000328 0.000000 0.000000 0.000000
# 3 -0.006548 0.000328 0.019669 0.000000 0.000000 0.000000
# 4 0.000000 0.000000 0.000000 0.079846 0.000000 0.000000
# 5 0.000000 0.000000 0.000000 0.000000 0.034884 0.000000
# 6 0.000000 0.000000 0.000000 0.000000 0.000000 0.035497
#
#
# Mechanical properties :
#
#
# Convention : Reuss Voigt Hill
#
# Bulk Modulus (GPa) = 33.83167 35.65069 34.74118
# Shear Modulus (GPa) = 21.63136 24.44913 23.04025
#
# Velocity S-wave (km/s) = 3.28328 3.49058 3.38851
# Velocity P-wave (km/s) = 5.58866 5.83197 5.71161
#
# Compressibility (1/GPa) = 0.02955810
#
# Stress axis : x y z
#
# Youngs Moduli (GPa) = 63.29517 67.36385 50.84267
#
# Poissons Ratio (x) = 0.28005 0.33293
# Poissons Ratio (y) = 0.26314 -0.01670
# Poissons Ratio (z) = 0.41447 -0.02212
#
# Static dielectric constant tensor:
#      x y z
#    x 3.536900 0.000000 0.000000 
#    y 0.000000 3.425990 0.000000 
#    z 0.000000 0.000000 3.663160 
# 
# 
# High freq. dielectric constant tensor:
#      x y z
#    x 1.776190 0.000000 0.000000 
#    y 0.000000 1.772180 0.000000 
#    z 0.000000 0.000000 1.760240 
# 
# From -- ./inp_files/24825.got.cif
#   From: 2010.03.12/outbox.cif.g09.slc.cpg/sg65_13_cif.got.tgz:24825.got - 2010.04.10 20:52:16.
