data_PCOD8274265
_publ_section_title
;
Structure prediction by ZEFSAII (Michael W. Deem and Ramdas Pophale) SiO2 
 PCOD8274265
Probable space group: C M M M
;
_chemical_formula_sum "Si O2"
_cell_formula_units_Z 104
_cell_length_a 9.060699
_cell_length_b 30.364598
_cell_length_c 22.385232
_cell_angle_alpha 90.000000
_cell_angle_beta 90.000000
_cell_angle_gamma 90.000000
_cell_volume 6158.725375
_symmetry_space_group_name_H-M "C M M M"
_symmetry_group_IT_number 65
_symmetry_cell_setting 'orthorhombic'
loop_
_space_group_symop_operation_xyz
x,y,z
-x,-y,z
x,-y,-z
-x,y,-z
-x,-y,-z
x,y,-z
-x,y,z
x,-y,z
1/2+x,1/2+y,z
1/2-x,1/2-y,z
1/2+x,1/2-y,-z
1/2-x,1/2+y,-z
1/2-x,1/2-y,-z
1/2+x,1/2+y,-z
1/2-x,1/2+y,z
1/2+x,1/2-y,z
loop_
_atom_site_type_symbol
_atom_site_label
_atom_site_fract_x
_atom_site_fract_y
_atom_site_fract_z
Si Si1 0.324435 0.886502 0.223632
Si Si2 0.827718 0.449498 0.117215
Si Si3 0.838795 0.709380 0.786600
Si Si4 0.165646 0.292289 0.645106
Si Si5 0.824957 0.882187 0.651961
Si Si6 0.666631 0.447623 0.000000
Si Si7 0.332022 0.949312 0.430270
O O1 0.500000 0.885726 0.236716
O O2 0.278431 0.922924 0.175626
O O3 0.272093 0.838767 0.198251
O O4 0.239902 0.897345 0.284440
O O5 0.783213 0.500000 0.128750
O O6 0.000000 0.444346 0.104812
O O7 0.745721 0.429607 0.059467
O O8 0.750000 0.750000 0.815255
O O9 0.845046 0.713810 0.715658
O O10 0.000000 0.713117 0.815121
O O11 0.250000 0.250000 0.617226
O O12 0.255594 0.336306 0.629307
O O13 0.000000 0.295313 0.618088
O O14 0.784526 0.919747 0.604858
O O15 0.000000 0.876768 0.656762
O O16 0.677421 0.500000 0.000000
O O17 0.500000 0.430442 0.000000
O O18 0.307161 0.941124 0.500000
O O19 0.500000 0.936876 0.412354
O O20 0.301132 0.000000 0.413953
#
# Coordination Sequence:
#
# PCOD8274265 Si02
#       7
#    16  16  16  16  16   8  16
#     4   9  18  31  45  66  96 126 157 194 233 273
#     4   9  17  30  48  67  88 119 158 193 226 272
#     4   8  14  24  39  59  85 116 149 186 225 264
#     4   9  16  28  46  68  95 126 160 195 232 278
#     4  11  21  31  47  73 103 131 157 191 239 290
#     4   9  17  29  45  65  90 119 150 187 230 273
#     4   9  19  37  58  74  89 118 162 205 242 283
#
# _framework density 16.886610999999998
#
# number of rings (size 3 to 8) (size 9 to 14) (size 15 to 20)
#    0.000    2.846    0.000    3.462    0.000    6.462 
#    0.000    2.308    0.000    0.462    0.000    0.538 
#    0.000    0.000    0.000    0.000    0.000    0.000 
#
# Total GULP energy -644623.483858 kJ/mol
# GULP energy per Si atom -12396.605459 kJ/mol
# Density = 1.684818 g / cm^3
# Si number density = 16.886611 Si / 1000 Ang^3
#
#
#
# Elastic Constant Matrix: (Units=GPa)
#
#
# Indices 1 2 3 4 5 6 
#
# 1 96.1290 51.3053 42.3400 0.0000 0.0000 0.0000
# 2 51.3053 104.9272 52.9538 0.0000 0.0000 0.0000
# 3 42.3400 52.9538 62.9148 0.0000 0.0000 0.0000
# 4 0.0000 0.0000 0.0000 0.5466 0.0000 0.0000
# 5 0.0000 0.0000 0.0000 0.0000 17.3770 0.0000
# 6 0.0000 0.0000 0.0000 0.0000 0.0000 28.5954
#
#
#
# Elastic Compliance Matrix: (Units=1/GPa)
#
#
# Indices 1 2 3 4 5 6 
#
# 1 0.015731 -0.004084 -0.007149 0.000000 0.000000 0.000000
# 2 -0.004084 0.017628 -0.012089 0.000000 0.000000 0.000000
# 3 -0.007149 -0.012089 0.030881 0.000000 0.000000 0.000000
# 4 0.000000 0.000000 0.000000 1.829538 0.000000 0.000000
# 5 0.000000 0.000000 0.000000 0.000000 0.057547 0.000000
# 6 0.000000 0.000000 0.000000 0.000000 0.000000 0.034971
#
#
# Mechanical properties :
#
#
# Convention : Reuss Voigt Hill
#
# Bulk Modulus (GPa) = 56.83143 61.90769 59.36956
# Shear Modulus (GPa) = 2.45242 17.12859 9.79051
#
# Velocity S-wave (km/s) = 1.20641 3.18831 2.41047
# Velocity P-wave (km/s) = 5.97230 7.09184 6.55601
#
# Compressibility (1/GPa) = 0.01759590
#
# Stress axis : x y z
#
# Youngs Moduli (GPa) = 63.56763 56.72739 32.38254
#
# Poissons Ratio (x) = 0.23167 0.23152
# Poissons Ratio (y) = 0.25960 0.39147
# Poissons Ratio (z) = 0.45448 0.68577
#
# Static dielectric constant tensor:
#      x y z
#    x 3.245910 0.000000 0.000000 
#    y 0.000000 3.288550 0.000000 
#    z 0.000000 0.000000 2.834760 
# 
# 
# High freq. dielectric constant tensor:
#      x y z
#    x 1.651940 0.000000 0.000000 
#    y 0.000000 1.651810 0.000000 
#    z 0.000000 0.000000 1.609580 
# 
# From -- ./inp_files/68484.got.cif
#   From: 2010.03.12/outbox.cif.g09.slc.cpg/sg65_35_cif.got.tgz:68484.got - 2010.04.10 20:52:16.
