data_PCOD8274765
_publ_section_title
;
Structure prediction by ZEFSAII (Michael W. Deem and Ramdas Pophale) SiO2 
 PCOD8274765
Probable space group: C M M M
;
_chemical_formula_sum "Si O2"
_cell_formula_units_Z 48
_cell_length_a 34.382311
_cell_length_b 9.018781
_cell_length_c 7.728699
_cell_angle_alpha 90.000000
_cell_angle_beta 90.000000
_cell_angle_gamma 90.000000
_cell_volume 2396.565479
_symmetry_space_group_name_H-M "C M M M"
_symmetry_group_IT_number 65
_symmetry_cell_setting 'orthorhombic'
loop_
_space_group_symop_operation_xyz
x,y,z
-x,-y,z
x,-y,-z
-x,y,-z
-x,-y,-z
x,y,-z
-x,y,z
x,-y,z
1/2+x,1/2+y,z
1/2-x,1/2-y,z
1/2+x,1/2-y,-z
1/2-x,1/2+y,-z
1/2-x,1/2-y,-z
1/2+x,1/2+y,-z
1/2-x,1/2+y,z
1/2+x,1/2-y,z
loop_
_atom_site_type_symbol
_atom_site_label
_atom_site_fract_x
_atom_site_fract_y
_atom_site_fract_z
Si Si1 0.425933 0.340511 0.198820
Si Si2 0.659572 0.675297 0.201248
Si Si3 0.500000 0.173720 0.307661
Si Si4 0.791897 0.322634 0.500000
O O1 0.437205 0.500000 0.284261
O O2 0.384269 0.283530 0.268154
O O3 0.460651 0.225409 0.218044
O O4 0.418273 0.369240 0.000000
O O5 0.666927 0.500000 0.225901
O O6 0.687438 0.769360 0.324060
O O7 0.666653 0.720475 0.000000
O O8 0.500000 0.237113 0.500000
O O9 0.500000 0.000000 0.299796
O O10 0.789290 0.500000 0.500000
O O11 0.750000 0.250000 0.500000
#
# Coordination Sequence:
#
# PCOD8274765 Si02
#       4
#    16  16   8   8
#     4   9  19  37  60  83 108 146 196 243 289 345
#     4   9  20  41  67  93 122 157 200 251 304 359
#     4  11  24  35  46  76 120 157 194 239 288 340
#     4  12  26  42  64  93 126 161 198 242 297 362
#
# _framework density 20.028662000000001
#
# number of rings (size 3 to 8) (size 9 to 14) (size 15 to 20)
#    0.000    2.167    0.000    4.500    2.333    6.667 
#    0.000    3.333    0.000    0.000    0.000    0.000 
#    0.000    0.000    0.000    0.000    0.000    0.000 
#
# Total GULP energy -297402.974455 kJ/mol
# GULP energy per Si atom -12391.790602 kJ/mol
# Density = 1.998308 g / cm^3
# Si number density = 20.028662 Si / 1000 Ang^3
#
#
#
# Elastic Constant Matrix: (Units=GPa)
#
#
# Indices 1 2 3 4 5 6 
#
# 1 163.9396 69.0941 55.1028 0.0000 0.0000 0.0000
# 2 69.0941 96.4050 45.5459 0.0000 0.0000 0.0000
# 3 55.1028 45.5459 87.9484 0.0000 0.0000 0.0000
# 4 0.0000 0.0000 0.0000 26.3110 0.0000 0.0000
# 5 0.0000 0.0000 0.0000 0.0000 34.8786 0.0000
# 6 0.0000 0.0000 0.0000 0.0000 0.0000 52.9129
#
#
#
# Elastic Compliance Matrix: (Units=1/GPa)
#
#
# Indices 1 2 3 4 5 6 
#
# 1 0.009361 -0.005214 -0.003165 0.000000 0.000000 0.000000
# 2 -0.005214 0.016637 -0.005349 0.000000 0.000000 0.000000
# 3 -0.003165 -0.005349 0.016123 0.000000 0.000000 0.000000
# 4 0.000000 0.000000 0.000000 0.038007 0.000000 0.000000
# 5 0.000000 0.000000 0.000000 0.000000 0.028671 0.000000
# 6 0.000000 0.000000 0.000000 0.000000 0.000000 0.018899
#
#
# Mechanical properties :
#
#
# Convention : Reuss Voigt Hill
#
# Bulk Modulus (GPa) = 68.18700 76.41986 72.30343
# Shear Modulus (GPa) = 31.24176 34.72384 32.98280
#
# Velocity S-wave (km/s) = 3.95378 4.16830 4.06246
# Velocity P-wave (km/s) = 7.41362 7.83609 7.62778
#
# Compressibility (1/GPa) = 0.01466555
#
# Stress axis : x y z
#
# Youngs Moduli (GPa) = 106.82582 60.10747 62.02182
#
# Poissons Ratio (x) = 0.31339 0.19629
# Poissons Ratio (y) = 0.55698 0.33176
# Poissons Ratio (z) = 0.33809 0.32152
#
# Static dielectric constant tensor:
#      x y z
#    x 4.462690 0.000000 0.000000 
#    y 0.000000 3.470370 0.000000 
#    z 0.000000 0.000000 3.734380 
# 
# 
# High freq. dielectric constant tensor:
#      x y z
#    x 1.789920 0.000000 0.000000 
#    y 0.000000 1.770630 0.000000 
#    z 0.000000 0.000000 1.784310 
# 
# From -- ./inp_files/3069.got.cif
#   From: 2010.03.12/outbox.cif.g09.slc.cpg/sg65_2_cif.got.tgz:3069.got - 2010.04.10 20:52:16.
