data_PCOD8274945
_publ_section_title
;
Structure prediction by ZEFSAII (Michael W. Deem and Ramdas Pophale) SiO2 
 PCOD8274945
Probable space group: C M M M
;
_chemical_formula_sum "Si O2"
_cell_formula_units_Z 112
_cell_length_a 19.509495
_cell_length_b 18.880695
_cell_length_c 18.875572
_cell_angle_alpha 90.000000
_cell_angle_beta 90.000000
_cell_angle_gamma 90.000000
_cell_volume 6952.870264
_symmetry_space_group_name_H-M "C M M M"
_symmetry_group_IT_number 65
_symmetry_cell_setting 'orthorhombic'
loop_
_space_group_symop_operation_xyz
x,y,z
-x,-y,z
x,-y,-z
-x,y,-z
-x,-y,-z
x,y,-z
-x,y,z
x,-y,z
1/2+x,1/2+y,z
1/2-x,1/2-y,z
1/2+x,1/2-y,-z
1/2-x,1/2+y,-z
1/2-x,1/2-y,-z
1/2+x,1/2+y,-z
1/2-x,1/2+y,z
1/2+x,1/2-y,z
loop_
_atom_site_type_symbol
_atom_site_label
_atom_site_fract_x
_atom_site_fract_y
_atom_site_fract_z
Si Si1 0.333482 0.081909 0.417217
Si Si2 0.919519 0.344307 0.698906
Si Si3 0.079662 0.919149 0.699628
Si Si4 0.419026 0.077412 0.839694
Si Si5 0.418167 0.211848 0.078219
Si Si6 0.580423 0.287782 0.786108
Si Si7 0.821403 0.083490 0.577379
O O1 0.347931 0.094680 0.500000
O O2 0.381543 0.134090 0.372925
O O3 0.255317 0.102895 0.398340
O O4 0.348169 0.000000 0.397783
O O5 0.899814 0.400236 0.759969
O O6 0.893378 0.267002 0.725786
O O7 0.000000 0.344392 0.682320
O O8 0.098278 0.868795 0.766152
O O9 0.122925 0.889395 0.633576
O O10 0.000000 0.912569 0.679089
O O11 0.098767 0.000000 0.720033
O O12 0.500000 0.073811 0.846582
O O13 0.391531 0.134489 0.896589
O O14 0.386603 0.000000 0.855461
O O15 0.500000 0.212766 0.075527
O O16 0.390149 0.269580 0.135433
O O17 0.388111 0.228543 0.000000
O O18 0.500000 0.274770 0.790679
O O19 0.837316 0.117248 0.500000
O O20 0.827716 0.000000 0.570493
#
# Coordination Sequence:
#
# PCOD8274945 Si02
#       7
#    16  16  16  16  16  16  16
#     4   9  17  28  41  57  80 111 142 171 200 226
#     4   9  16  26  39  54  78 113 146 172 199 230
#     4   9  16  27  46  66  79  97 127 163 205 252
#     4   8  13  20  31  50  75 102 136 177 207 222
#     4   8  13  21  34  52  77 111 138 153 187 243
#     4   8  15  27  40  57  82 106 130 165 204 239
#     4   8  15  28  43  60  83 105 126 161 208 247
#
# _framework density 16.108454999999999
#
# number of rings (size 3 to 8) (size 9 to 14) (size 15 to 20)
#    0.000    3.571    0.000    3.000    0.000    1.714 
#    0.000    5.000    0.000    4.714    0.000    3.000 
#    0.000    9.143    0.000   16.857    0.000   14.857 
#
# Total GULP energy -693800.783444 kJ/mol
# GULP energy per Si atom -12389.299704 kJ/mol
# Density = 1.607179 g / cm^3
# Si number density = 16.108455 Si / 1000 Ang^3
#
#
#
# Elastic Constant Matrix: (Units=GPa)
#
#
# Indices 1 2 3 4 5 6 
#
# 1 34.5766 25.7002 39.3255 0.0000 0.0000 0.0000
# 2 25.7002 89.0216 62.2610 0.0000 0.0000 0.0000
# 3 39.3255 62.2610 121.9761 0.0000 0.0000 0.0000
# 4 0.0000 0.0000 0.0000 19.1494 0.0000 0.0000
# 5 0.0000 0.0000 0.0000 0.0000 0.5866 0.0000
# 6 0.0000 0.0000 0.0000 0.0000 0.0000 9.0957
#
#
#
# Elastic Compliance Matrix: (Units=1/GPa)
#
#
# Indices 1 2 3 4 5 6 
#
# 1 0.046850 -0.004606 -0.012754 0.000000 0.000000 0.000000
# 2 -0.004606 0.017923 -0.007664 0.000000 0.000000 0.000000
# 3 -0.012754 -0.007664 0.016222 0.000000 0.000000 0.000000
# 4 0.000000 0.000000 0.000000 0.052221 0.000000 0.000000
# 5 0.000000 0.000000 0.000000 0.000000 1.704712 0.000000
# 6 0.000000 0.000000 0.000000 0.000000 0.000000 0.109942
#
#
# Mechanical properties :
#
#
# Convention : Reuss Voigt Hill
#
# Bulk Modulus (GPa) = 32.31140 55.57196 43.94168
# Shear Modulus (GPa) = 2.48975 13.65218 8.07097
#
# Velocity S-wave (km/s) = 1.24458 2.91437 2.24082
# Velocity P-wave (km/s) = 4.70824 6.77483 5.83377
#
# Compressibility (1/GPa) = 0.03094883
#
# Stress axis : x y z
#
# Youngs Moduli (GPa) = 21.34481 55.79530 61.64514
#
# Poissons Ratio (x) = 0.25697 0.78620
# Poissons Ratio (y) = 0.09831 0.47242
# Poissons Ratio (z) = 0.27222 0.42759
#
# Static dielectric constant tensor:
#      x y z
#    x 2.681950 0.000000 0.000000 
#    y 0.000000 3.085400 0.000000 
#    z 0.000000 0.000000 3.596650 
# 
# 
# High freq. dielectric constant tensor:
#      x y z
#    x 1.569190 0.000000 0.000000 
#    y 0.000000 1.608490 0.000000 
#    z 0.000000 0.000000 1.615330 
# 
# From -- ./inp_files/54859.got.cif
#   From: 2010.03.12/outbox.cif.g09.slc.cpg/sg65_28_cif.got.tgz:54859.got - 2010.04.10 20:52:16.
