data_PCOD8274318
_publ_section_title
;
Structure prediction by ZEFSAII (Michael W. Deem and Ramdas Pophale) SiO2 
 PCOD8274318
Probable space group: C M M M
;
_chemical_formula_sum "Si O2"
_cell_formula_units_Z 104
_cell_length_a 14.587656
_cell_length_b 19.513941
_cell_length_c 18.088510
_cell_angle_alpha 90.000000
_cell_angle_beta 90.000000
_cell_angle_gamma 90.000000
_cell_volume 5149.123345
_symmetry_space_group_name_H-M "C M M M"
_symmetry_group_IT_number 65
_symmetry_cell_setting 'orthorhombic'
loop_
_space_group_symop_operation_xyz
x,y,z
-x,-y,z
x,-y,-z
-x,y,-z
-x,-y,-z
x,y,-z
-x,y,z
x,-y,z
1/2+x,1/2+y,z
1/2-x,1/2-y,z
1/2+x,1/2-y,-z
1/2-x,1/2+y,-z
1/2-x,1/2-y,-z
1/2+x,1/2+y,-z
1/2-x,1/2+y,z
1/2+x,1/2-y,z
loop_
_atom_site_type_symbol
_atom_site_label
_atom_site_fract_x
_atom_site_fract_y
_atom_site_fract_z
Si Si1 0.100828 0.206264 0.338646
Si Si2 0.100459 0.635115 0.683556
Si Si3 0.600334 0.500000 0.412586
Si Si4 0.266113 0.420708 0.914782
Si Si5 0.106289 0.815475 0.170072
Si Si6 0.893282 0.659366 0.149021
Si Si7 0.766256 0.882650 0.413920
O O1 0.094365 0.287028 0.340842
O O2 0.125736 0.179215 0.257182
O O3 0.184554 0.188903 0.393974
O O4 0.000000 0.177574 0.363312
O O5 0.128639 0.631112 0.769102
O O6 0.175056 0.598702 0.631730
O O7 0.000000 0.600835 0.671650
O O8 0.500000 0.500000 0.375109
O O9 0.590891 0.500000 0.500000
O O10 0.655903 0.565601 0.386244
O O11 0.266604 0.500000 0.887509
O O12 0.337582 0.375421 0.868902
O O13 0.165235 0.387499 0.906262
O O14 0.294732 0.417351 0.000000
O O15 0.135376 0.739447 0.142074
O O16 0.000000 0.827361 0.152354
O O17 0.000000 0.650572 0.129647
O O18 0.741698 0.887709 0.500000
#
# Coordination Sequence:
#
# PCOD8274318 Si02
#       7
#    16  16   8  16  16  16  16
#     4   9  18  34  56  81 109 140 178 230 283 327
#     4   9  19  36  56  80 110 140 176 229 286 332
#     4   9  20  38  53  67  97 141 183 222 266 320
#     4  11  24  38  54  83 123 156 179 221 287 345
#     4   9  19  38  62  84 109 148 195 236 276 329
#     4   9  19  39  64  83 106 147 196 241 279 324
#     4  11  21  33  52  77 108 147 185 224 275 332
#
# _framework density 20.197613
#
# number of rings (size 3 to 8) (size 9 to 14) (size 15 to 20)
#    0.000    2.385    0.000    4.154    0.000    7.385 
#    5.538    5.000    0.000    1.385    0.000    0.000 
#    0.000    0.000    0.000    0.000    0.000    0.000 
#
# Total GULP energy -644568.181314 kJ/mol
# GULP energy per Si atom -12395.541948 kJ/mol
# Density = 2.015164 g / cm^3
# Si number density = 20.197613 Si / 1000 Ang^3
#
#
#
# Elastic Constant Matrix: (Units=GPa)
#
#
# Indices 1 2 3 4 5 6 
#
# 1 125.9883 48.5055 42.5005 0.0000 0.0000 0.0000
# 2 48.5055 83.4905 37.8940 0.0000 0.0000 0.0000
# 3 42.5005 37.8940 53.3145 0.0000 0.0000 0.0000
# 4 0.0000 0.0000 0.0000 23.4339 0.0000 0.0000
# 5 0.0000 0.0000 0.0000 0.0000 16.1707 0.0000
# 6 0.0000 0.0000 0.0000 0.0000 0.0000 132.9279
#
#
#
# Elastic Compliance Matrix: (Units=1/GPa)
#
#
# Indices 1 2 3 4 5 6 
#
# 1 0.011602 -0.003754 -0.006581 0.000000 0.000000 0.000000
# 2 -0.003754 0.018896 -0.010438 0.000000 0.000000 0.000000
# 3 -0.006581 -0.010438 0.031422 0.000000 0.000000 0.000000
# 4 0.000000 0.000000 0.000000 0.042673 0.000000 0.000000
# 5 0.000000 0.000000 0.000000 0.000000 0.061840 0.000000
# 6 0.000000 0.000000 0.000000 0.000000 0.000000 0.007523
#
#
# Mechanical properties :
#
#
# Convention : Reuss Voigt Hill
#
# Bulk Modulus (GPa) = 49.08143 57.84369 53.46256
# Shear Modulus (GPa) = 22.49280 43.43274 32.96277
#
# Velocity S-wave (km/s) = 3.34074 4.64226 4.04420
# Velocity P-wave (km/s) = 6.26371 7.57860 6.95231
#
# Compressibility (1/GPa) = 0.02037431
#
# Stress axis : x y z
#
# Youngs Moduli (GPa) = 86.18861 52.92191 31.82501
#
# Poissons Ratio (x) = 0.19865 0.20944
# Poissons Ratio (y) = 0.32353 0.33219
# Poissons Ratio (z) = 0.56721 0.55240
#
# Static dielectric constant tensor:
#      x y z
#    x 4.264340 0.000000 0.000000 
#    y 0.000000 3.566230 0.000000 
#    z 0.000000 0.000000 3.443770 
# 
# 
# High freq. dielectric constant tensor:
#      x y z
#    x 1.806270 0.000000 0.000000 
#    y 0.000000 1.774540 0.000000 
#    z 0.000000 0.000000 1.768020 
# 
# From -- ./inp_files/62835.got.cif
#   From: 2010.03.12/outbox.cif.g09.slc.cpg/sg65_32_cif.got.tgz:62835.got - 2010.04.10 20:52:16.
