data_PCOD8274924
_publ_section_title
;
Structure prediction by ZEFSAII (Michael W. Deem and Ramdas Pophale) SiO2 
 PCOD8274924
Probable space group: C M M M
;
_chemical_formula_sum "Si O2"
_cell_formula_units_Z 80
_cell_length_a 19.998468
_cell_length_b 7.827617
_cell_length_c 29.246079
_cell_angle_alpha 90.000000
_cell_angle_beta 90.000000
_cell_angle_gamma 90.000000
_cell_volume 4578.191387
_symmetry_space_group_name_H-M "C M M M"
_symmetry_group_IT_number 65
_symmetry_cell_setting 'orthorhombic'
loop_
_space_group_symop_operation_xyz
x,y,z
-x,-y,z
x,-y,-z
-x,y,-z
-x,-y,-z
x,y,-z
-x,y,z
x,-y,z
1/2+x,1/2+y,z
1/2-x,1/2-y,z
1/2+x,1/2-y,-z
1/2-x,1/2+y,-z
1/2-x,1/2-y,-z
1/2+x,1/2+y,-z
1/2-x,1/2+y,z
1/2+x,1/2-y,z
loop_
_atom_site_type_symbol
_atom_site_label
_atom_site_fract_x
_atom_site_fract_y
_atom_site_fract_z
Si Si1 0.920091 0.000000 0.888526
Si Si2 0.075755 0.797061 0.626342
Si Si3 0.676809 0.701221 0.449096
Si Si4 0.579494 0.189652 0.051343
Si Si5 0.079910 0.000000 0.785334
Si Si6 0.079344 0.689385 0.274870
O O1 0.891735 0.168513 0.914015
O O2 0.892535 0.000000 0.836943
O O3 0.000000 0.000000 0.889063
O O4 0.121442 0.723473 0.585388
O O5 0.104800 0.722901 0.673702
O O6 0.000000 0.734671 0.617350
O O7 0.078764 0.000000 0.629490
O O8 0.665825 0.779333 0.500000
O O9 0.669030 0.500000 0.451215
O O10 0.750000 0.750000 0.430603
O O11 0.500000 0.196270 0.051750
O O12 0.603574 0.000000 0.066613
O O13 0.605075 0.229653 0.000000
O O14 0.108267 0.830994 0.759958
O O15 0.000000 0.000000 0.785012
O O16 0.102258 0.500000 0.258948
O O17 0.000000 0.705160 0.275204
#
# Coordination Sequence:
#
# PCOD8274924 Si02
#       6
#     8  16  16  16   8  16
#     4   9  15  20  29  42  58  83 114 149 199 256
#     4   9  16  28  46  64  84 110 143 181 213 252
#     4   9  18  31  46  65  90 118 142 169 212 261
#     4   8  13  20  28  38  54  78 112 155 199 243
#     4   9  16  25  34  49  73  96 121 162 210 255
#     4   9  16  26  40  56  75 100 129 163 206 252
#
# _framework density 17.474150000000002
#
# number of rings (size 3 to 8) (size 9 to 14) (size 15 to 20)
#    0.000    3.200    1.000    0.900    0.000    3.200 
#    0.000    6.000    0.000    0.000    0.000    5.600 
#    0.000    0.000    0.000    0.000    0.000    0.000 
#
# Total GULP energy -495744.421015 kJ/mol
# GULP energy per Si atom -12393.610525 kJ/mol
# Density = 1.743438 g / cm^3
# Si number density = 17.474150 Si / 1000 Ang^3
#
#
#
# Elastic Constant Matrix: (Units=GPa)
#
#
# Indices 1 2 3 4 5 6 
#
# 1 32.6490 17.3124 37.2193 0.0000 0.0000 0.0000
# 2 17.3124 111.2274 77.5080 0.0000 0.0000 0.0000
# 3 37.2193 77.5080 152.1705 0.0000 0.0000 0.0000
# 4 0.0000 0.0000 0.0000 16.3931 0.0000 0.0000
# 5 0.0000 0.0000 0.0000 0.0000 -0.9044 0.0000
# 6 0.0000 0.0000 0.0000 0.0000 0.0000 9.0843
#
#
#
# Elastic Compliance Matrix: (Units=1/GPa)
#
#
# Indices 1 2 3 4 5 6 
#
# 1 0.042539 0.000975 -0.010901 0.000000 0.000000 0.000000
# 2 0.000975 0.013960 -0.007349 0.000000 0.000000 0.000000
# 3 -0.010901 -0.007349 0.012981 0.000000 0.000000 0.000000
# 4 0.000000 0.000000 0.000000 0.061001 0.000000 0.000000
# 5 0.000000 0.000000 0.000000 0.000000 -1.105753 0.000000
# 6 0.000000 0.000000 0.000000 0.000000 0.000000 0.110080
#
#
# Mechanical properties :
#
#
# Convention : Reuss Voigt Hill
#
# Bulk Modulus (GPa) = 28.62865 62.23624 45.43245
# Shear Modulus (GPa) = -6.10502 15.84842 4.87170
#
# Velocity S-wave (km/s) = -1.87118 3.01485 1.67153
# Velocity P-wave (km/s) = 3.42791 6.91467 5.45725
#
# Compressibility (1/GPa) = 0.03493004
#
# Stress axis : x y z
#
# Youngs Moduli (GPa) = 23.50782 71.63376 77.03462
#
# Poissons Ratio (x) = -0.06987 0.83979
# Poissons Ratio (y) = -0.02293 0.56613
# Poissons Ratio (z) = 0.25627 0.52644
#
# Static dielectric constant tensor:
#      x y z
#    x 2.628660 0.000000 0.000000 
#    y 0.000000 3.428590 0.000000 
#    z 0.000000 0.000000 3.502060 
# 
# 
# High freq. dielectric constant tensor:
#      x y z
#    x 1.589050 0.000000 0.000000 
#    y 0.000000 1.685010 0.000000 
#    z 0.000000 0.000000 1.677590 
# 
# From -- ./inp_files/71361.got.cif
#   From: 2010.03.12/outbox.cif.g09.slc.cpg/sg65_36_cif.got.tgz:71361.got - 2010.04.10 20:52:16.
