data_PCOD8274657
_publ_section_title
;
Structure prediction by ZEFSAII (Michael W. Deem and Ramdas Pophale) SiO2 
 PCOD8274657
Probable space group: C M M M
;
_chemical_formula_sum "Si O2"
_cell_formula_units_Z 88
_cell_length_a 18.901654
_cell_length_b 8.223163
_cell_length_c 30.030474
_cell_angle_alpha 90.000000
_cell_angle_beta 90.000000
_cell_angle_gamma 90.000000
_cell_volume 4667.678070
_symmetry_space_group_name_H-M "C M M M"
_symmetry_group_IT_number 65
_symmetry_cell_setting 'orthorhombic'
loop_
_space_group_symop_operation_xyz
x,y,z
-x,-y,z
x,-y,-z
-x,y,-z
-x,-y,-z
x,y,-z
-x,y,z
x,-y,z
1/2+x,1/2+y,z
1/2-x,1/2-y,z
1/2+x,1/2-y,-z
1/2-x,1/2+y,-z
1/2-x,1/2-y,-z
1/2+x,1/2+y,-z
1/2-x,1/2+y,z
1/2+x,1/2-y,z
loop_
_atom_site_type_symbol
_atom_site_label
_atom_site_fract_x
_atom_site_fract_y
_atom_site_fract_z
Si Si1 0.083771 0.185563 0.952021
Si Si2 0.416027 0.318702 0.398000
Si Si3 0.415752 0.000000 0.550752
Si Si4 0.421040 0.189434 0.860072
Si Si5 0.919776 0.187760 0.703305
Si Si6 0.671536 0.813336 0.781054
O O1 0.113372 0.281274 0.909038
O O2 0.000000 0.203046 0.952671
O O3 0.107305 0.000000 0.946845
O O4 0.112688 0.253113 0.000000
O O5 0.500000 0.322300 0.401507
O O6 0.388285 0.500000 0.413446
O O7 0.385715 0.167111 0.426918
O O8 0.393278 0.287048 0.347161
O O9 0.500000 0.000000 0.554550
O O10 0.389934 0.000000 0.500000
O O11 0.500000 0.267879 0.856880
O O12 0.371550 0.270405 0.821979
O O13 0.427584 0.000000 0.851338
O O14 0.868894 0.289836 0.734753
O O15 0.000000 0.252200 0.708670
O O16 0.915423 0.000000 0.716905
O O17 0.750000 0.750000 0.776750
O O18 0.677548 0.000000 0.792317
#
# Coordination Sequence:
#
# PCOD8274657 Si02
#       6
#    16  16   8  16  16  16
#     4   8  14  25  43  69  97 122 151 191 238 286
#     4   8  15  27  42  64  95 130 168 209 250 297
#     4   9  16  24  38  64  98 136 172 204 248 304
#     4   9  18  32  49  71  97 125 161 199 242 297
#     4   9  18  33  53  75  98 129 169 210 252 301
#     4  11  23  36  50  70  99 133 165 208 254 302
#
# _framework density 18.853058000000001
#
# number of rings (size 3 to 8) (size 9 to 14) (size 15 to 20)
#    0.000    3.000    0.000    2.727    1.273    3.273 
#    0.000    5.455    0.000    0.545    0.000    0.000 
#    0.000    0.727    0.364    0.000    0.000    0.000 
#
# Total GULP energy -545149.822851 kJ/mol
# GULP energy per Si atom -12389.768701 kJ/mol
# Density = 1.881015 g / cm^3
# Si number density = 18.853058 Si / 1000 Ang^3
#
#
#
# Elastic Constant Matrix: (Units=GPa)
#
#
# Indices 1 2 3 4 5 6 
#
# 1 56.3382 20.9226 42.2410 0.0000 0.0000 0.0000
# 2 20.9226 76.3226 54.7485 0.0000 0.0000 0.0000
# 3 42.2410 54.7485 144.0879 0.0000 0.0000 0.0000
# 4 0.0000 0.0000 0.0000 29.1684 0.0000 0.0000
# 5 0.0000 0.0000 0.0000 0.0000 -1.0485 0.0000
# 6 0.0000 0.0000 0.0000 0.0000 0.0000 9.4045
#
#
#
# Elastic Compliance Matrix: (Units=1/GPa)
#
#
# Indices 1 2 3 4 5 6 
#
# 1 0.022974 -0.002016 -0.005969 0.000000 0.000000 0.000000
# 2 -0.002016 0.018188 -0.006320 0.000000 0.000000 0.000000
# 3 -0.005969 -0.006320 0.011091 0.000000 0.000000 0.000000
# 4 0.000000 0.000000 0.000000 0.034284 0.000000 0.000000
# 5 0.000000 0.000000 0.000000 0.000000 -0.953767 0.000000
# 6 0.000000 0.000000 0.000000 0.000000 0.000000 0.106332
#
#
# Mechanical properties :
#
#
# Convention : Reuss Voigt Hill
#
# Bulk Modulus (GPa) = 42.29452 56.95253 49.62353
# Shear Modulus (GPa) = -6.90222 18.09398 5.59588
#
# Velocity S-wave (km/s) = -1.91547 3.10132 1.72470
# Velocity P-wave (km/s) = 4.19410 6.56495 5.50858
#
# Compressibility (1/GPa) = 0.02364372
#
# Stress axis : x y z
#
# Youngs Moduli (GPa) = 43.52718 54.97989 90.15947
#
# Poissons Ratio (x) = 0.11085 0.53817
# Poissons Ratio (y) = 0.08776 0.56980
# Poissons Ratio (z) = 0.25982 0.34747
#
# Static dielectric constant tensor:
#      x y z
#    x 3.279510 0.000000 0.000000 
#    y 0.000000 3.556890 0.000000 
#    z 0.000000 0.000000 3.250980 
# 
# 
# High freq. dielectric constant tensor:
#      x y z
#    x 1.665090 0.000000 0.000000 
#    y 0.000000 1.727980 0.000000 
#    z 0.000000 0.000000 1.745200 
# 
# From -- ./inp_files/77847.got.cif
#   From: 2010.03.12/outbox.cif.g09.slc.cpg/sg65_39_cif.got.tgz:77847.got - 2010.04.10 20:52:16.
