data_PCOD8274279
_publ_section_title
;
Structure prediction by ZEFSAII (Michael W. Deem and Ramdas Pophale) SiO2 
 PCOD8274279
Probable space group: C M M M
;
_chemical_formula_sum "Si O2"
_cell_formula_units_Z 72
_cell_length_a 8.933194
_cell_length_b 25.813324
_cell_length_c 19.871286
_cell_angle_alpha 90.000000
_cell_angle_beta 90.000000
_cell_angle_gamma 90.000000
_cell_volume 4582.227761
_symmetry_space_group_name_H-M "C M M M"
_symmetry_group_IT_number 65
_symmetry_cell_setting 'orthorhombic'
loop_
_space_group_symop_operation_xyz
x,y,z
-x,-y,z
x,-y,-z
-x,y,-z
-x,-y,-z
x,y,-z
-x,y,z
x,-y,z
1/2+x,1/2+y,z
1/2-x,1/2-y,z
1/2+x,1/2-y,-z
1/2-x,1/2+y,-z
1/2-x,1/2-y,-z
1/2+x,1/2+y,-z
1/2-x,1/2+y,z
1/2+x,1/2-y,z
loop_
_atom_site_type_symbol
_atom_site_label
_atom_site_fract_x
_atom_site_fract_y
_atom_site_fract_z
Si Si1 0.822380 0.939858 0.716495
Si Si2 0.167973 0.061478 0.428850
Si Si3 0.824122 0.697804 0.923507
Si Si4 0.322763 0.904724 0.152643
Si Si5 0.827092 0.000000 0.920595
O O1 0.760192 0.920917 0.642553
O O2 0.736160 0.905776 0.771079
O O3 0.000000 0.930996 0.721264
O O4 0.783924 0.000000 0.729674
O O5 0.249073 0.078935 0.500000
O O6 0.000000 0.083381 0.431418
O O7 0.161920 0.000000 0.426086
O O8 0.750000 0.750000 0.894727
O O9 0.771414 0.649879 0.878197
O O10 0.000000 0.705163 0.919960
O O11 0.770749 0.687468 0.000000
O O12 0.500000 0.911923 0.151019
O O13 0.249801 0.949314 0.108433
O O14 0.000000 0.000000 0.898547
O O15 0.806661 0.000000 0.000000
#
# Coordination Sequence:
#
# PCOD8274279 Si02
#       5
#    16  16  16  16   8
#     4   9  16  26  41  62  90 121 154 187 216 255
#     4   7  10  18  34  56  81 112 150 187 217 246
#     4   9  19  35  52  68  85 109 145 187 229 270
#     4  11  21  32  47  67  93 122 148 179 223 274
#     4  11  23  35  47  65  88 117 154 189 219 258
#
# _framework density 15.712880999999999
#
# number of rings (size 3 to 8) (size 9 to 14) (size 15 to 20)
#    0.000    2.778    1.111    3.667    0.000    3.556 
#    0.000    2.222    0.000    0.667    0.000    3.111 
#    0.000    0.889    0.000    2.000    0.000    3.111 
#
# Total GULP energy -445989.461901 kJ/mol
# GULP energy per Si atom -12388.596164 kJ/mol
# Density = 1.567712 g / cm^3
# Si number density = 15.712881 Si / 1000 Ang^3
#
#
#
# Elastic Constant Matrix: (Units=GPa)
#
#
# Indices 1 2 3 4 5 6 
#
# 1 43.0362 36.6760 41.1858 0.0000 0.0000 0.0000
# 2 36.6760 98.8080 67.8976 0.0000 0.0000 0.0000
# 3 41.1858 67.8976 146.4200 0.0000 0.0000 0.0000
# 4 0.0000 0.0000 0.0000 13.2459 0.0000 0.0000
# 5 0.0000 0.0000 0.0000 0.0000 14.4393 0.0000
# 6 0.0000 0.0000 0.0000 0.0000 0.0000 21.0227
#
#
#
# Elastic Compliance Matrix: (Units=1/GPa)
#
#
# Indices 1 2 3 4 5 6 
#
# 1 0.037227 -0.009720 -0.005964 0.000000 0.000000 0.000000
# 2 -0.009720 0.017392 -0.005331 0.000000 0.000000 0.000000
# 3 -0.005964 -0.005331 0.010979 0.000000 0.000000 0.000000
# 4 0.000000 0.000000 0.000000 0.075495 0.000000 0.000000
# 5 0.000000 0.000000 0.000000 0.000000 0.069256 0.000000
# 6 0.000000 0.000000 0.000000 0.000000 0.000000 0.047568
#
#
# Mechanical properties :
#
#
# Convention : Reuss Voigt Hill
#
# Bulk Modulus (GPa) = 42.42922 64.42032 53.42477
# Shear Modulus (GPa) = 16.24416 19.24188 17.74302
#
# Velocity S-wave (km/s) = 3.21878 3.50321 3.36401
# Velocity P-wave (km/s) = 6.39340 7.57963 7.01164
#
# Compressibility (1/GPa) = 0.02356867
#
# Stress axis : x y z
#
# Youngs Moduli (GPa) = 26.86189 57.49903 91.08044
#
# Poissons Ratio (x) = 0.55888 0.54323
# Poissons Ratio (y) = 0.26109 0.48553
# Poissons Ratio (z) = 0.16021 0.30651
#
# Static dielectric constant tensor:
#      x y z
#    x 2.811330 0.000000 0.000000 
#    y 0.000000 2.739490 0.000000 
#    z 0.000000 0.000000 3.570500 
# 
# 
# High freq. dielectric constant tensor:
#      x y z
#    x 1.583470 0.000000 0.000000 
#    y 0.000000 1.556080 0.000000 
#    z 0.000000 0.000000 1.623400 
# 
# From -- ./inp_files/59523.got.cif
#   From: 2010.03.12/outbox.cif.g09.slc.cpg/sg65_30_cif.got.tgz:59523.got - 2010.04.10 20:52:16.
