data_PCOD8274664
_publ_section_title
;
Structure prediction by ZEFSAII (Michael W. Deem and Ramdas Pophale) SiO2 
 PCOD8274664
Probable space group: C M M M
;
_chemical_formula_sum "Si O2"
_cell_formula_units_Z 64
_cell_length_a 17.918971
_cell_length_b 10.880713
_cell_length_c 16.661727
_cell_angle_alpha 90.000000
_cell_angle_beta 90.000000
_cell_angle_gamma 90.000000
_cell_volume 3248.556586
_symmetry_space_group_name_H-M "C M M M"
_symmetry_group_IT_number 65
_symmetry_cell_setting 'orthorhombic'
loop_
_space_group_symop_operation_xyz
x,y,z
-x,-y,z
x,-y,-z
-x,y,-z
-x,-y,-z
x,y,-z
-x,y,z
x,-y,z
1/2+x,1/2+y,z
1/2-x,1/2-y,z
1/2+x,1/2-y,-z
1/2-x,1/2+y,-z
1/2-x,1/2-y,-z
1/2+x,1/2+y,-z
1/2-x,1/2+y,z
1/2+x,1/2-y,z
loop_
_atom_site_type_symbol
_atom_site_label
_atom_site_fract_x
_atom_site_fract_y
_atom_site_fract_z
Si Si1 0.419258 0.139884 0.000000
Si Si2 0.339501 0.500000 0.592729
Si Si3 0.338057 0.000000 0.409410
Si Si4 0.416009 0.500000 0.094788
Si Si5 0.338431 0.753208 0.326713
Si Si6 0.661999 0.256508 0.144160
O O1 0.373970 0.164299 0.080870
O O2 0.500000 0.212162 0.000000
O O3 0.439046 0.000000 0.000000
O O4 0.366092 0.500000 0.500000
O O5 0.250768 0.500000 0.598103
O O6 0.370373 0.375519 0.636387
O O7 0.370569 0.125616 0.370856
O O8 0.365541 0.000000 0.500000
O O9 0.500000 0.500000 0.130449
O O10 0.367590 0.610495 0.125807
O O11 0.419390 0.500000 0.000000
O O12 0.250000 0.750000 0.335885
O O13 0.362351 0.773247 0.234709
O O14 0.750000 0.250000 0.133267
#
# Coordination Sequence:
#
# PCOD8274664 Si02
#       6
#     8   8   8   8  16  16
#     4  11  25  41  57  79 113 151 193 245 295 353
#     4   9  15  27  45  68 107 152 186 220 278 346
#     4   9  16  27  45  70 106 152 186 219 280 353
#     4  11  23  40  60  82 114 153 197 248 294 348
#     4   9  18  29  45  75 111 146 188 234 281 339
#     4  11  23  36  60  85 117 153 196 242 295 348
#
# _framework density 19.701056999999999
#
# number of rings (size 3 to 8) (size 9 to 14) (size 15 to 20)
#    0.000    2.000    1.250    2.625    3.500    5.000 
#    0.000    0.000    0.000    0.000    0.000    0.000 
#    0.000   45.000    0.000    0.000    0.000    0.000 
#
# Total GULP energy -396606.052925 kJ/mol
# GULP energy per Si atom -12393.939154 kJ/mol
# Density = 1.965622 g / cm^3
# Si number density = 19.701057 Si / 1000 Ang^3
#
#
#
# Elastic Constant Matrix: (Units=GPa)
#
#
# Indices 1 2 3 4 5 6 
#
# 1 72.6541 32.9656 44.7544 0.0000 0.0000 0.0000
# 2 32.9656 167.3409 80.2550 0.0000 0.0000 0.0000
# 3 44.7544 80.2550 182.6195 0.0000 0.0000 0.0000
# 4 0.0000 0.0000 0.0000 41.3956 0.0000 0.0000
# 5 0.0000 0.0000 0.0000 0.0000 -1.0583 0.0000
# 6 0.0000 0.0000 0.0000 0.0000 0.0000 -35.1143
#
#
#
# Elastic Compliance Matrix: (Units=1/GPa)
#
#
# Indices 1 2 3 4 5 6 
#
# 1 0.016571 -0.001668 -0.003328 0.000000 0.000000 0.000000
# 2 -0.001668 0.007740 -0.002992 0.000000 0.000000 0.000000
# 3 -0.003328 -0.002992 0.007606 0.000000 0.000000 0.000000
# 4 0.000000 0.000000 0.000000 0.024157 0.000000 0.000000
# 5 0.000000 0.000000 0.000000 0.000000 -0.944910 0.000000
# 6 0.000000 0.000000 0.000000 0.000000 0.000000 -0.028478
#
#
# Mechanical properties :
#
#
# Convention : Reuss Voigt Hill
#
# Bulk Modulus (GPa) = 62.73670 82.06270 72.39970
# Shear Modulus (GPa) = -5.58021 18.68723 6.55351
#
# Velocity S-wave (km/s) = -1.68481 3.08318 1.82584
# Velocity P-wave (km/s) = 5.30365 7.37693 6.42447
#
# Compressibility (1/GPa) = 0.01593963
#
# Stress axis : x y z
#
# Youngs Moduli (GPa) = 60.34728 129.20504 131.46704
#
# Poissons Ratio (x) = 0.21557 0.43749
# Poissons Ratio (y) = 0.10068 0.39341
# Poissons Ratio (z) = 0.20082 0.38664
#
# Static dielectric constant tensor:
#      x y z
#    x 3.220560 0.000000 0.000000 
#    y 0.000000 3.833610 0.000000 
#    z 0.000000 0.000000 4.949710 
# 
# 
# High freq. dielectric constant tensor:
#      x y z
#    x 1.717190 0.000000 0.000000 
#    y 0.000000 1.786820 0.000000 
#    z 0.000000 0.000000 1.781840 
# 
# From -- ./inp_files/41964.got.cif
#   From: 2010.03.12/outbox.cif.g09.slc.cpg/sg65_21_cif.got.tgz:41964.got - 2010.04.10 20:52:16.
