data_PCOD8274224
_publ_section_title
;
Structure prediction by ZEFSAII (Michael W. Deem and Ramdas Pophale) SiO2 
 PCOD8274224
Probable space group: C M M M
;
_chemical_formula_sum "Si O2"
_cell_formula_units_Z 96
_cell_length_a 28.645039
_cell_length_b 20.301465
_cell_length_c 8.813455
_cell_angle_alpha 90.000000
_cell_angle_beta 90.000000
_cell_angle_gamma 90.000000
_cell_volume 5125.343629
_symmetry_space_group_name_H-M "C M M M"
_symmetry_group_IT_number 65
_symmetry_cell_setting 'orthorhombic'
loop_
_space_group_symop_operation_xyz
x,y,z
-x,-y,z
x,-y,-z
-x,y,-z
-x,-y,-z
x,y,-z
-x,y,z
x,-y,z
1/2+x,1/2+y,z
1/2-x,1/2-y,z
1/2+x,1/2-y,-z
1/2-x,1/2+y,-z
1/2-x,1/2-y,-z
1/2+x,1/2+y,-z
1/2-x,1/2+y,z
1/2+x,1/2-y,z
loop_
_atom_site_type_symbol
_atom_site_label
_atom_site_fract_x
_atom_site_fract_y
_atom_site_fract_z
Si Si1 0.053870 0.331041 0.179686
Si Si2 0.211608 0.651824 0.830358
Si Si3 0.554757 0.569700 0.673176
Si Si4 0.870893 0.423714 0.322252
Si Si5 0.810143 0.195161 0.170620
Si Si6 0.096136 0.200614 0.322612
O O1 0.084325 0.391742 0.241060
O O2 0.076601 0.263597 0.236188
O O3 0.000000 0.337393 0.234974
O O4 0.056664 0.331979 0.000000
O O5 0.177995 0.611023 0.720059
O O6 0.200796 0.728241 0.828579
O O7 0.266275 0.648583 0.781667
O O8 0.204601 0.623414 0.000000
O O9 0.572100 0.572275 0.500000
O O10 0.500000 0.569762 0.682439
O O11 0.573194 0.500000 0.745511
O O12 0.572349 0.636066 0.752745
O O13 0.878280 0.414787 0.500000
O O14 0.868443 0.500000 0.274561
O O15 0.849580 0.186524 0.296448
O O16 0.826342 0.175563 0.000000
O O17 0.085430 0.210475 0.500000
#
# Coordination Sequence:
#
# PCOD8274224 Si02
#       6
#    16  16  16  16  16  16
#     4  11  24  40  58  81 111 149 193 238 283 338
#     4   9  18  35  58  81 107 144 185 222 263 323
#     4   8  15  29  48  71 103 143 182 217 260 320
#     4  11  24  40  59  85 116 147 184 237 294 342
#     4   9  18  33  55  82 111 142 179 222 267 320
#     4  11  20  31  54  87 115 144 181 231 286 331
#
# _framework density 18.730452
#
# number of rings (size 3 to 8) (size 9 to 14) (size 15 to 20)
#    0.000    2.167    1.667    3.500    0.000    4.333 
#    0.000    4.167    0.000    5.000    0.000    5.833 
#    0.000    0.000    0.000    0.000    0.000    0.000 
#
# Total GULP energy -594738.426455 kJ/mol
# GULP energy per Si atom -12390.383884 kJ/mol
# Density = 1.868782 g / cm^3
# Si number density = 18.730452 Si / 1000 Ang^3
#
#
#
# Elastic Constant Matrix: (Units=GPa)
#
#
# Indices 1 2 3 4 5 6 
#
# 1 111.4955 57.0818 35.2348 0.0000 0.0000 0.0000
# 2 57.0818 107.0757 29.0924 0.0000 0.0000 0.0000
# 3 35.2348 29.0924 54.1143 0.0000 0.0000 0.0000
# 4 0.0000 0.0000 0.0000 -2.7977 0.0000 0.0000
# 5 0.0000 0.0000 0.0000 0.0000 11.9509 0.0000
# 6 0.0000 0.0000 0.0000 0.0000 0.0000 25.5509
#
#
#
# Elastic Compliance Matrix: (Units=1/GPa)
#
#
# Indices 1 2 3 4 5 6 
#
# 1 0.013766 -0.005742 -0.005876 0.000000 0.000000 0.000000
# 2 -0.005742 0.013332 -0.003429 0.000000 0.000000 0.000000
# 3 -0.005876 -0.003429 0.024149 0.000000 0.000000 0.000000
# 4 0.000000 0.000000 0.000000 -0.357434 0.000000 0.000000
# 5 0.000000 0.000000 0.000000 0.000000 0.083676 0.000000
# 6 0.000000 0.000000 0.000000 0.000000 0.000000 0.039138
#
#
# Mechanical properties :
#
#
# Convention : Reuss Voigt Hill
#
# Bulk Modulus (GPa) = 47.27514 57.27816 52.27665
# Shear Modulus (GPa) = -34.19261 17.02592 -8.58335
#
# Velocity S-wave (km/s) = -4.27723 3.01823 -2.14301
# Velocity P-wave (km/s) = 0.94950 6.54163 4.67410
#
# Compressibility (1/GPa) = 0.02115277
#
# Stress axis : x y z
#
# Youngs Moduli (GPa) = 72.64501 75.00916 41.41007
#
# Poissons Ratio (x) = 0.43069 0.24333
# Poissons Ratio (y) = 0.41712 0.14198
# Poissons Ratio (z) = 0.42687 0.25718
#
# Static dielectric constant tensor:
#      x y z
#    x 0.161780 0.000000 0.000000 
#    y 0.000000 3.619070 0.000000 
#    z 0.000000 0.000000 3.382680 
# 
# 
# High freq. dielectric constant tensor:
#      x y z
#    x 1.732890 0.000000 0.000000 
#    y 0.000000 1.724500 0.000000 
#    z 0.000000 0.000000 1.710300 
# 
# From -- ./inp_files/16357.got.cif
#   From: 2010.03.12/outbox.cif.g09.slc.cpg/sg65_9_cif.got.tgz:16357.got - 2010.04.10 20:52:16.
