data_PCOD8274488
_publ_section_title
;
Structure prediction by ZEFSAII (Michael W. Deem and Ramdas Pophale) SiO2 
 PCOD8274488
Probable space group: C M M M
;
_chemical_formula_sum "Si O2"
_cell_formula_units_Z 72
_cell_length_a 16.075954
_cell_length_b 8.659503
_cell_length_c 24.349464
_cell_angle_alpha 90.000000
_cell_angle_beta 90.000000
_cell_angle_gamma 90.000000
_cell_volume 3389.683329
_symmetry_space_group_name_H-M "C M M M"
_symmetry_group_IT_number 65
_symmetry_cell_setting 'orthorhombic'
loop_
_space_group_symop_operation_xyz
x,y,z
-x,-y,z
x,-y,-z
-x,y,-z
-x,-y,-z
x,y,-z
-x,y,z
x,-y,z
1/2+x,1/2+y,z
1/2-x,1/2-y,z
1/2+x,1/2-y,-z
1/2-x,1/2+y,-z
1/2-x,1/2-y,-z
1/2+x,1/2+y,-z
1/2-x,1/2+y,z
1/2+x,1/2-y,z
loop_
_atom_site_type_symbol
_atom_site_label
_atom_site_fract_x
_atom_site_fract_y
_atom_site_fract_z
Si Si1 0.162501 0.817738 0.880404
Si Si2 0.593640 0.683421 0.559498
Si Si3 0.000000 0.676120 0.064947
Si Si4 0.663120 0.316842 0.672427
Si Si5 0.905789 0.676164 0.224618
O O1 0.250000 0.750000 0.903112
O O2 0.152946 0.769309 0.816844
O O3 0.084291 0.756222 0.914637
O O4 0.165612 0.000000 0.885863
O O5 0.630675 0.737639 0.500000
O O6 0.500000 0.746183 0.564917
O O7 0.592816 0.500000 0.562049
O O8 0.645515 0.748921 0.610977
O O9 0.000000 0.500000 0.086258
O O10 0.000000 0.685612 0.000000
O O11 0.662221 0.500000 0.673143
O O12 0.750000 0.250000 0.692773
O O13 0.595618 0.253530 0.715237
O O14 0.874666 0.500000 0.228071
O O15 0.000000 0.684746 0.202490
#
# Coordination Sequence:
#
# PCOD8274488 Si02
#       5
#    16  16   8  16  16
#     4  12  25  43  70 101 137 178 224 274 327 387
#     4   8  15  30  52  76 102 138 187 243 301 364
#     4  11  25  47  73 103 141 181 224 273 324 381
#     4  11  22  35  53  80 115 152 197 247 303 371
#     4  11  23  40  63  89 123 161 204 259 320 383
#
# _framework density 21.240922000000001
#
# number of rings (size 3 to 8) (size 9 to 14) (size 15 to 20)
#    0.000    1.444    1.111    5.667    0.000    4.000 
#    0.000    0.000    0.000    2.000    0.000    7.778 
#    0.000    0.000    0.000    0.000    0.000    0.000 
#
# Total GULP energy -446385.252312 kJ/mol
# GULP energy per Si atom -12399.590342 kJ/mol
# Density = 2.119258 g / cm^3
# Si number density = 21.240922 Si / 1000 Ang^3
#
#
#
# Elastic Constant Matrix: (Units=GPa)
#
#
# Indices 1 2 3 4 5 6 
#
# 1 124.3120 55.4536 40.2565 0.0000 0.0000 0.0000
# 2 55.4536 142.4626 46.8618 0.0000 0.0000 0.0000
# 3 40.2565 46.8618 103.5090 0.0000 0.0000 0.0000
# 4 0.0000 0.0000 0.0000 28.0434 0.0000 0.0000
# 5 0.0000 0.0000 0.0000 0.0000 24.0080 0.0000
# 6 0.0000 0.0000 0.0000 0.0000 0.0000 29.9260
#
#
#
# Elastic Compliance Matrix: (Units=1/GPa)
#
#
# Indices 1 2 3 4 5 6 
#
# 1 0.010285 -0.003158 -0.002570 0.000000 0.000000 0.000000
# 2 -0.003158 0.009217 -0.002945 0.000000 0.000000 0.000000
# 3 -0.002570 -0.002945 0.011994 0.000000 0.000000 0.000000
# 4 0.000000 0.000000 0.000000 0.035659 0.000000 0.000000
# 5 0.000000 0.000000 0.000000 0.000000 0.041653 0.000000
# 6 0.000000 0.000000 0.000000 0.000000 0.000000 0.033416
#
#
# Mechanical properties :
#
#
# Convention : Reuss Voigt Hill
#
# Bulk Modulus (GPa) = 70.67081 72.82528 71.74805
# Shear Modulus (GPa) = 30.43448 31.57626 31.00537
#
# Velocity S-wave (km/s) = 3.78937 3.85980 3.82475
# Velocity P-wave (km/s) = 7.24493 7.36368 7.30455
#
# Compressibility (1/GPa) = 0.01415011
#
# Stress axis : x y z
#
# Youngs Moduli (GPa) = 97.22480 108.49141 83.37606
#
# Poissons Ratio (x) = 0.34263 0.21431
# Poissons Ratio (y) = 0.30705 0.24552
# Poissons Ratio (z) = 0.24991 0.31948
#
# Static dielectric constant tensor:
#      x y z
#    x 3.783480 0.000000 0.000000 
#    y 0.000000 3.638460 0.000000 
#    z 0.000000 0.000000 4.082220 
# 
# 
# High freq. dielectric constant tensor:
#      x y z
#    x 1.834070 0.000000 0.000000 
#    y 0.000000 1.817930 0.000000 
#    z 0.000000 0.000000 1.844710 
# 
# From -- ./inp_files/72534.got.cif
#   From: 2010.03.12/outbox.cif.g09.slc.cpg/sg65_37_cif.got.tgz:72534.got - 2010.04.10 20:52:16.
