data_PCOD8274514
_publ_section_title
;
Structure prediction by ZEFSAII (Michael W. Deem and Ramdas Pophale) SiO2 
 PCOD8274514
Probable space group: C M M M
;
_chemical_formula_sum "Si O2"
_cell_formula_units_Z 72
_cell_length_a 16.872063
_cell_length_b 13.773679
_cell_length_c 16.264072
_cell_angle_alpha 90.000000
_cell_angle_beta 90.000000
_cell_angle_gamma 90.000000
_cell_volume 3779.613870
_symmetry_space_group_name_H-M "C M M M"
_symmetry_group_IT_number 65
_symmetry_cell_setting 'orthorhombic'
loop_
_space_group_symop_operation_xyz
x,y,z
-x,-y,z
x,-y,-z
-x,y,-z
-x,-y,-z
x,y,-z
-x,y,z
x,-y,z
1/2+x,1/2+y,z
1/2-x,1/2-y,z
1/2+x,1/2-y,-z
1/2-x,1/2+y,-z
1/2-x,1/2-y,-z
1/2+x,1/2+y,-z
1/2-x,1/2+y,z
1/2+x,1/2-y,z
loop_
_atom_site_type_symbol
_atom_site_label
_atom_site_fract_x
_atom_site_fract_y
_atom_site_fract_z
Si Si1 0.092283 0.286759 0.410215
Si Si2 0.160074 0.220752 0.157614
Si Si3 0.593963 0.387823 0.000000
Si Si4 0.091273 0.110140 0.695772
Si Si5 0.093527 0.392810 0.748638
O O1 0.132137 0.305415 0.500000
O O2 0.105447 0.174271 0.385519
O O3 0.129643 0.354555 0.338566
O O4 0.000000 0.310254 0.417341
O O5 0.250000 0.250000 0.143029
O O6 0.149749 0.145456 0.232414
O O7 0.114516 0.321104 0.176900
O O8 0.125866 0.169125 0.078166
O O9 0.623638 0.500000 0.000000
O O10 0.500000 0.385113 0.000000
O O11 0.000000 0.121765 0.726422
O O12 0.111431 0.000000 0.672746
O O13 0.128180 0.500000 0.766666
O O14 0.000000 0.396180 0.740662
#
# Coordination Sequence:
#
# PCOD8274514 Si02
#       5
#    16  16   8  16  16
#     4   8  14  25  44  74 107 134 169 221 270 307
#     4  11  22  36  54  79 108 135 167 209 254 302
#     4  11  23  40  63  85 105 131 164 205 254 308
#     4   9  17  31  52  76 104 139 177 217 263 313
#     4   9  18  33  52  73 101 140 180 214 253 303
#
# _framework density 19.049564
#
# number of rings (size 3 to 8) (size 9 to 14) (size 15 to 20)
#    0.000    2.556    0.000    4.333    0.000    4.444 
#    0.000    5.000    0.000   12.667    0.000   12.444 
#    0.000    0.000    0.000    0.000    0.000    0.000 
#
# Total GULP energy -446179.997216 kJ/mol
# GULP energy per Si atom -12393.888812 kJ/mol
# Density = 1.900621 g / cm^3
# Si number density = 19.049564 Si / 1000 Ang^3
#
#
#
# Elastic Constant Matrix: (Units=GPa)
#
#
# Indices 1 2 3 4 5 6 
#
# 1 43.9091 28.1810 27.9495 0.0000 0.0000 0.0000
# 2 28.1810 174.8472 65.9695 0.0000 0.0000 0.0000
# 3 27.9495 65.9695 129.3634 0.0000 0.0000 0.0000
# 4 0.0000 0.0000 0.0000 23.6738 0.0000 0.0000
# 5 0.0000 0.0000 0.0000 0.0000 -10.9039 0.0000
# 6 0.0000 0.0000 0.0000 0.0000 0.0000 13.3748
#
#
#
# Elastic Compliance Matrix: (Units=1/GPa)
#
#
# Indices 1 2 3 4 5 6 
#
# 1 0.027400 -0.002703 -0.004542 0.000000 0.000000 0.000000
# 2 -0.002703 0.007348 -0.003163 0.000000 0.000000 0.000000
# 3 -0.004542 -0.003163 0.010325 0.000000 0.000000 0.000000
# 4 0.000000 0.000000 0.000000 0.042241 0.000000 0.000000
# 5 0.000000 0.000000 0.000000 0.000000 -0.091710 0.000000
# 6 0.000000 0.000000 0.000000 0.000000 0.000000 0.074768
#
#
# Mechanical properties :
#
#
# Convention : Reuss Voigt Hill
#
# Bulk Modulus (GPa) = 41.22448 65.81328 53.51888
# Shear Modulus (GPa) = 50.36658 20.29692 35.33175
#
# Velocity S-wave (km/s) = 5.14754 3.26771 4.31133
# Velocity P-wave (km/s) = 7.55097 6.99004 7.27591
#
# Compressibility (1/GPa) = 0.02425743
#
# Stress axis : x y z
#
# Youngs Moduli (GPa) = 36.49669 136.08331 96.85591
#
# Poissons Ratio (x) = 0.36778 0.43988
# Poissons Ratio (y) = 0.09864 0.30640
# Poissons Ratio (z) = 0.16575 0.43049
#
# Static dielectric constant tensor:
#      x y z
#    x 3.173470 0.000000 0.000000 
#    y 0.000000 3.974090 0.000000 
#    z 0.000000 0.000000 3.630810 
# 
# 
# High freq. dielectric constant tensor:
#      x y z
#    x 1.704340 0.000000 0.000000 
#    y 0.000000 1.752720 0.000000 
#    z 0.000000 0.000000 1.734110 
# 
# From -- ./inp_files/39741.got.cif
#   From: 2010.03.12/outbox.cif.g09.slc.cpg/sg65_20_cif.got.tgz:39741.got - 2010.04.10 20:52:16.
