data_PCOD8274820
_publ_section_title
;
Structure prediction by ZEFSAII (Michael W. Deem and Ramdas Pophale) SiO2 
 PCOD8274820
Probable space group: C M M M
;
_chemical_formula_sum "Si O2"
_cell_formula_units_Z 88
_cell_length_a 28.847927
_cell_length_b 13.452812
_cell_length_c 14.046328
_cell_angle_alpha 90.000000
_cell_angle_beta 90.000000
_cell_angle_gamma 90.000000
_cell_volume 5451.179575
_symmetry_space_group_name_H-M "C M M M"
_symmetry_group_IT_number 65
_symmetry_cell_setting 'orthorhombic'
loop_
_space_group_symop_operation_xyz
x,y,z
-x,-y,z
x,-y,-z
-x,y,-z
-x,-y,-z
x,y,-z
-x,y,z
x,-y,z
1/2+x,1/2+y,z
1/2-x,1/2-y,z
1/2+x,1/2-y,-z
1/2-x,1/2+y,-z
1/2-x,1/2-y,-z
1/2+x,1/2+y,-z
1/2-x,1/2+y,z
1/2+x,1/2-y,z
loop_
_atom_site_type_symbol
_atom_site_label
_atom_site_fract_x
_atom_site_fract_y
_atom_site_fract_z
Si Si1 0.000000 0.392903 0.888314
Si Si2 0.324818 0.385576 0.389184
Si Si3 0.779031 0.617346 0.604481
Si Si4 0.899100 0.618683 0.890390
Si Si5 0.551804 0.116111 0.608145
Si Si6 0.862399 0.292133 0.286952
O O1 0.951099 0.340618 0.863291
O O2 0.000000 0.500000 0.836132
O O3 0.000000 0.412480 0.000000
O O4 0.338994 0.371950 0.500000
O O5 0.329590 0.500000 0.358864
O O6 0.272743 0.342281 0.372789
O O7 0.357591 0.323058 0.317720
O O8 0.794947 0.655172 0.500000
O O9 0.773950 0.500000 0.603530
O O10 0.817442 0.648585 0.678976
O O11 0.895064 0.500000 0.869513
O O12 0.864533 0.685339 0.826171
O O13 0.886666 0.640333 0.000000
O O14 0.555520 0.154242 0.500000
O O15 0.500000 0.139167 0.648067
O O16 0.589656 0.170210 0.670486
O O17 0.562200 0.000000 0.611868
#
# Coordination Sequence:
#
# PCOD8274820 Si02
#       6
#     8  16  16  16  16  16
#     4   7  12  26  44  60  86 121 148 176 220 271
#     4   9  19  34  49  67  93 122 155 199 240 269
#     4   9  17  29  46  71  98 119 145 186 235 285
#     4   9  18  30  44  67  97 124 152 190 233 276
#     4   9  18  29  39  61  99 128 143 171 222 284
#     4  12  19  26  48  71  89 121 163 190 223 276
#
# _framework density 16.143294999999998
#
# number of rings (size 3 to 8) (size 9 to 14) (size 15 to 20)
#    0.000    2.636    0.000    6.545    1.273    2.909 
#    0.000    0.000    0.000    3.273    0.000    5.091 
#    0.000    2.182    0.000    0.000    0.000    0.000 
#
# Total GULP energy -545157.450595 kJ/mol
# GULP energy per Si atom -12389.942059 kJ/mol
# Density = 1.610655 g / cm^3
# Si number density = 16.143295 Si / 1000 Ang^3
#
#
#
# Elastic Constant Matrix: (Units=GPa)
#
#
# Indices 1 2 3 4 5 6 
#
# 1 75.2605 30.8114 53.2266 0.0000 0.0000 0.0000
# 2 30.8114 45.3686 40.8016 0.0000 0.0000 0.0000
# 3 53.2266 40.8016 94.8247 0.0000 0.0000 0.0000
# 4 0.0000 0.0000 0.0000 21.4215 0.0000 0.0000
# 5 0.0000 0.0000 0.0000 0.0000 22.0669 0.0000
# 6 0.0000 0.0000 0.0000 0.0000 0.0000 19.2417
#
#
#
# Elastic Compliance Matrix: (Units=1/GPa)
#
#
# Indices 1 2 3 4 5 6 
#
# 1 0.023183 -0.006592 -0.010176 0.000000 0.000000 0.000000
# 2 -0.006592 0.037830 -0.012577 0.000000 0.000000 0.000000
# 3 -0.010176 -0.012577 0.021670 0.000000 0.000000 0.000000
# 4 0.000000 0.000000 0.000000 0.046682 0.000000 0.000000
# 5 0.000000 0.000000 0.000000 0.000000 0.045317 0.000000
# 6 0.000000 0.000000 0.000000 0.000000 0.000000 0.051971
#
#
# Mechanical properties :
#
#
# Convention : Reuss Voigt Hill
#
# Bulk Modulus (GPa) = 41.68284 51.68145 46.68215
# Shear Modulus (GPa) = 17.04499 18.58697 17.81598
#
# Velocity S-wave (km/s) = 3.25292 3.39687 3.32567
# Velocity P-wave (km/s) = 6.32339 6.88975 6.61264
#
# Compressibility (1/GPa) = 0.02399069
#
# Stress axis : x y z
#
# Youngs Moduli (GPa) = 43.13456 26.43408 46.14728
#
# Poissons Ratio (x) = 0.17427 0.46962
# Poissons Ratio (y) = 0.28436 0.58040
# Poissons Ratio (z) = 0.43896 0.33247
#
# Static dielectric constant tensor:
#      x y z
#    x 3.197010 0.000000 0.000000 
#    y 0.000000 2.862050 0.000000 
#    z 0.000000 0.000000 3.019590 
# 
# 
# High freq. dielectric constant tensor:
#      x y z
#    x 1.620540 0.000000 0.000000 
#    y 0.000000 1.588070 0.000000 
#    z 0.000000 0.000000 1.606210 
# 
# From -- ./inp_files/46912.got.cif
#   From: 2010.03.12/outbox.cif.g09.slc.cpg/sg65_24_cif.got.tgz:46912.got - 2010.04.10 20:52:16.
