data_PCOD8274798
_publ_section_title
;
Structure prediction by ZEFSAII (Michael W. Deem and Ramdas Pophale) SiO2 
 PCOD8274798
Probable space group: C M M M
;
_chemical_formula_sum "Si O2"
_cell_formula_units_Z 56
_cell_length_a 8.718096
_cell_length_b 17.892406
_cell_length_c 17.651464
_cell_angle_alpha 90.000000
_cell_angle_beta 90.000000
_cell_angle_gamma 90.000000
_cell_volume 2753.411504
_symmetry_space_group_name_H-M "C M M M"
_symmetry_group_IT_number 65
_symmetry_cell_setting 'orthorhombic'
loop_
_space_group_symop_operation_xyz
x,y,z
-x,-y,z
x,-y,-z
-x,y,-z
-x,-y,-z
x,y,-z
-x,y,z
x,-y,z
1/2+x,1/2+y,z
1/2-x,1/2-y,z
1/2+x,1/2-y,-z
1/2-x,1/2+y,-z
1/2-x,1/2-y,-z
1/2+x,1/2+y,-z
1/2-x,1/2+y,z
1/2+x,1/2-y,z
loop_
_atom_site_type_symbol
_atom_site_label
_atom_site_fract_x
_atom_site_fract_y
_atom_site_fract_z
Si Si1 0.680286 0.330878 0.779438
Si Si2 0.177276 0.585774 0.087252
Si Si3 0.319670 0.331341 0.500000
Si Si4 0.675798 0.087965 0.358586
O O1 0.500000 0.326582 0.767434
O O2 0.750000 0.250000 0.764328
O O3 0.717836 0.359243 0.863766
O O4 0.753066 0.389348 0.721402
O O5 0.222723 0.500000 0.103213
O O6 0.000000 0.598865 0.108522
O O7 0.207098 0.605866 0.000000
O O8 0.500000 0.324097 0.500000
O O9 0.250000 0.250000 0.500000
O O10 0.268854 0.374595 0.574363
O O11 0.500000 0.114437 0.362555
O O12 0.689877 0.000000 0.367725
#
# Coordination Sequence:
#
# PCOD8274798 Si02
#       4
#    16  16   8  16
#     4  12  25  40  60  87 121 159 201 249 300 354
#     4   9  19  38  63  89 119 156 197 243 298 359
#     4  12  25  42  65  93 127 161 199 246 295 350
#     4  11  24  43  66  91 122 159 199 244 297 356
#
# _framework density 20.338405000000002
#
# number of rings (size 3 to 8) (size 9 to 14) (size 15 to 20)
#    0.000    1.143    0.000    7.714    0.000    9.143 
#    0.000    1.429    0.000    0.000    0.000    0.000 
#    0.000    0.000    0.000    0.000    0.000    0.000 
#
# Total GULP energy -347398.480707 kJ/mol
# GULP energy per Si atom -12407.088597 kJ/mol
# Density = 2.029211 g / cm^3
# Si number density = 20.338405 Si / 1000 Ang^3
#
#
#
# Elastic Constant Matrix: (Units=GPa)
#
#
# Indices 1 2 3 4 5 6 
#
# 1 169.9982 63.4227 53.3847 0.0000 0.0000 0.0000
# 2 63.4227 84.0053 39.8242 0.0000 0.0000 0.0000
# 3 53.3847 39.8242 108.5298 0.0000 0.0000 0.0000
# 4 0.0000 0.0000 0.0000 -3.3401 0.0000 0.0000
# 5 0.0000 0.0000 0.0000 0.0000 108.0561 0.0000
# 6 0.0000 0.0000 0.0000 0.0000 0.0000 34.1372
#
#
#
# Elastic Compliance Matrix: (Units=1/GPa)
#
#
# Indices 1 2 3 4 5 6 
#
# 1 0.008617 -0.005443 -0.002241 0.000000 0.000000 0.000000
# 2 -0.005443 0.017849 -0.003872 0.000000 0.000000 0.000000
# 3 -0.002241 -0.003872 0.011737 0.000000 0.000000 0.000000
# 4 0.000000 0.000000 0.000000 -0.299391 0.000000 0.000000
# 5 0.000000 0.000000 0.000000 0.000000 0.009254 0.000000
# 6 0.000000 0.000000 0.000000 0.000000 0.000000 0.029294
#
#
# Mechanical properties :
#
#
# Convention : Reuss Voigt Hill
#
# Bulk Modulus (GPa) = 66.26774 75.08851 70.67812
# Shear Modulus (GPa) = -25.70748 41.49741 7.89496
#
# Velocity S-wave (km/s) = -3.55912 4.52192 1.97237
# Velocity P-wave (km/s) = 3.97033 8.01645 6.32562
#
# Compressibility (1/GPa) = 0.01509030
#
# Stress axis : x y z
#
# Youngs Moduli (GPa) = 116.05001 56.02484 85.19782
#
# Poissons Ratio (x) = 0.30495 0.19095
# Poissons Ratio (y) = 0.63168 0.32990
# Poissons Ratio (z) = 0.26010 0.21694
#
# Static dielectric constant tensor:
#      x y z
#    x 3.813620 0.000000 0.000000 
#    y 0.000000 3.714760 0.000000 
#    z 0.000000 0.000000 3.888690 
# 
# 
# High freq. dielectric constant tensor:
#      x y z
#    x 1.802390 0.000000 0.000000 
#    y 0.000000 1.803800 0.000000 
#    z 0.000000 0.000000 1.811060 
# 
# From -- ./inp_files/48750.got.cif
#   From: 2010.03.12/outbox.cif.g09.slc.cpg/sg65_25_cif.got.tgz:48750.got - 2010.04.10 20:52:16.
