data_PCOD8274602
_publ_section_title
;
Structure prediction by ZEFSAII (Michael W. Deem and Ramdas Pophale) SiO2 
 PCOD8274602
Probable space group: C M M M
;
_chemical_formula_sum "Si O2"
_cell_formula_units_Z 88
_cell_length_a 21.091692
_cell_length_b 8.874753
_cell_length_c 25.304984
_cell_angle_alpha 90.000000
_cell_angle_beta 90.000000
_cell_angle_gamma 90.000000
_cell_volume 4736.676911
_symmetry_space_group_name_H-M "C M M M"
_symmetry_group_IT_number 65
_symmetry_cell_setting 'orthorhombic'
loop_
_space_group_symop_operation_xyz
x,y,z
-x,-y,z
x,-y,-z
-x,y,-z
-x,-y,-z
x,y,-z
-x,y,z
x,-y,z
1/2+x,1/2+y,z
1/2-x,1/2-y,z
1/2+x,1/2-y,-z
1/2-x,1/2+y,-z
1/2-x,1/2-y,-z
1/2+x,1/2+y,-z
1/2-x,1/2+y,z
1/2+x,1/2-y,z
loop_
_atom_site_type_symbol
_atom_site_label
_atom_site_fract_x
_atom_site_fract_y
_atom_site_fract_z
Si Si1 0.572145 0.822261 0.211993
Si Si2 0.075733 0.669434 0.000000
Si Si3 0.816678 0.678421 0.500000
Si Si4 0.424884 0.668058 0.103997
Si Si5 0.000000 0.826436 0.559853
Si Si6 0.682907 0.820521 0.291739
Si Si7 0.630934 0.677269 0.396768
O O1 0.500000 0.766776 0.226592
O O2 0.595539 0.755849 0.156458
O O3 0.624198 0.769051 0.254663
O O4 0.571905 0.000000 0.206403
O O5 0.103118 0.750733 0.947848
O O6 0.101506 0.500000 0.000000
O O7 0.000000 0.672346 0.000000
O O8 0.815161 0.500000 0.500000
O O9 0.750000 0.750000 0.500000
O O10 0.849832 0.741541 0.449375
O O11 0.500000 0.663934 0.099527
O O12 0.396746 0.500000 0.106624
O O13 0.943562 0.788419 0.600488
O O14 0.000000 0.747512 0.500000
O O15 0.000000 0.000000 0.545339
O O16 0.750000 0.750000 0.272327
O O17 0.666543 0.757329 0.349045
O O18 0.689752 0.000000 0.293345
O O19 0.647716 0.500000 0.396103
#
# Coordination Sequence:
#
# PCOD8274602 Si02
#       7
#    16   8   8  16   8  16  16
#     4   9  19  36  56  78 108 145 184 228 278 330
#     4   9  15  23  39  65 102 147 186 221 270 327
#     4  12  24  39  58  81 107 140 178 220 271 324
#     4   9  16  26  43  71 106 141 181 228 275 324
#     4   9  18  36  60  86 114 142 172 211 266 327
#     4  11  24  41  60  83 112 146 187 233 279 329
#     4  11  22  39  61  84 112 143 178 220 269 327
#
# _framework density 18.578427000000001
#
# number of rings (size 3 to 8) (size 9 to 14) (size 15 to 20)
#    0.000    2.000    0.909    3.273    1.273    4.727 
#    0.000    1.818    0.000    0.000    0.000    0.636 
#    0.000    0.000    0.000    0.000    0.000    0.000 
#
# Total GULP energy -545229.177832 kJ/mol
# GULP energy per Si atom -12391.572223 kJ/mol
# Density = 1.853614 g / cm^3
# Si number density = 18.578427 Si / 1000 Ang^3
#
#
#
# Elastic Constant Matrix: (Units=GPa)
#
#
# Indices 1 2 3 4 5 6 
#
# 1 99.2283 43.4081 47.5669 0.0000 0.0000 0.0000
# 2 43.4081 66.4576 47.5453 0.0000 0.0000 0.0000
# 3 47.5669 47.5453 132.6071 0.0000 0.0000 0.0000
# 4 0.0000 0.0000 0.0000 43.7854 0.0000 0.0000
# 5 0.0000 0.0000 0.0000 0.0000 6.4945 0.0000
# 6 0.0000 0.0000 0.0000 0.0000 0.0000 17.5039
#
#
#
# Elastic Compliance Matrix: (Units=1/GPa)
#
#
# Indices 1 2 3 4 5 6 
#
# 1 0.014682 -0.007831 -0.002459 0.000000 0.000000 0.000000
# 2 -0.007831 0.024415 -0.005945 0.000000 0.000000 0.000000
# 3 -0.002459 -0.005945 0.010555 0.000000 0.000000 0.000000
# 4 0.000000 0.000000 0.000000 0.022839 0.000000 0.000000
# 5 0.000000 0.000000 0.000000 0.000000 0.153977 0.000000
# 6 0.000000 0.000000 0.000000 0.000000 0.000000 0.057130
#
#
# Mechanical properties :
#
#
# Convention : Reuss Voigt Hill
#
# Bulk Modulus (GPa) = 58.19813 63.92594 61.06204
# Shear Modulus (GPa) = 15.53787 24.20825 19.87306
#
# Velocity S-wave (km/s) = 2.89509 3.61367 3.27415
# Velocity P-wave (km/s) = 6.52450 7.20381 6.87255
#
# Compressibility (1/GPa) = 0.01718268
#
# Stress axis : x y z
#
# Youngs Moduli (GPa) = 68.11015 40.95821 94.74533
#
# Poissons Ratio (x) = 0.32073 0.23297
# Poissons Ratio (y) = 0.53335 0.56326
# Poissons Ratio (z) = 0.16748 0.24349
#
# Static dielectric constant tensor:
#      x y z
#    x 2.110960 0.000000 0.000000 
#    y 0.000000 3.484870 0.000000 
#    z 0.000000 0.000000 3.500760 
# 
# 
# High freq. dielectric constant tensor:
#      x y z
#    x 1.695200 0.000000 0.000000 
#    y 0.000000 1.725040 0.000000 
#    z 0.000000 0.000000 1.726770 
# 
# From -- ./inp_files/71060.got.cif
#   From: 2010.03.12/outbox.cif.g09.slc.cpg/sg65_36_cif.got.tgz:71060.got - 2010.04.10 20:52:16.
