data_PCOD8274824
_publ_section_title
;
Structure prediction by ZEFSAII (Michael W. Deem and Ramdas Pophale) SiO2 
 PCOD8274824
Probable space group: C M M M
;
_chemical_formula_sum "Si O2"
_cell_formula_units_Z 104
_cell_length_a 18.757081
_cell_length_b 18.122656
_cell_length_c 17.255805
_cell_angle_alpha 90.000000
_cell_angle_beta 90.000000
_cell_angle_gamma 90.000000
_cell_volume 5865.733465
_symmetry_space_group_name_H-M "C M M M"
_symmetry_group_IT_number 65
_symmetry_cell_setting 'orthorhombic'
loop_
_space_group_symop_operation_xyz
x,y,z
-x,-y,z
x,-y,-z
-x,y,-z
-x,-y,-z
x,y,-z
-x,y,z
x,-y,z
1/2+x,1/2+y,z
1/2-x,1/2-y,z
1/2+x,1/2-y,-z
1/2-x,1/2+y,-z
1/2-x,1/2-y,-z
1/2+x,1/2+y,-z
1/2-x,1/2+y,z
1/2+x,1/2-y,z
loop_
_atom_site_type_symbol
_atom_site_label
_atom_site_fract_x
_atom_site_fract_y
_atom_site_fract_z
Si Si1 0.709227 0.917808 0.866289
Si Si2 0.867001 0.912011 0.312430
Si Si3 0.500000 0.587983 0.587855
Si Si4 0.208025 0.587545 0.309004
Si Si5 0.624606 0.418134 0.860663
Si Si6 0.922099 0.180393 0.000000
Si Si7 0.579258 0.912254 0.587729
Si Si8 0.184730 0.306805 0.000000
O O1 0.692202 0.890086 0.779539
O O2 0.792758 0.922752 0.880297
O O3 0.676575 0.000000 0.880708
O O4 0.678791 0.857954 0.924766
O O5 0.927873 0.881946 0.370792
O O6 0.787034 0.882978 0.335001
O O7 0.887235 0.885560 0.225716
O O8 0.864903 0.000000 0.312755
O O9 0.500000 0.500000 0.590258
O O10 0.500000 0.617536 0.500000
O O11 0.208918 0.500000 0.316778
O O12 0.143734 0.621654 0.360658
O O13 0.590817 0.500000 0.866793
O O14 0.588730 0.366410 0.922823
O O15 0.882899 0.256729 0.000000
O O16 0.000000 0.210733 0.000000
O O17 0.591650 0.885180 0.500000
O O18 0.500000 0.886122 0.616127
O O19 0.582167 0.000000 0.591665
O O20 0.250000 0.250000 0.000000
#
# Coordination Sequence:
#
# PCOD8274824 Si02
#       8
#    16  16   8  16  16   8  16   8
#     4   9  17  32  55  76  94 125 172 209 236 290
#     4   8  15  25  38  57  86 121 157 200 238 277
#     4   9  16  24  34  53  85 129 171 196 226 277
#     4   8  14  25  41  64  90 119 157 198 234 279
#     4   9  17  31  49  72  98 125 163 203 249 302
#     4  12  25  34  45  72 103 130 160 203 255 299
#     4   8  13  21  35  59  92 124 151 186 239 296
#     4  12  21  35  53  71  97 132 160 200 250 293
#
# _framework density 17.730094000000001
#
# number of rings (size 3 to 8) (size 9 to 14) (size 15 to 20)
#    0.000    3.000    1.538    2.769    1.077    2.462 
#    0.000    3.846    0.000    1.846    0.000    0.000 
#    0.000    1.846    0.923    0.154    0.000    0.615 
#
# Total GULP energy -644270.501765 kJ/mol
# GULP energy per Si atom -12389.817342 kJ/mol
# Density = 1.768974 g / cm^3
# Si number density = 17.730094 Si / 1000 Ang^3
#
#
#
# Elastic Constant Matrix: (Units=GPa)
#
#
# Indices 1 2 3 4 5 6 
#
# 1 144.1580 34.1438 92.8837 0.0000 0.0000 0.0000
# 2 34.1438 44.7957 34.5272 0.0000 0.0000 0.0000
# 3 92.8837 34.5272 131.0944 0.0000 0.0000 0.0000
# 4 0.0000 0.0000 0.0000 -2.3365 0.0000 0.0000
# 5 0.0000 0.0000 0.0000 0.0000 -12.3110 0.0000
# 6 0.0000 0.0000 0.0000 0.0000 0.0000 9.8774
#
#
#
# Elastic Compliance Matrix: (Units=1/GPa)
#
#
# Indices 1 2 3 4 5 6 
#
# 1 0.013206 -0.003581 -0.008414 0.000000 0.000000 0.000000
# 2 -0.003581 0.028981 -0.005096 0.000000 0.000000 0.000000
# 3 -0.008414 -0.005096 0.014932 0.000000 0.000000 0.000000
# 4 0.000000 0.000000 0.000000 -0.427997 0.000000 0.000000
# 5 0.000000 0.000000 0.000000 0.000000 -0.081228 0.000000
# 6 0.000000 0.000000 0.000000 0.000000 0.000000 0.101242
#
#
# Mechanical properties :
#
#
# Convention : Reuss Voigt Hill
#
# Bulk Modulus (GPa) = 43.59644 71.46194 57.52919
# Shear Modulus (GPa) = -16.17919 9.61219 -3.28350
#
# Velocity S-wave (km/s) = -3.02408 2.33092 -1.36234
# Velocity P-wave (km/s) = 3.52830 6.90197 5.48115
#
# Compressibility (1/GPa) = 0.02293765
#
# Stress axis : x y z
#
# Youngs Moduli (GPa) = 75.72271 34.50595 66.97221
#
# Poissons Ratio (x) = 0.12356 0.56349
# Poissons Ratio (y) = 0.27114 0.34127
# Poissons Ratio (z) = 0.63711 0.17583
#
# Static dielectric constant tensor:
#      x y z
#    x 3.477500 0.000000 0.000000 
#    y 0.000000 2.702310 0.000000 
#    z 0.000000 0.000000 3.561120 
# 
# 
# High freq. dielectric constant tensor:
#      x y z
#    x 1.682400 0.000000 0.000000 
#    y 0.000000 1.623130 0.000000 
#    z 0.000000 0.000000 1.690630 
# 
# From -- ./inp_files/54647.got.cif
#   From: 2010.03.12/outbox.cif.g09.slc.cpg/sg65_28_cif.got.tgz:54647.got - 2010.04.10 20:52:16.
