data_PCOD8274292
_publ_section_title
;
Structure prediction by ZEFSAII (Michael W. Deem and Ramdas Pophale) SiO2 
 PCOD8274292
Probable space group: C M M M
;
_chemical_formula_sum "Si O2"
_cell_formula_units_Z 80
_cell_length_a 25.783625
_cell_length_b 19.681026
_cell_length_c 8.729284
_cell_angle_alpha 90.000000
_cell_angle_beta 90.000000
_cell_angle_gamma 90.000000
_cell_volume 4429.659401
_symmetry_space_group_name_H-M "C M M M"
_symmetry_group_IT_number 65
_symmetry_cell_setting 'orthorhombic'
loop_
_space_group_symop_operation_xyz
x,y,z
-x,-y,z
x,-y,-z
-x,y,-z
-x,-y,-z
x,y,-z
-x,y,z
x,-y,z
1/2+x,1/2+y,z
1/2-x,1/2-y,z
1/2+x,1/2-y,-z
1/2-x,1/2+y,-z
1/2-x,1/2-y,-z
1/2+x,1/2+y,-z
1/2-x,1/2+y,z
1/2+x,1/2-y,z
loop_
_atom_site_type_symbol
_atom_site_label
_atom_site_fract_x
_atom_site_fract_y
_atom_site_fract_z
Si Si1 0.812543 0.579640 0.824537
Si Si2 0.000000 0.332610 0.169203
Si Si3 0.500000 0.671742 0.167163
Si Si4 0.605799 0.174497 0.321143
Si Si5 0.804259 0.075199 0.818326
Si Si6 0.611042 0.679970 0.184053
O O1 0.823045 0.500000 0.806896
O O2 0.850213 0.619441 0.711879
O O3 0.753836 0.597097 0.772640
O O4 0.821935 0.602533 0.000000
O O5 0.948431 0.355510 0.258579
O O6 0.000000 0.252387 0.152015
O O7 0.000000 0.366298 0.000000
O O8 0.554726 0.652675 0.248661
O O9 0.500000 0.637143 0.000000
O O10 0.600164 0.187183 0.500000
O O11 0.622851 0.244816 0.242779
O O12 0.845073 0.129449 0.751227
O O13 0.816955 0.000000 0.752530
O O14 0.808573 0.072771 0.000000
O O15 0.609489 0.682394 0.000000
#
# Coordination Sequence:
#
# PCOD8274292 Si02
#       6
#    16   8   8  16  16  16
#     4   9  18  34  53  70  92 127 169 209 251 296
#     4   9  17  33  54  73  96 127 163 198 238 287
#     4   7  12  23  42  68  94 122 153 188 234 285
#     4  11  21  32  49  75 104 129 158 198 244 294
#     4   8  15  29  50  73  95 125 170 218 253 284
#     4   9  16  29  49  71  98 132 169 206 245 291
#
# _framework density 18.060079999999999
#
# number of rings (size 3 to 8) (size 9 to 14) (size 15 to 20)
#    0.000    3.000    0.000    4.500    0.000    1.200 
#    0.000    6.000    0.000    7.800    0.000    0.000 
#    0.000    4.800    0.000    0.000    0.000    0.000 
#
# Total GULP energy -495690.803524 kJ/mol
# GULP energy per Si atom -12392.270088 kJ/mol
# Density = 1.801897 g / cm^3
# Si number density = 18.060080 Si / 1000 Ang^3
#
#
#
# Elastic Constant Matrix: (Units=GPa)
#
#
# Indices 1 2 3 4 5 6 
#
# 1 157.3645 69.0959 32.0600 0.0000 0.0000 0.0000
# 2 69.0959 65.4049 20.6271 0.0000 0.0000 0.0000
# 3 32.0600 20.6271 52.9701 0.0000 0.0000 0.0000
# 4 0.0000 0.0000 0.0000 6.5883 0.0000 0.0000
# 5 0.0000 0.0000 0.0000 0.0000 9.3175 0.0000
# 6 0.0000 0.0000 0.0000 0.0000 0.0000 9.8568
#
#
#
# Elastic Compliance Matrix: (Units=1/GPa)
#
#
# Indices 1 2 3 4 5 6 
#
# 1 0.012180 -0.012019 -0.002692 0.000000 0.000000 0.000000
# 2 -0.012019 0.029289 -0.004131 0.000000 0.000000 0.000000
# 3 -0.002692 -0.004131 0.022117 0.000000 0.000000 0.000000
# 4 0.000000 0.000000 0.000000 0.151784 0.000000 0.000000
# 5 0.000000 0.000000 0.000000 0.000000 0.107325 0.000000
# 6 0.000000 0.000000 0.000000 0.000000 0.000000 0.101452
#
#
# Mechanical properties :
#
#
# Convention : Reuss Voigt Hill
#
# Bulk Modulus (GPa) = 38.60638 57.70060 48.15349
# Shear Modulus (GPa) = 10.62776 15.41629 13.02203
#
# Velocity S-wave (km/s) = 2.42847 2.92483 2.68813
# Velocity P-wave (km/s) = 5.41168 6.58975 6.02956
#
# Compressibility (1/GPa) = 0.02590245
#
# Stress axis : x y z
#
# Youngs Moduli (GPa) = 82.09983 34.14227 45.21500
#
# Poissons Ratio (x) = 0.41035 0.12171
# Poissons Ratio (y) = 0.98673 0.18679
# Poissons Ratio (z) = 0.22100 0.14105
#
# Static dielectric constant tensor:
#      x y z
#    x 3.814590 0.000000 0.000000 
#    y 0.000000 3.175500 0.000000 
#    z 0.000000 0.000000 2.975190 
# 
# 
# High freq. dielectric constant tensor:
#      x y z
#    x 1.718150 0.000000 0.000000 
#    y 0.000000 1.672150 0.000000 
#    z 0.000000 0.000000 1.662190 
# 
# From -- ./inp_files/11611.got.cif
#   From: 2010.03.12/outbox.cif.g09.slc.cpg/sg65_6_cif.got.tgz:11611.got - 2010.04.10 20:52:16.
