data_PCOD8274670
_publ_section_title
;
Structure prediction by ZEFSAII (Michael W. Deem and Ramdas Pophale) SiO2 
 PCOD8274670
Probable space group: C M M M
;
_chemical_formula_sum "Si O2"
_cell_formula_units_Z 72
_cell_length_a 18.464627
_cell_length_b 9.020645
_cell_length_c 23.712675
_cell_angle_alpha 90.000000
_cell_angle_beta 90.000000
_cell_angle_gamma 90.000000
_cell_volume 3949.650616
_symmetry_space_group_name_H-M "C M M M"
_symmetry_group_IT_number 65
_symmetry_cell_setting 'orthorhombic'
loop_
_space_group_symop_operation_xyz
x,y,z
-x,-y,z
x,-y,-z
-x,y,-z
-x,-y,-z
x,y,-z
-x,y,z
x,-y,z
1/2+x,1/2+y,z
1/2-x,1/2-y,z
1/2+x,1/2-y,-z
1/2-x,1/2+y,-z
1/2-x,1/2-y,-z
1/2+x,1/2+y,-z
1/2-x,1/2+y,z
1/2+x,1/2-y,z
loop_
_atom_site_type_symbol
_atom_site_label
_atom_site_fract_x
_atom_site_fract_y
_atom_site_fract_z
Si Si1 0.827330 0.324439 0.779909
Si Si2 0.586144 0.332584 0.000000
Si Si3 0.084175 0.824111 0.318202
Si Si4 0.917133 0.673472 0.888899
Si Si5 0.414104 0.333890 0.559561
O O1 0.819089 0.500000 0.775538
O O2 0.750000 0.250000 0.783850
O O3 0.868777 0.266244 0.725547
O O4 0.871722 0.275711 0.834990
O O5 0.616030 0.253586 0.943847
O O6 0.614415 0.500000 0.000000
O O7 0.500000 0.321554 0.000000
O O8 0.110310 0.764050 0.380490
O O9 0.000000 0.787542 0.307685
O O10 0.097808 0.000000 0.312724
O O11 0.911276 0.500000 0.899982
O O12 0.000000 0.721732 0.878107
O O13 0.389423 0.253286 0.500000
O O14 0.500000 0.340117 0.561467
O O15 0.383278 0.500000 0.557362
#
# Coordination Sequence:
#
# PCOD8274670 Si02
#       5
#    16   8  16  16  16
#     4  11  23  37  52  71  99 135 173 212 254 298
#     4   9  17  29  50  81 108 127 153 195 242 285
#     4   9  17  30  51  78 104 131 165 205 249 298
#     4   9  18  34  55  76  99 129 163 198 241 295
#     4   7  10  19  39  69 101 128 156 194 241 293
#
# _framework density 18.229458999999999
#
# number of rings (size 3 to 8) (size 9 to 14) (size 15 to 20)
#    0.000    3.000    0.000    3.667    0.000    4.444 
#    0.000    2.778    0.000    1.333    0.000    3.111 
#    0.000    0.000    0.000    0.000    0.000    0.000 
#
# Total GULP energy -445974.426045 kJ/mol
# GULP energy per Si atom -12388.178501 kJ/mol
# Density = 1.818797 g / cm^3
# Si number density = 18.229459 Si / 1000 Ang^3
#
#
#
# Elastic Constant Matrix: (Units=GPa)
#
#
# Indices 1 2 3 4 5 6 
#
# 1 72.6017 36.4647 72.0906 0.0000 0.0000 0.0000
# 2 36.4647 53.5546 64.7439 0.0000 0.0000 0.0000
# 3 72.0906 64.7439 221.8781 0.0000 0.0000 0.0000
# 4 0.0000 0.0000 0.0000 23.3959 0.0000 0.0000
# 5 0.0000 0.0000 0.0000 0.0000 -3.6327 0.0000
# 6 0.0000 0.0000 0.0000 0.0000 0.0000 -405.4237
#
#
#
# Elastic Compliance Matrix: (Units=1/GPa)
#
#
# Indices 1 2 3 4 5 6 
#
# 1 0.023634 -0.010520 -0.004609 0.000000 0.000000 0.000000
# 2 -0.010520 0.033532 -0.006367 0.000000 0.000000 0.000000
# 3 -0.004609 -0.006367 0.007862 0.000000 0.000000 0.000000
# 4 0.000000 0.000000 0.000000 0.042743 0.000000 0.000000
# 5 0.000000 0.000000 0.000000 0.000000 -0.275280 0.000000
# 6 0.000000 0.000000 0.000000 0.000000 0.000000 -0.002467
#
#
# Mechanical properties :
#
#
# Convention : Reuss Voigt Hill
#
# Bulk Modulus (GPa) = 45.37798 77.18142 61.27970
# Shear Modulus (GPa) = -41.79317 -65.48309 -53.63813
#
# Velocity S-wave (km/s) = -4.79332 -5.99996 -5.43026
# Velocity P-wave (km/s) = 2.38493 2.35980 2.37240
#
# Compressibility (1/GPa) = 0.02203712
#
# Stress axis : x y z
#
# Youngs Moduli (GPa) = 42.31109 29.82192 127.18776
#
# Poissons Ratio (x) = 0.31373 0.58625
# Poissons Ratio (y) = 0.44512 0.80976
# Poissons Ratio (z) = 0.19503 0.18987
#
# Static dielectric constant tensor:
#      x y z
#    x 3.021570 0.000000 0.000000 
#    y 0.000000 3.108060 0.000000 
#    z 0.000000 0.000000 3.980450 
# 
# 
# High freq. dielectric constant tensor:
#      x y z
#    x 1.662630 0.000000 0.000000 
#    y 0.000000 1.678590 0.000000 
#    z 0.000000 0.000000 1.739180 
# 
# From -- ./inp_files/59278.got.cif
#   From: 2010.03.12/outbox.cif.g09.slc.cpg/sg65_30_cif.got.tgz:59278.got - 2010.04.10 20:52:16.
