data_PCOD8274987
_publ_section_title
;
Structure prediction by ZEFSAII (Michael W. Deem and Ramdas Pophale) SiO2 
 PCOD8274987
Probable space group: C M M M
;
_chemical_formula_sum "Si O2"
_cell_formula_units_Z 96
_cell_length_a 33.834327
_cell_length_b 30.500980
_cell_length_c 7.805451
_cell_angle_alpha 90.000000
_cell_angle_beta 90.000000
_cell_angle_gamma 90.000000
_cell_volume 8055.070347
_symmetry_space_group_name_H-M "C M M M"
_symmetry_group_IT_number 65
_symmetry_cell_setting 'orthorhombic'
loop_
_space_group_symop_operation_xyz
x,y,z
-x,-y,z
x,-y,-z
-x,y,-z
-x,-y,-z
x,y,-z
-x,y,z
x,-y,z
1/2+x,1/2+y,z
1/2-x,1/2-y,z
1/2+x,1/2-y,-z
1/2-x,1/2+y,-z
1/2-x,1/2-y,-z
1/2+x,1/2+y,-z
1/2-x,1/2+y,z
1/2+x,1/2-y,z
loop_
_atom_site_type_symbol
_atom_site_label
_atom_site_fract_x
_atom_site_fract_y
_atom_site_fract_z
Si Si1 0.266890 0.180443 0.000000
Si Si2 0.341213 0.315279 0.307982
Si Si3 0.544088 0.548845 0.202361
Si Si4 0.691805 0.451700 0.702932
Si Si5 0.239209 0.869551 0.690906
Si Si6 0.118631 0.899676 0.698149
Si Si7 0.813546 0.764831 0.000000
O O1 0.269561 0.150451 0.170655
O O2 0.226263 0.207056 0.000000
O O3 0.304029 0.213234 0.000000
O O4 0.350772 0.296955 0.500000
O O5 0.300335 0.341254 0.314462
O O6 0.374617 0.349574 0.238372
O O7 0.338612 0.275635 0.171739
O O8 0.500000 0.561045 0.266843
O O9 0.555324 0.500000 0.269573
O O10 0.574033 0.585035 0.271980
O O11 0.545330 0.549114 0.000000
O O12 0.687920 0.455095 0.500000
O O13 0.699845 0.500000 0.781792
O O14 0.727810 0.419004 0.749459
O O15 0.650431 0.433167 0.782379
O O16 0.258557 0.869259 0.500000
O O17 0.128851 0.898156 0.500000
#
# Coordination Sequence:
#
# PCOD8274987 Si02
#       7
#     8  16  16  16  16  16   8
#     4   9  16  24  33  48  62  76 103 118 134 181
#     4   8  15  25  35  50  65  76  96 121 148 183
#     4   9  18  29  36  45  63  83 102 124 151 187
#     4   8  13  22  35  48  62  80 101 125 155 186
#     4   8  14  24  34  44  63  84  97 120 150 172
#     4   9  16  25  38  51  61  76  98 127 158 186
#     4   9  16  24  36  48  61  81  94 116 147 171
#
# _framework density 11.917958
#
# number of rings (size 3 to 8) (size 9 to 14) (size 15 to 20)
#    0.000    3.500    0.000    3.000    1.167    2.000 
#    1.500    4.583    0.000    0.000    0.000    0.000 
#    0.000    0.000    0.000    0.000    0.000    0.000 
#
# Total GULP energy -594663.303507 kJ/mol
# GULP energy per Si atom -12388.818823 kJ/mol
# Density = 1.189083 g / cm^3
# Si number density = 11.917958 Si / 1000 Ang^3
#
#
#
# Elastic Constant Matrix: (Units=GPa)
#
#
# Indices 1 2 3 4 5 6 
#
# 1 36.2788 39.4301 20.6191 0.0000 0.0000 0.0000
# 2 39.4301 70.8810 33.2305 0.0000 0.0000 0.0000
# 3 20.6191 33.2305 53.3961 0.0000 0.0000 0.0000
# 4 0.0000 0.0000 0.0000 14.5291 0.0000 0.0000
# 5 0.0000 0.0000 0.0000 0.0000 11.7399 0.0000
# 6 0.0000 0.0000 0.0000 0.0000 0.0000 19.9958
#
#
#
# Elastic Compliance Matrix: (Units=1/GPa)
#
#
# Indices 1 2 3 4 5 6 
#
# 1 0.070304 -0.037249 -0.003966 0.000000 0.000000 0.000000
# 2 -0.037249 0.039656 -0.010296 0.000000 0.000000 0.000000
# 3 -0.003966 -0.010296 0.026667 0.000000 0.000000 0.000000
# 4 0.000000 0.000000 0.000000 0.068827 0.000000 0.000000
# 5 0.000000 0.000000 0.000000 0.000000 0.085180 0.000000
# 6 0.000000 0.000000 0.000000 0.000000 0.000000 0.050010
#
#
# Mechanical properties :
#
#
# Convention : Reuss Voigt Hill
#
# Bulk Modulus (GPa) = 29.75823 38.56836 34.16329
# Shear Modulus (GPa) = 10.99219 13.73804 12.36511
#
# Velocity S-wave (km/s) = 3.04027 3.39885 3.22455
# Velocity P-wave (km/s) = 6.11128 6.91627 6.52620
#
# Compressibility (1/GPa) = 0.03360415
#
# Stress axis : x y z
#
# Youngs Moduli (GPa) = 14.22404 25.21667 37.49969
#
# Poissons Ratio (x) = 0.93931 0.14873
# Poissons Ratio (y) = 0.52984 0.38608
# Poissons Ratio (z) = 0.05642 0.25962
#
# Static dielectric constant tensor:
#      x y z
#    x 2.358810 0.000000 0.000000 
#    y 0.000000 2.612000 0.000000 
#    z 0.000000 0.000000 2.579530 
# 
# 
# High freq. dielectric constant tensor:
#      x y z
#    x 1.391510 0.000000 0.000000 
#    y 0.000000 1.429720 0.000000 
#    z 0.000000 0.000000 1.459050 
# 
# From -- ./inp_files/19163.got.cif
#   From: 2010.03.12/outbox.cif.g09.slc.cpg/sg65_10_cif.got.tgz:19163.got - 2010.04.10 20:52:16.
