data_PCOD8274120
_publ_section_title
;
Structure prediction by ZEFSAII (Michael W. Deem and Ramdas Pophale) SiO2 
 PCOD8274120
Probable space group: C M M M
;
_chemical_formula_sum "Si O2"
_cell_formula_units_Z 56
_cell_length_a 17.945818
_cell_length_b 18.133682
_cell_length_c 7.927650
_cell_angle_alpha 90.000000
_cell_angle_beta 90.000000
_cell_angle_gamma 90.000000
_cell_volume 2579.845646
_symmetry_space_group_name_H-M "C M M M"
_symmetry_group_IT_number 65
_symmetry_cell_setting 'orthorhombic'
loop_
_space_group_symop_operation_xyz
x,y,z
-x,-y,z
x,-y,-z
-x,y,-z
-x,-y,-z
x,y,-z
-x,y,z
x,-y,z
1/2+x,1/2+y,z
1/2-x,1/2-y,z
1/2+x,1/2-y,-z
1/2-x,1/2+y,-z
1/2-x,1/2-y,-z
1/2+x,1/2+y,-z
1/2-x,1/2+y,z
1/2+x,1/2-y,z
loop_
_atom_site_type_symbol
_atom_site_label
_atom_site_fract_x
_atom_site_fract_y
_atom_site_fract_z
Si Si1 0.585125 0.297369 0.305893
Si Si2 0.656390 0.156212 0.808978
Si Si3 0.189044 0.083607 0.802524
Si Si4 0.585928 0.079209 0.500000
O O1 0.587107 0.272933 0.500000
O O2 0.500000 0.294555 0.238339
O O3 0.639770 0.243751 0.198743
O O4 0.617008 0.380052 0.285469
O O5 0.739935 0.134285 0.755874
O O6 0.602050 0.120718 0.673479
O O7 0.640428 0.127872 0.000000
O O8 0.199830 0.000000 0.734340
O O9 0.174898 0.082150 0.000000
O O10 0.500000 0.065359 0.500000
O O11 0.627764 0.000000 0.500000
#
# Coordination Sequence:
#
# PCOD8274120 Si02
#       4
#    16  16  16   8
#     4  11  24  41  63  95 132 170 218 270 321 383
#     4  11  23  42  68  95 127 169 216 268 322 380
#     4  10  23  42  64  94 129 168 218 269 322 387
#     4  11  24  40  61  94 132 170 215 265 322 388
#
# _framework density 21.706724999999999
#
# number of rings (size 3 to 8) (size 9 to 14) (size 15 to 20)
#    0.000    1.286    1.429    3.429    2.000   10.286 
#    0.000    4.286    0.000    0.000    0.000    0.000 
#    0.000    0.000    0.000    0.000    0.000    0.000 
#
# Total GULP energy -347168.987849 kJ/mol
# GULP energy per Si atom -12398.892423 kJ/mol
# Density = 2.165732 g / cm^3
# Si number density = 21.706725 Si / 1000 Ang^3
#
#
#
# Elastic Constant Matrix: (Units=GPa)
#
#
# Indices 1 2 3 4 5 6 
#
# 1 122.8318 76.8870 25.9944 0.0000 0.0000 0.0000
# 2 76.8870 135.0963 27.7893 0.0000 0.0000 0.0000
# 3 25.9944 27.7893 87.6152 0.0000 0.0000 0.0000
# 4 0.0000 0.0000 0.0000 21.1395 0.0000 0.0000
# 5 0.0000 0.0000 0.0000 0.0000 23.3553 0.0000
# 6 0.0000 0.0000 0.0000 0.0000 0.0000 101.5738
#
#
#
# Elastic Compliance Matrix: (Units=1/GPa)
#
#
# Indices 1 2 3 4 5 6 
#
# 1 0.012852 -0.006986 -0.001597 0.000000 0.000000 0.000000
# 2 -0.006986 0.011716 -0.001643 0.000000 0.000000 0.000000
# 3 -0.001597 -0.001643 0.012409 0.000000 0.000000 0.000000
# 4 0.000000 0.000000 0.000000 0.047305 0.000000 0.000000
# 5 0.000000 0.000000 0.000000 0.000000 0.042817 0.000000
# 6 0.000000 0.000000 0.000000 0.000000 0.000000 0.009845
#
#
# Mechanical properties :
#
#
# Convention : Reuss Voigt Hill
#
# Bulk Modulus (GPa) = 60.51952 67.43164 63.97558
# Shear Modulus (GPa) = 30.69280 43.53856 37.11568
#
# Velocity S-wave (km/s) = 3.76437 4.48343 4.13954
# Velocity P-wave (km/s) = 6.84361 7.61143 7.23771
#
# Compressibility (1/GPa) = 0.01652359
#
# Stress axis : x y z
#
# Youngs Moduli (GPa) = 77.80824 85.35299 80.58871
#
# Poissons Ratio (x) = 0.59627 0.12873
# Poissons Ratio (y) = 0.54356 0.13244
# Poissons Ratio (z) = 0.12428 0.14027
#
# Static dielectric constant tensor:
#      x y z
#    x 3.794790 0.000000 0.000000 
#    y 0.000000 4.193620 0.000000 
#    z 0.000000 0.000000 3.898290 
# 
# 
# High freq. dielectric constant tensor:
#      x y z
#    x 1.846510 0.000000 0.000000 
#    y 0.000000 1.859540 0.000000 
#    z 0.000000 0.000000 1.852580 
# 
# From -- ./inp_files/6250.got.cif
#   From: 2010.03.12/outbox.cif.g09.slc.cpg/sg65_4_cif.got.tgz:6250.got - 2010.04.10 20:52:16.
