data_PCOD8274214
_publ_section_title
;
Structure prediction by ZEFSAII (Michael W. Deem and Ramdas Pophale) SiO2 
 PCOD8274214
Probable space group: C M M M
;
_chemical_formula_sum "Si O2"
_cell_formula_units_Z 80
_cell_length_a 18.540839
_cell_length_b 30.139528
_cell_length_c 9.660531
_cell_angle_alpha 90.000000
_cell_angle_beta 90.000000
_cell_angle_gamma 90.000000
_cell_volume 5398.421965
_symmetry_space_group_name_H-M "C M M M"
_symmetry_group_IT_number 65
_symmetry_cell_setting 'orthorhombic'
loop_
_space_group_symop_operation_xyz
x,y,z
-x,-y,z
x,-y,-z
-x,y,-z
-x,-y,-z
x,y,-z
-x,y,z
x,-y,z
1/2+x,1/2+y,z
1/2-x,1/2-y,z
1/2+x,1/2-y,-z
1/2-x,1/2+y,-z
1/2-x,1/2-y,-z
1/2+x,1/2+y,-z
1/2-x,1/2+y,z
1/2+x,1/2-y,z
loop_
_atom_site_type_symbol
_atom_site_label
_atom_site_fract_x
_atom_site_fract_y
_atom_site_fract_z
Si Si1 0.221536 0.680516 0.660326
Si Si2 0.500000 0.744293 0.830961
Si Si3 0.085816 0.551310 0.000000
Si Si4 0.581830 0.051648 0.500000
Si Si5 0.000000 0.666824 0.339464
Si Si6 0.130733 0.395016 0.738492
Si Si7 0.863966 0.769108 0.337779
O O1 0.212996 0.669082 0.500000
O O2 0.202993 0.635245 0.744322
O O3 0.167003 0.720418 0.697565
O O4 0.303126 0.694316 0.694805
O O5 0.500000 0.793507 0.770007
O O6 0.429527 0.720050 0.766804
O O7 0.500000 0.743485 0.000000
O O8 0.118304 0.579332 0.122355
O O9 0.111785 0.500000 0.000000
O O10 0.000000 0.552925 0.000000
O O11 0.500000 0.073056 0.500000
O O12 0.630626 0.065468 0.371252
O O13 0.570929 0.000000 0.500000
O O14 0.930233 0.638719 0.308252
O O15 0.000000 0.683670 0.500000
O O16 0.887021 0.771333 0.500000
#
# Coordination Sequence:
#
# PCOD8274214 Si02
#       7
#    16   8   8   8   8  16  16
#     4   9  17  31  51  72  90 118 162 204 238 277
#     4  12  24  32  46  69 101 128 160 199 234 278
#     4  11  24  36  44  63  98 133 165 202 249 285
#     4  11  20  30  46  69  92 121 163 208 241 267
#     4  12  20  30  47  71  89 124 170 203 237 276
#     4  12  19  32  49  66  90 126 167 207 234 281
#     4   9  18  33  51  69  94 124 156 197 241 279
#
# _framework density 14.819146
#
# number of rings (size 3 to 8) (size 9 to 14) (size 15 to 20)
#    0.000    1.400    6.000    2.700    1.400    1.600 
#    1.800    1.000    0.000    0.000    0.000    0.000 
#    0.000    0.000    0.000    5.400    0.000    0.100 
#
# Total GULP energy -495632.685493 kJ/mol
# GULP energy per Si atom -12390.817137 kJ/mol
# Density = 1.478542 g / cm^3
# Si number density = 14.819146 Si / 1000 Ang^3
#
#
#
# Elastic Constant Matrix: (Units=GPa)
#
#
# Indices 1 2 3 4 5 6 
#
# 1 83.5002 41.3099 48.3121 0.0000 0.0000 0.0000
# 2 41.3099 82.9289 44.3320 0.0000 0.0000 0.0000
# 3 48.3121 44.3320 118.4467 0.0000 0.0000 0.0000
# 4 0.0000 0.0000 0.0000 30.8115 0.0000 0.0000
# 5 0.0000 0.0000 0.0000 0.0000 13.6895 0.0000
# 6 0.0000 0.0000 0.0000 0.0000 0.0000 28.3284
#
#
#
# Elastic Compliance Matrix: (Units=1/GPa)
#
#
# Indices 1 2 3 4 5 6 
#
# 1 0.017966 -0.006291 -0.004973 0.000000 0.000000 0.000000
# 2 -0.006291 0.017277 -0.003901 0.000000 0.000000 0.000000
# 3 -0.004973 -0.003901 0.011931 0.000000 0.000000 0.000000
# 4 0.000000 0.000000 0.000000 0.032455 0.000000 0.000000
# 5 0.000000 0.000000 0.000000 0.000000 0.073049 0.000000
# 6 0.000000 0.000000 0.000000 0.000000 0.000000 0.035300
#
#
# Mechanical properties :
#
#
# Convention : Reuss Voigt Hill
#
# Bulk Modulus (GPa) = 59.36608 61.42042 60.39325
# Shear Modulus (GPa) = 22.32909 24.62733 23.47821
#
# Velocity S-wave (km/s) = 3.88593 4.08101 3.98466
# Velocity P-wave (km/s) = 7.76410 7.98391 7.87477
#
# Compressibility (1/GPa) = 0.01684464
#
# Stress axis : x y z
#
# Youngs Moduli (GPa) = 55.66148 57.87917 83.81454
#
# Poissons Ratio (x) = 0.36410 0.41684
# Poissons Ratio (y) = 0.35015 0.32693
# Poissons Ratio (z) = 0.27683 0.22577
#
# Static dielectric constant tensor:
#      x y z
#    x 3.057140 0.000000 0.000000 
#    y 0.000000 2.861320 0.000000 
#    z 0.000000 0.000000 2.823970 
# 
# 
# High freq. dielectric constant tensor:
#      x y z
#    x 1.543780 0.000000 0.000000 
#    y 0.000000 1.551000 0.000000 
#    z 0.000000 0.000000 1.565270 
# 
# From -- ./inp_files/12586.got.cif
#   From: 2010.03.12/outbox.cif.g09.slc.cpg/sg65_7_cif.got.tgz:12586.got - 2010.04.10 20:52:16.
