data_PCOD8274864
_publ_section_title
;
Structure prediction by ZEFSAII (Michael W. Deem and Ramdas Pophale) SiO2 
 PCOD8274864
Probable space group: C M M M
;
_chemical_formula_sum "Si O2"
_cell_formula_units_Z 72
_cell_length_a 9.447614
_cell_length_b 19.692788
_cell_length_c 23.209370
_cell_angle_alpha 90.000000
_cell_angle_beta 90.000000
_cell_angle_gamma 90.000000
_cell_volume 4318.100030
_symmetry_space_group_name_H-M "C M M M"
_symmetry_group_IT_number 65
_symmetry_cell_setting 'orthorhombic'
loop_
_space_group_symop_operation_xyz
x,y,z
-x,-y,z
x,-y,-z
-x,y,-z
-x,-y,-z
x,y,-z
-x,y,z
x,-y,z
1/2+x,1/2+y,z
1/2-x,1/2-y,z
1/2+x,1/2-y,-z
1/2-x,1/2+y,-z
1/2-x,1/2-y,-z
1/2+x,1/2+y,-z
1/2-x,1/2+y,z
1/2+x,1/2-y,z
loop_
_atom_site_type_symbol
_atom_site_label
_atom_site_fract_x
_atom_site_fract_y
_atom_site_fract_z
Si Si1 0.835837 0.684731 0.565529
Si Si2 0.164023 0.421968 0.338993
Si Si3 0.840518 0.581397 0.123664
Si Si4 0.667828 0.925719 0.000000
Si Si5 0.659746 0.419161 0.229727
O O1 0.794801 0.665882 0.500000
O O2 0.750000 0.750000 0.587250
O O3 0.795190 0.620455 0.604492
O O4 0.000000 0.703000 0.571047
O O5 0.200297 0.500000 0.352947
O O6 0.256198 0.393856 0.285906
O O7 0.000000 0.413482 0.322127
O O8 0.837077 0.500000 0.121291
O O9 0.736057 0.610081 0.172646
O O10 0.000000 0.605733 0.138055
O O11 0.789750 0.610728 0.060645
O O12 0.500000 0.934243 0.000000
O O13 0.739609 0.000000 0.000000
O O14 0.500000 0.390954 0.231909
O O15 0.661930 0.500000 0.227801
#
# Coordination Sequence:
#
# PCOD8274864 Si02
#       5
#    16  16  16   8  16
#     4   9  18  32  49  68  89 113 140 171 210 255
#     4   9  17  29  45  64  85 111 144 178 210 247
#     4   8  12  19  31  45  64  94 132 170 206 246
#     4   7  10  16  27  43  61  87 128 171 204 239
#     4   9  16  24  34  51  76 104 134 170 212 253
#
# _framework density 16.673999999999999
#
# number of rings (size 3 to 8) (size 9 to 14) (size 15 to 20)
#    0.000    3.444    0.000    2.000    0.000    4.000 
#    0.000    2.778    0.000    3.333    0.000    6.222 
#    0.000    0.000    0.000    1.000    0.000   12.889 
#
# Total GULP energy -446089.435124 kJ/mol
# GULP energy per Si atom -12391.373198 kJ/mol
# Density = 1.663605 g / cm^3
# Si number density = 16.674000 Si / 1000 Ang^3
#
#
#
# Elastic Constant Matrix: (Units=GPa)
#
#
# Indices 1 2 3 4 5 6 
#
# 1 83.8024 27.7322 71.1358 0.0000 0.0000 0.0000
# 2 27.7322 37.2477 46.2025 0.0000 0.0000 0.0000
# 3 71.1358 46.2025 152.2055 0.0000 0.0000 0.0000
# 4 0.0000 0.0000 0.0000 1.9159 0.0000 0.0000
# 5 0.0000 0.0000 0.0000 0.0000 18.4929 0.0000
# 6 0.0000 0.0000 0.0000 0.0000 0.0000 13.8521
#
#
#
# Elastic Compliance Matrix: (Units=1/GPa)
#
#
# Indices 1 2 3 4 5 6 
#
# 1 0.020436 -0.005402 -0.007911 0.000000 0.000000 0.000000
# 2 -0.005402 0.044489 -0.010980 0.000000 0.000000 0.000000
# 3 -0.007911 -0.010980 0.013601 0.000000 0.000000 0.000000
# 4 0.000000 0.000000 0.000000 0.521945 0.000000 0.000000
# 5 0.000000 0.000000 0.000000 0.000000 0.054075 0.000000
# 6 0.000000 0.000000 0.000000 0.000000 0.000000 0.072191
#
#
# Mechanical properties :
#
#
# Convention : Reuss Voigt Hill
#
# Bulk Modulus (GPa) = 33.40138 62.59961 48.00049
# Shear Modulus (GPa) = 6.36697 15.39786 10.88241
#
# Velocity S-wave (km/s) = 1.95622 3.04215 2.55749
# Velocity P-wave (km/s) = 5.01776 7.06855 6.12953
#
# Compressibility (1/GPa) = 0.02993888
#
# Stress axis : x y z
#
# Youngs Moduli (GPa) = 48.93322 22.47738 73.52612
#
# Poissons Ratio (x) = 0.12142 0.58169
# Poissons Ratio (y) = 0.26434 0.80733
# Poissons Ratio (z) = 0.38713 0.24680
#
# Static dielectric constant tensor:
#      x y z
#    x 3.129400 0.000000 0.000000 
#    y 0.000000 2.536060 0.000000 
#    z 0.000000 0.000000 3.525930 
# 
# 
# High freq. dielectric constant tensor:
#      x y z
#    x 1.632450 0.000000 0.000000 
#    y 0.000000 1.566650 0.000000 
#    z 0.000000 0.000000 1.662340 
# 
# From -- ./inp_files/59498.got.cif
#   From: 2010.03.12/outbox.cif.g09.slc.cpg/sg65_30_cif.got.tgz:59498.got - 2010.04.10 20:52:16.
