data_PCOD8274592
_publ_section_title
;
Structure prediction by ZEFSAII (Michael W. Deem and Ramdas Pophale) SiO2 
 PCOD8274592
Probable space group: C M M M
;
_chemical_formula_sum "Si O2"
_cell_formula_units_Z 64
_cell_length_a 8.837347
_cell_length_b 28.735612
_cell_length_c 12.939915
_cell_angle_alpha 90.000000
_cell_angle_beta 90.000000
_cell_angle_gamma 90.000000
_cell_volume 3286.047089
_symmetry_space_group_name_H-M "C M M M"
_symmetry_group_IT_number 65
_symmetry_cell_setting 'orthorhombic'
loop_
_space_group_symop_operation_xyz
x,y,z
-x,-y,z
x,-y,-z
-x,y,-z
-x,-y,-z
x,y,-z
-x,y,z
x,-y,z
1/2+x,1/2+y,z
1/2-x,1/2-y,z
1/2+x,1/2-y,-z
1/2-x,1/2+y,-z
1/2-x,1/2-y,-z
1/2+x,1/2+y,-z
1/2-x,1/2+y,z
1/2+x,1/2-y,z
loop_
_atom_site_type_symbol
_atom_site_label
_atom_site_fract_x
_atom_site_fract_y
_atom_site_fract_z
Si Si1 0.677904 0.644414 0.183975
Si Si2 0.320821 0.800033 0.000000
Si Si3 0.822520 0.798978 0.616270
Si Si4 0.825612 0.448713 0.782798
Si Si5 0.821600 0.000000 0.617236
O O1 0.500000 0.648070 0.163721
O O2 0.722411 0.661536 0.299863
O O3 0.731510 0.591587 0.161559
O O4 0.766297 0.675245 0.103095
O O5 0.250000 0.750000 0.000000
O O6 0.500000 0.797170 0.000000
O O7 0.769840 0.814004 0.500000
O O8 0.750000 0.750000 0.648885
O O9 0.000000 0.790967 0.618298
O O10 0.809397 0.500000 0.838628
O O11 0.752850 0.453991 0.668293
O O12 0.000000 0.433754 0.775631
O O13 0.774848 0.000000 0.500000
O O14 0.000000 0.000000 0.635538
#
# Coordination Sequence:
#
# PCOD8274592 Si02
#       5
#    16   8  16  16   8
#     4  11  22  38  62  89 120 157 202 249 301 365
#     4  12  26  44  65  90 123 158 202 255 310 364
#     4   9  19  35  55  82 115 150 189 237 293 355
#     4   9  20  36  55  81 117 154 194 244 298 356
#     4   9  17  31  53  80 113 156 203 251 300 351
#
# _framework density 19.476288
#
# number of rings (size 3 to 8) (size 9 to 14) (size 15 to 20)
#    0.750    1.375    0.000    3.375    0.000    6.000 
#    0.000    3.125    0.000    3.750    0.000    0.000 
#    0.000    0.000    0.000    0.000    0.000    0.000 
#
# Total GULP energy -396535.419942 kJ/mol
# GULP energy per Si atom -12391.731873 kJ/mol
# Density = 1.943196 g / cm^3
# Si number density = 19.476288 Si / 1000 Ang^3
#
#
#
# Elastic Constant Matrix: (Units=GPa)
#
#
# Indices 1 2 3 4 5 6 
#
# 1 106.5946 55.6296 47.7030 0.0000 0.0000 0.0000
# 2 55.6296 136.3306 54.3373 0.0000 0.0000 0.0000
# 3 47.7030 54.3373 92.1576 0.0000 0.0000 0.0000
# 4 0.0000 0.0000 0.0000 79.7496 0.0000 0.0000
# 5 0.0000 0.0000 0.0000 0.0000 29.7285 0.0000
# 6 0.0000 0.0000 0.0000 0.0000 0.0000 37.6390
#
#
#
# Elastic Compliance Matrix: (Units=1/GPa)
#
#
# Indices 1 2 3 4 5 6 
#
# 1 0.013396 -0.003533 -0.004851 0.000000 0.000000 0.000000
# 2 -0.003533 0.010520 -0.004374 0.000000 0.000000 0.000000
# 3 -0.004851 -0.004374 0.015941 0.000000 0.000000 0.000000
# 4 0.000000 0.000000 0.000000 0.012539 0.000000 0.000000
# 5 0.000000 0.000000 0.000000 0.000000 0.033638 0.000000
# 6 0.000000 0.000000 0.000000 0.000000 0.000000 0.026568
#
#
# Mechanical properties :
#
#
# Convention : Reuss Voigt Hill
#
# Bulk Modulus (GPa) = 69.72954 72.26919 70.99937
# Shear Modulus (GPa) = 34.98985 41.25095 38.12040
#
# Velocity S-wave (km/s) = 4.24315 4.60718 4.42891
# Velocity P-wave (km/s) = 7.73859 8.09248 7.91751
#
# Compressibility (1/GPa) = 0.01434112
#
# Stress axis : x y z
#
# Youngs Moduli (GPa) = 74.64945 95.05686 62.73096
#
# Poissons Ratio (x) = 0.33581 0.30432
# Poissons Ratio (y) = 0.26371 0.27439
# Poissons Ratio (z) = 0.36214 0.41579
#
# Static dielectric constant tensor:
#      x y z
#    x 3.589470 0.000000 0.000000 
#    y 0.000000 3.624560 0.000000 
#    z 0.000000 0.000000 3.579830 
# 
# 
# High freq. dielectric constant tensor:
#      x y z
#    x 1.768680 0.000000 0.000000 
#    y 0.000000 1.757690 0.000000 
#    z 0.000000 0.000000 1.744970 
# 
# From -- ./inp_files/20941.got.cif
#   From: 2010.03.12/outbox.cif.g09.slc.cpg/sg65_11_cif.got.tgz:20941.got - 2010.04.10 20:52:16.
