data_PCOD8274443
_publ_section_title
;
Structure prediction by ZEFSAII (Michael W. Deem and Ramdas Pophale) SiO2 
 PCOD8274443
Probable space group: C M M M
;
_chemical_formula_sum "Si O2"
_cell_formula_units_Z 80
_cell_length_a 8.875256
_cell_length_b 19.360404
_cell_length_c 25.419522
_cell_angle_alpha 90.000000
_cell_angle_beta 90.000000
_cell_angle_gamma 90.000000
_cell_volume 4367.799398
_symmetry_space_group_name_H-M "C M M M"
_symmetry_group_IT_number 65
_symmetry_cell_setting 'orthorhombic'
loop_
_space_group_symop_operation_xyz
x,y,z
-x,-y,z
x,-y,-z
-x,y,-z
-x,-y,-z
x,y,-z
-x,y,z
x,-y,z
1/2+x,1/2+y,z
1/2-x,1/2-y,z
1/2+x,1/2-y,-z
1/2-x,1/2+y,-z
1/2-x,1/2-y,-z
1/2+x,1/2+y,-z
1/2-x,1/2+y,z
1/2+x,1/2-y,z
loop_
_atom_site_type_symbol
_atom_site_label
_atom_site_fract_x
_atom_site_fract_y
_atom_site_fract_z
Si Si1 0.178868 0.422459 0.264063
Si Si2 0.173721 0.078587 0.561353
Si Si3 0.820899 0.423282 0.147355
Si Si4 0.677538 0.822748 0.058867
Si Si5 0.178250 0.325215 0.643555
O O1 0.240606 0.500000 0.275911
O O2 0.230244 0.398413 0.205591
O O3 0.242357 0.367834 0.306243
O O4 0.000000 0.424531 0.267353
O O5 0.201328 0.091108 0.500000
O O6 0.278307 0.132561 0.591575
O O7 0.000000 0.092168 0.575872
O O8 0.218550 0.000000 0.576399
O O9 0.758463 0.500000 0.137197
O O10 0.753183 0.375103 0.101701
O O11 0.000000 0.423495 0.144071
O O12 0.500000 0.815290 0.065262
O O13 0.750000 0.750000 0.071241
O O14 0.719252 0.848448 0.000000
O O15 0.250000 0.250000 0.643013
O O16 0.000000 0.316823 0.645773
#
# Coordination Sequence:
#
# PCOD8274443 Si02
#       5
#    16  16  16  16  16
#     4   8  15  29  48  69  93 122 157 197 242 290
#     4   9  19  37  59  80 102 129 161 198 242 291
#     4   8  14  26  45  68  92 118 152 197 243 281
#     4   9  17  28  43  65  92 122 155 190 231 280
#     4  11  22  34  50  74 103 133 166 203 242 286
#
# _framework density 18.315861000000002
#
# number of rings (size 3 to 8) (size 9 to 14) (size 15 to 20)
#    0.000    3.000    0.000    3.000    0.000    3.200 
#    0.000    3.000    0.000    1.800    0.000    8.400 
#    0.000    0.000    0.000    0.000    0.000    0.000 
#
# Total GULP energy -495809.591611 kJ/mol
# GULP energy per Si atom -12395.239790 kJ/mol
# Density = 1.827417 g / cm^3
# Si number density = 18.315861 Si / 1000 Ang^3
#
#
#
# Elastic Constant Matrix: (Units=GPa)
#
#
# Indices 1 2 3 4 5 6 
#
# 1 30.1530 34.3961 30.3417 0.0000 0.0000 0.0000
# 2 34.3961 138.1008 96.0499 0.0000 0.0000 0.0000
# 3 30.3417 96.0499 136.7754 0.0000 0.0000 0.0000
# 4 0.0000 0.0000 0.0000 29.2409 0.0000 0.0000
# 5 0.0000 0.0000 0.0000 0.0000 14.7563 0.0000
# 6 0.0000 0.0000 0.0000 0.0000 0.0000 15.5609
#
#
#
# Elastic Compliance Matrix: (Units=1/GPa)
#
#
# Indices 1 2 3 4 5 6 
#
# 1 0.047625 -0.008823 -0.004369 0.000000 0.000000 0.000000
# 2 -0.008823 0.015789 -0.009130 0.000000 0.000000 0.000000
# 3 -0.004369 -0.009130 0.014692 0.000000 0.000000 0.000000
# 4 0.000000 0.000000 0.000000 0.034199 0.000000 0.000000
# 5 0.000000 0.000000 0.000000 0.000000 0.067768 0.000000
# 6 0.000000 0.000000 0.000000 0.000000 0.000000 0.064264
#
#
# Mechanical properties :
#
#
# Convention : Reuss Voigt Hill
#
# Bulk Modulus (GPa) = 29.88521 69.62274 49.75397
# Shear Modulus (GPa) = 16.65916 21.52771 19.09344
#
# Velocity S-wave (km/s) = 3.01914 3.43207 3.23221
# Velocity P-wave (km/s) = 5.33907 7.33487 6.41506
#
# Compressibility (1/GPa) = 0.03346137
#
# Stress axis : x y z
#
# Youngs Moduli (GPa) = 20.99723 63.33594 68.06331
#
# Poissons Ratio (x) = 0.55882 0.29737
# Poissons Ratio (y) = 0.18526 0.62144
# Poissons Ratio (z) = 0.09174 0.57828
#
# Static dielectric constant tensor:
#      x y z
#    x 2.951030 0.000000 0.000000 
#    y 0.000000 3.418390 0.000000 
#    z 0.000000 0.000000 3.699000 
# 
# 
# High freq. dielectric constant tensor:
#      x y z
#    x 1.667390 0.000000 0.000000 
#    y 0.000000 1.709650 0.000000 
#    z 0.000000 0.000000 1.724000 
# 
# From -- ./inp_files/72770.got.cif
#   From: 2010.03.12/outbox.cif.g09.slc.cpg/sg65_37_cif.got.tgz:72770.got - 2010.04.10 20:52:16.
