data_PCOD8274312
_publ_section_title
;
Structure prediction by ZEFSAII (Michael W. Deem and Ramdas Pophale) SiO2 
 PCOD8274312
Probable space group: C M M M
;
_chemical_formula_sum "Si O2"
_cell_formula_units_Z 96
_cell_length_a 28.902661
_cell_length_b 8.163836
_cell_length_c 22.466979
_cell_angle_alpha 90.000000
_cell_angle_beta 90.000000
_cell_angle_gamma 90.000000
_cell_volume 5301.231626
_symmetry_space_group_name_H-M "C M M M"
_symmetry_group_IT_number 65
_symmetry_cell_setting 'orthorhombic'
loop_
_space_group_symop_operation_xyz
x,y,z
-x,-y,z
x,-y,-z
-x,y,-z
-x,-y,-z
x,y,-z
-x,y,z
x,-y,z
1/2+x,1/2+y,z
1/2-x,1/2-y,z
1/2+x,1/2-y,-z
1/2-x,1/2+y,-z
1/2-x,1/2-y,-z
1/2+x,1/2+y,-z
1/2-x,1/2+y,z
1/2+x,1/2-y,z
loop_
_atom_site_type_symbol
_atom_site_label
_atom_site_fract_x
_atom_site_fract_y
_atom_site_fract_z
Si Si1 0.299395 0.308258 0.145055
Si Si2 0.198104 0.311354 0.500000
Si Si3 0.700151 0.306111 0.277170
Si Si4 0.112213 0.810721 0.929807
Si Si5 0.448100 0.000000 0.070533
Si Si6 0.551560 0.192861 0.567586
Si Si7 0.643476 0.310442 0.386376
O O1 0.297391 0.500000 0.151160
O O2 0.250000 0.250000 0.119474
O O3 0.308875 0.232195 0.210986
O O4 0.339735 0.256463 0.100186
O O5 0.202928 0.500000 0.500000
O O6 0.250000 0.250000 0.500000
O O7 0.169887 0.263732 0.558084
O O8 0.697583 0.500000 0.274527
O O9 0.750000 0.250000 0.300847
O O10 0.662429 0.236429 0.324036
O O11 0.075755 0.671408 0.908307
O O12 0.097584 0.000000 0.912122
O O13 0.119557 0.801643 0.000000
O O14 0.500000 0.000000 0.096874
O O15 0.449194 0.000000 0.000000
O O16 0.558826 0.254466 0.500000
O O17 0.500000 0.240761 0.589457
O O18 0.588616 0.277999 0.610417
O O19 0.558785 0.000000 0.570307
O O20 0.654141 0.500000 0.387615
#
# Coordination Sequence:
#
# PCOD8274312 Si02
#       7
#    16   8  16  16   8  16  16
#     4   9  18  32  50  73 103 139 177 211 253 308
#     4  12  24  36  49  68  99 130 158 197 247 297
#     4   9  19  34  50  71  99 131 169 208 244 295
#     4   9  18  32  51  78 111 142 177 223 273 322
#     4   9  18  32  52  78 108 142 182 227 272 320
#     4   9  18  33  52  73  97 124 155 194 242 296
#     4  11  21  33  51  75  99 125 162 203 250 299
#
# _framework density 18.108999000000001
#
# number of rings (size 3 to 8) (size 9 to 14) (size 15 to 20)
#    0.000    2.417    0.833    2.250    1.167    3.667 
#    0.000    2.500    0.000    1.000    0.000    4.667 
#    0.000    0.000    0.000    0.000    0.000    0.000 
#
# Total GULP energy -594884.951846 kJ/mol
# GULP energy per Si atom -12393.436497 kJ/mol
# Density = 1.806778 g / cm^3
# Si number density = 18.108999 Si / 1000 Ang^3
#
#
#
# Elastic Constant Matrix: (Units=GPa)
#
#
# Indices 1 2 3 4 5 6 
#
# 1 146.7386 48.5444 49.2989 0.0000 0.0000 0.0000
# 2 48.5444 68.4976 27.6431 0.0000 0.0000 0.0000
# 3 49.2989 27.6431 55.1088 0.0000 0.0000 0.0000
# 4 0.0000 0.0000 0.0000 8.4804 0.0000 0.0000
# 5 0.0000 0.0000 0.0000 0.0000 -18.7311 0.0000
# 6 0.0000 0.0000 0.0000 0.0000 0.0000 33.3593
#
#
#
# Elastic Compliance Matrix: (Units=1/GPa)
#
#
# Indices 1 2 3 4 5 6 
#
# 1 0.010840 -0.004725 -0.007327 0.000000 0.000000 0.000000
# 2 -0.004725 0.020364 -0.005988 0.000000 0.000000 0.000000
# 3 -0.007327 -0.005988 0.027704 0.000000 0.000000 0.000000
# 4 0.000000 0.000000 0.000000 0.117920 0.000000 0.000000
# 5 0.000000 0.000000 0.000000 0.000000 -0.053387 0.000000
# 6 0.000000 0.000000 0.000000 0.000000 0.000000 0.029977
#
#
# Mechanical properties :
#
#
# Convention : Reuss Voigt Hill
#
# Bulk Modulus (GPa) = 43.80548 57.92422 50.86485
# Shear Modulus (GPa) = 25.36717 14.27895 19.82306
#
# Velocity S-wave (km/s) = 3.74679 2.81107 3.31214
# Velocity P-wave (km/s) = 6.55441 6.52626 6.54035
#
# Compressibility (1/GPa) = 0.02282819
#
# Stress axis : x y z
#
# Youngs Moduli (GPa) = 92.25512 49.10548 36.09637
#
# Poissons Ratio (x) = 0.23204 0.26446
# Poissons Ratio (y) = 0.43593 0.21614
# Poissons Ratio (z) = 0.67591 0.29404
#
# Static dielectric constant tensor:
#      x y z
#    x 3.608050 0.000000 0.000000 
#    y 0.000000 3.434770 0.000000 
#    z 0.000000 0.000000 3.471290 
# 
# 
# High freq. dielectric constant tensor:
#      x y z
#    x 1.700920 0.000000 0.000000 
#    y 0.000000 1.704390 0.000000 
#    z 0.000000 0.000000 1.678530 
# 
# From -- ./inp_files/71726.got.cif
#   From: 2010.03.12/outbox.cif.g09.slc.cpg/sg65_36_cif.got.tgz:71726.got - 2010.04.10 20:52:16.
