data_PCOD8274067
_publ_section_title
;
Structure prediction by ZEFSAII (Michael W. Deem and Ramdas Pophale) SiO2 
 PCOD8274067
Probable space group: C M M M
;
_chemical_formula_sum "Si O2"
_cell_formula_units_Z 72
_cell_length_a 8.866751
_cell_length_b 17.804776
_cell_length_c 22.722374
_cell_angle_alpha 90.000000
_cell_angle_beta 90.000000
_cell_angle_gamma 90.000000
_cell_volume 3587.192895
_symmetry_space_group_name_H-M "C M M M"
_symmetry_group_IT_number 65
_symmetry_cell_setting 'orthorhombic'
loop_
_space_group_symop_operation_xyz
x,y,z
-x,-y,z
x,-y,-z
-x,y,-z
-x,-y,-z
x,y,-z
-x,y,z
x,-y,z
1/2+x,1/2+y,z
1/2-x,1/2-y,z
1/2+x,1/2-y,-z
1/2-x,1/2+y,-z
1/2-x,1/2-y,-z
1/2+x,1/2+y,-z
1/2-x,1/2+y,z
1/2+x,1/2-y,z
loop_
_atom_site_type_symbol
_atom_site_label
_atom_site_fract_x
_atom_site_fract_y
_atom_site_fract_z
Si Si1 0.325686 0.913441 0.226093
Si Si2 0.178246 0.330944 0.892712
Si Si3 0.823013 0.829487 0.670225
Si Si4 0.829155 0.911328 0.000000
Si Si5 0.174529 0.585956 0.432188
O O1 0.500000 0.899816 0.241934
O O2 0.275744 0.864693 0.170192
O O3 0.226417 0.890166 0.281653
O O4 0.294153 0.000000 0.211331
O O5 0.250000 0.250000 0.899798
O O6 0.242687 0.384592 0.942431
O O7 0.000000 0.325433 0.900070
O O8 0.750000 0.750000 0.685490
O O9 0.774746 0.858010 0.605996
O O10 0.000000 0.819140 0.671684
O O11 0.000000 0.879852 0.000000
O O12 0.828432 0.000000 0.000000
O O13 0.205444 0.605344 0.500000
O O14 0.220065 0.500000 0.418880
O O15 0.000000 0.598523 0.416354
#
# Coordination Sequence:
#
# PCOD8274067 Si02
#       5
#    16  16  16   8  16
#     4  10  22  41  64  89 118 153 193 239 292 349
#     4  11  23  40  63  90 121 157 197 241 291 346
#     4  12  25  39  58  85 118 156 196 241 292 345
#     4  11  24  41  62  89 121 157 198 245 294 345
#     4   9  19  38  63  88 116 152 192 236 289 348
#
# _framework density 20.071404999999999
#
# number of rings (size 3 to 8) (size 9 to 14) (size 15 to 20)
#    0.000    1.444    0.000    6.000    0.000    9.778 
#    0.000    1.111    0.000    0.000    0.000    0.000 
#    0.000    0.000    0.000    0.000    0.000    0.000 
#
# Total GULP energy -446642.805410 kJ/mol
# GULP energy per Si atom -12406.744595 kJ/mol
# Density = 2.002572 g / cm^3
# Si number density = 20.071405 Si / 1000 Ang^3
#
#
#
# Elastic Constant Matrix: (Units=GPa)
#
#
# Indices 1 2 3 4 5 6 
#
# 1 110.1328 34.9106 49.9857 0.0000 0.0000 0.0000
# 2 34.9106 80.0987 29.6333 0.0000 0.0000 0.0000
# 3 49.9857 29.6333 106.9783 0.0000 0.0000 0.0000
# 4 0.0000 0.0000 0.0000 33.2008 0.0000 0.0000
# 5 0.0000 0.0000 0.0000 0.0000 36.2740 0.0000
# 6 0.0000 0.0000 0.0000 0.0000 0.0000 32.1202
#
#
#
# Elastic Compliance Matrix: (Units=1/GPa)
#
#
# Indices 1 2 3 4 5 6 
#
# 1 0.012406 -0.003635 -0.004790 0.000000 0.000000 0.000000
# 2 -0.003635 0.014975 -0.002450 0.000000 0.000000 0.000000
# 3 -0.004790 -0.002450 0.012264 0.000000 0.000000 0.000000
# 4 0.000000 0.000000 0.000000 0.030120 0.000000 0.000000
# 5 0.000000 0.000000 0.000000 0.000000 0.027568 0.000000
# 6 0.000000 0.000000 0.000000 0.000000 0.000000 0.031133
#
#
# Mechanical properties :
#
#
# Convention : Reuss Voigt Hill
#
# Bulk Modulus (GPa) = 55.87704 58.47433 57.17569
# Shear Modulus (GPa) = 32.01408 32.49768 32.25588
#
# Velocity S-wave (km/s) = 3.99809 4.02817 4.01316
# Velocity P-wave (km/s) = 7.01516 7.12961 7.07262
#
# Compressibility (1/GPa) = 0.01789644
#
# Stress axis : x y z
#
# Youngs Moduli (GPa) = 80.60492 66.77698 81.53737
#
# Poissons Ratio (x) = 0.24274 0.39055
# Poissons Ratio (y) = 0.29301 0.19974
# Poissons Ratio (z) = 0.38609 0.16358
#
# Static dielectric constant tensor:
#      x y z
#    x 3.690160 0.000000 0.000000 
#    y 0.000000 3.683810 0.000000 
#    z 0.000000 0.000000 3.747440 
# 
# 
# High freq. dielectric constant tensor:
#      x y z
#    x 1.783530 0.000000 0.000000 
#    y 0.000000 1.794290 0.000000 
#    z 0.000000 0.000000 1.797860 
# 
# From -- ./inp_files/59303.got.cif
#   From: 2010.03.12/outbox.cif.g09.slc.cpg/sg65_30_cif.got.tgz:59303.got - 2010.04.10 20:52:16.
