data_PCOD8274190
_publ_section_title
;
Structure prediction by ZEFSAII (Michael W. Deem and Ramdas Pophale) SiO2 
 PCOD8274190
Probable space group: C M M M
;
_chemical_formula_sum "Si O2"
_cell_formula_units_Z 88
_cell_length_a 29.581982
_cell_length_b 14.126399
_cell_length_c 11.649267
_cell_angle_alpha 90.000000
_cell_angle_beta 90.000000
_cell_angle_gamma 90.000000
_cell_volume 4868.075852
_symmetry_space_group_name_H-M "C M M M"
_symmetry_group_IT_number 65
_symmetry_cell_setting 'orthorhombic'
loop_
_space_group_symop_operation_xyz
x,y,z
-x,-y,z
x,-y,-z
-x,y,-z
-x,-y,-z
x,y,-z
-x,y,z
x,-y,z
1/2+x,1/2+y,z
1/2-x,1/2-y,z
1/2+x,1/2-y,-z
1/2-x,1/2+y,-z
1/2-x,1/2-y,-z
1/2+x,1/2+y,-z
1/2-x,1/2+y,z
1/2+x,1/2-y,z
loop_
_atom_site_type_symbol
_atom_site_label
_atom_site_fract_x
_atom_site_fract_y
_atom_site_fract_z
Si Si1 0.845386 0.000000 0.363872
Si Si2 0.446672 0.000000 0.124734
Si Si3 0.721538 0.887907 0.000000
Si Si4 0.368925 0.680893 0.231961
Si Si5 0.675070 0.388519 0.000000
Si Si6 0.741534 0.000000 0.364488
Si Si7 0.947769 0.705533 0.136613
Si Si8 0.707221 0.183017 0.243061
O O1 0.871357 0.092270 0.317649
O O2 0.847432 0.000000 0.500000
O O3 0.793354 0.000000 0.318480
O O4 0.433525 0.900027 0.184271
O O5 0.500000 0.000000 0.106821
O O6 0.423193 0.000000 0.000000
O O7 0.773379 0.854073 0.000000
O O8 0.697249 0.846816 0.888074
O O9 0.718141 0.000000 0.000000
O O10 0.348054 0.651254 0.111844
O O11 0.419269 0.719023 0.209325
O O12 0.337155 0.761982 0.287943
O O13 0.670846 0.500000 0.000000
O O14 0.715178 0.908743 0.320058
O O15 0.741106 0.000000 0.500000
O O16 0.000000 0.727143 0.162820
O O17 0.938532 0.712673 0.000000
O O18 0.750000 0.250000 0.256016
#
# Coordination Sequence:
#
# PCOD8274190 Si02
#       8
#     8   8   8  16   8   8  16  16
#     4  11  24  41  59  79 106 151 198 235 281 337
#     4   7  12  27  48  72 109 146 171 203 256 326
#     4  11  20  34  52  74 121 152 179 220 268 349
#     4  12  22  35  58  82 113 146 188 233 279 338
#     4  11  19  31  54  78 108 154 183 217 276 335
#     4  11  24  42  58  79 112 149 195 245 282 323
#     4   9  18  33  55  85 118 151 185 223 274 334
#     4  12  22  35  54  83 111 148 185 226 277 334
#
# _framework density 18.076958000000001
#
# number of rings (size 3 to 8) (size 9 to 14) (size 15 to 20)
#    0.000    1.364    6.364    1.909    0.000    1.818 
#    0.000    0.455    0.000    2.727    0.000    0.000 
#    0.000    2.909    0.000    0.000    0.000    0.000 
#
# Total GULP energy -545503.018682 kJ/mol
# GULP energy per Si atom -12397.795879 kJ/mol
# Density = 1.803581 g / cm^3
# Si number density = 18.076958 Si / 1000 Ang^3
#
#
#
# Elastic Constant Matrix: (Units=GPa)
#
#
# Indices 1 2 3 4 5 6 
#
# 1 87.5149 64.4896 21.8384 0.0000 0.0000 0.0000
# 2 64.4896 122.3742 52.4911 0.0000 0.0000 0.0000
# 3 21.8384 52.4911 57.2466 0.0000 0.0000 0.0000
# 4 0.0000 0.0000 0.0000 -16.6986 0.0000 0.0000
# 5 0.0000 0.0000 0.0000 0.0000 25.2532 0.0000
# 6 0.0000 0.0000 0.0000 0.0000 0.0000 17.8346
#
#
#
# Elastic Compliance Matrix: (Units=1/GPa)
#
#
# Indices 1 2 3 4 5 6 
#
# 1 0.019028 -0.011396 0.003191 0.000000 0.000000 0.000000
# 2 -0.011396 0.020295 -0.014261 0.000000 0.000000 0.000000
# 3 0.003191 -0.014261 0.029328 0.000000 0.000000 0.000000
# 4 0.000000 0.000000 0.000000 -0.059885 0.000000 0.000000
# 5 0.000000 0.000000 0.000000 0.000000 0.039599 0.000000
# 6 0.000000 0.000000 0.000000 0.000000 0.000000 0.056071
#
#
# Mechanical properties :
#
#
# Convention : Reuss Voigt Hill
#
# Bulk Modulus (GPa) = 42.16414 60.53043 51.34729
# Shear Modulus (GPa) = 31.79161 13.83228 22.81195
#
# Velocity S-wave (km/s) = 4.19821 2.76921 3.55623
# Velocity P-wave (km/s) = 6.84656 6.61681 6.73267
#
# Compressibility (1/GPa) = 0.02371683
#
# Stress axis : x y z
#
# Youngs Moduli (GPa) = 52.55318 49.27437 34.09759
#
# Poissons Ratio (x) = 0.56154 -0.10879
# Poissons Ratio (y) = 0.59891 0.48627
# Poissons Ratio (z) = -0.16768 0.70271
#
# Static dielectric constant tensor:
#      x y z
#    x 3.176730 0.000000 0.000000 
#    y 0.000000 3.787300 0.000000 
#    z 0.000000 0.000000 3.047000 
# 
# 
# High freq. dielectric constant tensor:
#      x y z
#    x 1.674650 0.000000 0.000000 
#    y 0.000000 1.726710 0.000000 
#    z 0.000000 0.000000 1.662210 
# 
# From -- ./inp_files/32298.got.cif
#   From: 2010.03.12/outbox.cif.g09.slc.cpg/sg65_17_cif.got.tgz:32298.got - 2010.04.10 20:52:16.
