data_PCOD8274876
_publ_section_title
;
Structure prediction by ZEFSAII (Michael W. Deem and Ramdas Pophale) SiO2 
 PCOD8274876
Probable space group: C M M M
;
_chemical_formula_sum "Si O2"
_cell_formula_units_Z 88
_cell_length_a 9.346309
_cell_length_b 19.461893
_cell_length_c 28.189714
_cell_angle_alpha 90.000000
_cell_angle_beta 90.000000
_cell_angle_gamma 90.000000
_cell_volume 5127.620622
_symmetry_space_group_name_H-M "C M M M"
_symmetry_group_IT_number 65
_symmetry_cell_setting 'orthorhombic'
loop_
_space_group_symop_operation_xyz
x,y,z
-x,-y,z
x,-y,-z
-x,y,-z
-x,-y,-z
x,y,-z
-x,y,z
x,-y,z
1/2+x,1/2+y,z
1/2-x,1/2-y,z
1/2+x,1/2-y,-z
1/2-x,1/2+y,-z
1/2-x,1/2-y,-z
1/2+x,1/2+y,-z
1/2-x,1/2+y,z
1/2+x,1/2-y,z
loop_
_atom_site_type_symbol
_atom_site_label
_atom_site_fract_x
_atom_site_fract_y
_atom_site_fract_z
Si Si1 0.830592 0.576874 0.633188
Si Si2 0.667042 0.818178 0.179454
Si Si3 0.667119 0.818292 0.445759
Si Si4 0.156862 0.581739 0.000000
Si Si5 0.667039 0.180967 0.287395
Si Si6 0.171255 0.576530 0.101573
O O1 0.762984 0.500000 0.633181
O O2 0.780550 0.617897 0.586248
O O3 0.778826 0.618520 0.679654
O O4 0.000000 0.570364 0.633660
O O5 0.500000 0.804624 0.171866
O O6 0.750000 0.750000 0.165863
O O7 0.699528 0.840975 0.233343
O O8 0.726778 0.876287 0.144231
O O9 0.702358 0.837603 0.500000
O O10 0.500000 0.803513 0.438121
O O11 0.750000 0.750000 0.429791
O O12 0.232904 0.602952 0.049999
O O13 0.141752 0.500000 0.000000
O O14 0.000000 0.615861 0.000000
O O15 0.500000 0.195875 0.295575
O O16 0.750000 0.250000 0.301510
O O17 0.227925 0.500000 0.112317
O O18 0.000000 0.576383 0.098964
#
# Coordination Sequence:
#
# PCOD8274876 Si02
#       6
#    16  16  16   8  16  16
#     4   9  17  28  43  65  89 109 134 172 212 244
#     4   9  17  28  42  61  84 108 134 166 204 244
#     4   9  17  29  46  66  86 111 142 172 202 240
#     4   7  10  18  33  54  79 103 128 163 204 238
#     4   9  17  29  45  62  81 109 140 168 201 242
#     4   8  13  22  38  59  80 103 134 170 203 236
#
# _framework density 17.161957000000001
#
# number of rings (size 3 to 8) (size 9 to 14) (size 15 to 20)
#    0.000    3.364    0.000    1.636    0.000    1.091 
#    0.000    5.909    0.000    2.727    0.000    7.636 
#    0.000    2.182    0.000    0.000    0.000    0.000 
#
# Total GULP energy -545229.772705 kJ/mol
# GULP energy per Si atom -12391.585743 kJ/mol
# Density = 1.712290 g / cm^3
# Si number density = 17.161957 Si / 1000 Ang^3
#
#
#
# Elastic Constant Matrix: (Units=GPa)
#
#
# Indices 1 2 3 4 5 6 
#
# 1 17.9754 27.0464 22.3469 0.0000 0.0000 0.0000
# 2 27.0464 147.7429 103.1903 0.0000 0.0000 0.0000
# 3 22.3469 103.1903 147.3190 0.0000 0.0000 0.0000
# 4 0.0000 0.0000 0.0000 33.6334 0.0000 0.0000
# 5 0.0000 0.0000 0.0000 0.0000 11.2986 0.0000
# 6 0.0000 0.0000 0.0000 0.0000 0.0000 19.7610
#
#
#
# Elastic Compliance Matrix: (Units=1/GPa)
#
#
# Indices 1 2 3 4 5 6 
#
# 1 0.077728 -0.011735 -0.003571 0.000000 0.000000 0.000000
# 2 -0.011735 0.015023 -0.008743 0.000000 0.000000 0.000000
# 3 -0.003571 -0.008743 0.013454 0.000000 0.000000 0.000000
# 4 0.000000 0.000000 0.000000 0.029732 0.000000 0.000000
# 5 0.000000 0.000000 0.000000 0.000000 0.088506 0.000000
# 6 0.000000 0.000000 0.000000 0.000000 0.000000 0.050605
#
#
# Mechanical properties :
#
#
# Convention : Reuss Voigt Hill
#
# Bulk Modulus (GPa) = 17.20961 68.68939 42.94950
# Shear Modulus (GPa) = 14.59789 23.63551 19.11670
#
# Velocity S-wave (km/s) = 2.91966 3.71510 3.34113
# Velocity P-wave (km/s) = 4.62768 7.64942 6.32175
#
# Compressibility (1/GPa) = 0.05810706
#
# Stress axis : x y z
#
# Youngs Moduli (GPa) = 12.86542 66.56293 74.32885
#
# Poissons Ratio (x) = 0.78114 0.26539
# Poissons Ratio (y) = 0.15098 0.64986
# Poissons Ratio (z) = 0.04594 0.58196
#
# Static dielectric constant tensor:
#      x y z
#    x 2.740920 0.000000 0.000000 
#    y 0.000000 3.286350 0.000000 
#    z 0.000000 0.000000 3.594590 
# 
# 
# High freq. dielectric constant tensor:
#      x y z
#    x 1.606270 0.000000 0.000000 
#    y 0.000000 1.648760 0.000000 
#    z 0.000000 0.000000 1.684090 
# 
# From -- ./inp_files/74235.got.cif
#   From: 2010.03.12/outbox.cif.g09.slc.cpg/sg65_38_cif.got.tgz:74235.got - 2010.04.10 20:52:16.
