data_PCOD8274528
_publ_section_title
;
Structure prediction by ZEFSAII (Michael W. Deem and Ramdas Pophale) SiO2 
 PCOD8274528
Probable space group: C M M M
;
_chemical_formula_sum "Si O2"
_cell_formula_units_Z 64
_cell_length_a 30.458732
_cell_length_b 9.769593
_cell_length_c 13.012644
_cell_angle_alpha 90.000000
_cell_angle_beta 90.000000
_cell_angle_gamma 90.000000
_cell_volume 3872.164862
_symmetry_space_group_name_H-M "C M M M"
_symmetry_group_IT_number 65
_symmetry_cell_setting 'orthorhombic'
loop_
_space_group_symop_operation_xyz
x,y,z
-x,-y,z
x,-y,-z
-x,y,-z
-x,-y,-z
x,y,-z
-x,y,z
x,-y,z
1/2+x,1/2+y,z
1/2-x,1/2-y,z
1/2+x,1/2-y,-z
1/2-x,1/2+y,-z
1/2-x,1/2-y,-z
1/2+x,1/2+y,-z
1/2-x,1/2+y,z
1/2+x,1/2-y,z
loop_
_atom_site_type_symbol
_atom_site_label
_atom_site_fract_x
_atom_site_fract_y
_atom_site_fract_z
Si Si1 0.782984 0.000000 0.115668
Si Si2 0.500000 0.337646 0.616009
Si Si3 0.831725 0.657493 0.381008
Si Si4 0.886980 0.000000 0.114872
Si Si5 0.591343 0.346883 0.699317
Si Si6 0.250000 0.750000 0.752356
O O1 0.835000 0.000000 0.112571
O O2 0.766446 0.131807 0.174259
O O3 0.763876 0.000000 0.000000
O O4 0.500000 0.500000 0.618632
O O5 0.500000 0.280957 0.500000
O O6 0.543556 0.283880 0.673782
O O7 0.821914 0.684918 0.500000
O O8 0.843600 0.500000 0.359880
O O9 0.872671 0.747135 0.346175
O O10 0.788757 0.698027 0.319294
O O11 0.903425 0.135890 0.176625
O O12 0.906823 0.000000 0.000000
O O13 0.597074 0.500000 0.649430
#
# Coordination Sequence:
#
# PCOD8274528 Si02
#       6
#     8   8  16   8  16   8
#     4  11  22  36  57  79 106 140 178 224 266 309
#     4   9  16  28  51  81 109 132 174 218 261 313
#     4  11  23  36  52  76 110 142 173 215 267 320
#     4   9  18  33  53  78 105 135 173 223 266 302
#     4   9  18  35  54  79 103 141 174 219 259 315
#     4  12  20  40  52  80 108 136 178 218 266 320
#
# _framework density 16.528222
#
# number of rings (size 3 to 8) (size 9 to 14) (size 15 to 20)
#    0.750    1.125    3.750    1.500    0.000    1.500 
#    0.000    1.875    0.000    2.250    0.000    0.000 
#    0.000    2.000    0.000    0.000    0.000    0.000 
#
# Total GULP energy -396624.534556 kJ/mol
# GULP energy per Si atom -12394.516705 kJ/mol
# Density = 1.649060 g / cm^3
# Si number density = 16.528222 Si / 1000 Ang^3
#
#
#
# Elastic Constant Matrix: (Units=GPa)
#
#
# Indices 1 2 3 4 5 6 
#
# 1 112.2174 21.5752 67.8595 0.0000 0.0000 0.0000
# 2 21.5752 57.4529 53.8153 0.0000 0.0000 0.0000
# 3 67.8595 53.8153 147.9952 0.0000 0.0000 0.0000
# 4 0.0000 0.0000 0.0000 22.8152 0.0000 0.0000
# 5 0.0000 0.0000 0.0000 0.0000 23.3614 0.0000
# 6 0.0000 0.0000 0.0000 0.0000 0.0000 41.3546
#
#
#
# Elastic Compliance Matrix: (Units=1/GPa)
#
#
# Indices 1 2 3 4 5 6 
#
# 1 0.012369 0.001012 -0.006040 0.000000 0.000000 0.000000
# 2 0.001012 0.026479 -0.010093 0.000000 0.000000 0.000000
# 3 -0.006040 -0.010093 0.013196 0.000000 0.000000 0.000000
# 4 0.000000 0.000000 0.000000 0.043831 0.000000 0.000000
# 5 0.000000 0.000000 0.000000 0.000000 0.042806 0.000000
# 6 0.000000 0.000000 0.000000 0.000000 0.000000 0.024181
#
#
# Mechanical properties :
#
#
# Convention : Reuss Voigt Hill
#
# Bulk Modulus (GPa) = 45.86254 67.12948 56.49601
# Shear Modulus (GPa) = 24.95392 29.13395 27.04393
#
# Velocity S-wave (km/s) = 3.88980 4.20298 4.04942
# Velocity P-wave (km/s) = 6.92693 8.01602 7.49129
#
# Compressibility (1/GPa) = 0.02180429
#
# Stress axis : x y z
#
# Youngs Moduli (GPa) = 80.84842 37.76560 75.77917
#
# Poissons Ratio (x) = -0.03823 0.45767
# Poissons Ratio (y) = -0.08184 0.76482
# Poissons Ratio (z) = 0.48828 0.38116
#
# Static dielectric constant tensor:
#      x y z
#    x 3.277770 0.000000 0.000000 
#    y 0.000000 2.948800 0.000000 
#    z 0.000000 0.000000 3.326470 
# 
# 
# High freq. dielectric constant tensor:
#      x y z
#    x 1.644380 0.000000 0.000000 
#    y 0.000000 1.614220 0.000000 
#    z 0.000000 0.000000 1.640820 
# 
# From -- ./inp_files/47417.got.cif
#   From: 2010.03.12/outbox.cif.g09.slc.cpg/sg65_24_cif.got.tgz:47417.got - 2010.04.10 20:52:16.
