data_PCOD8274627
_publ_section_title
;
Structure prediction by ZEFSAII (Michael W. Deem and Ramdas Pophale) SiO2 
 PCOD8274627
Probable space group: C M M M
;
_chemical_formula_sum "Si O2"
_cell_formula_units_Z 72
_cell_length_a 7.405919
_cell_length_b 18.730359
_cell_length_c 25.110343
_cell_angle_alpha 90.000000
_cell_angle_beta 90.000000
_cell_angle_gamma 90.000000
_cell_volume 3483.194327
_symmetry_space_group_name_H-M "C M M M"
_symmetry_group_IT_number 65
_symmetry_cell_setting 'orthorhombic'
loop_
_space_group_symop_operation_xyz
x,y,z
-x,-y,z
x,-y,-z
-x,y,-z
-x,-y,-z
x,y,-z
-x,y,z
x,-y,z
1/2+x,1/2+y,z
1/2-x,1/2-y,z
1/2+x,1/2-y,-z
1/2-x,1/2+y,-z
1/2-x,1/2-y,-z
1/2+x,1/2+y,-z
1/2-x,1/2+y,z
1/2+x,1/2-y,z
loop_
_atom_site_type_symbol
_atom_site_label
_atom_site_fract_x
_atom_site_fract_y
_atom_site_fract_z
Si Si1 0.786053 0.580016 0.271506
Si Si2 0.211163 0.666217 0.627157
Si Si3 0.213588 0.580773 0.154795
Si Si4 0.711084 0.168979 0.941725
Si Si5 0.500000 0.417510 0.437034
O O1 0.713251 0.500000 0.284570
O O2 0.720130 0.636300 0.315750
O O3 0.714476 0.605314 0.213229
O O4 0.000000 0.577008 0.270065
O O5 0.250000 0.750000 0.624141
O O6 0.320879 0.623479 0.582490
O O7 0.000000 0.650897 0.617795
O O8 0.271972 0.500000 0.145311
O O9 0.303114 0.624878 0.106345
O O10 0.000000 0.590134 0.153558
O O11 0.500000 0.153322 0.943714
O O12 0.750000 0.250000 0.928063
O O13 0.794367 0.149141 0.000000
O O14 0.500000 0.500000 0.417532
O O15 0.500000 0.413764 0.500000
#
# Coordination Sequence:
#
# PCOD8274627 Si02
#       5
#    16  16  16  16   8
#     4   8  15  29  52  78 107 145 185 228 283 347
#     4  11  22  40  63  94 127 163 204 250 304 357
#     4   8  14  26  45  71  99 130 172 221 273 325
#     4   9  17  28  43  64  91 126 168 214 268 326
#     4  11  26  46  68  96 127 163 208 252 299 358
#
# _framework density 20.670681999999999
#
# number of rings (size 3 to 8) (size 9 to 14) (size 15 to 20)
#    0.000    2.778    1.111    2.000    0.000    3.556 
#    0.000    3.333    2.444    0.667    0.000    3.111 
#    0.000    0.000    0.000    0.000    0.000    0.000 
#
# Total GULP energy -446080.357321 kJ/mol
# GULP energy per Si atom -12391.121037 kJ/mol
# Density = 2.062364 g / cm^3
# Si number density = 20.670682 Si / 1000 Ang^3
#
#
#
# Elastic Constant Matrix: (Units=GPa)
#
#
# Indices 1 2 3 4 5 6 
#
# 1 65.7820 24.3386 28.9641 0.0000 0.0000 0.0000
# 2 24.3386 137.6281 94.5690 0.0000 0.0000 0.0000
# 3 28.9641 94.5690 161.9578 0.0000 0.0000 0.0000
# 4 0.0000 0.0000 0.0000 34.9321 0.0000 0.0000
# 5 0.0000 0.0000 0.0000 0.0000 -3.1797 0.0000
# 6 0.0000 0.0000 0.0000 0.0000 0.0000 8.0580
#
#
#
# Elastic Compliance Matrix: (Units=1/GPa)
#
#
# Indices 1 2 3 4 5 6 
#
# 1 0.016685 -0.001504 -0.002106 0.000000 0.000000 0.000000
# 2 -0.001504 0.012270 -0.006896 0.000000 0.000000 0.000000
# 3 -0.002106 -0.006896 0.010578 0.000000 0.000000 0.000000
# 4 0.000000 0.000000 0.000000 0.028627 0.000000 0.000000
# 5 0.000000 0.000000 0.000000 0.000000 -0.314498 0.000000
# 6 0.000000 0.000000 0.000000 0.000000 0.000000 0.124100
#
#
# Mechanical properties :
#
#
# Convention : Reuss Voigt Hill
#
# Bulk Modulus (GPa) = 53.98882 73.45680 63.72281
# Shear Modulus (GPa) = -52.60222 22.46185 -15.07018
#
# Velocity S-wave (km/s) = -5.05005 3.30002 -2.70304
# Velocity P-wave (km/s) = 2.79799 7.08054 4.59920
#
# Compressibility (1/GPa) = 0.01852235
#
# Stress axis : x y z
#
# Youngs Moduli (GPa) = 59.93296 81.49825 94.53916
#
# Poissons Ratio (x) = 0.12254 0.19910
# Poissons Ratio (y) = 0.09011 0.65192
# Poissons Ratio (z) = 0.12622 0.56200
#
# Static dielectric constant tensor:
#      x y z
#    x 3.784840 0.000000 0.000000 
#    y 0.000000 3.746400 0.000000 
#    z 0.000000 0.000000 4.410080 
# 
# 
# High freq. dielectric constant tensor:
#      x y z
#    x 1.790720 0.000000 0.000000 
#    y 0.000000 1.798270 0.000000 
#    z 0.000000 0.000000 1.819710 
# 
# From -- ./inp_files/67023.got.cif
#   From: 2010.03.12/outbox.cif.g09.slc.cpg/sg65_34_cif.got.tgz:67023.got - 2010.04.10 20:52:16.
