data_PCOD8274184
_publ_section_title
;
Structure prediction by ZEFSAII (Michael W. Deem and Ramdas Pophale) SiO2 
 PCOD8274184
Probable space group: C M M M
;
_chemical_formula_sum "Si O2"
_cell_formula_units_Z 64
_cell_length_a 9.888284
_cell_length_b 23.022022
_cell_length_c 17.439578
_cell_angle_alpha 90.000000
_cell_angle_beta 90.000000
_cell_angle_gamma 90.000000
_cell_volume 3970.090141
_symmetry_space_group_name_H-M "C M M M"
_symmetry_group_IT_number 65
_symmetry_cell_setting 'orthorhombic'
loop_
_space_group_symop_operation_xyz
x,y,z
-x,-y,z
x,-y,-z
-x,y,-z
-x,-y,-z
x,y,-z
-x,y,z
x,-y,z
1/2+x,1/2+y,z
1/2-x,1/2-y,z
1/2+x,1/2-y,-z
1/2-x,1/2+y,-z
1/2-x,1/2-y,-z
1/2+x,1/2+y,-z
1/2-x,1/2+y,z
1/2+x,1/2-y,z
loop_
_atom_site_type_symbol
_atom_site_label
_atom_site_fract_x
_atom_site_fract_y
_atom_site_fract_z
Si Si1 0.764299 0.119136 0.156799
Si Si2 0.841951 0.500000 0.409400
Si Si3 0.500000 0.691310 0.087466
Si Si4 0.500000 0.171198 0.910556
Si Si5 0.348742 0.500000 0.909727
Si Si6 0.846439 0.063765 0.306735
O O1 0.622052 0.146209 0.137785
O O2 0.771155 0.057340 0.115897
O O3 0.788449 0.111187 0.247853
O O4 0.869755 0.165739 0.127254
O O5 0.832973 0.500000 0.500000
O O6 0.760592 0.442817 0.377603
O O7 0.000000 0.500000 0.382659
O O8 0.500000 0.759951 0.094382
O O9 0.500000 0.670622 0.000000
O O10 0.500000 0.151424 0.000000
O O11 0.500000 0.500000 0.874926
O O12 0.354733 0.500000 0.000000
O O13 0.000000 0.080513 0.333988
O O14 0.852405 0.000000 0.265421
#
# Coordination Sequence:
#
# PCOD8274184 Si02
#       6
#    16   8   8   8   8  16
#     4  12  21  35  55  75 103 138 179 227 278 329
#     4   9  18  31  53  84 119 149 166 191 247 329
#     4  11  22  39  57  69  97 145 194 238 274 320
#     4  11  26  39  49  73 103 141 190 242 290 314
#     4  11  19  29  49  72  91 125 170 214 267 322
#     4   9  18  32  51  76 107 143 168 207 256 314
#
# _framework density 16.120539999999998
#
# number of rings (size 3 to 8) (size 9 to 14) (size 15 to 20)
#    0.750    0.750    3.750    3.000    1.750    3.500 
#    0.000    1.250    0.000    0.000    0.000    0.000 
#    0.000    6.000    0.000    0.000    0.000    0.000 
#
# Total GULP energy -396537.201068 kJ/mol
# GULP energy per Si atom -12391.787533 kJ/mol
# Density = 1.608385 g / cm^3
# Si number density = 16.120540 Si / 1000 Ang^3
#
#
#
# Elastic Constant Matrix: (Units=GPa)
#
#
# Indices 1 2 3 4 5 6 
#
# 1 157.3817 34.0085 60.9959 0.0000 0.0000 0.0000
# 2 34.0085 55.3976 26.5842 0.0000 0.0000 0.0000
# 3 60.9959 26.5842 91.2854 0.0000 0.0000 0.0000
# 4 0.0000 0.0000 0.0000 14.0436 0.0000 0.0000
# 5 0.0000 0.0000 0.0000 0.0000 28.4141 0.0000
# 6 0.0000 0.0000 0.0000 0.0000 0.0000 6.6097
#
#
#
# Elastic Compliance Matrix: (Units=1/GPa)
#
#
# Indices 1 2 3 4 5 6 
#
# 1 0.009002 -0.003069 -0.005121 0.000000 0.000000 0.000000
# 2 -0.003069 0.022030 -0.004365 0.000000 0.000000 0.000000
# 3 -0.005121 -0.004365 0.015648 0.000000 0.000000 0.000000
# 4 0.000000 0.000000 0.000000 0.071207 0.000000 0.000000
# 5 0.000000 0.000000 0.000000 0.000000 0.035194 0.000000
# 6 0.000000 0.000000 0.000000 0.000000 0.000000 0.151293
#
#
# Mechanical properties :
#
#
# Convention : Reuss Voigt Hill
#
# Bulk Modulus (GPa) = 46.36177 60.80467 53.58322
# Shear Modulus (GPa) = 14.85118 21.97856 18.41487
#
# Velocity S-wave (km/s) = 3.03852 3.69641 3.38349
# Velocity P-wave (km/s) = 6.41342 7.48456 6.96960
#
# Compressibility (1/GPa) = 0.02156950
#
# Stress axis : x y z
#
# Youngs Moduli (GPa) = 111.08713 45.39279 63.90638
#
# Poissons Ratio (x) = 0.13929 0.32729
# Poissons Ratio (y) = 0.34089 0.27896
# Poissons Ratio (z) = 0.56891 0.19815
#
# Static dielectric constant tensor:
#      x y z
#    x 3.146830 0.000000 0.000000 
#    y 0.000000 2.837710 0.000000 
#    z 0.000000 0.000000 2.866050 
# 
# 
# High freq. dielectric constant tensor:
#      x y z
#    x 1.636120 0.000000 0.000000 
#    y 0.000000 1.597440 0.000000 
#    z 0.000000 0.000000 1.601180 
# 
# From -- ./inp_files/59174.got.cif
#   From: 2010.03.12/outbox.cif.g09.slc.cpg/sg65_30_cif.got.tgz:59174.got - 2010.04.10 20:52:16.
