data_PCOD8274341
_publ_section_title
;
Structure prediction by ZEFSAII (Michael W. Deem and Ramdas Pophale) SiO2 
 PCOD8274341
Probable space group: C M M M
;
_chemical_formula_sum "Si O2"
_cell_formula_units_Z 64
_cell_length_a 35.652120
_cell_length_b 11.204423
_cell_length_c 8.800050
_cell_angle_alpha 90.000000
_cell_angle_beta 90.000000
_cell_angle_gamma 90.000000
_cell_volume 3515.280586
_symmetry_space_group_name_H-M "C M M M"
_symmetry_group_IT_number 65
_symmetry_cell_setting 'orthorhombic'
loop_
_space_group_symop_operation_xyz
x,y,z
-x,-y,z
x,-y,-z
-x,y,-z
-x,-y,-z
x,y,-z
-x,y,z
x,-y,z
1/2+x,1/2+y,z
1/2-x,1/2-y,z
1/2+x,1/2-y,-z
1/2-x,1/2+y,-z
1/2-x,1/2-y,-z
1/2+x,1/2+y,-z
1/2-x,1/2+y,z
1/2+x,1/2-y,z
loop_
_atom_site_type_symbol
_atom_site_label
_atom_site_fract_x
_atom_site_fract_y
_atom_site_fract_z
Si Si1 0.274065 0.863128 0.180785
Si Si2 0.000000 0.639275 0.668742
Si Si3 0.142119 0.631477 0.180226
Si Si4 0.956667 0.000000 0.678837
Si Si5 0.569110 0.261152 0.819423
O O1 0.250000 0.750000 0.245967
O O2 0.316298 0.834101 0.237881
O O3 0.262346 0.000000 0.235025
O O4 0.271564 0.863017 0.000000
O O5 0.036876 0.674581 0.759919
O O6 0.000000 0.500000 0.648996
O O7 0.000000 0.700254 0.500000
O O8 0.131824 0.500000 0.240084
O O9 0.109864 0.719210 0.240769
O O10 0.142353 0.632764 0.000000
O O11 0.935748 0.110103 0.750809
O O12 0.951961 0.000000 0.500000
O O13 0.000000 0.000000 0.727982
O O14 0.566870 0.264270 0.000000
#
# Coordination Sequence:
#
# PCOD8274341 Si02
#       5
#    16   8  16   8  16
#     4   8  13  23  39  61  93 136 172 196 238 302
#     4  11  23  36  51  74 103 133 167 211 256 305
#     4   8  15  28  45  68 100 132 162 202 251 297
#     4  11  23  39  55  69  98 138 168 206 260 314
#     4  11  21  34  54  76  98 129 172 215 255 302
#
# _framework density 18.206229
#
# number of rings (size 3 to 8) (size 9 to 14) (size 15 to 20)
#    0.000    2.500    1.250    3.750    0.000    2.500 
#    2.250    0.000    0.000    0.000    0.000    0.000 
#    0.000    4.000    1.500    0.000    2.000    0.000 
#
# Total GULP energy -396481.552921 kJ/mol
# GULP energy per Si atom -12390.048529 kJ/mol
# Density = 1.816479 g / cm^3
# Si number density = 18.206229 Si / 1000 Ang^3
#
#
#
# Elastic Constant Matrix: (Units=GPa)
#
#
# Indices 1 2 3 4 5 6 
#
# 1 156.2118 99.2101 29.8012 0.0000 0.0000 0.0000
# 2 99.2101 152.9750 32.1815 0.0000 0.0000 0.0000
# 3 29.8012 32.1815 33.1492 0.0000 0.0000 0.0000
# 4 0.0000 0.0000 0.0000 12.2162 0.0000 0.0000
# 5 0.0000 0.0000 0.0000 0.0000 -1.4659 0.0000
# 6 0.0000 0.0000 0.0000 0.0000 0.0000 41.1520
#
#
#
# Elastic Compliance Matrix: (Units=1/GPa)
#
#
# Indices 1 2 3 4 5 6 
#
# 1 0.011255 -0.006498 -0.003810 0.000000 0.000000 0.000000
# 2 -0.006498 0.011966 -0.005775 0.000000 0.000000 0.000000
# 3 -0.003810 -0.005775 0.039199 0.000000 0.000000 0.000000
# 4 0.000000 0.000000 0.000000 0.081858 0.000000 0.000000
# 5 0.000000 0.000000 0.000000 0.000000 -0.682188 0.000000
# 6 0.000000 0.000000 0.000000 0.000000 0.000000 0.024300
#
#
# Mechanical properties :
#
#
# Convention : Reuss Voigt Hill
#
# Bulk Modulus (GPa) = 33.05426 73.85794 53.45610
# Shear Modulus (GPa) = -10.60764 22.45670 5.92453
#
# Velocity S-wave (km/s) = -2.41641 3.51588 1.80588
# Velocity P-wave (km/s) = 3.22638 7.55892 5.81149
#
# Compressibility (1/GPa) = 0.03025329
#
# Stress axis : x y z
#
# Youngs Moduli (GPa) = 88.84709 83.56966 25.51113
#
# Poissons Ratio (x) = 0.54303 0.09721
# Poissons Ratio (y) = 0.57732 0.14733
# Poissons Ratio (z) = 0.33854 0.48262
#
# Static dielectric constant tensor:
#      x y z
#    x 3.739500 0.000000 0.000000 
#    y 0.000000 3.617810 0.000000 
#    z 0.000000 0.000000 3.012250 
# 
# 
# High freq. dielectric constant tensor:
#      x y z
#    x 1.709140 0.000000 0.000000 
#    y 0.000000 1.716200 0.000000 
#    z 0.000000 0.000000 1.663310 
# 
# From -- ./inp_files/4975.got.cif
#   From: 2010.03.12/outbox.cif.g09.slc.cpg/sg65_3_cif.got.tgz:4975.got - 2010.04.10 20:52:16.
