data_PCOD8274812
_publ_section_title
;
Structure prediction by ZEFSAII (Michael W. Deem and Ramdas Pophale) SiO2 
 PCOD8274812
Probable space group: C M M M
;
_chemical_formula_sum "Si O2"
_cell_formula_units_Z 48
_cell_length_a 8.718350
_cell_length_b 15.590063
_cell_length_c 17.033765
_cell_angle_alpha 90.000000
_cell_angle_beta 90.000000
_cell_angle_gamma 90.000000
_cell_volume 2315.222964
_symmetry_space_group_name_H-M "C M M M"
_symmetry_group_IT_number 65
_symmetry_cell_setting 'orthorhombic'
loop_
_space_group_symop_operation_xyz
x,y,z
-x,-y,z
x,-y,-z
-x,y,-z
-x,-y,-z
x,y,-z
-x,y,z
x,-y,z
1/2+x,1/2+y,z
1/2-x,1/2-y,z
1/2+x,1/2-y,-z
1/2-x,1/2+y,-z
1/2-x,1/2-y,-z
1/2+x,1/2+y,-z
1/2-x,1/2+y,z
1/2+x,1/2-y,z
loop_
_atom_site_type_symbol
_atom_site_label
_atom_site_fract_x
_atom_site_fract_y
_atom_site_fract_z
Si Si1 0.318272 0.400576 0.669470
Si Si2 0.180800 0.662008 0.175842
Si Si3 0.831861 0.101541 0.500000
Si Si4 0.824483 0.000000 0.092784
O O1 0.500000 0.383657 0.674468
O O2 0.282394 0.500000 0.686241
O O3 0.229376 0.345079 0.733276
O O4 0.251888 0.372548 0.582797
O O5 0.250000 0.750000 0.141298
O O6 0.243759 0.584184 0.125065
O O7 0.000000 0.664385 0.168444
O O8 0.000000 0.143747 0.500000
O O9 0.851476 0.000000 0.500000
O O10 0.000000 0.000000 0.121697
O O11 0.810932 0.000000 0.000000
#
# Coordination Sequence:
#
# PCOD8274812 Si02
#       4
#    16  16   8   8
#     4   9  16  31  57  86 122 163 208 257 308 363
#     4  12  25  41  64  94 129 167 209 253 305 365
#     4   7  12  24  48  83 116 158 207 253 305 359
#     4  11  25  47  73  98 125 158 197 247 310 375
#
# _framework density 20.732344999999999
#
# number of rings (size 3 to 8) (size 9 to 14) (size 15 to 20)
#    0.000    2.000    1.667    5.500    0.000    2.000 
#    0.000    1.667    0.000    3.000    0.000    0.000 
#    0.000    0.000    0.000    0.000    0.000    0.000 
#
# Total GULP energy -297456.207377 kJ/mol
# GULP energy per Si atom -12394.008641 kJ/mol
# Density = 2.068516 g / cm^3
# Si number density = 20.732345 Si / 1000 Ang^3
#
#
#
# Elastic Constant Matrix: (Units=GPa)
#
#
# Indices 1 2 3 4 5 6 
#
# 1 135.7651 64.8111 48.3300 0.0000 0.0000 0.0000
# 2 64.8111 132.0156 45.6722 0.0000 0.0000 0.0000
# 3 48.3300 45.6722 96.6403 0.0000 0.0000 0.0000
# 4 0.0000 0.0000 0.0000 3.0816 0.0000 0.0000
# 5 0.0000 0.0000 0.0000 0.0000 23.6346 0.0000
# 6 0.0000 0.0000 0.0000 0.0000 0.0000 29.8479
#
#
#
# Elastic Compliance Matrix: (Units=1/GPa)
#
#
# Indices 1 2 3 4 5 6 
#
# 1 0.010455 -0.003974 -0.003351 0.000000 0.000000 0.000000
# 2 -0.003974 0.010566 -0.003006 0.000000 0.000000 0.000000
# 3 -0.003351 -0.003006 0.013444 0.000000 0.000000 0.000000
# 4 0.000000 0.000000 0.000000 0.324510 0.000000 0.000000
# 5 0.000000 0.000000 0.000000 0.000000 0.042311 0.000000
# 6 0.000000 0.000000 0.000000 0.000000 0.000000 0.033503
#
#
# Mechanical properties :
#
#
# Convention : Reuss Voigt Hill
#
# Bulk Modulus (GPa) = 72.44278 75.78307 74.11293
# Shear Modulus (GPa) = 10.86834 25.02001 17.94418
#
# Velocity S-wave (km/s) = 2.29207 3.47769 2.94516
# Velocity P-wave (km/s) = 6.48248 7.26348 6.88407
#
# Compressibility (1/GPa) = 0.01380400
#
# Stress axis : x y z
#
# Youngs Moduli (GPa) = 95.64400 94.64617 74.38222
#
# Poissons Ratio (x) = 0.37609 0.24924
# Poissons Ratio (y) = 0.38006 0.22360
# Poissons Ratio (z) = 0.32049 0.28451
#
# Static dielectric constant tensor:
#      x y z
#    x 3.512450 0.000000 0.000000 
#    y 0.000000 3.619330 0.000000 
#    z 0.000000 0.000000 4.124890 
# 
# 
# High freq. dielectric constant tensor:
#      x y z
#    x 1.787700 0.000000 0.000000 
#    y 0.000000 1.800690 0.000000 
#    z 0.000000 0.000000 1.825970 
# 
# From -- ./inp_files/48476.got.cif
#   From: 2010.03.12/outbox.cif.g09.slc.cpg/sg65_25_cif.got.tgz:48476.got - 2010.04.10 20:52:16.
