data_PCOD8274093
_publ_section_title
;
Structure prediction by ZEFSAII (Michael W. Deem and Ramdas Pophale) SiO2 
 PCOD8274093
Probable space group: C M M M
;
_chemical_formula_sum "Si O2"
_cell_formula_units_Z 64
_cell_length_a 14.624506
_cell_length_b 10.164833
_cell_length_c 22.984521
_cell_angle_alpha 90.000000
_cell_angle_beta 90.000000
_cell_angle_gamma 90.000000
_cell_volume 3416.779167
_symmetry_space_group_name_H-M "C M M M"
_symmetry_group_IT_number 65
_symmetry_cell_setting 'orthorhombic'
loop_
_space_group_symop_operation_xyz
x,y,z
-x,-y,z
x,-y,-z
-x,y,-z
-x,-y,-z
x,y,-z
-x,y,z
x,-y,z
1/2+x,1/2+y,z
1/2-x,1/2-y,z
1/2+x,1/2-y,-z
1/2-x,1/2+y,-z
1/2-x,1/2-y,-z
1/2+x,1/2+y,-z
1/2-x,1/2+y,z
1/2+x,1/2-y,z
loop_
_atom_site_type_symbol
_atom_site_label
_atom_site_fract_x
_atom_site_fract_y
_atom_site_fract_z
Si Si1 0.393250 0.000000 0.728947
Si Si2 0.604104 0.500000 0.272308
Si Si3 0.750000 0.250000 0.907437
Si Si4 0.743126 0.000000 0.826930
Si Si5 0.000000 0.346365 0.568430
Si Si6 0.608920 0.657408 0.000000
Si Si7 0.647967 0.753349 0.652121
O O1 0.350742 0.000000 0.792227
O O2 0.359494 0.127799 0.696292
O O3 0.500000 0.000000 0.736210
O O4 0.500000 0.500000 0.249021
O O5 0.669328 0.500000 0.216051
O O6 0.620293 0.375708 0.313158
O O7 0.761247 0.374217 0.866977
O O8 0.657941 0.274882 0.944811
O O9 0.912413 0.274601 0.594983
O O10 0.000000 0.500000 0.586264
O O11 0.000000 0.326159 0.500000
O O12 0.625816 0.500000 0.000000
O O13 0.500000 0.688576 0.000000
O O14 0.750000 0.750000 0.627873
#
# Coordination Sequence:
#
# PCOD8274093 Si02
#       7
#     8   8   8   8   8   8  16
#     4  12  22  40  63  89 124 178 210 248 316 390
#     4  12  24  38  63  95 126 172 208 254 320 384
#     4  11  24  42  66 100 134 164 213 278 316 368
#     4  12  24  39  62 100 137 162 216 268 318 376
#     4  11  24  43  67  93 123 165 219 276 321 376
#     4  10  22  45  74  93 126 179 219 256 332 376
#     4  12  21  40  65  89 123 165 214 257 318 389
#
# _framework density 18.731089999999998
#
# number of rings (size 3 to 8) (size 9 to 14) (size 15 to 20)
#    0.000    0.500    7.500    1.500    0.000    2.500 
#    0.000    1.875    0.000    0.000    0.000    0.000 
#    0.000    0.000    0.000    0.000    0.000    0.000 
#
# Total GULP energy -396814.660655 kJ/mol
# GULP energy per Si atom -12400.458145 kJ/mol
# Density = 1.868846 g / cm^3
# Si number density = 18.731090 Si / 1000 Ang^3
#
#
#
# Elastic Constant Matrix: (Units=GPa)
#
#
# Indices 1 2 3 4 5 6 
#
# 1 183.9616 53.2334 71.3635 0.0000 0.0000 0.0000
# 2 53.2334 162.8434 76.7281 0.0000 0.0000 0.0000
# 3 71.3635 76.7281 136.5181 0.0000 0.0000 0.0000
# 4 0.0000 0.0000 0.0000 44.3731 0.0000 0.0000
# 5 0.0000 0.0000 0.0000 0.0000 39.9959 0.0000
# 6 0.0000 0.0000 0.0000 0.0000 0.0000 29.2047
#
#
#
# Elastic Compliance Matrix: (Units=1/GPa)
#
#
# Indices 1 2 3 4 5 6 
#
# 1 0.006886 -0.000755 -0.003175 0.000000 0.000000 0.000000
# 2 -0.000755 0.008436 -0.004347 0.000000 0.000000 0.000000
# 3 -0.003175 -0.004347 0.011428 0.000000 0.000000 0.000000
# 4 0.000000 0.000000 0.000000 0.022536 0.000000 0.000000
# 5 0.000000 0.000000 0.000000 0.000000 0.025003 0.000000
# 6 0.000000 0.000000 0.000000 0.000000 0.000000 0.034241
#
#
# Mechanical properties :
#
#
# Convention : Reuss Voigt Hill
#
# Bulk Modulus (GPa) = 98.07749 98.44145 98.25947
# Shear Modulus (GPa) = 38.91601 41.51460 40.21530
#
# Velocity S-wave (km/s) = 4.56303 4.71292 4.63858
# Velocity P-wave (km/s) = 8.95746 9.07109 9.01446
#
# Compressibility (1/GPa) = 0.01019602
#
# Stress axis : x y z
#
# Youngs Moduli (GPa) = 145.21825 118.54483 87.50559
#
# Poissons Ratio (x) = 0.08949 0.27787
# Poissons Ratio (y) = 0.10963 0.38034
# Poissons Ratio (z) = 0.46113 0.51526
#
# Static dielectric constant tensor:
#      x y z
#    x 4.331170 0.000000 0.000000 
#    y 0.000000 3.623610 0.000000 
#    z 0.000000 0.000000 3.462010 
# 
# 
# High freq. dielectric constant tensor:
#      x y z
#    x 1.743910 0.000000 0.000000 
#    y 0.000000 1.746790 0.000000 
#    z 0.000000 0.000000 1.727210 
# 
# From -- ./inp_files/69630.got.cif
#   From: 2010.03.12/outbox.cif.g09.slc.cpg/sg65_35_cif.got.tgz:69630.got - 2010.04.10 20:52:16.
