data_PCOD8274640
_publ_section_title
;
Structure prediction by ZEFSAII (Michael W. Deem and Ramdas Pophale) SiO2 
 PCOD8274640
Probable space group: C M M M
;
_chemical_formula_sum "Si O2"
_cell_formula_units_Z 48
_cell_length_a 24.650156
_cell_length_b 9.758206
_cell_length_c 10.155545
_cell_angle_alpha 90.000000
_cell_angle_beta 90.000000
_cell_angle_gamma 90.000000
_cell_volume 2442.827998
_symmetry_space_group_name_H-M "C M M M"
_symmetry_group_IT_number 65
_symmetry_cell_setting 'orthorhombic'
loop_
_space_group_symop_operation_xyz
x,y,z
-x,-y,z
x,-y,-z
-x,y,-z
-x,-y,-z
x,y,-z
-x,y,z
x,-y,z
1/2+x,1/2+y,z
1/2-x,1/2-y,z
1/2+x,1/2-y,-z
1/2-x,1/2+y,-z
1/2-x,1/2-y,-z
1/2+x,1/2+y,-z
1/2-x,1/2+y,z
1/2+x,1/2-y,z
loop_
_atom_site_type_symbol
_atom_site_label
_atom_site_fract_x
_atom_site_fract_y
_atom_site_fract_z
Si Si1 0.805669 0.667744 0.000000
Si Si2 0.064081 0.000000 0.343104
Si Si3 0.625505 0.766405 0.253039
Si Si4 0.437892 0.000000 0.854852
Si Si5 0.197198 0.657513 0.500000
O O1 0.750000 0.750000 0.000000
O O2 0.836690 0.726333 0.126160
O O3 0.798111 0.500000 0.000000
O O4 0.095699 0.875504 0.277215
O O5 0.071572 0.000000 0.500000
O O6 0.000000 0.000000 0.306604
O O7 0.576315 0.870218 0.232804
O O8 0.661768 0.810591 0.374127
O O9 0.500000 0.000000 0.886001
O O10 0.407580 0.000000 0.000000
O O11 0.216153 0.500000 0.500000
O O12 0.250000 0.750000 0.500000
#
# Coordination Sequence:
#
# PCOD8274640 Si02
#       5
#     8   8  16   8   8
#     4  12  26  46  71 102 136 180 229 282 341 406
#     4  11  26  45  68 102 139 180 227 281 342 399
#     4  12  23  46  67  99 137 174 226 280 337 401
#     4  11  22  43  72 100 133 174 219 281 342 401
#     4  12  26  42  69  98 130 178 229 278 339 402
#
# _framework density 19.649357999999999
#
# number of rings (size 3 to 8) (size 9 to 14) (size 15 to 20)
#    0.000    0.333    6.667    2.000    4.667    0.000 
#    0.000    1.667    0.000    0.000    0.000    0.000 
#    0.000    0.000    0.000    0.000    0.000    0.000 
#
# Total GULP energy -297488.777322 kJ/mol
# GULP energy per Si atom -12395.365722 kJ/mol
# Density = 1.960463 g / cm^3
# Si number density = 19.649358 Si / 1000 Ang^3
#
#
#
# Elastic Constant Matrix: (Units=GPa)
#
#
# Indices 1 2 3 4 5 6 
#
# 1 137.0528 94.1921 77.0938 0.0000 0.0000 0.0000
# 2 94.1921 210.4529 75.0381 0.0000 0.0000 0.0000
# 3 77.0938 75.0381 166.5734 0.0000 0.0000 0.0000
# 4 0.0000 0.0000 0.0000 37.1219 0.0000 0.0000
# 5 0.0000 0.0000 0.0000 0.0000 37.0423 0.0000
# 6 0.0000 0.0000 0.0000 0.0000 0.0000 55.0138
#
#
#
# Elastic Compliance Matrix: (Units=1/GPa)
#
#
# Indices 1 2 3 4 5 6 
#
# 1 0.012292 -0.004138 -0.003825 0.000000 0.000000 0.000000
# 2 -0.004138 0.007054 -0.001263 0.000000 0.000000 0.000000
# 3 -0.003825 -0.001263 0.008342 0.000000 0.000000 0.000000
# 4 0.000000 0.000000 0.000000 0.026938 0.000000 0.000000
# 5 0.000000 0.000000 0.000000 0.000000 0.026996 0.000000
# 6 0.000000 0.000000 0.000000 0.000000 0.000000 0.018177
#
#
# Mechanical properties :
#
#
# Convention : Reuss Voigt Hill
#
# Bulk Modulus (GPa) = 108.25406 111.85858 110.05632
# Shear Modulus (GPa) = 41.21031 43.68592 42.44812
#
# Velocity S-wave (km/s) = 4.58458 4.72028 4.65292
# Velocity P-wave (km/s) = 9.12343 9.31445 9.21944
#
# Compressibility (1/GPa) = 0.00923753
#
# Stress axis : x y z
#
# Youngs Moduli (GPa) = 81.35601 141.76991 119.86942
#
# Poissons Ratio (x) = 0.58658 0.45850
# Poissons Ratio (y) = 0.33661 0.15135
# Poissons Ratio (z) = 0.31118 0.17900
#
# Static dielectric constant tensor:
#      x y z
#    x 3.769710 0.000000 0.000000 
#    y 0.000000 3.952830 0.000000 
#    z 0.000000 0.000000 3.663080 
# 
# 
# High freq. dielectric constant tensor:
#      x y z
#    x 1.784710 0.000000 0.000000 
#    y 0.000000 1.778380 0.000000 
#    z 0.000000 0.000000 1.784440 
# 
# From -- ./inp_files/3156.got.cif
#   From: 2010.03.12/outbox.cif.g09.slc.cpg/sg65_2_cif.got.tgz:3156.got - 2010.04.10 20:52:16.
