data_PCOD8274412
_publ_section_title
;
Structure prediction by ZEFSAII (Michael W. Deem and Ramdas Pophale) SiO2 
 PCOD8274412
Probable space group: C M M M
;
_chemical_formula_sum "Si O2"
_cell_formula_units_Z 88
_cell_length_a 15.414461
_cell_length_b 11.826315
_cell_length_c 24.568942
_cell_angle_alpha 90.000000
_cell_angle_beta 90.000000
_cell_angle_gamma 90.000000
_cell_volume 4478.826517
_symmetry_space_group_name_H-M "C M M M"
_symmetry_group_IT_number 65
_symmetry_cell_setting 'orthorhombic'
loop_
_space_group_symop_operation_xyz
x,y,z
-x,-y,z
x,-y,-z
-x,y,-z
-x,-y,-z
x,y,-z
-x,y,z
x,-y,z
1/2+x,1/2+y,z
1/2-x,1/2-y,z
1/2+x,1/2-y,-z
1/2-x,1/2+y,-z
1/2-x,1/2-y,-z
1/2+x,1/2+y,-z
1/2-x,1/2+y,z
1/2+x,1/2-y,z
loop_
_atom_site_type_symbol
_atom_site_label
_atom_site_fract_x
_atom_site_fract_y
_atom_site_fract_z
Si Si1 0.102434 0.500000 0.315312
Si Si2 0.600960 0.370751 0.061878
Si Si3 0.898483 0.500000 0.193368
Si Si4 0.500000 0.630632 0.349774
Si Si5 0.153419 0.713911 0.384920
Si Si6 0.000000 0.131294 0.221440
Si Si7 0.400963 0.133820 0.500000
Si Si8 0.346357 0.240428 0.162533
O O1 0.141914 0.500000 0.254291
O O2 0.133020 0.610372 0.346037
O O3 0.000000 0.500000 0.314307
O O4 0.500000 0.359071 0.076972
O O5 0.630908 0.500000 0.070079
O O6 0.654953 0.289821 0.101434
O O7 0.617817 0.332148 0.000000
O O8 0.869923 0.608948 0.159448
O O9 0.000000 0.500000 0.200021
O O10 0.500000 0.500000 0.366478
O O11 0.413476 0.684933 0.374430
O O12 0.500000 0.647458 0.285444
O O13 0.250000 0.750000 0.370459
O O14 0.148808 0.679217 0.447643
O O15 0.913372 0.190369 0.199512
O O16 0.000000 0.000000 0.203731
O O17 0.500000 0.177241 0.500000
O O18 0.398573 0.000000 0.500000
O O19 0.250000 0.250000 0.187615
#
# Coordination Sequence:
#
# PCOD8274412 Si02
#       8
#     8  16   8   8  16   8   8  16
#     4  11  22  43  70  91 124 175 225 258 309 381
#     4   9  18  37  67  94 120 164 217 265 315 379
#     4  11  24  42  62  91 133 175 209 262 326 380
#     4  11  26  44  64  94 136 171 210 265 327 376
#     4  12  25  43  68 100 130 166 213 271 320 378
#     4  11  24  45  67  90 125 178 223 259 308 382
#     4  11  21  42  72  99 123 166 221 261 310 385
#     4  12  25  40  64  95 132 166 213 269 322 377
#
# _framework density 19.648002999999999
#
# number of rings (size 3 to 8) (size 9 to 14) (size 15 to 20)
#    0.000    1.000    4.545    2.455    3.818    3.273 
#    0.000    1.364    0.000    1.636    0.000    0.000 
#    0.000    0.000    0.000    0.000    0.000    0.000 
#
# Total GULP energy -545779.096911 kJ/mol
# GULP energy per Si atom -12404.070384 kJ/mol
# Density = 1.960328 g / cm^3
# Si number density = 19.648003 Si / 1000 Ang^3
#
#
#
# Elastic Constant Matrix: (Units=GPa)
#
#
# Indices 1 2 3 4 5 6 
#
# 1 131.5135 55.6479 33.8400 0.0000 0.0000 0.0000
# 2 55.6479 147.2430 55.6573 0.0000 0.0000 0.0000
# 3 33.8400 55.6573 100.6535 0.0000 0.0000 0.0000
# 4 0.0000 0.0000 0.0000 51.8072 0.0000 0.0000
# 5 0.0000 0.0000 0.0000 0.0000 5.5425 0.0000
# 6 0.0000 0.0000 0.0000 0.0000 0.0000 23.7712
#
#
#
# Elastic Compliance Matrix: (Units=1/GPa)
#
#
# Indices 1 2 3 4 5 6 
#
# 1 0.009223 -0.002925 -0.001483 0.000000 0.000000 0.000000
# 2 -0.002925 0.009514 -0.004277 0.000000 0.000000 0.000000
# 3 -0.001483 -0.004277 0.012799 0.000000 0.000000 0.000000
# 4 0.000000 0.000000 0.000000 0.019302 0.000000 0.000000
# 5 0.000000 0.000000 0.000000 0.000000 0.180423 0.000000
# 6 0.000000 0.000000 0.000000 0.000000 0.000000 0.042068
#
#
# Mechanical properties :
#
#
# Convention : Reuss Voigt Hill
#
# Bulk Modulus (GPa) = 70.59967 74.41116 72.50541
# Shear Modulus (GPa) = 16.92493 31.84183 24.38338
#
# Velocity S-wave (km/s) = 2.93816 4.03005 3.52662
# Velocity P-wave (km/s) = 6.89352 7.72071 7.31881
#
# Compressibility (1/GPa) = 0.01416437
#
# Stress axis : x y z
#
# Youngs Moduli (GPa) = 108.42276 105.11095 78.13103
#
# Poissons Ratio (x) = 0.30745 0.11590
# Poissons Ratio (y) = 0.31714 0.33419
# Poissons Ratio (z) = 0.16084 0.44959
#
# Static dielectric constant tensor:
#      x y z
#    x 3.390090 0.000000 0.000000 
#    y 0.000000 3.707200 0.000000 
#    z 0.000000 0.000000 3.753530 
# 
# 
# High freq. dielectric constant tensor:
#      x y z
#    x 1.762730 0.000000 0.000000 
#    y 0.000000 1.773600 0.000000 
#    z 0.000000 0.000000 1.774950 
# 
# From -- ./inp_files/69855.got.cif
#   From: 2010.03.12/outbox.cif.g09.slc.cpg/sg65_35_cif.got.tgz:69855.got - 2010.04.10 20:52:16.
