data_PCOD8274952
_publ_section_title
;
Structure prediction by ZEFSAII (Michael W. Deem and Ramdas Pophale) SiO2 
 PCOD8274952
Probable space group: C M M M
;
_chemical_formula_sum "Si O2"
_cell_formula_units_Z 72
_cell_length_a 9.710942
_cell_length_b 19.516633
_cell_length_c 22.922625
_cell_angle_alpha 90.000000
_cell_angle_beta 90.000000
_cell_angle_gamma 90.000000
_cell_volume 4344.408007
_symmetry_space_group_name_H-M "C M M M"
_symmetry_group_IT_number 65
_symmetry_cell_setting 'orthorhombic'
loop_
_space_group_symop_operation_xyz
x,y,z
-x,-y,z
x,-y,-z
-x,y,-z
-x,-y,-z
x,y,-z
-x,y,z
x,-y,z
1/2+x,1/2+y,z
1/2-x,1/2-y,z
1/2+x,1/2-y,-z
1/2-x,1/2+y,-z
1/2-x,1/2-y,-z
1/2+x,1/2+y,-z
1/2-x,1/2+y,z
1/2+x,1/2-y,z
loop_
_atom_site_type_symbol
_atom_site_label
_atom_site_fract_x
_atom_site_fract_y
_atom_site_fract_z
Si Si1 0.156005 0.081852 0.000000
Si Si2 0.840691 0.078605 0.336651
Si Si3 0.845760 0.418661 0.232881
Si Si4 0.658884 0.686195 0.433361
Si Si5 0.654819 0.081531 0.103551
O O1 0.235628 0.110539 0.056974
O O2 0.000000 0.110258 0.000000
O O3 0.155545 0.000000 0.000000
O O4 0.757439 0.110098 0.281862
O O5 0.802748 0.120678 0.394470
O O6 0.000000 0.085376 0.320292
O O7 0.799730 0.000000 0.349263
O O8 0.838484 0.500000 0.232645
O O9 0.803472 0.392021 0.168309
O O10 0.000000 0.393854 0.248020
O O11 0.692556 0.666180 0.500000
O O12 0.500000 0.707105 0.425742
O O13 0.750000 0.750000 0.412548
O O14 0.500000 0.106614 0.087819
O O15 0.656944 0.000000 0.102239
#
# Coordination Sequence:
#
# PCOD8274952 Si02
#       5
#     8  16  16  16  16
#     4   9  15  19  25  41  63  89 126 169 206 239
#     4   9  17  28  43  64  87 110 138 174 215 255
#     4   8  14  24  37  53  74 102 135 169 206 249
#     4   9  18  32  48  65  86 113 143 173 208 252
#     4   8  13  21  31  42  61  93 130 164 199 241
#
# _framework density 16.573028999999998
#
# number of rings (size 3 to 8) (size 9 to 14) (size 15 to 20)
#    0.000    3.444    0.000    1.667    0.000    3.556 
#    0.000    6.667    0.000    0.000    0.000    6.222 
#    0.000    0.000    0.000    1.000    0.000   14.222 
#
# Total GULP energy -446185.426647 kJ/mol
# GULP energy per Si atom -12394.039629 kJ/mol
# Density = 1.653531 g / cm^3
# Si number density = 16.573029 Si / 1000 Ang^3
#
#
#
# Elastic Constant Matrix: (Units=GPa)
#
#
# Indices 1 2 3 4 5 6 
#
# 1 98.9093 32.6258 82.3421 0.0000 0.0000 0.0000
# 2 32.6258 34.8628 41.6945 0.0000 0.0000 0.0000
# 3 82.3421 41.6945 138.0540 0.0000 0.0000 0.0000
# 4 0.0000 0.0000 0.0000 2.2594 0.0000 0.0000
# 5 0.0000 0.0000 0.0000 0.0000 34.3199 0.0000
# 6 0.0000 0.0000 0.0000 0.0000 0.0000 14.0174
#
#
#
# Elastic Compliance Matrix: (Units=1/GPa)
#
#
# Indices 1 2 3 4 5 6 
#
# 1 0.021234 -0.007396 -0.010431 0.000000 0.000000 0.000000
# 2 -0.007396 0.047479 -0.009928 0.000000 0.000000 0.000000
# 3 -0.010431 -0.009928 0.016464 0.000000 0.000000 0.000000
# 4 0.000000 0.000000 0.000000 0.442595 0.000000 0.000000
# 5 0.000000 0.000000 0.000000 0.000000 0.029138 0.000000
# 6 0.000000 0.000000 0.000000 0.000000 0.000000 0.071340
#
#
# Mechanical properties :
#
#
# Convention : Reuss Voigt Hill
#
# Bulk Modulus (GPa) = 33.70880 65.01676 49.36278
# Shear Modulus (GPa) = 7.20827 17.79692 12.50260
#
# Velocity S-wave (km/s) = 2.08778 3.28052 2.74960
# Velocity P-wave (km/s) = 5.11815 7.32562 6.31903
#
# Compressibility (1/GPa) = 0.02966584
#
# Stress axis : x y z
#
# Youngs Moduli (GPa) = 47.09451 21.06201 60.74000
#
# Poissons Ratio (x) = 0.15578 0.63359
# Poissons Ratio (y) = 0.34832 0.60302
# Poissons Ratio (z) = 0.49125 0.20910
#
# Static dielectric constant tensor:
#      x y z
#    x 3.281610 0.000000 0.000000 
#    y 0.000000 2.535930 0.000000 
#    z 0.000000 0.000000 3.474080 
# 
# 
# High freq. dielectric constant tensor:
#      x y z
#    x 1.641660 0.000000 0.000000 
#    y 0.000000 1.565360 0.000000 
#    z 0.000000 0.000000 1.650960 
# 
# From -- ./inp_files/59287.got.cif
#   From: 2010.03.12/outbox.cif.g09.slc.cpg/sg65_30_cif.got.tgz:59287.got - 2010.04.10 20:52:16.
