data_PCOD8274912
_publ_section_title
;
Structure prediction by ZEFSAII (Michael W. Deem and Ramdas Pophale) SiO2 
 PCOD8274912
Probable space group: C M M M
;
_chemical_formula_sum "Si O2"
_cell_formula_units_Z 72
_cell_length_a 29.174587
_cell_length_b 15.796062
_cell_length_c 9.255408
_cell_angle_alpha 90.000000
_cell_angle_beta 90.000000
_cell_angle_gamma 90.000000
_cell_volume 4265.295404
_symmetry_space_group_name_H-M "C M M M"
_symmetry_group_IT_number 65
_symmetry_cell_setting 'orthorhombic'
loop_
_space_group_symop_operation_xyz
x,y,z
-x,-y,z
x,-y,-z
-x,y,-z
-x,-y,-z
x,y,-z
-x,y,z
x,-y,z
1/2+x,1/2+y,z
1/2-x,1/2-y,z
1/2+x,1/2-y,-z
1/2-x,1/2+y,-z
1/2-x,1/2-y,-z
1/2+x,1/2+y,-z
1/2-x,1/2+y,z
1/2+x,1/2-y,z
loop_
_atom_site_type_symbol
_atom_site_label
_atom_site_fract_x
_atom_site_fract_y
_atom_site_fract_z
Si Si1 0.051550 0.335949 0.168153
Si Si2 0.358243 0.752535 0.169879
Si Si3 0.805103 0.906785 0.828170
Si Si4 0.945708 0.500000 0.338734
Si Si5 0.701483 0.906300 0.828273
O O1 0.087215 0.260095 0.202332
O O2 0.070390 0.416957 0.253825
O O3 0.000000 0.308575 0.215129
O O4 0.052536 0.360362 0.000000
O O5 0.339028 0.664955 0.237306
O O6 0.331609 0.833778 0.236642
O O7 0.348823 0.751428 0.000000
O O8 0.753372 0.886240 0.778216
O O9 0.819982 0.000000 0.770683
O O10 0.807618 0.906870 0.000000
O O11 0.924782 0.500000 0.500000
O O12 0.000000 0.500000 0.344816
O O13 0.686701 0.000000 0.771244
O O14 0.698886 0.906512 0.000000
#
# Coordination Sequence:
#
# PCOD8274912 Si02
#       5
#    16  16  16   8  16
#     4   9  17  27  39  57  81 107 134 162 192 231
#     4   9  15  21  33  50  72 104 134 159 193 237
#     4   8  13  21  31  45  69 102 134 163 198 237
#     4   9  17  29  43  57  77 107 137 163 195 233
#     4   8  13  19  28  45  70  99 129 159 193 236
#
# _framework density 16.880424999999999
#
# number of rings (size 3 to 8) (size 9 to 14) (size 15 to 20)
#    0.000    3.444    0.000    2.333    1.556    4.000 
#    0.000    0.000    0.000    0.667    0.000    4.667 
#    0.000    4.444    0.000    5.556    0.000    5.778 
#
# Total GULP energy -446007.535241 kJ/mol
# GULP energy per Si atom -12389.098201 kJ/mol
# Density = 1.684200 g / cm^3
# Si number density = 16.880425 Si / 1000 Ang^3
#
#
#
# Elastic Constant Matrix: (Units=GPa)
#
#
# Indices 1 2 3 4 5 6 
#
# 1 106.6655 80.6899 9.9604 0.0000 0.0000 0.0000
# 2 80.6899 134.5577 8.1337 0.0000 0.0000 0.0000
# 3 9.9604 8.1337 16.5454 0.0000 0.0000 0.0000
# 4 0.0000 0.0000 0.0000 1.4168 0.0000 0.0000
# 5 0.0000 0.0000 0.0000 0.0000 3.2694 0.0000
# 6 0.0000 0.0000 0.0000 0.0000 0.0000 26.8276
#
#
#
# Elastic Compliance Matrix: (Units=1/GPa)
#
#
# Indices 1 2 3 4 5 6 
#
# 1 0.017646 -0.010244 -0.005587 0.000000 0.000000 0.000000
# 2 -0.010244 0.013606 -0.000522 0.000000 0.000000 0.000000
# 3 -0.005587 -0.000522 0.064060 0.000000 0.000000 0.000000
# 4 0.000000 0.000000 0.000000 0.705838 0.000000 0.000000
# 5 0.000000 0.000000 0.000000 0.000000 0.305866 0.000000
# 6 0.000000 0.000000 0.000000 0.000000 0.000000 0.037275
#
#
# Mechanical properties :
#
#
# Convention : Reuss Voigt Hill
#
# Bulk Modulus (GPa) = 15.97289 50.59296 33.28293
# Shear Modulus (GPa) = 4.17409 16.90173 10.53791
#
# Velocity S-wave (km/s) = 1.57420 3.16771 2.50125
# Velocity P-wave (km/s) = 3.57590 6.58905 5.30107
#
# Compressibility (1/GPa) = 0.06260607
#
# Stress axis : x y z
#
# Youngs Moduli (GPa) = 56.66904 73.49474 15.61045
#
# Poissons Ratio (x) = 0.75290 0.08722
# Poissons Ratio (y) = 0.58053 0.00815
# Poissons Ratio (z) = 0.31662 0.03835
#
# Static dielectric constant tensor:
#      x y z
#    x 3.233780 0.000000 0.000000 
#    y 0.000000 3.536500 0.000000 
#    z 0.000000 0.000000 2.571030 
# 
# 
# High freq. dielectric constant tensor:
#      x y z
#    x 1.648540 0.000000 0.000000 
#    y 0.000000 1.643840 0.000000 
#    z 0.000000 0.000000 1.572520 
# 
# From -- ./inp_files/15965.got.cif
#   From: 2010.03.12/outbox.cif.g09.slc.cpg/sg65_8_cif.got.tgz:15965.got - 2010.04.10 20:52:16.
