data_PCOD8274072
_publ_section_title
;
Structure prediction by ZEFSAII (Michael W. Deem and Ramdas Pophale) SiO2 
 PCOD8274072
Probable space group: C M M M
;
_chemical_formula_sum "Si O2"
_cell_formula_units_Z 64
_cell_length_a 34.638167
_cell_length_b 8.941446
_cell_length_c 10.414454
_cell_angle_alpha 90.000000
_cell_angle_beta 90.000000
_cell_angle_gamma 90.000000
_cell_volume 3225.515743
_symmetry_space_group_name_H-M "C M M M"
_symmetry_group_IT_number 65
_symmetry_cell_setting 'orthorhombic'
loop_
_space_group_symop_operation_xyz
x,y,z
-x,-y,z
x,-y,-z
-x,y,-z
-x,-y,-z
x,y,-z
-x,y,z
x,-y,z
1/2+x,1/2+y,z
1/2-x,1/2-y,z
1/2+x,1/2-y,-z
1/2-x,1/2+y,-z
1/2-x,1/2-y,-z
1/2+x,1/2+y,-z
1/2-x,1/2+y,z
1/2+x,1/2-y,z
loop_
_atom_site_type_symbol
_atom_site_label
_atom_site_fract_x
_atom_site_fract_y
_atom_site_fract_z
Si Si1 0.845001 0.826346 0.352768
Si Si2 0.570873 0.325985 0.749199
Si Si3 0.954830 0.323991 0.000000
Si Si4 0.500000 0.838804 0.357178
Si Si5 0.790704 0.675912 0.145854
O O1 0.835768 0.778172 0.500000
O O2 0.889685 0.794426 0.325422
O O3 0.820975 0.731563 0.250803
O O4 0.835065 0.000000 0.332663
O O5 0.564456 0.500000 0.775377
O O6 0.536982 0.262350 0.663264
O O7 0.569337 0.239111 0.882215
O O8 0.952114 0.500000 0.000000
O O9 0.000000 0.270892 0.000000
O O10 0.500000 0.892810 0.500000
O O11 0.500000 0.000000 0.277251
O O12 0.785932 0.500000 0.160441
O O13 0.750000 0.750000 0.177690
O O14 0.803996 0.717892 0.000000
#
# Coordination Sequence:
#
# PCOD8274072 Si02
#       5
#    16  16   8   8  16
#     4  10  23  42  63  91 126 162 203 252 305 362
#     4  11  23  39  61  87 117 156 205 254 303 360
#     4  11  23  39  59  85 119 156 199 254 314 370
#     4  11  23  38  57  82 115 157 201 249 308 365
#     4  10  22  41  66  96 126 161 203 247 300 361
#
# _framework density 19.841788999999999
#
# number of rings (size 3 to 8) (size 9 to 14) (size 15 to 20)
#    0.000    1.500    1.250    3.000    1.750    7.000 
#    0.000    0.000    0.000    0.000    0.000    0.000 
#    0.000    0.000    0.000    0.000    0.000    0.000 
#
# Total GULP energy -396726.419797 kJ/mol
# GULP energy per Si atom -12397.700619 kJ/mol
# Density = 1.979663 g / cm^3
# Si number density = 19.841789 Si / 1000 Ang^3
#
#
#
# Elastic Constant Matrix: (Units=GPa)
#
#
# Indices 1 2 3 4 5 6 
#
# 1 108.4883 64.2535 55.1779 0.0000 0.0000 0.0000
# 2 64.2535 104.9336 57.8899 0.0000 0.0000 0.0000
# 3 55.1779 57.8899 132.0818 0.0000 0.0000 0.0000
# 4 0.0000 0.0000 0.0000 30.4999 0.0000 0.0000
# 5 0.0000 0.0000 0.0000 0.0000 -18.8007 0.0000
# 6 0.0000 0.0000 0.0000 0.0000 0.0000 51.9774
#
#
#
# Elastic Compliance Matrix: (Units=1/GPa)
#
#
# Indices 1 2 3 4 5 6 
#
# 1 0.015324 -0.007718 -0.003019 0.000000 0.000000 0.000000
# 2 -0.007718 0.016456 -0.003988 0.000000 0.000000 0.000000
# 3 -0.003019 -0.003988 0.010580 0.000000 0.000000 0.000000
# 4 0.000000 0.000000 0.000000 0.032787 0.000000 0.000000
# 5 0.000000 0.000000 0.000000 0.000000 -0.053189 0.000000
# 6 0.000000 0.000000 0.000000 0.000000 0.000000 0.019239
#
#
# Mechanical properties :
#
#
# Convention : Reuss Voigt Hill
#
# Bulk Modulus (GPa) = 77.45940 77.79405 77.62672
# Shear Modulus (GPa) = 66.71073 23.94747 45.32910
#
# Velocity S-wave (km/s) = 5.80468 3.47785 4.78486
# Velocity P-wave (km/s) = 9.16783 7.44443 8.35070
#
# Compressibility (1/GPa) = 0.01290999
#
# Stress axis : x y z
#
# Youngs Moduli (GPa) = 65.25698 60.76872 94.51493
#
# Poissons Ratio (x) = 0.46899 0.28535
# Poissons Ratio (y) = 0.50363 0.37695
# Poissons Ratio (z) = 0.19702 0.24236
#
# Static dielectric constant tensor:
#      x y z
#    x 3.577950 0.000000 0.000000 
#    y 0.000000 3.702600 0.000000 
#    z 0.000000 0.000000 3.882300 
# 
# 
# High freq. dielectric constant tensor:
#      x y z
#    x 1.769560 0.000000 0.000000 
#    y 0.000000 1.787380 0.000000 
#    z 0.000000 0.000000 1.788790 
# 
# From -- ./inp_files/33256.got.cif
#   From: 2010.03.12/outbox.cif.g09.slc.cpg/sg65_17_cif.got.tgz:33256.got - 2010.04.10 20:52:16.
