data_PCOD8274078
_publ_section_title
;
Structure prediction by ZEFSAII (Michael W. Deem and Ramdas Pophale) SiO2 
 PCOD8274078
Probable space group: C M M M
;
_chemical_formula_sum "Si O2"
_cell_formula_units_Z 56
_cell_length_a 17.851067
_cell_length_b 17.331515
_cell_length_c 8.980342
_cell_angle_alpha 90.000000
_cell_angle_beta 90.000000
_cell_angle_gamma 90.000000
_cell_volume 2778.392409
_symmetry_space_group_name_H-M "C M M M"
_symmetry_group_IT_number 65
_symmetry_cell_setting 'orthorhombic'
loop_
_space_group_symop_operation_xyz
x,y,z
-x,-y,z
x,-y,-z
-x,y,-z
-x,-y,-z
x,y,-z
-x,y,z
x,-y,z
1/2+x,1/2+y,z
1/2-x,1/2-y,z
1/2+x,1/2-y,-z
1/2-x,1/2+y,-z
1/2-x,1/2-y,-z
1/2+x,1/2+y,-z
1/2-x,1/2+y,z
1/2+x,1/2-y,z
loop_
_atom_site_type_symbol
_atom_site_label
_atom_site_fract_x
_atom_site_fract_y
_atom_site_fract_z
Si Si1 0.588248 0.500000 0.333384
Si Si2 0.586694 0.215953 0.325942
Si Si3 0.161890 0.141933 0.174321
Si Si4 0.827780 0.411070 0.826908
O O1 0.500000 0.500000 0.340962
O O2 0.622193 0.500000 0.500000
O O3 0.613282 0.575856 0.248633
O O4 0.603036 0.223341 0.500000
O O5 0.500000 0.231611 0.290081
O O6 0.638250 0.276003 0.238659
O O7 0.608382 0.130636 0.269663
O O8 0.248779 0.128728 0.208765
O O9 0.145521 0.140226 0.000000
O O10 0.824131 0.500000 0.777748
O O11 0.848199 0.403421 0.000000
#
# Coordination Sequence:
#
# PCOD8274078 Si02
#       4
#     8  16  16  16
#     4  11  23  37  57  89 128 165 200 245 301 362
#     4  11  25  42  60  89 127 163 204 254 306 362
#     4  11  22  40  64  91 122 159 205 253 303 362
#     4  10  22  42  65  91 122 157 203 256 306 362
#
# _framework density 20.155542000000001
#
# number of rings (size 3 to 8) (size 9 to 14) (size 15 to 20)
#    0.000    1.286    1.429    3.857    0.000   13.714 
#    0.000    2.857    0.000    0.000    0.000    0.000 
#    0.000    0.000    0.000    0.000    0.000    0.000 
#
# Total GULP energy -347382.152524 kJ/mol
# GULP energy per Si atom -12406.505447 kJ/mol
# Density = 2.010967 g / cm^3
# Si number density = 20.155542 Si / 1000 Ang^3
#
#
#
# Elastic Constant Matrix: (Units=GPa)
#
#
# Indices 1 2 3 4 5 6 
#
# 1 48.2910 43.9347 41.3415 0.0000 0.0000 0.0000
# 2 43.9347 126.8003 56.2422 0.0000 0.0000 0.0000
# 3 41.3415 56.2422 95.1747 0.0000 0.0000 0.0000
# 4 0.0000 0.0000 0.0000 87.1409 0.0000 0.0000
# 5 0.0000 0.0000 0.0000 0.0000 24.6818 0.0000
# 6 0.0000 0.0000 0.0000 0.0000 0.0000 56.9543
#
#
#
# Elastic Compliance Matrix: (Units=1/GPa)
#
#
# Indices 1 2 3 4 5 6 
#
# 1 0.038070 -0.007936 -0.011847 0.000000 0.000000 0.000000
# 2 -0.007936 0.012342 -0.003846 0.000000 0.000000 0.000000
# 3 -0.011847 -0.003846 0.017926 0.000000 0.000000 0.000000
# 4 0.000000 0.000000 0.000000 0.011476 0.000000 0.000000
# 5 0.000000 0.000000 0.000000 0.000000 0.040516 0.000000
# 6 0.000000 0.000000 0.000000 0.000000 0.000000 0.017558
#
#
# Mechanical properties :
#
#
# Convention : Reuss Voigt Hill
#
# Bulk Modulus (GPa) = 47.43919 61.47809 54.45864
# Shear Modulus (GPa) = 26.01828 42.33855 34.17842
#
# Velocity S-wave (km/s) = 3.59677 4.58819 4.12240
# Velocity P-wave (km/s) = 6.39036 7.65746 7.05243
#
# Compressibility (1/GPa) = 0.02107962
#
# Stress axis : x y z
#
# Youngs Moduli (GPa) = 26.26732 81.02317 55.78522
#
# Poissons Ratio (x) = 0.64301 0.66089
# Poissons Ratio (y) = 0.20846 0.21456
# Poissons Ratio (z) = 0.31119 0.31163
#
# Static dielectric constant tensor:
#      x y z
#    x 3.647360 0.000000 0.000000 
#    y 0.000000 3.972770 0.000000 
#    z 0.000000 0.000000 3.801660 
# 
# 
# High freq. dielectric constant tensor:
#      x y z
#    x 1.789390 0.000000 0.000000 
#    y 0.000000 1.802330 0.000000 
#    z 0.000000 0.000000 1.795520 
# 
# From -- ./inp_files/6237.got.cif
#   From: 2010.03.12/outbox.cif.g09.slc.cpg/sg65_4_cif.got.tgz:6237.got - 2010.04.10 20:52:16.
