data_PCOD8274489
_publ_section_title
;
Structure prediction by ZEFSAII (Michael W. Deem and Ramdas Pophale) SiO2 
 PCOD8274489
Probable space group: C M M M
;
_chemical_formula_sum "Si O2"
_cell_formula_units_Z 104
_cell_length_a 28.905160
_cell_length_b 8.673912
_cell_length_c 24.430979
_cell_angle_alpha 90.000000
_cell_angle_beta 90.000000
_cell_angle_gamma 90.000000
_cell_volume 6125.354946
_symmetry_space_group_name_H-M "C M M M"
_symmetry_group_IT_number 65
_symmetry_cell_setting 'orthorhombic'
loop_
_space_group_symop_operation_xyz
x,y,z
-x,-y,z
x,-y,-z
-x,y,-z
-x,-y,-z
x,y,-z
-x,y,z
x,-y,z
1/2+x,1/2+y,z
1/2-x,1/2-y,z
1/2+x,1/2-y,-z
1/2-x,1/2+y,-z
1/2-x,1/2-y,-z
1/2+x,1/2+y,-z
1/2-x,1/2+y,z
1/2+x,1/2-y,z
loop_
_atom_site_type_symbol
_atom_site_label
_atom_site_fract_x
_atom_site_fract_y
_atom_site_fract_z
Si Si1 0.054743 0.328370 0.109494
Si Si2 0.798674 0.317725 0.616471
Si Si3 0.619841 0.322030 0.683251
Si Si4 0.935215 0.824141 0.500000
Si Si5 0.673918 0.324898 0.500000
Si Si6 0.552618 0.682191 0.222409
Si Si7 0.055260 0.826695 0.000000
Si Si8 0.449595 0.826631 0.390025
O O1 0.074837 0.500000 0.116427
O O2 0.069307 0.228407 0.161915
O O3 0.000000 0.332078 0.103938
O O4 0.075548 0.255347 0.054127
O O5 0.796750 0.500000 0.613547
O O6 0.750000 0.250000 0.636147
O O7 0.834633 0.269699 0.664433
O O8 0.809271 0.256778 0.555448
O O9 0.633310 0.500000 0.690982
O O10 0.592467 0.253413 0.736478
O O11 0.582960 0.303456 0.635173
O O12 0.880489 0.820933 0.500000
O O13 0.956247 0.726206 0.548659
O O14 0.953433 0.000000 0.500000
O O15 0.692964 0.500000 0.500000
O O16 0.500000 0.746353 0.234171
O O17 0.551205 0.500000 0.227709
O O18 0.000000 0.822417 0.000000
O O19 0.073812 0.000000 0.000000
O O20 0.500000 0.825916 0.361303
O O21 0.428058 0.000000 0.386077
#
# Coordination Sequence:
#
# PCOD8274489 Si02
#       8
#    16  16  16   8   8  16   8  16
#     4   9  16  25  39  61  90 124 165 210 249 284
#     4  12  25  41  61  81 101 124 151 191 242 298
#     4  11  22  37  55  75  98 126 162 201 240 288
#     4  11  22  35  54  73  95 124 155 191 234 285
#     4  11  22  39  60  82 102 122 150 189 238 296
#     4   9  18  32  49  69  96 132 170 205 241 283
#     4   9  15  23  37  57  85 123 166 209 250 289
#     4  11  23  36  51  72  98 127 159 195 236 282
#
# _framework density 16.978608000000001
#
# number of rings (size 3 to 8) (size 9 to 14) (size 15 to 20)
#    0.000    1.615    1.538    4.385    0.000    7.385 
#    0.000    1.538    0.000    0.000    0.000    0.000 
#    0.000    0.000    0.000    0.692    0.000    9.308 
#
# Total GULP energy -644432.025253 kJ/mol
# GULP energy per Si atom -12392.923563 kJ/mol
# Density = 1.693996 g / cm^3
# Si number density = 16.978608 Si / 1000 Ang^3
#
#
#
# Elastic Constant Matrix: (Units=GPa)
#
#
# Indices 1 2 3 4 5 6 
#
# 1 85.3200 31.4035 43.4402 0.0000 0.0000 0.0000
# 2 31.4035 85.8478 27.9906 0.0000 0.0000 0.0000
# 3 43.4402 27.9906 117.4251 0.0000 0.0000 0.0000
# 4 0.0000 0.0000 0.0000 14.6318 0.0000 0.0000
# 5 0.0000 0.0000 0.0000 0.0000 4.9814 0.0000
# 6 0.0000 0.0000 0.0000 0.0000 0.0000 17.8740
#
#
#
# Elastic Compliance Matrix: (Units=1/GPa)
#
#
# Indices 1 2 3 4 5 6 
#
# 1 0.015710 -0.004176 -0.004816 0.000000 0.000000 0.000000
# 2 -0.004176 0.013740 -0.001730 0.000000 0.000000 0.000000
# 3 -0.004816 -0.001730 0.010710 0.000000 0.000000 0.000000
# 4 0.000000 0.000000 0.000000 0.068344 0.000000 0.000000
# 5 0.000000 0.000000 0.000000 0.000000 0.200747 0.000000
# 6 0.000000 0.000000 0.000000 0.000000 0.000000 0.055947
#
#
# Mechanical properties :
#
#
# Convention : Reuss Voigt Hill
#
# Bulk Modulus (GPa) = 53.43376 54.91795 54.17586
# Shear Modulus (GPa) = 12.72644 19.88134 16.30389
#
# Velocity S-wave (km/s) = 2.74077 3.42565 3.10217
# Velocity P-wave (km/s) = 6.44634 6.93270 6.69394
#
# Compressibility (1/GPa) = 0.01871476
#
# Stress axis : x y z
#
# Youngs Moduli (GPa) = 63.65393 72.77789 93.36882
#
# Poissons Ratio (x) = 0.30395 0.44968
# Poissons Ratio (y) = 0.26585 0.16155
# Poissons Ratio (z) = 0.30657 0.12593
#
# Static dielectric constant tensor:
#      x y z
#    x 3.035090 0.000000 0.000000 
#    y 0.000000 3.290800 0.000000 
#    z 0.000000 0.000000 3.294650 
# 
# 
# High freq. dielectric constant tensor:
#      x y z
#    x 1.614500 0.000000 0.000000 
#    y 0.000000 1.668000 0.000000 
#    z 0.000000 0.000000 1.644910 
# 
# From -- ./inp_files/71939.got.cif
#   From: 2010.03.12/outbox.cif.g09.slc.cpg/sg65_36_cif.got.tgz:71939.got - 2010.04.10 20:52:16.
