data_PCOD8274553
_publ_section_title
;
Structure prediction by ZEFSAII (Michael W. Deem and Ramdas Pophale) SiO2 
 PCOD8274553
Probable space group: C M M M
;
_chemical_formula_sum "Si O2"
_cell_formula_units_Z 88
_cell_length_a 8.667334
_cell_length_b 28.743680
_cell_length_c 18.078614
_cell_angle_alpha 90.000000
_cell_angle_beta 90.000000
_cell_angle_gamma 90.000000
_cell_volume 4503.944539
_symmetry_space_group_name_H-M "C M M M"
_symmetry_group_IT_number 65
_symmetry_cell_setting 'orthorhombic'
loop_
_space_group_symop_operation_xyz
x,y,z
-x,-y,z
x,-y,-z
-x,y,-z
-x,-y,-z
x,y,-z
-x,y,z
x,-y,z
1/2+x,1/2+y,z
1/2-x,1/2-y,z
1/2+x,1/2-y,-z
1/2-x,1/2+y,-z
1/2-x,1/2-y,-z
1/2+x,1/2+y,-z
1/2-x,1/2+y,z
1/2+x,1/2-y,z
loop_
_atom_site_type_symbol
_atom_site_label
_atom_site_fract_x
_atom_site_fract_y
_atom_site_fract_z
Si Si1 0.183584 0.300741 0.723274
Si Si2 0.824088 0.948705 0.194898
Si Si3 0.681453 0.050623 0.350242
Si Si4 0.679113 0.351993 0.861553
Si Si5 0.683447 0.143925 0.581511
Si Si6 0.819308 0.698994 0.000000
O O1 0.250000 0.250000 0.736267
O O2 0.255932 0.334468 0.783832
O O3 0.238028 0.318701 0.642430
O O4 0.000000 0.300459 0.731504
O O5 0.714931 0.939858 0.264535
O O6 0.794742 0.907980 0.134879
O O7 0.000000 0.945741 0.223305
O O8 0.791157 0.000000 0.159724
O O9 0.500000 0.049782 0.360818
O O10 0.751059 0.092598 0.399187
O O11 0.750301 0.000000 0.374342
O O12 0.500000 0.338689 0.868859
O O13 0.770194 0.328949 0.927934
O O14 0.744607 0.158588 0.500000
O O15 0.500000 0.141610 0.582107
O O16 0.750000 0.750000 0.000000
O O17 0.000000 0.704788 0.000000
#
# Coordination Sequence:
#
# PCOD8274553 Si02
#       6
#    16  16  16  16  16   8
#     4  11  22  37  57  80 108 145 191 239 289 341
#     4   9  18  33  56  85 116 150 186 225 271 327
#     4   9  16  28  50  79 109 143 185 231 279 333
#     4  11  22  39  63  89 118 150 188 229 276 333
#     4   9  18  32  50  76 111 147 186 235 286 336
#     4  12  26  44  65  90 121 151 186 231 283 332
#
# _framework density 19.538428
#
# number of rings (size 3 to 8) (size 9 to 14) (size 15 to 20)
#    0.000    2.000    1.818    2.455    0.000    1.455 
#    0.000    2.273    0.000    7.091    0.000    2.545 
#    0.000    0.000    0.000    0.000    0.000    0.000 
#
# Total GULP energy -545400.671464 kJ/mol
# GULP energy per Si atom -12395.469806 kJ/mol
# Density = 1.949396 g / cm^3
# Si number density = 19.538428 Si / 1000 Ang^3
#
#
#
# Elastic Constant Matrix: (Units=GPa)
#
#
# Indices 1 2 3 4 5 6 
#
# 1 65.0978 33.0998 28.8138 0.0000 0.0000 0.0000
# 2 33.0998 137.5322 54.9913 0.0000 0.0000 0.0000
# 3 28.8138 54.9913 108.7875 0.0000 0.0000 0.0000
# 4 0.0000 0.0000 0.0000 27.3288 0.0000 0.0000
# 5 0.0000 0.0000 0.0000 0.0000 7.9862 0.0000
# 6 0.0000 0.0000 0.0000 0.0000 0.0000 20.3242
#
#
#
# Elastic Compliance Matrix: (Units=1/GPa)
#
#
# Indices 1 2 3 4 5 6 
#
# 1 0.018404 -0.003109 -0.003303 0.000000 0.000000 0.000000
# 2 -0.003109 0.009638 -0.004049 0.000000 0.000000 0.000000
# 3 -0.003303 -0.004049 0.012114 0.000000 0.000000 0.000000
# 4 0.000000 0.000000 0.000000 0.036591 0.000000 0.000000
# 5 0.000000 0.000000 0.000000 0.000000 0.125215 0.000000
# 6 0.000000 0.000000 0.000000 0.000000 0.000000 0.049202
#
#
# Mechanical properties :
#
#
# Convention : Reuss Voigt Hill
#
# Bulk Modulus (GPa) = 51.98837 60.58080 56.28459
# Shear Modulus (GPa) = 17.95348 24.09535 21.02442
#
# Velocity S-wave (km/s) = 3.03459 3.51555 3.28389
# Velocity P-wave (km/s) = 6.24054 6.89580 6.57634
#
# Compressibility (1/GPa) = 0.01923507
#
# Stress axis : x y z
#
# Youngs Moduli (GPa) = 54.33547 103.75648 82.55138
#
# Poissons Ratio (x) = 0.32253 0.27269
# Poissons Ratio (y) = 0.16890 0.33422
# Poissons Ratio (z) = 0.17948 0.42007
#
# Static dielectric constant tensor:
#      x y z
#    x 3.436430 0.000000 0.000000 
#    y 0.000000 4.024020 0.000000 
#    z 0.000000 0.000000 3.626120 
# 
# 
# High freq. dielectric constant tensor:
#      x y z
#    x 1.743320 0.000000 0.000000 
#    y 0.000000 1.782680 0.000000 
#    z 0.000000 0.000000 1.741910 
# 
# From -- ./inp_files/50451.got.cif
#   From: 2010.03.12/outbox.cif.g09.slc.cpg/sg65_26_cif.got.tgz:50451.got - 2010.04.10 20:52:16.
