data_PCOD8274818
_publ_section_title
;
Structure prediction by ZEFSAII (Michael W. Deem and Ramdas Pophale) SiO2 
 PCOD8274818
Probable space group: C M M M
;
_chemical_formula_sum "Si O2"
_cell_formula_units_Z 72
_cell_length_a 14.219466
_cell_length_b 32.075820
_cell_length_c 7.833142
_cell_angle_alpha 90.000000
_cell_angle_beta 90.000000
_cell_angle_gamma 90.000000
_cell_volume 3572.704149
_symmetry_space_group_name_H-M "C M M M"
_symmetry_group_IT_number 65
_symmetry_cell_setting 'orthorhombic'
loop_
_space_group_symop_operation_xyz
x,y,z
-x,-y,z
x,-y,-z
-x,y,-z
-x,-y,-z
x,y,-z
-x,y,z
x,-y,z
1/2+x,1/2+y,z
1/2-x,1/2-y,z
1/2+x,1/2-y,-z
1/2-x,1/2+y,-z
1/2-x,1/2-y,-z
1/2+x,1/2+y,-z
1/2-x,1/2+y,z
1/2+x,1/2-y,z
loop_
_atom_site_type_symbol
_atom_site_label
_atom_site_fract_x
_atom_site_fract_y
_atom_site_fract_z
Si Si1 0.389269 0.451815 0.500000
Si Si2 0.893880 0.547503 0.299851
Si Si3 0.285928 0.408871 0.188803
Si Si4 0.604228 0.760065 0.702460
Si Si5 0.228312 0.183530 0.702044
O O1 0.359537 0.500000 0.500000
O O2 0.500000 0.445451 0.500000
O O3 0.349323 0.431199 0.329403
O O4 0.874435 0.551476 0.500000
O O5 0.877768 0.500000 0.240457
O O6 0.822708 0.577588 0.202897
O O7 0.000000 0.561578 0.255894
O O8 0.291960 0.359356 0.204245
O O9 0.322854 0.421170 0.000000
O O10 0.599834 0.760559 0.500000
O O11 0.500000 0.765393 0.782048
O O12 0.670919 0.797990 0.762515
O O13 0.647440 0.715807 0.759693
O O14 0.227459 0.175988 0.500000
#
# Coordination Sequence:
#
# PCOD8274818 Si02
#       5
#     8  16  16  16  16
#     4  11  26  48  69  88 117 159 208 262 317 369
#     4   9  18  35  60  88 119 157 199 243 299 367
#     4  12  24  39  63  94 127 162 204 255 309 366
#     4   8  15  29  54  83 113 156 203 247 295 348
#     4   9  17  33  54  83 119 154 201 248 294 358
#
# _framework density 20.152802000000001
#
# number of rings (size 3 to 8) (size 9 to 14) (size 15 to 20)
#    0.000    2.333    2.222    2.667    0.000    4.444 
#    0.000    6.667    0.000    1.333    0.000    0.000 
#    0.000    0.000    0.000    0.000    0.000    0.000 
#
# Total GULP energy -446334.833705 kJ/mol
# GULP energy per Si atom -12398.189825 kJ/mol
# Density = 2.010693 g / cm^3
# Si number density = 20.152802 Si / 1000 Ang^3
#
#
#
# Elastic Constant Matrix: (Units=GPa)
#
#
# Indices 1 2 3 4 5 6 
#
# 1 123.2539 52.6866 39.3320 0.0000 0.0000 0.0000
# 2 52.6866 126.2984 47.5545 0.0000 0.0000 0.0000
# 3 39.3320 47.5545 102.2227 0.0000 0.0000 0.0000
# 4 0.0000 0.0000 0.0000 -4.5957 0.0000 0.0000
# 5 0.0000 0.0000 0.0000 0.0000 3.7128 0.0000
# 6 0.0000 0.0000 0.0000 0.0000 0.0000 15.4802
#
#
#
# Elastic Compliance Matrix: (Units=1/GPa)
#
#
# Indices 1 2 3 4 5 6 
#
# 1 0.010334 -0.003411 -0.002389 0.000000 0.000000 0.000000
# 2 -0.003411 0.010725 -0.003677 0.000000 0.000000 0.000000
# 3 -0.002389 -0.003677 0.012412 0.000000 0.000000 0.000000
# 4 0.000000 0.000000 0.000000 -0.217596 0.000000 0.000000
# 5 0.000000 0.000000 0.000000 0.000000 0.269336 0.000000
# 6 0.000000 0.000000 0.000000 0.000000 0.000000 0.064599
#
#
# Mechanical properties :
#
#
# Convention : Reuss Voigt Hill
#
# Bulk Modulus (GPa) = 68.88586 70.10234 69.49410
# Shear Modulus (GPa) = 28.80113 17.06625 22.93369
#
# Velocity S-wave (km/s) = 3.78450 2.91321 3.37707
# Velocity P-wave (km/s) = 7.30428 6.79534 7.05440
#
# Compressibility (1/GPa) = 0.01451677
#
# Stress axis : x y z
#
# Youngs Moduli (GPa) = 96.76809 93.23782 80.56488
#
# Poissons Ratio (x) = 0.31806 0.19249
# Poissons Ratio (y) = 0.33011 0.29623
# Poissons Ratio (z) = 0.23120 0.34282
#
# Static dielectric constant tensor:
#      x y z
#    x 4.024640 0.000000 0.000000 
#    y 0.000000 3.642430 0.000000 
#    z 0.000000 0.000000 3.393620 
# 
# 
# High freq. dielectric constant tensor:
#      x y z
#    x 1.788320 0.000000 0.000000 
#    y 0.000000 1.785440 0.000000 
#    z 0.000000 0.000000 1.765620 
# 
# From -- ./inp_files/7660.got.cif
#   From: 2010.03.12/outbox.cif.g09.slc.cpg/sg65_4_cif.got.tgz:7660.got - 2010.04.10 20:52:16.
