data_PCOD8274336
_publ_section_title
;
Structure prediction by ZEFSAII (Michael W. Deem and Ramdas Pophale) SiO2 
 PCOD8274336
Probable space group: C M M M
;
_chemical_formula_sum "Si O2"
_cell_formula_units_Z 104
_cell_length_a 23.096676
_cell_length_b 27.812822
_cell_length_c 8.725712
_cell_angle_alpha 90.000000
_cell_angle_beta 90.000000
_cell_angle_gamma 90.000000
_cell_volume 5605.255495
_symmetry_space_group_name_H-M "C M M M"
_symmetry_group_IT_number 65
_symmetry_cell_setting 'orthorhombic'
loop_
_space_group_symop_operation_xyz
x,y,z
-x,-y,z
x,-y,-z
-x,y,-z
-x,-y,-z
x,y,-z
-x,y,z
x,-y,z
1/2+x,1/2+y,z
1/2-x,1/2-y,z
1/2+x,1/2-y,-z
1/2-x,1/2+y,-z
1/2-x,1/2-y,-z
1/2+x,1/2+y,-z
1/2-x,1/2+y,z
1/2+x,1/2-y,z
loop_
_atom_site_type_symbol
_atom_site_label
_atom_site_fract_x
_atom_site_fract_y
_atom_site_fract_z
Si Si1 0.436514 0.732747 0.180150
Si Si2 0.742316 0.695264 0.320218
Si Si3 0.068400 0.500000 0.332130
Si Si4 0.641259 0.182032 0.821455
Si Si5 0.367037 0.358483 0.179173
Si Si6 0.932070 0.603130 0.322107
Si Si7 0.434273 0.445060 0.319172
O O1 0.500000 0.741893 0.253876
O O2 0.388569 0.769402 0.246044
O O3 0.418578 0.678421 0.218197
O O4 0.440031 0.741672 0.000000
O O5 0.731714 0.695908 0.500000
O O6 0.750000 0.750000 0.255802
O O7 0.801904 0.669316 0.275623
O O8 0.691514 0.663785 0.246986
O O9 0.096646 0.500000 0.500000
O O10 0.086736 0.449611 0.254614
O O11 0.000000 0.500000 0.351098
O O12 0.596739 0.139461 0.794702
O O13 0.656861 0.187000 0.000000
O O14 0.386242 0.409947 0.245955
O O15 0.356973 0.364712 0.000000
O O16 0.912715 0.609689 0.500000
O O17 0.000000 0.611124 0.309663
O O18 0.430683 0.439057 0.500000
O O19 0.500000 0.432931 0.263449
O O20 0.419094 0.500000 0.272057
#
# Coordination Sequence:
#
# PCOD8274336 Si02
#       7
#    16  16   8  16  16  16  16
#     4   9  18  31  48  75 111 145 173 208 263 327
#     4  11  23  39  58  78 105 142 187 230 272 326
#     4   7  12  26  49  73  99 135 173 209 252 307
#     4  11  21  34  53  76 108 144 180 222 271 324
#     4  11  21  35  58  84 113 147 188 233 278 330
#     4   9  17  31  52  78 107 139 177 219 266 320
#     4   9  19  37  60  87 121 157 190 229 282 341
#
# _framework density 18.554016000000001
#
# number of rings (size 3 to 8) (size 9 to 14) (size 15 to 20)
#    0.000    2.231    1.538    3.692    0.000    2.769 
#    0.000    1.154    1.692    5.077    0.000    0.000 
#    0.000    0.000    0.000    0.000    0.000    0.000 
#
# Total GULP energy -644403.285455 kJ/mol
# GULP energy per Si atom -12392.370874 kJ/mol
# Density = 1.851179 g / cm^3
# Si number density = 18.554016 Si / 1000 Ang^3
#
#
#
# Elastic Constant Matrix: (Units=GPa)
#
#
# Indices 1 2 3 4 5 6 
#
# 1 109.2013 54.1491 34.5381 0.0000 0.0000 0.0000
# 2 54.1491 132.3913 39.4350 0.0000 0.0000 0.0000
# 3 34.5381 39.4350 49.1863 0.0000 0.0000 0.0000
# 4 0.0000 0.0000 0.0000 27.0601 0.0000 0.0000
# 5 0.0000 0.0000 0.0000 0.0000 26.0456 0.0000
# 6 0.0000 0.0000 0.0000 0.0000 0.0000 20.7563
#
#
#
# Elastic Compliance Matrix: (Units=1/GPa)
#
#
# Indices 1 2 3 4 5 6 
#
# 1 0.012820 -0.003366 -0.006304 0.000000 0.000000 0.000000
# 2 -0.003366 0.010807 -0.006301 0.000000 0.000000 0.000000
# 3 -0.006304 -0.006301 0.029809 0.000000 0.000000 0.000000
# 4 0.000000 0.000000 0.000000 0.036955 0.000000 0.000000
# 5 0.000000 0.000000 0.000000 0.000000 0.038394 0.000000
# 6 0.000000 0.000000 0.000000 0.000000 0.000000 0.048178
#
#
# Mechanical properties :
#
#
# Convention : Reuss Voigt Hill
#
# Bulk Modulus (GPa) = 46.52201 60.78036 53.65118
# Shear Modulus (GPa) = 23.14077 25.61617 24.37847
#
# Velocity S-wave (km/s) = 3.53542 3.71971 3.62873
# Velocity P-wave (km/s) = 6.46482 7.16087 6.82173
#
# Compressibility (1/GPa) = 0.02149520
#
# Stress axis : x y z
#
# Youngs Moduli (GPa) = 78.00239 92.53367 33.54705
#
# Poissons Ratio (x) = 0.31146 0.21147
# Poissons Ratio (y) = 0.26255 0.21138
# Poissons Ratio (z) = 0.49169 0.58304
#
# Static dielectric constant tensor:
#      x y z
#    x 3.370120 0.000000 0.000000 
#    y 0.000000 3.635540 0.000000 
#    z 0.000000 0.000000 3.145180 
# 
# 
# High freq. dielectric constant tensor:
#      x y z
#    x 1.709570 0.000000 0.000000 
#    y 0.000000 1.725490 0.000000 
#    z 0.000000 0.000000 1.698240 
# 
# From -- ./inp_files/14727.got.cif
#   From: 2010.03.12/outbox.cif.g09.slc.cpg/sg65_8_cif.got.tgz:14727.got - 2010.04.10 20:52:16.
