data_PCOD8274345
_publ_section_title
;
Structure prediction by ZEFSAII (Michael W. Deem and Ramdas Pophale) SiO2 
 PCOD8274345
Probable space group: C M M M
;
_chemical_formula_sum "Si O2"
_cell_formula_units_Z 80
_cell_length_a 8.706462
_cell_length_b 18.097963
_cell_length_c 25.709119
_cell_angle_alpha 90.000000
_cell_angle_beta 90.000000
_cell_angle_gamma 90.000000
_cell_volume 4050.966011
_symmetry_space_group_name_H-M "C M M M"
_symmetry_group_IT_number 65
_symmetry_cell_setting 'orthorhombic'
loop_
_space_group_symop_operation_xyz
x,y,z
-x,-y,z
x,-y,-z
-x,y,-z
-x,-y,-z
x,y,-z
-x,y,z
x,-y,z
1/2+x,1/2+y,z
1/2-x,1/2-y,z
1/2+x,1/2-y,-z
1/2-x,1/2+y,-z
1/2-x,1/2-y,-z
1/2+x,1/2+y,-z
1/2-x,1/2+y,z
1/2+x,1/2-y,z
loop_
_atom_site_type_symbol
_atom_site_label
_atom_site_fract_x
_atom_site_fract_y
_atom_site_fract_z
Si Si1 0.324726 0.087263 0.745528
Si Si2 0.819541 0.830369 0.349396
Si Si3 0.177319 0.415174 0.440008
Si Si4 0.820101 0.330807 0.943719
Si Si5 0.319469 0.331189 0.840681
O O1 0.500000 0.114351 0.750810
O O2 0.255828 0.114524 0.691541
O O3 0.226341 0.118114 0.792881
O O4 0.313008 0.000000 0.746201
O O5 0.750000 0.750000 0.341514
O O6 0.783833 0.861047 0.406751
O O7 0.000000 0.826338 0.340328
O O8 0.206610 0.395789 0.500000
O O9 0.221906 0.500000 0.428795
O O10 0.000000 0.401622 0.425230
O O11 0.750000 0.250000 0.946511
O O12 0.741513 0.370523 0.894140
O O13 0.000000 0.325279 0.932954
O O14 0.788734 0.370457 0.000000
O O15 0.500000 0.323928 0.843452
O O16 0.250000 0.250000 0.833250
#
# Coordination Sequence:
#
# PCOD8274345 Si02
#       5
#    16  16  16  16  16
#     4  11  24  42  62  82 109 145 184 228 281 340
#     4  12  25  40  60  86 117 150 188 234 281 331
#     4   9  19  38  63  89 119 155 192 230 276 331
#     4   9  16  27  46  74 108 144 183 226 273 326
#     4  11  21  34  55  82 114 147 184 230 277 329
#
# _framework density 19.748376
#
# number of rings (size 3 to 8) (size 9 to 14) (size 15 to 20)
#    0.000    1.600    0.000    7.800    0.000    6.400 
#    0.000    1.000    0.000    0.600    0.000    4.200 
#    0.000    0.000    0.000    0.000    0.000    0.000 
#
# Total GULP energy -495971.388090 kJ/mol
# GULP energy per Si atom -12399.284702 kJ/mol
# Density = 1.970343 g / cm^3
# Si number density = 19.748376 Si / 1000 Ang^3
#
#
#
# Elastic Constant Matrix: (Units=GPa)
#
#
# Indices 1 2 3 4 5 6 
#
# 1 138.5463 40.9917 48.6374 0.0000 0.0000 0.0000
# 2 40.9917 51.9891 32.8991 0.0000 0.0000 0.0000
# 3 48.6374 32.8991 125.7146 0.0000 0.0000 0.0000
# 4 0.0000 0.0000 0.0000 -1.2134 0.0000 0.0000
# 5 0.0000 0.0000 0.0000 0.0000 134.1918 0.0000
# 6 0.0000 0.0000 0.0000 0.0000 0.0000 24.7905
#
#
#
# Elastic Compliance Matrix: (Units=1/GPa)
#
#
# Indices 1 2 3 4 5 6 
#
# 1 0.009870 -0.006431 -0.002136 0.000000 0.000000 0.000000
# 2 -0.006431 0.027242 -0.004641 0.000000 0.000000 0.000000
# 3 -0.002136 -0.004641 0.009995 0.000000 0.000000 0.000000
# 4 0.000000 0.000000 0.000000 -0.824164 0.000000 0.000000
# 5 0.000000 0.000000 0.000000 0.000000 0.007452 0.000000
# 6 0.000000 0.000000 0.000000 0.000000 0.000000 0.040338
#
#
# Mechanical properties :
#
#
# Convention : Reuss Voigt Hill
#
# Bulk Modulus (GPa) = 48.32702 62.36736 55.34719
# Shear Modulus (GPa) = -7.18439 44.46857 18.64209
#
# Velocity S-wave (km/s) = -1.90941 4.75042 3.07576
# Velocity P-wave (km/s) = 4.43434 7.85737 6.37972
#
# Compressibility (1/GPa) = 0.02069236
#
# Stress axis : x y z
#
# Youngs Moduli (GPa) = 101.31441 36.70766 100.04597
#
# Poissons Ratio (x) = 0.23606 0.21367
# Poissons Ratio (y) = 0.65154 0.46433
# Poissons Ratio (z) = 0.21638 0.17037
#
# Static dielectric constant tensor:
#      x y z
#    x 3.741530 0.000000 0.000000 
#    y 0.000000 3.267090 0.000000 
#    z 0.000000 0.000000 4.244870 
# 
# 
# High freq. dielectric constant tensor:
#      x y z
#    x 1.782410 0.000000 0.000000 
#    y 0.000000 1.736510 0.000000 
#    z 0.000000 0.000000 1.796580 
# 
# From -- ./inp_files/72802.got.cif
#   From: 2010.03.12/outbox.cif.g09.slc.cpg/sg65_37_cif.got.tgz:72802.got - 2010.04.10 20:52:16.
