data_PCOD8274789
_publ_section_title
;
Structure prediction by ZEFSAII (Michael W. Deem and Ramdas Pophale) SiO2 
 PCOD8274789
Probable space group: C M M M
;
_chemical_formula_sum "Si O2"
_cell_formula_units_Z 48
_cell_length_a 9.032289
_cell_length_b 19.720790
_cell_length_c 12.339015
_cell_angle_alpha 90.000000
_cell_angle_beta 90.000000
_cell_angle_gamma 90.000000
_cell_volume 2197.873160
_symmetry_space_group_name_H-M "C M M M"
_symmetry_group_IT_number 65
_symmetry_cell_setting 'orthorhombic'
loop_
_space_group_symop_operation_xyz
x,y,z
-x,-y,z
x,-y,-z
-x,y,-z
-x,-y,-z
x,y,-z
-x,y,z
x,-y,z
1/2+x,1/2+y,z
1/2-x,1/2-y,z
1/2+x,1/2-y,-z
1/2-x,1/2+y,-z
1/2-x,1/2-y,-z
1/2+x,1/2+y,-z
1/2-x,1/2+y,z
1/2+x,1/2-y,z
loop_
_atom_site_type_symbol
_atom_site_label
_atom_site_fract_x
_atom_site_fract_y
_atom_site_fract_z
Si Si1 0.338571 0.500000 0.372075
Si Si2 0.172530 0.317399 0.845016
Si Si3 0.169072 0.631232 0.380287
Si Si4 0.823817 0.080335 0.000000
O O1 0.500000 0.500000 0.316559
O O2 0.352119 0.500000 0.500000
O O3 0.254646 0.566542 0.334522
O O4 0.250000 0.250000 0.892115
O O5 0.190399 0.313565 0.713881
O O6 0.000000 0.318153 0.878233
O O7 0.252095 0.383694 0.894499
O O8 0.226567 0.656245 0.500000
O O9 0.000000 0.609246 0.391675
O O10 0.000000 0.091139 0.000000
O O11 0.784649 0.000000 0.000000
#
# Coordination Sequence:
#
# PCOD8274789 Si02
#       4
#     8  16  16   8
#     4   9  17  29  49  80 117 158 203 253 303 351
#     4  11  24  42  66  94 128 169 210 257 311 373
#     4   9  19  36  58  87 125 168 209 249 302 368
#     4  11  26  47  70  95 123 159 206 265 320 373
#
# _framework density 21.839296000000001
#
# number of rings (size 3 to 8) (size 9 to 14) (size 15 to 20)
#    0.000    2.000    0.000    2.500    2.333    6.667 
#    0.000    0.000    0.000    0.000    0.000    0.000 
#    0.000    0.000    0.000    0.000    0.000    0.000 
#
# Total GULP energy -297392.549523 kJ/mol
# GULP energy per Si atom -12391.356230 kJ/mol
# Density = 2.178959 g / cm^3
# Si number density = 21.839296 Si / 1000 Ang^3
#
#
#
# Elastic Constant Matrix: (Units=GPa)
#
#
# Indices 1 2 3 4 5 6 
#
# 1 124.3428 67.6858 37.6508 0.0000 0.0000 0.0000
# 2 67.6858 130.1060 36.3638 0.0000 0.0000 0.0000
# 3 37.6508 36.3638 132.1731 0.0000 0.0000 0.0000
# 4 0.0000 0.0000 0.0000 15.2424 0.0000 0.0000
# 5 0.0000 0.0000 0.0000 0.0000 23.8817 0.0000
# 6 0.0000 0.0000 0.0000 0.0000 0.0000 15.4989
#
#
#
# Elastic Compliance Matrix: (Units=1/GPa)
#
#
# Indices 1 2 3 4 5 6 
#
# 1 0.011594 -0.005534 -0.001780 0.000000 0.000000 0.000000
# 2 -0.005534 0.010968 -0.001441 0.000000 0.000000 0.000000
# 3 -0.001780 -0.001441 0.008469 0.000000 0.000000 0.000000
# 4 0.000000 0.000000 0.000000 0.065606 0.000000 0.000000
# 5 0.000000 0.000000 0.000000 0.000000 0.041873 0.000000
# 6 0.000000 0.000000 0.000000 0.000000 0.000000 0.064521
#
#
# Mechanical properties :
#
#
# Convention : Reuss Voigt Hill
#
# Bulk Modulus (GPa) = 73.96088 74.44697 74.20393
# Shear Modulus (GPa) = 22.21747 27.25270 24.73509
#
# Velocity S-wave (km/s) = 3.19300 3.53636 3.36906
# Velocity P-wave (km/s) = 6.89443 7.13001 7.01321
#
# Compressibility (1/GPa) = 0.01352066
#
# Stress axis : x y z
#
# Youngs Moduli (GPa) = 86.25400 91.17629 118.07245
#
# Poissons Ratio (x) = 0.50456 0.21018
# Poissons Ratio (y) = 0.47732 0.17015
# Poissons Ratio (z) = 0.15354 0.13139
#
# Static dielectric constant tensor:
#      x y z
#    x 4.094970 0.000000 0.000000 
#    y 0.000000 3.676120 0.000000 
#    z 0.000000 0.000000 4.041860 
# 
# 
# High freq. dielectric constant tensor:
#      x y z
#    x 1.861900 0.000000 0.000000 
#    y 0.000000 1.840100 0.000000 
#    z 0.000000 0.000000 1.871110 
# 
# From -- ./inp_files/35079.got.cif
#   From: 2010.03.12/outbox.cif.g09.slc.cpg/sg65_18_cif.got.tgz:35079.got - 2010.04.10 20:52:16.
