data_PCOD8274202
_publ_section_title
;
Structure prediction by ZEFSAII (Michael W. Deem and Ramdas Pophale) SiO2 
 PCOD8274202
Probable space group: C M M M
;
_chemical_formula_sum "Si O2"
_cell_formula_units_Z 72
_cell_length_a 18.476582
_cell_length_b 31.471778
_cell_length_c 9.056506
_cell_angle_alpha 90.000000
_cell_angle_beta 90.000000
_cell_angle_gamma 90.000000
_cell_volume 5266.275706
_symmetry_space_group_name_H-M "C M M M"
_symmetry_group_IT_number 65
_symmetry_cell_setting 'orthorhombic'
loop_
_space_group_symop_operation_xyz
x,y,z
-x,-y,z
x,-y,-z
-x,y,-z
-x,-y,-z
x,y,-z
-x,y,z
x,-y,z
1/2+x,1/2+y,z
1/2-x,1/2-y,z
1/2+x,1/2-y,-z
1/2-x,1/2+y,-z
1/2-x,1/2-y,-z
1/2+x,1/2+y,-z
1/2-x,1/2+y,z
1/2+x,1/2-y,z
loop_
_atom_site_type_symbol
_atom_site_label
_atom_site_fract_x
_atom_site_fract_y
_atom_site_fract_z
Si Si1 0.921367 0.000000 0.826060
Si Si2 0.918219 0.751815 0.826670
Si Si3 0.215713 0.296341 0.163065
Si Si4 0.913775 0.908012 0.169765
Si Si5 0.844901 0.169749 0.673932
O O1 0.882957 0.955189 0.784749
O O2 0.000000 0.000000 0.748953
O O3 0.933293 0.000000 0.000000
O O4 0.867238 0.711510 0.782819
O O5 0.896277 0.794313 0.741545
O O6 0.000000 0.739446 0.784889
O O7 0.909417 0.761846 0.000000
O O8 0.250000 0.250000 0.156131
O O9 0.261284 0.325675 0.274001
O O10 0.217301 0.317356 0.000000
O O11 0.874113 0.875769 0.277658
O O12 0.000000 0.905977 0.192528
O O13 0.894521 0.897136 0.000000
O O14 0.847312 0.173784 0.500000
#
# Coordination Sequence:
#
# PCOD8274202 Si02
#       5
#     8  16  16  16  16
#     4   7  12  24  41  57  69  87 120 157 188 217
#     4   9  17  29  43  56  70  92 124 159 191 221
#     4   8  15  28  42  53  68  93 123 153 186 220
#     4   9  16  27  42  56  71  94 125 158 188 218
#     4  11  20  26  35  54  78 101 125 152 182 217
#
# _framework density 13.671901999999999
#
# number of rings (size 3 to 8) (size 9 to 14) (size 15 to 20)
#    0.000    3.000    0.000    5.333    0.000    7.556 
#    0.000    0.556    0.000    2.000    0.000    0.000 
#    0.000    0.000    0.000    1.000    0.000   22.889 
#
# Total GULP energy -446000.390583 kJ/mol
# GULP energy per Si atom -12388.899738 kJ/mol
# Density = 1.364078 g / cm^3
# Si number density = 13.671902 Si / 1000 Ang^3
#
#
#
# Elastic Constant Matrix: (Units=GPa)
#
#
# Indices 1 2 3 4 5 6 
#
# 1 94.3996 38.9385 34.6482 0.0000 0.0000 0.0000
# 2 38.9385 64.4370 32.2898 0.0000 0.0000 0.0000
# 3 34.6482 32.2898 61.3401 0.0000 0.0000 0.0000
# 4 0.0000 0.0000 0.0000 2.3675 0.0000 0.0000
# 5 0.0000 0.0000 0.0000 0.0000 6.4414 0.0000
# 6 0.0000 0.0000 0.0000 0.0000 0.0000 12.2117
#
#
#
# Elastic Compliance Matrix: (Units=1/GPa)
#
#
# Indices 1 2 3 4 5 6 
#
# 1 0.015198 -0.006632 -0.005094 0.000000 0.000000 0.000000
# 2 -0.006632 0.023973 -0.008874 0.000000 0.000000 0.000000
# 3 -0.005094 -0.008874 0.023851 0.000000 0.000000 0.000000
# 4 0.000000 0.000000 0.000000 0.422394 0.000000 0.000000
# 5 0.000000 0.000000 0.000000 0.000000 0.155245 0.000000
# 6 0.000000 0.000000 0.000000 0.000000 0.000000 0.081888
#
#
# Mechanical properties :
#
#
# Convention : Reuss Voigt Hill
#
# Bulk Modulus (GPa) = 45.82101 47.99219 46.90660
# Shear Modulus (GPa) = 6.48489 11.82415 9.15452
#
# Velocity S-wave (km/s) = 2.18026 2.94402 2.59044
# Velocity P-wave (km/s) = 6.31866 6.83633 6.58259
#
# Compressibility (1/GPa) = 0.02182405
#
# Stress axis : x y z
#
# Youngs Moduli (GPa) = 65.79655 41.71347 41.92689
#
# Poissons Ratio (x) = 0.27663 0.21357
# Poissons Ratio (y) = 0.43633 0.37205
# Poissons Ratio (z) = 0.33517 0.37015
#
# Static dielectric constant tensor:
#      x y z
#    x 3.023900 0.000000 0.000000 
#    y 0.000000 2.727230 0.000000 
#    z 0.000000 0.000000 2.581220 
# 
# 
# High freq. dielectric constant tensor:
#      x y z
#    x 1.500830 0.000000 0.000000 
#    y 0.000000 1.494550 0.000000 
#    z 0.000000 0.000000 1.511050 
# 
# From -- ./inp_files/11452.got.cif
#   From: 2010.03.12/outbox.cif.g09.slc.cpg/sg65_6_cif.got.tgz:11452.got - 2010.04.10 20:52:16.
