data_PCOD8274810
_publ_section_title
;
Structure prediction by ZEFSAII (Michael W. Deem and Ramdas Pophale) SiO2 
 PCOD8274810
Probable space group: C M M M
;
_chemical_formula_sum "Si O2"
_cell_formula_units_Z 56
_cell_length_a 23.484471
_cell_length_b 13.243391
_cell_length_c 8.923853
_cell_angle_alpha 90.000000
_cell_angle_beta 90.000000
_cell_angle_gamma 90.000000
_cell_volume 2775.443501
_symmetry_space_group_name_H-M "C M M M"
_symmetry_group_IT_number 65
_symmetry_cell_setting 'orthorhombic'
loop_
_space_group_symop_operation_xyz
x,y,z
-x,-y,z
x,-y,-z
-x,y,-z
-x,-y,-z
x,y,-z
-x,y,z
x,-y,z
1/2+x,1/2+y,z
1/2-x,1/2-y,z
1/2+x,1/2-y,-z
1/2-x,1/2+y,-z
1/2-x,1/2-y,-z
1/2+x,1/2+y,-z
1/2-x,1/2+y,z
1/2+x,1/2-y,z
loop_
_atom_site_type_symbol
_atom_site_label
_atom_site_fract_x
_atom_site_fract_y
_atom_site_fract_z
Si Si1 0.567237 0.500000 0.328346
Si Si2 0.861701 0.612115 0.324667
Si Si3 0.625333 0.310210 0.175778
Si Si4 0.270066 0.613681 0.331428
O O1 0.500000 0.500000 0.314540
O O2 0.587791 0.500000 0.500000
O O3 0.589181 0.398330 0.251056
O O4 0.871157 0.630210 0.500000
O O5 0.884422 0.500000 0.280019
O O6 0.895124 0.699454 0.233630
O O7 0.795189 0.617818 0.282506
O O8 0.691961 0.319759 0.219873
O O9 0.616867 0.317410 0.000000
O O10 0.277667 0.656085 0.500000
O O11 0.293489 0.500000 0.323334
#
# Coordination Sequence:
#
# PCOD8274810 Si02
#       4
#     8  16  16  16
#     4  11  25  45  67  85 103 139 193 245 288 339
#     4   9  19  35  55  80 112 157 202 232 263 318
#     4  12  23  34  54  84 117 149 179 230 297 345
#     4   9  17  31  52  77 110 155 199 233 266 321
#
# _framework density 20.176956000000001
#
# number of rings (size 3 to 8) (size 9 to 14) (size 15 to 20)
#    0.000    1.857    1.429    5.571    0.000    6.286 
#    0.000    2.857    0.000    0.857    0.000    6.000 
#    0.000    0.000    0.000    0.000    0.000    0.000 
#
# Total GULP energy -347105.607669 kJ/mol
# GULP energy per Si atom -12396.628845 kJ/mol
# Density = 2.013103 g / cm^3
# Si number density = 20.176956 Si / 1000 Ang^3
#
#
#
# Elastic Constant Matrix: (Units=GPa)
#
#
# Indices 1 2 3 4 5 6 
#
# 1 25.9635 31.9328 27.6071 0.0000 0.0000 0.0000
# 2 31.9328 200.8863 87.5590 0.0000 0.0000 0.0000
# 3 27.6071 87.5590 137.0532 0.0000 0.0000 0.0000
# 4 0.0000 0.0000 0.0000 16.5397 0.0000 0.0000
# 5 0.0000 0.0000 0.0000 0.0000 -11.2512 0.0000
# 6 0.0000 0.0000 0.0000 0.0000 0.0000 12.7266
#
#
#
# Elastic Compliance Matrix: (Units=1/GPa)
#
#
# Indices 1 2 3 4 5 6 
#
# 1 0.052652 -0.005193 -0.007288 0.000000 0.000000 0.000000
# 2 -0.005193 0.007411 -0.003689 0.000000 0.000000 0.000000
# 3 -0.007288 -0.003689 0.011121 0.000000 0.000000 0.000000
# 4 0.000000 0.000000 0.000000 0.060461 0.000000 0.000000
# 5 0.000000 0.000000 0.000000 0.000000 -0.088879 0.000000
# 6 0.000000 0.000000 0.000000 0.000000 0.000000 0.078575
#
#
# Mechanical properties :
#
#
# Convention : Reuss Voigt Hill
#
# Bulk Modulus (GPa) = 25.74362 73.12232 49.43297
# Shear Modulus (GPa) = 30.00671 18.05662 24.03167
#
# Velocity S-wave (km/s) = 3.86058 2.99476 3.45490
# Velocity P-wave (km/s) = 5.71478 6.94818 6.36144
#
# Compressibility (1/GPa) = 0.03884458
#
# Stress axis : x y z
#
# Youngs Moduli (GPa) = 18.99258 134.93115 89.91833
#
# Poissons Ratio (x) = 0.70067 0.65536
# Poissons Ratio (y) = 0.09863 0.33169
# Poissons Ratio (z) = 0.13843 0.49773
#
# Static dielectric constant tensor:
#      x y z
#    x 3.227670 0.000000 0.000000 
#    y 0.000000 4.192740 0.000000 
#    z 0.000000 0.000000 3.461620 
# 
# 
# High freq. dielectric constant tensor:
#      x y z
#    x 1.735370 0.000000 0.000000 
#    y 0.000000 1.820890 0.000000 
#    z 0.000000 0.000000 1.769040 
# 
# From -- ./inp_files/13252.got.cif
#   From: 2010.03.12/outbox.cif.g09.slc.cpg/sg65_7_cif.got.tgz:13252.got - 2010.04.10 20:52:16.
