data_PCOD8274929
_publ_section_title
;
Structure prediction by ZEFSAII (Michael W. Deem and Ramdas Pophale) SiO2 
 PCOD8274929
Probable space group: C M M M
;
_chemical_formula_sum "Si O2"
_cell_formula_units_Z 80
_cell_length_a 13.839563
_cell_length_b 44.092446
_cell_length_c 9.849277
_cell_angle_alpha 90.000000
_cell_angle_beta 90.000000
_cell_angle_gamma 90.000000
_cell_volume 6010.227626
_symmetry_space_group_name_H-M "C M M M"
_symmetry_group_IT_number 65
_symmetry_cell_setting 'orthorhombic'
loop_
_space_group_symop_operation_xyz
x,y,z
-x,-y,z
x,-y,-z
-x,y,-z
-x,-y,-z
x,y,-z
-x,y,z
x,-y,z
1/2+x,1/2+y,z
1/2-x,1/2-y,z
1/2+x,1/2-y,-z
1/2-x,1/2+y,-z
1/2-x,1/2-y,-z
1/2+x,1/2+y,-z
1/2-x,1/2+y,z
1/2+x,1/2-y,z
loop_
_atom_site_type_symbol
_atom_site_label
_atom_site_fract_x
_atom_site_fract_y
_atom_site_fract_z
Si Si1 0.114632 0.584210 0.350291
Si Si2 0.292439 0.202303 0.160861
Si Si3 0.614908 0.033617 0.848256
Si Si4 0.893854 0.763390 0.160487
Si Si5 0.887836 0.652679 0.658264
O O1 0.156553 0.577511 0.500000
O O2 0.160389 0.559426 0.248439
O O3 0.141851 0.618224 0.305371
O O4 0.000000 0.581221 0.354189
O O5 0.182200 0.210624 0.202625
O O6 0.359747 0.230182 0.208444
O O7 0.321915 0.173052 0.245618
O O8 0.302198 0.195822 0.000000
O O9 0.500000 0.035935 0.848193
O O10 0.646212 0.000000 0.797832
O O11 0.654221 0.039273 0.000000
O O12 0.000000 0.770514 0.222599
O O13 0.898398 0.762394 0.000000
O O14 0.867580 0.659570 0.500000
O O15 0.000000 0.658488 0.691972
#
# Coordination Sequence:
#
# PCOD8274929 Si02
#       5
#    16  16  16  16  16
#     4   8  14  23  32  42  58  83 113 139 166 203
#     4   9  16  25  40  58  69  86 118 145 169 208
#     4   8  13  20  29  42  60  80 104 138 175 201
#     4   8  14  25  39  55  75  92 108 139 178 210
#     4   9  17  27  36  48  70  95 115 143 183 214
#
# _framework density 13.310644999999999
#
# number of rings (size 3 to 8) (size 9 to 14) (size 15 to 20)
#    0.000    3.600    0.000    3.600    0.000    2.400 
#    0.000    6.000    0.000    1.800    0.000    0.000 
#    0.000    0.000    0.000    0.000    0.000    1.000 
#
# Total GULP energy -495617.765581 kJ/mol
# GULP energy per Si atom -12390.444140 kJ/mol
# Density = 1.328035 g / cm^3
# Si number density = 13.310645 Si / 1000 Ang^3
#
#
#
# Elastic Constant Matrix: (Units=GPa)
#
#
# Indices 1 2 3 4 5 6 
#
# 1 60.7408 37.2674 25.6103 0.0000 0.0000 0.0000
# 2 37.2674 117.0798 64.5604 0.0000 0.0000 0.0000
# 3 25.6103 64.5604 61.3428 0.0000 0.0000 0.0000
# 4 0.0000 0.0000 0.0000 22.5923 0.0000 0.0000
# 5 0.0000 0.0000 0.0000 0.0000 9.9333 0.0000
# 6 0.0000 0.0000 0.0000 0.0000 0.0000 10.7160
#
#
#
# Elastic Compliance Matrix: (Units=1/GPa)
#
#
# Indices 1 2 3 4 5 6 
#
# 1 0.020884 -0.004384 -0.004105 0.000000 0.000000 0.000000
# 2 -0.004384 0.021273 -0.020559 0.000000 0.000000 0.000000
# 3 -0.004105 -0.020559 0.039653 0.000000 0.000000 0.000000
# 4 0.000000 0.000000 0.000000 0.044263 0.000000 0.000000
# 5 0.000000 0.000000 0.000000 0.000000 0.100671 0.000000
# 6 0.000000 0.000000 0.000000 0.000000 0.000000 0.093319
#
#
# Mechanical properties :
#
#
# Convention : Reuss Voigt Hill
#
# Bulk Modulus (GPa) = 42.16840 54.89330 48.53085
# Shear Modulus (GPa) = 12.95124 16.09667 14.52396
#
# Velocity S-wave (km/s) = 3.12268 3.48128 3.30684
# Velocity P-wave (km/s) = 6.68958 7.58214 7.14980
#
# Compressibility (1/GPa) = 0.02371444
#
# Stress axis : x y z
#
# Youngs Moduli (GPa) = 47.88365 47.00749 25.21880
#
# Poissons Ratio (x) = 0.20607 0.10353
# Poissons Ratio (y) = 0.20991 0.51847
# Poissons Ratio (z) = 0.19657 0.96642
#
# Static dielectric constant tensor:
#      x y z
#    x 2.564160 0.000000 0.000000 
#    y 0.000000 2.747720 0.000000 
#    z 0.000000 0.000000 2.675630 
# 
# 
# High freq. dielectric constant tensor:
#      x y z
#    x 1.450760 0.000000 0.000000 
#    y 0.000000 1.508040 0.000000 
#    z 0.000000 0.000000 1.497040 
# 
# From -- ./inp_files/25279.got.cif
#   From: 2010.03.12/outbox.cif.g09.slc.cpg/sg65_13_cif.got.tgz:25279.got - 2010.04.10 20:52:16.
