data_PCOD8274241
_publ_section_title
;
Structure prediction by ZEFSAII (Michael W. Deem and Ramdas Pophale) SiO2 
 PCOD8274241
Probable space group: C M M M
;
_chemical_formula_sum "Si O2"
_cell_formula_units_Z 72
_cell_length_a 10.058880
_cell_length_b 26.534522
_cell_length_c 14.738082
_cell_angle_alpha 90.000000
_cell_angle_beta 90.000000
_cell_angle_gamma 90.000000
_cell_volume 3933.705692
_symmetry_space_group_name_H-M "C M M M"
_symmetry_group_IT_number 65
_symmetry_cell_setting 'orthorhombic'
loop_
_space_group_symop_operation_xyz
x,y,z
-x,-y,z
x,-y,-z
-x,y,-z
-x,-y,-z
x,y,-z
-x,y,z
x,-y,z
1/2+x,1/2+y,z
1/2-x,1/2-y,z
1/2+x,1/2-y,-z
1/2-x,1/2+y,-z
1/2-x,1/2-y,-z
1/2+x,1/2+y,-z
1/2-x,1/2+y,z
1/2+x,1/2-y,z
loop_
_atom_site_type_symbol
_atom_site_label
_atom_site_fract_x
_atom_site_fract_y
_atom_site_fract_z
Si Si1 0.151860 0.128527 0.346788
Si Si2 0.000000 0.059219 0.101331
Si Si3 0.658745 0.556264 0.500000
Si Si4 0.143859 0.791661 0.500000
Si Si5 0.741544 0.379929 0.845094
Si Si6 0.662758 0.301787 0.000000
Si Si7 0.500000 0.942618 0.106081
O O1 0.209471 0.082332 0.407276
O O2 0.160772 0.177106 0.408888
O O3 0.243728 0.138812 0.259020
O O4 0.000000 0.118396 0.315887
O O5 0.130443 0.077185 0.151892
O O6 0.000000 0.000000 0.098378
O O7 0.000000 0.082542 0.000000
O O8 0.713520 0.500000 0.500000
O O9 0.500000 0.560698 0.500000
O O10 0.250000 0.750000 0.500000
O O11 0.000000 0.765771 0.500000
O O12 0.707337 0.333214 0.911199
O O13 0.876313 0.408427 0.866690
O O14 0.750000 0.250000 0.000000
O O15 0.500000 0.292204 0.000000
O O16 0.500000 0.000000 0.148817
O O17 0.500000 0.950252 0.000000
#
# Coordination Sequence:
#
# PCOD8274241 Si02
#       7
#    16   8   8   8  16   8   8
#     4   9  18  34  58  84 116 151 189 244 293 341
#     4  11  20  34  60  89 114 151 199 248 297 351
#     4   8  15  28  49  83 117 146 181 225 284 347
#     4   9  19  38  61  87 116 147 193 249 303 356
#     4  12  21  41  60  85 124 158 202 249 297 360
#     4  12  26  42  63  88 116 156 201 250 309 362
#     4  11  24  40  60  87 124 167 203 244 303 357
#
# _framework density 18.303353000000001
#
# number of rings (size 3 to 8) (size 9 to 14) (size 15 to 20)
#    0.000    1.667    4.444    2.000    1.556    4.444 
#    2.000    0.000    0.000    0.000    0.000    2.333 
#    0.000    0.000    0.000    0.000    0.000    0.000 
#
# Total GULP energy -446135.866643 kJ/mol
# GULP energy per Si atom -12392.662962 kJ/mol
# Density = 1.826169 g / cm^3
# Si number density = 18.303353 Si / 1000 Ang^3
#
#
#
# Elastic Constant Matrix: (Units=GPa)
#
#
# Indices 1 2 3 4 5 6 
#
# 1 127.4298 67.2073 42.4097 0.0000 0.0000 0.0000
# 2 67.2073 118.2771 52.6662 0.0000 0.0000 0.0000
# 3 42.4097 52.6662 140.8098 0.0000 0.0000 0.0000
# 4 0.0000 0.0000 0.0000 3.5990 0.0000 0.0000
# 5 0.0000 0.0000 0.0000 0.0000 23.3671 0.0000
# 6 0.0000 0.0000 0.0000 0.0000 0.0000 7.9995
#
#
#
# Elastic Compliance Matrix: (Units=1/GPa)
#
#
# Indices 1 2 3 4 5 6 
#
# 1 0.011375 -0.005925 -0.001210 0.000000 0.000000 0.000000
# 2 -0.005925 0.013230 -0.003164 0.000000 0.000000 0.000000
# 3 -0.001210 -0.003164 0.008650 0.000000 0.000000 0.000000
# 4 0.000000 0.000000 0.000000 0.277857 0.000000 0.000000
# 5 0.000000 0.000000 0.000000 0.000000 0.042795 0.000000
# 6 0.000000 0.000000 0.000000 0.000000 0.000000 0.125008
#
#
# Mechanical properties :
#
#
# Convention : Reuss Voigt Hill
#
# Bulk Modulus (GPa) = 79.00524 79.00923 79.00723
# Shear Modulus (GPa) = 9.92593 21.94201 15.93397
#
# Velocity S-wave (km/s) = 2.33126 3.46612 2.95371
# Velocity P-wave (km/s) = 7.10665 7.69928 7.40889
#
# Compressibility (1/GPa) = 0.01265739
#
# Stress axis : x y z
#
# Youngs Moduli (GPa) = 87.91346 75.58556 115.61233
#
# Poissons Ratio (x) = 0.44782 0.13989
# Poissons Ratio (y) = 0.52085 0.36579
# Poissons Ratio (z) = 0.10637 0.23915
#
# Static dielectric constant tensor:
#      x y z
#    x 3.280000 0.000000 0.000000 
#    y 0.000000 3.061540 0.000000 
#    z 0.000000 0.000000 3.608190 
# 
# 
# High freq. dielectric constant tensor:
#      x y z
#    x 1.690010 0.000000 0.000000 
#    y 0.000000 1.708500 0.000000 
#    z 0.000000 0.000000 1.719480 
# 
# From -- ./inp_files/36730.got.cif
#   From: 2010.03.12/outbox.cif.g09.slc.cpg/sg65_19_cif.got.tgz:36730.got - 2010.04.10 20:52:16.
