data_PCOD8274573
_publ_section_title
;
Structure prediction by ZEFSAII (Michael W. Deem and Ramdas Pophale) SiO2 
 PCOD8274573
Probable space group: C M M M
;
_chemical_formula_sum "Si O2"
_cell_formula_units_Z 64
_cell_length_a 9.258210
_cell_length_b 15.449514
_cell_length_c 22.250426
_cell_angle_alpha 90.000000
_cell_angle_beta 90.000000
_cell_angle_gamma 90.000000
_cell_volume 3182.586234
_symmetry_space_group_name_H-M "C M M M"
_symmetry_group_IT_number 65
_symmetry_cell_setting 'orthorhombic'
loop_
_space_group_symop_operation_xyz
x,y,z
-x,-y,z
x,-y,-z
-x,y,-z
-x,-y,-z
x,y,-z
-x,y,z
x,-y,z
1/2+x,1/2+y,z
1/2-x,1/2-y,z
1/2+x,1/2-y,-z
1/2-x,1/2+y,-z
1/2-x,1/2-y,-z
1/2+x,1/2+y,-z
1/2-x,1/2+y,z
1/2+x,1/2-y,z
loop_
_atom_site_type_symbol
_atom_site_label
_atom_site_fract_x
_atom_site_fract_y
_atom_site_fract_z
Si Si1 0.327882 0.334594 0.142294
Si Si2 0.828835 0.000000 0.067282
Si Si3 0.661188 0.603511 0.500000
Si Si4 0.839856 0.397034 0.388475
Si Si5 0.332218 0.101319 0.745497
O O1 0.500000 0.323395 0.142050
O O2 0.250000 0.250000 0.114906
O O3 0.274876 0.414883 0.101921
O O4 0.272390 0.347019 0.210162
O O5 0.000000 0.000000 0.064923
O O6 0.763859 0.000000 0.000000
O O7 0.666799 0.500000 0.500000
O O8 0.500000 0.639125 0.500000
O O9 0.736087 0.640968 0.560078
O O10 0.842133 0.500000 0.390966
O O11 0.789030 0.368618 0.321898
O O12 0.000000 0.361383 0.401341
O O13 0.500000 0.122899 0.758791
O O14 0.303332 0.000000 0.753848
#
# Coordination Sequence:
#
# PCOD8274573 Si02
#       5
#    16   8   8  16  16
#     4  11  22  37  59  87 117 153 193 235 284 336
#     4   9  20  40  63  87 119 156 191 230 279 335
#     4   9  15  21  31  55  92 131 174 228 279 326
#     4   8  14  24  39  60  90 133 178 222 277 336
#     4   9  17  31  52  77 107 143 186 237 288 339
#
# _framework density 20.109431000000001
#
# number of rings (size 3 to 8) (size 9 to 14) (size 15 to 20)
#    0.000    2.750    1.250    2.625    0.000    3.000 
#    0.000    2.500    0.000    5.250    0.000    0.875 
#    0.000    0.000    0.000    0.000    0.000    0.000 
#
# Total GULP energy -396713.560274 kJ/mol
# GULP energy per Si atom -12397.298759 kJ/mol
# Density = 2.006366 g / cm^3
# Si number density = 20.109431 Si / 1000 Ang^3
#
#
#
# Elastic Constant Matrix: (Units=GPa)
#
#
# Indices 1 2 3 4 5 6 
#
# 1 99.4580 42.6608 63.5315 0.0000 0.0000 0.0000
# 2 42.6608 88.8738 52.0461 0.0000 0.0000 0.0000
# 3 63.5315 52.0461 157.3806 0.0000 0.0000 0.0000
# 4 0.0000 0.0000 0.0000 3.9540 0.0000 0.0000
# 5 0.0000 0.0000 0.0000 0.0000 24.7316 0.0000
# 6 0.0000 0.0000 0.0000 0.0000 0.0000 23.1346
#
#
#
# Elastic Compliance Matrix: (Units=1/GPa)
#
#
# Indices 1 2 3 4 5 6 
#
# 1 0.014865 -0.004491 -0.004516 0.000000 0.000000 0.000000
# 2 -0.004491 0.015311 -0.003250 0.000000 0.000000 0.000000
# 3 -0.004516 -0.003250 0.009252 0.000000 0.000000 0.000000
# 4 0.000000 0.000000 0.000000 0.252906 0.000000 0.000000
# 5 0.000000 0.000000 0.000000 0.000000 0.040434 0.000000
# 6 0.000000 0.000000 0.000000 0.000000 0.000000 0.043225
#
#
# Mechanical properties :
#
#
# Convention : Reuss Voigt Hill
#
# Bulk Modulus (GPa) = 67.05135 73.57658 70.31397
# Shear Modulus (GPa) = 12.33107 22.86232 17.59669
#
# Velocity S-wave (km/s) = 2.47897 3.37545 2.96133
# Velocity P-wave (km/s) = 6.45053 7.20132 6.83624
#
# Compressibility (1/GPa) = 0.01491394
#
# Stress axis : x y z
#
# Youngs Moduli (GPa) = 67.27032 65.31129 108.08674
#
# Poissons Ratio (x) = 0.29333 0.48808
# Poissons Ratio (y) = 0.30212 0.35133
# Poissons Ratio (z) = 0.30377 0.21229
#
# Static dielectric constant tensor:
#      x y z
#    x 3.544540 0.000000 0.000000 
#    y 0.000000 3.365430 0.000000 
#    z 0.000000 0.000000 3.862510 
# 
# 
# High freq. dielectric constant tensor:
#      x y z
#    x 1.769720 0.000000 0.000000 
#    y 0.000000 1.760050 0.000000 
#    z 0.000000 0.000000 1.788770 
# 
# From -- ./inp_files/66794.got.cif
#   From: 2010.03.12/outbox.cif.g09.slc.cpg/sg65_34_cif.got.tgz:66794.got - 2010.04.10 20:52:16.
