data_PCOD8274020
_publ_section_title
;
Structure prediction by ZEFSAII (Michael W. Deem and Ramdas Pophale) SiO2 
 PCOD8274020
Probable space group: C M M M
;
_chemical_formula_sum "Si O2"
_cell_formula_units_Z 96
_cell_length_a 25.010889
_cell_length_b 17.276460
_cell_length_c 11.517900
_cell_angle_alpha 90.000000
_cell_angle_beta 90.000000
_cell_angle_gamma 90.000000
_cell_volume 4976.880252
_symmetry_space_group_name_H-M "C M M M"
_symmetry_group_IT_number 65
_symmetry_cell_setting 'orthorhombic'
loop_
_space_group_symop_operation_xyz
x,y,z
-x,-y,z
x,-y,-z
-x,y,-z
-x,-y,-z
x,y,-z
-x,y,z
x,-y,z
1/2+x,1/2+y,z
1/2-x,1/2-y,z
1/2+x,1/2-y,-z
1/2-x,1/2+y,-z
1/2-x,1/2-y,-z
1/2+x,1/2+y,-z
1/2-x,1/2+y,z
1/2+x,1/2-y,z
loop_
_atom_site_type_symbol
_atom_site_label
_atom_site_fract_x
_atom_site_fract_y
_atom_site_fract_z
Si Si1 0.293472 0.910741 0.712327
Si Si2 0.734640 0.339790 0.500000
Si Si3 0.900762 0.151043 0.728539
Si Si4 0.895417 0.322982 0.361113
Si Si5 0.500000 0.085624 0.362902
Si Si6 0.500000 0.589126 0.137174
Si Si7 0.626312 0.585754 0.500000
Si Si8 0.303016 0.410182 0.132478
O O1 0.254871 0.885259 0.610295
O O2 0.346195 0.858705 0.710424
O O3 0.258675 0.897399 0.828860
O O4 0.310396 0.000000 0.697397
O O5 0.750000 0.250000 0.500000
O O6 0.670686 0.346286 0.500000
O O7 0.905271 0.237446 0.682593
O O8 0.908610 0.095864 0.616297
O O9 0.843419 0.139383 0.789367
O O10 0.947503 0.132337 0.817885
O O11 0.884552 0.327009 0.500000
O O12 0.947281 0.370248 0.321861
O O13 0.500000 0.080119 0.500000
O O14 0.500000 0.000000 0.307421
O O15 0.500000 0.500000 0.177104
O O16 0.500000 0.595919 0.000000
O O17 0.651952 0.500000 0.500000
O O18 0.319019 0.500000 0.146318
O O19 0.307830 0.382640 0.000000
#
# Coordination Sequence:
#
# PCOD8274020 Si02
#       8
#    16   8  16  16   8   8   8  16
#     4  11  22  36  60  88 119 163 208 244 290 362
#     4  12  22  34  55  86 125 160 194 247 301 353
#     4  12  23  39  60  88 122 158 193 243 305 359
#     4  11  22  37  58  88 126 158 189 244 306 357
#     4   9  19  36  58  82 114 155 195 229 278 353
#     4  11  25  45  67  87 113 157 210 254 291 348
#     4  12  22  35  56  86 120 159 198 232 290 370
#     4  10  22  40  60  83 117 161 206 252 296 344
#
# _framework density 19.289192
#
# number of rings (size 3 to 8) (size 9 to 14) (size 15 to 20)
#    0.000    1.000    3.333    4.750    0.000    2.333 
#    0.000    3.333    0.000    0.000    0.000    0.000 
#    0.000    7.333    0.000    0.000    0.000    0.000 
#
# Total GULP energy -595284.169277 kJ/mol
# GULP energy per Si atom -12401.753527 kJ/mol
# Density = 1.924529 g / cm^3
# Si number density = 19.289192 Si / 1000 Ang^3
#
#
#
# Elastic Constant Matrix: (Units=GPa)
#
#
# Indices 1 2 3 4 5 6 
#
# 1 115.5627 44.2067 33.0042 0.0000 0.0000 0.0000
# 2 44.2067 120.1719 33.5889 0.0000 0.0000 0.0000
# 3 33.0042 33.5889 93.6659 0.0000 0.0000 0.0000
# 4 0.0000 0.0000 0.0000 41.1221 0.0000 0.0000
# 5 0.0000 0.0000 0.0000 0.0000 29.3542 0.0000
# 6 0.0000 0.0000 0.0000 0.0000 0.0000 31.2707
#
#
#
# Elastic Compliance Matrix: (Units=1/GPa)
#
#
# Indices 1 2 3 4 5 6 
#
# 1 0.010611 -0.003177 -0.002600 0.000000 0.000000 0.000000
# 2 -0.003177 0.010199 -0.002538 0.000000 0.000000 0.000000
# 3 -0.002600 -0.002538 0.012502 0.000000 0.000000 0.000000
# 4 0.000000 0.000000 0.000000 0.024318 0.000000 0.000000
# 5 0.000000 0.000000 0.000000 0.000000 0.034067 0.000000
# 6 0.000000 0.000000 0.000000 0.000000 0.000000 0.031979
#
#
# Mechanical properties :
#
#
# Convention : Reuss Voigt Hill
#
# Bulk Modulus (GPa) = 59.93896 61.22221 60.58059
# Shear Modulus (GPa) = 34.27784 34.92277 34.60031
#
# Velocity S-wave (km/s) = 4.22008 4.25959 4.23988
# Velocity P-wave (km/s) = 7.40856 7.48333 7.44604
#
# Compressibility (1/GPa) = 0.01668364
#
# Stress axis : x y z
#
# Youngs Moduli (GPa) = 94.24189 98.04442 79.98413
#
# Poissons Ratio (x) = 0.31146 0.20794
# Poissons Ratio (y) = 0.29938 0.20302
# Poissons Ratio (z) = 0.24500 0.24886
#
# Static dielectric constant tensor:
#      x y z
#    x 3.581090 0.000000 0.000000 
#    y 0.000000 3.624430 0.000000 
#    z 0.000000 0.000000 3.478470 
# 
# 
# High freq. dielectric constant tensor:
#      x y z
#    x 1.755230 0.000000 0.000000 
#    y 0.000000 1.758420 0.000000 
#    z 0.000000 0.000000 1.735650 
# 
# From -- ./inp_files/30877.got.cif
#   From: 2010.03.12/outbox.cif.g09.slc.cpg/sg65_16_cif.got.tgz:30877.got - 2010.04.10 20:52:16.
