data_PCOD8274266
_publ_section_title
;
Structure prediction by ZEFSAII (Michael W. Deem and Ramdas Pophale) SiO2 
 PCOD8274266
Probable space group: C M M M
;
_chemical_formula_sum "Si O2"
_cell_formula_units_Z 72
_cell_length_a 28.007397
_cell_length_b 16.464090
_cell_length_c 8.972477
_cell_angle_alpha 90.000000
_cell_angle_beta 90.000000
_cell_angle_gamma 90.000000
_cell_volume 4137.355440
_symmetry_space_group_name_H-M "C M M M"
_symmetry_group_IT_number 65
_symmetry_cell_setting 'orthorhombic'
loop_
_space_group_symop_operation_xyz
x,y,z
-x,-y,z
x,-y,-z
-x,y,-z
-x,-y,-z
x,y,-z
-x,y,z
x,-y,z
1/2+x,1/2+y,z
1/2-x,1/2-y,z
1/2+x,1/2-y,-z
1/2-x,1/2+y,-z
1/2-x,1/2-y,-z
1/2+x,1/2+y,-z
1/2-x,1/2+y,z
1/2+x,1/2-y,z
loop_
_atom_site_type_symbol
_atom_site_label
_atom_site_fract_x
_atom_site_fract_y
_atom_site_fract_z
Si Si1 0.689244 0.091488 0.174933
Si Si2 0.054629 0.175789 0.177538
Si Si3 0.717901 0.329103 0.163560
Si Si4 0.139014 0.260049 0.675671
Si Si5 0.443680 0.500000 0.162164
O O1 0.745539 0.100865 0.219168
O O2 0.655973 0.152464 0.266355
O O3 0.673233 0.000000 0.213038
O O4 0.683331 0.111249 0.000000
O O5 0.087035 0.243098 0.256279
O O6 0.069845 0.085590 0.241502
O O7 0.000000 0.195534 0.219902
O O8 0.061530 0.178432 0.000000
O O9 0.750000 0.250000 0.150773
O O10 0.674677 0.313111 0.277002
O O11 0.696394 0.350252 0.000000
O O12 0.135809 0.262916 0.500000
O O13 0.500000 0.500000 0.138583
O O14 0.418901 0.500000 0.000000
#
# Coordination Sequence:
#
# PCOD8274266 Si02
#       5
#    16  16  16  16   8
#     4   9  18  34  55  75  95 125 169 215 251 285
#     4   9  17  32  54  75  96 127 169 212 248 285
#     4   8  15  30  50  69  92 122 161 205 241 280
#     4  11  21  31  47  73 106 138 163 194 244 303
#     4   7  12  26  49  73  91 113 155 207 247 277
#
# _framework density 17.402421
#
# number of rings (size 3 to 8) (size 9 to 14) (size 15 to 20)
#    0.000    3.000    0.000    4.667    0.000    4.889 
#    2.000    0.556    0.000    2.667    0.000    4.667 
#    0.000    0.000    0.000    0.000    0.000    0.000 
#
# Total GULP energy -446004.250855 kJ/mol
# GULP energy per Si atom -12389.006968 kJ/mol
# Density = 1.736281 g / cm^3
# Si number density = 17.402421 Si / 1000 Ang^3
#
#
#
# Elastic Constant Matrix: (Units=GPa)
#
#
# Indices 1 2 3 4 5 6 
#
# 1 102.0133 55.6358 55.3988 0.0000 0.0000 0.0000
# 2 55.6358 91.1416 46.2243 0.0000 0.0000 0.0000
# 3 55.3988 46.2243 85.3366 0.0000 0.0000 0.0000
# 4 0.0000 0.0000 0.0000 10.9856 0.0000 0.0000
# 5 0.0000 0.0000 0.0000 0.0000 2.2873 0.0000
# 6 0.0000 0.0000 0.0000 0.0000 0.0000 23.8474
#
#
#
# Elastic Compliance Matrix: (Units=1/GPa)
#
#
# Indices 1 2 3 4 5 6 
#
# 1 0.017821 -0.006909 -0.007827 0.000000 0.000000 0.000000
# 2 -0.006909 0.017806 -0.005160 0.000000 0.000000 0.000000
# 3 -0.007827 -0.005160 0.019594 0.000000 0.000000 0.000000
# 4 0.000000 0.000000 0.000000 0.091028 0.000000 0.000000
# 5 0.000000 0.000000 0.000000 0.000000 0.437196 0.000000
# 6 0.000000 0.000000 0.000000 0.000000 0.000000 0.041933
#
#
# Mechanical properties :
#
#
# Convention : Reuss Voigt Hill
#
# Bulk Modulus (GPa) = 64.80753 65.88991 65.34872
# Shear Modulus (GPa) = 7.45919 15.50623 11.48271
#
# Velocity S-wave (km/s) = 2.07258 2.98827 2.57151
# Velocity P-wave (km/s) = 6.56116 7.06052 6.81542
#
# Compressibility (1/GPa) = 0.01543031
#
# Stress axis : x y z
#
# Youngs Moduli (GPa) = 56.11368 56.15941 51.03563
#
# Poissons Ratio (x) = 0.38801 0.39943
# Poissons Ratio (y) = 0.38769 0.26334
# Poissons Ratio (z) = 0.43918 0.28978
#
# Static dielectric constant tensor:
#      x y z
#    x 3.220050 0.000000 0.000000 
#    y 0.000000 3.424090 0.000000 
#    z 0.000000 0.000000 2.948960 
# 
# 
# High freq. dielectric constant tensor:
#      x y z
#    x 1.657370 0.000000 0.000000 
#    y 0.000000 1.661600 0.000000 
#    z 0.000000 0.000000 1.644610 
# 
# From -- ./inp_files/18030.got.cif
#   From: 2010.03.12/outbox.cif.g09.slc.cpg/sg65_10_cif.got.tgz:18030.got - 2010.04.10 20:52:16.
