data_PCOD8274330
_publ_section_title
;
Structure prediction by ZEFSAII (Michael W. Deem and Ramdas Pophale) SiO2 
 PCOD8274330
Probable space group: C M M M
;
_chemical_formula_sum "Si O2"
_cell_formula_units_Z 104
_cell_length_a 9.053528
_cell_length_b 29.446430
_cell_length_c 22.869930
_cell_angle_alpha 90.000000
_cell_angle_beta 90.000000
_cell_angle_gamma 90.000000
_cell_volume 6096.987914
_symmetry_space_group_name_H-M "C M M M"
_symmetry_group_IT_number 65
_symmetry_cell_setting 'orthorhombic'
loop_
_space_group_symop_operation_xyz
x,y,z
-x,-y,z
x,-y,-z
-x,y,-z
-x,-y,-z
x,y,-z
-x,y,z
x,-y,z
1/2+x,1/2+y,z
1/2-x,1/2-y,z
1/2+x,1/2-y,-z
1/2-x,1/2+y,-z
1/2-x,1/2-y,-z
1/2+x,1/2+y,-z
1/2-x,1/2+y,z
1/2+x,1/2-y,z
loop_
_atom_site_type_symbol
_atom_site_label
_atom_site_fract_x
_atom_site_fract_y
_atom_site_fract_z
Si Si1 0.325029 0.394521 0.105260
Si Si2 0.825729 0.549568 0.337043
Si Si3 0.827601 0.204700 0.932632
Si Si4 0.336341 0.707558 0.569172
Si Si5 0.674362 0.946718 0.000000
Si Si6 0.674639 0.116907 0.433885
Si Si7 0.328192 0.946802 0.794464
O O1 0.500000 0.399783 0.096640
O O2 0.279548 0.341238 0.101332
O O3 0.243446 0.423983 0.056747
O O4 0.275071 0.414388 0.167274
O O5 0.754331 0.500000 0.345369
O O6 0.759847 0.580605 0.388384
O O7 0.790213 0.567529 0.272072
O O8 0.000000 0.546130 0.344726
O O9 0.750000 0.250000 0.906613
O O10 0.000000 0.213084 0.926134
O O11 0.781085 0.197708 0.000000
O O12 0.347006 0.713106 0.500000
O O13 0.500000 0.705044 0.596466
O O14 0.250000 0.750000 0.596948
O O15 0.245536 0.663541 0.586522
O O16 0.500000 0.938464 0.000000
O O17 0.712332 0.000000 0.000000
O O18 0.721204 0.103325 0.500000
O O19 0.500000 0.122262 0.429275
O O20 0.500000 0.937876 0.809014
O O21 0.292080 0.000000 0.805078
#
# Coordination Sequence:
#
# PCOD8274330 Si02
#       7
#    16  16  16  16   8  16  16
#     4  11  21  34  51  74 102 128 158 200 247 286
#     4   8  15  29  48  69  95 127 162 201 240 280
#     4   9  18  33  50  71  98 126 157 193 235 283
#     4   9  16  26  41  62  90 122 153 187 231 283
#     4  11  23  35  48  71 102 133 164 195 232 285
#     4   9  16  26  44  71  98 123 156 198 244 293
#     4   9  18  33  51  70  94 128 169 203 234 284
#
# _framework density 17.057604000000001
#
# number of rings (size 3 to 8) (size 9 to 14) (size 15 to 20)
#    0.000    2.692    0.769    2.538    0.000    6.154 
#    0.000    2.308    0.000    2.308    0.000    4.308 
#    0.000    0.000    0.000    0.000    0.000    0.000 
#
# Total GULP energy -644582.391861 kJ/mol
# GULP energy per Si atom -12395.815228 kJ/mol
# Density = 1.701878 g / cm^3
# Si number density = 17.057604 Si / 1000 Ang^3
#
#
#
# Elastic Constant Matrix: (Units=GPa)
#
#
# Indices 1 2 3 4 5 6 
#
# 1 53.1407 52.2767 33.4751 0.0000 0.0000 0.0000
# 2 52.2767 143.9887 73.2105 0.0000 0.0000 0.0000
# 3 33.4751 73.2105 91.6089 0.0000 0.0000 0.0000
# 4 0.0000 0.0000 0.0000 7.2891 0.0000 0.0000
# 5 0.0000 0.0000 0.0000 0.0000 13.2021 0.0000
# 6 0.0000 0.0000 0.0000 0.0000 0.0000 27.0510
#
#
#
# Elastic Compliance Matrix: (Units=1/GPa)
#
#
# Indices 1 2 3 4 5 6 
#
# 1 0.030042 -0.008970 -0.003809 0.000000 0.000000 0.000000
# 2 -0.008970 0.014377 -0.008212 0.000000 0.000000 0.000000
# 3 -0.003809 -0.008212 0.018870 0.000000 0.000000 0.000000
# 4 0.000000 0.000000 0.000000 0.137191 0.000000 0.000000
# 5 0.000000 0.000000 0.000000 0.000000 0.075745 0.000000
# 6 0.000000 0.000000 0.000000 0.000000 0.000000 0.036967
#
#
# Mechanical properties :
#
#
# Convention : Reuss Voigt Hill
#
# Bulk Modulus (GPa) = 46.93247 67.40699 57.16973
# Shear Modulus (GPa) = 13.80160 18.16017 15.98088
#
# Velocity S-wave (km/s) = 2.84758 3.26642 3.06417
# Velocity P-wave (km/s) = 6.19560 7.33683 6.79023
#
# Compressibility (1/GPa) = 0.02130721
#
# Stress axis : x y z
#
# Youngs Moduli (GPa) = 33.28687 69.55551 52.99345
#
# Poissons Ratio (x) = 0.62394 0.20184
# Poissons Ratio (y) = 0.29860 0.43516
# Poissons Ratio (z) = 0.12678 0.57117
#
# Static dielectric constant tensor:
#      x y z
#    x 3.090870 0.000000 0.000000 
#    y 0.000000 3.474530 0.000000 
#    z 0.000000 0.000000 3.115820 
# 
# 
# High freq. dielectric constant tensor:
#      x y z
#    x 1.646990 0.000000 0.000000 
#    y 0.000000 1.664450 0.000000 
#    z 0.000000 0.000000 1.631530 
# 
# From -- ./inp_files/60862.got.cif
#   From: 2010.03.12/outbox.cif.g09.slc.cpg/sg65_31_cif.got.tgz:60862.got - 2010.04.10 20:52:16.
