data_PCOD8274745
_publ_section_title
;
Structure prediction by ZEFSAII (Michael W. Deem and Ramdas Pophale) SiO2 
 PCOD8274745
Probable space group: C M M M
;
_chemical_formula_sum "Si O2"
_cell_formula_units_Z 72
_cell_length_a 9.228272
_cell_length_b 15.270248
_cell_length_c 24.529859
_cell_angle_alpha 90.000000
_cell_angle_beta 90.000000
_cell_angle_gamma 90.000000
_cell_volume 3456.698721
_symmetry_space_group_name_H-M "C M M M"
_symmetry_group_IT_number 65
_symmetry_cell_setting 'orthorhombic'
loop_
_space_group_symop_operation_xyz
x,y,z
-x,-y,z
x,-y,-z
-x,y,-z
-x,-y,-z
x,y,-z
-x,y,z
x,-y,z
1/2+x,1/2+y,z
1/2-x,1/2-y,z
1/2+x,1/2-y,-z
1/2-x,1/2+y,-z
1/2-x,1/2-y,-z
1/2+x,1/2+y,-z
1/2-x,1/2+y,z
1/2+x,1/2-y,z
loop_
_atom_site_type_symbol
_atom_site_label
_atom_site_fract_x
_atom_site_fract_y
_atom_site_fract_z
Si Si1 0.337296 0.104581 0.838076
Si Si2 0.337127 0.604188 0.940093
Si Si3 0.670746 0.337393 0.615591
Si Si4 0.333858 0.000000 0.564519
Si Si5 0.834206 0.100012 0.734452
O O1 0.500000 0.139585 0.836925
O O2 0.263185 0.143856 0.892491
O O3 0.259145 0.140241 0.783809
O O4 0.329015 0.000000 0.838827
O O5 0.500000 0.638344 0.930890
O O6 0.334925 0.500000 0.937127
O O7 0.280352 0.634329 0.000000
O O8 0.500000 0.335876 0.601040
O O9 0.750000 0.250000 0.594974
O O10 0.747542 0.416084 0.584914
O O11 0.694695 0.344715 0.680325
O O12 0.500000 0.000000 0.586603
O O13 0.334029 0.000000 0.500000
O O14 0.000000 0.104631 0.753119
O O15 0.789029 0.000000 0.721821
#
# Coordination Sequence:
#
# PCOD8274745 Si02
#       5
#    16  16  16   8  16
#     4   9  16  23  35  60  90 125 172 225 284 342
#     4   8  13  21  32  47  74 118 169 219 275 339
#     4  11  23  41  65  95 127 164 207 253 305 359
#     4  11  25  45  69  97 129 167 208 251 300 353
#     4   9  17  32  52  74 105 145 189 234 287 351
#
# _framework density 20.829122000000002
#
# number of rings (size 3 to 8) (size 9 to 14) (size 15 to 20)
#    0.000    2.556    1.111    2.333    0.000    6.222 
#    0.000    2.222    0.000    0.000    0.000    0.000 
#    0.000    0.889    0.000    2.889    0.000    5.778 
#
# Total GULP energy -446346.050430 kJ/mol
# GULP energy per Si atom -12398.501401 kJ/mol
# Density = 2.078171 g / cm^3
# Si number density = 20.829122 Si / 1000 Ang^3
#
#
#
# Elastic Constant Matrix: (Units=GPa)
#
#
# Indices 1 2 3 4 5 6 
#
# 1 158.0247 52.1197 74.0296 0.0000 0.0000 0.0000
# 2 52.1197 80.5974 29.5081 0.0000 0.0000 0.0000
# 3 74.0296 29.5081 102.2151 0.0000 0.0000 0.0000
# 4 0.0000 0.0000 0.0000 -41.8729 0.0000 0.0000
# 5 0.0000 0.0000 0.0000 0.0000 35.2460 0.0000
# 6 0.0000 0.0000 0.0000 0.0000 0.0000 19.7201
#
#
#
# Elastic Compliance Matrix: (Units=1/GPa)
#
#
# Indices 1 2 3 4 5 6 
#
# 1 0.010954 -0.004673 -0.006584 0.000000 0.000000 0.000000
# 2 -0.004673 0.015867 -0.001196 0.000000 0.000000 0.000000
# 3 -0.006584 -0.001196 0.014897 0.000000 0.000000 0.000000
# 4 0.000000 0.000000 0.000000 -0.023882 0.000000 0.000000
# 5 0.000000 0.000000 0.000000 0.000000 0.028372 0.000000
# 6 0.000000 0.000000 0.000000 0.000000 0.000000 0.050710
#
#
# Mechanical properties :
#
#
# Convention : Reuss Voigt Hill
#
# Bulk Modulus (GPa) = 59.48369 72.46133 65.97251
# Shear Modulus (GPa) = 39.23741 14.96395 27.10068
#
# Velocity S-wave (km/s) = 4.34496 2.68323 3.61098
# Velocity P-wave (km/s) = 7.33427 6.66811 7.00911
#
# Compressibility (1/GPa) = 0.01681133
#
# Stress axis : x y z
#
# Youngs Moduli (GPa) = 91.29143 63.02335 67.12564
#
# Poissons Ratio (x) = 0.29450 0.44198
# Poissons Ratio (y) = 0.42659 0.08030
# Poissons Ratio (z) = 0.60110 0.07539
#
# Static dielectric constant tensor:
#      x y z
#    x 3.906330 0.000000 0.000000 
#    y 0.000000 3.323670 0.000000 
#    z 0.000000 0.000000 3.904500 
# 
# 
# High freq. dielectric constant tensor:
#      x y z
#    x 1.818310 0.000000 0.000000 
#    y 0.000000 1.779980 0.000000 
#    z 0.000000 0.000000 1.821510 
# 
# From -- ./inp_files/67072.got.cif
#   From: 2010.03.12/outbox.cif.g09.slc.cpg/sg65_34_cif.got.tgz:67072.got - 2010.04.10 20:52:16.
