data_PCOD8274329
_publ_section_title
;
Structure prediction by ZEFSAII (Michael W. Deem and Ramdas Pophale) SiO2 
 PCOD8274329
Probable space group: C M M M
;
_chemical_formula_sum "Si O2"
_cell_formula_units_Z 104
_cell_length_a 22.444065
_cell_length_b 33.372054
_cell_length_c 7.703603
_cell_angle_alpha 90.000000
_cell_angle_beta 90.000000
_cell_angle_gamma 90.000000
_cell_volume 5770.033692
_symmetry_space_group_name_H-M "C M M M"
_symmetry_group_IT_number 65
_symmetry_cell_setting 'orthorhombic'
loop_
_space_group_symop_operation_xyz
x,y,z
-x,-y,z
x,-y,-z
-x,y,-z
-x,-y,-z
x,y,-z
-x,y,z
x,-y,z
1/2+x,1/2+y,z
1/2-x,1/2-y,z
1/2+x,1/2-y,-z
1/2-x,1/2+y,-z
1/2-x,1/2-y,-z
1/2+x,1/2+y,-z
1/2-x,1/2+y,z
1/2+x,1/2-y,z
loop_
_atom_site_type_symbol
_atom_site_label
_atom_site_fract_x
_atom_site_fract_y
_atom_site_fract_z
Si Si1 0.346065 0.455682 0.793677
Si Si2 0.000000 0.543951 0.294898
Si Si3 0.893626 0.599091 0.697817
Si Si4 0.929179 0.746520 0.000000
Si Si5 0.567171 0.612361 0.793799
Si Si6 0.211650 0.545498 0.204421
Si Si7 0.071494 0.345149 0.000000
Si Si8 0.929302 0.800722 0.692186
O O1 0.364237 0.500000 0.725884
O O2 0.391641 0.423028 0.716450
O O3 0.278955 0.445565 0.733671
O O4 0.348417 0.455412 0.000000
O O5 0.058395 0.567180 0.231927
O O6 0.000000 0.500000 0.208258
O O7 0.000000 0.540026 0.500000
O O8 0.907093 0.613237 0.500000
O O9 0.829632 0.577796 0.700472
O O10 0.898781 0.636722 0.826432
O O11 0.903092 0.768980 0.829926
O O12 0.908173 0.700887 0.000000
O O13 0.000000 0.748722 0.000000
O O14 0.500000 0.605807 0.723745
O O15 0.594337 0.654496 0.729339
O O16 0.567538 0.612192 0.000000
O O17 0.193882 0.500000 0.257284
O O18 0.204862 0.551223 0.000000
O O19 0.000000 0.350357 0.000000
O O20 0.909282 0.787083 0.500000
O O21 0.000000 0.801921 0.710356
#
# Coordination Sequence:
#
# PCOD8274329 Si02
#       8
#    16   8  16   8  16  16   8  16
#     4   8  15  27  44  71 104 138 177 215 249 292
#     4   9  18  31  47  69  98 129 163 202 243 293
#     4  11  21  34  51  73 101 132 168 209 255 299
#     4   9  18  32  50  71  99 129 162 197 241 310
#     4   9  15  25  45  72 106 140 170 208 252 296
#     4   9  17  31  50  69  94 132 178 220 252 286
#     4  11  22  36  52  75 104 134 162 197 255 316
#     4   9  16  28  47  72  99 128 164 204 246 292
#
# _framework density 18.024158
#
# number of rings (size 3 to 8) (size 9 to 14) (size 15 to 20)
#    0.000    2.692    2.308    1.385    0.000    1.846 
#    0.000    4.231    0.000    1.385    0.000    4.308 
#    0.000    2.462    0.000    0.000    0.000    0.000 
#
# Total GULP energy -644608.799746 kJ/mol
# GULP energy per Si atom -12396.323072 kJ/mol
# Density = 1.798313 g / cm^3
# Si number density = 18.024158 Si / 1000 Ang^3
#
#
#
# Elastic Constant Matrix: (Units=GPa)
#
#
# Indices 1 2 3 4 5 6 
#
# 1 69.0714 57.0214 21.8945 0.0000 0.0000 0.0000
# 2 57.0214 157.1345 58.3120 0.0000 0.0000 0.0000
# 3 21.8945 58.3120 83.9556 0.0000 0.0000 0.0000
# 4 0.0000 0.0000 0.0000 5.6736 0.0000 0.0000
# 5 0.0000 0.0000 0.0000 0.0000 8.5190 0.0000
# 6 0.0000 0.0000 0.0000 0.0000 0.0000 16.3010
#
#
#
# Elastic Compliance Matrix: (Units=1/GPa)
#
#
# Indices 1 2 3 4 5 6 
#
# 1 0.020674 -0.007412 -0.000244 0.000000 0.000000 0.000000
# 2 -0.007412 0.011231 -0.005868 0.000000 0.000000 0.000000
# 3 -0.000244 -0.005868 0.016050 0.000000 0.000000 0.000000
# 4 0.000000 0.000000 0.000000 0.176254 0.000000 0.000000
# 5 0.000000 0.000000 0.000000 0.000000 0.117385 0.000000
# 6 0.000000 0.000000 0.000000 0.000000 0.000000 0.061346
#
#
# Mechanical properties :
#
#
# Convention : Reuss Voigt Hill
#
# Bulk Modulus (GPa) = 47.82689 64.95750 56.39220
# Shear Modulus (GPa) = 11.44282 17.62764 14.53523
#
# Velocity S-wave (km/s) = 2.52238 3.13069 2.84285
# Velocity P-wave (km/s) = 5.92247 7.01325 6.49081
#
# Compressibility (1/GPa) = 0.02090874
#
# Stress axis : x y z
#
# Youngs Moduli (GPa) = 48.37069 89.03884 62.30515
#
# Poissons Ratio (x) = 0.65993 0.01517
# Poissons Ratio (y) = 0.35851 0.36559
# Poissons Ratio (z) = 0.01178 0.52246
#
# Static dielectric constant tensor:
#      x y z
#    x 3.183330 0.000000 0.000000 
#    y 0.000000 3.439600 0.000000 
#    z 0.000000 0.000000 3.207290 
# 
# 
# High freq. dielectric constant tensor:
#      x y z
#    x 1.660010 0.000000 0.000000 
#    y 0.000000 1.688060 0.000000 
#    z 0.000000 0.000000 1.694770 
# 
# From -- ./inp_files/15092.got.cif
#   From: 2010.03.12/outbox.cif.g09.slc.cpg/sg65_8_cif.got.tgz:15092.got - 2010.04.10 20:52:16.
