data_PCOD8274128
_publ_section_title
;
Structure prediction by ZEFSAII (Michael W. Deem and Ramdas Pophale) SiO2 
 PCOD8274128
Probable space group: C M M M
;
_chemical_formula_sum "Si O2"
_cell_formula_units_Z 112
_cell_length_a 14.799496
_cell_length_b 14.472213
_cell_length_c 26.223118
_cell_angle_alpha 90.000000
_cell_angle_beta 90.000000
_cell_angle_gamma 90.000000
_cell_volume 5616.505657
_symmetry_space_group_name_H-M "C M M M"
_symmetry_group_IT_number 65
_symmetry_cell_setting 'orthorhombic'
loop_
_space_group_symop_operation_xyz
x,y,z
-x,-y,z
x,-y,-z
-x,y,-z
-x,-y,-z
x,y,-z
-x,y,z
x,-y,z
1/2+x,1/2+y,z
1/2-x,1/2-y,z
1/2+x,1/2-y,-z
1/2-x,1/2+y,-z
1/2-x,1/2-y,-z
1/2+x,1/2+y,-z
1/2-x,1/2+y,z
1/2+x,1/2-y,z
loop_
_atom_site_type_symbol
_atom_site_label
_atom_site_fract_x
_atom_site_fract_y
_atom_site_fract_z
Si Si1 0.403056 0.100490 0.767185
Si Si2 0.393270 0.896625 0.057786
Si Si3 0.149338 0.734435 0.853541
Si Si4 0.106154 0.266053 0.440425
Si Si5 0.266632 0.394968 0.593453
Si Si6 0.234681 0.853393 0.704604
Si Si7 0.898517 0.102037 0.794827
O O1 0.500000 0.115473 0.739880
O O2 0.399469 0.169785 0.813759
O O3 0.328015 0.107032 0.724749
O O4 0.397070 0.000000 0.793003
O O5 0.500000 0.891885 0.061925
O O6 0.353073 0.812296 0.090896
O O7 0.360616 0.000000 0.074785
O O8 0.361358 0.878589 0.000000
O O9 0.250000 0.750000 0.834990
O O10 0.105148 0.836087 0.846754
O O11 0.108012 0.287276 0.500000
O O12 0.168177 0.345629 0.413890
O O13 0.152463 0.165611 0.431258
O O14 0.000000 0.267384 0.421339
O O15 0.265221 0.500000 0.570537
O O16 0.290452 0.407483 0.653452
O O17 0.250000 0.750000 0.686857
O O18 0.158651 0.857129 0.748161
O O19 0.000000 0.097323 0.774559
O O20 0.862344 0.000000 0.809234
#
# Coordination Sequence:
#
# PCOD8274128 Si02
#       7
#    16  16  16  16  16  16  16
#     4  11  22  36  57  84 115 149 189 240 293 346
#     4   9  19  37  60  85 112 141 180 237 299 354
#     4  12  22  34  56  82 111 151 188 238 285 342
#     4  10  23  43  65  93 128 161 201 256 311 365
#     4  11  23  41  66  92 124 164 207 253 307 369
#     4  12  22  40  60  85 119 159 195 243 297 349
#     4  11  23  38  56  79 114 158 200 239 279 334
#
# _framework density 19.941224999999999
#
# number of rings (size 3 to 8) (size 9 to 14) (size 15 to 20)
#    0.000    1.143    4.286    4.286    0.000    4.857 
#    0.000    1.429    0.000    0.429    0.000    2.000 
#    0.000    0.000    0.000    0.000    0.000    0.000 
#
# Total GULP energy -693900.269903 kJ/mol
# GULP energy per Si atom -12391.076248 kJ/mol
# Density = 1.989584 g / cm^3
# Si number density = 19.941225 Si / 1000 Ang^3
#
#
#
# Elastic Constant Matrix: (Units=GPa)
#
#
# Indices 1 2 3 4 5 6 
#
# 1 113.5133 30.8813 16.8890 0.0000 0.0000 0.0000
# 2 30.8813 137.7639 33.7832 0.0000 0.0000 0.0000
# 3 16.8890 33.7832 85.9018 0.0000 0.0000 0.0000
# 4 0.0000 0.0000 0.0000 18.3520 0.0000 0.0000
# 5 0.0000 0.0000 0.0000 0.0000 23.7048 0.0000
# 6 0.0000 0.0000 0.0000 0.0000 0.0000 22.5736
#
#
#
# Elastic Compliance Matrix: (Units=1/GPa)
#
#
# Indices 1 2 3 4 5 6 
#
# 1 0.009481 -0.001846 -0.001138 0.000000 0.000000 0.000000
# 2 -0.001846 0.008393 -0.002938 0.000000 0.000000 0.000000
# 3 -0.001138 -0.002938 0.013020 0.000000 0.000000 0.000000
# 4 0.000000 0.000000 0.000000 0.054490 0.000000 0.000000
# 5 0.000000 0.000000 0.000000 0.000000 0.042186 0.000000
# 6 0.000000 0.000000 0.000000 0.000000 0.000000 0.044300
#
#
# Mechanical properties :
#
#
# Convention : Reuss Voigt Hill
#
# Bulk Modulus (GPa) = 52.49227 55.58736 54.03982
# Shear Modulus (GPa) = 26.30692 29.96775 28.13733
#
# Velocity S-wave (km/s) = 3.63605 3.88081 3.76042
# Velocity P-wave (km/s) = 6.63389 6.92943 6.78327
#
# Compressibility (1/GPa) = 0.01905043
#
# Stress axis : x y z
#
# Youngs Moduli (GPa) = 105.47268 119.14581 76.80305
#
# Poissons Ratio (x) = 0.21997 0.08740
# Poissons Ratio (y) = 0.19473 0.22563
# Poissons Ratio (z) = 0.12003 0.35003
#
# Static dielectric constant tensor:
#      x y z
#    x 3.768940 0.000000 0.000000 
#    y 0.000000 3.032070 0.000000 
#    z 0.000000 0.000000 3.540450 
# 
# 
# High freq. dielectric constant tensor:
#      x y z
#    x 1.778380 0.000000 0.000000 
#    y 0.000000 1.793120 0.000000 
#    z 0.000000 0.000000 1.757620 
# 
# From -- ./inp_files/70038.got.cif
#   From: 2010.03.12/outbox.cif.g09.slc.cpg/sg65_36_cif.got.tgz:70038.got - 2010.04.10 20:52:16.
