data_PCOD8274756
_publ_section_title
;
Structure prediction by ZEFSAII (Michael W. Deem and Ramdas Pophale) SiO2 
 PCOD8274756
Probable space group: C M M M
;
_chemical_formula_sum "Si O2"
_cell_formula_units_Z 48
_cell_length_a 7.600243
_cell_length_b 18.005770
_cell_length_c 17.344870
_cell_angle_alpha 90.000000
_cell_angle_beta 90.000000
_cell_angle_gamma 90.000000
_cell_volume 2373.614714
_symmetry_space_group_name_H-M "C M M M"
_symmetry_group_IT_number 65
_symmetry_cell_setting 'orthorhombic'
loop_
_space_group_symop_operation_xyz
x,y,z
-x,-y,z
x,-y,-z
-x,y,-z
-x,-y,-z
x,y,-z
-x,y,z
x,-y,z
1/2+x,1/2+y,z
1/2-x,1/2-y,z
1/2+x,1/2-y,-z
1/2-x,1/2+y,-z
1/2-x,1/2-y,-z
1/2+x,1/2+y,-z
1/2-x,1/2+y,z
1/2+x,1/2-y,z
loop_
_atom_site_type_symbol
_atom_site_label
_atom_site_fract_x
_atom_site_fract_y
_atom_site_fract_z
Si Si1 0.205697 0.917193 0.500000
Si Si2 0.202469 0.417515 0.663271
Si Si3 0.500000 0.414295 0.909256
Si Si4 0.292358 0.164006 0.186114
O O1 0.268321 0.878099 0.420495
O O2 0.000000 0.919446 0.500000
O O3 0.288934 0.000000 0.500000
O O4 0.292449 0.500000 0.664547
O O5 0.277854 0.365845 0.730995
O O6 0.000000 0.427311 0.680222
O O7 0.500000 0.500000 0.884764
O O8 0.679360 0.377307 0.878657
O O9 0.500000 0.403403 0.000000
O O10 0.500000 0.149322 0.171921
O O11 0.250000 0.250000 0.182390
#
# Coordination Sequence:
#
# PCOD8274756 Si02
#       4
#     8  16   8  16
#     4   9  17  27  46  81 116 155 204 255 306 360
#     4   9  18  33  55  81 116 160 208 258 307 362
#     4  11  26  46  70  99 128 162 207 261 318 378
#     4  11  23  42  65  95 129 170 211 258 315 381
#
# _framework density 20.222321000000001
#
# number of rings (size 3 to 8) (size 9 to 14) (size 15 to 20)
#    0.000    2.000    1.667    1.500    2.333    5.333 
#    0.000    2.500    0.000    0.000    0.000    0.000 
#    0.000    0.000    0.000    0.000    0.000    0.000 
#
# Total GULP energy -297449.701782 kJ/mol
# GULP energy per Si atom -12393.737574 kJ/mol
# Density = 2.017629 g / cm^3
# Si number density = 20.222321 Si / 1000 Ang^3
#
#
#
# Elastic Constant Matrix: (Units=GPa)
#
#
# Indices 1 2 3 4 5 6 
#
# 1 97.7169 39.5263 45.8047 0.0000 0.0000 0.0000
# 2 39.5263 122.5145 75.6868 0.0000 0.0000 0.0000
# 3 45.8047 75.6868 141.8037 0.0000 0.0000 0.0000
# 4 0.0000 0.0000 0.0000 8.4576 0.0000 0.0000
# 5 0.0000 0.0000 0.0000 0.0000 16.9513 0.0000
# 6 0.0000 0.0000 0.0000 0.0000 0.0000 3.4119
#
#
#
# Elastic Compliance Matrix: (Units=1/GPa)
#
#
# Indices 1 2 3 4 5 6 
#
# 1 0.012476 -0.002291 -0.002807 0.000000 0.000000 0.000000
# 2 -0.002291 0.012598 -0.005984 0.000000 0.000000 0.000000
# 3 -0.002807 -0.005984 0.011153 0.000000 0.000000 0.000000
# 4 0.000000 0.000000 0.000000 0.118237 0.000000 0.000000
# 5 0.000000 0.000000 0.000000 0.000000 0.058992 0.000000
# 6 0.000000 0.000000 0.000000 0.000000 0.000000 0.293089
#
#
# Mechanical properties :
#
#
# Convention : Reuss Voigt Hill
#
# Bulk Modulus (GPa) = 71.11080 76.00782 73.55931
# Shear Modulus (GPa) = 9.37385 19.16532 14.26958
#
# Velocity S-wave (km/s) = 2.15533 3.08186 2.65926
# Velocity P-wave (km/s) = 6.43699 7.09447 6.77371
#
# Compressibility (1/GPa) = 0.01406256
#
# Stress axis : x y z
#
# Youngs Moduli (GPa) = 80.15262 79.37534 89.66298
#
# Poissons Ratio (x) = 0.18184 0.25171
# Poissons Ratio (y) = 0.18362 0.53657
# Poissons Ratio (z) = 0.22501 0.47501
#
# Static dielectric constant tensor:
#      x y z
#    x 3.674920 0.000000 0.000000 
#    y 0.000000 3.688520 0.000000 
#    z 0.000000 0.000000 4.005940 
# 
# 
# High freq. dielectric constant tensor:
#      x y z
#    x 1.793620 0.000000 0.000000 
#    y 0.000000 1.760810 0.000000 
#    z 0.000000 0.000000 1.800670 
# 
# From -- ./inp_files/35078.got.cif
#   From: 2010.03.12/outbox.cif.g09.slc.cpg/sg65_18_cif.got.tgz:35078.got - 2010.04.10 20:52:16.
