data_PCOD8274710
_publ_section_title
;
Structure prediction by ZEFSAII (Michael W. Deem and Ramdas Pophale) SiO2 
 PCOD8274710
Probable space group: C M M M
;
_chemical_formula_sum "Si O2"
_cell_formula_units_Z 80
_cell_length_a 18.415149
_cell_length_b 8.903189
_cell_length_c 26.168783
_cell_angle_alpha 90.000000
_cell_angle_beta 90.000000
_cell_angle_gamma 90.000000
_cell_volume 4290.464925
_symmetry_space_group_name_H-M "C M M M"
_symmetry_group_IT_number 65
_symmetry_cell_setting 'orthorhombic'
loop_
_space_group_symop_operation_xyz
x,y,z
-x,-y,z
x,-y,-z
-x,y,-z
-x,-y,-z
x,y,-z
-x,y,z
x,-y,z
1/2+x,1/2+y,z
1/2-x,1/2-y,z
1/2+x,1/2-y,-z
1/2-x,1/2+y,-z
1/2-x,1/2-y,-z
1/2+x,1/2+y,-z
1/2-x,1/2+y,z
1/2+x,1/2-y,z
loop_
_atom_site_type_symbol
_atom_site_label
_atom_site_fract_x
_atom_site_fract_y
_atom_site_fract_z
Si Si1 0.171818 0.677294 0.890157
Si Si2 0.414286 0.175971 0.500000
Si Si3 0.582697 0.676245 0.691803
Si Si4 0.082497 0.322707 0.205303
Si Si5 0.173116 0.674594 0.000000
Si Si6 0.829130 0.178548 0.407849
O O1 0.180215 0.500000 0.884018
O O2 0.250000 0.750000 0.885781
O O3 0.123209 0.742504 0.844395
O O4 0.134270 0.717168 0.945838
O O5 0.500000 0.204661 0.500000
O O6 0.380716 0.253937 0.549280
O O7 0.395325 0.000000 0.500000
O O8 0.500000 0.731005 0.680668
O O9 0.584221 0.500000 0.700223
O O10 0.614860 0.752908 0.742793
O O11 0.634831 0.724776 0.645772
O O12 0.090149 0.500000 0.208995
O O13 0.000000 0.270276 0.199327
O O14 0.250000 0.750000 0.000000
O O15 0.188701 0.500000 0.000000
O O16 0.750000 0.250000 0.411934
O O17 0.823682 0.000000 0.414738
#
# Coordination Sequence:
#
# PCOD8274710 Si02
#       6
#    16   8  16  16   8  16
#     4   9  17  29  46  68  93 123 161 202 246 296
#     4  11  24  41  62  87 113 143 180 217 256 307
#     4   9  19  36  56  76  99 133 175 212 250 301
#     4   9  18  32  49  70  98 130 163 203 251 301
#     4   8  14  26  43  63  89 121 157 198 242 292
#     4  11  23  39  59  83 113 144 176 217 262 306
#
# _framework density 18.645999
#
# number of rings (size 3 to 8) (size 9 to 14) (size 15 to 20)
#    0.000    2.500    0.000    1.800    0.000    4.800 
#    0.000    6.500    0.000    3.000    0.000    0.000 
#    0.000   11.200    0.000    0.000    0.000    0.000 
#
# Total GULP energy -495747.334867 kJ/mol
# GULP energy per Si atom -12393.683372 kJ/mol
# Density = 1.860356 g / cm^3
# Si number density = 18.645999 Si / 1000 Ang^3
#
#
#
# Elastic Constant Matrix: (Units=GPa)
#
#
# Indices 1 2 3 4 5 6 
#
# 1 87.1139 34.4254 78.6215 0.0000 0.0000 0.0000
# 2 34.4254 45.2461 55.2550 0.0000 0.0000 0.0000
# 3 78.6215 55.2550 205.8689 0.0000 0.0000 0.0000
# 4 0.0000 0.0000 0.0000 27.2731 0.0000 0.0000
# 5 0.0000 0.0000 0.0000 0.0000 32.2515 0.0000
# 6 0.0000 0.0000 0.0000 0.0000 0.0000 22.6846
#
#
#
# Elastic Compliance Matrix: (Units=1/GPa)
#
#
# Indices 1 2 3 4 5 6 
#
# 1 0.019511 -0.008547 -0.005157 0.000000 0.000000 0.000000
# 2 -0.008547 0.036622 -0.006565 0.000000 0.000000 0.000000
# 3 -0.005157 -0.006565 0.008589 0.000000 0.000000 0.000000
# 4 0.000000 0.000000 0.000000 0.036666 0.000000 0.000000
# 5 0.000000 0.000000 0.000000 0.000000 0.031006 0.000000
# 6 0.000000 0.000000 0.000000 0.000000 0.000000 0.044083
#
#
# Mechanical properties :
#
#
# Convention : Reuss Voigt Hill
#
# Bulk Modulus (GPa) = 41.35094 74.98143 58.16618
# Shear Modulus (GPa) = 22.21455 27.77029 24.99242
#
# Velocity S-wave (km/s) = 3.45539 3.86339 3.66507
# Velocity P-wave (km/s) = 6.17613 7.75896 7.01235
#
# Compressibility (1/GPa) = 0.02418325
#
# Stress axis : x y z
#
# Youngs Moduli (GPa) = 51.25195 27.30627 116.42566
#
# Poissons Ratio (x) = 0.23338 0.60046
# Poissons Ratio (y) = 0.43805 0.76435
# Poissons Ratio (z) = 0.26433 0.17927
#
# Static dielectric constant tensor:
#      x y z
#    x 3.335910 0.000000 0.000000 
#    y 0.000000 3.858660 0.000000 
#    z 0.000000 0.000000 4.081520 
# 
# 
# High freq. dielectric constant tensor:
#      x y z
#    x 1.703090 0.000000 0.000000 
#    y 0.000000 1.719210 0.000000 
#    z 0.000000 0.000000 1.750890 
# 
# From -- ./inp_files/75070.got.cif
#   From: 2010.03.12/outbox.cif.g09.slc.cpg/sg65_38_cif.got.tgz:75070.got - 2010.04.10 20:52:16.
