data_PCOD8274174
_publ_section_title
;
Structure prediction by ZEFSAII (Michael W. Deem and Ramdas Pophale) SiO2 
 PCOD8274174
Probable space group: C M M M
;
_chemical_formula_sum "Si O2"
_cell_formula_units_Z 56
_cell_length_a 15.374823
_cell_length_b 18.818374
_cell_length_c 13.253602
_cell_angle_alpha 90.000000
_cell_angle_beta 90.000000
_cell_angle_gamma 90.000000
_cell_volume 3834.653658
_symmetry_space_group_name_H-M "C M M M"
_symmetry_group_IT_number 65
_symmetry_cell_setting 'orthorhombic'
loop_
_space_group_symop_operation_xyz
x,y,z
-x,-y,z
x,-y,-z
-x,y,-z
-x,-y,-z
x,y,-z
-x,y,z
x,-y,z
1/2+x,1/2+y,z
1/2-x,1/2-y,z
1/2+x,1/2-y,-z
1/2-x,1/2+y,-z
1/2-x,1/2-y,-z
1/2+x,1/2+y,-z
1/2-x,1/2+y,z
1/2+x,1/2-y,z
loop_
_atom_site_type_symbol
_atom_site_label
_atom_site_fract_x
_atom_site_fract_y
_atom_site_fract_z
Si Si1 0.847281 0.578756 0.794979
Si Si2 0.000000 0.328854 0.119342
Si Si3 0.333985 0.417661 0.882976
Si Si4 0.603512 0.000000 0.613342
Si Si5 0.500000 0.332555 0.880252
O O1 0.861650 0.500000 0.845164
O O2 0.750213 0.605406 0.818570
O O3 0.862255 0.570123 0.673746
O O4 0.913910 0.634244 0.840268
O O5 0.000000 0.248101 0.158549
O O6 0.000000 0.332302 0.000000
O O7 0.357344 0.500000 0.867483
O O8 0.414015 0.371972 0.839520
O O9 0.315205 0.400645 0.000000
O O10 0.500000 0.000000 0.612971
O O11 0.641149 0.000000 0.500000
O O12 0.500000 0.337568 0.000000
#
# Coordination Sequence:
#
# PCOD8274174 Si02
#       5
#    16   8  16   8   8
#     4   9  17  29  43  68  87 110 149 174 224 269
#     4  11  19  27  39  61  99 126 145 174 208 259
#     4   9  16  28  45  63  89 119 153 187 209 244
#     4   9  16  30  48  69  90 105 137 188 229 273
#     4   9  19  29  39  61  90 130 161 174 203 243
#
# _framework density 14.603664999999999
#
# number of rings (size 3 to 8) (size 9 to 14) (size 15 to 20)
#    0.857    1.857    1.429    1.714    0.000    5.143 
#    0.000    4.286    0.000    0.000    0.000    8.000 
#    0.000    0.000    0.000    0.000    0.000    0.000 
#
# Total GULP energy -347008.691630 kJ/mol
# GULP energy per Si atom -12393.167558 kJ/mol
# Density = 1.457043 g / cm^3
# Si number density = 14.603665 Si / 1000 Ang^3
#
#
#
# Elastic Constant Matrix: (Units=GPa)
#
#
# Indices 1 2 3 4 5 6 
#
# 1 142.4578 68.1507 47.4887 0.0000 0.0000 0.0000
# 2 68.1507 87.0816 30.9533 0.0000 0.0000 0.0000
# 3 47.4887 30.9533 75.6238 0.0000 0.0000 0.0000
# 4 0.0000 0.0000 0.0000 2.2297 0.0000 0.0000
# 5 0.0000 0.0000 0.0000 0.0000 6.9415 0.0000
# 6 0.0000 0.0000 0.0000 0.0000 0.0000 13.3261
#
#
#
# Elastic Compliance Matrix: (Units=1/GPa)
#
#
# Indices 1 2 3 4 5 6 
#
# 1 0.012384 -0.008107 -0.004459 0.000000 0.000000 0.000000
# 2 -0.008107 0.018746 -0.002582 0.000000 0.000000 0.000000
# 3 -0.004459 -0.002582 0.017080 0.000000 0.000000 0.000000
# 4 0.000000 0.000000 0.000000 0.448492 0.000000 0.000000
# 5 0.000000 0.000000 0.000000 0.000000 0.144062 0.000000
# 6 0.000000 0.000000 0.000000 0.000000 0.000000 0.075040
#
#
# Mechanical properties :
#
#
# Convention : Reuss Voigt Hill
#
# Bulk Modulus (GPa) = 55.81911 66.48318 61.15115
# Shear Modulus (GPa) = 6.64831 15.07082 10.85956
#
# Velocity S-wave (km/s) = 2.13597 3.21594 2.72990
# Velocity P-wave (km/s) = 6.66249 7.70802 7.20425
#
# Compressibility (1/GPa) = 0.01791501
#
# Stress axis : x y z
#
# Youngs Moduli (GPa) = 80.74707 53.34462 58.54843
#
# Poissons Ratio (x) = 0.43248 0.26104
# Poissons Ratio (y) = 0.65464 0.15116
# Poissons Ratio (z) = 0.36001 0.13773
#
# Static dielectric constant tensor:
#      x y z
#    x 2.945890 0.000000 0.000000 
#    y 0.000000 2.788410 0.000000 
#    z 0.000000 0.000000 2.620240 
# 
# 
# High freq. dielectric constant tensor:
#      x y z
#    x 1.570220 0.000000 0.000000 
#    y 0.000000 1.545240 0.000000 
#    z 0.000000 0.000000 1.513580 
# 
# From -- ./inp_files/39627.got.cif
#   From: 2010.03.12/outbox.cif.g09.slc.cpg/sg65_20_cif.got.tgz:39627.got - 2010.04.10 20:52:16.
