data_PCOD8274167
_publ_section_title
;
Structure prediction by ZEFSAII (Michael W. Deem and Ramdas Pophale) SiO2 
 PCOD8274167
Probable space group: C M M M
;
_chemical_formula_sum "Si O2"
_cell_formula_units_Z 72
_cell_length_a 11.498710
_cell_length_b 25.984945
_cell_length_c 13.989480
_cell_angle_alpha 90.000000
_cell_angle_beta 90.000000
_cell_angle_gamma 90.000000
_cell_volume 4179.963551
_symmetry_space_group_name_H-M "C M M M"
_symmetry_group_IT_number 65
_symmetry_cell_setting 'orthorhombic'
loop_
_space_group_symop_operation_xyz
x,y,z
-x,-y,z
x,-y,-z
-x,y,-z
-x,-y,-z
x,y,-z
-x,y,z
x,-y,z
1/2+x,1/2+y,z
1/2-x,1/2-y,z
1/2+x,1/2-y,-z
1/2-x,1/2+y,-z
1/2-x,1/2-y,-z
1/2+x,1/2+y,-z
1/2-x,1/2+y,z
1/2+x,1/2-y,z
loop_
_atom_site_type_symbol
_atom_site_label
_atom_site_fract_x
_atom_site_fract_y
_atom_site_fract_z
Si Si1 0.364400 0.559000 0.391630
Si Si2 0.000000 0.940992 0.887313
Si Si3 0.372638 0.263878 0.261154
Si Si4 0.369115 0.179688 0.893442
Si Si5 0.813783 0.876862 0.779852
O O1 0.342607 0.577577 0.500000
O O2 0.500000 0.565251 0.364386
O O3 0.325746 0.500000 0.380222
O O4 0.289075 0.594671 0.321098
O O5 0.114387 0.914196 0.847580
O O6 0.000000 0.000000 0.853243
O O7 0.000000 0.935933 0.000000
O O8 0.500000 0.248654 0.309373
O O9 0.250000 0.250000 0.318877
O O10 0.360788 0.234280 0.160435
O O11 0.381860 0.324100 0.240537
O O12 0.500000 0.160328 0.901191
O O13 0.305937 0.135175 0.833203
O O14 0.315535 0.186120 0.000000
#
# Coordination Sequence:
#
# PCOD8274167 Si02
#       5
#    16   8  16  16  16
#     4   9  17  30  50  74  97 122 157 204 256 306
#     4  11  22  30  41  69 103 129 156 196 248 299
#     4   9  17  28  44  69  97 131 165 205 245 291
#     4   9  19  33  48  69  98 134 174 208 237 288
#     4  11  18  30  50  70  98 130 162 203 254 298
#
# _framework density 17.22503
#
# number of rings (size 3 to 8) (size 9 to 14) (size 15 to 20)
#    0.000    2.333    2.222    2.000    0.000    4.889 
#    0.000    0.000    0.000    9.333    0.000   15.556 
#    0.000    0.000    0.000    0.000    0.000    0.000 
#
# Total GULP energy -445986.149579 kJ/mol
# GULP energy per Si atom -12388.504155 kJ/mol
# Density = 1.718582 g / cm^3
# Si number density = 17.225030 Si / 1000 Ang^3
#
#
#
# Elastic Constant Matrix: (Units=GPa)
#
#
# Indices 1 2 3 4 5 6 
#
# 1 91.3193 26.7183 14.1004 0.0000 0.0000 0.0000
# 2 26.7183 109.3337 46.1817 0.0000 0.0000 0.0000
# 3 14.1004 46.1817 75.2778 0.0000 0.0000 0.0000
# 4 0.0000 0.0000 0.0000 25.0601 0.0000 0.0000
# 5 0.0000 0.0000 0.0000 0.0000 18.4091 0.0000
# 6 0.0000 0.0000 0.0000 0.0000 0.0000 22.2817
#
#
#
# Elastic Compliance Matrix: (Units=1/GPa)
#
#
# Indices 1 2 3 4 5 6 
#
# 1 0.011814 -0.002635 -0.000596 0.000000 0.000000 0.000000
# 2 -0.002635 0.012933 -0.007441 0.000000 0.000000 0.000000
# 3 -0.000596 -0.007441 0.017961 0.000000 0.000000 0.000000
# 4 0.000000 0.000000 0.000000 0.039904 0.000000 0.000000
# 5 0.000000 0.000000 0.000000 0.000000 0.054321 0.000000
# 6 0.000000 0.000000 0.000000 0.000000 0.000000 0.044880
#
#
# Mechanical properties :
#
#
# Convention : Reuss Voigt Hill
#
# Bulk Modulus (GPa) = 46.80929 49.99240 48.40084
# Shear Modulus (GPa) = 23.77812 25.74555 24.76184
#
# Velocity S-wave (km/s) = 3.71946 3.87028 3.79562
# Velocity P-wave (km/s) = 6.75870 7.00415 6.88252
#
# Compressibility (1/GPa) = 0.02136328
#
# Stress axis : x y z
#
# Youngs Moduli (GPa) = 84.64797 77.32075 55.67764
#
# Poissons Ratio (x) = 0.20375 0.03320
# Poissons Ratio (y) = 0.22306 0.41428
# Poissons Ratio (z) = 0.05047 0.57532
#
# Static dielectric constant tensor:
#      x y z
#    x 3.479760 0.000000 0.000000 
#    y 0.000000 3.180310 0.000000 
#    z 0.000000 0.000000 3.115460 
# 
# 
# High freq. dielectric constant tensor:
#      x y z
#    x 1.652030 0.000000 0.000000 
#    y 0.000000 1.663130 0.000000 
#    z 0.000000 0.000000 1.642990 
# 
# From -- ./inp_files/38175.got.cif
#   From: 2010.03.12/outbox.cif.g09.slc.cpg/sg65_20_cif.got.tgz:38175.got - 2010.04.10 20:52:16.
