data_PCOD8274616
_publ_section_title
;
Structure prediction by ZEFSAII (Michael W. Deem and Ramdas Pophale) SiO2 
 PCOD8274616
Probable space group: C M M M
;
_chemical_formula_sum "Si O2"
_cell_formula_units_Z 72
_cell_length_a 13.533189
_cell_length_b 14.994947
_cell_length_c 17.713392
_cell_angle_alpha 90.000000
_cell_angle_beta 90.000000
_cell_angle_gamma 90.000000
_cell_volume 3594.568928
_symmetry_space_group_name_H-M "C M M M"
_symmetry_group_IT_number 65
_symmetry_cell_setting 'orthorhombic'
loop_
_space_group_symop_operation_xyz
x,y,z
-x,-y,z
x,-y,-z
-x,y,-z
-x,-y,-z
x,y,-z
-x,y,z
x,-y,z
1/2+x,1/2+y,z
1/2-x,1/2-y,z
1/2+x,1/2-y,-z
1/2-x,1/2+y,-z
1/2-x,1/2-y,-z
1/2+x,1/2+y,-z
1/2-x,1/2+y,z
1/2+x,1/2-y,z
loop_
_atom_site_type_symbol
_atom_site_label
_atom_site_fract_x
_atom_site_fract_y
_atom_site_fract_z
Si Si1 0.394923 0.099885 0.500000
Si Si2 0.760788 0.354277 0.913141
Si Si3 0.114932 0.000000 0.141428
Si Si4 0.266427 0.149458 0.640848
Si Si5 0.116195 0.000000 0.320096
Si Si6 0.609915 0.102093 0.221184
O O1 0.500000 0.154872 0.500000
O O2 0.334769 0.112766 0.575899
O O3 0.428283 0.000000 0.500000
O O4 0.750000 0.250000 0.895138
O O5 0.662055 0.409841 0.892898
O O6 0.851266 0.390787 0.864048
O O7 0.788028 0.370263 0.000000
O O8 0.132875 0.000000 0.230653
O O9 0.000000 0.000000 0.120081
O O10 0.250000 0.250000 0.615869
O O11 0.320570 0.154610 0.721458
O O12 0.167140 0.089201 0.646076
O O13 0.000000 0.000000 0.341457
O O14 0.500000 0.142776 0.224150
O O15 0.609676 0.000000 0.247339
#
# Coordination Sequence:
#
# PCOD8274616 Si02
#       6
#     8  16   8  16   8  16
#     4  11  23  42  70  97 126 164 206 260 310 364
#     4  11  23  40  61  90 126 164 210 265 319 377
#     4  11  23  42  66  91 123 169 218 260 314 382
#     4  12  23  43  67  95 130 168 210 257 313 377
#     4  11  24  42  65  96 131 168 212 263 318 374
#     4  11  22  39  64  91 122 163 208 259 318 380
#
# _framework density 20.030218000000001
#
# number of rings (size 3 to 8) (size 9 to 14) (size 15 to 20)
#    0.000    0.778    5.556    2.000    0.000    5.778 
#    0.000    4.444    0.000    0.000    0.000    0.000 
#    0.000    0.000    0.000    0.000    0.000    0.000 
#
# Total GULP energy -446352.855740 kJ/mol
# GULP energy per Si atom -12398.690437 kJ/mol
# Density = 1.998463 g / cm^3
# Si number density = 20.030218 Si / 1000 Ang^3
#
#
#
# Elastic Constant Matrix: (Units=GPa)
#
#
# Indices 1 2 3 4 5 6 
#
# 1 153.3514 49.0397 54.0333 0.0000 0.0000 0.0000
# 2 49.0397 120.6439 19.3121 0.0000 0.0000 0.0000
# 3 54.0333 19.3121 109.7470 0.0000 0.0000 0.0000
# 4 0.0000 0.0000 0.0000 27.2948 0.0000 0.0000
# 5 0.0000 0.0000 0.0000 0.0000 11.4846 0.0000
# 6 0.0000 0.0000 0.0000 0.0000 0.0000 8.7788
#
#
#
# Elastic Compliance Matrix: (Units=1/GPa)
#
#
# Indices 1 2 3 4 5 6 
#
# 1 0.008817 -0.002973 -0.003818 0.000000 0.000000 0.000000
# 2 -0.002973 0.009531 -0.000214 0.000000 0.000000 0.000000
# 3 -0.003818 -0.000214 0.011029 0.000000 0.000000 0.000000
# 4 0.000000 0.000000 0.000000 0.036637 0.000000 0.000000
# 5 0.000000 0.000000 0.000000 0.000000 0.087073 0.000000
# 6 0.000000 0.000000 0.000000 0.000000 0.000000 0.113911
#
#
# Mechanical properties :
#
#
# Convention : Reuss Voigt Hill
#
# Bulk Modulus (GPa) = 65.06590 69.83472 67.45031
# Shear Modulus (GPa) = 17.47459 26.93544 22.20501
#
# Velocity S-wave (km/s) = 2.95687 3.67105 3.33314
# Velocity P-wave (km/s) = 6.64919 7.27387 6.96853
#
# Compressibility (1/GPa) = 0.01536903
#
# Stress axis : x y z
#
# Youngs Moduli (GPa) = 113.41962 104.91604 90.66900
#
# Poissons Ratio (x) = 0.31189 0.34616
# Poissons Ratio (y) = 0.33717 0.01937
# Poissons Ratio (z) = 0.43301 0.02241
#
# Static dielectric constant tensor:
#      x y z
#    x 3.763820 0.000000 0.000000 
#    y 0.000000 3.872560 0.000000 
#    z 0.000000 0.000000 3.709390 
# 
# 
# High freq. dielectric constant tensor:
#      x y z
#    x 1.785430 0.000000 0.000000 
#    y 0.000000 1.781980 0.000000 
#    z 0.000000 0.000000 1.792420 
# 
# From -- ./inp_files/52764.got.cif
#   From: 2010.03.12/outbox.cif.g09.slc.cpg/sg65_27_cif.got.tgz:52764.got - 2010.04.10 20:52:16.
