data_PCOD8274111
_publ_section_title
;
Structure prediction by ZEFSAII (Michael W. Deem and Ramdas Pophale) SiO2 
 PCOD8274111
Probable space group: C M M M
;
_chemical_formula_sum "Si O2"
_cell_formula_units_Z 64
_cell_length_a 8.819533
_cell_length_b 15.190791
_cell_length_c 23.889591
_cell_angle_alpha 90.000000
_cell_angle_beta 90.000000
_cell_angle_gamma 90.000000
_cell_volume 3200.624259
_symmetry_space_group_name_H-M "C M M M"
_symmetry_group_IT_number 65
_symmetry_cell_setting 'orthorhombic'
loop_
_space_group_symop_operation_xyz
x,y,z
-x,-y,z
x,-y,-z
-x,y,-z
-x,-y,-z
x,y,-z
-x,y,z
x,-y,z
1/2+x,1/2+y,z
1/2-x,1/2-y,z
1/2+x,1/2-y,-z
1/2-x,1/2+y,-z
1/2-x,1/2-y,-z
1/2+x,1/2+y,-z
1/2-x,1/2+y,z
1/2+x,1/2-y,z
loop_
_atom_site_type_symbol
_atom_site_label
_atom_site_fract_x
_atom_site_fract_y
_atom_site_fract_z
Si Si1 0.671003 0.099814 0.388276
Si Si2 0.179185 0.500000 0.916622
Si Si3 0.178324 0.000000 0.204317
Si Si4 0.820766 0.162874 0.721075
Si Si5 0.820216 0.845553 0.500000
Si Si6 0.320618 0.151240 0.000000
O O1 0.500000 0.135951 0.397223
O O2 0.753915 0.156174 0.341183
O O3 0.763621 0.103319 0.445592
O O4 0.667722 0.000000 0.367320
O O5 0.241814 0.500000 0.854767
O O6 0.232127 0.591000 0.947018
O O7 0.000000 0.500000 0.916115
O O8 0.232073 0.915960 0.239360
O O9 0.000000 0.000000 0.194451
O O10 0.750000 0.250000 0.748905
O O11 0.000000 0.168705 0.716553
O O12 0.750000 0.750000 0.500000
O O13 0.000000 0.841398 0.500000
O O14 0.250000 0.250000 0.000000
O O15 0.500000 0.165162 0.000000
#
# Coordination Sequence:
#
# PCOD8274111 Si02
#       6
#    16   8   8  16   8   8
#     4  11  23  40  62  87 115 149 193 244 300 364
#     4   9  20  38  60  86 123 163 203 246 297 353
#     4  10  23  41  61  87 123 160 203 252 298 352
#     4  11  23  41  62  87 119 157 201 249 302 361
#     4  12  25  40  59  83 115 151 191 241 300 363
#     4   9  19  37  60  90 124 163 203 247 296 350
#
# _framework density 19.996099000000001
#
# number of rings (size 3 to 8) (size 9 to 14) (size 15 to 20)
#    0.000    1.500    1.250    4.500    0.000    7.000 
#    0.000    6.250    0.000    0.000    0.000    0.000 
#    0.000    0.000    0.000    0.000    0.000    0.000 
#
# Total GULP energy -396798.251732 kJ/mol
# GULP energy per Si atom -12399.945367 kJ/mol
# Density = 1.995059 g / cm^3
# Si number density = 19.996099 Si / 1000 Ang^3
#
#
#
# Elastic Constant Matrix: (Units=GPa)
#
#
# Indices 1 2 3 4 5 6 
#
# 1 107.8461 54.4790 56.0093 0.0000 0.0000 0.0000
# 2 54.4790 163.8187 63.7400 0.0000 0.0000 0.0000
# 3 56.0093 63.7400 141.3267 0.0000 0.0000 0.0000
# 4 0.0000 0.0000 0.0000 -6.6339 0.0000 0.0000
# 5 0.0000 0.0000 0.0000 0.0000 37.9753 0.0000
# 6 0.0000 0.0000 0.0000 0.0000 0.0000 35.6225
#
#
#
# Elastic Compliance Matrix: (Units=1/GPa)
#
#
# Indices 1 2 3 4 5 6 
#
# 1 0.012606 -0.002727 -0.003766 0.000000 0.000000 0.000000
# 2 -0.002727 0.007993 -0.002524 0.000000 0.000000 0.000000
# 3 -0.003766 -0.002524 0.009707 0.000000 0.000000 0.000000
# 4 0.000000 0.000000 0.000000 -0.150741 0.000000 0.000000
# 5 0.000000 0.000000 0.000000 0.000000 0.026333 0.000000
# 6 0.000000 0.000000 0.000000 0.000000 0.000000 0.028072
#
#
# Mechanical properties :
#
#
# Convention : Reuss Voigt Hill
#
# Bulk Modulus (GPa) = 81.48948 84.60533 83.04740
# Shear Modulus (GPa) = -113.88318 29.31033 -42.28643
#
# Velocity S-wave (km/s) = -7.55489 3.83273 -4.60361
# Velocity P-wave (km/s) = 5.93807 7.87332 3.65572
#
# Compressibility (1/GPa) = 0.01227152
#
# Stress axis : x y z
#
# Youngs Moduli (GPa) = 79.32863 125.10378 103.02015
#
# Poissons Ratio (x) = 0.34114 0.38797
# Poissons Ratio (y) = 0.21632 0.26007
# Poissons Ratio (z) = 0.29875 0.31581
#
# Static dielectric constant tensor:
#      x y z
#    x 3.645020 0.000000 0.000000 
#    y 0.000000 3.895200 0.000000 
#    z 0.000000 0.000000 3.236530 
# 
# 
# High freq. dielectric constant tensor:
#      x y z
#    x 1.783620 0.000000 0.000000 
#    y 0.000000 1.797430 0.000000 
#    z 0.000000 0.000000 1.774770 
# 
# From -- ./inp_files/66895.got.cif
#   From: 2010.03.12/outbox.cif.g09.slc.cpg/sg65_34_cif.got.tgz:66895.got - 2010.04.10 20:52:16.
