data_PCOD8274205
_publ_section_title
;
Structure prediction by ZEFSAII (Michael W. Deem and Ramdas Pophale) SiO2 
 PCOD8274205
Probable space group: C M M M
;
_chemical_formula_sum "Si O2"
_cell_formula_units_Z 112
_cell_length_a 17.928041
_cell_length_b 14.462085
_cell_length_c 23.112163
_cell_angle_alpha 90.000000
_cell_angle_beta 90.000000
_cell_angle_gamma 90.000000
_cell_volume 5992.448885
_symmetry_space_group_name_H-M "C M M M"
_symmetry_group_IT_number 65
_symmetry_cell_setting 'orthorhombic'
loop_
_space_group_symop_operation_xyz
x,y,z
-x,-y,z
x,-y,-z
-x,y,-z
-x,-y,-z
x,y,-z
-x,y,z
x,-y,z
1/2+x,1/2+y,z
1/2-x,1/2-y,z
1/2+x,1/2-y,-z
1/2-x,1/2+y,-z
1/2-x,1/2-y,-z
1/2+x,1/2+y,-z
1/2-x,1/2+y,z
1/2+x,1/2-y,z
loop_
_atom_site_type_symbol
_atom_site_label
_atom_site_fract_x
_atom_site_fract_y
_atom_site_fract_z
Si Si1 0.147723 0.606779 0.353016
Si Si2 0.655109 0.605032 0.752945
Si Si3 0.088584 0.103224 0.064892
Si Si4 0.316025 0.394822 0.621706
Si Si5 0.413721 0.261159 0.163656
Si Si6 0.175219 0.607067 0.777959
Si Si7 0.416597 0.750049 0.435137
O O1 0.130263 0.500000 0.364264
O O2 0.229753 0.633500 0.375407
O O3 0.139869 0.628923 0.284890
O O4 0.090043 0.666616 0.389583
O O5 0.636329 0.500000 0.769768
O O6 0.648267 0.619247 0.684655
O O7 0.594350 0.671631 0.781337
O O8 0.737411 0.631577 0.775859
O O9 0.118561 0.182388 0.108225
O O10 0.000000 0.101724 0.068167
O O11 0.118179 0.000000 0.081850
O O12 0.115347 0.128066 0.000000
O O13 0.324359 0.500000 0.600993
O O14 0.358268 0.331516 0.576172
O O15 0.500000 0.233422 0.155779
O O16 0.365553 0.168334 0.173225
O O17 0.163239 0.500000 0.794091
O O18 0.402087 0.787646 0.500000
O O19 0.500000 0.709761 0.429447
#
# Coordination Sequence:
#
# PCOD8274205 Si02
#       7
#    16  16  16  16  16  16  16
#     4   9  19  37  58  75  92 123 170 212 241 280
#     4   9  18  33  52  74 101 130 159 196 246 300
#     4   8  15  29  47  68  99 137 172 207 248 290
#     4   9  19  36  56  75  95 125 165 202 237 288
#     4  11  20  28  47  79 106 127 161 209 250 287
#     4   9  19  35  52  71 100 137 167 193 238 300
#     4  11  24  37  49  71 102 131 158 195 250 307
#
# _framework density 18.690190000000001
#
# number of rings (size 3 to 8) (size 9 to 14) (size 15 to 20)
#    0.000    2.571    0.000    4.286    0.000    8.000 
#    0.000    5.714    0.000    2.143    0.000    4.000 
#    0.000    0.000    0.000    0.000    0.000    0.000 
#
# Total GULP energy -694312.515289 kJ/mol
# GULP energy per Si atom -12398.437773 kJ/mol
# Density = 1.864765 g / cm^3
# Si number density = 18.690190 Si / 1000 Ang^3
#
#
#
# Elastic Constant Matrix: (Units=GPa)
#
#
# Indices 1 2 3 4 5 6 
#
# 1 41.2754 26.9947 23.8513 0.0000 0.0000 0.0000
# 2 26.9947 90.8603 45.8058 0.0000 0.0000 0.0000
# 3 23.8513 45.8058 80.4345 0.0000 0.0000 0.0000
# 4 0.0000 0.0000 0.0000 32.4688 0.0000 0.0000
# 5 0.0000 0.0000 0.0000 0.0000 21.2500 0.0000
# 6 0.0000 0.0000 0.0000 0.0000 0.0000 26.8831
#
#
#
# Elastic Compliance Matrix: (Units=1/GPa)
#
#
# Indices 1 2 3 4 5 6 
#
# 1 0.031821 -0.006589 -0.005684 0.000000 0.000000 0.000000
# 2 -0.006589 0.016802 -0.007615 0.000000 0.000000 0.000000
# 3 -0.005684 -0.007615 0.018454 0.000000 0.000000 0.000000
# 4 0.000000 0.000000 0.000000 0.030799 0.000000 0.000000
# 5 0.000000 0.000000 0.000000 0.000000 0.047059 0.000000
# 6 0.000000 0.000000 0.000000 0.000000 0.000000 0.037198
#
#
# Mechanical properties :
#
#
# Convention : Reuss Voigt Hill
#
# Bulk Modulus (GPa) = 36.62586 45.09709 40.86147
# Shear Modulus (GPa) = 21.64417 23.84826 22.74622
#
# Velocity S-wave (km/s) = 3.40670 3.57596 3.49236
# Velocity P-wave (km/s) = 5.92562 6.42114 6.17835
#
# Compressibility (1/GPa) = 0.02730312
#
# Stress axis : x y z
#
# Youngs Moduli (GPa) = 31.42582 59.51558 54.18765
#
# Poissons Ratio (x) = 0.39213 0.30799
# Poissons Ratio (y) = 0.20705 0.41263
# Poissons Ratio (z) = 0.17862 0.45320
#
# Static dielectric constant tensor:
#      x y z
#    x 3.151180 0.000000 0.000000 
#    y 0.000000 3.471710 0.000000 
#    z 0.000000 0.000000 3.399010 
# 
# 
# High freq. dielectric constant tensor:
#      x y z
#    x 1.701440 0.000000 0.000000 
#    y 0.000000 1.730360 0.000000 
#    z 0.000000 0.000000 1.710660 
# 
# From -- ./inp_files/70029.got.cif
#   From: 2010.03.12/outbox.cif.g09.slc.cpg/sg65_36_cif.got.tgz:70029.got - 2010.04.10 20:52:16.
