data_PCOD8274559
_publ_section_title
;
Structure prediction by ZEFSAII (Michael W. Deem and Ramdas Pophale) SiO2 
 PCOD8274559
Probable space group: C M M M
;
_chemical_formula_sum "Si O2"
_cell_formula_units_Z 88
_cell_length_a 18.667040
_cell_length_b 8.672859
_cell_length_c 28.545182
_cell_angle_alpha 90.000000
_cell_angle_beta 90.000000
_cell_angle_gamma 90.000000
_cell_volume 4621.368080
_symmetry_space_group_name_H-M "C M M M"
_symmetry_group_IT_number 65
_symmetry_cell_setting 'orthorhombic'
loop_
_space_group_symop_operation_xyz
x,y,z
-x,-y,z
x,-y,-z
-x,y,-z
-x,-y,-z
x,y,-z
-x,y,z
x,-y,z
1/2+x,1/2+y,z
1/2-x,1/2-y,z
1/2+x,1/2-y,-z
1/2-x,1/2+y,-z
1/2-x,1/2-y,-z
1/2+x,1/2+y,-z
1/2-x,1/2+y,z
1/2+x,1/2-y,z
loop_
_atom_site_type_symbol
_atom_site_label
_atom_site_fract_x
_atom_site_fract_y
_atom_site_fract_z
Si Si1 0.419611 0.683102 0.175448
Si Si2 0.826846 0.182111 0.260903
Si Si3 0.826240 0.817456 0.634679
Si Si4 0.416175 0.817735 0.000000
Si Si5 0.829678 0.183242 0.913774
Si Si6 0.079888 0.183129 0.551032
O O1 0.500000 0.751778 0.169911
O O2 0.423895 0.500000 0.175218
O O3 0.386021 0.743405 0.224317
O O4 0.368187 0.739964 0.133739
O O5 0.750000 0.250000 0.247465
O O6 0.851216 0.233538 0.313164
O O7 0.819394 0.000000 0.257537
O O8 0.750000 0.750000 0.622949
O O9 0.877266 0.745766 0.594791
O O10 0.823059 0.000000 0.631385
O O11 0.378550 0.746072 0.955099
O O12 0.500000 0.772696 0.000000
O O13 0.405196 0.000000 0.000000
O O14 0.750000 0.250000 0.916461
O O15 0.824967 0.000000 0.917121
O O16 0.112611 0.230669 0.500000
O O17 0.000000 0.249163 0.554629
O O18 0.078815 0.000000 0.555138
#
# Coordination Sequence:
#
# PCOD8274559 Si02
#       6
#    16  16  16   8  16  16
#     4   9  18  32  51  76 102 128 162 205 249 290
#     4   9  17  30  48  69  95 125 157 195 238 287
#     4   9  17  28  44  67  92 120 154 193 238 285
#     4  11  24  41  60  83 111 139 170 211 254 295
#     4  11  22  37  58  81 107 139 174 209 248 297
#     4   8  14  25  41  62  88 117 152 195 238 279
#
# _framework density 19.041982000000001
#
# number of rings (size 3 to 8) (size 9 to 14) (size 15 to 20)
#    0.000    2.636    0.000    2.727    0.000    2.545 
#    0.000    4.545    0.000    3.273    0.000    6.364 
#    0.000    0.000    0.000    0.000    0.000    0.000 
#
# Total GULP energy -545370.379975 kJ/mol
# GULP energy per Si atom -12394.781363 kJ/mol
# Density = 1.899864 g / cm^3
# Si number density = 19.041982 Si / 1000 Ang^3
#
#
#
# Elastic Constant Matrix: (Units=GPa)
#
#
# Indices 1 2 3 4 5 6 
#
# 1 153.7659 30.3331 108.4494 0.0000 0.0000 0.0000
# 2 30.3331 27.6529 27.1810 0.0000 0.0000 0.0000
# 3 108.4494 27.1810 184.0426 0.0000 0.0000 0.0000
# 4 0.0000 0.0000 0.0000 10.5931 0.0000 0.0000
# 5 0.0000 0.0000 0.0000 0.0000 42.5434 0.0000
# 6 0.0000 0.0000 0.0000 0.0000 0.0000 21.7113
#
#
#
# Elastic Compliance Matrix: (Units=1/GPa)
#
#
# Indices 1 2 3 4 5 6 
#
# 1 0.012317 -0.007459 -0.006156 0.000000 0.000000 0.000000
# 2 -0.007459 0.046821 -0.002519 0.000000 0.000000 0.000000
# 3 -0.006156 -0.002519 0.009433 0.000000 0.000000 0.000000
# 4 0.000000 0.000000 0.000000 0.094401 0.000000 0.000000
# 5 0.000000 0.000000 0.000000 0.000000 0.023505 0.000000
# 6 0.000000 0.000000 0.000000 0.000000 0.000000 0.046059
#
#
# Mechanical properties :
#
#
# Convention : Reuss Voigt Hill
#
# Bulk Modulus (GPa) = 27.54719 77.48762 52.51740
# Shear Modulus (GPa) = 18.05660 28.26942 23.16301
#
# Velocity S-wave (km/s) = 3.08271 3.85721 3.49150
# Velocity P-wave (km/s) = 5.21237 7.78581 6.62524
#
# Compressibility (1/GPa) = 0.03630134
#
# Stress axis : x y z
#
# Youngs Moduli (GPa) = 81.19022 21.35776 106.00869
#
# Poissons Ratio (x) = 0.15932 0.65260
# Poissons Ratio (y) = 0.60563 0.26708
# Poissons Ratio (z) = 0.49982 0.05381
#
# Static dielectric constant tensor:
#      x y z
#    x 3.647930 0.000000 0.000000 
#    y 0.000000 3.127460 0.000000 
#    z 0.000000 0.000000 4.014450 
# 
# 
# High freq. dielectric constant tensor:
#      x y z
#    x 1.741740 0.000000 0.000000 
#    y 0.000000 1.701160 0.000000 
#    z 0.000000 0.000000 1.762770 
# 
# From -- ./inp_files/77958.got.cif
#   From: 2010.03.12/outbox.cif.g09.slc.cpg/sg65_39_cif.got.tgz:77958.got - 2010.04.10 20:52:16.
