data_PCOD8274686
_publ_section_title
;
Structure prediction by ZEFSAII (Michael W. Deem and Ramdas Pophale) SiO2 
 PCOD8274686
Probable space group: C M M M
;
_chemical_formula_sum "Si O2"
_cell_formula_units_Z 96
_cell_length_a 18.869115
_cell_length_b 9.214015
_cell_length_c 30.445366
_cell_angle_alpha 90.000000
_cell_angle_beta 90.000000
_cell_angle_gamma 90.000000
_cell_volume 5293.240730
_symmetry_space_group_name_H-M "C M M M"
_symmetry_group_IT_number 65
_symmetry_cell_setting 'orthorhombic'
loop_
_space_group_symop_operation_xyz
x,y,z
-x,-y,z
x,-y,-z
-x,y,-z
-x,-y,-z
x,y,-z
-x,y,z
x,-y,z
1/2+x,1/2+y,z
1/2-x,1/2-y,z
1/2+x,1/2-y,-z
1/2-x,1/2+y,-z
1/2-x,1/2-y,-z
1/2+x,1/2+y,-z
1/2-x,1/2+y,z
1/2+x,1/2-y,z
loop_
_atom_site_type_symbol
_atom_site_label
_atom_site_fract_x
_atom_site_fract_y
_atom_site_fract_z
Si Si1 0.584342 0.663953 0.212645
Si Si2 0.419043 0.666088 0.448657
Si Si3 0.175354 0.328707 0.618569
Si Si4 0.178845 0.669547 0.950723
Si Si5 0.918643 0.331320 0.297898
Si Si6 0.581750 0.168618 0.128277
O O1 0.500000 0.671352 0.211883
O O2 0.612793 0.500000 0.213044
O O3 0.611908 0.743758 0.256307
O O4 0.614353 0.743342 0.169320
O O5 0.404807 0.685659 0.500000
O O6 0.500000 0.708401 0.437284
O O7 0.404405 0.500000 0.434534
O O8 0.365749 0.773081 0.424173
O O9 0.187413 0.500000 0.614085
O O10 0.250000 0.250000 0.623135
O O11 0.128389 0.287851 0.660635
O O12 0.194130 0.500000 0.947529
O O13 0.250000 0.750000 0.937189
O O14 0.118741 0.718410 0.916696
O O15 0.154260 0.712714 0.000000
O O16 0.912537 0.500000 0.286375
O O17 0.000000 0.288693 0.308307
O O18 0.500000 0.206300 0.121650
O O19 0.593832 0.000000 0.138331
#
# Coordination Sequence:
#
# PCOD8274686 Si02
#       6
#    16  16  16  16  16  16
#     4   9  17  29  48  75 102 127 159 201 248 297
#     4   9  19  37  60  84 109 138 174 216 260 307
#     4  11  23  37  54  78 109 143 177 215 260 308
#     4   9  18  32  49  69  94 126 163 200 240 289
#     4   9  18  34  55  76  99 130 169 210 252 301
#     4   9  17  30  49  72  98 127 159 199 246 292
#
# _framework density 18.136337999999999
#
# number of rings (size 3 to 8) (size 9 to 14) (size 15 to 20)
#    0.000    2.667    0.000    2.000    0.000    6.000 
#    0.000    5.000    0.000    0.000    0.000    4.667 
#    0.000    0.000    0.000    0.000    0.000    0.000 
#
# Total GULP energy -595239.221330 kJ/mol
# GULP energy per Si atom -12400.817111 kJ/mol
# Density = 1.809506 g / cm^3
# Si number density = 18.136338 Si / 1000 Ang^3
#
#
#
# Elastic Constant Matrix: (Units=GPa)
#
#
# Indices 1 2 3 4 5 6 
#
# 1 88.1169 51.4001 68.2484 0.0000 0.0000 0.0000
# 2 51.4001 82.6217 67.2615 0.0000 0.0000 0.0000
# 3 68.2484 67.2615 131.4268 0.0000 0.0000 0.0000
# 4 0.0000 0.0000 0.0000 28.3194 0.0000 0.0000
# 5 0.0000 0.0000 0.0000 0.0000 5.5818 0.0000
# 6 0.0000 0.0000 0.0000 0.0000 0.0000 21.3581
#
#
#
# Elastic Compliance Matrix: (Units=1/GPa)
#
#
# Indices 1 2 3 4 5 6 
#
# 1 0.021255 -0.007264 -0.007320 0.000000 0.000000 0.000000
# 2 -0.007264 0.023230 -0.008116 0.000000 0.000000 0.000000
# 3 -0.007320 -0.008116 0.015564 0.000000 0.000000 0.000000
# 4 0.000000 0.000000 0.000000 0.035312 0.000000 0.000000
# 5 0.000000 0.000000 0.000000 0.000000 0.179153 0.000000
# 6 0.000000 0.000000 0.000000 0.000000 0.000000 0.046821
#
#
# Mechanical properties :
#
#
# Convention : Reuss Voigt Hill
#
# Bulk Modulus (GPa) = 68.26874 75.10950 71.68912
# Shear Modulus (GPa) = 13.45466 18.73555 16.09510
#
# Velocity S-wave (km/s) = 2.72667 3.21758 2.98224
# Velocity P-wave (km/s) = 6.90193 7.43690 7.17440
#
# Compressibility (1/GPa) = 0.01464799
#
# Stress axis : x y z
#
# Youngs Moduli (GPa) = 47.04695 43.04786 64.25142
#
# Poissons Ratio (x) = 0.31270 0.47032
# Poissons Ratio (y) = 0.34175 0.52149
# Poissons Ratio (z) = 0.34439 0.34940
#
# Static dielectric constant tensor:
#      x y z
#    x 3.194170 0.000000 0.000000 
#    y 0.000000 3.368820 0.000000 
#    z 0.000000 0.000000 3.505080 
# 
# 
# High freq. dielectric constant tensor:
#      x y z
#    x 1.678460 0.000000 0.000000 
#    y 0.000000 1.703040 0.000000 
#    z 0.000000 0.000000 1.714600 
# 
# From -- ./inp_files/75361.got.cif
#   From: 2010.03.12/outbox.cif.g09.slc.cpg/sg65_38_cif.got.tgz:75361.got - 2010.04.10 20:52:16.
