data_PCOD8274115
_publ_section_title
;
Structure prediction by ZEFSAII (Michael W. Deem and Ramdas Pophale) SiO2 
 PCOD8274115
Probable space group: C M M M
;
_chemical_formula_sum "Si O2"
_cell_formula_units_Z 72
_cell_length_a 26.724181
_cell_length_b 9.821683
_cell_length_c 14.422784
_cell_angle_alpha 90.000000
_cell_angle_beta 90.000000
_cell_angle_gamma 90.000000
_cell_volume 3785.640916
_symmetry_space_group_name_H-M "C M M M"
_symmetry_group_IT_number 65
_symmetry_cell_setting 'orthorhombic'
loop_
_space_group_symop_operation_xyz
x,y,z
-x,-y,z
x,-y,-z
-x,y,-z
-x,-y,-z
x,y,-z
-x,y,z
x,-y,z
1/2+x,1/2+y,z
1/2-x,1/2-y,z
1/2+x,1/2-y,-z
1/2-x,1/2+y,-z
1/2-x,1/2-y,-z
1/2+x,1/2+y,-z
1/2-x,1/2+y,z
1/2+x,1/2-y,z
loop_
_atom_site_type_symbol
_atom_site_label
_atom_site_fract_x
_atom_site_fract_y
_atom_site_fract_z
Si Si1 0.808263 0.500000 0.387716
Si Si2 0.297705 0.345945 0.000000
Si Si3 0.369795 0.255761 0.655841
Si Si4 0.058787 0.339245 0.500000
Si Si5 0.941193 0.655070 0.000000
Si Si6 0.614377 0.658516 0.862862
Si Si7 0.801257 0.000000 0.397851
O O1 0.814685 0.500000 0.500000
O O2 0.835261 0.374602 0.340186
O O3 0.751868 0.500000 0.344576
O O4 0.250000 0.250000 0.000000
O O5 0.330970 0.318431 0.091843
O O6 0.277765 0.500000 0.000000
O O7 0.418128 0.230382 0.591473
O O8 0.387510 0.302274 0.756122
O O9 0.334726 0.370054 0.615091
O O10 0.070896 0.500000 0.500000
O O11 0.000000 0.310460 0.500000
O O12 0.924623 0.739438 0.909980
O O13 0.918976 0.500000 0.000000
O O14 0.000000 0.645088 0.000000
O O15 0.598652 0.500000 0.876663
O O16 0.779621 0.000000 0.500000
#
# Coordination Sequence:
#
# PCOD8274115 Si02
#       7
#     8   8  16   8   8  16   8
#     4  11  22  38  60  91 124 173 217 250 313 359
#     4   9  20  40  58  84 121 160 200 240 293 360
#     4  12  21  41  61  92 127 167 211 257 307 370
#     4  11  24  43  64  88 123 168 211 263 322 370
#     4  10  23  43  69  97 118 148 204 264 316 371
#     4  10  23  41  63  89 126 166 199 250 311 366
#     4  11  22  36  62  89 130 167 209 264 301 359
#
# _framework density 19.019235999999999
#
# number of rings (size 3 to 8) (size 9 to 14) (size 15 to 20)
#    0.000    1.333    4.444    1.667    1.556    7.111 
#    0.000    3.333    0.000    0.000    0.000    0.000 
#    0.000    0.000    0.000    0.000    0.000    0.000 
#
# Total GULP energy -446255.778301 kJ/mol
# GULP energy per Si atom -12395.993842 kJ/mol
# Density = 1.897595 g / cm^3
# Si number density = 19.019236 Si / 1000 Ang^3
#
#
#
# Elastic Constant Matrix: (Units=GPa)
#
#
# Indices 1 2 3 4 5 6 
#
# 1 123.0615 64.5671 38.4714 0.0000 0.0000 0.0000
# 2 64.5671 156.4740 37.2804 0.0000 0.0000 0.0000
# 3 38.4714 37.2804 112.8531 0.0000 0.0000 0.0000
# 4 0.0000 0.0000 0.0000 -48.4705 0.0000 0.0000
# 5 0.0000 0.0000 0.0000 0.0000 30.8593 0.0000
# 6 0.0000 0.0000 0.0000 0.0000 0.0000 32.1323
#
#
#
# Elastic Compliance Matrix: (Units=1/GPa)
#
#
# Indices 1 2 3 4 5 6 
#
# 1 0.010954 -0.003940 -0.002432 0.000000 0.000000 0.000000
# 2 -0.003940 0.008354 -0.001417 0.000000 0.000000 0.000000
# 3 -0.002432 -0.001417 0.010158 0.000000 0.000000 0.000000
# 4 0.000000 0.000000 0.000000 -0.020631 0.000000 0.000000
# 5 0.000000 0.000000 0.000000 0.000000 0.032405 0.000000
# 6 0.000000 0.000000 0.000000 0.000000 0.000000 0.031121
#
#
# Mechanical properties :
#
#
# Convention : Reuss Voigt Hill
#
# Bulk Modulus (GPa) = 72.00666 74.78072 73.39369
# Shear Modulus (GPa) = 54.01329 19.70887 36.86108
#
# Velocity S-wave (km/s) = 5.33488 3.22259 4.40716
# Velocity P-wave (km/s) = 8.71149 7.29730 8.03557
#
# Compressibility (1/GPa) = 0.01388760
#
# Stress axis : x y z
#
# Youngs Moduli (GPa) = 91.29170 119.69879 98.44228
#
# Poissons Ratio (x) = 0.47167 0.23946
# Poissons Ratio (y) = 0.35973 0.13944
# Poissons Ratio (z) = 0.22206 0.16955
#
# Static dielectric constant tensor:
#      x y z
#    x 3.420440 0.000000 0.000000 
#    y 0.000000 3.701640 0.000000 
#    z 0.000000 0.000000 3.506860 
# 
# 
# High freq. dielectric constant tensor:
#      x y z
#    x 1.738080 0.000000 0.000000 
#    y 0.000000 1.759220 0.000000 
#    z 0.000000 0.000000 1.735830 
# 
# From -- ./inp_files/46622.got.cif
#   From: 2010.03.12/outbox.cif.g09.slc.cpg/sg65_24_cif.got.tgz:46622.got - 2010.04.10 20:52:16.
