data_PCOD8274744
_publ_section_title
;
Structure prediction by ZEFSAII (Michael W. Deem and Ramdas Pophale) SiO2 
 PCOD8274744
Probable space group: C M M M
;
_chemical_formula_sum "Si O2"
_cell_formula_units_Z 88
_cell_length_a 9.203605
_cell_length_b 15.285634
_cell_length_c 30.217926
_cell_angle_alpha 90.000000
_cell_angle_beta 90.000000
_cell_angle_gamma 90.000000
_cell_volume 4251.146595
_symmetry_space_group_name_H-M "C M M M"
_symmetry_group_IT_number 65
_symmetry_cell_setting 'orthorhombic'
loop_
_space_group_symop_operation_xyz
x,y,z
-x,-y,z
x,-y,-z
-x,y,-z
-x,-y,-z
x,y,-z
-x,y,z
x,-y,z
1/2+x,1/2+y,z
1/2-x,1/2-y,z
1/2+x,1/2-y,-z
1/2-x,1/2+y,-z
1/2-x,1/2-y,-z
1/2+x,1/2+y,-z
1/2-x,1/2+y,z
1/2+x,1/2-y,z
loop_
_atom_site_type_symbol
_atom_site_label
_atom_site_fract_x
_atom_site_fract_y
_atom_site_fract_z
Si Si1 0.328808 0.662518 0.094137
Si Si2 0.666505 0.000000 0.052377
Si Si3 0.836510 0.604348 0.725061
Si Si4 0.336192 0.604858 0.358631
Si Si5 0.672756 0.401782 0.546809
Si Si6 0.333557 0.400077 0.809412
O O1 0.500000 0.664037 0.082560
O O2 0.250000 0.750000 0.077369
O O3 0.252589 0.583940 0.068997
O O4 0.303757 0.654964 0.146639
O O5 0.500000 0.000000 0.070241
O O6 0.666918 0.000000 0.000000
O O7 0.825972 0.500000 0.724587
O O8 0.761672 0.642869 0.680955
O O9 0.759321 0.640401 0.769232
O O10 0.000000 0.638578 0.725722
O O11 0.500000 0.637153 0.350080
O O12 0.331386 0.500000 0.359852
O O13 0.274729 0.641085 0.406474
O O14 0.721365 0.354572 0.500000
O O15 0.500000 0.404635 0.549388
O O16 0.734052 0.500000 0.544631
O O17 0.500000 0.395519 0.794544
O O18 0.287864 0.500000 0.819485
#
# Coordination Sequence:
#
# PCOD8274744 Si02
#       6
#    16   8  16  16  16  16
#     4  11  23  41  65  95 127 163 204 250 302 356
#     4  11  25  45  69  97 129 167 209 253 300 349
#     4   9  16  23  34  56  83 114 154 202 258 316
#     4   8  12  18  28  42  63  94 134 185 245 306
#     4   7   9  13  22  36  53  78 121 178 236 295
#     4   9  17  32  52  74 103 139 181 225 275 334
#
# _framework density 20.700299000000001
#
# number of rings (size 3 to 8) (size 9 to 14) (size 15 to 20)
#    0.000    3.000    0.909    3.000    0.000    4.727 
#    0.000    0.000    0.000    0.545    0.000    3.818 
#    0.000    0.000    0.000    0.000    0.000    0.909 
#
# Total GULP energy -545133.807170 kJ/mol
# GULP energy per Si atom -12389.404708 kJ/mol
# Density = 2.065318 g / cm^3
# Si number density = 20.700299 Si / 1000 Ang^3
#
#
#
# Elastic Constant Matrix: (Units=GPa)
#
#
# Indices 1 2 3 4 5 6 
#
# 1 125.8697 40.8404 69.8519 0.0000 0.0000 0.0000
# 2 40.8404 66.6015 28.5668 0.0000 0.0000 0.0000
# 3 69.8519 28.5668 120.5398 0.0000 0.0000 0.0000
# 4 0.0000 0.0000 0.0000 -73.5736 0.0000 0.0000
# 5 0.0000 0.0000 0.0000 0.0000 17.6528 0.0000
# 6 0.0000 0.0000 0.0000 0.0000 0.0000 15.9056
#
#
#
# Elastic Compliance Matrix: (Units=1/GPa)
#
#
# Indices 1 2 3 4 5 6 
#
# 1 0.013239 -0.005374 -0.006398 0.000000 0.000000 0.000000
# 2 -0.005374 0.018895 -0.001364 0.000000 0.000000 0.000000
# 3 -0.006398 -0.001364 0.012327 0.000000 0.000000 0.000000
# 4 0.000000 0.000000 0.000000 -0.013592 0.000000 0.000000
# 5 0.000000 0.000000 0.000000 0.000000 0.056648 0.000000
# 6 0.000000 0.000000 0.000000 0.000000 0.000000 0.062871
#
#
# Mechanical properties :
#
#
# Convention : Reuss Voigt Hill
#
# Bulk Modulus (GPa) = 54.97850 65.72544 60.35197
# Shear Modulus (GPa) = 27.36365 3.58042 15.47203
#
# Velocity S-wave (km/s) = 3.63973 1.31659 2.73688
# Velocity P-wave (km/s) = 6.65436 5.84218 6.26145
#
# Compressibility (1/GPa) = 0.01818893
#
# Stress axis : x y z
#
# Youngs Moduli (GPa) = 75.53306 52.92422 81.12228
#
# Poissons Ratio (x) = 0.28441 0.51906
# Poissons Ratio (y) = 0.40591 0.11063
# Poissons Ratio (z) = 0.48330 0.07218
#
# Static dielectric constant tensor:
#      x y z
#    x 3.612400 0.000000 0.000000 
#    y 0.000000 3.189650 0.000000 
#    z 0.000000 0.000000 4.183100 
# 
# 
# High freq. dielectric constant tensor:
#      x y z
#    x 1.788300 0.000000 0.000000 
#    y 0.000000 1.759700 0.000000 
#    z 0.000000 0.000000 1.831260 
# 
# From -- ./inp_files/76479.got.cif
#   From: 2010.03.12/outbox.cif.g09.slc.cpg/sg65_39_cif.got.tgz:76479.got - 2010.04.10 20:52:16.
