data_PCOD8274088
_publ_section_title
;
Structure prediction by ZEFSAII (Michael W. Deem and Ramdas Pophale) SiO2 
 PCOD8274088
Probable space group: C M M M
;
_chemical_formula_sum "Si O2"
_cell_formula_units_Z 56
_cell_length_a 17.522258
_cell_length_b 9.447386
_cell_length_c 16.320121
_cell_angle_alpha 90.000000
_cell_angle_beta 90.000000
_cell_angle_gamma 90.000000
_cell_volume 2701.625240
_symmetry_space_group_name_H-M "C M M M"
_symmetry_group_IT_number 65
_symmetry_cell_setting 'orthorhombic'
loop_
_space_group_symop_operation_xyz
x,y,z
-x,-y,z
x,-y,-z
-x,y,-z
-x,-y,-z
x,y,-z
-x,y,z
x,-y,z
1/2+x,1/2+y,z
1/2-x,1/2-y,z
1/2+x,1/2-y,-z
1/2-x,1/2+y,-z
1/2-x,1/2-y,-z
1/2+x,1/2+y,-z
1/2-x,1/2+y,z
1/2+x,1/2-y,z
loop_
_atom_site_type_symbol
_atom_site_label
_atom_site_fract_x
_atom_site_fract_y
_atom_site_fract_z
Si Si1 0.585546 0.717352 0.674769
Si Si2 0.369018 0.000000 0.598127
Si Si3 0.805169 0.000000 0.403903
Si Si4 0.589142 0.661045 0.138919
Si Si5 0.670402 0.171063 0.000000
O O1 0.500000 0.652862 0.663778
O O2 0.649903 0.636771 0.624763
O O3 0.608511 0.711039 0.769641
O O4 0.585482 0.872181 0.638068
O O5 0.376330 0.000000 0.500000
O O6 0.281312 0.000000 0.628897
O O7 0.801961 0.000000 0.500000
O O8 0.500000 0.663565 0.121039
O O9 0.620013 0.500000 0.124570
O O10 0.626949 0.776504 0.080583
O O11 0.750000 0.250000 0.000000
O O12 0.677510 0.000000 0.000000
#
# Coordination Sequence:
#
# PCOD8274088 Si02
#       5
#    16   8   8  16   8
#     4  11  23  41  66  95 127 170 222 272 325 389
#     4  11  25  41  59  92 135 176 217 275 340 389
#     4  11  23  41  63  90 127 172 221 269 330 397
#     4  10  22  44  69  95 130 170 213 268 331 389
#     4  12  27  44  67 101 135 171 215 262 315 386
#
# _framework density 20.728263999999999
#
# number of rings (size 3 to 8) (size 9 to 14) (size 15 to 20)
#    0.000    1.143    1.429    4.286    2.000   10.286 
#    0.000    0.000    0.000    0.000    0.000    0.000 
#    0.000    0.000    0.000    0.000    0.000    0.000 
#
# Total GULP energy -347184.992601 kJ/mol
# GULP energy per Si atom -12399.464021 kJ/mol
# Density = 2.068109 g / cm^3
# Si number density = 20.728264 Si / 1000 Ang^3
#
#
#
# Elastic Constant Matrix: (Units=GPa)
#
#
# Indices 1 2 3 4 5 6 
#
# 1 85.4318 23.8739 39.4879 0.0000 0.0000 0.0000
# 2 23.8739 156.1438 48.0380 0.0000 0.0000 0.0000
# 3 39.4879 48.0380 87.5502 0.0000 0.0000 0.0000
# 4 0.0000 0.0000 0.0000 45.7327 0.0000 0.0000
# 5 0.0000 0.0000 0.0000 0.0000 110.3182 0.0000
# 6 0.0000 0.0000 0.0000 0.0000 0.0000 40.3387
#
#
#
# Elastic Compliance Matrix: (Units=1/GPa)
#
#
# Indices 1 2 3 4 5 6 
#
# 1 0.014796 -0.000252 -0.006536 0.000000 0.000000 0.000000
# 2 -0.000252 0.007709 -0.004117 0.000000 0.000000 0.000000
# 3 -0.006536 -0.004117 0.016628 0.000000 0.000000 0.000000
# 4 0.000000 0.000000 0.000000 0.021866 0.000000 0.000000
# 5 0.000000 0.000000 0.000000 0.000000 0.009065 0.000000
# 6 0.000000 0.000000 0.000000 0.000000 0.000000 0.024790
#
#
# Mechanical properties :
#
#
# Convention : Reuss Voigt Hill
#
# Bulk Modulus (GPa) = 57.71442 61.32504 59.51973
# Shear Modulus (GPa) = 40.83694 53.79299 47.31497
#
# Velocity S-wave (km/s) = 4.44341 5.09979 4.78287
# Velocity P-wave (km/s) = 7.36403 8.02039 7.69921
#
# Compressibility (1/GPa) = 0.01732669
#
# Stress axis : x y z
#
# Youngs Moduli (GPa) = 67.58397 129.71378 60.13782
#
# Poissons Ratio (x) = 0.03264 0.39304
# Poissons Ratio (y) = 0.01701 0.24756
# Poissons Ratio (z) = 0.44170 0.53397
#
# Static dielectric constant tensor:
#      x y z
#    x 3.896380 0.000000 0.000000 
#    y 0.000000 5.847050 0.000000 
#    z 0.000000 0.000000 4.592750 
# 
# 
# High freq. dielectric constant tensor:
#      x y z
#    x 1.821030 0.000000 0.000000 
#    y 0.000000 1.820290 0.000000 
#    z 0.000000 0.000000 1.821090 
# 
# From -- ./inp_files/35516.got.cif
#   From: 2010.03.12/outbox.cif.g09.slc.cpg/sg65_18_cif.got.tgz:35516.got - 2010.04.10 20:52:16.
