data_PCOD8274639
_publ_section_title
;
Structure prediction by ZEFSAII (Michael W. Deem and Ramdas Pophale) SiO2 
 PCOD8274639
Probable space group: C M M M
;
_chemical_formula_sum "Si O2"
_cell_formula_units_Z 88
_cell_length_a 15.668088
_cell_length_b 12.214473
_cell_length_c 22.977031
_cell_angle_alpha 90.000000
_cell_angle_beta 90.000000
_cell_angle_gamma 90.000000
_cell_volume 4397.285322
_symmetry_space_group_name_H-M "C M M M"
_symmetry_group_IT_number 65
_symmetry_cell_setting 'orthorhombic'
loop_
_space_group_symop_operation_xyz
x,y,z
-x,-y,z
x,-y,-z
-x,y,-z
-x,-y,-z
x,y,-z
-x,y,z
x,-y,z
1/2+x,1/2+y,z
1/2-x,1/2-y,z
1/2+x,1/2-y,-z
1/2-x,1/2+y,-z
1/2-x,1/2-y,-z
1/2+x,1/2+y,-z
1/2-x,1/2+y,z
1/2+x,1/2-y,z
loop_
_atom_site_type_symbol
_atom_site_label
_atom_site_fract_x
_atom_site_fract_y
_atom_site_fract_z
Si Si1 0.402275 0.382275 0.562486
Si Si2 0.093426 0.500000 0.068030
Si Si3 0.600691 0.000000 0.430850
Si Si4 0.000000 0.130177 0.069170
Si Si5 0.152905 0.277225 0.118415
Si Si6 0.343029 0.798399 0.641395
Si Si7 0.599766 0.875700 0.233544
O O1 0.363918 0.338773 0.500000
O O2 0.500000 0.403198 0.551958
O O3 0.358837 0.500000 0.577821
O O4 0.396271 0.301088 0.616057
O O5 0.141139 0.392065 0.087104
O O6 0.000000 0.500000 0.097756
O O7 0.084477 0.500000 0.000000
O O8 0.650152 0.103842 0.404853
O O9 0.500000 0.000000 0.412791
O O10 0.609786 0.000000 0.500000
O O11 0.914447 0.185853 0.095727
O O12 0.000000 0.000000 0.083896
O O13 0.000000 0.149724 0.000000
O O14 0.250000 0.250000 0.103019
O O15 0.143654 0.293741 0.187757
O O16 0.250000 0.750000 0.649577
O O17 0.380853 0.834923 0.702287
O O18 0.500000 0.872376 0.222074
O O19 0.634179 0.000000 0.225504
#
# Coordination Sequence:
#
# PCOD8274639 Si02
#       7
#    16   8   8   8  16  16  16
#     4   9  19  37  60  84 117 162 206 251 311 389
#     4  11  22  41  71 104 137 181 238 287 328 395
#     4  11  24  43  67  95 129 173 225 277 338 414
#     4  11  26  47  69 101 151 194 223 274 348 415
#     4  12  25  44  70 105 139 182 236 289 347 408
#     4  12  25  39  61  96 128 165 214 272 337 400
#     4  11  22  43  72  95 125 174 227 285 340 399
#
# _framework density 20.012347999999999
#
# number of rings (size 3 to 8) (size 9 to 14) (size 15 to 20)
#    0.000    1.000    3.636    3.818    2.545    4.364 
#    0.000    0.909    0.000    0.000    0.000    0.000 
#    0.000    0.000    0.000    0.000    0.000    0.000 
#
# Total GULP energy -545315.302889 kJ/mol
# GULP energy per Si atom -12393.529611 kJ/mol
# Density = 1.996680 g / cm^3
# Si number density = 20.012348 Si / 1000 Ang^3
#
#
#
# Elastic Constant Matrix: (Units=GPa)
#
#
# Indices 1 2 3 4 5 6 
#
# 1 96.1039 48.9302 32.4200 0.0000 0.0000 0.0000
# 2 48.9302 144.7418 58.8807 0.0000 0.0000 0.0000
# 3 32.4200 58.8807 122.2670 0.0000 0.0000 0.0000
# 4 0.0000 0.0000 0.0000 36.2320 0.0000 0.0000
# 5 0.0000 0.0000 0.0000 0.0000 24.2332 0.0000
# 6 0.0000 0.0000 0.0000 0.0000 0.0000 379.0607
#
#
#
# Elastic Compliance Matrix: (Units=1/GPa)
#
#
# Indices 1 2 3 4 5 6 
#
# 1 0.012825 -0.003672 -0.001633 0.000000 0.000000 0.000000
# 2 -0.003672 0.009643 -0.003670 0.000000 0.000000 0.000000
# 3 -0.001633 -0.003670 0.010379 0.000000 0.000000 0.000000
# 4 0.000000 0.000000 0.000000 0.027600 0.000000 0.000000
# 5 0.000000 0.000000 0.000000 0.000000 0.041266 0.000000
# 6 0.000000 0.000000 0.000000 0.000000 0.000000 0.002638
#
#
# Mechanical properties :
#
#
# Convention : Reuss Voigt Hill
#
# Bulk Modulus (GPa) = 67.11941 71.50829 69.31385
# Shear Modulus (GPa) = 39.28752 102.76397 71.02575
#
# Velocity S-wave (km/s) = 4.43557 7.17369 5.96389
# Velocity P-wave (km/s) = 7.73590 10.21887 9.06282
#
# Compressibility (1/GPa) = 0.01489882
#
# Stress axis : x y z
#
# Youngs Moduli (GPa) = 77.96982 103.70111 96.34573
#
# Poissons Ratio (x) = 0.38074 0.15730
# Poissons Ratio (y) = 0.28627 0.35362
# Poissons Ratio (z) = 0.12730 0.38062
#
# Static dielectric constant tensor:
#      x y z
#    x 3.592480 0.000000 0.000000 
#    y 0.000000 3.820470 0.000000 
#    z 0.000000 0.000000 3.418010 
# 
# 
# High freq. dielectric constant tensor:
#      x y z
#    x 1.775890 0.000000 0.000000 
#    y 0.000000 1.792710 0.000000 
#    z 0.000000 0.000000 1.793750 
# 
# From -- ./inp_files/69834.got.cif
#   From: 2010.03.12/outbox.cif.g09.slc.cpg/sg65_35_cif.got.tgz:69834.got - 2010.04.10 20:52:16.
