data_PCOD8274652
_publ_section_title
;
Structure prediction by ZEFSAII (Michael W. Deem and Ramdas Pophale) SiO2 
 PCOD8274652
Probable space group: C M M M
;
_chemical_formula_sum "Si O2"
_cell_formula_units_Z 80
_cell_length_a 23.789983
_cell_length_b 26.144341
_cell_length_c 8.830941
_cell_angle_alpha 90.000000
_cell_angle_beta 90.000000
_cell_angle_gamma 90.000000
_cell_volume 5492.610646
_symmetry_space_group_name_H-M "C M M M"
_symmetry_group_IT_number 65
_symmetry_cell_setting 'orthorhombic'
loop_
_space_group_symop_operation_xyz
x,y,z
-x,-y,z
x,-y,-z
-x,y,-z
-x,-y,-z
x,y,-z
-x,y,z
x,-y,z
1/2+x,1/2+y,z
1/2-x,1/2-y,z
1/2+x,1/2-y,-z
1/2-x,1/2+y,-z
1/2-x,1/2-y,-z
1/2+x,1/2+y,-z
1/2-x,1/2+y,z
1/2+x,1/2-y,z
loop_
_atom_site_type_symbol
_atom_site_label
_atom_site_fract_x
_atom_site_fract_y
_atom_site_fract_z
Si Si1 0.500000 0.897118 0.321501
Si Si2 0.612013 0.758323 0.678190
Si Si3 0.391142 0.941064 0.826068
Si Si4 0.500000 0.214185 0.821985
Si Si5 0.817076 0.359983 0.321798
Si Si6 0.214973 0.800215 0.324018
O O1 0.500000 0.890524 0.500000
O O2 0.554516 0.928424 0.272749
O O3 0.500000 0.841249 0.251641
O O4 0.600041 0.752791 0.500000
O O5 0.554434 0.754130 0.769977
O O6 0.641209 0.812783 0.710882
O O7 0.652049 0.711256 0.738882
O O8 0.337606 0.908953 0.770463
O O9 0.375245 0.000000 0.804392
O O10 0.404617 0.927941 0.000000
O O11 0.500000 0.207802 0.000000
O O12 0.816656 0.372277 0.500000
O O13 0.753206 0.347132 0.261177
O O14 0.208419 0.809602 0.500000
O O15 0.250000 0.750000 0.291308
#
# Coordination Sequence:
#
# PCOD8274652 Si02
#       6
#     8  16  16   8  16  16
#     4  12  23  35  48  59  74 106 150 189 221 251
#     4   9  16  28  45  63  83 109 140 170 206 251
#     4  11  23  35  45  60  84 111 139 178 224 258
#     4  12  22  29  41  62  90 115 139 175 214 249
#     4   9  16  28  47  65  81 105 139 175 209 249
#     4   7  12  24  43  65  83 101 131 171 208 244
#
# _framework density 14.565023999999999
#
# number of rings (size 3 to 8) (size 9 to 14) (size 15 to 20)
#    0.000    2.400    2.000    5.100    0.000    2.800 
#    0.000    1.000    0.000    3.600    0.000    0.000 
#    0.000    0.000    0.000    0.900    0.000   18.800 
#
# Total GULP energy -495562.821320 kJ/mol
# GULP energy per Si atom -12389.070533 kJ/mol
# Density = 1.453187 g / cm^3
# Si number density = 14.565024 Si / 1000 Ang^3
#
#
#
# Elastic Constant Matrix: (Units=GPa)
#
#
# Indices 1 2 3 4 5 6 
#
# 1 114.1740 59.6503 49.8670 0.0000 0.0000 0.0000
# 2 59.6503 58.8841 30.4070 0.0000 0.0000 0.0000
# 3 49.8670 30.4070 71.9404 0.0000 0.0000 0.0000
# 4 0.0000 0.0000 0.0000 16.1070 0.0000 0.0000
# 5 0.0000 0.0000 0.0000 0.0000 3.3057 0.0000
# 6 0.0000 0.0000 0.0000 0.0000 0.0000 12.6740
#
#
#
# Elastic Compliance Matrix: (Units=1/GPa)
#
#
# Indices 1 2 3 4 5 6 
#
# 1 0.021148 -0.017722 -0.007169 0.000000 0.000000 0.000000
# 2 -0.017722 0.036574 -0.003175 0.000000 0.000000 0.000000
# 3 -0.007169 -0.003175 0.020212 0.000000 0.000000 0.000000
# 4 0.000000 0.000000 0.000000 0.062085 0.000000 0.000000
# 5 0.000000 0.000000 0.000000 0.000000 0.302506 0.000000
# 6 0.000000 0.000000 0.000000 0.000000 0.000000 0.078902
#
#
# Mechanical properties :
#
#
# Convention : Reuss Voigt Hill
#
# Bulk Modulus (GPa) = 45.86432 58.31636 52.09034
# Shear Modulus (GPa) = 8.54957 13.42229 10.98593
#
# Velocity S-wave (km/s) = 2.42542 3.03899 2.74937
# Velocity P-wave (km/s) = 6.27704 7.24151 6.77646
#
# Compressibility (1/GPa) = 0.02180344
#
# Stress axis : x y z
#
# Youngs Moduli (GPa) = 47.28489 27.34183 49.47646
#
# Poissons Ratio (x) = 0.48454 0.35470
# Poissons Ratio (y) = 0.83796 0.15707
# Poissons Ratio (z) = 0.33899 0.08680
#
# Static dielectric constant tensor:
#      x y z
#    x 3.182450 0.000000 0.000000 
#    y 0.000000 2.702220 0.000000 
#    z 0.000000 0.000000 2.742340 
# 
# 
# High freq. dielectric constant tensor:
#      x y z
#    x 1.556340 0.000000 0.000000 
#    y 0.000000 1.515810 0.000000 
#    z 0.000000 0.000000 1.547390 
# 
# From -- ./inp_files/16613.got.cif
#   From: 2010.03.12/outbox.cif.g09.slc.cpg/sg65_9_cif.got.tgz:16613.got - 2010.04.10 20:52:16.
