data_PCOD8274371
_publ_section_title
;
Structure prediction by ZEFSAII (Michael W. Deem and Ramdas Pophale) SiO2 
 PCOD8274371
Probable space group: C M M M
;
_chemical_formula_sum "Si O2"
_cell_formula_units_Z 104
_cell_length_a 27.916408
_cell_length_b 22.605117
_cell_length_c 8.950593
_cell_angle_alpha 90.000000
_cell_angle_beta 90.000000
_cell_angle_gamma 90.000000
_cell_volume 5648.304553
_symmetry_space_group_name_H-M "C M M M"
_symmetry_group_IT_number 65
_symmetry_cell_setting 'orthorhombic'
loop_
_space_group_symop_operation_xyz
x,y,z
-x,-y,z
x,-y,-z
-x,y,-z
-x,-y,-z
x,y,-z
-x,y,z
x,-y,z
1/2+x,1/2+y,z
1/2-x,1/2-y,z
1/2+x,1/2-y,-z
1/2-x,1/2+y,-z
1/2-x,1/2-y,-z
1/2+x,1/2+y,-z
1/2-x,1/2+y,z
1/2+x,1/2-y,z
loop_
_atom_site_type_symbol
_atom_site_label
_atom_site_fract_x
_atom_site_fract_y
_atom_site_fract_z
Si Si1 0.556416 0.434150 0.334294
Si Si2 0.555218 0.772874 0.327397
Si Si3 0.105129 0.379329 0.822902
Si Si4 0.695329 0.824064 0.326761
Si Si5 0.605970 0.334662 0.172466
Si Si6 0.444943 0.000000 0.177213
Si Si7 0.302714 0.686126 0.326243
O O1 0.571344 0.410903 0.500000
O O2 0.500000 0.434883 0.321146
O O3 0.576876 0.500000 0.310411
O O4 0.576063 0.393383 0.203147
O O5 0.567625 0.784228 0.500000
O O6 0.500000 0.756772 0.302925
O O7 0.567629 0.831322 0.235925
O O8 0.586463 0.718711 0.271193
O O9 0.158720 0.365581 0.763914
O O10 0.084973 0.442719 0.766882
O O11 0.106848 0.376665 0.000000
O O12 0.685372 0.835752 0.500000
O O13 0.689349 0.755138 0.288473
O O14 0.750240 0.838976 0.284677
O O15 0.660195 0.349018 0.222577
O O16 0.602784 0.317377 0.000000
O O17 0.500000 0.000000 0.240296
O O18 0.447865 0.000000 0.000000
O O19 0.312761 0.674686 0.500000
#
# Coordination Sequence:
#
# PCOD8274371 Si02
#       7
#    16  16  16  16  16   8  16
#     4   9  19  37  59  79 103 143 189 224 261 318
#     4  11  23  37  53  76 110 148 184 225 273 325
#     4  11  21  35  58  84 110 144 185 231 283 337
#     4   9  18  34  57  82 108 142 180 221 270 327
#     4  12  23  33  52  84 115 143 177 223 276 327
#     4   9  20  38  57  79 113 155 191 225 278 349
#     4   9  18  34  56  80 110 146 181 217 267 329
#
# _framework density 18.412606
#
# number of rings (size 3 to 8) (size 9 to 14) (size 15 to 20)
#    0.000    1.923    1.538    4.615    0.000    4.923 
#    0.000    3.846    1.692    2.769    0.000    0.000 
#    0.000    0.000    0.000    0.000    0.000    0.000 
#
# Total GULP energy -644714.840163 kJ/mol
# GULP energy per Si atom -12398.362311 kJ/mol
# Density = 1.837070 g / cm^3
# Si number density = 18.412606 Si / 1000 Ang^3
#
#
#
# Elastic Constant Matrix: (Units=GPa)
#
#
# Indices 1 2 3 4 5 6 
#
# 1 112.1268 45.1471 45.4244 0.0000 0.0000 0.0000
# 2 45.1471 82.2505 33.0204 0.0000 0.0000 0.0000
# 3 45.4244 33.0204 69.5629 0.0000 0.0000 0.0000
# 4 0.0000 0.0000 0.0000 26.7330 0.0000 0.0000
# 5 0.0000 0.0000 0.0000 0.0000 24.3620 0.0000
# 6 0.0000 0.0000 0.0000 0.0000 0.0000 19.1517
#
#
#
# Elastic Compliance Matrix: (Units=1/GPa)
#
#
# Indices 1 2 3 4 5 6 
#
# 1 0.013493 -0.004780 -0.006542 0.000000 0.000000 0.000000
# 2 -0.004780 0.016714 -0.004812 0.000000 0.000000 0.000000
# 3 -0.006542 -0.004812 0.020932 0.000000 0.000000 0.000000
# 4 0.000000 0.000000 0.000000 0.037407 0.000000 0.000000
# 5 0.000000 0.000000 0.000000 0.000000 0.041048 0.000000
# 6 0.000000 0.000000 0.000000 0.000000 0.000000 0.052215
#
#
# Mechanical properties :
#
#
# Convention : Reuss Voigt Hill
#
# Bulk Modulus (GPa) = 52.99467 56.79154 54.89310
# Shear Modulus (GPa) = 22.68936 23.40589 23.04762
#
# Velocity S-wave (km/s) = 3.51418 3.56924 3.54182
# Velocity P-wave (km/s) = 6.73128 6.92075 6.82667
#
# Compressibility (1/GPa) = 0.01886982
#
# Stress axis : x y z
#
# Youngs Moduli (GPa) = 74.10981 59.83103 47.77411
#
# Poissons Ratio (x) = 0.28600 0.31255
# Poissons Ratio (y) = 0.35425 0.22991
# Poissons Ratio (z) = 0.48484 0.28793
#
# Static dielectric constant tensor:
#      x y z
#    x 3.583630 0.000000 0.000000 
#    y 0.000000 3.364200 0.000000 
#    z 0.000000 0.000000 3.272870 
# 
# 
# High freq. dielectric constant tensor:
#      x y z
#    x 1.726220 0.000000 0.000000 
#    y 0.000000 1.693770 0.000000 
#    z 0.000000 0.000000 1.705690 
# 
# From -- ./inp_files/16522.got.cif
#   From: 2010.03.12/outbox.cif.g09.slc.cpg/sg65_9_cif.got.tgz:16522.got - 2010.04.10 20:52:16.
