data_PCOD8274394
_publ_section_title
;
Structure prediction by ZEFSAII (Michael W. Deem and Ramdas Pophale) SiO2 
 PCOD8274394
Probable space group: C M M M
;
_chemical_formula_sum "Si O2"
_cell_formula_units_Z 104
_cell_length_a 25.919437
_cell_length_b 22.934631
_cell_length_c 7.854782
_cell_angle_alpha 90.000000
_cell_angle_beta 90.000000
_cell_angle_gamma 90.000000
_cell_volume 4669.296551
_symmetry_space_group_name_H-M "C M M M"
_symmetry_group_IT_number 65
_symmetry_cell_setting 'orthorhombic'
loop_
_space_group_symop_operation_xyz
x,y,z
-x,-y,z
x,-y,-z
-x,y,-z
-x,-y,-z
x,y,-z
-x,y,z
x,-y,z
1/2+x,1/2+y,z
1/2-x,1/2-y,z
1/2+x,1/2-y,-z
1/2-x,1/2+y,-z
1/2-x,1/2-y,-z
1/2+x,1/2+y,-z
1/2-x,1/2+y,z
1/2+x,1/2-y,z
loop_
_atom_site_type_symbol
_atom_site_label
_atom_site_fract_x
_atom_site_fract_y
_atom_site_fract_z
Si Si1 0.288756 0.883144 0.805369
Si Si2 0.397398 0.856542 0.689334
Si Si3 0.375396 0.500000 0.203367
Si Si4 0.058119 0.108821 0.202221
Si Si5 0.061019 0.432497 0.000000
Si Si6 0.207705 0.798624 0.311196
Si Si7 0.758760 0.000000 0.202493
Si Si8 0.098991 0.769087 0.806480
O O1 0.334949 0.854945 0.696991
O O2 0.234212 0.850754 0.790676
O O3 0.275455 0.946515 0.732385
O O4 0.307553 0.884897 0.000000
O O5 0.414262 0.877095 0.500000
O O6 0.418306 0.790414 0.712753
O O7 0.418884 0.901137 0.829365
O O8 0.404408 0.441945 0.273038
O O9 0.317149 0.500000 0.276496
O O10 0.376951 0.500000 0.000000
O O11 0.073506 0.172778 0.275726
O O12 0.000000 0.094002 0.259666
O O13 0.063004 0.111503 0.000000
O O14 0.079911 0.500000 0.000000
O O15 0.000000 0.429031 0.000000
O O16 0.188962 0.817869 0.500000
O O17 0.250000 0.750000 0.329878
O O18 0.160500 0.775762 0.199859
O O19 0.764080 0.000000 0.000000
O O20 0.081026 0.761664 0.000000
#
# Coordination Sequence:
#
# PCOD8274394 Si02
#       8
#    16  16   8  16   8  16   8  16
#     4  11  21  37  61  93 132 176 221 265 331 401
#     4  12  25  44  71 105 139 175 221 277 339 404
#     4   9  15  30  51  83 128 174 226 277 331 390
#     4   9  18  31  54  87 124 168 222 284 339 391
#     4  11  28  54  80 103 132 173 221 274 339 412
#     4  11  22  35  54  84 125 169 218 270 321 392
#     4   9  20  33  55  90 128 168 213 264 314 391
#     4  11  21  37  60  93 132 180 229 275 340 411
#
# _framework density 22.273161999999999
#
# number of rings (size 3 to 8) (size 9 to 14) (size 15 to 20)
#    0.000    1.462    3.077    2.538    1.077    5.231 
#    0.000    1.923    0.000    1.385    0.000    1.615 
#    0.000    6.154    0.000    0.000    0.000    0.000 
#
# Total GULP energy -644676.913838 kJ/mol
# GULP energy per Si atom -12397.632958 kJ/mol
# Density = 2.222247 g / cm^3
# Si number density = 22.273162 Si / 1000 Ang^3
#
#
#
# Elastic Constant Matrix: (Units=GPa)
#
#
# Indices 1 2 3 4 5 6 
#
# 1 55.2960 22.5476 13.3947 0.0000 0.0000 0.0000
# 2 22.5476 162.0461 39.0902 0.0000 0.0000 0.0000
# 3 13.3947 39.0902 91.0649 0.0000 0.0000 0.0000
# 4 0.0000 0.0000 0.0000 9.8640 0.0000 0.0000
# 5 0.0000 0.0000 0.0000 0.0000 -12.7176 0.0000
# 6 0.0000 0.0000 0.0000 0.0000 0.0000 37.6423
#
#
#
# Elastic Compliance Matrix: (Units=1/GPa)
#
#
# Indices 1 2 3 4 5 6 
#
# 1 0.019462 -0.002250 -0.001897 0.000000 0.000000 0.000000
# 2 -0.002250 0.007144 -0.002736 0.000000 0.000000 0.000000
# 3 -0.001897 -0.002736 0.012434 0.000000 0.000000 0.000000
# 4 0.000000 0.000000 0.000000 0.101379 0.000000 0.000000
# 5 0.000000 0.000000 0.000000 0.000000 -0.078631 0.000000
# 6 0.000000 0.000000 0.000000 0.000000 0.000000 0.026566
#
#
# Mechanical properties :
#
#
# Convention : Reuss Voigt Hill
#
# Bulk Modulus (GPa) = 39.56510 50.94133 45.25321
# Shear Modulus (GPa) = 45.23091 22.51604 33.87348
#
# Velocity S-wave (km/s) = 4.51126 3.18292 3.90400
# Velocity P-wave (km/s) = 6.70354 6.03563 6.37833
#
# Compressibility (1/GPa) = 0.02527480
#
# Stress axis : x y z
#
# Youngs Moduli (GPa) = 51.38340 139.97497 80.42179
#
# Poissons Ratio (x) = 0.31500 0.15253
# Poissons Ratio (y) = 0.11564 0.22001
# Poissons Ratio (z) = 0.09745 0.38292
#
# Static dielectric constant tensor:
#      x y z
#    x 4.741670 0.000000 0.000000 
#    y 0.000000 5.223520 0.000000 
#    z 0.000000 0.000000 3.815110 
# 
# 
# High freq. dielectric constant tensor:
#      x y z
#    x 1.868760 0.000000 0.000000 
#    y 0.000000 1.889770 0.000000 
#    z 0.000000 0.000000 1.848990 
# 
# From -- ./inp_files/16845.got.cif
#   From: 2010.03.12/outbox.cif.g09.slc.cpg/sg65_9_cif.got.tgz:16845.got - 2010.04.10 20:52:16.
