data_PCOD8274055
_publ_section_title
;
Structure prediction by ZEFSAII (Michael W. Deem and Ramdas Pophale) SiO2 
 PCOD8274055
Probable space group: C M M M
;
_chemical_formula_sum "Si O2"
_cell_formula_units_Z 72
_cell_length_a 17.705872
_cell_length_b 22.121643
_cell_length_c 9.017403
_cell_angle_alpha 90.000000
_cell_angle_beta 90.000000
_cell_angle_gamma 90.000000
_cell_volume 3531.963273
_symmetry_space_group_name_H-M "C M M M"
_symmetry_group_IT_number 65
_symmetry_cell_setting 'orthorhombic'
loop_
_space_group_symop_operation_xyz
x,y,z
-x,-y,z
x,-y,-z
-x,y,-z
-x,-y,-z
x,y,-z
-x,y,z
x,-y,z
1/2+x,1/2+y,z
1/2-x,1/2-y,z
1/2+x,1/2-y,-z
1/2-x,1/2+y,-z
1/2-x,1/2-y,-z
1/2+x,1/2+y,-z
1/2-x,1/2+y,z
1/2+x,1/2-y,z
loop_
_atom_site_type_symbol
_atom_site_label
_atom_site_fract_x
_atom_site_fract_y
_atom_site_fract_z
Si Si1 0.584754 0.234117 0.329085
Si Si2 0.690143 0.656281 0.673151
Si Si3 0.153658 0.626577 0.824344
Si Si4 0.085849 0.500000 0.176194
Si Si5 0.414635 0.570913 0.165887
O O1 0.599722 0.217408 0.500000
O O2 0.500000 0.260153 0.307816
O O3 0.646118 0.283349 0.275462
O O4 0.591044 0.173795 0.231093
O O5 0.707975 0.657873 0.500000
O O6 0.767393 0.649211 0.760178
O O7 0.637616 0.599582 0.709494
O O8 0.130664 0.559526 0.767345
O O9 0.157897 0.627318 0.000000
O O10 0.000000 0.500000 0.239115
O O11 0.082474 0.500000 0.000000
O O12 0.500000 0.592444 0.192568
O O13 0.407839 0.500000 0.184240
O O14 0.388392 0.590020 0.000000
#
# Coordination Sequence:
#
# PCOD8274055 Si02
#       5
#    16  16  16   8  16
#     4  10  22  41  62  85 118 158 197 244 301 357
#     4  11  23  38  58  86 122 160 199 241 294 359
#     4  11  23  39  62  90 119 154 198 249 301 356
#     4   9  20  40  63  87 116 151 192 241 297 352
#     4   9  19  36  57  82 115 155 200 250 300 350
#
# _framework density 20.385262999999998
#
# number of rings (size 3 to 8) (size 9 to 14) (size 15 to 20)
#    0.000    1.889    0.000    4.000    1.556    7.556 
#    0.000    2.778    0.000    4.000    0.000    0.000 
#    0.000    0.000    0.000    0.000    0.000    0.000 
#
# Total GULP energy -446428.165623 kJ/mol
# GULP energy per Si atom -12400.782378 kJ/mol
# Density = 2.033886 g / cm^3
# Si number density = 20.385263 Si / 1000 Ang^3
#
#
#
# Elastic Constant Matrix: (Units=GPa)
#
#
# Indices 1 2 3 4 5 6 
#
# 1 121.8098 68.1628 39.8177 0.0000 0.0000 0.0000
# 2 68.1628 107.9680 43.0562 0.0000 0.0000 0.0000
# 3 39.8177 43.0562 60.8631 0.0000 0.0000 0.0000
# 4 0.0000 0.0000 0.0000 32.1122 0.0000 0.0000
# 5 0.0000 0.0000 0.0000 0.0000 35.7727 0.0000
# 6 0.0000 0.0000 0.0000 0.0000 0.0000 69.1835
#
#
#
# Elastic Compliance Matrix: (Units=1/GPa)
#
#
# Indices 1 2 3 4 5 6 
#
# 1 0.013311 -0.006869 -0.003849 0.000000 0.000000 0.000000
# 2 -0.006869 0.016446 -0.007141 0.000000 0.000000 0.000000
# 3 -0.003849 -0.007141 0.024000 0.000000 0.000000 0.000000
# 4 0.000000 0.000000 0.000000 0.031141 0.000000 0.000000
# 5 0.000000 0.000000 0.000000 0.000000 0.027954 0.000000
# 6 0.000000 0.000000 0.000000 0.000000 0.000000 0.014454
#
#
# Mechanical properties :
#
#
# Convention : Reuss Voigt Hill
#
# Bulk Modulus (GPa) = 55.43265 65.85712 60.64488
# Shear Modulus (GPa) = 29.57910 36.72063 33.14986
#
# Velocity S-wave (km/s) = 3.81334 4.24882 4.03695
# Velocity P-wave (km/s) = 6.82937 7.51307 7.17936
#
# Compressibility (1/GPa) = 0.01803991
#
# Stress axis : x y z
#
# Youngs Moduli (GPa) = 75.12309 60.80503 41.66622
#
# Poissons Ratio (x) = 0.41765 0.16039
# Poissons Ratio (y) = 0.51600 0.29753
# Poissons Ratio (z) = 0.28919 0.43419
#
# Static dielectric constant tensor:
#      x y z
#    x 3.841420 0.000000 0.000000 
#    y 0.000000 3.838480 0.000000 
#    z 0.000000 0.000000 3.616610 
# 
# 
# High freq. dielectric constant tensor:
#      x y z
#    x 1.810390 0.000000 0.000000 
#    y 0.000000 1.803050 0.000000 
#    z 0.000000 0.000000 1.781160 
# 
# From -- ./inp_files/11205.got.cif
#   From: 2010.03.12/outbox.cif.g09.slc.cpg/sg65_6_cif.got.tgz:11205.got - 2010.04.10 20:52:16.
