data_PCOD8274210
_publ_section_title
;
Structure prediction by ZEFSAII (Michael W. Deem and Ramdas Pophale) SiO2 
 PCOD8274210
Probable space group: C M M M
;
_chemical_formula_sum "Si O2"
_cell_formula_units_Z 80
_cell_length_a 18.412797
_cell_length_b 30.172433
_cell_length_c 9.873604
_cell_angle_alpha 90.000000
_cell_angle_beta 90.000000
_cell_angle_gamma 90.000000
_cell_volume 5485.368418
_symmetry_space_group_name_H-M "C M M M"
_symmetry_group_IT_number 65
_symmetry_cell_setting 'orthorhombic'
loop_
_space_group_symop_operation_xyz
x,y,z
-x,-y,z
x,-y,-z
-x,y,-z
-x,-y,-z
x,y,-z
-x,y,z
x,-y,z
1/2+x,1/2+y,z
1/2-x,1/2-y,z
1/2+x,1/2-y,-z
1/2-x,1/2+y,-z
1/2-x,1/2-y,-z
1/2+x,1/2+y,-z
1/2-x,1/2+y,z
1/2+x,1/2-y,z
loop_
_atom_site_type_symbol
_atom_site_label
_atom_site_fract_x
_atom_site_fract_y
_atom_site_fract_z
Si Si1 0.220801 0.680983 0.656166
Si Si2 0.500000 0.734932 0.842466
Si Si3 0.086362 0.552006 0.000000
Si Si4 0.585717 0.051544 0.500000
Si Si5 0.000000 0.660557 0.844565
Si Si6 0.130863 0.393765 0.752152
Si Si7 0.864995 0.768922 0.342205
O O1 0.204947 0.670541 0.500000
O O2 0.203662 0.636213 0.741283
O O3 0.169269 0.721791 0.700392
O O4 0.304596 0.693167 0.678880
O O5 0.500000 0.787335 0.839558
O O6 0.429688 0.718120 0.759995
O O7 0.500000 0.718067 0.000000
O O8 0.129493 0.572878 0.123790
O O9 0.098484 0.500000 0.000000
O O10 0.000000 0.562914 0.000000
O O11 0.500000 0.058885 0.500000
O O12 0.621915 0.074254 0.373112
O O13 0.605513 0.000000 0.500000
O O14 0.068188 0.642633 0.762776
O O15 0.000000 0.643364 0.000000
O O16 0.890569 0.767996 0.500000
#
# Coordination Sequence:
#
# PCOD8274210 Si02
#       7
#    16   8   8   8   8  16  16
#     4   9  18  31  48  68  90 117 157 196 228 270
#     4  11  21  31  45  68  98 118 153 199 230 262
#     4  11  22  34  46  61  88 127 163 196 233 275
#     4  11  22  30  42  67  92 115 151 204 243 263
#     4  11  20  30  41  65  89 123 161 190 226 271
#     4  12  18  32  47  62  88 121 161 196 229 270
#     4   9  18  33  48  66  91 122 154 188 231 275
#
# _framework density 14.584253
#
# number of rings (size 3 to 8) (size 9 to 14) (size 15 to 20)
#    0.000    1.600    6.000    2.100    0.000    1.600 
#    3.600    1.000    0.000    0.000    0.000    0.000 
#    0.000    0.000    0.000    5.400    0.000    0.100 
#
# Total GULP energy -495773.210710 kJ/mol
# GULP energy per Si atom -12394.330268 kJ/mol
# Density = 1.455106 g / cm^3
# Si number density = 14.584253 Si / 1000 Ang^3
#
#
#
# Elastic Constant Matrix: (Units=GPa)
#
#
# Indices 1 2 3 4 5 6 
#
# 1 75.6777 37.0443 44.1261 0.0000 0.0000 0.0000
# 2 37.0443 89.4287 42.0883 0.0000 0.0000 0.0000
# 3 44.1261 42.0883 103.2132 0.0000 0.0000 0.0000
# 4 0.0000 0.0000 0.0000 24.6882 0.0000 0.0000
# 5 0.0000 0.0000 0.0000 0.0000 -14.3443 0.0000
# 6 0.0000 0.0000 0.0000 0.0000 0.0000 26.5228
#
#
#
# Elastic Compliance Matrix: (Units=1/GPa)
#
#
# Indices 1 2 3 4 5 6 
#
# 1 0.019308 -0.005090 -0.006179 0.000000 0.000000 0.000000
# 2 -0.005090 0.015180 -0.004014 0.000000 0.000000 0.000000
# 3 -0.006179 -0.004014 0.013967 0.000000 0.000000 0.000000
# 4 0.000000 0.000000 0.000000 0.040505 0.000000 0.000000
# 5 0.000000 0.000000 0.000000 0.000000 -0.069714 0.000000
# 6 0.000000 0.000000 0.000000 0.000000 0.000000 0.037703
#
#
# Mechanical properties :
#
#
# Convention : Reuss Voigt Hill
#
# Bulk Modulus (GPa) = 55.89992 57.20410 56.55201
# Shear Modulus (GPa) = 53.48802 17.04408 35.26605
#
# Velocity S-wave (km/s) = 6.06257 3.42228 4.92274
# Velocity P-wave (km/s) = 9.34979 7.41110 8.43632
#
# Compressibility (1/GPa) = 0.01788911
#
# Stress axis : x y z
#
# Youngs Moduli (GPa) = 51.79070 65.87791 71.59628
#
# Poissons Ratio (x) = 0.33532 0.44241
# Poissons Ratio (y) = 0.26362 0.28737
# Poissons Ratio (z) = 0.32003 0.26442
#
# Static dielectric constant tensor:
#      x y z
#    x 2.633170 0.000000 0.000000 
#    y 0.000000 2.767530 0.000000 
#    z 0.000000 0.000000 2.889960 
# 
# 
# High freq. dielectric constant tensor:
#      x y z
#    x 1.527180 0.000000 0.000000 
#    y 0.000000 1.544160 0.000000 
#    z 0.000000 0.000000 1.565290 
# 
# From -- ./inp_files/12588.got.cif
#   From: 2010.03.12/outbox.cif.g09.slc.cpg/sg65_7_cif.got.tgz:12588.got - 2010.04.10 20:52:16.
