data_PCOD8274549
_publ_section_title
;
Structure prediction by ZEFSAII (Michael W. Deem and Ramdas Pophale) SiO2 
 PCOD8274549
Probable space group: C M M M
;
_chemical_formula_sum "Si O2"
_cell_formula_units_Z 80
_cell_length_a 8.884305
_cell_length_b 16.836047
_cell_length_c 27.235137
_cell_angle_alpha 90.000000
_cell_angle_beta 90.000000
_cell_angle_gamma 90.000000
_cell_volume 4073.738554
_symmetry_space_group_name_H-M "C M M M"
_symmetry_group_IT_number 65
_symmetry_cell_setting 'orthorhombic'
loop_
_space_group_symop_operation_xyz
x,y,z
-x,-y,z
x,-y,-z
-x,y,-z
-x,-y,-z
x,y,-z
-x,y,z
x,-y,z
1/2+x,1/2+y,z
1/2-x,1/2-y,z
1/2+x,1/2-y,-z
1/2-x,1/2+y,-z
1/2-x,1/2-y,-z
1/2+x,1/2+y,-z
1/2-x,1/2+y,z
1/2+x,1/2-y,z
loop_
_atom_site_type_symbol
_atom_site_label
_atom_site_fract_x
_atom_site_fract_y
_atom_site_fract_z
Si Si1 0.177735 0.500000 0.556331
Si Si2 0.823071 0.331007 0.718397
Si Si3 0.335433 0.409202 0.000000
Si Si4 0.678877 0.086540 0.185652
Si Si5 0.678635 0.832412 0.088373
Si Si6 0.178486 0.664056 0.607327
O O1 0.227792 0.500000 0.500000
O O2 0.238292 0.584405 0.578947
O O3 0.000000 0.500000 0.563616
O O4 0.750000 0.250000 0.734959
O O5 0.764799 0.392430 0.759402
O O6 0.773706 0.354736 0.663404
O O7 0.000000 0.320853 0.720087
O O8 0.237828 0.393395 0.951650
O O9 0.372463 0.500000 0.000000
O O10 0.500000 0.364777 0.000000
O O11 0.500000 0.086313 0.185185
O O12 0.737558 0.144777 0.142984
O O13 0.743662 0.000000 0.173487
O O14 0.500000 0.829058 0.086382
O O15 0.750000 0.750000 0.073148
O O16 0.250000 0.750000 0.590312
O O17 0.000000 0.673484 0.600241
#
# Coordination Sequence:
#
# PCOD8274549 Si02
#       6
#     8  16   8  16  16  16
#     4   9  18  32  51  77 107 141 185 230 271 320
#     4   9  17  30  50  74 101 132 169 211 258 313
#     4  11  24  41  60  81 105 133 168 213 260 307
#     4   9  18  31  50  77 104 131 167 212 257 305
#     4  11  22  37  57  79 105 137 172 211 255 307
#     4   9  18  32  52  77 105 141 181 226 275 325
#
# _framework density 19.637979999999999
#
# number of rings (size 3 to 8) (size 9 to 14) (size 15 to 20)
#    0.000    2.400    0.000    2.400    1.400    2.000 
#    0.000    1.500    0.000    3.600    0.000    0.000 
#    0.000    0.000    0.000    0.000    0.000    0.000 
#
# Total GULP energy -495580.974099 kJ/mol
# GULP energy per Si atom -12389.524352 kJ/mol
# Density = 1.959328 g / cm^3
# Si number density = 19.637980 Si / 1000 Ang^3
#
#
#
# Elastic Constant Matrix: (Units=GPa)
#
#
# Indices 1 2 3 4 5 6 
#
# 1 39.1966 26.8742 26.9544 0.0000 0.0000 0.0000
# 2 26.8742 130.3099 62.8430 0.0000 0.0000 0.0000
# 3 26.9544 62.8430 130.5998 0.0000 0.0000 0.0000
# 4 0.0000 0.0000 0.0000 54.2931 0.0000 0.0000
# 5 0.0000 0.0000 0.0000 0.0000 16.9810 0.0000
# 6 0.0000 0.0000 0.0000 0.0000 0.0000 24.7833
#
#
#
# Elastic Compliance Matrix: (Units=1/GPa)
#
#
# Indices 1 2 3 4 5 6 
#
# 1 0.031544 -0.004383 -0.004401 0.000000 0.000000 0.000000
# 2 -0.004383 0.010602 -0.004197 0.000000 0.000000 0.000000
# 3 -0.004401 -0.004197 0.010585 0.000000 0.000000 0.000000
# 4 0.000000 0.000000 0.000000 0.018419 0.000000 0.000000
# 5 0.000000 0.000000 0.000000 0.000000 0.058889 0.000000
# 6 0.000000 0.000000 0.000000 0.000000 0.000000 0.040350
#
#
# Mechanical properties :
#
#
# Convention : Reuss Voigt Hill
#
# Bulk Modulus (GPa) = 37.35723 59.27218 48.31470
# Shear Modulus (GPa) = 24.35770 31.44046 27.89908
#
# Velocity S-wave (km/s) = 3.52566 4.00559 3.77327
# Velocity P-wave (km/s) = 5.96975 7.18617 6.60602
#
# Compressibility (1/GPa) = 0.02676858
#
# Stress axis : x y z
#
# Youngs Moduli (GPa) = 31.70163 94.32273 94.47427
#
# Poissons Ratio (x) = 0.41340 0.41582
# Poissons Ratio (y) = 0.13894 0.39650
# Poissons Ratio (z) = 0.13953 0.39587
#
# Static dielectric constant tensor:
#      x y z
#    x 3.328350 0.000000 0.000000 
#    y 0.000000 3.713930 0.000000 
#    z 0.000000 0.000000 3.804280 
# 
# 
# High freq. dielectric constant tensor:
#      x y z
#    x 1.729520 0.000000 0.000000 
#    y 0.000000 1.772430 0.000000 
#    z 0.000000 0.000000 1.775290 
# 
# From -- ./inp_files/72903.got.cif
#   From: 2010.03.12/outbox.cif.g09.slc.cpg/sg65_37_cif.got.tgz:72903.got - 2010.04.10 20:52:16.
