data_PCOD8274420
_publ_section_title
;
Structure prediction by ZEFSAII (Michael W. Deem and Ramdas Pophale) SiO2 
 PCOD8274420
Probable space group: C M M M
;
_chemical_formula_sum "Si O2"
_cell_formula_units_Z 88
_cell_length_a 14.311606
_cell_length_b 33.167114
_cell_length_c 10.272430
_cell_angle_alpha 90.000000
_cell_angle_beta 90.000000
_cell_angle_gamma 90.000000
_cell_volume 4876.062297
_symmetry_space_group_name_H-M "C M M M"
_symmetry_group_IT_number 65
_symmetry_cell_setting 'orthorhombic'
loop_
_space_group_symop_operation_xyz
x,y,z
-x,-y,z
x,-y,-z
-x,y,-z
-x,-y,-z
x,y,-z
-x,y,z
x,-y,z
1/2+x,1/2+y,z
1/2-x,1/2-y,z
1/2+x,1/2-y,-z
1/2-x,1/2+y,-z
1/2-x,1/2-y,-z
1/2+x,1/2+y,-z
1/2-x,1/2+y,z
1/2+x,1/2-y,z
loop_
_atom_site_type_symbol
_atom_site_label
_atom_site_fract_x
_atom_site_fract_y
_atom_site_fract_z
Si Si1 0.109589 0.046836 0.718014
Si Si2 0.755743 0.313734 0.345670
Si Si3 0.610157 0.046336 0.853397
Si Si4 0.396315 0.252852 0.655106
Si Si5 0.399112 0.452928 0.000000
Si Si6 0.225519 0.596123 0.645923
O O1 0.173494 0.074504 0.627545
O O2 0.000000 0.057975 0.703768
O O3 0.123852 0.000000 0.682620
O O4 0.151017 0.057334 0.863604
O O5 0.751429 0.314281 0.500000
O O6 0.662170 0.291487 0.293505
O O7 0.846206 0.288447 0.298606
O O8 0.761053 0.359284 0.293478
O O9 0.500000 0.052342 0.840570
O O10 0.657764 0.072571 0.742031
O O11 0.638096 0.000000 0.828887
O O12 0.642515 0.058766 0.000000
O O13 0.400666 0.253591 0.500000
O O14 0.500000 0.254420 0.715939
O O15 0.419177 0.500000 0.000000
O O16 0.500000 0.431057 0.000000
O O17 0.181643 0.597950 0.500000
#
# Coordination Sequence:
#
# PCOD8274420 Si02
#       6
#    16  16  16  16   8  16
#     4   9  18  31  46  66  96 134 173 209 245 291
#     4   8  16  28  40  65 101 127 157 199 240 295
#     4   9  20  39  58  73  93 129 178 223 257 294
#     4   8  13  25  46  65  87 127 168 197 233 286
#     4   7  12  26  46  64  81 112 165 215 242 266
#     4  11  22  32  47  76 110 137 161 202 263 312
#
# _framework density 18.047350000000002
#
# number of rings (size 3 to 8) (size 9 to 14) (size 15 to 20)
#    0.000    3.182    0.000    3.273    1.273    3.636 
#    0.000    5.455    0.000    0.000    0.000    2.545 
#    0.000    1.455    0.000    0.000    0.000    0.000 
#
# Total GULP energy -545087.476479 kJ/mol
# GULP energy per Si atom -12388.351738 kJ/mol
# Density = 1.800627 g / cm^3
# Si number density = 18.047350 Si / 1000 Ang^3
#
#
#
# Elastic Constant Matrix: (Units=GPa)
#
#
# Indices 1 2 3 4 5 6 
#
# 1 100.4656 63.4410 27.7386 0.0000 0.0000 0.0000
# 2 63.4410 132.8019 40.0045 0.0000 0.0000 0.0000
# 3 27.7386 40.0045 58.5702 0.0000 0.0000 0.0000
# 4 0.0000 0.0000 0.0000 -0.3886 0.0000 0.0000
# 5 0.0000 0.0000 0.0000 0.0000 53.4724 0.0000
# 6 0.0000 0.0000 0.0000 0.0000 0.0000 11.5484
#
#
#
# Elastic Compliance Matrix: (Units=1/GPa)
#
#
# Indices 1 2 3 4 5 6 
#
# 1 0.014586 -0.006153 -0.002705 0.000000 0.000000 0.000000
# 2 -0.006153 0.012076 -0.005334 0.000000 0.000000 0.000000
# 3 -0.002705 -0.005334 0.021998 0.000000 0.000000 0.000000
# 4 0.000000 0.000000 0.000000 -2.573109 0.000000 0.000000
# 5 0.000000 0.000000 0.000000 0.000000 0.018701 0.000000
# 6 0.000000 0.000000 0.000000 0.000000 0.000000 0.086592
#
#
# Mechanical properties :
#
#
# Convention : Reuss Voigt Hill
#
# Bulk Modulus (GPa) = 49.32100 61.57842 55.44971
# Shear Modulus (GPa) = -2.09731 23.63668 10.76969
#
# Velocity S-wave (km/s) = -1.07918 3.62291 2.44549
# Velocity P-wave (km/s) = 5.08283 7.18994 6.22617
#
# Compressibility (1/GPa) = 0.02027534
#
# Stress axis : x y z
#
# Youngs Moduli (GPa) = 68.55889 82.80744 45.45846
#
# Poissons Ratio (x) = 0.50951 0.12298
# Poissons Ratio (y) = 0.42184 0.24249
# Poissons Ratio (z) = 0.18547 0.44171
#
# Static dielectric constant tensor:
#      x y z
#    x 3.436650 0.000000 0.000000 
#    y 0.000000 3.419340 0.000000 
#    z 0.000000 0.000000 3.143860 
# 
# 
# High freq. dielectric constant tensor:
#      x y z
#    x 1.703670 0.000000 0.000000 
#    y 0.000000 1.681860 0.000000 
#    z 0.000000 0.000000 1.659680 
# 
# From -- ./inp_files/25131.got.cif
#   From: 2010.03.12/outbox.cif.g09.slc.cpg/sg65_13_cif.got.tgz:25131.got - 2010.04.10 20:52:16.
