data_PCOD8274355
_publ_section_title
;
Structure prediction by ZEFSAII (Michael W. Deem and Ramdas Pophale) SiO2 
 PCOD8274355
Probable space group: C M M M
;
_chemical_formula_sum "Si O2"
_cell_formula_units_Z 104
_cell_length_a 22.851843
_cell_length_b 27.895963
_cell_length_c 8.822800
_cell_angle_alpha 90.000000
_cell_angle_beta 90.000000
_cell_angle_gamma 90.000000
_cell_volume 5624.307079
_symmetry_space_group_name_H-M "C M M M"
_symmetry_group_IT_number 65
_symmetry_cell_setting 'orthorhombic'
loop_
_space_group_symop_operation_xyz
x,y,z
-x,-y,z
x,-y,-z
-x,y,-z
-x,-y,-z
x,y,-z
-x,y,z
x,-y,z
1/2+x,1/2+y,z
1/2-x,1/2-y,z
1/2+x,1/2-y,-z
1/2-x,1/2+y,-z
1/2-x,1/2-y,-z
1/2+x,1/2+y,-z
1/2-x,1/2+y,z
1/2+x,1/2-y,z
loop_
_atom_site_type_symbol
_atom_site_label
_atom_site_fract_x
_atom_site_fract_y
_atom_site_fract_z
Si Si1 0.934152 0.946565 0.679740
Si Si2 0.566307 0.730632 0.176399
Si Si3 0.565852 0.906432 0.322525
Si Si4 0.362899 0.814764 0.321538
Si Si5 0.930384 0.500000 0.171255
Si Si6 0.370703 0.351674 0.320488
Si Si7 0.244885 0.806328 0.822586
O O1 0.936761 0.944956 0.500000
O O2 0.888211 0.905626 0.734289
O O3 0.000000 0.936490 0.742407
O O4 0.913522 0.000000 0.733372
O O5 0.500000 0.748722 0.204207
O O6 0.613456 0.768969 0.232289
O O7 0.575398 0.682141 0.271741
O O8 0.578487 0.720519 0.000000
O O9 0.568541 0.914043 0.500000
O O10 0.500000 0.900985 0.262856
O O11 0.598039 0.859018 0.270339
O O12 0.596444 0.952679 0.248122
O O13 0.365719 0.804324 0.500000
O O14 0.298181 0.829437 0.269866
O O15 0.000000 0.500000 0.193627
O O16 0.910075 0.500000 0.000000
O O17 0.360573 0.349320 0.500000
O O18 0.313495 0.331852 0.236254
O O19 0.250000 0.750000 0.786517
O O20 0.250909 0.816590 0.000000
#
# Coordination Sequence:
#
# PCOD8274355 Si02
#       7
#    16  16  16  16   8  16  16
#     4   8  15  30  54  86 120 147 175 221 281 336
#     4  11  23  36  51  77 115 151 178 213 270 332
#     4   9  18  33  53  78 108 138 169 215 273 321
#     4  11  22  36  57  81 105 137 184 232 271 318
#     4   9  17  29  49  77 105 137 175 209 248 311
#     4  11  21  34  58  85 109 142 189 234 271 320
#     4  11  23  39  57  76 106 147 185 221 273 330
#
# _framework density 18.491167000000001
#
# number of rings (size 3 to 8) (size 9 to 14) (size 15 to 20)
#    0.000    1.923    1.538    3.462    0.000    5.231 
#    0.000    1.538    1.692    1.846    0.000    5.385 
#    0.000    0.000    0.000    0.000    0.000    0.000 
#
# Total GULP energy -644662.293365 kJ/mol
# GULP energy per Si atom -12397.351795 kJ/mol
# Density = 1.844908 g / cm^3
# Si number density = 18.491167 Si / 1000 Ang^3
#
#
#
# Elastic Constant Matrix: (Units=GPa)
#
#
# Indices 1 2 3 4 5 6 
#
# 1 89.5036 49.9036 21.2868 0.0000 0.0000 0.0000
# 2 49.9036 142.3085 38.5527 0.0000 0.0000 0.0000
# 3 21.2868 38.5527 43.8666 0.0000 0.0000 0.0000
# 4 0.0000 0.0000 0.0000 6.0784 0.0000 0.0000
# 5 0.0000 0.0000 0.0000 0.0000 26.4363 0.0000
# 6 0.0000 0.0000 0.0000 0.0000 0.0000 13.1654
#
#
#
# Elastic Compliance Matrix: (Units=1/GPa)
#
#
# Indices 1 2 3 4 5 6 
#
# 1 0.014245 -0.004099 -0.003311 0.000000 0.000000 0.000000
# 2 -0.004099 0.010402 -0.007153 0.000000 0.000000 0.000000
# 3 -0.003311 -0.007153 0.030690 0.000000 0.000000 0.000000
# 4 0.000000 0.000000 0.000000 0.164518 0.000000 0.000000
# 5 0.000000 0.000000 0.000000 0.000000 0.037827 0.000000
# 6 0.000000 0.000000 0.000000 0.000000 0.000000 0.075957
#
#
# Mechanical properties :
#
#
# Convention : Reuss Voigt Hill
#
# Bulk Modulus (GPa) = 38.15006 55.01832 46.58419
# Shear Modulus (GPa) = 13.45893 20.19837 16.82865
#
# Velocity S-wave (km/s) = 2.70081 3.30862 3.02004
# Velocity P-wave (km/s) = 5.51381 6.66441 6.11623
#
# Compressibility (1/GPa) = 0.02621228
#
# Stress axis : x y z
#
# Youngs Moduli (GPa) = 70.19859 96.13464 32.58438
#
# Poissons Ratio (x) = 0.39401 0.10788
# Poissons Ratio (y) = 0.28771 0.23308
# Poissons Ratio (z) = 0.23240 0.68766
#
# Static dielectric constant tensor:
#      x y z
#    x 3.441350 0.000000 0.000000 
#    y 0.000000 3.702580 0.000000 
#    z 0.000000 0.000000 3.283240 
# 
# 
# High freq. dielectric constant tensor:
#      x y z
#    x 1.703780 0.000000 0.000000 
#    y 0.000000 1.720880 0.000000 
#    z 0.000000 0.000000 1.711590 
# 
# From -- ./inp_files/14745.got.cif
#   From: 2010.03.12/outbox.cif.g09.slc.cpg/sg65_8_cif.got.tgz:14745.got - 2010.04.10 20:52:16.
