data_PCOD8274555
_publ_section_title
;
Structure prediction by ZEFSAII (Michael W. Deem and Ramdas Pophale) SiO2 
 PCOD8274555
Probable space group: C M M M
;
_chemical_formula_sum "Si O2"
_cell_formula_units_Z 88
_cell_length_a 19.648700
_cell_length_b 8.550549
_cell_length_c 27.655800
_cell_angle_alpha 90.000000
_cell_angle_beta 90.000000
_cell_angle_gamma 90.000000
_cell_volume 4646.372751
_symmetry_space_group_name_H-M "C M M M"
_symmetry_group_IT_number 65
_symmetry_cell_setting 'orthorhombic'
loop_
_space_group_symop_operation_xyz
x,y,z
-x,-y,z
x,-y,-z
-x,y,-z
-x,-y,-z
x,y,-z
-x,y,z
x,-y,z
1/2+x,1/2+y,z
1/2-x,1/2-y,z
1/2+x,1/2-y,-z
1/2-x,1/2+y,-z
1/2-x,1/2-y,-z
1/2+x,1/2+y,-z
1/2-x,1/2+y,z
1/2+x,1/2-y,z
loop_
_atom_site_type_symbol
_atom_site_label
_atom_site_fract_x
_atom_site_fract_y
_atom_site_fract_z
Si Si1 0.177381 0.314649 0.945808
Si Si2 0.323232 0.184325 0.420891
Si Si3 0.578377 0.685023 0.500000
Si Si4 0.424954 0.185743 0.866423
Si Si5 0.820619 0.182465 0.683438
Si Si6 0.579924 0.820083 0.758254
O O1 0.179149 0.500000 0.943069
O O2 0.250000 0.250000 0.930382
O O3 0.124049 0.243599 0.907504
O O4 0.157659 0.258919 0.000000
O O5 0.250000 0.250000 0.437799
O O6 0.384175 0.252420 0.452530
O O7 0.339196 0.229165 0.365840
O O8 0.321472 0.000000 0.427179
O O9 0.581492 0.500000 0.500000
O O10 0.500000 0.743531 0.500000
O O11 0.500000 0.255415 0.875728
O O12 0.399762 0.231385 0.812716
O O13 0.428068 0.000000 0.870191
O O14 0.750000 0.250000 0.704640
O O15 0.880021 0.208866 0.721920
O O16 0.812522 0.000000 0.672275
O O17 0.500000 0.795710 0.749954
O O18 0.600206 0.000000 0.748912
#
# Coordination Sequence:
#
# PCOD8274555 Si02
#       6
#    16  16   8  16  16  16
#     4   9  17  29  46  69  97 128 163 205 253 304
#     4  11  22  39  62  85 112 145 183 222 265 317
#     4  11  24  41  60  85 117 149 184 225 266 309
#     4   8  15  29  49  72  97 127 166 210 253 300
#     4  11  22  37  57  81 109 139 177 221 264 312
#     4   9  18  34  54  75 103 138 173 212 262 317
#
# _framework density 18.939503999999999
#
# number of rings (size 3 to 8) (size 9 to 14) (size 15 to 20)
#    0.000    2.273    0.000    6.000    0.000    2.909 
#    0.000    4.545    0.000    1.636    0.000    2.545 
#    0.000    0.000    0.000    0.000    0.000    0.000 
#
# Total GULP energy -545599.722986 kJ/mol
# GULP energy per Si atom -12399.993704 kJ/mol
# Density = 1.889640 g / cm^3
# Si number density = 18.939504 Si / 1000 Ang^3
#
#
#
# Elastic Constant Matrix: (Units=GPa)
#
#
# Indices 1 2 3 4 5 6 
#
# 1 126.2773 36.8223 86.7407 0.0000 0.0000 0.0000
# 2 36.8223 66.7219 24.2126 0.0000 0.0000 0.0000
# 3 86.7407 24.2126 118.2792 0.0000 0.0000 0.0000
# 4 0.0000 0.0000 0.0000 21.0127 0.0000 0.0000
# 5 0.0000 0.0000 0.0000 0.0000 39.7183 0.0000
# 6 0.0000 0.0000 0.0000 0.0000 0.0000 27.7639
#
#
#
# Elastic Compliance Matrix: (Units=1/GPa)
#
#
# Indices 1 2 3 4 5 6 
#
# 1 0.017612 -0.005436 -0.011803 0.000000 0.000000 0.000000
# 2 -0.005436 0.017868 0.000329 0.000000 0.000000 0.000000
# 3 -0.011803 0.000329 0.017043 0.000000 0.000000 0.000000
# 4 0.000000 0.000000 0.000000 0.047590 0.000000 0.000000
# 5 0.000000 0.000000 0.000000 0.000000 0.025177 0.000000
# 6 0.000000 0.000000 0.000000 0.000000 0.000000 0.036018
#
#
# Mechanical properties :
#
#
# Convention : Reuss Voigt Hill
#
# Bulk Modulus (GPa) = 53.46835 67.42552 60.44693
# Shear Modulus (GPa) = 24.83075 28.59918 26.71496
#
# Velocity S-wave (km/s) = 3.62478 3.89012 3.75979
# Velocity P-wave (km/s) = 6.76839 7.47363 7.12974
#
# Compressibility (1/GPa) = 0.01870265
#
# Stress axis : x y z
#
# Youngs Moduli (GPa) = 56.78028 55.96472 58.67563
#
# Poissons Ratio (x) = 0.30425 0.69254
# Poissons Ratio (y) = 0.30868 -0.01931
# Poissons Ratio (z) = 0.67017 -0.01841
#
# Static dielectric constant tensor:
#      x y z
#    x 3.627450 0.000000 0.000000 
#    y 0.000000 3.276800 0.000000 
#    z 0.000000 0.000000 3.627330 
# 
# 
# High freq. dielectric constant tensor:
#      x y z
#    x 1.735710 0.000000 0.000000 
#    y 0.000000 1.721450 0.000000 
#    z 0.000000 0.000000 1.744230 
# 
# From -- ./inp_files/77845.got.cif
#   From: 2010.03.12/outbox.cif.g09.slc.cpg/sg65_39_cif.got.tgz:77845.got - 2010.04.10 20:52:16.
