data_PCOD8274898
_publ_section_title
;
Structure prediction by ZEFSAII (Michael W. Deem and Ramdas Pophale) SiO2 
 PCOD8274898
Probable space group: C M M M
;
_chemical_formula_sum "Si O2"
_cell_formula_units_Z 88
_cell_length_a 9.240822
_cell_length_b 27.517446
_cell_length_c 21.610698
_cell_angle_alpha 90.000000
_cell_angle_beta 90.000000
_cell_angle_gamma 90.000000
_cell_volume 5495.250849
_symmetry_space_group_name_H-M "C M M M"
_symmetry_group_IT_number 65
_symmetry_cell_setting 'orthorhombic'
loop_
_space_group_symop_operation_xyz
x,y,z
-x,-y,z
x,-y,-z
-x,y,-z
-x,-y,-z
x,y,-z
-x,y,z
x,-y,z
1/2+x,1/2+y,z
1/2-x,1/2-y,z
1/2+x,1/2-y,-z
1/2-x,1/2+y,-z
1/2-x,1/2-y,-z
1/2+x,1/2+y,-z
1/2-x,1/2+y,z
1/2+x,1/2-y,z
loop_
_atom_site_type_symbol
_atom_site_label
_atom_site_fract_x
_atom_site_fract_y
_atom_site_fract_z
Si Si1 0.827458 0.446552 0.133576
Si Si2 0.172105 0.647840 0.932026
Si Si3 0.329047 0.895723 0.255044
Si Si4 0.163238 0.942259 0.500000
Si Si5 0.169173 0.443259 0.379589
Si Si6 0.329318 0.201170 0.810604
O O1 0.766284 0.500000 0.116552
O O2 0.773485 0.406854 0.083636
O O3 0.768840 0.431034 0.201264
O O4 0.000000 0.447318 0.134694
O O5 0.225620 0.685156 0.879231
O O6 0.000000 0.647927 0.931995
O O7 0.232493 0.662718 0.000000
O O8 0.500000 0.901112 0.256463
O O9 0.268252 0.912837 0.321306
O O10 0.286250 0.840144 0.239302
O O11 0.245711 0.923328 0.560811
O O12 0.000000 0.921923 0.500000
O O13 0.165279 0.000000 0.500000
O O14 0.199093 0.500000 0.367280
O O15 0.000000 0.433834 0.390938
O O16 0.500000 0.210144 0.810886
O O17 0.250000 0.250000 0.790250
#
# Coordination Sequence:
#
# PCOD8274898 Si02
#       6
#    16  16  16   8  16  16
#     4   8  12  18  30  50  77 106 132 159 195 238
#     4   8  14  23  34  51  76 104 132 162 198 240
#     4   8  14  24  38  57  79 102 130 166 204 236
#     4   9  17  27  37  55  88 121 140 157 186 221
#     4   9  15  24  41  62  82 107 139 166 187 223
#     4   9  17  29  43  58  78 103 131 166 207 244
#
# _framework density 16.013826999999999
#
# number of rings (size 3 to 8) (size 9 to 14) (size 15 to 20)
#    0.000    3.545    0.000    3.000    0.000    4.000 
#    0.000    2.727    0.000    0.000    0.000    0.636 
#    0.000    6.545    0.000    6.545    0.000    7.273 
#
# Total GULP energy -545196.159761 kJ/mol
# GULP energy per Si atom -12390.821813 kJ/mol
# Density = 1.597738 g / cm^3
# Si number density = 16.013827 Si / 1000 Ang^3
#
#
#
# Elastic Constant Matrix: (Units=GPa)
#
#
# Indices 1 2 3 4 5 6 
#
# 1 27.0326 19.9998 26.2926 0.0000 0.0000 0.0000
# 2 19.9998 82.5553 33.6975 0.0000 0.0000 0.0000
# 3 26.2926 33.6975 123.2067 0.0000 0.0000 0.0000
# 4 0.0000 0.0000 0.0000 18.4118 0.0000 0.0000
# 5 0.0000 0.0000 0.0000 0.0000 6.9368 0.0000
# 6 0.0000 0.0000 0.0000 0.0000 0.0000 15.9824
#
#
#
# Elastic Compliance Matrix: (Units=1/GPa)
#
#
# Indices 1 2 3 4 5 6 
#
# 1 0.052125 -0.009104 -0.008634 0.000000 0.000000 0.000000
# 2 -0.009104 0.015225 -0.002221 0.000000 0.000000 0.000000
# 3 -0.008634 -0.002221 0.010566 0.000000 0.000000 0.000000
# 4 0.000000 0.000000 0.000000 0.054313 0.000000 0.000000
# 5 0.000000 0.000000 0.000000 0.000000 0.144158 0.000000
# 6 0.000000 0.000000 0.000000 0.000000 0.000000 0.062569
#
#
# Mechanical properties :
#
#
# Convention : Reuss Voigt Hill
#
# Bulk Modulus (GPa) = 26.31638 43.64160 34.97899
# Shear Modulus (GPa) = 12.77006 18.45318 15.61162
#
# Velocity S-wave (km/s) = 2.82696 3.39828 3.12570
# Velocity P-wave (km/s) = 5.20815 6.53524 5.90907
#
# Compressibility (1/GPa) = 0.03799915
#
# Stress axis : x y z
#
# Youngs Moduli (GPa) = 19.18467 65.68030 94.63904
#
# Poissons Ratio (x) = 0.59793 0.81709
# Poissons Ratio (y) = 0.17465 0.21023
# Poissons Ratio (z) = 0.16563 0.14590
#
# Static dielectric constant tensor:
#      x y z
#    x 2.533030 0.000000 0.000000 
#    y 0.000000 2.982540 0.000000 
#    z 0.000000 0.000000 3.344890 
# 
# 
# High freq. dielectric constant tensor:
#      x y z
#    x 1.558660 0.000000 0.000000 
#    y 0.000000 1.597380 0.000000 
#    z 0.000000 0.000000 1.616890 
# 
# From -- ./inp_files/60707.got.cif
#   From: 2010.03.12/outbox.cif.g09.slc.cpg/sg65_31_cif.got.tgz:60707.got - 2010.04.10 20:52:16.
