data_PCOD8274249
_publ_section_title
;
Structure prediction by ZEFSAII (Michael W. Deem and Ramdas Pophale) SiO2 
 PCOD8274249
Probable space group: C M M M
;
_chemical_formula_sum "Si O2"
_cell_formula_units_Z 120
_cell_length_a 20.645498
_cell_length_b 17.565183
_cell_length_c 18.467584
_cell_angle_alpha 90.000000
_cell_angle_beta 90.000000
_cell_angle_gamma 90.000000
_cell_volume 6697.120683
_symmetry_space_group_name_H-M "C M M M"
_symmetry_group_IT_number 65
_symmetry_cell_setting 'orthorhombic'
loop_
_space_group_symop_operation_xyz
x,y,z
-x,-y,z
x,-y,-z
-x,y,-z
-x,-y,-z
x,y,-z
-x,y,z
x,-y,z
1/2+x,1/2+y,z
1/2-x,1/2-y,z
1/2+x,1/2-y,-z
1/2-x,1/2+y,-z
1/2-x,1/2-y,-z
1/2+x,1/2+y,-z
1/2-x,1/2+y,z
1/2+x,1/2-y,z
loop_
_atom_site_type_symbol
_atom_site_label
_atom_site_fract_x
_atom_site_fract_y
_atom_site_fract_z
Si Si1 0.310561 0.194289 0.198707
Si Si2 0.268608 0.914906 0.083759
Si Si3 0.133203 0.147164 0.648586
Si Si4 0.680829 0.211769 0.421720
Si Si5 0.427059 0.309353 0.790417
Si Si6 0.725543 0.911572 0.326363
Si Si7 0.117830 0.087861 0.917482
Si Si8 0.072041 0.910419 0.500000
O O1 0.250000 0.250000 0.210123
O O2 0.309472 0.151511 0.121747
O O3 0.377609 0.239248 0.204478
O O4 0.305196 0.126941 0.256292
O O5 0.193271 0.899440 0.099088
O O6 0.286345 0.000000 0.111835
O O7 0.285055 0.908822 0.000000
O O8 0.142722 0.238010 0.637215
O O9 0.085752 0.140297 0.717615
O O10 0.197816 0.102150 0.669615
O O11 0.107435 0.114437 0.573202
O O12 0.645337 0.210978 0.500000
O O13 0.750000 0.250000 0.430803
O O14 0.689425 0.125257 0.395427
O O15 0.500000 0.277092 0.786647
O O16 0.422431 0.362360 0.861061
O O17 0.709734 0.000000 0.325120
O O18 0.098744 0.000000 0.907020
O O19 0.101866 0.113119 0.000000
O O20 0.000000 0.875322 0.500000
O O21 0.069394 0.000000 0.500000
#
# Coordination Sequence:
#
# PCOD8274249 Si02
#       8
#    16  16  16  16  16  16  16   8
#     4  12  20  37  57  81 115 148 189 236 286 335
#     4   9  18  33  58  89 114 143 186 234 284 337
#     4  11  20  39  57  80 112 150 191 233 277 334
#     4   9  17  32  54  79 110 140 177 224 277 333
#     4  12  25  38  57  83 114 152 196 235 277 337
#     4  11  21  33  57  87 112 143 184 238 292 336
#     4   9  19  37  59  85 118 152 186 227 278 334
#     4  11  24  38  53  80 119 161 197 228 273 341
#
# _framework density 17.918149
#
# number of rings (size 3 to 8) (size 9 to 14) (size 15 to 20)
#    0.000    1.533    4.667    2.400    0.933    3.733 
#    0.000    0.667    0.000    1.600    0.000    0.933 
#    0.000    1.600    0.000    0.000    0.000    0.000 
#
# Total GULP energy -743797.304061 kJ/mol
# GULP energy per Si atom -12396.621734 kJ/mol
# Density = 1.787737 g / cm^3
# Si number density = 17.918149 Si / 1000 Ang^3
#
#
#
# Elastic Constant Matrix: (Units=GPa)
#
#
# Indices 1 2 3 4 5 6 
#
# 1 77.9057 31.4723 33.3854 0.0000 0.0000 0.0000
# 2 31.4723 112.8694 46.5147 0.0000 0.0000 0.0000
# 3 33.3854 46.5147 111.1341 0.0000 0.0000 0.0000
# 4 0.0000 0.0000 0.0000 -5.5551 0.0000 0.0000
# 5 0.0000 0.0000 0.0000 0.0000 13.6470 0.0000
# 6 0.0000 0.0000 0.0000 0.0000 0.0000 17.8276
#
#
#
# Elastic Compliance Matrix: (Units=1/GPa)
#
#
# Indices 1 2 3 4 5 6 
#
# 1 0.015480 -0.002900 -0.003436 0.000000 0.000000 0.000000
# 2 -0.002900 0.011250 -0.003837 0.000000 0.000000 0.000000
# 3 -0.003436 -0.003837 0.011637 0.000000 0.000000 0.000000
# 4 0.000000 0.000000 0.000000 -0.180016 0.000000 0.000000
# 5 0.000000 0.000000 0.000000 0.000000 0.073276 0.000000
# 6 0.000000 0.000000 0.000000 0.000000 0.000000 0.056093
#
#
# Mechanical properties :
#
#
# Convention : Reuss Voigt Hill
#
# Bulk Modulus (GPa) = 55.49819 58.29488 56.89654
# Shear Modulus (GPa) = 355.26684 17.88638 186.57661
#
# Velocity S-wave (km/s) = 14.09619 3.16290 10.21534
# Velocity P-wave (km/s) = 17.20398 6.77814 13.07517
#
# Compressibility (1/GPa) = 0.01801861
#
# Stress axis : x y z
#
# Youngs Moduli (GPa) = 64.59806 88.88954 85.93588
#
# Poissons Ratio (x) = 0.25781 0.29532
# Poissons Ratio (y) = 0.18735 0.32977
# Poissons Ratio (z) = 0.22199 0.34110
#
# Static dielectric constant tensor:
#      x y z
#    x 3.082630 0.000000 0.000000 
#    y 0.000000 3.358490 0.000000 
#    z 0.000000 0.000000 3.636370 
# 
# 
# High freq. dielectric constant tensor:
#      x y z
#    x 1.651220 0.000000 0.000000 
#    y 0.000000 1.687470 0.000000 
#    z 0.000000 0.000000 1.718550 
# 
# From -- ./inp_files/54947.got.cif
#   From: 2010.03.12/outbox.cif.g09.slc.cpg/sg65_28_cif.got.tgz:54947.got - 2010.04.10 20:52:16.
