data_PCOD8274056
_publ_section_title
;
Structure prediction by ZEFSAII (Michael W. Deem and Ramdas Pophale) SiO2 
 PCOD8274056
Probable space group: C M M M
;
_chemical_formula_sum "Si O2"
_cell_formula_units_Z 88
_cell_length_a 21.314119
_cell_length_b 22.809776
_cell_length_c 9.012762
_cell_angle_alpha 90.000000
_cell_angle_beta 90.000000
_cell_angle_gamma 90.000000
_cell_volume 4381.737025
_symmetry_space_group_name_H-M "C M M M"
_symmetry_group_IT_number 65
_symmetry_cell_setting 'orthorhombic'
loop_
_space_group_symop_operation_xyz
x,y,z
-x,-y,z
x,-y,-z
-x,y,-z
-x,-y,-z
x,y,-z
-x,y,z
x,-y,z
1/2+x,1/2+y,z
1/2-x,1/2-y,z
1/2+x,1/2-y,-z
1/2-x,1/2+y,-z
1/2-x,1/2-y,-z
1/2+x,1/2+y,-z
1/2-x,1/2+y,z
1/2+x,1/2-y,z
loop_
_atom_site_type_symbol
_atom_site_label
_atom_site_fract_x
_atom_site_fract_y
_atom_site_fract_z
Si Si1 0.072753 0.063548 0.839291
Si Si2 0.573246 0.755945 0.675337
Si Si3 0.257086 0.067569 0.175276
Si Si4 0.500000 0.932539 0.337173
Si Si5 0.888105 0.375481 0.824266
Si Si6 0.349302 0.357212 0.330201
O O1 0.091649 0.100722 0.696536
O O2 0.000000 0.054231 0.831526
O O3 0.106183 0.000000 0.829531
O O4 0.091584 0.092041 0.000000
O O5 0.574990 0.765401 0.500000
O O6 0.500000 0.743941 0.724070
O O7 0.601863 0.811529 0.757106
O O8 0.623137 0.705489 0.721662
O O9 0.322768 0.095634 0.225149
O O10 0.206230 0.114331 0.234317
O O11 0.250748 0.000000 0.236517
O O12 0.251113 0.065882 0.000000
O O13 0.500000 0.900232 0.500000
O O14 0.560065 0.917765 0.241133
O O15 0.500000 0.000000 0.369530
O O16 0.894617 0.371471 0.000000
O O17 0.328024 0.355934 0.500000
#
# Coordination Sequence:
#
# PCOD8274056 Si02
#       6
#    16  16  16   8  16  16
#     4   9  18  33  53  78 110 150 197 251 310 365
#     4  10  22  41  62  86 124 166 202 248 310 371
#     4  10  23  43  63  86 122 163 201 251 312 366
#     4  11  23  39  63  95 129 163 196 241 310 377
#     4  11  23  40  65  94 121 156 207 259 303 358
#     4  11  23  37  57  86 119 160 206 250 298 358
#
# _framework density 20.083359000000002
#
# number of rings (size 3 to 8) (size 9 to 14) (size 15 to 20)
#    0.000    1.727    0.909    3.545    0.000    9.091 
#    0.000    4.545    0.000    0.000    0.000    0.000 
#    0.000    0.000    0.000    0.000    0.000    0.000 
#
# Total GULP energy -545079.901193 kJ/mol
# GULP energy per Si atom -12388.179573 kJ/mol
# Density = 2.003765 g / cm^3
# Si number density = 20.083359 Si / 1000 Ang^3
#
#
#
# Elastic Constant Matrix: (Units=GPa)
#
#
# Indices 1 2 3 4 5 6 
#
# 1 123.6193 78.5368 41.1062 0.0000 0.0000 0.0000
# 2 78.5368 133.2267 45.2186 0.0000 0.0000 0.0000
# 3 41.1062 45.2186 33.5919 0.0000 0.0000 0.0000
# 4 0.0000 0.0000 0.0000 35.7984 0.0000 0.0000
# 5 0.0000 0.0000 0.0000 0.0000 27.3440 0.0000
# 6 0.0000 0.0000 0.0000 0.0000 0.0000 34.1093
#
#
#
# Elastic Compliance Matrix: (Units=1/GPa)
#
#
# Indices 1 2 3 4 5 6 
#
# 1 0.015180 -0.004868 -0.012023 0.000000 0.000000 0.000000
# 2 -0.004868 0.015381 -0.014748 0.000000 0.000000 0.000000
# 3 -0.012023 -0.014748 0.064334 0.000000 0.000000 0.000000
# 4 0.000000 0.000000 0.000000 0.027934 0.000000 0.000000
# 5 0.000000 0.000000 0.000000 0.000000 0.036571 0.000000
# 6 0.000000 0.000000 0.000000 0.000000 0.000000 0.029318
#
#
# Mechanical properties :
#
#
# Convention : Reuss Voigt Hill
#
# Bulk Modulus (GPa) = 31.62801 68.90676 50.26739
# Shear Modulus (GPa) = 19.04507 27.82210 23.43359
#
# Velocity S-wave (km/s) = 3.08279 3.72604 3.41957
# Velocity P-wave (km/s) = 5.33423 7.27297 6.37770
#
# Compressibility (1/GPa) = 0.03161754
#
# Stress axis : x y z
#
# Youngs Moduli (GPa) = 65.87725 65.01413 15.54380
#
# Poissons Ratio (x) = 0.31647 0.18688
# Poissons Ratio (y) = 0.32067 0.22925
# Poissons Ratio (z) = 0.79203 0.95885
#
# Static dielectric constant tensor:
#      x y z
#    x 3.881570 0.000000 0.000000 
#    y 0.000000 3.862780 0.000000 
#    z 0.000000 0.000000 3.734500 
# 
# 
# High freq. dielectric constant tensor:
#      x y z
#    x 1.793580 0.000000 0.000000 
#    y 0.000000 1.792380 0.000000 
#    z 0.000000 0.000000 1.778310 
# 
# From -- ./inp_files/11816.got.cif
#   From: 2010.03.12/outbox.cif.g09.slc.cpg/sg65_6_cif.got.tgz:11816.got - 2010.04.10 20:52:16.
