data_PCOD8274634
_publ_section_title
;
Structure prediction by ZEFSAII (Michael W. Deem and Ramdas Pophale) SiO2 
 PCOD8274634
Probable space group: C M M M
;
_chemical_formula_sum "Si O2"
_cell_formula_units_Z 88
_cell_length_a 21.731500
_cell_length_b 18.233568
_cell_length_c 11.438222
_cell_angle_alpha 90.000000
_cell_angle_beta 90.000000
_cell_angle_gamma 90.000000
_cell_volume 4532.312918
_symmetry_space_group_name_H-M "C M M M"
_symmetry_group_IT_number 65
_symmetry_cell_setting 'orthorhombic'
loop_
_space_group_symop_operation_xyz
x,y,z
-x,-y,z
x,-y,-z
-x,y,-z
-x,-y,-z
x,y,-z
-x,y,z
x,-y,z
1/2+x,1/2+y,z
1/2-x,1/2-y,z
1/2+x,1/2-y,-z
1/2-x,1/2+y,-z
1/2-x,1/2-y,-z
1/2+x,1/2+y,-z
1/2-x,1/2+y,z
1/2+x,1/2-y,z
loop_
_atom_site_type_symbol
_atom_site_label
_atom_site_fract_x
_atom_site_fract_y
_atom_site_fract_z
Si Si1 0.500000 0.418091 0.362652
Si Si2 0.429243 0.586689 0.000000
Si Si3 0.429016 0.810172 0.134649
Si Si4 0.931640 0.586879 0.500000
Si Si5 0.646139 0.913045 0.720647
Si Si6 0.891964 0.158438 0.765676
Si Si7 0.734794 0.335049 0.364591
O O1 0.500000 0.500000 0.307387
O O2 0.500000 0.422965 0.500000
O O3 0.440317 0.375216 0.322888
O O4 0.393172 0.615586 0.112302
O O5 0.428648 0.500000 0.000000
O O6 0.500000 0.616494 0.000000
O O7 0.500000 0.830369 0.159340
O O8 0.385841 0.879764 0.163922
O O9 0.407556 0.743364 0.215448
O O10 0.419177 0.788387 0.000000
O O11 0.935360 0.500000 0.500000
O O12 0.895557 0.614640 0.613057
O O13 0.000000 0.621323 0.500000
O O14 0.714216 0.883079 0.700890
O O15 0.648568 0.000000 0.733656
O O16 0.826689 0.148025 0.705544
O O17 0.728765 0.359502 0.500000
O O18 0.750000 0.250000 0.355457
#
# Coordination Sequence:
#
# PCOD8274634 Si02
#       7
#     8   8  16   8  16  16  16
#     4  11  24  41  63  99 138 166 210 276 334 390
#     4  11  22  40  67  96 129 169 217 276 327 379
#     4  11  23  42  67  96 130 169 215 274 336 388
#     4   9  18  36  63  94 126 163 210 269 324 376
#     4  11  23  42  65  95 133 170 215 267 323 393
#     4  12  22  41  67  96 129 171 222 267 323 394
#     4  11  24  43  66  93 130 174 216 263 326 395
#
# _framework density 19.416135000000001
#
# number of rings (size 3 to 8) (size 9 to 14) (size 15 to 20)
#    0.000    1.000    5.455    1.636    0.000    2.909 
#    3.273    2.273    0.000    0.000    0.000    0.000 
#    0.000    0.000    0.000    0.000    0.000    0.000 
#
# Total GULP energy -545806.651347 kJ/mol
# GULP energy per Si atom -12404.696622 kJ/mol
# Density = 1.937194 g / cm^3
# Si number density = 19.416135 Si / 1000 Ang^3
#
#
#
# Elastic Constant Matrix: (Units=GPa)
#
#
# Indices 1 2 3 4 5 6 
#
# 1 182.3705 56.6308 65.1510 0.0000 0.0000 0.0000
# 2 56.6308 110.0347 36.4726 0.0000 0.0000 0.0000
# 3 65.1510 36.4726 83.8271 0.0000 0.0000 0.0000
# 4 0.0000 0.0000 0.0000 86.7676 0.0000 0.0000
# 5 0.0000 0.0000 0.0000 0.0000 39.6623 0.0000
# 6 0.0000 0.0000 0.0000 0.0000 0.0000 23.1270
#
#
#
# Elastic Compliance Matrix: (Units=1/GPa)
#
#
# Indices 1 2 3 4 5 6 
#
# 1 0.008114 -0.002437 -0.005246 0.000000 0.000000 0.000000
# 2 -0.002437 0.011352 -0.003045 0.000000 0.000000 0.000000
# 3 -0.005246 -0.003045 0.017331 0.000000 0.000000 0.000000
# 4 0.000000 0.000000 0.000000 0.011525 0.000000 0.000000
# 5 0.000000 0.000000 0.000000 0.000000 0.025213 0.000000
# 6 0.000000 0.000000 0.000000 0.000000 0.000000 0.043240
#
#
# Mechanical properties :
#
#
# Convention : Reuss Voigt Hill
#
# Bulk Modulus (GPa) = 65.18429 76.97126 71.07778
# Shear Modulus (GPa) = 34.88098 44.44325 39.66211
#
# Velocity S-wave (km/s) = 4.24311 4.78952 4.52457
# Velocity P-wave (km/s) = 7.59278 8.38541 7.99892
#
# Compressibility (1/GPa) = 0.01534112
#
# Stress axis : x y z
#
# Youngs Moduli (GPa) = 123.23913 88.09299 57.69885
#
# Poissons Ratio (x) = 0.21470 0.30269
# Poissons Ratio (y) = 0.30036 0.17568
# Poissons Ratio (z) = 0.64652 0.26822
#
# Static dielectric constant tensor:
#      x y z
#    x 3.536560 0.000000 0.000000 
#    y 0.000000 3.524800 0.000000 
#    z 0.000000 0.000000 3.596570 
# 
# 
# High freq. dielectric constant tensor:
#      x y z
#    x 1.761710 0.000000 0.000000 
#    y 0.000000 1.759940 0.000000 
#    z 0.000000 0.000000 1.761180 
# 
# From -- ./inp_files/28764.got.cif
#   From: 2010.03.12/outbox.cif.g09.slc.cpg/sg65_15_cif.got.tgz:28764.got - 2010.04.10 20:52:16.
