data_PCOD8274421
_publ_section_title
;
Structure prediction by ZEFSAII (Michael W. Deem and Ramdas Pophale) SiO2 
 PCOD8274421
Probable space group: C M M M
;
_chemical_formula_sum "Si O2"
_cell_formula_units_Z 48
_cell_length_a 38.042981
_cell_length_b 7.621903
_cell_length_c 9.069162
_cell_angle_alpha 90.000000
_cell_angle_beta 90.000000
_cell_angle_gamma 90.000000
_cell_volume 2629.693406
_symmetry_space_group_name_H-M "C M M M"
_symmetry_group_IT_number 65
_symmetry_cell_setting 'orthorhombic'
loop_
_space_group_symop_operation_xyz
x,y,z
-x,-y,z
x,-y,-z
-x,y,-z
-x,-y,-z
x,y,-z
-x,y,z
x,-y,z
1/2+x,1/2+y,z
1/2-x,1/2-y,z
1/2+x,1/2-y,-z
1/2-x,1/2+y,-z
1/2-x,1/2-y,-z
1/2+x,1/2+y,-z
1/2-x,1/2+y,z
1/2+x,1/2-y,z
loop_
_atom_site_type_symbol
_atom_site_label
_atom_site_fract_x
_atom_site_fract_y
_atom_site_fract_z
Si Si1 0.162184 0.000000 0.824370
Si Si2 0.540549 0.798984 0.670406
Si Si3 0.417198 0.500000 0.825322
Si Si4 0.711845 0.804731 0.175531
O O1 0.122560 0.000000 0.764039
O O2 0.182259 0.827786 0.763697
O O3 0.162381 0.000000 0.000000
O O4 0.547284 0.754030 0.500000
O O5 0.500000 0.765113 0.710077
O O6 0.564153 0.675437 0.770300
O O7 0.550692 0.000000 0.704158
O O8 0.418158 0.500000 0.000000
O O9 0.750000 0.750000 0.237679
O O10 0.702388 0.000000 0.231070
O O11 0.712918 0.797411 0.000000
#
# Coordination Sequence:
#
# PCOD8274421 Si02
#       4
#     8  16   8  16
#     4   9  18  28  36  59  96 132 164 196 245 303
#     4   9  19  37  59  78  97 130 179 225 256 292
#     4  11  22  32  47  76 116 146 164 200 262 325
#     4   9  14  22  38  55  76 115 166 208 237 277
#
# _framework density 18.253079
#
# number of rings (size 3 to 8) (size 9 to 14) (size 15 to 20)
#    0.000    2.667    1.667    2.000    0.000    4.667 
#    0.000    5.000    0.000    0.000    0.000    0.000 
#    0.000    5.333    0.000    0.000    0.000    0.000 
#
# Total GULP energy -297557.548146 kJ/mol
# GULP energy per Si atom -12398.231173 kJ/mol
# Density = 1.821153 g / cm^3
# Si number density = 18.253079 Si / 1000 Ang^3
#
#
#
# Elastic Constant Matrix: (Units=GPa)
#
#
# Indices 1 2 3 4 5 6 
#
# 1 149.8901 94.7662 38.3765 0.0000 0.0000 0.0000
# 2 94.7662 171.5360 33.1842 0.0000 0.0000 0.0000
# 3 38.3765 33.1842 33.7630 0.0000 0.0000 0.0000
# 4 0.0000 0.0000 0.0000 21.1378 0.0000 0.0000
# 5 0.0000 0.0000 0.0000 0.0000 -3.0416 0.0000
# 6 0.0000 0.0000 0.0000 0.0000 0.0000 8.7659
#
#
#
# Elastic Compliance Matrix: (Units=1/GPa)
#
#
# Indices 1 2 3 4 5 6 
#
# 1 0.012071 -0.004957 -0.008848 0.000000 0.000000 0.000000
# 2 -0.004957 0.009234 -0.003441 0.000000 0.000000 0.000000
# 3 -0.008848 -0.003441 0.043058 0.000000 0.000000 0.000000
# 4 0.000000 0.000000 0.000000 0.047309 0.000000 0.000000
# 5 0.000000 0.000000 0.000000 0.000000 -0.328776 0.000000
# 6 0.000000 0.000000 0.000000 0.000000 0.000000 0.114078
#
#
# Mechanical properties :
#
#
# Convention : Reuss Voigt Hill
#
# Bulk Modulus (GPa) = 33.47890 76.42700 54.95295
# Shear Modulus (GPa) = -85.35795 17.96324 -33.69736
#
# Velocity S-wave (km/s) = -6.84581 3.14047 -4.30131
# Velocity P-wave (km/s) = 6.64120 7.42373 2.34587
#
# Compressibility (1/GPa) = 0.02986956
#
# Stress axis : x y z
#
# Youngs Moduli (GPa) = 82.84315 108.29637 23.22439
#
# Poissons Ratio (x) = 0.53682 0.20550
# Poissons Ratio (y) = 0.41065 0.07992
# Poissons Ratio (z) = 0.73304 0.37269
#
# Static dielectric constant tensor:
#      x y z
#    x 3.490150 0.000000 0.000000 
#    y 0.000000 3.607050 0.000000 
#    z 0.000000 0.000000 2.774420 
# 
# 
# High freq. dielectric constant tensor:
#      x y z
#    x 1.708870 0.000000 0.000000 
#    y 0.000000 1.727840 0.000000 
#    z 0.000000 0.000000 1.647270 
# 
# From -- ./inp_files/17547.got.cif
#   From: 2010.03.12/outbox.cif.g09.slc.cpg/sg65_9_cif.got.tgz:17547.got - 2010.04.10 20:52:16.
