data_PCOD8274581
_publ_section_title
;
Structure prediction by ZEFSAII (Michael W. Deem and Ramdas Pophale) SiO2 
 PCOD8274581
Probable space group: C M M M
;
_chemical_formula_sum "Si O2"
_cell_formula_units_Z 88
_cell_length_a 17.915697
_cell_length_b 9.863222
_cell_length_c 27.052855
_cell_angle_alpha 90.000000
_cell_angle_beta 90.000000
_cell_angle_gamma 90.000000
_cell_volume 4780.415235
_symmetry_space_group_name_H-M "C M M M"
_symmetry_group_IT_number 65
_symmetry_cell_setting 'orthorhombic'
loop_
_space_group_symop_operation_xyz
x,y,z
-x,-y,z
x,-y,-z
-x,y,-z
-x,-y,-z
x,y,-z
-x,y,z
x,-y,z
1/2+x,1/2+y,z
1/2-x,1/2-y,z
1/2+x,1/2-y,-z
1/2-x,1/2+y,-z
1/2-x,1/2-y,-z
1/2+x,1/2+y,-z
1/2-x,1/2+y,z
1/2+x,1/2-y,z
loop_
_atom_site_type_symbol
_atom_site_label
_atom_site_fract_x
_atom_site_fract_y
_atom_site_fract_z
Si Si1 0.911035 0.844796 0.500000
Si Si2 0.339607 0.242962 0.893411
Si Si3 0.082739 0.500000 0.057445
Si Si4 0.587867 0.153969 0.587468
Si Si5 0.911243 0.000000 0.942582
Si Si6 0.820727 0.345436 0.682406
Si Si7 0.678920 0.843747 0.209665
O O1 0.881065 0.762204 0.452326
O O2 0.000000 0.846140 0.500000
O O3 0.880330 0.000000 0.500000
O O4 0.250000 0.250000 0.894858
O O5 0.368142 0.128138 0.929356
O O6 0.377428 0.376436 0.913020
O O7 0.368370 0.210708 0.837269
O O8 0.000000 0.500000 0.082842
O O9 0.069487 0.500000 0.000000
O O10 0.500000 0.166355 0.591409
O O11 0.619657 0.193689 0.640882
O O12 0.610405 0.000000 0.571973
O O13 0.000000 0.000000 0.938786
O O14 0.886102 0.000000 0.000000
O O15 0.792848 0.500000 0.676045
O O16 0.750000 0.250000 0.676105
O O17 0.860841 0.329981 0.736572
O O18 0.750000 0.750000 0.214010
O O19 0.701663 0.000000 0.199142
#
# Coordination Sequence:
#
# PCOD8274581 Si02
#       7
#     8  16   8  16   8  16  16
#     4   9  17  29  48  73 102 137 175 219 270 317
#     4  11  22  37  61  87 109 140 189 237 270 318
#     4  11  23  39  57  81 115 149 179 220 281 338
#     4   9  17  31  51  74 102 136 177 220 262 311
#     4  11  25  43  59  79 115 155 181 216 283 348
#     4   9  18  33  53  78 106 140 176 212 262 320
#     4   9  18  33  55  83 110 139 176 222 272 318
#
# _framework density 18.408442000000001
#
# number of rings (size 3 to 8) (size 9 to 14) (size 15 to 20)
#    0.000    2.273    0.909    1.909    3.818    5.455 
#    0.000    2.273    0.000    0.000    0.000    0.000 
#    0.000    0.000    0.000    0.000    0.000    0.000 
#
# Total GULP energy -545199.059288 kJ/mol
# GULP energy per Si atom -12390.887711 kJ/mol
# Density = 1.836654 g / cm^3
# Si number density = 18.408442 Si / 1000 Ang^3
#
#
#
# Elastic Constant Matrix: (Units=GPa)
#
#
# Indices 1 2 3 4 5 6 
#
# 1 49.2773 35.0728 39.9625 0.0000 0.0000 0.0000
# 2 35.0728 146.8030 83.0428 0.0000 0.0000 0.0000
# 3 39.9625 83.0428 169.4003 0.0000 0.0000 0.0000
# 4 0.0000 0.0000 0.0000 32.1572 0.0000 0.0000
# 5 0.0000 0.0000 0.0000 0.0000 21.0768 0.0000
# 6 0.0000 0.0000 0.0000 0.0000 0.0000 -3.1760
#
#
#
# Elastic Compliance Matrix: (Units=1/GPa)
#
#
# Indices 1 2 3 4 5 6 
#
# 1 0.026602 -0.003882 -0.004373 0.000000 0.000000 0.000000
# 2 -0.003882 0.009992 -0.003982 0.000000 0.000000 0.000000
# 3 -0.004373 -0.003982 0.008887 0.000000 0.000000 0.000000
# 4 0.000000 0.000000 0.000000 0.031097 0.000000 0.000000
# 5 0.000000 0.000000 0.000000 0.000000 0.047446 0.000000
# 6 0.000000 0.000000 0.000000 0.000000 0.000000 -0.314861
#
#
# Mechanical properties :
#
#
# Convention : Reuss Voigt Hill
#
# Bulk Modulus (GPa) = 47.60290 75.73742 61.67016
# Shear Modulus (GPa) = -31.37553 23.83841 -3.76856
#
# Velocity S-wave (km/s) = -4.13293 3.60248 -1.43235
# Velocity P-wave (km/s) = 1.77218 7.65087 5.55322
#
# Compressibility (1/GPa) = 0.02100712
#
# Stress axis : x y z
#
# Youngs Moduli (GPa) = 37.59054 100.07869 112.52425
#
# Poissons Ratio (x) = 0.38852 0.49202
# Poissons Ratio (y) = 0.14593 0.44813
# Poissons Ratio (z) = 0.16437 0.39856
#
# Static dielectric constant tensor:
#      x y z
#    x 3.138000 0.000000 0.000000 
#    y 0.000000 3.554310 0.000000 
#    z 0.000000 0.000000 4.036910 
# 
# 
# High freq. dielectric constant tensor:
#      x y z
#    x 1.672530 0.000000 0.000000 
#    y 0.000000 1.730090 0.000000 
#    z 0.000000 0.000000 1.736150 
# 
# From -- ./inp_files/78002.got.cif
#   From: 2010.03.12/outbox.cif.g09.slc.cpg/sg65_40_cif.got.tgz:78002.got - 2010.04.10 20:52:16.
