data_PCOD8274597
_publ_section_title
;
Structure prediction by ZEFSAII (Michael W. Deem and Ramdas Pophale) SiO2 
 PCOD8274597
Probable space group: C M M M
;
_chemical_formula_sum "Si O2"
_cell_formula_units_Z 72
_cell_length_a 10.098327
_cell_length_b 18.132136
_cell_length_c 21.986641
_cell_angle_alpha 90.000000
_cell_angle_beta 90.000000
_cell_angle_gamma 90.000000
_cell_volume 4025.847158
_symmetry_space_group_name_H-M "C M M M"
_symmetry_group_IT_number 65
_symmetry_cell_setting 'orthorhombic'
loop_
_space_group_symop_operation_xyz
x,y,z
-x,-y,z
x,-y,-z
-x,y,-z
-x,-y,-z
x,y,-z
-x,y,z
x,-y,z
1/2+x,1/2+y,z
1/2-x,1/2-y,z
1/2+x,1/2-y,-z
1/2-x,1/2+y,-z
1/2-x,1/2-y,-z
1/2+x,1/2+y,-z
1/2-x,1/2+y,z
1/2+x,1/2-y,z
loop_
_atom_site_type_symbol
_atom_site_label
_atom_site_fract_x
_atom_site_fract_y
_atom_site_fract_z
Si Si1 0.000000 0.177742 0.928196
Si Si2 0.000000 0.652992 0.927633
Si Si3 0.147925 0.815163 0.500000
Si Si4 0.348825 0.415723 0.256876
Si Si5 0.153170 0.818841 0.368833
Si Si6 0.238056 0.086443 0.126065
O O1 0.000000 0.262351 0.904600
O O2 0.128989 0.136032 0.905889
O O3 0.000000 0.177871 0.000000
O O4 0.876494 0.608725 0.901908
O O5 0.000000 0.649064 0.000000
O O6 0.250000 0.750000 0.500000
O O7 0.166884 0.859011 0.435783
O O8 0.000000 0.781014 0.500000
O O9 0.500000 0.395924 0.239857
O O10 0.334988 0.500000 0.275334
O O11 0.297866 0.372568 0.315824
O O12 0.260102 0.396481 0.198228
O O13 0.250000 0.750000 0.366164
O O14 0.000000 0.795147 0.358099
O O15 0.207489 0.000000 0.114512
#
# Coordination Sequence:
#
# PCOD8274597 Si02
#       6
#     8   8   8  16  16  16
#     4  11  23  39  59  83 109 140 177 220 267 325
#     4  11  25  41  57  83 117 140 167 226 289 319
#     4   8  14  26  45  71 103 135 169 210 254 300
#     4   9  18  35  54  74 103 137 173 217 261 304
#     4   9  17  30  50  76 104 136 174 214 256 305
#     4  11  22  39  60  81 107 144 185 220 265 327
#
# _framework density 17.884433999999999
#
# number of rings (size 3 to 8) (size 9 to 14) (size 15 to 20)
#    0.000    2.222    1.111    2.000    0.000    6.222 
#    2.000    0.556    0.000    3.333    0.000    0.000 
#    0.000    8.889    0.000    0.000    0.000    0.000 
#
# Total GULP energy -446102.723822 kJ/mol
# GULP energy per Si atom -12391.742328 kJ/mol
# Density = 1.784373 g / cm^3
# Si number density = 17.884434 Si / 1000 Ang^3
#
#
#
# Elastic Constant Matrix: (Units=GPa)
#
#
# Indices 1 2 3 4 5 6 
#
# 1 71.1941 16.3914 38.9862 0.0000 0.0000 0.0000
# 2 16.3914 68.1274 55.7161 0.0000 0.0000 0.0000
# 3 38.9862 55.7161 136.2518 0.0000 0.0000 0.0000
# 4 0.0000 0.0000 0.0000 7.8116 0.0000 0.0000
# 5 0.0000 0.0000 0.0000 0.0000 24.6089 0.0000
# 6 0.0000 0.0000 0.0000 0.0000 0.0000 36.2970
#
#
#
# Elastic Compliance Matrix: (Units=1/GPa)
#
#
# Indices 1 2 3 4 5 6 
#
# 1 0.016657 -0.000165 -0.004699 0.000000 0.000000 0.000000
# 2 -0.000165 0.022055 -0.008972 0.000000 0.000000 0.000000
# 3 -0.004699 -0.008972 0.012352 0.000000 0.000000 0.000000
# 4 0.000000 0.000000 0.000000 0.128014 0.000000 0.000000
# 5 0.000000 0.000000 0.000000 0.000000 0.040636 0.000000
# 6 0.000000 0.000000 0.000000 0.000000 0.000000 0.027551
#
#
# Mechanical properties :
#
#
# Convention : Reuss Voigt Hill
#
# Bulk Modulus (GPa) = 42.74554 55.30674 49.02614
# Shear Modulus (GPa) = 17.68445 24.70881 21.19663
#
# Velocity S-wave (km/s) = 3.14796 3.72100 3.44641
# Velocity P-wave (km/s) = 6.09637 7.03226 6.58097
#
# Compressibility (1/GPa) = 0.02339426
#
# Stress axis : x y z
#
# Youngs Moduli (GPa) = 60.03435 45.34064 80.95535
#
# Poissons Ratio (x) = 0.00748 0.38039
# Poissons Ratio (y) = 0.00990 0.72630
# Poissons Ratio (z) = 0.28208 0.40678
#
# Static dielectric constant tensor:
#      x y z
#    x 3.441630 0.000000 0.000000 
#    y 0.000000 3.251570 0.000000 
#    z 0.000000 0.000000 3.866380 
# 
# 
# High freq. dielectric constant tensor:
#      x y z
#    x 1.690990 0.000000 0.000000 
#    y 0.000000 1.669640 0.000000 
#    z 0.000000 0.000000 1.716940 
# 
# From -- ./inp_files/59348.got.cif
#   From: 2010.03.12/outbox.cif.g09.slc.cpg/sg65_30_cif.got.tgz:59348.got - 2010.04.10 20:52:16.
