data_PCOD8274277
_publ_section_title
;
Structure prediction by ZEFSAII (Michael W. Deem and Ramdas Pophale) SiO2 
 PCOD8274277
Probable space group: C M M M
;
_chemical_formula_sum "Si O2"
_cell_formula_units_Z 80
_cell_length_a 8.210037
_cell_length_b 29.300929
_cell_length_c 21.913565
_cell_angle_alpha 90.000000
_cell_angle_beta 90.000000
_cell_angle_gamma 90.000000
_cell_volume 5271.564695
_symmetry_space_group_name_H-M "C M M M"
_symmetry_group_IT_number 65
_symmetry_cell_setting 'orthorhombic'
loop_
_space_group_symop_operation_xyz
x,y,z
-x,-y,z
x,-y,-z
-x,y,-z
-x,-y,-z
x,y,-z
-x,y,z
x,-y,z
1/2+x,1/2+y,z
1/2-x,1/2-y,z
1/2+x,1/2-y,-z
1/2-x,1/2+y,-z
1/2-x,1/2-y,-z
1/2+x,1/2+y,-z
1/2-x,1/2+y,z
1/2+x,1/2-y,z
loop_
_atom_site_type_symbol
_atom_site_label
_atom_site_fract_x
_atom_site_fract_y
_atom_site_fract_z
Si Si1 0.000000 0.554347 0.430424
Si Si2 0.318498 0.445908 0.360048
Si Si3 0.308119 0.202414 0.068848
Si Si4 0.811513 0.051523 0.779020
Si Si5 0.188209 0.607023 0.111691
Si Si6 0.311748 0.549743 0.000000
O O1 0.167175 0.573787 0.399774
O O2 0.000000 0.500000 0.425094
O O3 0.000000 0.570948 0.500000
O O4 0.500000 0.427595 0.380535
O O5 0.323128 0.500000 0.365885
O O6 0.285111 0.431996 0.290225
O O7 0.500000 0.202502 0.067402
O O8 0.250000 0.250000 0.099210
O O9 0.243308 0.159018 0.107799
O O10 0.237429 0.198290 0.000000
O O11 0.716136 0.086858 0.821296
O O12 0.000000 0.052448 0.796946
O O13 0.743317 0.000000 0.787870
O O14 0.270994 0.576294 0.061136
O O15 0.000000 0.607576 0.095737
O O16 0.223695 0.500000 0.000000
O O17 0.500000 0.540940 0.000000
#
# Coordination Sequence:
#
# PCOD8274277 Si02
#       6
#     8  16  16  16  16   8
#     4   9  16  24  38  60  82 107 145 185 219 256
#     4   8  15  27  40  55  80 111 144 183 217 250
#     4   9  18  33  48  63  81 100 128 169 215 263
#     4   9  18  31  44  60  83 113 148 180 210 254
#     4  11  21  32  46  65  84 103 135 178 219 263
#     4  11  23  35  44  57  82 111 138 173 216 261
#
# _framework density 15.175758999999999
#
# number of rings (size 3 to 8) (size 9 to 14) (size 15 to 20)
#    0.000    2.600    1.000    2.700    1.400    5.600 
#    0.000    2.000    0.000    0.000    0.000    0.000 
#    0.000    0.000    0.000    0.000    0.000    1.000 
#
# Total GULP energy -495713.445454 kJ/mol
# GULP energy per Si atom -12392.836136 kJ/mol
# Density = 1.514122 g / cm^3
# Si number density = 15.175759 Si / 1000 Ang^3
#
#
#
# Elastic Constant Matrix: (Units=GPa)
#
#
# Indices 1 2 3 4 5 6 
#
# 1 73.9447 28.4218 42.2563 0.0000 0.0000 0.0000
# 2 28.4218 92.8984 36.7478 0.0000 0.0000 0.0000
# 3 42.2563 36.7478 83.2599 0.0000 0.0000 0.0000
# 4 0.0000 0.0000 0.0000 5.5730 0.0000 0.0000
# 5 0.0000 0.0000 0.0000 0.0000 25.2229 0.0000
# 6 0.0000 0.0000 0.0000 0.0000 0.0000 15.9717
#
#
#
# Elastic Compliance Matrix: (Units=1/GPa)
#
#
# Indices 1 2 3 4 5 6 
#
# 1 0.019511 -0.002486 -0.008805 0.000000 0.000000 0.000000
# 2 -0.002486 0.013358 -0.004634 0.000000 0.000000 0.000000
# 3 -0.008805 -0.004634 0.018524 0.000000 0.000000 0.000000
# 4 0.000000 0.000000 0.000000 0.179437 0.000000 0.000000
# 5 0.000000 0.000000 0.000000 0.000000 0.039647 0.000000
# 6 0.000000 0.000000 0.000000 0.000000 0.000000 0.062611
#
#
# Mechanical properties :
#
#
# Convention : Reuss Voigt Hill
#
# Bulk Modulus (GPa) = 51.16833 51.66164 51.41499
# Shear Modulus (GPa) = 13.46068 18.86533 16.16301
#
# Velocity S-wave (km/s) = 2.98146 3.52962 3.26706
# Velocity P-wave (km/s) = 6.75592 7.12229 6.94153
#
# Compressibility (1/GPa) = 0.01954334
#
# Stress axis : x y z
#
# Youngs Moduli (GPa) = 51.25352 74.86054 53.98260
#
# Poissons Ratio (x) = 0.18613 0.47531
# Poissons Ratio (y) = 0.12743 0.25015
# Poissons Ratio (z) = 0.45128 0.34690
#
# Static dielectric constant tensor:
#      x y z
#    x 3.105900 0.000000 0.000000 
#    y 0.000000 2.902000 0.000000 
#    z 0.000000 0.000000 2.867010 
# 
# 
# High freq. dielectric constant tensor:
#      x y z
#    x 1.593060 0.000000 0.000000 
#    y 0.000000 1.538800 0.000000 
#    z 0.000000 0.000000 1.559630 
# 
# From -- ./inp_files/57879.got.cif
#   From: 2010.03.12/outbox.cif.g09.slc.cpg/sg65_29_cif.got.tgz:57879.got - 2010.04.10 20:52:16.
