data_PCOD8274290
_publ_section_title
;
Structure prediction by ZEFSAII (Michael W. Deem and Ramdas Pophale) SiO2 
 PCOD8274290
Probable space group: C M M M
;
_chemical_formula_sum "Si O2"
_cell_formula_units_Z 80
_cell_length_a 19.907555
_cell_length_b 8.771283
_cell_length_c 25.648416
_cell_angle_alpha 90.000000
_cell_angle_beta 90.000000
_cell_angle_gamma 90.000000
_cell_volume 4478.592998
_symmetry_space_group_name_H-M "C M M M"
_symmetry_group_IT_number 65
_symmetry_cell_setting 'orthorhombic'
loop_
_space_group_symop_operation_xyz
x,y,z
-x,-y,z
x,-y,-z
-x,y,-z
-x,-y,-z
x,y,-z
-x,y,z
x,-y,z
1/2+x,1/2+y,z
1/2-x,1/2-y,z
1/2+x,1/2-y,-z
1/2-x,1/2+y,-z
1/2-x,1/2-y,-z
1/2+x,1/2+y,-z
1/2-x,1/2+y,z
1/2+x,1/2-y,z
loop_
_atom_site_type_symbol
_atom_site_label
_atom_site_fract_x
_atom_site_fract_y
_atom_site_fract_z
Si Si1 0.176235 0.679316 0.159679
Si Si2 0.179532 0.819722 0.441157
Si Si3 0.421938 0.322661 0.758954
Si Si4 0.822985 0.821454 0.943588
Si Si5 0.926191 0.819421 0.641101
O O1 0.184636 0.500000 0.156329
O O2 0.250000 0.750000 0.169093
O O3 0.125942 0.720659 0.205817
O O4 0.141573 0.741325 0.105879
O O5 0.159992 0.771031 0.500000
O O6 0.250000 0.750000 0.424346
O O7 0.124761 0.750711 0.401427
O O8 0.184682 0.000000 0.436188
O O9 0.500000 0.286681 0.770710
O O10 0.406928 0.500000 0.769324
O O11 0.403876 0.277061 0.699620
O O12 0.750000 0.750000 0.947080
O O13 0.817423 0.000000 0.932152
O O14 0.859494 0.792751 0.000000
O O15 0.000000 0.751078 0.629553
O O16 0.929379 0.000000 0.635726
#
# Coordination Sequence:
#
# PCOD8274290 Si02
#       5
#    16  16  16  16  16
#     4  11  21  32  49  73 101 129 162 203 242 286
#     4   9  17  29  46  69  97 126 155 190 233 281
#     4   9  18  34  53  70  94 128 162 199 246 297
#     4   9  16  27  45  69  97 127 159 196 239 286
#     4   8  15  29  49  71  92 118 156 198 237 279
#
# _framework density 17.862753999999999
#
# number of rings (size 3 to 8) (size 9 to 14) (size 15 to 20)
#    0.000    2.800    0.000    4.800    0.000    2.800 
#    0.000    5.000    0.000    2.400    0.000    7.000 
#    0.000    0.000    0.000    0.000    0.000    0.000 
#
# Total GULP energy -495689.675152 kJ/mol
# GULP energy per Si atom -12392.241879 kJ/mol
# Density = 1.782210 g / cm^3
# Si number density = 17.862754 Si / 1000 Ang^3
#
#
#
# Elastic Constant Matrix: (Units=GPa)
#
#
# Indices 1 2 3 4 5 6 
#
# 1 85.4387 36.9273 84.7064 0.0000 0.0000 0.0000
# 2 36.9273 78.3505 47.2935 0.0000 0.0000 0.0000
# 3 84.7064 47.2935 155.5460 0.0000 0.0000 0.0000
# 4 0.0000 0.0000 0.0000 21.4479 0.0000 0.0000
# 5 0.0000 0.0000 0.0000 0.0000 10.2466 0.0000
# 6 0.0000 0.0000 0.0000 0.0000 0.0000 22.8255
#
#
#
# Elastic Compliance Matrix: (Units=1/GPa)
#
#
# Indices 1 2 3 4 5 6 
#
# 1 0.026768 -0.004675 -0.013156 0.000000 0.000000 0.000000
# 2 -0.004675 0.016449 -0.002455 0.000000 0.000000 0.000000
# 3 -0.013156 -0.002455 0.014340 0.000000 0.000000 0.000000
# 4 0.000000 0.000000 0.000000 0.046625 0.000000 0.000000
# 5 0.000000 0.000000 0.000000 0.000000 0.097593 0.000000
# 6 0.000000 0.000000 0.000000 0.000000 0.000000 0.043811
#
#
# Mechanical properties :
#
#
# Convention : Reuss Voigt Hill
#
# Bulk Modulus (GPa) = 58.87800 73.02107 65.94953
# Shear Modulus (GPa) = 17.13399 20.93121 19.03260
#
# Velocity S-wave (km/s) = 3.10046 3.42684 3.26773
# Velocity P-wave (km/s) = 6.77126 7.52498 7.15805
#
# Compressibility (1/GPa) = 0.01698427
#
# Stress axis : x y z
#
# Youngs Moduli (GPa) = 37.35854 60.79557 69.73652
#
# Poissons Ratio (x) = 0.28421 0.91742
# Poissons Ratio (y) = 0.17465 0.17123
# Poissons Ratio (z) = 0.49147 0.14927
#
# Static dielectric constant tensor:
#      x y z
#    x 3.232480 0.000000 0.000000 
#    y 0.000000 3.126740 0.000000 
#    z 0.000000 0.000000 3.916400 
# 
# 
# High freq. dielectric constant tensor:
#      x y z
#    x 1.660820 0.000000 0.000000 
#    y 0.000000 1.674630 0.000000 
#    z 0.000000 0.000000 1.710050 
# 
# From -- ./inp_files/72804.got.cif
#   From: 2010.03.12/outbox.cif.g09.slc.cpg/sg65_37_cif.got.tgz:72804.got - 2010.04.10 20:52:16.
