data_PCOD8274319
_publ_section_title
;
Structure prediction by ZEFSAII (Michael W. Deem and Ramdas Pophale) SiO2 
 PCOD8274319
Probable space group: C M M M
;
_chemical_formula_sum "Si O2"
_cell_formula_units_Z 96
_cell_length_a 25.085663
_cell_length_b 23.586232
_cell_length_c 8.754011
_cell_angle_alpha 90.000000
_cell_angle_beta 90.000000
_cell_angle_gamma 90.000000
_cell_volume 5179.540553
_symmetry_space_group_name_H-M "C M M M"
_symmetry_group_IT_number 65
_symmetry_cell_setting 'orthorhombic'
loop_
_space_group_symop_operation_xyz
x,y,z
-x,-y,z
x,-y,-z
-x,y,-z
-x,-y,-z
x,y,-z
-x,y,z
x,-y,z
1/2+x,1/2+y,z
1/2-x,1/2-y,z
1/2+x,1/2-y,-z
1/2-x,1/2+y,-z
1/2-x,1/2-y,-z
1/2+x,1/2+y,-z
1/2-x,1/2+y,z
1/2+x,1/2-y,z
loop_
_atom_site_type_symbol
_atom_site_label
_atom_site_fract_x
_atom_site_fract_y
_atom_site_fract_z
Si Si1 0.559951 0.188483 0.678692
Si Si2 0.309807 0.747134 0.666674
Si Si3 0.342441 0.859918 0.820821
Si Si4 0.940117 0.818183 0.678593
Si Si5 0.748849 0.066684 0.674659
Si Si6 0.658374 0.366444 0.819929
O O1 0.559704 0.176462 0.500000
O O2 0.500000 0.182876 0.743575
O O3 0.596510 0.140363 0.758479
O O4 0.580963 0.253430 0.712244
O O5 0.341292 0.747491 0.500000
O O6 0.250000 0.750000 0.615734
O O7 0.321649 0.798666 0.777390
O O8 0.316274 0.691465 0.765659
O O9 0.304489 0.907173 0.747729
O O10 0.342334 0.870039 0.000000
O O11 0.940674 0.830394 0.500000
O O12 0.902666 0.865499 0.758164
O O13 0.000000 0.824452 0.744039
O O14 0.751869 0.087156 0.500000
O O15 0.804564 0.083507 0.754763
O O16 0.742633 0.000000 0.689581
O O17 0.657653 0.372341 0.000000
#
# Coordination Sequence:
#
# PCOD8274319 Si02
#       6
#    16  16  16  16  16  16
#     4   9  18  33  54  80 114 156 193 224 264 324
#     4  11  21  33  52  77 111 152 188 222 266 331
#     4  12  23  34  55  85 117 147 179 229 288 335
#     4   9  18  33  54  80 114 156 193 224 264 324
#     4  11  25  44  63  80 103 145 195 235 276 333
#     4  12  23  34  55  85 117 147 179 229 288 335
#
# _framework density 18.534462000000001
#
# number of rings (size 3 to 8) (size 9 to 14) (size 15 to 20)
#    0.000    1.333    3.333    5.000    0.000    2.667 
#    0.000    1.667    0.000    1.000    0.000    7.000 
#    0.000    0.000    0.000    0.000    0.000    0.000 
#
# Total GULP energy -594837.709230 kJ/mol
# GULP energy per Si atom -12392.452276 kJ/mol
# Density = 1.849228 g / cm^3
# Si number density = 18.534462 Si / 1000 Ang^3
#
#
#
# Elastic Constant Matrix: (Units=GPa)
#
#
# Indices 1 2 3 4 5 6 
#
# 1 116.8392 23.7289 45.4566 0.0000 0.0000 0.0000
# 2 23.7289 42.1990 23.9074 0.0000 0.0000 0.0000
# 3 45.4566 23.9074 119.6227 0.0000 0.0000 0.0000
# 4 0.0000 0.0000 0.0000 25.3016 0.0000 0.0000
# 5 0.0000 0.0000 0.0000 0.0000 11.9361 0.0000
# 6 0.0000 0.0000 0.0000 0.0000 0.0000 10.3887
#
#
#
# Elastic Compliance Matrix: (Units=1/GPa)
#
#
# Indices 1 2 3 4 5 6 
#
# 1 0.010657 -0.004170 -0.003216 0.000000 0.000000 0.000000
# 2 -0.004170 0.028355 -0.004082 0.000000 0.000000 0.000000
# 3 -0.003216 -0.004082 0.010398 0.000000 0.000000 0.000000
# 4 0.000000 0.000000 0.000000 0.039523 0.000000 0.000000
# 5 0.000000 0.000000 0.000000 0.000000 0.083780 0.000000
# 6 0.000000 0.000000 0.000000 0.000000 0.000000 0.096258
#
#
# Mechanical properties :
#
#
# Convention : Reuss Voigt Hill
#
# Bulk Modulus (GPa) = 37.77566 51.64963 44.71264
# Shear Modulus (GPa) = 16.62610 21.89649 19.26130
#
# Velocity S-wave (km/s) = 2.99831 3.44087 3.22718
# Velocity P-wave (km/s) = 5.69316 6.61161 6.16950
#
# Compressibility (1/GPa) = 0.02647207
#
# Stress axis : x y z
#
# Youngs Moduli (GPa) = 93.83496 35.26714 96.17597
#
# Poissons Ratio (x) = 0.14708 0.30932
# Poissons Ratio (y) = 0.39133 0.39261
# Poissons Ratio (z) = 0.30179 0.14397
#
# Static dielectric constant tensor:
#      x y z
#    x 4.049280 0.000000 0.000000 
#    y 0.000000 3.026350 0.000000 
#    z 0.000000 0.000000 3.361480 
# 
# 
# High freq. dielectric constant tensor:
#      x y z
#    x 1.745870 0.000000 0.000000 
#    y 0.000000 1.670380 0.000000 
#    z 0.000000 0.000000 1.723780 
# 
# From -- ./inp_files/16339.got.cif
#   From: 2010.03.12/outbox.cif.g09.slc.cpg/sg65_9_cif.got.tgz:16339.got - 2010.04.10 20:52:16.
