data_PCOD8274689
_publ_section_title
;
Structure prediction by ZEFSAII (Michael W. Deem and Ramdas Pophale) SiO2 
 PCOD8274689
Probable space group: C M M M
;
_chemical_formula_sum "Si O2"
_cell_formula_units_Z 72
_cell_length_a 13.298948
_cell_length_b 28.848139
_cell_length_c 9.316863
_cell_angle_alpha 90.000000
_cell_angle_beta 90.000000
_cell_angle_gamma 90.000000
_cell_volume 3574.413563
_symmetry_space_group_name_H-M "C M M M"
_symmetry_group_IT_number 65
_symmetry_cell_setting 'orthorhombic'
loop_
_space_group_symop_operation_xyz
x,y,z
-x,-y,z
x,-y,-z
-x,y,-z
-x,-y,-z
x,y,-z
-x,y,z
x,-y,z
1/2+x,1/2+y,z
1/2-x,1/2-y,z
1/2+x,1/2-y,-z
1/2-x,1/2+y,-z
1/2-x,1/2-y,-z
1/2+x,1/2+y,-z
1/2-x,1/2+y,z
1/2+x,1/2-y,z
loop_
_atom_site_type_symbol
_atom_site_label
_atom_site_fract_x
_atom_site_fract_y
_atom_site_fract_z
Si Si1 0.612232 0.359157 0.336156
Si Si2 0.881292 0.328530 0.840329
Si Si3 0.115438 0.226772 0.165998
Si Si4 0.302175 0.087774 0.334499
Si Si5 0.882047 0.500000 0.168438
O O1 0.608833 0.343143 0.500000
O O2 0.500000 0.371782 0.280086
O O3 0.664835 0.316606 0.250244
O O4 0.682227 0.404533 0.318178
O O5 0.833932 0.277379 0.803196
O O6 0.857285 0.366042 0.719780
O O7 0.000000 0.321167 0.847011
O O8 0.844135 0.344247 0.000000
O O9 0.000000 0.227912 0.217915
O O10 0.124532 0.214864 0.000000
O O11 0.332723 0.078939 0.500000
O O12 0.333144 0.044867 0.238181
O O13 0.000000 0.500000 0.199937
O O14 0.859140 0.500000 0.000000
#
# Coordination Sequence:
#
# PCOD8274689 Si02
#       5
#    16  16  16  16   8
#     4   9  19  36  55  77 110 149 184 220 265 315
#     4   9  18  33  52  77 112 150 185 223 270 323
#     4   8  15  29  50  76 107 146 189 227 264 310
#     4  11  23  37  57  84 109 138 180 226 271 320
#     4  11  25  45  66  85 108 138 169 209 268 331
#
# _framework density 20.143165
#
# number of rings (size 3 to 8) (size 9 to 14) (size 15 to 20)
#    0.000    2.556    0.000    3.000    0.000    7.556 
#    0.000    7.222    0.000    3.333    0.000    0.000 
#    0.000    0.000    0.000    0.000    0.000    0.000 
#
# Total GULP energy -446271.282235 kJ/mol
# GULP energy per Si atom -12396.424507 kJ/mol
# Density = 2.009732 g / cm^3
# Si number density = 20.143165 Si / 1000 Ang^3
#
#
#
# Elastic Constant Matrix: (Units=GPa)
#
#
# Indices 1 2 3 4 5 6 
#
# 1 52.7643 51.1463 42.4278 0.0000 0.0000 0.0000
# 2 51.1463 144.4814 78.1507 0.0000 0.0000 0.0000
# 3 42.4278 78.1507 105.8888 0.0000 0.0000 0.0000
# 4 0.0000 0.0000 0.0000 18.2051 0.0000 0.0000
# 5 0.0000 0.0000 0.0000 0.0000 23.5694 0.0000
# 6 0.0000 0.0000 0.0000 0.0000 0.0000 28.2400
#
#
#
# Elastic Compliance Matrix: (Units=1/GPa)
#
#
# Indices 1 2 3 4 5 6 
#
# 1 0.032018 -0.007315 -0.007430 0.000000 0.000000 0.000000
# 2 -0.007315 0.013192 -0.006805 0.000000 0.000000 0.000000
# 3 -0.007430 -0.006805 0.017443 0.000000 0.000000 0.000000
# 4 0.000000 0.000000 0.000000 0.054930 0.000000 0.000000
# 5 0.000000 0.000000 0.000000 0.000000 0.042428 0.000000
# 6 0.000000 0.000000 0.000000 0.000000 0.000000 0.035411
#
#
# Mechanical properties :
#
#
# Convention : Reuss Voigt Hill
#
# Bulk Modulus (GPa) = 51.14499 71.84267 61.49383
# Shear Modulus (GPa) = 20.40494 22.76354 21.58424
#
# Velocity S-wave (km/s) = 3.18621 3.36532 3.27699
# Velocity P-wave (km/s) = 6.24354 7.13050 6.70171
#
# Compressibility (1/GPa) = 0.01955226
#
# Stress axis : x y z
#
# Youngs Moduli (GPa) = 31.23290 75.80465 57.32882
#
# Poissons Ratio (x) = 0.55454 0.42594
# Poissons Ratio (y) = 0.22848 0.39012
# Poissons Ratio (z) = 0.23205 0.51585
#
# Static dielectric constant tensor:
#      x y z
#    x 3.871540 0.000000 0.000000 
#    y 0.000000 3.648820 0.000000 
#    z 0.000000 0.000000 3.648030 
# 
# 
# High freq. dielectric constant tensor:
#      x y z
#    x 1.799220 0.000000 0.000000 
#    y 0.000000 1.772260 0.000000 
#    z 0.000000 0.000000 1.782250 
# 
# From -- ./inp_files/7300.got.cif
#   From: 2010.03.12/outbox.cif.g09.slc.cpg/sg65_4_cif.got.tgz:7300.got - 2010.04.10 20:52:16.
