data_PCOD8274294
_publ_section_title
;
Structure prediction by ZEFSAII (Michael W. Deem and Ramdas Pophale) SiO2 
 PCOD8274294
Probable space group: C M M M
;
_chemical_formula_sum "Si O2"
_cell_formula_units_Z 88
_cell_length_a 9.000219
_cell_length_b 30.059777
_cell_length_c 17.360730
_cell_angle_alpha 90.000000
_cell_angle_beta 90.000000
_cell_angle_gamma 90.000000
_cell_volume 4696.851338
_symmetry_space_group_name_H-M "C M M M"
_symmetry_group_IT_number 65
_symmetry_cell_setting 'orthorhombic'
loop_
_space_group_symop_operation_xyz
x,y,z
-x,-y,z
x,-y,-z
-x,y,-z
-x,-y,-z
x,y,-z
-x,y,z
x,-y,z
1/2+x,1/2+y,z
1/2-x,1/2-y,z
1/2+x,1/2-y,-z
1/2-x,1/2+y,-z
1/2-x,1/2-y,-z
1/2+x,1/2+y,-z
1/2-x,1/2+y,z
1/2+x,1/2-y,z
loop_
_atom_site_type_symbol
_atom_site_label
_atom_site_fract_x
_atom_site_fract_y
_atom_site_fract_z
Si Si1 0.662174 0.208625 0.626556
Si Si2 0.331051 0.051548 0.089241
Si Si3 0.675464 0.616417 0.200642
Si Si4 0.176430 0.450118 0.500000
Si Si5 0.166181 0.707228 0.191184
Si Si6 0.322261 0.111468 0.361889
O O1 0.500000 0.211420 0.589396
O O2 0.750000 0.250000 0.589639
O O3 0.654815 0.213445 0.717895
O O4 0.731031 0.160104 0.607221
O O5 0.500000 0.064529 0.111821
O O6 0.213282 0.079335 0.137954
O O7 0.303229 0.000000 0.107148
O O8 0.302730 0.061800 0.000000
O O9 0.500000 0.621608 0.209953
O O10 0.742522 0.662974 0.171147
O O11 0.745042 0.600438 0.281335
O O12 0.242242 0.500000 0.500000
O O13 0.231667 0.424962 0.423462
O O14 0.000000 0.451043 0.500000
O O15 0.250000 0.750000 0.154995
O O16 0.000000 0.703814 0.155999
O O17 0.500000 0.111766 0.349411
#
# Coordination Sequence:
#
# PCOD8274294 Si02
#       6
#    16  16  16   8  16  16
#     4   8  14  24  41  65  94 125 156 197 246 295
#     4   9  19  37  59  80 103 134 172 215 265 317
#     4  11  21  32  51  80 111 142 175 211 255 311
#     4   9  18  34  56  75  91 123 173 223 269 313
#     4   9  16  28  47  73 105 139 176 216 256 300
#     4   9  18  33  51  73 100 130 171 220 262 303
#
# _framework density 18.735956999999999
#
# number of rings (size 3 to 8) (size 9 to 14) (size 15 to 20)
#    0.000    2.818    0.000    3.818    0.000    5.818 
#    0.000    3.636    0.000    1.091    0.000    0.000 
#    0.000    0.000    0.000    0.000    0.000    0.000 
#
# Total GULP energy -545428.766327 kJ/mol
# GULP energy per Si atom -12396.108326 kJ/mol
# Density = 1.869331 g / cm^3
# Si number density = 18.735957 Si / 1000 Ang^3
#
#
#
# Elastic Constant Matrix: (Units=GPa)
#
#
# Indices 1 2 3 4 5 6 
#
# 1 97.5724 52.6924 36.2647 0.0000 0.0000 0.0000
# 2 52.6924 146.1232 59.4920 0.0000 0.0000 0.0000
# 3 36.2647 59.4920 63.4980 0.0000 0.0000 0.0000
# 4 0.0000 0.0000 0.0000 -7.7776 0.0000 0.0000
# 5 0.0000 0.0000 0.0000 0.0000 11.6216 0.0000
# 6 0.0000 0.0000 0.0000 0.0000 0.0000 32.0419
#
#
#
# Elastic Compliance Matrix: (Units=1/GPa)
#
#
# Indices 1 2 3 4 5 6 
#
# 1 0.013701 -0.002837 -0.005167 0.000000 0.000000 0.000000
# 2 -0.002837 0.011651 -0.009296 0.000000 0.000000 0.000000
# 3 -0.005167 -0.009296 0.027409 0.000000 0.000000 0.000000
# 4 0.000000 0.000000 0.000000 -0.128574 0.000000 0.000000
# 5 0.000000 0.000000 0.000000 0.000000 0.086047 0.000000
# 6 0.000000 0.000000 0.000000 0.000000 0.000000 0.031209
#
#
# Mechanical properties :
#
#
# Convention : Reuss Voigt Hill
#
# Bulk Modulus (GPa) = 55.06119 67.12131 61.09125
# Shear Modulus (GPa) = 60.90316 17.76013 39.33164
#
# Velocity S-wave (km/s) = 5.70759 3.08217 4.58674
# Velocity P-wave (km/s) = 8.53740 6.96914 7.79282
#
# Compressibility (1/GPa) = 0.01816161
#
# Stress axis : x y z
#
# Youngs Moduli (GPa) = 72.98570 85.82729 36.48452
#
# Poissons Ratio (x) = 0.24350 0.18851
# Poissons Ratio (y) = 0.20707 0.33916
# Poissons Ratio (z) = 0.37711 0.79784
#
# Static dielectric constant tensor:
#      x y z
#    x 3.413960 0.000000 0.000000 
#    y 0.000000 3.665920 0.000000 
#    z 0.000000 0.000000 3.052860 
# 
# 
# High freq. dielectric constant tensor:
#      x y z
#    x 1.711960 0.000000 0.000000 
#    y 0.000000 1.738700 0.000000 
#    z 0.000000 0.000000 1.692610 
# 
# From -- ./inp_files/50329.got.cif
#   From: 2010.03.12/outbox.cif.g09.slc.cpg/sg65_26_cif.got.tgz:50329.got - 2010.04.10 20:52:16.
