data_PCOD8274621
_publ_section_title
;
Structure prediction by ZEFSAII (Michael W. Deem and Ramdas Pophale) SiO2 
 PCOD8274621
Probable space group: C M M M
;
_chemical_formula_sum "Si O2"
_cell_formula_units_Z 72
_cell_length_a 8.609378
_cell_length_b 15.355516
_cell_length_c 27.229503
_cell_angle_alpha 90.000000
_cell_angle_beta 90.000000
_cell_angle_gamma 90.000000
_cell_volume 3599.779551
_symmetry_space_group_name_H-M "C M M M"
_symmetry_group_IT_number 65
_symmetry_cell_setting 'orthorhombic'
loop_
_space_group_symop_operation_xyz
x,y,z
-x,-y,z
x,-y,-z
-x,y,-z
-x,-y,-z
x,y,-z
-x,y,z
x,-y,z
1/2+x,1/2+y,z
1/2-x,1/2-y,z
1/2+x,1/2-y,-z
1/2-x,1/2+y,-z
1/2-x,1/2-y,-z
1/2+x,1/2+y,-z
1/2-x,1/2+y,z
1/2+x,1/2-y,z
loop_
_atom_site_type_symbol
_atom_site_label
_atom_site_fract_x
_atom_site_fract_y
_atom_site_fract_z
Si Si1 0.684403 0.500000 0.162810
Si Si2 0.683164 0.345232 0.448289
Si Si3 0.318478 0.397573 0.000000
Si Si4 0.684669 0.500000 0.274624
Si Si5 0.184026 0.341287 0.897804
Si Si6 0.815770 0.154130 0.341723
O O1 0.500000 0.500000 0.157968
O O2 0.742738 0.500000 0.218820
O O3 0.749853 0.414938 0.137222
O O4 0.734422 0.393922 0.500000
O O5 0.500000 0.339101 0.447651
O O6 0.750000 0.250000 0.450356
O O7 0.736096 0.384835 0.395684
O O8 0.239336 0.355248 0.046868
O O9 0.288169 0.500000 0.000000
O O10 0.500000 0.375174 0.000000
O O11 0.500000 0.500000 0.277464
O O12 0.749690 0.413380 0.301454
O O13 0.250000 0.250000 0.878094
O O14 0.000000 0.341873 0.895657
O O15 0.750000 0.250000 0.331269
O O16 0.000000 0.160967 0.338361
#
# Coordination Sequence:
#
# PCOD8274621 Si02
#       6
#     8  16   8   8  16  16
#     4  11  23  42  62  84 115 152 197 248 299 346
#     4   8  13  22  40  67  98 131 168 211 261 321
#     4  11  22  39  66  96 131 167 197 233 282 336
#     4   9  20  37  57  78 106 142 180 230 287 338
#     4  12  25  42  65  93 125 160 199 240 288 342
#     4   9  17  32  52  75 103 138 178 221 274 332
#
# _framework density 20.001224000000001
#
# number of rings (size 3 to 8) (size 9 to 14) (size 15 to 20)
#    0.000    2.111    1.111    3.000    0.000    1.333 
#    0.000    5.556    0.000    3.333    0.000    0.000 
#    0.000   17.778    0.000    0.000    0.000    0.000 
#
# Total GULP energy -445998.834050 kJ/mol
# GULP energy per Si atom -12388.856501 kJ/mol
# Density = 1.995570 g / cm^3
# Si number density = 20.001224 Si / 1000 Ang^3
#
#
#
# Elastic Constant Matrix: (Units=GPa)
#
#
# Indices 1 2 3 4 5 6 
#
# 1 70.6342 42.5079 40.9700 0.0000 0.0000 0.0000
# 2 42.5079 143.4820 91.9429 0.0000 0.0000 0.0000
# 3 40.9700 91.9429 197.5625 0.0000 0.0000 0.0000
# 4 0.0000 0.0000 0.0000 18.2991 0.0000 0.0000
# 5 0.0000 0.0000 0.0000 0.0000 4.6874 0.0000
# 6 0.0000 0.0000 0.0000 0.0000 0.0000 27.2382
#
#
#
# Elastic Compliance Matrix: (Units=1/GPa)
#
#
# Indices 1 2 3 4 5 6 
#
# 1 0.017643 -0.004107 -0.001747 0.000000 0.000000 0.000000
# 2 -0.004107 0.010887 -0.004215 0.000000 0.000000 0.000000
# 3 -0.001747 -0.004215 0.007386 0.000000 0.000000 0.000000
# 4 0.000000 0.000000 0.000000 0.054647 0.000000 0.000000
# 5 0.000000 0.000000 0.000000 0.000000 0.213337 0.000000
# 6 0.000000 0.000000 0.000000 0.000000 0.000000 0.036713
#
#
# Mechanical properties :
#
#
# Convention : Reuss Voigt Hill
#
# Bulk Modulus (GPa) = 63.38498 84.72449 74.05473
# Shear Modulus (GPa) = 13.66081 25.79547 19.72814
#
# Velocity S-wave (km/s) = 2.61626 3.59513 3.14402
# Velocity P-wave (km/s) = 6.39420 7.72560 7.09121
#
# Compressibility (1/GPa) = 0.01577661
#
# Stress axis : x y z
#
# Youngs Moduli (GPa) = 56.68094 91.85004 135.39721
#
# Poissons Ratio (x) = 0.37724 0.23658
# Poissons Ratio (y) = 0.23280 0.57071
# Poissons Ratio (z) = 0.09904 0.38716
#
# Static dielectric constant tensor:
#      x y z
#    x 3.557240 0.000000 0.000000 
#    y 0.000000 3.641350 0.000000 
#    z 0.000000 0.000000 4.295500 
# 
# 
# High freq. dielectric constant tensor:
#      x y z
#    x 1.766730 0.000000 0.000000 
#    y 0.000000 1.770590 0.000000 
#    z 0.000000 0.000000 1.798870 
# 
# From -- ./inp_files/76383.got.cif
#   From: 2010.03.12/outbox.cif.g09.slc.cpg/sg65_39_cif.got.tgz:76383.got - 2010.04.10 20:52:16.
