data_PCOD8274684
_publ_section_title
;
Structure prediction by ZEFSAII (Michael W. Deem and Ramdas Pophale) SiO2 
 PCOD8274684
Probable space group: C M M M
;
_chemical_formula_sum "Si O2"
_cell_formula_units_Z 88
_cell_length_a 9.181310
_cell_length_b 18.842311
_cell_length_c 28.223929
_cell_angle_alpha 90.000000
_cell_angle_beta 90.000000
_cell_angle_gamma 90.000000
_cell_volume 4882.657823
_symmetry_space_group_name_H-M "C M M M"
_symmetry_group_IT_number 65
_symmetry_cell_setting 'orthorhombic'
loop_
_space_group_symop_operation_xyz
x,y,z
-x,-y,z
x,-y,-z
-x,y,-z
-x,-y,-z
x,y,-z
-x,y,z
x,-y,z
1/2+x,1/2+y,z
1/2-x,1/2-y,z
1/2+x,1/2-y,-z
1/2-x,1/2+y,-z
1/2-x,1/2-y,-z
1/2+x,1/2+y,-z
1/2-x,1/2+y,z
1/2+x,1/2-y,z
loop_
_atom_site_type_symbol
_atom_site_label
_atom_site_fract_x
_atom_site_fract_y
_atom_site_fract_z
Si Si1 0.167298 0.322459 0.000000
Si Si2 0.329921 0.581241 0.281804
Si Si3 0.171130 0.581131 0.811606
Si Si4 0.833259 0.581184 0.444702
Si Si5 0.829066 0.675342 0.102191
Si Si6 0.327673 0.325065 0.628660
O O1 0.250000 0.250000 0.000000
O O2 0.203753 0.361377 0.050190
O O3 0.000000 0.301508 0.000000
O O4 0.500000 0.587443 0.271772
O O5 0.284357 0.500000 0.292672
O O6 0.247516 0.610802 0.235583
O O7 0.281853 0.628897 0.325889
O O8 0.215889 0.500000 0.819943
O O9 0.230077 0.623386 0.857207
O O10 0.000000 0.590368 0.804880
O O11 0.812181 0.595939 0.500000
O O12 0.791852 0.500000 0.432645
O O13 0.725547 0.633733 0.417743
O O14 0.000000 0.596256 0.429790
O O15 0.750000 0.750000 0.107340
O O16 0.000000 0.688490 0.108736
O O17 0.500000 0.314000 0.625155
O O18 0.250000 0.250000 0.632582
#
# Coordination Sequence:
#
# PCOD8274684 Si02
#       6
#     8  16  16  16  16  16
#     4   8  14  26  43  63  89 121 155 192 234 280
#     4   9  19  36  55  73  95 127 167 207 247 295
#     4   9  18  32  49  70  96 125 158 197 242 293
#     4   9  19  37  60  84 109 138 173 211 251 299
#     4   9  17  29  46  68  93 122 158 197 237 284
#     4  11  23  37  54  78 108 139 172 212 256 301
#
# _framework density 18.022970000000001
#
# number of rings (size 3 to 8) (size 9 to 14) (size 15 to 20)
#    0.000    2.727    0.000    1.636    0.000    4.727 
#    0.000    6.818    0.000    2.727    0.000    0.000 
#    0.000   10.182    0.000    0.000    0.000    0.000 
#
# Total GULP energy -545404.447210 kJ/mol
# GULP energy per Si atom -12395.555618 kJ/mol
# Density = 1.798195 g / cm^3
# Si number density = 18.022970 Si / 1000 Ang^3
#
#
#
# Elastic Constant Matrix: (Units=GPa)
#
#
# Indices 1 2 3 4 5 6 
#
# 1 50.1667 41.2091 52.0346 0.0000 0.0000 0.0000
# 2 41.2091 93.6317 75.0939 0.0000 0.0000 0.0000
# 3 52.0346 75.0939 145.3473 0.0000 0.0000 0.0000
# 4 0.0000 0.0000 0.0000 31.6740 0.0000 0.0000
# 5 0.0000 0.0000 0.0000 0.0000 29.9375 0.0000
# 6 0.0000 0.0000 0.0000 0.0000 0.0000 21.3565
#
#
#
# Elastic Compliance Matrix: (Units=1/GPa)
#
#
# Indices 1 2 3 4 5 6 
#
# 1 0.035977 -0.009399 -0.008024 0.000000 0.000000 0.000000
# 2 -0.009399 0.020692 -0.007326 0.000000 0.000000 0.000000
# 3 -0.008024 -0.007326 0.013538 0.000000 0.000000 0.000000
# 4 0.000000 0.000000 0.000000 0.031572 0.000000 0.000000
# 5 0.000000 0.000000 0.000000 0.000000 0.033403 0.000000
# 6 0.000000 0.000000 0.000000 0.000000 0.000000 0.046824
#
#
# Mechanical properties :
#
#
# Convention : Reuss Voigt Hill
#
# Bulk Modulus (GPa) = 48.28714 69.53566 58.91140
# Shear Modulus (GPa) = 20.97269 24.64748 22.81008
#
# Velocity S-wave (km/s) = 3.41495 3.70206 3.56140
# Velocity P-wave (km/s) = 6.51148 7.54580 7.04764
#
# Compressibility (1/GPa) = 0.02070945
#
# Stress axis : x y z
#
# Youngs Moduli (GPa) = 27.79573 48.32738 73.86882
#
# Poissons Ratio (x) = 0.45422 0.59271
# Poissons Ratio (y) = 0.26125 0.54115
# Poissons Ratio (z) = 0.22303 0.35404
#
# Static dielectric constant tensor:
#      x y z
#    x 3.218660 0.000000 0.000000 
#    y 0.000000 3.184320 0.000000 
#    z 0.000000 0.000000 3.737640 
# 
# 
# High freq. dielectric constant tensor:
#      x y z
#    x 1.694310 0.000000 0.000000 
#    y 0.000000 1.678140 0.000000 
#    z 0.000000 0.000000 1.716380 
# 
# From -- ./inp_files/73188.got.cif
#   From: 2010.03.12/outbox.cif.g09.slc.cpg/sg65_37_cif.got.tgz:73188.got - 2010.04.10 20:52:16.
