data_PCOD8274741
_publ_section_title
;
Structure prediction by ZEFSAII (Michael W. Deem and Ramdas Pophale) SiO2 
 PCOD8274741
Probable space group: C M M M
;
_chemical_formula_sum "Si O2"
_cell_formula_units_Z 88
_cell_length_a 21.218885
_cell_length_b 8.641661
_cell_length_c 25.312011
_cell_angle_alpha 90.000000
_cell_angle_beta 90.000000
_cell_angle_gamma 90.000000
_cell_volume 4641.372611
_symmetry_space_group_name_H-M "C M M M"
_symmetry_group_IT_number 65
_symmetry_cell_setting 'orthorhombic'
loop_
_space_group_symop_operation_xyz
x,y,z
-x,-y,z
x,-y,-z
-x,y,-z
-x,-y,-z
x,y,-z
-x,y,z
x,-y,z
1/2+x,1/2+y,z
1/2-x,1/2-y,z
1/2+x,1/2-y,-z
1/2-x,1/2+y,-z
1/2-x,1/2-y,-z
1/2+x,1/2+y,-z
1/2-x,1/2+y,z
1/2+x,1/2-y,z
loop_
_atom_site_type_symbol
_atom_site_label
_atom_site_fract_x
_atom_site_fract_y
_atom_site_fract_z
Si Si1 0.376131 0.683781 0.103647
Si Si2 0.574524 0.328172 0.394193
Si Si3 0.317579 0.184791 0.000000
Si Si4 0.928804 0.317628 0.284902
Si Si5 0.500000 0.815814 0.062494
Si Si6 0.575289 0.826209 0.500000
Si Si7 0.318191 0.184053 0.207746
O O1 0.375362 0.500000 0.109526
O O2 0.348554 0.740800 0.049719
O O3 0.445762 0.750307 0.100014
O O4 0.334377 0.757894 0.149556
O O5 0.500000 0.332908 0.399883
O O6 0.602236 0.500000 0.387211
O O7 0.593718 0.227979 0.343460
O O8 0.603020 0.255453 0.447662
O O9 0.250000 0.250000 0.000000
O O10 0.323693 0.000000 0.000000
O O11 0.931862 0.500000 0.281031
O O12 0.875338 0.253822 0.245015
O O13 0.000000 0.251209 0.272537
O O14 0.500000 0.000000 0.062332
O O15 0.500000 0.759618 0.000000
O O16 0.500000 0.821433 0.500000
O O17 0.600520 0.000000 0.500000
O O18 0.250000 0.250000 0.225730
O O19 0.314083 0.000000 0.208932
#
# Coordination Sequence:
#
# PCOD8274741 Si02
#       7
#    16  16   8  16   8   8  16
#     4  12  25  41  62  89 118 148 187 235 283 339
#     4   9  16  26  43  71 107 144 182 231 284 334
#     4  12  24  41  62  85 112 148 186 230 284 342
#     4   9  19  36  57  81 109 148 192 235 285 342
#     4  11  23  41  65  91 120 154 186 223 278 343
#     4   9  15  23  39  65 102 147 188 227 272 333
#     4  11  24  42  63  86 116 153 195 242 291 346
#
# _framework density 18.959907999999999
#
# number of rings (size 3 to 8) (size 9 to 14) (size 15 to 20)
#    0.000    1.636    0.909    4.636    1.273    5.091 
#    0.000    0.000    0.000    0.000    0.000    0.636 
#    0.000    0.000    0.000    0.000    0.000    0.000 
#
# Total GULP energy -545281.934296 kJ/mol
# GULP energy per Si atom -12392.771234 kJ/mol
# Density = 1.891675 g / cm^3
# Si number density = 18.959908 Si / 1000 Ang^3
#
#
#
# Elastic Constant Matrix: (Units=GPa)
#
#
# Indices 1 2 3 4 5 6 
#
# 1 113.2718 32.6422 50.8632 0.0000 0.0000 0.0000
# 2 32.6422 62.9593 20.7951 0.0000 0.0000 0.0000
# 3 50.8632 20.7951 123.4024 0.0000 0.0000 0.0000
# 4 0.0000 0.0000 0.0000 43.5691 0.0000 0.0000
# 5 0.0000 0.0000 0.0000 0.0000 -97.8326 0.0000
# 6 0.0000 0.0000 0.0000 0.0000 0.0000 26.9688
#
#
#
# Elastic Compliance Matrix: (Units=1/GPa)
#
#
# Indices 1 2 3 4 5 6 
#
# 1 0.012112 -0.004904 -0.004166 0.000000 0.000000 0.000000
# 2 -0.004904 0.018805 -0.001148 0.000000 0.000000 0.000000
# 3 -0.004166 -0.001148 0.010014 0.000000 0.000000 0.000000
# 4 0.000000 0.000000 0.000000 0.022952 0.000000 0.000000
# 5 0.000000 0.000000 0.000000 0.000000 -0.010222 0.000000
# 6 0.000000 0.000000 0.000000 0.000000 0.000000 0.037080
#
#
# Mechanical properties :
#
#
# Convention : Reuss Voigt Hill
#
# Bulk Modulus (GPa) = 48.78949 56.47050 52.63000
# Shear Modulus (GPa) = 42.36998 7.56327 24.96663
#
# Velocity S-wave (km/s) = 4.73241 1.99944 3.63273
# Velocity P-wave (km/s) = 7.45987 5.93120 6.73902
#
# Compressibility (1/GPa) = 0.02049622
#
# Stress axis : x y z
#
# Youngs Moduli (GPa) = 82.56200 53.17809 99.85952
#
# Poissons Ratio (x) = 0.26077 0.41601
# Poissons Ratio (y) = 0.40486 0.11461
# Poissons Ratio (z) = 0.34395 0.06103
#
# Static dielectric constant tensor:
#      x y z
#    x 3.832410 0.000000 0.000000 
#    y 0.000000 3.623380 0.000000 
#    z 0.000000 0.000000 3.663790 
# 
# 
# High freq. dielectric constant tensor:
#      x y z
#    x 1.711410 0.000000 0.000000 
#    y 0.000000 1.745950 0.000000 
#    z 0.000000 0.000000 1.744310 
# 
# From -- ./inp_files/71106.got.cif
#   From: 2010.03.12/outbox.cif.g09.slc.cpg/sg65_36_cif.got.tgz:71106.got - 2010.04.10 20:52:16.
