data_PCOD8274192
_publ_section_title
;
Structure prediction by ZEFSAII (Michael W. Deem and Ramdas Pophale) SiO2 
 PCOD8274192
Probable space group: C M M M
;
_chemical_formula_sum "Si O2"
_cell_formula_units_Z 120
_cell_length_a 18.339019
_cell_length_b 17.369790
_cell_length_c 21.025570
_cell_angle_alpha 90.000000
_cell_angle_beta 90.000000
_cell_angle_gamma 90.000000
_cell_volume 6697.588279
_symmetry_space_group_name_H-M "C M M M"
_symmetry_group_IT_number 65
_symmetry_cell_setting 'orthorhombic'
loop_
_space_group_symop_operation_xyz
x,y,z
-x,-y,z
x,-y,-z
-x,y,-z
-x,-y,-z
x,y,-z
-x,y,z
x,-y,z
1/2+x,1/2+y,z
1/2-x,1/2-y,z
1/2+x,1/2-y,-z
1/2-x,1/2+y,-z
1/2-x,1/2-y,-z
1/2+x,1/2+y,-z
1/2-x,1/2+y,z
1/2+x,1/2-y,z
loop_
_atom_site_type_symbol
_atom_site_label
_atom_site_fract_x
_atom_site_fract_y
_atom_site_fract_z
Si Si1 0.413789 0.500000 0.927268
Si Si2 0.578361 0.123141 0.821707
Si Si3 0.579381 0.722878 0.740617
Si Si4 0.148198 0.860325 0.848672
Si Si5 0.312491 0.803670 0.345552
Si Si6 0.916227 0.270153 0.072800
Si Si7 0.775754 0.585376 0.231971
Si Si8 0.917265 0.588161 0.424958
O O1 0.500000 0.500000 0.926340
O O2 0.384434 0.572971 0.890740
O O3 0.385218 0.500000 0.000000
O O4 0.500000 0.080923 0.811874
O O5 0.576857 0.204539 0.786541
O O6 0.589519 0.144633 0.896099
O O7 0.642186 0.071379 0.793480
O O8 0.500000 0.704524 0.711744
O O9 0.604580 0.649577 0.782218
O O10 0.633318 0.740349 0.683144
O O11 0.142277 0.784853 0.892418
O O12 0.230926 0.877686 0.826695
O O13 0.250000 0.750000 0.378411
O O14 0.275048 0.857787 0.292261
O O15 0.356834 0.856485 0.394595
O O16 0.000000 0.238669 0.079769
O O17 0.893040 0.277321 0.000000
O O18 0.745889 0.500000 0.250488
O O19 0.911340 0.597297 0.500000
O O20 0.900607 0.500000 0.404758
O O21 0.000000 0.609660 0.402695
#
# Coordination Sequence:
#
# PCOD8274192 Si02
#       8
#     8  16  16  16  16  16  16  16
#     4  11  22  34  50  70  95 133 180 223 273 341
#     4   8  17  32  51  70  90 120 162 211 262 317
#     4   9  17  30  49  73  99 131 171 215 263 315
#     4  11  19  32  47  68  99 132 163 215 274 323
#     4  11  20  33  54  82 113 148 185 226 268 320
#     4   9  17  31  52  73  91 115 158 215 268 326
#     4  11  22  35  49  71 106 143 173 216 267 319
#     4   9  19  37  60  86 119 156 190 227 272 323
#
# _framework density 17.916896000000001
#
# number of rings (size 3 to 8) (size 9 to 14) (size 15 to 20)
#    0.000    2.200    2.000    3.600    0.000    2.133 
#    0.000    2.000    0.000    0.000    0.000    1.867 
#    0.000    0.000    0.000    6.400    0.000    0.000 
#
# Total GULP energy -743476.053711 kJ/mol
# GULP energy per Si atom -12391.267562 kJ/mol
# Density = 1.787612 g / cm^3
# Si number density = 17.916896 Si / 1000 Ang^3
#
#
#
# Elastic Constant Matrix: (Units=GPa)
#
#
# Indices 1 2 3 4 5 6 
#
# 1 98.5215 39.4339 36.6351 0.0000 0.0000 0.0000
# 2 39.4339 67.4775 30.4122 0.0000 0.0000 0.0000
# 3 36.6351 30.4122 62.6854 0.0000 0.0000 0.0000
# 4 0.0000 0.0000 0.0000 22.0049 0.0000 0.0000
# 5 0.0000 0.0000 0.0000 0.0000 27.6439 0.0000
# 6 0.0000 0.0000 0.0000 0.0000 0.0000 24.3212
#
#
#
# Elastic Compliance Matrix: (Units=1/GPa)
#
#
# Indices 1 2 3 4 5 6 
#
# 1 0.014660 -0.006023 -0.005646 0.000000 0.000000 0.000000
# 2 -0.006023 0.021441 -0.006883 0.000000 0.000000 0.000000
# 3 -0.005646 -0.006883 0.022591 0.000000 0.000000 0.000000
# 4 0.000000 0.000000 0.000000 0.045444 0.000000 0.000000
# 5 0.000000 0.000000 0.000000 0.000000 0.036174 0.000000
# 6 0.000000 0.000000 0.000000 0.000000 0.000000 0.041116
#
#
# Mechanical properties :
#
#
# Convention : Reuss Voigt Hill
#
# Bulk Modulus (GPa) = 46.31638 49.07188 47.69413
# Shear Modulus (GPa) = 22.15061 22.94086 22.54573
#
# Velocity S-wave (km/s) = 3.51992 3.58215 3.55117
# Velocity P-wave (km/s) = 6.51357 6.67512 6.59484
#
# Compressibility (1/GPa) = 0.02159063
#
# Stress axis : x y z
#
# Youngs Moduli (GPa) = 68.21221 46.63858 44.26472
#
# Poissons Ratio (x) = 0.28090 0.24991
# Poissons Ratio (y) = 0.41083 0.30465
# Poissons Ratio (z) = 0.38511 0.32099
#
# Static dielectric constant tensor:
#      x y z
#    x 3.573270 0.000000 0.000000 
#    y 0.000000 4.409820 0.000000 
#    z 0.000000 0.000000 3.163160 
# 
# 
# High freq. dielectric constant tensor:
#      x y z
#    x 1.697690 0.000000 0.000000 
#    y 0.000000 1.678910 0.000000 
#    z 0.000000 0.000000 1.669080 
# 
# From -- ./inp_files/64032.got.cif
#   From: 2010.03.12/outbox.cif.g09.slc.cpg/sg65_33_cif.got.tgz:64032.got - 2010.04.10 20:52:16.
