data_PCOD8274980
_publ_section_title
;
Structure prediction by ZEFSAII (Michael W. Deem and Ramdas Pophale) SiO2 
 PCOD8274980
Probable space group: C M M M
;
_chemical_formula_sum "Si O2"
_cell_formula_units_Z 80
_cell_length_a 18.761714
_cell_length_b 26.702140
_cell_length_c 9.423424
_cell_angle_alpha 90.000000
_cell_angle_beta 90.000000
_cell_angle_gamma 90.000000
_cell_volume 4720.927297
_symmetry_space_group_name_H-M "C M M M"
_symmetry_group_IT_number 65
_symmetry_cell_setting 'orthorhombic'
loop_
_space_group_symop_operation_xyz
x,y,z
-x,-y,z
x,-y,-z
-x,y,-z
-x,-y,-z
x,y,-z
-x,y,z
x,-y,z
1/2+x,1/2+y,z
1/2-x,1/2-y,z
1/2+x,1/2-y,-z
1/2-x,1/2+y,-z
1/2-x,1/2-y,-z
1/2+x,1/2+y,-z
1/2-x,1/2+y,z
1/2+x,1/2-y,z
loop_
_atom_site_type_symbol
_atom_site_label
_atom_site_fract_x
_atom_site_fract_y
_atom_site_fract_z
Si Si1 0.918869 0.156804 0.166329
Si Si2 0.794002 0.797929 0.665201
Si Si3 0.777821 0.401367 0.334916
Si Si4 0.845414 0.944407 0.163442
Si Si5 0.422840 0.056333 0.668433
O O1 0.867764 0.195300 0.249532
O O2 0.901541 0.098883 0.206798
O O3 0.000000 0.167478 0.212497
O O4 0.907930 0.166031 0.000000
O O5 0.813805 0.792661 0.500000
O O6 0.750000 0.750000 0.719869
O O7 0.742621 0.844426 0.696047
O O8 0.771581 0.414855 0.500000
O O9 0.726253 0.439260 0.253720
O O10 0.858427 0.408734 0.277263
O O11 0.878218 0.000000 0.191401
O O12 0.824047 0.938085 0.000000
O O13 0.424034 0.056377 0.500000
O O14 0.500000 0.076188 0.724601
O O15 0.410117 0.000000 0.724052
#
# Coordination Sequence:
#
# PCOD8274980 Si02
#       5
#    16  16  16  16  16
#     4   9  18  32  49  69  92 119 152 186 221 266
#     4   9  18  32  48  67  90 115 146 185 229 271
#     4   9  16  27  44  63  84 112 147 184 218 260
#     4   9  17  28  43  65  92 120 148 180 220 264
#     4   8  13  21  35  57  82 105 132 169 210 249
#
# _framework density 16.945824000000002
#
# number of rings (size 3 to 8) (size 9 to 14) (size 15 to 20)
#    0.000    3.200    0.000    1.200    0.000    2.400 
#    0.000    3.000    0.000    4.200    0.000    8.400 
#    0.000    0.000    0.000    0.000    0.000    0.000 
#
# Total GULP energy -495759.355395 kJ/mol
# GULP energy per Si atom -12393.983885 kJ/mol
# Density = 1.690725 g / cm^3
# Si number density = 16.945824 Si / 1000 Ang^3
#
#
#
# Elastic Constant Matrix: (Units=GPa)
#
#
# Indices 1 2 3 4 5 6 
#
# 1 159.1603 58.9096 42.6778 0.0000 0.0000 0.0000
# 2 58.9096 87.8309 30.1551 0.0000 0.0000 0.0000
# 3 42.6778 30.1551 34.7264 0.0000 0.0000 0.0000
# 4 0.0000 0.0000 0.0000 18.8500 0.0000 0.0000
# 5 0.0000 0.0000 0.0000 0.0000 22.3228 0.0000
# 6 0.0000 0.0000 0.0000 0.0000 0.0000 20.9719
#
#
#
# Elastic Compliance Matrix: (Units=1/GPa)
#
#
# Indices 1 2 3 4 5 6 
#
# 1 0.010105 -0.003581 -0.009308 0.000000 0.000000 0.000000
# 2 -0.003581 0.017491 -0.010787 0.000000 0.000000 0.000000
# 3 -0.009308 -0.010787 0.049603 0.000000 0.000000 0.000000
# 4 0.000000 0.000000 0.000000 0.053050 0.000000 0.000000
# 5 0.000000 0.000000 0.000000 0.000000 0.044797 0.000000
# 6 0.000000 0.000000 0.000000 0.000000 0.000000 0.047683
#
#
# Mechanical properties :
#
#
# Convention : Reuss Voigt Hill
#
# Bulk Modulus (GPa) = 33.50608 60.57806 47.04207
# Shear Modulus (GPa) = 17.85514 22.42728 20.14121
#
# Velocity S-wave (km/s) = 3.24953 3.64190 3.45130
# Velocity P-wave (km/s) = 5.82191 7.31507 6.61078
#
# Compressibility (1/GPa) = 0.02984533
#
# Stress axis : x y z
#
# Youngs Moduli (GPa) = 98.96577 57.17144 20.15999
#
# Poissons Ratio (x) = 0.20476 0.18765
# Poissons Ratio (y) = 0.35444 0.21747
# Poissons Ratio (z) = 0.92119 0.61672
#
# Static dielectric constant tensor:
#      x y z
#    x 3.473730 0.000000 0.000000 
#    y 0.000000 3.138920 0.000000 
#    z 0.000000 0.000000 2.950290 
# 
# 
# High freq. dielectric constant tensor:
#      x y z
#    x 1.655340 0.000000 0.000000 
#    y 0.000000 1.640960 0.000000 
#    z 0.000000 0.000000 1.626670 
# 
# From -- ./inp_files/9657.got.cif
#   From: 2010.03.12/outbox.cif.g09.slc.cpg/sg65_5_cif.got.tgz:9657.got - 2010.04.10 20:52:16.
