data_PCOD8274013
_publ_section_title
;
Structure prediction by ZEFSAII (Michael W. Deem and Ramdas Pophale) SiO2 
 PCOD8274013
Probable space group: C M M M
;
_chemical_formula_sum "Si O2"
_cell_formula_units_Z 96
_cell_length_a 8.712213
_cell_length_b 23.655966
_cell_length_c 26.133619
_cell_angle_alpha 90.000000
_cell_angle_beta 90.000000
_cell_angle_gamma 90.000000
_cell_volume 5386.029494
_symmetry_space_group_name_H-M "C M M M"
_symmetry_group_IT_number 65
_symmetry_cell_setting 'orthorhombic'
loop_
_space_group_symop_operation_xyz
x,y,z
-x,-y,z
x,-y,-z
-x,y,-z
-x,-y,-z
x,y,-z
-x,y,z
x,-y,z
1/2+x,1/2+y,z
1/2-x,1/2-y,z
1/2+x,1/2-y,-z
1/2-x,1/2+y,-z
1/2-x,1/2-y,-z
1/2+x,1/2+y,-z
1/2-x,1/2+y,z
1/2+x,1/2-y,z
loop_
_atom_site_type_symbol
_atom_site_label
_atom_site_fract_x
_atom_site_fract_y
_atom_site_fract_z
Si Si1 0.182167 0.116556 0.759876
Si Si2 0.319102 0.000000 0.786185
Si Si3 0.181372 0.811768 0.335559
Si Si4 0.319348 0.688525 0.554003
Si Si5 0.179255 0.311682 0.149024
Si Si6 0.322102 0.500000 0.896478
Si Si7 0.824432 0.607439 0.057974
O O1 0.249904 0.054113 0.758118
O O2 0.242737 0.147154 0.708603
O O3 0.241407 0.149452 0.809081
O O4 0.000000 0.113411 0.762366
O O5 0.279549 0.000000 0.845843
O O6 0.500000 0.000000 0.779967
O O7 0.250000 0.750000 0.326999
O O8 0.230760 0.838781 0.391348
O O9 0.000000 0.805550 0.331426
O O10 0.269887 0.656945 0.500000
O O11 0.500000 0.695051 0.554494
O O12 0.250000 0.750000 0.552729
O O13 0.250000 0.250000 0.150055
O O14 0.212340 0.339125 0.093811
O O15 0.000000 0.307795 0.161392
O O16 0.500000 0.500000 0.880913
O O17 0.285773 0.555218 0.929609
O O18 0.000000 0.587426 0.065789
O O19 0.793810 0.627206 0.000000
#
# Coordination Sequence:
#
# PCOD8274013 Si02
#       7
#    16   8  16  16  16   8  16
#     4  11  22  37  56  79 106 135 172 217 263 312
#     4  12  24  39  59  80 103 134 170 212 264 317
#     4   9  18  30  47  74 107 141 175 211 254 302
#     4   8  13  23  40  64  97 136 174 210 248 293
#     4  11  23  38  57  79 107 142 178 213 255 308
#     4  12  23  37  60  87 110 133 169 215 262 310
#     4  10  22  40  60  81 108 142 176 213 259 309
#
# _framework density 17.823891
#
# number of rings (size 3 to 8) (size 9 to 14) (size 15 to 20)
#    0.000    1.833    1.667    3.250    0.000    5.000 
#    0.000    0.000    0.000    0.000    0.000    0.583 
#    0.000    4.667    0.000    0.000    0.000    0.000 
#
# Total GULP energy -594891.509925 kJ/mol
# GULP energy per Si atom -12393.573123 kJ/mol
# Density = 1.778332 g / cm^3
# Si number density = 17.823891 Si / 1000 Ang^3
#
#
#
# Elastic Constant Matrix: (Units=GPa)
#
#
# Indices 1 2 3 4 5 6 
#
# 1 65.2040 36.8212 35.1206 0.0000 0.0000 0.0000
# 2 36.8212 115.0637 61.8301 0.0000 0.0000 0.0000
# 3 35.1206 61.8301 168.3243 0.0000 0.0000 0.0000
# 4 0.0000 0.0000 0.0000 12.1575 0.0000 0.0000
# 5 0.0000 0.0000 0.0000 0.0000 17.3416 0.0000
# 6 0.0000 0.0000 0.0000 0.0000 0.0000 9.5150
#
#
#
# Elastic Compliance Matrix: (Units=1/GPa)
#
#
# Indices 1 2 3 4 5 6 
#
# 1 0.019350 -0.005012 -0.002196 0.000000 0.000000 0.000000
# 2 -0.005012 0.012126 -0.003409 0.000000 0.000000 0.000000
# 3 -0.002196 -0.003409 0.007651 0.000000 0.000000 0.000000
# 4 0.000000 0.000000 0.000000 0.082254 0.000000 0.000000
# 5 0.000000 0.000000 0.000000 0.000000 0.057665 0.000000
# 6 0.000000 0.000000 0.000000 0.000000 0.000000 0.105097
#
#
# Mechanical properties :
#
#
# Convention : Reuss Voigt Hill
#
# Bulk Modulus (GPa) = 55.88548 68.45953 62.17251
# Shear Modulus (GPa) = 16.05956 22.12416 19.09186
#
# Velocity S-wave (km/s) = 3.00494 3.52698 3.27638
# Velocity P-wave (km/s) = 6.59256 7.42148 7.01927
#
# Compressibility (1/GPa) = 0.01789373
#
# Stress axis : x y z
#
# Youngs Moduli (GPa) = 51.68039 82.46538 130.69771
#
# Poissons Ratio (x) = 0.41330 0.28705
# Poissons Ratio (y) = 0.25901 0.44550
# Poissons Ratio (z) = 0.11351 0.28109
#
# Static dielectric constant tensor:
#      x y z
#    x 3.246570 0.000000 0.000000 
#    y 0.000000 3.165550 0.000000 
#    z 0.000000 0.000000 4.045300 
# 
# 
# High freq. dielectric constant tensor:
#      x y z
#    x 1.695120 0.000000 0.000000 
#    y 0.000000 1.658730 0.000000 
#    z 0.000000 0.000000 1.710010 
# 
# From -- ./inp_files/73477.got.cif
#   From: 2010.03.12/outbox.cif.g09.slc.cpg/sg65_37_cif.got.tgz:73477.got - 2010.04.10 20:52:16.
