data_PCOD8274151
_publ_section_title
;
Structure prediction by ZEFSAII (Michael W. Deem and Ramdas Pophale) SiO2 
 PCOD8274151
Probable space group: C M M M
;
_chemical_formula_sum "Si O2"
_cell_formula_units_Z 80
_cell_length_a 18.472571
_cell_length_b 22.955921
_cell_length_c 15.685826
_cell_angle_alpha 90.000000
_cell_angle_beta 90.000000
_cell_angle_gamma 90.000000
_cell_volume 6651.651071
_symmetry_space_group_name_H-M "C M M M"
_symmetry_group_IT_number 65
_symmetry_cell_setting 'orthorhombic'
loop_
_space_group_symop_operation_xyz
x,y,z
-x,-y,z
x,-y,-z
-x,y,-z
-x,-y,-z
x,y,-z
-x,y,z
x,-y,z
1/2+x,1/2+y,z
1/2-x,1/2-y,z
1/2+x,1/2-y,-z
1/2-x,1/2+y,-z
1/2-x,1/2-y,-z
1/2+x,1/2+y,-z
1/2-x,1/2+y,z
1/2+x,1/2-y,z
loop_
_atom_site_type_symbol
_atom_site_label
_atom_site_fract_x
_atom_site_fract_y
_atom_site_fract_z
Si Si1 0.081492 0.253382 0.899829
Si Si2 0.855779 0.864899 0.841199
Si Si3 0.082733 0.931045 0.000000
Si Si4 0.086132 0.932839 0.684609
Si Si5 0.421124 0.568746 0.500000
Si Si6 0.218331 0.685675 0.094157
O O1 0.099575 0.194883 0.848541
O O2 0.135331 0.306562 0.872588
O O3 0.000000 0.273398 0.879089
O O4 0.092477 0.239326 0.000000
O O5 0.871823 0.892558 0.750279
O O6 0.768926 0.853577 0.845168
O O7 0.878277 0.908605 0.915617
O O8 0.000000 0.908765 0.000000
O O9 0.086469 0.000000 0.000000
O O10 0.116594 0.914308 0.590041
O O11 0.000000 0.922939 0.690956
O O12 0.104442 0.000000 0.704349
O O13 0.432026 0.500000 0.500000
O O14 0.500000 0.598521 0.500000
O O15 0.250000 0.750000 0.088459
O O16 0.219075 0.657078 0.000000
#
# Coordination Sequence:
#
# PCOD8274151 Si02
#       6
#    16  16   8  16   8  16
#     4   9  15  23  36  50  65  86 116 147 169 190
#     4  11  16  23  33  47  70  95 112 132 164 198
#     4  11  20  24  27  42  71  99 116 127 146 188
#     4   9  16  24  34  48  66  90 119 142 160 188
#     4   7  12  24  36  44  59  84 115 151 172 175
#     4   8  14  24  33  45  64  89 114 139 167 194
#
# _framework density 12.027089
#
# number of rings (size 3 to 8) (size 9 to 14) (size 15 to 20)
#    0.000    2.800    2.000    4.800    0.000    1.600 
#    0.000    0.000    0.000    0.000    0.000    6.300 
#    0.000    4.000    0.000    0.000    0.000    5.600 
#
# Total GULP energy -495531.357252 kJ/mol
# GULP energy per Si atom -12388.283931 kJ/mol
# Density = 1.199971 g / cm^3
# Si number density = 12.027089 Si / 1000 Ang^3
#
#
#
# Elastic Constant Matrix: (Units=GPa)
#
#
# Indices 1 2 3 4 5 6 
#
# 1 92.2118 34.1017 37.5688 0.0000 0.0000 0.0000
# 2 34.1017 37.4927 34.6767 0.0000 0.0000 0.0000
# 3 37.5688 34.6767 93.6328 0.0000 0.0000 0.0000
# 4 0.0000 0.0000 0.0000 11.3123 0.0000 0.0000
# 5 0.0000 0.0000 0.0000 0.0000 10.0415 0.0000
# 6 0.0000 0.0000 0.0000 0.0000 0.0000 18.8736
#
#
#
# Elastic Compliance Matrix: (Units=1/GPa)
#
#
# Indices 1 2 3 4 5 6 
#
# 1 0.016501 -0.013514 -0.001616 0.000000 0.000000 0.000000
# 2 -0.013514 0.051635 -0.013701 0.000000 0.000000 0.000000
# 3 -0.001616 -0.013701 0.016402 0.000000 0.000000 0.000000
# 4 0.000000 0.000000 0.000000 0.088399 0.000000 0.000000
# 5 0.000000 0.000000 0.000000 0.000000 0.099587 0.000000
# 6 0.000000 0.000000 0.000000 0.000000 0.000000 0.052984
#
#
# Mechanical properties :
#
#
# Convention : Reuss Voigt Hill
#
# Bulk Modulus (GPa) = 37.20597 48.44797 42.82697
# Shear Modulus (GPa) = 12.75096 15.84483 14.29789
#
# Velocity S-wave (km/s) = 3.25958 3.63358 3.45165
# Velocity P-wave (km/s) = 6.72077 7.61404 7.18131
#
# Compressibility (1/GPa) = 0.02687741
#
# Stress axis : x y z
#
# Youngs Moduli (GPa) = 60.60403 19.36669 60.96676
#
# Poissons Ratio (x) = 0.26172 0.09851
# Poissons Ratio (y) = 0.81899 0.83529
# Poissons Ratio (z) = 0.09793 0.26534
#
# Static dielectric constant tensor:
#      x y z
#    x 2.688750 0.000000 0.000000 
#    y 0.000000 2.282230 0.000000 
#    z 0.000000 0.000000 2.527790 
# 
# 
# High freq. dielectric constant tensor:
#      x y z
#    x 1.441330 0.000000 0.000000 
#    y 0.000000 1.424770 0.000000 
#    z 0.000000 0.000000 1.438990 
# 
# From -- ./inp_files/42654.got.cif
#   From: 2010.03.12/outbox.cif.g09.slc.cpg/sg65_22_cif.got.tgz:42654.got - 2010.04.10 20:52:16.
