data_PCOD8274043
_publ_section_title
;
Structure prediction by ZEFSAII (Michael W. Deem and Ramdas Pophale) SiO2 
 PCOD8274043
Probable space group: C M M M
;
_chemical_formula_sum "Si O2"
_cell_formula_units_Z 72
_cell_length_a 28.432123
_cell_length_b 8.876317
_cell_length_c 13.625883
_cell_angle_alpha 90.000000
_cell_angle_beta 90.000000
_cell_angle_gamma 90.000000
_cell_volume 3438.798658
_symmetry_space_group_name_H-M "C M M M"
_symmetry_group_IT_number 65
_symmetry_cell_setting 'orthorhombic'
loop_
_space_group_symop_operation_xyz
x,y,z
-x,-y,z
x,-y,-z
-x,y,-z
-x,-y,-z
x,y,-z
-x,y,z
x,-y,z
1/2+x,1/2+y,z
1/2-x,1/2-y,z
1/2+x,1/2-y,-z
1/2-x,1/2+y,-z
1/2-x,1/2-y,-z
1/2+x,1/2+y,-z
1/2-x,1/2+y,z
1/2+x,1/2-y,z
loop_
_atom_site_type_symbol
_atom_site_label
_atom_site_fract_x
_atom_site_fract_y
_atom_site_fract_z
Si Si1 0.197135 0.680310 0.500000
Si Si2 0.446475 0.671709 0.796209
Si Si3 0.870655 0.666947 0.673663
Si Si4 0.079193 0.322879 0.000000
Si Si5 0.823044 0.827001 0.000000
Si Si6 0.709661 0.833136 0.819428
O O1 0.203843 0.500000 0.500000
O O2 0.250000 0.750000 0.500000
O O3 0.164859 0.734801 0.408194
O O4 0.500000 0.682773 0.759584
O O5 0.430766 0.500000 0.814540
O O6 0.415702 0.734512 0.704405
O O7 0.442913 0.756894 0.900088
O O8 0.887835 0.500000 0.640873
O O9 0.840892 0.654914 0.771967
O O10 0.133898 0.288679 0.000000
O O11 0.069859 0.500000 0.000000
O O12 0.792101 0.788280 0.093535
O O13 0.839836 0.000000 0.000000
O O14 0.750000 0.750000 0.751829
O O15 0.725485 0.000000 0.852227
#
# Coordination Sequence:
#
# PCOD8274043 Si02
#       6
#     8  16  16   8   8  16
#     4  10  22  42  67  98 127 161 206 253 309 372
#     4  11  24  41  63  92 125 163 209 256 306 365
#     4  10  22  40  63  89 122 159 204 256 307 368
#     4  12  23  38  61  90 124 165 208 252 306 366
#     4  12  23  36  55  81 117 160 201 248 298 354
#     4  11  22  36  55  82 116 158 202 247 299 362
#
# _framework density 20.937546000000001
#
# number of rings (size 3 to 8) (size 9 to 14) (size 15 to 20)
#    0.000    1.111    2.222    4.667    0.000    4.889 
#    0.000    0.556    0.000    3.333    0.000    0.000 
#    0.000    0.000    0.000    0.000    0.000    0.000 
#
# Total GULP energy -446008.827586 kJ/mol
# GULP energy per Si atom -12389.134100 kJ/mol
# Density = 2.088989 g / cm^3
# Si number density = 20.937546 Si / 1000 Ang^3
#
#
#
# Elastic Constant Matrix: (Units=GPa)
#
#
# Indices 1 2 3 4 5 6 
#
# 1 128.1287 58.6767 44.1190 0.0000 0.0000 0.0000
# 2 58.6767 142.5866 45.9484 0.0000 0.0000 0.0000
# 3 44.1190 45.9484 99.3822 0.0000 0.0000 0.0000
# 4 0.0000 0.0000 0.0000 19.6546 0.0000 0.0000
# 5 0.0000 0.0000 0.0000 0.0000 59.4780 0.0000
# 6 0.0000 0.0000 0.0000 0.0000 0.0000 37.7722
#
#
#
# Elastic Compliance Matrix: (Units=1/GPa)
#
#
# Indices 1 2 3 4 5 6 
#
# 1 0.010366 -0.003270 -0.003090 0.000000 0.000000 0.000000
# 2 -0.003270 0.009273 -0.002835 0.000000 0.000000 0.000000
# 3 -0.003090 -0.002835 0.012745 0.000000 0.000000 0.000000
# 4 0.000000 0.000000 0.000000 0.050879 0.000000 0.000000
# 5 0.000000 0.000000 0.000000 0.000000 0.016813 0.000000
# 6 0.000000 0.000000 0.000000 0.000000 0.000000 0.026474
#
#
# Mechanical properties :
#
#
# Convention : Reuss Voigt Hill
#
# Bulk Modulus (GPa) = 71.46597 74.17619 72.82108
# Shear Modulus (GPa) = 33.42130 38.13785 35.77957
#
# Velocity S-wave (km/s) = 3.99963 4.27254 4.13833
# Velocity P-wave (km/s) = 7.45227 7.73587 7.59540
#
# Compressibility (1/GPa) = 0.01399267
#
# Stress axis : x y z
#
# Youngs Moduli (GPa) = 96.46748 107.84338 78.46306
#
# Poissons Ratio (x) = 0.35266 0.24245
# Poissons Ratio (y) = 0.31546 0.22248
# Poissons Ratio (z) = 0.29808 0.30578
#
# Static dielectric constant tensor:
#      x y z
#    x 3.885850 0.000000 0.000000 
#    y 0.000000 3.930630 0.000000 
#    z 0.000000 0.000000 3.689630 
# 
# 
# High freq. dielectric constant tensor:
#      x y z
#    x 1.834240 0.000000 0.000000 
#    y 0.000000 1.824410 0.000000 
#    z 0.000000 0.000000 1.798140 
# 
# From -- ./inp_files/46561.got.cif
#   From: 2010.03.12/outbox.cif.g09.slc.cpg/sg65_24_cif.got.tgz:46561.got - 2010.04.10 20:52:16.
