data_PCOD8274047
_publ_section_title
;
Structure prediction by ZEFSAII (Michael W. Deem and Ramdas Pophale) SiO2 
 PCOD8274047
Probable space group: C M M M
;
_chemical_formula_sum "Si O2"
_cell_formula_units_Z 72
_cell_length_a 10.116421
_cell_length_b 24.988014
_cell_length_c 15.432873
_cell_angle_alpha 90.000000
_cell_angle_beta 90.000000
_cell_angle_gamma 90.000000
_cell_volume 3901.264693
_symmetry_space_group_name_H-M "C M M M"
_symmetry_group_IT_number 65
_symmetry_cell_setting 'orthorhombic'
loop_
_space_group_symop_operation_xyz
x,y,z
-x,-y,z
x,-y,-z
-x,y,-z
-x,-y,-z
x,y,-z
-x,y,z
x,-y,z
1/2+x,1/2+y,z
1/2-x,1/2-y,z
1/2+x,1/2-y,-z
1/2-x,1/2+y,-z
1/2-x,1/2-y,-z
1/2+x,1/2+y,-z
1/2-x,1/2+y,z
1/2+x,1/2-y,z
loop_
_atom_site_type_symbol
_atom_site_label
_atom_site_fract_x
_atom_site_fract_y
_atom_site_fract_z
Si Si1 0.152335 0.300168 0.000000
Si Si2 0.244256 0.439162 0.706265
Si Si3 0.500000 0.287344 0.598511
Si Si4 0.845496 0.348417 0.183024
Si Si5 0.000000 0.563483 0.595317
Si Si6 0.500000 0.413808 0.600026
Si Si7 0.250000 0.250000 0.703914
O O1 0.250000 0.250000 0.000000
O O2 0.180398 0.337642 0.917814
O O3 0.000000 0.279271 0.000000
O O4 0.218121 0.500000 0.737092
O O5 0.240524 0.400833 0.790499
O O6 0.376205 0.437468 0.650673
O O7 0.129483 0.416299 0.644380
O O8 0.500000 0.267352 0.500000
O O9 0.500000 0.350677 0.604696
O O10 0.370787 0.265134 0.643563
O O11 0.791497 0.298538 0.235868
O O12 0.000000 0.358124 0.201726
O O13 0.000000 0.500000 0.588389
O O14 0.000000 0.589631 0.500000
O O15 0.500000 0.433754 0.500000
#
# Coordination Sequence:
#
# PCOD8274047 Si02
#       7
#     8  16   8  16   8   8   8
#     4  10  22  40  65  95 122 148 189 252 302 361
#     4  11  22  38  59  84 121 160 200 247 295 354
#     4  11  24  38  56  87 121 161 201 243 296 351
#     4  11  22  39  63  92 119 152 197 243 301 356
#     4   9  18  33  55  81 109 151 204 248 283 327
#     4  11  23  38  58  88 121 159 209 255 298 346
#     4  12  21  39  62  82 118 158 198 245 291 352
#
# _framework density 18.455552999999998
#
# number of rings (size 3 to 8) (size 9 to 14) (size 15 to 20)
#    0.000    1.222    5.556    1.333    0.000    1.778 
#    2.000    1.667    0.000    2.000    0.000    1.556 
#    0.000    0.000    0.000    0.000    0.000    0.000 
#
# Total GULP energy -446463.680606 kJ/mol
# GULP energy per Si atom -12401.768906 kJ/mol
# Density = 1.841355 g / cm^3
# Si number density = 18.455553 Si / 1000 Ang^3
#
#
#
# Elastic Constant Matrix: (Units=GPa)
#
#
# Indices 1 2 3 4 5 6 
#
# 1 106.8917 26.4741 51.9369 0.0000 0.0000 0.0000
# 2 26.4741 106.2600 60.6265 0.0000 0.0000 0.0000
# 3 51.9369 60.6265 141.0823 0.0000 0.0000 0.0000
# 4 0.0000 0.0000 0.0000 -53.3455 0.0000 0.0000
# 5 0.0000 0.0000 0.0000 0.0000 16.4595 0.0000
# 6 0.0000 0.0000 0.0000 0.0000 0.0000 17.0097
#
#
#
# Elastic Compliance Matrix: (Units=1/GPa)
#
#
# Indices 1 2 3 4 5 6 
#
# 1 0.011421 -0.000592 -0.003950 0.000000 0.000000 0.000000
# 2 -0.000592 0.012498 -0.005153 0.000000 0.000000 0.000000
# 3 -0.003950 -0.005153 0.010757 0.000000 0.000000 0.000000
# 4 0.000000 0.000000 0.000000 -0.018746 0.000000 0.000000
# 5 0.000000 0.000000 0.000000 0.000000 0.060755 0.000000
# 6 0.000000 0.000000 0.000000 0.000000 0.000000 0.058790
#
#
# Mechanical properties :
#
#
# Convention : Reuss Voigt Hill
#
# Bulk Modulus (GPa) = 65.41831 70.25655 67.83743
# Shear Modulus (GPa) = 31.25762 10.37117 20.81440
#
# Velocity S-wave (km/s) = 4.11989 2.37313 3.36193
# Velocity P-wave (km/s) = 7.62592 6.75719 7.20466
#
# Compressibility (1/GPa) = 0.01528624
#
# Stress axis : x y z
#
# Youngs Moduli (GPa) = 87.55673 80.01060 92.96580
#
# Poissons Ratio (x) = 0.04734 0.36724
# Poissons Ratio (y) = 0.05181 0.47905
# Poissons Ratio (z) = 0.34587 0.41230
#
# Static dielectric constant tensor:
#      x y z
#    x 3.688050 0.000000 0.000000 
#    y 0.000000 3.352870 0.000000 
#    z 0.000000 0.000000 3.539390 
# 
# 
# High freq. dielectric constant tensor:
#      x y z
#    x 1.727530 0.000000 0.000000 
#    y 0.000000 1.715240 0.000000 
#    z 0.000000 0.000000 1.713810 
# 
# From -- ./inp_files/36742.got.cif
#   From: 2010.03.12/outbox.cif.g09.slc.cpg/sg65_19_cif.got.tgz:36742.got - 2010.04.10 20:52:16.
