data_PCOD8274874
_publ_section_title
;
Structure prediction by ZEFSAII (Michael W. Deem and Ramdas Pophale) SiO2 
 PCOD8274874
Probable space group: C M M M
;
_chemical_formula_sum "Si O2"
_cell_formula_units_Z 72
_cell_length_a 9.260947
_cell_length_b 20.351731
_cell_length_c 22.819964
_cell_angle_alpha 90.000000
_cell_angle_beta 90.000000
_cell_angle_gamma 90.000000
_cell_volume 4301.022430
_symmetry_space_group_name_H-M "C M M M"
_symmetry_group_IT_number 65
_symmetry_cell_setting 'orthorhombic'
loop_
_space_group_symop_operation_xyz
x,y,z
-x,-y,z
x,-y,-z
-x,y,-z
-x,-y,-z
x,y,-z
-x,y,z
x,-y,z
1/2+x,1/2+y,z
1/2-x,1/2-y,z
1/2+x,1/2-y,-z
1/2-x,1/2+y,-z
1/2-x,1/2-y,-z
1/2+x,1/2+y,-z
1/2-x,1/2+y,z
1/2+x,1/2-y,z
loop_
_atom_site_type_symbol
_atom_site_label
_atom_site_fract_x
_atom_site_fract_y
_atom_site_fract_z
Si Si1 0.330965 0.684328 0.213860
Si Si2 0.669378 0.315683 0.651714
Si Si3 0.671518 0.572939 0.565553
Si Si4 0.672860 0.426436 0.125921
Si Si5 0.842764 0.077666 0.000000
O O1 0.500000 0.695820 0.204111
O O2 0.250000 0.750000 0.193774
O O3 0.295682 0.666907 0.281055
O O4 0.271548 0.623959 0.175048
O O5 0.500000 0.304890 0.641634
O O6 0.750000 0.250000 0.631807
O O7 0.732280 0.374811 0.612183
O O8 0.722362 0.592531 0.500000
O O9 0.500000 0.572240 0.568485
O O10 0.729817 0.500000 0.581421
O O11 0.500000 0.426715 0.122710
O O12 0.727622 0.500000 0.141947
O O13 0.735759 0.403644 0.061665
O O14 0.000000 0.111949 0.000000
O O15 0.863393 0.000000 0.000000
#
# Coordination Sequence:
#
# PCOD8274874 Si02
#       5
#    16  16  16  16   8
#     4   9  17  28  41  58  82 108 131 160 197 234
#     4   9  17  28  42  60  81 106 134 162 194 232
#     4   8  14  25  41  61  83 104 128 162 201 235
#     4   8  13  22  38  59  79 100 130 166 199 230
#     4   7  10  18  33  54  79 101 122 157 202 236
#
# _framework density 16.740205
#
# number of rings (size 3 to 8) (size 9 to 14) (size 15 to 20)
#    0.000    3.667    0.000    2.000    0.000    1.333 
#    0.000    5.000    0.000    1.333    0.000    7.778 
#    0.000    2.667    0.000    0.000    0.000    0.000 
#
# Total GULP energy -446015.784201 kJ/mol
# GULP energy per Si atom -12389.327339 kJ/mol
# Density = 1.670210 g / cm^3
# Si number density = 16.740205 Si / 1000 Ang^3
#
#
#
# Elastic Constant Matrix: (Units=GPa)
#
#
# Indices 1 2 3 4 5 6 
#
# 1 11.8526 22.3417 18.8790 0.0000 0.0000 0.0000
# 2 22.3417 145.2761 104.7840 0.0000 0.0000 0.0000
# 3 18.8790 104.7840 128.6483 0.0000 0.0000 0.0000
# 4 0.0000 0.0000 0.0000 27.8697 0.0000 0.0000
# 5 0.0000 0.0000 0.0000 0.0000 9.6596 0.0000
# 6 0.0000 0.0000 0.0000 0.0000 0.0000 20.5713
#
#
#
# Elastic Compliance Matrix: (Units=1/GPa)
#
#
# Indices 1 2 3 4 5 6 
#
# 1 0.120879 -0.014048 -0.006297 0.000000 0.000000 0.000000
# 2 -0.014048 0.018319 -0.012859 0.000000 0.000000 0.000000
# 3 -0.006297 -0.012859 0.019171 0.000000 0.000000 0.000000
# 4 0.000000 0.000000 0.000000 0.035881 0.000000 0.000000
# 5 0.000000 0.000000 0.000000 0.000000 0.103524 0.000000
# 6 0.000000 0.000000 0.000000 0.000000 0.000000 0.048612
#
#
# Mechanical properties :
#
#
# Convention : Reuss Voigt Hill
#
# Bulk Modulus (GPa) = 10.87415 64.19850 37.53632
# Shear Modulus (GPa) = 11.27529 20.93827 16.10678
#
# Velocity S-wave (km/s) = 2.59809 3.54047 3.10524
# Velocity P-wave (km/s) = 3.93828 7.42606 5.94375
#
# Compressibility (1/GPa) = 0.09196118
#
# Stress axis : x y z
#
# Youngs Moduli (GPa) = 8.27271 54.58857 52.16222
#
# Poissons Ratio (x) = 0.76686 0.32846
# Poissons Ratio (y) = 0.11622 0.67076
# Poissons Ratio (z) = 0.05209 0.70196
#
# Static dielectric constant tensor:
#      x y z
#    x 2.574330 0.000000 0.000000 
#    y 0.000000 3.279990 0.000000 
#    z 0.000000 0.000000 3.524300 
# 
# 
# High freq. dielectric constant tensor:
#      x y z
#    x 1.579600 0.000000 0.000000 
#    y 0.000000 1.638210 0.000000 
#    z 0.000000 0.000000 1.657920 
# 
# From -- ./inp_files/51281.got.cif
#   From: 2010.03.12/outbox.cif.g09.slc.cpg/sg65_26_cif.got.tgz:51281.got - 2010.04.10 20:52:16.
