data_PCOD8274275
_publ_section_title
;
Structure prediction by ZEFSAII (Michael W. Deem and Ramdas Pophale) SiO2 
 PCOD8274275
Probable space group: C M M M
;
_chemical_formula_sum "Si O2"
_cell_formula_units_Z 96
_cell_length_a 27.740748
_cell_length_b 8.731485
_cell_length_c 24.072196
_cell_angle_alpha 90.000000
_cell_angle_beta 90.000000
_cell_angle_gamma 90.000000
_cell_volume 5830.717367
_symmetry_space_group_name_H-M "C M M M"
_symmetry_group_IT_number 65
_symmetry_cell_setting 'orthorhombic'
loop_
_space_group_symop_operation_xyz
x,y,z
-x,-y,z
x,-y,-z
-x,y,-z
-x,-y,-z
x,y,-z
-x,y,z
x,-y,z
1/2+x,1/2+y,z
1/2-x,1/2-y,z
1/2+x,1/2-y,-z
1/2-x,1/2+y,-z
1/2-x,1/2-y,-z
1/2+x,1/2+y,-z
1/2-x,1/2+y,z
1/2+x,1/2-y,z
loop_
_atom_site_type_symbol
_atom_site_label
_atom_site_fract_x
_atom_site_fract_y
_atom_site_fract_z
Si Si1 0.301406 0.318956 0.772515
Si Si2 0.699202 0.180290 0.438402
Si Si3 0.052718 0.319880 0.272583
Si Si4 0.853786 0.318523 0.669454
Si Si5 0.553914 0.818133 0.938361
Si Si6 0.612015 0.819063 0.834004
O O1 0.298071 0.500000 0.771033
O O2 0.250000 0.250000 0.788417
O O3 0.317187 0.259753 0.712036
O O4 0.338466 0.266802 0.820340
O O5 0.683555 0.238009 0.500000
O O6 0.750000 0.250000 0.420505
O O7 0.659270 0.231010 0.393378
O O8 0.705585 0.000000 0.438238
O O9 0.047042 0.500000 0.277537
O O10 0.091433 0.262641 0.318560
O O11 0.071893 0.275993 0.211736
O O12 0.000000 0.243146 0.282395
O O13 0.849108 0.500000 0.678693
O O14 0.500000 0.754560 0.926410
O O15 0.591828 0.756793 0.892844
O O16 0.552088 0.000000 0.934465
O O17 0.570807 0.766189 0.000000
O O18 0.622197 0.000000 0.834337
#
# Coordination Sequence:
#
# PCOD8274275 Si02
#       6
#    16  16  16  16  16  16
#     4  11  21  32  46  64  87 113 143 180 221 264
#     4   9  17  28  42  61  85 112 141 175 215 258
#     4   8  13  22  39  62  85 112 145 175 204 244
#     4   9  17  29  45  65  88 114 144 177 214 256
#     4   8  13  22  41  71 100 122 147 180 215 253
#     4   9  16  27  44  66  91 118 147 178 213 253
#
# _framework density 16.464525999999999
#
# number of rings (size 3 to 8) (size 9 to 14) (size 15 to 20)
#    0.000    3.000    0.000    4.000    0.000    4.000 
#    0.000    0.000    0.000   14.000    0.000    4.667 
#    0.000    0.000    0.000   10.167    0.000   11.000 
#
# Total GULP energy -594886.727208 kJ/mol
# GULP energy per Si atom -12393.473483 kJ/mol
# Density = 1.642705 g / cm^3
# Si number density = 16.464526 Si / 1000 Ang^3
#
#
#
# Elastic Constant Matrix: (Units=GPa)
#
#
# Indices 1 2 3 4 5 6 
#
# 1 139.0015 28.9688 82.4906 0.0000 0.0000 0.0000
# 2 28.9688 38.5712 25.9625 0.0000 0.0000 0.0000
# 3 82.4906 25.9625 139.4335 0.0000 0.0000 0.0000
# 4 0.0000 0.0000 0.0000 13.6579 0.0000 0.0000
# 5 0.0000 0.0000 0.0000 0.0000 24.4218 0.0000
# 6 0.0000 0.0000 0.0000 0.0000 0.0000 17.1365
#
#
#
# Elastic Compliance Matrix: (Units=1/GPa)
#
#
# Indices 1 2 3 4 5 6 
#
# 1 0.011805 -0.004762 -0.006097 0.000000 0.000000 0.000000
# 2 -0.004762 0.031562 -0.003060 0.000000 0.000000 0.000000
# 3 -0.006097 -0.003060 0.011349 0.000000 0.000000 0.000000
# 4 0.000000 0.000000 0.000000 0.073218 0.000000 0.000000
# 5 0.000000 0.000000 0.000000 0.000000 0.040947 0.000000
# 6 0.000000 0.000000 0.000000 0.000000 0.000000 0.058355
#
#
# Mechanical properties :
#
#
# Convention : Reuss Voigt Hill
#
# Bulk Modulus (GPa) = 37.20508 65.76110 51.48309
# Shear Modulus (GPa) = 18.93704 23.01553 20.97628
#
# Velocity S-wave (km/s) = 3.39510 3.74289 3.57323
# Velocity P-wave (km/s) = 6.16564 7.66203 6.95420
#
# Compressibility (1/GPa) = 0.02687805
#
# Stress axis : x y z
#
# Youngs Moduli (GPa) = 84.70942 31.68368 88.11485
#
# Poissons Ratio (x) = 0.15088 0.53727
# Poissons Ratio (y) = 0.40339 0.26959
# Poissons Ratio (z) = 0.51650 0.09694
#
# Static dielectric constant tensor:
#      x y z
#    x 3.513540 0.000000 0.000000 
#    y 0.000000 2.777400 0.000000 
#    z 0.000000 0.000000 3.345620 
# 
# 
# High freq. dielectric constant tensor:
#      x y z
#    x 1.628510 0.000000 0.000000 
#    y 0.000000 1.600230 0.000000 
#    z 0.000000 0.000000 1.628280 
# 
# From -- ./inp_files/71689.got.cif
#   From: 2010.03.12/outbox.cif.g09.slc.cpg/sg65_36_cif.got.tgz:71689.got - 2010.04.10 20:52:16.
