data_PCOD8274041
_publ_section_title
;
Structure prediction by ZEFSAII (Michael W. Deem and Ramdas Pophale) SiO2 
 PCOD8274041
Probable space group: C M M M
;
_chemical_formula_sum "Si O2"
_cell_formula_units_Z 80
_cell_length_a 28.193419
_cell_length_b 18.200718
_cell_length_c 7.611577
_cell_angle_alpha 90.000000
_cell_angle_beta 90.000000
_cell_angle_gamma 90.000000
_cell_volume 3905.808189
_symmetry_space_group_name_H-M "C M M M"
_symmetry_group_IT_number 65
_symmetry_cell_setting 'orthorhombic'
loop_
_space_group_symop_operation_xyz
x,y,z
-x,-y,z
x,-y,-z
-x,y,-z
-x,-y,-z
x,y,-z
-x,y,z
x,-y,z
1/2+x,1/2+y,z
1/2-x,1/2-y,z
1/2+x,1/2-y,-z
1/2-x,1/2+y,-z
1/2-x,1/2-y,-z
1/2+x,1/2+y,-z
1/2-x,1/2+y,z
1/2+x,1/2-y,z
loop_
_atom_site_type_symbol
_atom_site_label
_atom_site_fract_x
_atom_site_fract_y
_atom_site_fract_z
Si Si1 0.739844 0.835427 0.203028
Si Si2 0.354346 0.917706 0.792168
Si Si3 0.947846 0.658277 0.791129
Si Si4 0.945211 0.175397 0.802039
Si Si5 0.097800 0.918601 0.500000
Si Si6 0.291084 0.418887 0.500000
O O1 0.750000 0.750000 0.234913
O O2 0.686820 0.860143 0.263034
O O3 0.776617 0.878340 0.322082
O O4 0.748415 0.856763 0.000000
O O5 0.405127 0.891297 0.713565
O O6 0.343358 0.000000 0.720518
O O7 0.358385 0.919470 0.000000
O O8 0.938287 0.741756 0.732655
O O9 0.000000 0.632284 0.720815
O O10 0.948670 0.654704 0.000000
O O11 0.917183 0.121712 0.676589
O O12 0.000000 0.153477 0.797610
O O13 0.925058 0.167091 0.000000
O O14 0.153403 0.923787 0.500000
O O15 0.075271 0.000000 0.500000
O O16 0.268242 0.500000 0.500000
#
# Coordination Sequence:
#
# PCOD8274041 Si02
#       6
#    16  16  16  16   8   8
#     4  10  22  40  63  88 116 158 206 252 298 352
#     4   9  17  30  52  83 116 151 192 238 292 350
#     4   8  15  29  51  81 115 151 190 230 281 350
#     4   9  19  37  60  83 113 155 197 240 293 357
#     4  11  25  39  56  86 117 149 194 249 304 360
#     4  11  25  42  59  85 121 157 196 248 310 368
#
# _framework density 20.482316000000001
#
# number of rings (size 3 to 8) (size 9 to 14) (size 15 to 20)
#    0.000    2.600    0.000    2.400    2.800    3.600 
#    0.000    5.000    0.000    0.000    0.000    0.000 
#    0.000    5.600    0.000    0.600    0.000    0.000 
#
# Total GULP energy -495814.463000 kJ/mol
# GULP energy per Si atom -12395.361575 kJ/mol
# Density = 2.043570 g / cm^3
# Si number density = 20.482316 Si / 1000 Ang^3
#
#
#
# Elastic Constant Matrix: (Units=GPa)
#
#
# Indices 1 2 3 4 5 6 
#
# 1 115.0515 78.3339 26.7301 0.0000 0.0000 0.0000
# 2 78.3339 148.1505 43.5705 0.0000 0.0000 0.0000
# 3 26.7301 43.5705 75.0703 0.0000 0.0000 0.0000
# 4 0.0000 0.0000 0.0000 -17.2489 0.0000 0.0000
# 5 0.0000 0.0000 0.0000 0.0000 22.8855 0.0000
# 6 0.0000 0.0000 0.0000 0.0000 0.0000 33.3669
#
#
#
# Elastic Compliance Matrix: (Units=1/GPa)
#
#
# Indices 1 2 3 4 5 6 
#
# 1 0.013621 -0.006965 -0.000808 0.000000 0.000000 0.000000
# 2 -0.006965 0.011700 -0.004311 0.000000 0.000000 0.000000
# 3 -0.000808 -0.004311 0.016111 0.000000 0.000000 0.000000
# 4 0.000000 0.000000 0.000000 -0.057975 0.000000 0.000000
# 5 0.000000 0.000000 0.000000 0.000000 0.043696 0.000000
# 6 0.000000 0.000000 0.000000 0.000000 0.000000 0.029970
#
#
# Mechanical properties :
#
#
# Convention : Reuss Voigt Hill
#
# Bulk Modulus (GPa) = 57.91954 70.61569 64.26762
# Shear Modulus (GPa) = 57.44158 20.44323 38.94241
#
# Velocity S-wave (km/s) = 5.30145 3.16269 4.36509
# Velocity P-wave (km/s) = 8.11252 6.92012 7.53993
#
# Compressibility (1/GPa) = 0.01726533
#
# Stress axis : x y z
#
# Youngs Moduli (GPa) = 73.41389 85.46841 62.07120
#
# Poissons Ratio (x) = 0.59526 0.05015
# Poissons Ratio (y) = 0.51130 0.26758
# Poissons Ratio (z) = 0.05931 0.36844
#
# Static dielectric constant tensor:
#      x y z
#    x 3.908970 0.000000 0.000000 
#    y 0.000000 3.926040 0.000000 
#    z 0.000000 0.000000 3.545280 
# 
# 
# High freq. dielectric constant tensor:
#      x y z
#    x 1.803840 0.000000 0.000000 
#    y 0.000000 1.799980 0.000000 
#    z 0.000000 0.000000 1.785230 
# 
# From -- ./inp_files/16094.got.cif
#   From: 2010.03.12/outbox.cif.g09.slc.cpg/sg65_9_cif.got.tgz:16094.got - 2010.04.10 20:52:16.
