data_PCOD8274324
_publ_section_title
;
Structure prediction by ZEFSAII (Michael W. Deem and Ramdas Pophale) SiO2 
 PCOD8274324
Probable space group: C M M M
;
_chemical_formula_sum "Si O2"
_cell_formula_units_Z 96
_cell_length_a 28.961827
_cell_length_b 8.856438
_cell_length_c 20.579564
_cell_angle_alpha 90.000000
_cell_angle_beta 90.000000
_cell_angle_gamma 90.000000
_cell_volume 5278.629873
_symmetry_space_group_name_H-M "C M M M"
_symmetry_group_IT_number 65
_symmetry_cell_setting 'orthorhombic'
loop_
_space_group_symop_operation_xyz
x,y,z
-x,-y,z
x,-y,-z
-x,y,-z
-x,-y,-z
x,y,-z
-x,y,z
x,-y,z
1/2+x,1/2+y,z
1/2-x,1/2-y,z
1/2+x,1/2-y,-z
1/2-x,1/2+y,-z
1/2-x,1/2-y,-z
1/2+x,1/2+y,-z
1/2-x,1/2+y,z
1/2+x,1/2-y,z
loop_
_atom_site_type_symbol
_atom_site_label
_atom_site_fract_x
_atom_site_fract_y
_atom_site_fract_z
Si Si1 0.948188 0.675147 0.726548
Si Si2 0.854980 0.320470 0.928381
Si Si3 0.702640 0.323038 0.572585
Si Si4 0.700277 0.179279 0.804132
Si Si5 0.450065 0.821041 0.124304
Si Si6 0.141059 0.176874 0.308729
O O1 0.935137 0.500000 0.718670
O O2 0.944068 0.725985 0.801102
O O3 0.912527 0.776707 0.686021
O O4 0.000000 0.705651 0.700596
O O5 0.857441 0.500000 0.925147
O O6 0.819105 0.263019 0.873940
O O7 0.906652 0.254549 0.915603
O O8 0.838761 0.265551 0.000000
O O9 0.689543 0.265672 0.500000
O O10 0.710549 0.500000 0.572680
O O11 0.750000 0.250000 0.597183
O O12 0.662688 0.275743 0.622265
O O13 0.750000 0.250000 0.791654
O O14 0.665260 0.231217 0.748758
O O15 0.704429 0.000000 0.802064
O O16 0.500000 0.759429 0.098393
O O17 0.450610 0.000000 0.118798
O O18 0.146647 0.000000 0.294929
#
# Coordination Sequence:
#
# PCOD8274324 Si02
#       6
#    16  16  16  16  16  16
#     4   9  17  31  52  77 105 137 171 209 254 299
#     4   9  17  29  46  69  97 130 167 209 256 304
#     4   9  19  35  53  76 106 137 169 207 251 301
#     4  11  22  36  52  72 100 132 170 217 260 304
#     4   8  13  24  44  70  97 124 157 199 249 300
#     4  11  21  33  54  81 106 134 169 208 253 305
#
# _framework density 18.186537999999999
#
# number of rings (size 3 to 8) (size 9 to 14) (size 15 to 20)
#    0.000    2.500    1.667    2.500    0.000    3.667 
#    0.000    1.667    0.000    2.000    0.000    3.500 
#    0.000    2.667    0.000    0.000    0.000    0.000 
#
# Total GULP energy -594987.296294 kJ/mol
# GULP energy per Si atom -12395.568673 kJ/mol
# Density = 1.814514 g / cm^3
# Si number density = 18.186538 Si / 1000 Ang^3
#
#
#
# Elastic Constant Matrix: (Units=GPa)
#
#
# Indices 1 2 3 4 5 6 
#
# 1 114.4366 27.8855 50.0655 0.0000 0.0000 0.0000
# 2 27.8855 35.7682 28.6458 0.0000 0.0000 0.0000
# 3 50.0655 28.6458 95.6762 0.0000 0.0000 0.0000
# 4 0.0000 0.0000 0.0000 18.6001 0.0000 0.0000
# 5 0.0000 0.0000 0.0000 0.0000 23.0167 0.0000
# 6 0.0000 0.0000 0.0000 0.0000 0.0000 25.7017
#
#
#
# Elastic Compliance Matrix: (Units=1/GPa)
#
#
# Indices 1 2 3 4 5 6 
#
# 1 0.012177 -0.005775 -0.004643 0.000000 0.000000 0.000000
# 2 -0.005775 0.039515 -0.008809 0.000000 0.000000 0.000000
# 3 -0.004643 -0.008809 0.015519 0.000000 0.000000 0.000000
# 4 0.000000 0.000000 0.000000 0.053763 0.000000 0.000000
# 5 0.000000 0.000000 0.000000 0.000000 0.043447 0.000000
# 6 0.000000 0.000000 0.000000 0.000000 0.000000 0.038908
#
#
# Mechanical properties :
#
#
# Convention : Reuss Voigt Hill
#
# Bulk Modulus (GPa) = 34.77407 51.00829 42.89118
# Shear Modulus (GPa) = 19.89117 22.74933 21.32025
#
# Velocity S-wave (km/s) = 3.31075 3.54063 3.42761
# Velocity P-wave (km/s) = 5.81180 6.69499 6.26897
#
# Compressibility (1/GPa) = 0.02875706
#
# Stress axis : x y z
#
# Youngs Moduli (GPa) = 82.12239 25.30688 64.43755
#
# Poissons Ratio (x) = 0.14615 0.29918
# Poissons Ratio (y) = 0.47426 0.56763
# Poissons Ratio (z) = 0.38129 0.22293
#
# Static dielectric constant tensor:
#      x y z
#    x 3.664360 0.000000 0.000000 
#    y 0.000000 2.996930 0.000000 
#    z 0.000000 0.000000 3.487520 
# 
# 
# High freq. dielectric constant tensor:
#      x y z
#    x 1.714310 0.000000 0.000000 
#    y 0.000000 1.669900 0.000000 
#    z 0.000000 0.000000 1.690450 
# 
# From -- ./inp_files/65775.got.cif
#   From: 2010.03.12/outbox.cif.g09.slc.cpg/sg65_33_cif.got.tgz:65775.got - 2010.04.10 20:52:16.
