data_PCOD8274378
_publ_section_title
;
Structure prediction by ZEFSAII (Michael W. Deem and Ramdas Pophale) SiO2 
 PCOD8274378
Probable space group: C M M M
;
_chemical_formula_sum "Si O2"
_cell_formula_units_Z 48
_cell_length_a 27.686481
_cell_length_b 10.738781
_cell_length_c 7.559104
_cell_angle_alpha 90.000000
_cell_angle_beta 90.000000
_cell_angle_gamma 90.000000
_cell_volume 2247.465666
_symmetry_space_group_name_H-M "C M M M"
_symmetry_group_IT_number 65
_symmetry_cell_setting 'orthorhombic'
loop_
_space_group_symop_operation_xyz
x,y,z
-x,-y,z
x,-y,-z
-x,y,-z
-x,-y,-z
x,y,-z
-x,y,z
x,-y,z
1/2+x,1/2+y,z
1/2-x,1/2-y,z
1/2+x,1/2-y,-z
1/2-x,1/2+y,-z
1/2-x,1/2-y,-z
1/2+x,1/2+y,-z
1/2-x,1/2+y,z
1/2+x,1/2-y,z
loop_
_atom_site_type_symbol
_atom_site_label
_atom_site_fract_x
_atom_site_fract_y
_atom_site_fract_z
Si Si1 0.609799 0.266607 0.802372
Si Si2 0.946504 0.358236 0.500000
Si Si3 0.943568 0.000000 0.298170
Si Si4 0.214212 0.142120 0.790191
O O1 0.585746 0.167807 0.671941
O O2 0.574343 0.382628 0.810552
O O3 0.661304 0.313950 0.729660
O O4 0.614633 0.208834 0.000000
O O5 0.959333 0.500000 0.500000
O O6 0.000000 0.288788 0.500000
O O7 0.923388 0.000000 0.500000
O O8 0.000000 0.000000 0.299384
O O9 0.250000 0.250000 0.715017
O O10 0.225005 0.000000 0.718159
O O11 0.217875 0.136883 0.000000
#
# Coordination Sequence:
#
# PCOD8274378 Si02
#       4
#    16   8   8  16
#     4  11  22  39  64  92 123 162 209 258 313 376
#     4  11  26  45  62  87 126 166 208 261 317 380
#     4  11  21  35  61  94 127 161 200 255 317 369
#     4   9  18  34  58  90 127 165 208 261 317 376
#
# _framework density 21.357392000000001
#
# number of rings (size 3 to 8) (size 9 to 14) (size 15 to 20)
#    0.000    1.667    3.333    1.500    0.000    5.333 
#    0.000    5.833    0.000    0.000    0.000    0.000 
#    0.000    0.000    0.000    0.000    0.000    0.000 
#
# Total GULP energy -297397.286847 kJ/mol
# GULP energy per Si atom -12391.553619 kJ/mol
# Density = 2.130878 g / cm^3
# Si number density = 21.357392 Si / 1000 Ang^3
#
#
#
# Elastic Constant Matrix: (Units=GPa)
#
#
# Indices 1 2 3 4 5 6 
#
# 1 139.4159 70.8213 39.6415 0.0000 0.0000 0.0000
# 2 70.8213 120.7163 25.3666 0.0000 0.0000 0.0000
# 3 39.6415 25.3666 81.0906 0.0000 0.0000 0.0000
# 4 0.0000 0.0000 0.0000 27.9560 0.0000 0.0000
# 5 0.0000 0.0000 0.0000 0.0000 2.6517 0.0000
# 6 0.0000 0.0000 0.0000 0.0000 0.0000 37.7761
#
#
#
# Elastic Compliance Matrix: (Units=1/GPa)
#
#
# Indices 1 2 3 4 5 6 
#
# 1 0.011139 -0.005770 -0.003640 0.000000 0.000000 0.000000
# 2 -0.005770 0.011856 -0.000888 0.000000 0.000000 0.000000
# 3 -0.003640 -0.000888 0.014389 0.000000 0.000000 0.000000
# 4 0.000000 0.000000 0.000000 0.035771 0.000000 0.000000
# 5 0.000000 0.000000 0.000000 0.000000 0.377117 0.000000
# 6 0.000000 0.000000 0.000000 0.000000 0.000000 0.026472
#
#
# Mechanical properties :
#
#
# Convention : Reuss Voigt Hill
#
# Bulk Modulus (GPa) = 59.56928 68.09797 63.83363
# Shear Modulus (GPa) = 9.94162 27.36963 18.65563
#
# Velocity S-wave (km/s) = 2.15986 3.58370 2.95871
# Velocity P-wave (km/s) = 5.84570 7.00557 6.45175
#
# Compressibility (1/GPa) = 0.01678718
#
# Stress axis : x y z
#
# Youngs Moduli (GPa) = 89.77495 84.34839 69.49625
#
# Poissons Ratio (x) = 0.48669 0.25299
# Poissons Ratio (y) = 0.51800 0.06171
# Poissons Ratio (z) = 0.32682 0.07490
#
# Static dielectric constant tensor:
#      x y z
#    x 4.021690 0.000000 0.000000 
#    y 0.000000 3.895030 0.000000 
#    z 0.000000 0.000000 3.922550 
# 
# 
# High freq. dielectric constant tensor:
#      x y z
#    x 1.849510 0.000000 0.000000 
#    y 0.000000 1.828200 0.000000 
#    z 0.000000 0.000000 1.823390 
# 
# From -- ./inp_files/13088.got.cif
#   From: 2010.03.12/outbox.cif.g09.slc.cpg/sg65_7_cif.got.tgz:13088.got - 2010.04.10 20:52:16.
