data_PCOD8274534
_publ_section_title
;
Structure prediction by ZEFSAII (Michael W. Deem and Ramdas Pophale) SiO2 
 PCOD8274534
Probable space group: C M M M
;
_chemical_formula_sum "Si O2"
_cell_formula_units_Z 88
_cell_length_a 19.620281
_cell_length_b 24.013420
_cell_length_c 8.959215
_cell_angle_alpha 90.000000
_cell_angle_beta 90.000000
_cell_angle_gamma 90.000000
_cell_volume 4221.134579
_symmetry_space_group_name_H-M "C M M M"
_symmetry_group_IT_number 65
_symmetry_cell_setting 'orthorhombic'
loop_
_space_group_symop_operation_xyz
x,y,z
-x,-y,z
x,-y,-z
-x,y,-z
-x,-y,-z
x,y,-z
-x,y,z
x,-y,z
1/2+x,1/2+y,z
1/2-x,1/2-y,z
1/2+x,1/2-y,-z
1/2-x,1/2+y,-z
1/2-x,1/2-y,-z
1/2+x,1/2+y,-z
1/2-x,1/2+y,z
1/2+x,1/2-y,z
loop_
_atom_site_type_symbol
_atom_site_label
_atom_site_fract_x
_atom_site_fract_y
_atom_site_fract_z
Si Si1 0.892717 0.562269 0.829292
Si Si2 0.575881 0.830353 0.670947
Si Si3 0.128859 0.865636 0.674761
Si Si4 0.733035 0.437216 0.167443
Si Si5 0.828449 0.754427 0.823697
Si Si6 0.500000 0.436535 0.322482
O O1 0.918246 0.500000 0.790781
O O2 0.928989 0.605214 0.719277
O O3 0.812482 0.566012 0.803835
O O4 0.911364 0.576766 0.000000
O O5 0.599795 0.825780 0.500000
O O6 0.500000 0.804425 0.689775
O O7 0.631161 0.800533 0.775049
O O8 0.122453 0.855054 0.500000
O O9 0.197916 0.898265 0.711063
O O10 0.131119 0.806003 0.753133
O O11 0.065850 0.902599 0.735315
O O12 0.706418 0.500000 0.188356
O O13 0.715633 0.416023 0.000000
O O14 0.750000 0.750000 0.768028
O O15 0.830538 0.760214 0.000000
O O16 0.500000 0.500000 0.258311
O O17 0.500000 0.439458 0.500000
#
# Coordination Sequence:
#
# PCOD8274534 Si02
#       6
#    16  16  16  16  16   8
#     4   9  19  37  61  88 119 157 199 242 294 357
#     4  11  25  42  61  88 123 158 197 247 301 358
#     4  11  22  36  59  87 118 156 202 252 304 366
#     4   9  18  34  56  84 119 155 195 247 300 351
#     4  11  25  44  65  89 119 157 204 256 310 370
#     4   9  20  38  57  83 123 165 200 241 300 367
#
# _framework density 20.847474999999999
#
# number of rings (size 3 to 8) (size 9 to 14) (size 15 to 20)
#    0.000    1.909    0.000    4.364    1.273    9.818 
#    0.000    5.000    0.000    3.273    0.000    0.000 
#    0.000    0.000    0.000    0.000    0.000    0.000 
#
# Total GULP energy -545670.995609 kJ/mol
# GULP energy per Si atom -12401.613537 kJ/mol
# Density = 2.080003 g / cm^3
# Si number density = 20.847475 Si / 1000 Ang^3
#
#
#
# Elastic Constant Matrix: (Units=GPa)
#
#
# Indices 1 2 3 4 5 6 
#
# 1 87.1632 44.6498 34.4158 0.0000 0.0000 0.0000
# 2 44.6498 115.9624 35.1779 0.0000 0.0000 0.0000
# 3 34.4158 35.1779 67.6474 0.0000 0.0000 0.0000
# 4 0.0000 0.0000 0.0000 38.0847 0.0000 0.0000
# 5 0.0000 0.0000 0.0000 0.0000 9.0440 0.0000
# 6 0.0000 0.0000 0.0000 0.0000 0.0000 36.4303
#
#
#
# Elastic Compliance Matrix: (Units=1/GPa)
#
#
# Indices 1 2 3 4 5 6 
#
# 1 0.016045 -0.004395 -0.005877 0.000000 0.000000 0.000000
# 2 -0.004395 0.011442 -0.003714 0.000000 0.000000 0.000000
# 3 -0.005877 -0.003714 0.019704 0.000000 0.000000 0.000000
# 4 0.000000 0.000000 0.000000 0.026257 0.000000 0.000000
# 5 0.000000 0.000000 0.000000 0.000000 0.110570 0.000000
# 6 0.000000 0.000000 0.000000 0.000000 0.000000 0.027450
#
#
# Mechanical properties :
#
#
# Convention : Reuss Voigt Hill
#
# Bulk Modulus (GPa) = 52.03425 55.47332 53.75378
# Shear Modulus (GPa) = 20.33781 27.14713 23.74247
#
# Velocity S-wave (km/s) = 3.12677 3.61249 3.37837
# Velocity P-wave (km/s) = 6.16841 6.63830 6.40766
#
# Compressibility (1/GPa) = 0.01921811
#
# Stress axis : x y z
#
# Youngs Moduli (GPa) = 62.32613 87.39389 50.75062
#
# Poissons Ratio (x) = 0.38408 0.29828
# Poissons Ratio (y) = 0.27391 0.18851
# Poissons Ratio (z) = 0.36631 0.32462
#
# Static dielectric constant tensor:
#      x y z
#    x 3.768690 0.000000 0.000000 
#    y 0.000000 3.974750 0.000000 
#    z 0.000000 0.000000 3.576050 
# 
# 
# High freq. dielectric constant tensor:
#      x y z
#    x 1.821000 0.000000 0.000000 
#    y 0.000000 1.826980 0.000000 
#    z 0.000000 0.000000 1.800970 
# 
# From -- ./inp_files/11757.got.cif
#   From: 2010.03.12/outbox.cif.g09.slc.cpg/sg65_6_cif.got.tgz:11757.got - 2010.04.10 20:52:16.
