data_PCOD8274368
_publ_section_title
;
Structure prediction by ZEFSAII (Michael W. Deem and Ramdas Pophale) SiO2 
 PCOD8274368
Probable space group: C M M M
;
_chemical_formula_sum "Si O2"
_cell_formula_units_Z 88
_cell_length_a 8.548789
_cell_length_b 18.647402
_cell_length_c 28.787628
_cell_angle_alpha 90.000000
_cell_angle_beta 90.000000
_cell_angle_gamma 90.000000
_cell_volume 4589.113653
_symmetry_space_group_name_H-M "C M M M"
_symmetry_group_IT_number 65
_symmetry_cell_setting 'orthorhombic'
loop_
_space_group_symop_operation_xyz
x,y,z
-x,-y,z
x,-y,-z
-x,y,-z
-x,-y,-z
x,y,-z
-x,y,z
x,-y,z
1/2+x,1/2+y,z
1/2-x,1/2-y,z
1/2+x,1/2-y,-z
1/2-x,1/2+y,-z
1/2-x,1/2-y,-z
1/2+x,1/2+y,-z
1/2-x,1/2+y,z
1/2+x,1/2-y,z
loop_
_atom_site_type_symbol
_atom_site_label
_atom_site_fract_x
_atom_site_fract_y
_atom_site_fract_z
Si Si1 0.184405 0.082774 0.085551
Si Si2 0.316671 0.328645 0.264348
Si Si3 0.316849 0.328472 0.365403
Si Si4 0.684239 0.830631 0.829892
Si Si5 0.683587 0.829777 0.000000
Si Si6 0.185839 0.919923 0.550834
O O1 0.235293 0.116398 0.134090
O O2 0.000000 0.088978 0.079512
O O3 0.238821 0.000000 0.083308
O O4 0.264625 0.127198 0.045056
O O5 0.500000 0.326589 0.252422
O O6 0.250000 0.250000 0.269885
O O7 0.284071 0.365620 0.314672
O O8 0.226146 0.364240 0.220878
O O9 0.500000 0.322107 0.373010
O O10 0.250000 0.250000 0.368400
O O11 0.239839 0.374350 0.407024
O O12 0.500000 0.829288 0.838090
O O13 0.750000 0.750000 0.835081
O O14 0.750000 0.750000 0.000000
O O15 0.500000 0.822419 0.000000
O O16 0.233549 0.888299 0.500000
O O17 0.000000 0.921568 0.555271
O O18 0.252700 0.000000 0.555396
#
# Coordination Sequence:
#
# PCOD8274368 Si02
#       6
#    16  16  16  16   8  16
#     4  11  24  42  62  85 116 150 183 222 270 318
#     4   9  16  28  46  70 100 132 168 209 256 307
#     4   9  17  28  45  70  97 125 161 206 254 303
#     4  11  21  35  57  82 109 141 181 223 263 313
#     4  12  25  42  65  91 119 149 187 228 265 312
#     4   8  14  26  44  65  90 122 161 203 246 297
#
# _framework density 19.175816000000001
#
# number of rings (size 3 to 8) (size 9 to 14) (size 15 to 20)
#    0.000    2.182    0.000    6.000    0.000    3.636 
#    0.000    0.909    0.000    3.818    0.000    1.273 
#    0.000    0.000    0.000    0.000    0.000    0.000 
#
# Total GULP energy -545251.267426 kJ/mol
# GULP energy per Si atom -12392.074260 kJ/mol
# Density = 1.913217 g / cm^3
# Si number density = 19.175816 Si / 1000 Ang^3
#
#
#
# Elastic Constant Matrix: (Units=GPa)
#
#
# Indices 1 2 3 4 5 6 
#
# 1 64.5133 32.4670 28.6955 0.0000 0.0000 0.0000
# 2 32.4670 102.2148 77.5792 0.0000 0.0000 0.0000
# 3 28.6955 77.5792 181.1722 0.0000 0.0000 0.0000
# 4 0.0000 0.0000 0.0000 11.0981 0.0000 0.0000
# 5 0.0000 0.0000 0.0000 0.0000 16.9575 0.0000
# 6 0.0000 0.0000 0.0000 0.0000 0.0000 21.2152
#
#
#
# Elastic Compliance Matrix: (Units=1/GPa)
#
#
# Indices 1 2 3 4 5 6 
#
# 1 0.018496 -0.005410 -0.000613 0.000000 0.000000 0.000000
# 2 -0.005410 0.016076 -0.006027 0.000000 0.000000 0.000000
# 3 -0.000613 -0.006027 0.008198 0.000000 0.000000 0.000000
# 4 0.000000 0.000000 0.000000 0.090106 0.000000 0.000000
# 5 0.000000 0.000000 0.000000 0.000000 0.058971 0.000000
# 6 0.000000 0.000000 0.000000 0.000000 0.000000 0.047136
#
#
# Mechanical properties :
#
#
# Convention : Reuss Voigt Hill
#
# Bulk Modulus (GPa) = 53.56210 69.48707 61.52459
# Shear Modulus (GPa) = 18.56630 23.79804 21.18217
#
# Velocity S-wave (km/s) = 3.11499 3.52667 3.32720
# Velocity P-wave (km/s) = 6.39768 7.27315 6.84941
#
# Compressibility (1/GPa) = 0.01866992
#
# Stress axis : x y z
#
# Youngs Moduli (GPa) = 54.06627 62.20445 121.98771
#
# Poissons Ratio (x) = 0.33650 0.07479
# Poissons Ratio (y) = 0.29248 0.73523
# Poissons Ratio (z) = 0.03315 0.37491
#
# Static dielectric constant tensor:
#      x y z
#    x 3.456390 0.000000 0.000000 
#    y 0.000000 2.042120 0.000000 
#    z 0.000000 0.000000 4.423050 
# 
# 
# High freq. dielectric constant tensor:
#      x y z
#    x 1.736070 0.000000 0.000000 
#    y 0.000000 1.714890 0.000000 
#    z 0.000000 0.000000 1.776770 
# 
# From -- ./inp_files/76592.got.cif
#   From: 2010.03.12/outbox.cif.g09.slc.cpg/sg65_39_cif.got.tgz:76592.got - 2010.04.10 20:52:16.
