data_PCOD8274150
_publ_section_title
;
Structure prediction by ZEFSAII (Michael W. Deem and Ramdas Pophale) SiO2 
 PCOD8274150
Probable space group: C M M M
;
_chemical_formula_sum "Si O2"
_cell_formula_units_Z 90
_cell_length_a 18.714259
_cell_length_b 22.157823
_cell_length_c 11.308326
_cell_angle_alpha 90.000000
_cell_angle_beta 90.000000
_cell_angle_gamma 90.000000
_cell_volume 4689.192314
_symmetry_space_group_name_H-M "C M M M"
_symmetry_group_IT_number 65
_symmetry_cell_setting 'orthorhombic'
loop_
_space_group_symop_operation_xyz
x,y,z
-x,-y,z
x,-y,-z
-x,y,-z
-x,-y,-z
x,y,-z
-x,y,z
x,-y,z
1/2+x,1/2+y,z
1/2-x,1/2-y,z
1/2+x,1/2-y,-z
1/2-x,1/2+y,-z
1/2-x,1/2-y,-z
1/2+x,1/2+y,-z
1/2-x,1/2+y,z
1/2+x,1/2-y,z
loop_
_atom_site_type_symbol
_atom_site_label
_atom_site_fract_x
_atom_site_fract_y
_atom_site_fract_z
Si Si1 0.209036 0.662208 0.000000
Si Si2 0.000000 0.500000 0.500000
Si Si3 0.672720 0.771557 0.637471
Si Si4 0.423252 0.000000 0.733857
Si Si5 0.363312 0.283171 0.000000
Si Si6 0.583287 0.328821 0.751675
Si Si7 0.818123 0.393537 0.242729
Si Si8 0.326090 0.569883 0.637230
O O1 0.209731 0.618762 0.887918
O O2 0.282622 0.696842 0.000000
O O3 0.142057 0.709677 0.000000
O O4 0.065042 0.500000 0.593419
O O5 0.677530 0.784954 0.500000
O O6 0.750000 0.750000 0.687085
O O7 0.613913 0.721289 0.662987
O O8 0.649685 0.832497 0.702163
O O9 0.381585 0.059670 0.770276
O O10 0.500000 0.000000 0.801744
O O11 0.404426 0.308432 0.886181
O O12 0.500000 0.336608 0.727074
O O13 0.621249 0.392036 0.721035
O O14 0.755340 0.418883 0.325207
O O15 0.334699 0.589302 0.500000
O O16 0.345820 0.500000 0.654655
#
# Coordination Sequence:
#
# PCOD8274150 Si02
#       8
#     8   2  16   8   8  16  16  16
#     4  11  22  39  73  96 126 168 227 272 322 373
#     4   8  24  48  68  90 144 188 210 264 336 396
#     4  11  22  37  63  97 129 165 214 277 329 388
#     4  10  26  43  64  98 134 175 214 268 323 391
#     4  11  21  44  65  96 130 177 210 269 325 397
#     4  12  25  43  64  96 135 170 214 269 335 396
#     4  12  22  41  67  99 129 170 226 271 320 387
#     4  11  24  41  68  98 128 173 222 270 325 387
#
# _framework density 19.193071
#
# number of rings (size 3 to 8) (size 9 to 14) (size 15 to 20)
#    0.267    0.533    6.222    1.333    2.489    2.844 
#    0.000    3.111    0.000    1.067    0.000    0.000 
#    0.000    0.000    0.000    0.000    0.000    0.000 
#
# Total GULP energy -557616.305976 kJ/mol
# GULP energy per Si atom -12391.473466 kJ/mol
# Density = 1.914939 g / cm^3
# Si number density = 19.193071 Si / 1000 Ang^3
#
#
#
# Elastic Constant Matrix: (Units=GPa)
#
#
# Indices 1 2 3 4 5 6 
#
# 1 118.2587 42.1269 8.5567 0.0000 0.0000 0.0000
# 2 42.1269 116.3246 23.1173 0.0000 0.0000 0.0000
# 3 8.5567 23.1173 78.9427 0.0000 0.0000 0.0000
# 4 0.0000 0.0000 0.0000 22.6090 0.0000 0.0000
# 5 0.0000 0.0000 0.0000 0.0000 27.1702 0.0000
# 6 0.0000 0.0000 0.0000 0.0000 0.0000 26.0630
#
#
#
# Elastic Compliance Matrix: (Units=1/GPa)
#
#
# Indices 1 2 3 4 5 6 
#
# 1 0.009709 -0.003511 -0.000024 0.000000 0.000000 0.000000
# 2 -0.003511 0.010398 -0.002664 0.000000 0.000000 0.000000
# 3 -0.000024 -0.002664 0.013450 0.000000 0.000000 0.000000
# 4 0.000000 0.000000 0.000000 0.044230 0.000000 0.000000
# 5 0.000000 0.000000 0.000000 0.000000 0.036805 0.000000
# 6 0.000000 0.000000 0.000000 0.000000 0.000000 0.038369
#
#
# Mechanical properties :
#
#
# Convention : Reuss Voigt Hill
#
# Bulk Modulus (GPa) = 47.26479 51.23642 49.25061
# Shear Modulus (GPa) = 29.00034 31.15010 30.07522
#
# Velocity S-wave (km/s) = 3.89135 4.03300 3.96281
# Velocity P-wave (km/s) = 6.69847 6.95989 6.83043
#
# Compressibility (1/GPa) = 0.02115740
#
# Stress axis : x y z
#
# Youngs Moduli (GPa) = 103.00203 96.17547 74.34822
#
# Poissons Ratio (x) = 0.33769 0.00179
# Poissons Ratio (y) = 0.36166 0.19808
# Poissons Ratio (z) = 0.00248 0.25623
#
# Static dielectric constant tensor:
#      x y z
#    x 3.412250 0.000000 0.000000 
#    y 0.000000 3.573770 0.000000 
#    z 0.000000 0.000000 3.521280 
# 
# 
# High freq. dielectric constant tensor:
#      x y z
#    x 1.736120 0.000000 0.000000 
#    y 0.000000 1.749110 0.000000 
#    z 0.000000 0.000000 1.759540 
# 
# From -- ./inp_files/26894.got.cif
#   From: 2010.03.12/outbox.cif.g09.slc.cpg/sg65_14_cif.got.tgz:26894.got - 2010.04.10 20:52:16.
