data_PCOD8274081
_publ_section_title
;
Structure prediction by ZEFSAII (Michael W. Deem and Ramdas Pophale) SiO2 
 PCOD8274081
Probable space group: C M M M
;
_chemical_formula_sum "Si O2"
_cell_formula_units_Z 64
_cell_length_a 8.276661
_cell_length_b 24.851698
_cell_length_c 15.336740
_cell_angle_alpha 90.000000
_cell_angle_beta 90.000000
_cell_angle_gamma 90.000000
_cell_volume 3154.599935
_symmetry_space_group_name_H-M "C M M M"
_symmetry_group_IT_number 65
_symmetry_cell_setting 'orthorhombic'
loop_
_space_group_symop_operation_xyz
x,y,z
-x,-y,z
x,-y,-z
-x,y,-z
-x,-y,-z
x,y,-z
-x,y,z
x,-y,z
1/2+x,1/2+y,z
1/2-x,1/2-y,z
1/2+x,1/2-y,-z
1/2-x,1/2+y,-z
1/2-x,1/2-y,-z
1/2+x,1/2+y,-z
1/2-x,1/2+y,z
1/2+x,1/2-y,z
loop_
_atom_site_type_symbol
_atom_site_label
_atom_site_fract_x
_atom_site_fract_y
_atom_site_fract_z
Si Si1 0.809447 0.000000 0.098789
Si Si2 0.818221 0.385678 0.852862
Si Si3 0.500000 0.561872 0.595388
Si Si4 0.186963 0.690902 0.500000
Si Si5 0.686545 0.884523 0.343996
Si Si6 0.185334 0.810268 0.000000
O O1 0.749784 0.946310 0.146696
O O2 0.000000 0.000000 0.100499
O O3 0.743774 0.000000 0.000000
O O4 0.808050 0.362751 0.754703
O O5 0.726749 0.344056 0.914132
O O6 0.000000 0.388164 0.887122
O O7 0.500000 0.500000 0.577873
O O8 0.500000 0.591134 0.500000
O O9 0.331902 0.572654 0.647043
O O10 0.250000 0.750000 0.500000
O O11 0.240590 0.661661 0.588841
O O12 0.000000 0.694787 0.500000
O O13 0.500000 0.905760 0.363684
O O14 0.250000 0.750000 0.000000
O O15 0.000000 0.800954 0.000000
#
# Coordination Sequence:
#
# PCOD8274081 Si02
#       6
#     8  16   8   8  16   8
#     4  11  23  39  63  96 130 167 212 262 323 384
#     4  11  24  42  66  95 129 169 214 266 322 386
#     4  11  24  40  66  95 129 177 215 256 322 382
#     4  10  22  42  66  93 125 166 212 266 321 374
#     4  10  24  43  63  95 135 166 213 268 321 384
#     4  12  26  45  66  91 126 170 216 270 326 386
#
# _framework density 20.287835999999999
#
# number of rings (size 3 to 8) (size 9 to 14) (size 15 to 20)
#    0.000    1.250    2.500    2.250    7.000    2.000 
#    0.000    3.750    0.000    0.000    0.000    0.000 
#    0.000    0.000    0.000    0.000    0.000    0.000 
#
# Total GULP energy -396526.357452 kJ/mol
# GULP energy per Si atom -12391.448670 kJ/mol
# Density = 2.024166 g / cm^3
# Si number density = 20.287836 Si / 1000 Ang^3
#
#
#
# Elastic Constant Matrix: (Units=GPa)
#
#
# Indices 1 2 3 4 5 6 
#
# 1 132.4615 44.4294 44.4480 0.0000 0.0000 0.0000
# 2 44.4294 136.2973 56.8216 0.0000 0.0000 0.0000
# 3 44.4480 56.8216 140.8964 0.0000 0.0000 0.0000
# 4 0.0000 0.0000 0.0000 15.6545 0.0000 0.0000
# 5 0.0000 0.0000 0.0000 0.0000 28.0873 0.0000
# 6 0.0000 0.0000 0.0000 0.0000 0.0000 32.4501
#
#
#
# Elastic Compliance Matrix: (Units=1/GPa)
#
#
# Indices 1 2 3 4 5 6 
#
# 1 0.008909 -0.002083 -0.001971 0.000000 0.000000 0.000000
# 2 -0.002083 0.009307 -0.003096 0.000000 0.000000 0.000000
# 3 -0.001971 -0.003096 0.008968 0.000000 0.000000 0.000000
# 4 0.000000 0.000000 0.000000 0.063880 0.000000 0.000000
# 5 0.000000 0.000000 0.000000 0.000000 0.035603 0.000000
# 6 0.000000 0.000000 0.000000 0.000000 0.000000 0.030817
#
#
# Mechanical properties :
#
#
# Convention : Reuss Voigt Hill
#
# Bulk Modulus (GPa) = 77.61246 77.89481 77.75364
# Shear Modulus (GPa) = 28.39672 32.83544 30.61608
#
# Velocity S-wave (km/s) = 3.74530 4.02740 3.88891
# Velocity P-wave (km/s) = 7.55260 7.75273 7.65332
#
# Compressibility (1/GPa) = 0.01288453
#
# Stress axis : x y z
#
# Youngs Moduli (GPa) = 112.24405 107.45094 111.51065
#
# Poissons Ratio (x) = 0.22378 0.21975
# Poissons Ratio (y) = 0.23376 0.34526
# Poissons Ratio (z) = 0.22119 0.33269
#
# Static dielectric constant tensor:
#      x y z
#    x 4.817280 0.000000 0.000000 
#    y 0.000000 3.422510 0.000000 
#    z 0.000000 0.000000 3.930750 
# 
# 
# High freq. dielectric constant tensor:
#      x y z
#    x 1.814760 0.000000 0.000000 
#    y 0.000000 1.772160 0.000000 
#    z 0.000000 0.000000 1.808690 
# 
# From -- ./inp_files/36124.got.cif
#   From: 2010.03.12/outbox.cif.g09.slc.cpg/sg65_19_cif.got.tgz:36124.got - 2010.04.10 20:52:16.
