data_PCOD8274764
_publ_section_title
;
Structure prediction by ZEFSAII (Michael W. Deem and Ramdas Pophale) SiO2 
 PCOD8274764
Probable space group: C M M M
;
_chemical_formula_sum "Si O2"
_cell_formula_units_Z 40
_cell_length_a 11.510867
_cell_length_b 15.561931
_cell_length_c 10.691093
_cell_angle_alpha 90.000000
_cell_angle_beta 90.000000
_cell_angle_gamma 90.000000
_cell_volume 1915.109580
_symmetry_space_group_name_H-M "C M M M"
_symmetry_group_IT_number 65
_symmetry_cell_setting 'orthorhombic'
loop_
_space_group_symop_operation_xyz
x,y,z
-x,-y,z
x,-y,-z
-x,y,-z
-x,-y,-z
x,y,-z
-x,y,z
x,-y,z
1/2+x,1/2+y,z
1/2-x,1/2-y,z
1/2+x,1/2-y,-z
1/2-x,1/2+y,-z
1/2-x,1/2-y,-z
1/2+x,1/2+y,-z
1/2-x,1/2+y,z
1/2+x,1/2-y,z
loop_
_atom_site_type_symbol
_atom_site_label
_atom_site_fract_x
_atom_site_fract_y
_atom_site_fract_z
Si Si1 0.739415 0.152617 0.252636
Si Si2 0.637023 0.602571 0.000000
Si Si3 0.622857 0.500000 0.359559
Si Si4 0.000000 0.399175 0.356262
O O1 0.750000 0.250000 0.299879
O O2 0.792963 0.142688 0.115141
O O3 0.605343 0.129845 0.268372
O O4 0.807955 0.087016 0.339365
O O5 0.650301 0.500000 0.000000
O O6 0.500000 0.629275 0.000000
O O7 0.500000 0.500000 0.280606
O O8 0.585564 0.500000 0.500000
O O9 0.000000 0.500000 0.371305
O O10 0.000000 0.360618 0.500000
#
# Coordination Sequence:
#
# PCOD8274764 Si02
#       4
#    16   8   8   8
#     4  12  26  44  69 104 137 177 232 281 341 410
#     4  11  23  45  75  98 133 181 226 288 348 400
#     4  11  24  44  70  99 138 186 234 283 336 403
#     4  11  24  45  69  96 141 185 219 278 344 399
#
# _framework density 20.886534000000001
#
# number of rings (size 3 to 8) (size 9 to 14) (size 15 to 20)
#    0.000    0.600    4.000    3.000    5.600    4.000 
#    0.000    2.000    0.000    0.000    0.000    0.000 
#    0.000    0.000    0.000    0.000    0.000    0.000 
#
# Total GULP energy -247811.336100 kJ/mol
# GULP energy per Si atom -12390.566805 kJ/mol
# Density = 2.083900 g / cm^3
# Si number density = 20.886534 Si / 1000 Ang^3
#
#
#
# Elastic Constant Matrix: (Units=GPa)
#
#
# Indices 1 2 3 4 5 6 
#
# 1 216.9551 67.4535 63.1353 0.0000 0.0000 0.0000
# 2 67.4535 172.6030 26.2617 0.0000 0.0000 0.0000
# 3 63.1353 26.2617 99.4374 0.0000 0.0000 0.0000
# 4 0.0000 0.0000 0.0000 -123.1449 0.0000 0.0000
# 5 0.0000 0.0000 0.0000 0.0000 35.6044 0.0000
# 6 0.0000 0.0000 0.0000 0.0000 0.0000 19.0951
#
#
#
# Elastic Compliance Matrix: (Units=1/GPa)
#
#
# Indices 1 2 3 4 5 6 
#
# 1 0.006199 -0.001900 -0.003434 0.000000 0.000000 0.000000
# 2 -0.001900 0.006619 -0.000542 0.000000 0.000000 0.000000
# 3 -0.003434 -0.000542 0.012380 0.000000 0.000000 0.000000
# 4 0.000000 0.000000 0.000000 -0.008121 0.000000 0.000000
# 5 0.000000 0.000000 0.000000 0.000000 0.028086 0.000000
# 6 0.000000 0.000000 0.000000 0.000000 0.000000 0.052369
#
#
# Mechanical properties :
#
#
# Convention : Reuss Voigt Hill
#
# Bulk Modulus (GPa) = 74.37093 89.18849 81.77971
# Shear Modulus (GPa) = 43.94918 8.45392 26.20155
#
# Velocity S-wave (km/s) = 4.59212 2.01403 3.54569
# Velocity P-wave (km/s) = 7.98756 6.94281 7.48344
#
# Compressibility (1/GPa) = 0.01344611
#
# Stress axis : x y z
#
# Youngs Moduli (GPa) = 161.30437 151.08839 80.77457
#
# Poissons Ratio (x) = 0.28710 0.27741
# Poissons Ratio (y) = 0.30651 0.04374
# Poissons Ratio (z) = 0.55397 0.08181
#
# Static dielectric constant tensor:
#      x y z
#    x 4.125900 0.000000 0.000000 
#    y 0.000000 3.869150 0.000000 
#    z 0.000000 0.000000 3.873240 
# 
# 
# High freq. dielectric constant tensor:
#      x y z
#    x 1.843900 0.000000 0.000000 
#    y 0.000000 1.822780 0.000000 
#    z 0.000000 0.000000 1.818900 
# 
# From -- ./inp_files/21404.got.cif
#   From: 2010.03.12/outbox.cif.g09.slc.cpg/sg65_11_cif.got.tgz:21404.got - 2010.04.10 20:52:16.
