data_PCOD8274880
_publ_section_title
;
Structure prediction by ZEFSAII (Michael W. Deem and Ramdas Pophale) SiO2 
 PCOD8274880
Probable space group: C M M M
;
_chemical_formula_sum "Si O2"
_cell_formula_units_Z 80
_cell_length_a 9.335734
_cell_length_b 20.016632
_cell_length_c 25.452849
_cell_angle_alpha 90.000000
_cell_angle_beta 90.000000
_cell_angle_gamma 90.000000
_cell_volume 4756.372669
_symmetry_space_group_name_H-M "C M M M"
_symmetry_group_IT_number 65
_symmetry_cell_setting 'orthorhombic'
loop_
_space_group_symop_operation_xyz
x,y,z
-x,-y,z
x,-y,-z
-x,y,-z
-x,-y,-z
x,y,-z
-x,y,z
x,-y,z
1/2+x,1/2+y,z
1/2-x,1/2-y,z
1/2+x,1/2-y,-z
1/2-x,1/2+y,-z
1/2-x,1/2-y,-z
1/2+x,1/2+y,-z
1/2-x,1/2+y,z
1/2+x,1/2-y,z
loop_
_atom_site_type_symbol
_atom_site_label
_atom_site_fract_x
_atom_site_fract_y
_atom_site_fract_z
Si Si1 0.166755 0.076800 0.100999
Si Si2 0.171392 0.074593 0.387284
Si Si3 0.168168 0.184044 0.694047
Si Si4 0.161570 0.420673 0.000000
Si Si5 0.156375 0.079176 0.500000
Si Si6 0.833713 0.184560 0.186019
O O1 0.256248 0.104790 0.051690
O O2 0.209999 0.120865 0.151214
O O3 0.000000 0.083858 0.086854
O O4 0.205485 0.000000 0.114119
O O5 0.226063 0.123679 0.341830
O O6 0.233713 0.098770 0.444681
O O7 0.000000 0.074310 0.390447
O O8 0.226736 0.000000 0.373736
O O9 0.250000 0.250000 0.675578
O O10 0.206385 0.166303 0.754151
O O11 0.000000 0.195906 0.686480
O O12 0.162229 0.500000 0.000000
O O13 0.000000 0.392209 0.000000
O O14 0.000000 0.113426 0.500000
O O15 0.137983 0.000000 0.500000
O O16 0.750000 0.250000 0.166536
O O17 0.000000 0.201353 0.180244
#
# Coordination Sequence:
#
# PCOD8274880 Si02
#       6
#    16  16  16   8   8  16
#     4   9  17  30  48  68  89 113 142 177 215 253
#     4   8  13  22  39  62  85 110 143 182 218 252
#     4   9  17  29  44  62  86 115 144 176 216 259
#     4   9  17  29  46  69  94 117 141 171 210 255
#     4   7  10  18  33  56  85 111 136 173 220 258
#     4   9  18  31  46  64  87 116 146 176 214 258
#
# _framework density 16.81954
#
# number of rings (size 3 to 8) (size 9 to 14) (size 15 to 20)
#    0.000    3.400    0.000    1.500    0.000    2.800 
#    0.000    5.000    0.000    0.600    0.000    5.600 
#    0.000    2.400    0.000    0.000    0.000    0.000 
#
# Total GULP energy -495704.013995 kJ/mol
# GULP energy per Si atom -12392.600350 kJ/mol
# Density = 1.678126 g / cm^3
# Si number density = 16.819540 Si / 1000 Ang^3
#
#
#
# Elastic Constant Matrix: (Units=GPa)
#
#
# Indices 1 2 3 4 5 6 
#
# 1 35.3625 33.3888 39.4213 0.0000 0.0000 0.0000
# 2 33.3888 103.9309 84.2539 0.0000 0.0000 0.0000
# 3 39.4213 84.2539 134.1009 0.0000 0.0000 0.0000
# 4 0.0000 0.0000 0.0000 14.9397 0.0000 0.0000
# 5 0.0000 0.0000 0.0000 0.0000 12.2345 0.0000
# 6 0.0000 0.0000 0.0000 0.0000 0.0000 21.4626
#
#
#
# Elastic Compliance Matrix: (Units=1/GPa)
#
#
# Indices 1 2 3 4 5 6 
#
# 1 0.044810 -0.007575 -0.008413 0.000000 0.000000 0.000000
# 2 -0.007575 0.020890 -0.010898 0.000000 0.000000 0.000000
# 3 -0.008413 -0.010898 0.016777 0.000000 0.000000 0.000000
# 4 0.000000 0.000000 0.000000 0.066936 0.000000 0.000000
# 5 0.000000 0.000000 0.000000 0.000000 0.081736 0.000000
# 6 0.000000 0.000000 0.000000 0.000000 0.000000 0.046593
#
#
# Mechanical properties :
#
#
# Convention : Reuss Voigt Hill
#
# Bulk Modulus (GPa) = 34.83796 65.28024 50.05910
# Shear Modulus (GPa) = 14.65916 17.48272 16.07094
#
# Velocity S-wave (km/s) = 2.95541 3.22752 3.09446
# Velocity P-wave (km/s) = 5.69243 7.26537 6.52646
#
# Compressibility (1/GPa) = 0.02870432
#
# Stress axis : x y z
#
# Youngs Moduli (GPa) = 22.31649 47.86917 59.60365
#
# Poissons Ratio (x) = 0.36262 0.50146
# Poissons Ratio (y) = 0.16905 0.64957
# Poissons Ratio (z) = 0.18775 0.52169
#
# Static dielectric constant tensor:
#      x y z
#    x 2.873110 0.000000 0.000000 
#    y 0.000000 3.051690 0.000000 
#    z 0.000000 0.000000 3.475200 
# 
# 
# High freq. dielectric constant tensor:
#      x y z
#    x 1.611640 0.000000 0.000000 
#    y 0.000000 1.626400 0.000000 
#    z 0.000000 0.000000 1.661330 
# 
# From -- ./inp_files/67283.got.cif
#   From: 2010.03.12/outbox.cif.g09.slc.cpg/sg65_34_cif.got.tgz:67283.got - 2010.04.10 20:52:16.
