data_PCOD8274086
_publ_section_title
;
Structure prediction by ZEFSAII (Michael W. Deem and Ramdas Pophale) SiO2 
 PCOD8274086
Probable space group: C M M M
;
_chemical_formula_sum "Si O2"
_cell_formula_units_Z 72
_cell_length_a 9.844251
_cell_length_b 15.045367
_cell_length_c 22.825609
_cell_angle_alpha 90.000000
_cell_angle_beta 90.000000
_cell_angle_gamma 90.000000
_cell_volume 3380.709375
_symmetry_space_group_name_H-M "C M M M"
_symmetry_group_IT_number 65
_symmetry_cell_setting 'orthorhombic'
loop_
_space_group_symop_operation_xyz
x,y,z
-x,-y,z
x,-y,-z
-x,y,-z
-x,-y,-z
x,y,-z
-x,y,z
x,-y,z
1/2+x,1/2+y,z
1/2-x,1/2-y,z
1/2+x,1/2-y,-z
1/2-x,1/2+y,-z
1/2-x,1/2-y,-z
1/2+x,1/2+y,-z
1/2-x,1/2+y,z
1/2+x,1/2-y,z
loop_
_atom_site_type_symbol
_atom_site_label
_atom_site_fract_x
_atom_site_fract_y
_atom_site_fract_z
Si Si1 0.500000 0.268834 0.225173
Si Si2 0.250000 0.250000 0.302712
Si Si3 0.000000 0.597877 0.846847
Si Si4 0.500000 0.404395 0.880256
Si Si5 0.731977 0.146939 0.066006
Si Si6 0.845244 0.895136 0.500000
Si Si7 0.342799 0.896525 0.392587
O O1 0.367418 0.291776 0.262722
O O2 0.500000 0.165454 0.207263
O O3 0.500000 0.327038 0.167106
O O4 0.311671 0.167851 0.338700
O O5 0.129863 0.607499 0.887422
O O6 0.000000 0.500000 0.818264
O O7 0.500000 0.500000 0.847818
O O8 0.374452 0.399779 0.924127
O O9 0.750000 0.250000 0.078384
O O10 0.680034 0.128847 0.000000
O O11 0.759635 0.864212 0.556423
O O12 0.000000 0.855032 0.500000
O O13 0.855925 0.000000 0.500000
O O14 0.500000 0.884897 0.412508
O O15 0.315908 0.000000 0.375865
#
# Coordination Sequence:
#
# PCOD8274086 Si02
#       7
#     8   8   8   8  16   8  16
#     4  12  26  46  63  89 130 166 224 280 330 372
#     4  12  26  43  68  92 127 172 224 286 322 374
#     4  12  25  43  69  94 125 170 219 268 324 394
#     4  12  25  43  67  94 127 170 213 264 330 394
#     4  11  22  41  68  98 134 168 202 259 331 400
#     4   9  19  36  67 106 144 174 208 266 323 387
#     4  10  22  43  68  99 135 176 219 262 326 392
#
# _framework density 21.297305999999999
#
# number of rings (size 3 to 8) (size 9 to 14) (size 15 to 20)
#    0.000    1.000    3.333    3.000    1.556    8.000 
#    0.000    0.000    0.000    0.000    0.000    0.000 
#    0.000    0.000    0.000    0.000    0.000    0.000 
#
# Total GULP energy -446459.854061 kJ/mol
# GULP energy per Si atom -12401.662613 kJ/mol
# Density = 2.124883 g / cm^3
# Si number density = 21.297306 Si / 1000 Ang^3
#
#
#
# Elastic Constant Matrix: (Units=GPa)
#
#
# Indices 1 2 3 4 5 6 
#
# 1 146.0999 17.1738 24.9244 0.0000 0.0000 0.0000
# 2 17.1738 104.5991 31.8774 0.0000 0.0000 0.0000
# 3 24.9244 31.8774 64.8058 0.0000 0.0000 0.0000
# 4 0.0000 0.0000 0.0000 13.7010 0.0000 0.0000
# 5 0.0000 0.0000 0.0000 0.0000 58.7536 0.0000
# 6 0.0000 0.0000 0.0000 0.0000 0.0000-2279.4500
#
#
#
# Elastic Compliance Matrix: (Units=1/GPa)
#
#
# Indices 1 2 3 4 5 6 
#
# 1 0.007340 -0.000406 -0.002623 0.000000 0.000000 0.000000
# 2 -0.000406 0.011269 -0.005387 0.000000 0.000000 0.000000
# 3 -0.002623 -0.005387 0.019089 0.000000 0.000000 0.000000
# 4 0.000000 0.000000 0.000000 0.072987 0.000000 0.000000
# 5 0.000000 0.000000 0.000000 0.000000 0.017020 0.000000
# 6 0.000000 0.000000 0.000000 0.000000 0.000000 -0.000439
#
#
# Mechanical properties :
#
#
# Convention : Reuss Voigt Hill
#
# Bulk Modulus (GPa) = 47.92475 51.49512 49.70993
# Shear Modulus (GPa) = 33.10078 -425.29713 -196.09818
#
# Velocity S-wave (km/s) = 3.94664 -14.14669 -9.60606
# Velocity P-wave (km/s) = 6.58176 15.57584 9.98216
#
# Compressibility (1/GPa) = 0.02086604
#
# Stress axis : x y z
#
# Youngs Moduli (GPa) = 136.24237 88.74199 52.38492
#
# Poissons Ratio (x) = 0.03599 0.13743
# Poissons Ratio (y) = 0.05526 0.28219
# Poissons Ratio (z) = 0.35742 0.47805
#
# Static dielectric constant tensor:
#      x y z
#    x 4.336730 0.000000 0.000000 
#    y 0.000000 3.927370 0.000000 
#    z 0.000000 0.000000 3.721480 
# 
# 
# High freq. dielectric constant tensor:
#      x y z
#    x 1.854730 0.000000 0.000000 
#    y 0.000000 1.838450 0.000000 
#    z 0.000000 0.000000 1.827590 
# 
# From -- ./inp_files/72674.got.cif
#   From: 2010.03.12/outbox.cif.g09.slc.cpg/sg65_37_cif.got.tgz:72674.got - 2010.04.10 20:52:16.
