data_PCOD8274679
_publ_section_title
;
Structure prediction by ZEFSAII (Michael W. Deem and Ramdas Pophale) SiO2 
 PCOD8274679
Probable space group: C M M M
;
_chemical_formula_sum "Si O2"
_cell_formula_units_Z 80
_cell_length_a 9.304133
_cell_length_b 18.441011
_cell_length_c 25.527791
_cell_angle_alpha 90.000000
_cell_angle_beta 90.000000
_cell_angle_gamma 90.000000
_cell_volume 4379.997598
_symmetry_space_group_name_H-M "C M M M"
_symmetry_group_IT_number 65
_symmetry_cell_setting 'orthorhombic'
loop_
_space_group_symop_operation_xyz
x,y,z
-x,-y,z
x,-y,-z
-x,y,-z
-x,-y,-z
x,y,-z
-x,y,z
x,-y,z
1/2+x,1/2+y,z
1/2-x,1/2-y,z
1/2+x,1/2-y,-z
1/2-x,1/2+y,-z
1/2-x,1/2-y,-z
1/2+x,1/2+y,-z
1/2-x,1/2+y,z
1/2+x,1/2-y,z
loop_
_atom_site_type_symbol
_atom_site_label
_atom_site_fract_x
_atom_site_fract_y
_atom_site_fract_z
Si Si1 0.161468 0.586252 0.442205
Si Si2 0.169485 0.674802 0.857138
Si Si3 0.666312 0.083304 0.755308
Si Si4 0.163855 0.083570 0.939137
Si Si5 0.661542 0.586483 0.344934
O O1 0.215115 0.611310 0.500000
O O2 0.162468 0.500000 0.439382
O O3 0.264490 0.618671 0.397314
O O4 0.000000 0.614654 0.432266
O O5 0.250000 0.750000 0.851370
O O6 0.208615 0.628022 0.806352
O O7 0.225314 0.633271 0.908122
O O8 0.000000 0.687559 0.863068
O O9 0.500000 0.091559 0.740705
O O10 0.755637 0.114622 0.706389
O O11 0.706363 0.000000 0.766784
O O12 0.000000 0.100538 0.922086
O O13 0.200522 0.000000 0.927680
O O14 0.184395 0.101307 0.000000
O O15 0.500000 0.616368 0.342820
O O16 0.665531 0.500000 0.346386
#
# Coordination Sequence:
#
# PCOD8274679 Si02
#       5
#    16  16  16  16  16
#     4   8  13  21  33  50  77 116 156 191 233 287
#     4  11  23  37  54  77 105 137 172 211 255 301
#     4   9  18  33  51  69  92 125 165 206 247 296
#     4   9  19  37  60  84 109 137 169 206 249 297
#     4   9  16  24  37  60  87 116 153 197 244 291
#
# _framework density 18.264849999999999
#
# number of rings (size 3 to 8) (size 9 to 14) (size 15 to 20)
#    0.000    2.800    0.000    3.000    0.000    6.400 
#    0.000    5.000    0.000    0.000    0.000    0.000 
#    0.000    0.800    0.000    2.600    0.000    5.200 
#
# Total GULP energy -495947.902960 kJ/mol
# GULP energy per Si atom -12398.697574 kJ/mol
# Density = 1.822328 g / cm^3
# Si number density = 18.264850 Si / 1000 Ang^3
#
#
#
# Elastic Constant Matrix: (Units=GPa)
#
#
# Indices 1 2 3 4 5 6 
#
# 1 116.6416 45.7907 83.9049 0.0000 0.0000 0.0000
# 2 45.7907 58.5308 51.6119 0.0000 0.0000 0.0000
# 3 83.9049 51.6119 139.5196 0.0000 0.0000 0.0000
# 4 0.0000 0.0000 0.0000 -0.5346 0.0000 0.0000
# 5 0.0000 0.0000 0.0000 0.0000 31.3427 0.0000
# 6 0.0000 0.0000 0.0000 0.0000 0.0000 -2.4546
#
#
#
# Elastic Compliance Matrix: (Units=1/GPa)
#
#
# Indices 1 2 3 4 5 6 
#
# 1 0.016484 -0.006166 -0.007632 0.000000 0.000000 0.000000
# 2 -0.006166 0.027663 -0.006525 0.000000 0.000000 0.000000
# 3 -0.007632 -0.006525 0.014171 0.000000 0.000000 0.000000
# 4 0.000000 0.000000 0.000000 -1.870396 0.000000 0.000000
# 5 0.000000 0.000000 0.000000 0.000000 0.031905 0.000000
# 6 0.000000 0.000000 0.000000 0.000000 0.000000 -0.407397
#
#
# Mechanical properties :
#
#
# Convention : Reuss Voigt Hill
#
# Bulk Modulus (GPa) = 56.58903 75.25631 65.92267
# Shear Modulus (GPa) = -2.33532 14.56298 6.11383
#
# Velocity S-wave (km/s) = -1.13197 2.82675 1.83155
# Velocity P-wave (km/s) = 5.41676 7.20738 6.37525
#
# Compressibility (1/GPa) = 0.01767127
#
# Stress axis : x y z
#
# Youngs Moduli (GPa) = 60.66438 36.14998 70.56579
#
# Poissons Ratio (x) = 0.22290 0.53858
# Poissons Ratio (y) = 0.37406 0.46044
# Poissons Ratio (z) = 0.46301 0.23588
#
# Static dielectric constant tensor:
#      x y z
#    x 3.460170 0.000000 0.000000 
#    y 0.000000 2.922440 0.000000 
#    z 0.000000 0.000000 3.559150 
# 
# 
# High freq. dielectric constant tensor:
#      x y z
#    x 1.711810 0.000000 0.000000 
#    y 0.000000 1.655520 0.000000 
#    z 0.000000 0.000000 1.723370 
# 
# From -- ./inp_files/72751.got.cif
#   From: 2010.03.12/outbox.cif.g09.slc.cpg/sg65_37_cif.got.tgz:72751.got - 2010.04.10 20:52:16.
