data_PCOD8274720
_publ_section_title
;
Structure prediction by ZEFSAII (Michael W. Deem and Ramdas Pophale) SiO2 
 PCOD8274720
Probable space group: C M M M
;
_chemical_formula_sum "Si O2"
_cell_formula_units_Z 48
_cell_length_a 8.792498
_cell_length_b 33.640263
_cell_length_c 7.719585
_cell_angle_alpha 90.000000
_cell_angle_beta 90.000000
_cell_angle_gamma 90.000000
_cell_volume 2283.313867
_symmetry_space_group_name_H-M "C M M M"
_symmetry_group_IT_number 65
_symmetry_cell_setting 'orthorhombic'
loop_
_space_group_symop_operation_xyz
x,y,z
-x,-y,z
x,-y,-z
-x,y,-z
-x,-y,-z
x,y,-z
-x,y,z
x,-y,z
1/2+x,1/2+y,z
1/2-x,1/2-y,z
1/2+x,1/2-y,-z
1/2-x,1/2+y,-z
1/2-x,1/2-y,-z
1/2+x,1/2+y,-z
1/2-x,1/2+y,z
1/2+x,1/2-y,z
loop_
_atom_site_type_symbol
_atom_site_label
_atom_site_fract_x
_atom_site_fract_y
_atom_site_fract_z
Si Si1 0.674864 0.158159 0.804907
Si Si2 0.323703 0.000000 0.203350
Si Si3 0.179275 0.793189 0.500000
Si Si4 0.672012 0.419011 0.301504
O O1 0.500000 0.159193 0.745485
O O2 0.772444 0.184379 0.674186
O O3 0.731676 0.112724 0.806872
O O4 0.693258 0.175052 0.000000
O O5 0.246595 0.038121 0.286794
O O6 0.500000 0.000000 0.252653
O O7 0.296217 0.000000 0.000000
O O8 0.250000 0.750000 0.500000
O O9 0.000000 0.789378 0.500000
O O10 0.673005 0.405099 0.500000
O O11 0.500000 0.420572 0.229715
#
# Coordination Sequence:
#
# PCOD8274720 Si02
#       4
#    16   8   8  16
#     4  11  24  43  69 100 134 174 219 268 324 388
#     4  11  24  39  56  84 122 167 220 274 326 382
#     4  12  26  46  72 101 134 173 214 266 326 388
#     4  11  23  39  61  91 126 168 217 270 326 385
#
# _framework density 21.022078
#
# number of rings (size 3 to 8) (size 9 to 14) (size 15 to 20)
#    0.000    0.833    1.667    5.500    0.000   12.667 
#    0.000    0.000    0.000    0.000    0.000    0.000 
#    0.000    0.000    0.000    0.000    0.000    0.000 
#
# Total GULP energy -297760.510405 kJ/mol
# GULP energy per Si atom -12406.687934 kJ/mol
# Density = 2.097423 g / cm^3
# Si number density = 21.022078 Si / 1000 Ang^3
#
#
#
# Elastic Constant Matrix: (Units=GPa)
#
#
# Indices 1 2 3 4 5 6 
#
# 1 178.9389 57.1003 56.1563 0.0000 0.0000 0.0000
# 2 57.1003 134.9554 38.2733 0.0000 0.0000 0.0000
# 3 56.1563 38.2733 99.6949 0.0000 0.0000 0.0000
# 4 0.0000 0.0000 0.0000 14.9605 0.0000 0.0000
# 5 0.0000 0.0000 0.0000 0.0000 20.6931 0.0000
# 6 0.0000 0.0000 0.0000 0.0000 0.0000 36.3352
#
#
#
# Elastic Compliance Matrix: (Units=1/GPa)
#
#
# Indices 1 2 3 4 5 6 
#
# 1 0.007310 -0.002160 -0.003288 0.000000 0.000000 0.000000
# 2 -0.002160 0.008954 -0.002220 0.000000 0.000000 0.000000
# 3 -0.003288 -0.002220 0.012735 0.000000 0.000000 0.000000
# 4 0.000000 0.000000 0.000000 0.066843 0.000000 0.000000
# 5 0.000000 0.000000 0.000000 0.000000 0.048325 0.000000
# 6 0.000000 0.000000 0.000000 0.000000 0.000000 0.027522
#
#
# Mechanical properties :
#
#
# Convention : Reuss Voigt Hill
#
# Bulk Modulus (GPa) = 73.20214 79.62766 76.41490
# Shear Modulus (GPa) = 26.09882 31.86837 28.98360
#
# Velocity S-wave (km/s) = 3.52731 3.89774 3.71714
# Velocity P-wave (km/s) = 7.17540 7.63000 7.40619
#
# Compressibility (1/GPa) = 0.01366080
#
# Stress axis : x y z
#
# Youngs Moduli (GPa) = 136.80329 111.68676 78.52258
#
# Poissons Ratio (x) = 0.24128 0.25819
# Poissons Ratio (y) = 0.29553 0.17436
# Poissons Ratio (z) = 0.44982 0.24800
#
# Static dielectric constant tensor:
#      x y z
#    x 3.995340 0.000000 0.000000 
#    y 0.000000 3.630250 0.000000 
#    z 0.000000 0.000000 3.856500 
# 
# 
# High freq. dielectric constant tensor:
#      x y z
#    x 1.841930 0.000000 0.000000 
#    y 0.000000 1.823510 0.000000 
#    z 0.000000 0.000000 1.835530 
# 
# From -- ./inp_files/3108.got.cif
#   From: 2010.03.12/outbox.cif.g09.slc.cpg/sg65_2_cif.got.tgz:3108.got - 2010.04.10 20:52:16.
