data_PCOD8274145
_publ_section_title
;
Structure prediction by ZEFSAII (Michael W. Deem and Ramdas Pophale) SiO2 
 PCOD8274145
Probable space group: C M M M
;
_chemical_formula_sum "Si O2"
_cell_formula_units_Z 72
_cell_length_a 8.860649
_cell_length_b 15.525758
_cell_length_c 26.138925
_cell_angle_alpha 90.000000
_cell_angle_beta 90.000000
_cell_angle_gamma 90.000000
_cell_volume 3595.887270
_symmetry_space_group_name_H-M "C M M M"
_symmetry_group_IT_number 65
_symmetry_cell_setting 'orthorhombic'
loop_
_space_group_symop_operation_xyz
x,y,z
-x,-y,z
x,-y,-z
-x,y,-z
-x,-y,-z
x,y,-z
-x,y,z
x,-y,z
1/2+x,1/2+y,z
1/2-x,1/2-y,z
1/2+x,1/2-y,-z
1/2-x,1/2+y,-z
1/2-x,1/2-y,-z
1/2+x,1/2+y,-z
1/2-x,1/2+y,z
1/2+x,1/2-y,z
loop_
_atom_site_type_symbol
_atom_site_label
_atom_site_fract_x
_atom_site_fract_y
_atom_site_fract_z
Si Si1 0.177477 0.836623 0.655592
Si Si2 0.323996 0.000000 0.172537
Si Si3 0.678672 0.837776 0.103589
Si Si4 0.674127 0.899778 0.557615
Si Si5 0.178816 0.000000 0.282065
Si Si6 0.321381 0.400130 0.000000
O O1 0.250000 0.750000 0.678337
O O2 0.221864 0.846751 0.596223
O O3 0.241990 0.916014 0.688741
O O4 0.000000 0.829389 0.660253
O O5 0.277066 0.915609 0.140957
O O6 0.500000 0.000000 0.185401
O O7 0.231592 0.000000 0.224272
O O8 0.500000 0.828691 0.097899
O O9 0.750000 0.750000 0.126358
O O10 0.751061 0.854236 0.048737
O O11 0.710794 0.869032 0.500000
O O12 0.500000 0.882155 0.570961
O O13 0.712336 0.000000 0.563192
O O14 0.000000 0.000000 0.283732
O O15 0.275241 0.500000 0.000000
O O16 0.500000 0.387127 0.000000
#
# Coordination Sequence:
#
# PCOD8274145 Si02
#       6
#    16   8  16  16   8   8
#     4  11  23  40  61  89 119 155 199 244 297 356
#     4  10  24  43  65  89 118 158 202 248 304 359
#     4  11  23  41  63  92 127 163 203 248 298 354
#     4   9  18  34  58  88 120 155 194 238 292 353
#     4  10  24  44  64  86 118 153 197 253 304 353
#     4  11  22  37  62  94 126 166 208 245 295 355
#
# _framework density 20.022876
#
# number of rings (size 3 to 8) (size 9 to 14) (size 15 to 20)
#    0.000    1.667    2.222    2.667    0.000    5.778 
#    0.000    5.556    0.000    0.000    0.000    0.000 
#    0.000    0.000    0.000    0.000    0.000    0.000 
#
# Total GULP energy -446559.185573 kJ/mol
# GULP energy per Si atom -12404.421821 kJ/mol
# Density = 1.997730 g / cm^3
# Si number density = 20.022876 Si / 1000 Ang^3
#
#
#
# Elastic Constant Matrix: (Units=GPa)
#
#
# Indices 1 2 3 4 5 6 
#
# 1 67.3438 52.2365 33.5855 0.0000 0.0000 0.0000
# 2 52.2365 168.8120 64.0273 0.0000 0.0000 0.0000
# 3 33.5855 64.0273 113.6966 0.0000 0.0000 0.0000
# 4 0.0000 0.0000 0.0000 10.0605 0.0000 0.0000
# 5 0.0000 0.0000 0.0000 0.0000 37.5401 0.0000
# 6 0.0000 0.0000 0.0000 0.0000 0.0000 33.8866
#
#
#
# Elastic Compliance Matrix: (Units=1/GPa)
#
#
# Indices 1 2 3 4 5 6 
#
# 1 0.020384 -0.005117 -0.003140 0.000000 0.000000 0.000000
# 2 -0.005117 0.008817 -0.003454 0.000000 0.000000 0.000000
# 3 -0.003140 -0.003454 0.011668 0.000000 0.000000 0.000000
# 4 0.000000 0.000000 0.000000 0.099399 0.000000 0.000000
# 5 0.000000 0.000000 0.000000 0.000000 0.026638 0.000000
# 6 0.000000 0.000000 0.000000 0.000000 0.000000 0.029510
#
#
# Mechanical properties :
#
#
# Convention : Reuss Voigt Hill
#
# Bulk Modulus (GPa) = 57.31298 72.17234 64.74266
# Shear Modulus (GPa) = 22.15797 29.63097 25.89447
#
# Velocity S-wave (km/s) = 3.33022 3.85106 3.60007
# Velocity P-wave (km/s) = 6.59341 7.47646 7.04878
#
# Compressibility (1/GPa) = 0.01744805
#
# Stress axis : x y z
#
# Youngs Moduli (GPa) = 49.05826 113.41773 85.70570
#
# Poissons Ratio (x) = 0.58031 0.26911
# Poissons Ratio (y) = 0.25101 0.29601
# Poissons Ratio (z) = 0.15404 0.39172
#
# Static dielectric constant tensor:
#      x y z
#    x 3.531250 0.000000 0.000000 
#    y 0.000000 3.985830 0.000000 
#    z 0.000000 0.000000 3.537780 
# 
# 
# High freq. dielectric constant tensor:
#      x y z
#    x 1.779500 0.000000 0.000000 
#    y 0.000000 1.797310 0.000000 
#    z 0.000000 0.000000 1.775620 
# 
# From -- ./inp_files/72569.got.cif
#   From: 2010.03.12/outbox.cif.g09.slc.cpg/sg65_37_cif.got.tgz:72569.got - 2010.04.10 20:52:16.
