data_PCOD8274892
_publ_section_title
;
Structure prediction by ZEFSAII (Michael W. Deem and Ramdas Pophale) SiO2 
 PCOD8274892
Probable space group: C M M M
;
_chemical_formula_sum "Si O2"
_cell_formula_units_Z 88
_cell_length_a 26.008849
_cell_length_b 27.730096
_cell_length_c 9.507241
_cell_angle_alpha 90.000000
_cell_angle_beta 90.000000
_cell_angle_gamma 90.000000
_cell_volume 6856.887267
_symmetry_space_group_name_H-M "C M M M"
_symmetry_group_IT_number 65
_symmetry_cell_setting 'orthorhombic'
loop_
_space_group_symop_operation_xyz
x,y,z
-x,-y,z
x,-y,-z
-x,y,-z
-x,-y,-z
x,y,-z
-x,y,z
x,-y,z
1/2+x,1/2+y,z
1/2-x,1/2-y,z
1/2+x,1/2-y,-z
1/2-x,1/2+y,-z
1/2-x,1/2-y,-z
1/2+x,1/2+y,-z
1/2-x,1/2+y,z
1/2+x,1/2-y,z
loop_
_atom_site_type_symbol
_atom_site_label
_atom_site_fract_x
_atom_site_fract_y
_atom_site_fract_z
Si Si1 0.000000 0.054878 0.332110
Si Si2 0.652696 0.698046 0.656972
Si Si3 0.761620 0.645534 0.657243
Si Si4 0.195374 0.276275 0.841483
Si Si5 0.103760 0.102046 0.332751
Si Si6 0.206155 0.053401 0.332429
O O1 0.949818 0.082106 0.271339
O O2 0.000000 0.056024 0.500000
O O3 0.000000 0.000000 0.277644
O O4 0.638646 0.716520 0.500000
O O5 0.707945 0.673199 0.651561
O O6 0.653143 0.743217 0.762930
O O7 0.611478 0.658201 0.710543
O O8 0.785613 0.644785 0.500000
O O9 0.800729 0.672413 0.761994
O O10 0.750631 0.591181 0.714009
O O11 0.250000 0.250000 0.840507
O O12 0.176415 0.285594 0.000000
O O13 0.104051 0.098248 0.500000
O O14 0.150555 0.069663 0.272195
O O15 0.203202 0.053740 0.500000
O O16 0.219461 0.000000 0.274710
#
# Coordination Sequence:
#
# PCOD8274892 Si02
#       6
#     8  16  16  16  16  16
#     4   9  14  18  26  42  65  87 103 127 166 201
#     4   8  13  21  31  42  58  78  97 118 148 186
#     4   8  13  20  30  43  58  77  98 119 146 179
#     4   9  15  21  30  44  59  73  91 118 151 184
#     4   8  13  19  27  41  60  81 103 128 160 193
#     4   8  12  18  28  41  57  78 105 132 153 178
#
# _framework density 12.833811000000001
#
# number of rings (size 3 to 8) (size 9 to 14) (size 15 to 20)
#    0.000    3.727    0.000    3.273    0.000    4.364 
#    0.000    0.000    0.000    0.545    0.000    0.636 
#    0.000    2.909    0.000    0.000    0.000    0.364 
#
# Total GULP energy -545147.332205 kJ/mol
# GULP energy per Si atom -12389.712096 kJ/mol
# Density = 1.280460 g / cm^3
# Si number density = 12.833811 Si / 1000 Ang^3
#
#
#
# Elastic Constant Matrix: (Units=GPa)
#
#
# Indices 1 2 3 4 5 6 
#
# 1 32.5916 45.4143 18.7007 0.0000 0.0000 0.0000
# 2 45.4143 117.5249 42.2551 0.0000 0.0000 0.0000
# 3 18.7007 42.2551 49.6842 0.0000 0.0000 0.0000
# 4 0.0000 0.0000 0.0000 3.7648 0.0000 0.0000
# 5 0.0000 0.0000 0.0000 0.0000 3.5358 0.0000
# 6 0.0000 0.0000 0.0000 0.0000 0.0000 21.7117
#
#
#
# Elastic Compliance Matrix: (Units=1/GPa)
#
#
# Indices 1 2 3 4 5 6 
#
# 1 0.067207 -0.024308 -0.004622 0.000000 0.000000 0.000000
# 2 -0.024308 0.021049 -0.008752 0.000000 0.000000 0.000000
# 3 -0.004622 -0.008752 0.029310 0.000000 0.000000 0.000000
# 4 0.000000 0.000000 0.000000 0.265620 0.000000 0.000000
# 5 0.000000 0.000000 0.000000 0.000000 0.282824 0.000000
# 6 0.000000 0.000000 0.000000 0.000000 0.000000 0.046058
#
#
# Mechanical properties :
#
#
# Convention : Reuss Voigt Hill
#
# Bulk Modulus (GPa) = 23.69638 45.83788 34.76713
# Shear Modulus (GPa) = 6.23829 12.03116 9.13473
#
# Velocity S-wave (km/s) = 2.20712 3.06512 2.67080
# Velocity P-wave (km/s) = 4.99993 6.95130 6.05475
#
# Compressibility (1/GPa) = 0.04220054
#
# Stress axis : x y z
#
# Youngs Moduli (GPa) = 14.87937 47.50846 34.11762
#
# Poissons Ratio (x) = 1.15485 0.15771
# Poissons Ratio (y) = 0.36169 0.29860
# Poissons Ratio (z) = 0.06878 0.41580
#
# Static dielectric constant tensor:
#      x y z
#    x 2.345920 0.000000 0.000000 
#    y 0.000000 2.890360 0.000000 
#    z 0.000000 0.000000 2.400450 
# 
# 
# High freq. dielectric constant tensor:
#      x y z
#    x 1.427380 0.000000 0.000000 
#    y 0.000000 1.488130 0.000000 
#    z 0.000000 0.000000 1.454240 
# 
# From -- ./inp_files/16924.got.cif
#   From: 2010.03.12/outbox.cif.g09.slc.cpg/sg65_9_cif.got.tgz:16924.got - 2010.04.10 20:52:16.
