data_PCOD8274253
_publ_section_title
;
Structure prediction by ZEFSAII (Michael W. Deem and Ramdas Pophale) SiO2 
 PCOD8274253
Probable space group: C M M M
;
_chemical_formula_sum "Si O2"
_cell_formula_units_Z 120
_cell_length_a 15.021856
_cell_length_b 18.148572
_cell_length_c 23.918323
_cell_angle_alpha 90.000000
_cell_angle_beta 90.000000
_cell_angle_gamma 90.000000
_cell_volume 6520.738433
_symmetry_space_group_name_H-M "C M M M"
_symmetry_group_IT_number 65
_symmetry_cell_setting 'orthorhombic'
loop_
_space_group_symop_operation_xyz
x,y,z
-x,-y,z
x,-y,-z
-x,y,-z
-x,-y,-z
x,y,-z
-x,y,z
x,-y,z
1/2+x,1/2+y,z
1/2-x,1/2-y,z
1/2+x,1/2-y,-z
1/2-x,1/2+y,-z
1/2-x,1/2-y,-z
1/2+x,1/2+y,-z
1/2-x,1/2+y,z
1/2+x,1/2-y,z
loop_
_atom_site_type_symbol
_atom_site_label
_atom_site_fract_x
_atom_site_fract_y
_atom_site_fract_z
Si Si1 0.310167 0.412244 0.438329
Si Si2 0.396988 0.816830 0.129864
Si Si3 0.000000 0.920494 0.565578
Si Si4 0.236319 0.415005 0.675673
Si Si5 0.601005 0.646483 0.130245
Si Si6 0.239584 0.415509 0.935674
Si Si7 0.602848 0.183817 0.257527
Si Si8 0.898617 0.146243 0.739812
O O1 0.278895 0.383545 0.500000
O O2 0.322251 0.500000 0.440684
O O3 0.407302 0.377836 0.420577
O O4 0.240689 0.390999 0.389837
O O5 0.500000 0.833672 0.117445
O O6 0.375430 0.731542 0.118849
O O7 0.337987 0.865899 0.089594
O O8 0.373184 0.836240 0.193779
O O9 0.000000 0.934371 0.500000
O O10 0.000000 0.000000 0.596611
O O11 0.209496 0.500000 0.681790
O O12 0.159777 0.366706 0.702273
O O13 0.332020 0.403718 0.704471
O O14 0.500000 0.629747 0.111466
O O15 0.666372 0.596097 0.094582
O O16 0.612796 0.626988 0.195173
O O17 0.210748 0.500000 0.928535
O O18 0.251495 0.393641 0.000000
O O19 0.500000 0.167738 0.269388
O O20 0.625689 0.268480 0.269856
O O21 0.000000 0.129939 0.720520
#
# Coordination Sequence:
#
# PCOD8274253 Si02
#       8
#    16  16   8  16  16  16  16  16
#     4   8  15  27  42  64  98 137 171 204 248 299
#     4   9  19  37  60  79  95 126 175 222 255 290
#     4   7  10  20  38  56  82 126 166 192 228 284
#     4  11  21  29  48  81 108 130 163 214 261 299
#     4   9  19  37  58  77  98 131 176 214 243 289
#     4  11  24  37  50  75 110 141 166 199 253 314
#     4   9  19  37  56  73  99 137 175 206 247 306
#     4   9  19  35  54  76 104 136 165 201 255 312
#
# _framework density 18.402823999999999
#
# number of rings (size 3 to 8) (size 9 to 14) (size 15 to 20)
#    0.000    2.733    0.000    4.000    0.933    6.933 
#    0.000    5.333    0.000    2.000    0.000    3.733 
#    0.000    0.000    0.000    0.000    0.000    0.000 
#
# Total GULP energy -743726.930843 kJ/mol
# GULP energy per Si atom -12395.448847 kJ/mol
# Density = 1.836094 g / cm^3
# Si number density = 18.402824 Si / 1000 Ang^3
#
#
#
# Elastic Constant Matrix: (Units=GPa)
#
#
# Indices 1 2 3 4 5 6 
#
# 1 56.0480 15.8552 32.7501 0.0000 0.0000 0.0000
# 2 15.8552 32.5024 25.6685 0.0000 0.0000 0.0000
# 3 32.7501 25.6685 85.0797 0.0000 0.0000 0.0000
# 4 0.0000 0.0000 0.0000 -38.4305 0.0000 0.0000
# 5 0.0000 0.0000 0.0000 0.0000 16.8846 0.0000
# 6 0.0000 0.0000 0.0000 0.0000 0.0000 19.9103
#
#
#
# Elastic Compliance Matrix: (Units=1/GPa)
#
#
# Indices 1 2 3 4 5 6 
#
# 1 0.023810 -0.005746 -0.007432 0.000000 0.000000 0.000000
# 2 -0.005746 0.041777 -0.010392 0.000000 0.000000 0.000000
# 3 -0.007432 -0.010392 0.017750 0.000000 0.000000 0.000000
# 4 0.000000 0.000000 0.000000 -0.026021 0.000000 0.000000
# 5 0.000000 0.000000 0.000000 0.000000 0.059225 0.000000
# 6 0.000000 0.000000 0.000000 0.000000 0.000000 0.050225
#
#
# Mechanical properties :
#
#
# Convention : Reuss Voigt Hill
#
# Bulk Modulus (GPa) = 27.62658 35.79753 31.71205
# Shear Modulus (GPa) = 22.12668 6.29664 14.21166
#
# Velocity S-wave (km/s) = 3.47126 1.85175 2.78196
# Velocity P-wave (km/s) = 5.57771 4.90575 5.25249
#
# Compressibility (1/GPa) = 0.03619703
#
# Stress axis : x y z
#
# Youngs Moduli (GPa) = 41.99964 23.93657 56.33866
#
# Poissons Ratio (x) = 0.13753 0.41869
# Poissons Ratio (y) = 0.24131 0.58550
# Poissons Ratio (z) = 0.31213 0.24876
#
# Static dielectric constant tensor:
#      x y z
#    x 3.415600 0.000000 0.000000 
#    y 0.000000 3.092410 0.000000 
#    z 0.000000 0.000000 3.453850 
# 
# 
# High freq. dielectric constant tensor:
#      x y z
#    x 1.714950 0.000000 0.000000 
#    y 0.000000 1.686140 0.000000 
#    z 0.000000 0.000000 1.713700 
# 
# From -- ./inp_files/63075.got.cif
#   From: 2010.03.12/outbox.cif.g09.slc.cpg/sg65_32_cif.got.tgz:63075.got - 2010.04.10 20:52:16.
