data_PCOD8274915
_publ_section_title
;
Structure prediction by ZEFSAII (Michael W. Deem and Ramdas Pophale) SiO2 
 PCOD8274915
Probable space group: C M M M
;
_chemical_formula_sum "Si O2"
_cell_formula_units_Z 104
_cell_length_a 30.026943
_cell_length_b 9.412222
_cell_length_c 28.196836
_cell_angle_alpha 90.000000
_cell_angle_beta 90.000000
_cell_angle_gamma 90.000000
_cell_volume 7968.996938
_symmetry_space_group_name_H-M "C M M M"
_symmetry_group_IT_number 65
_symmetry_cell_setting 'orthorhombic'
loop_
_space_group_symop_operation_xyz
x,y,z
-x,-y,z
x,-y,-z
-x,y,-z
-x,-y,-z
x,y,-z
-x,y,z
x,-y,z
1/2+x,1/2+y,z
1/2-x,1/2-y,z
1/2+x,1/2-y,-z
1/2-x,1/2+y,-z
1/2-x,1/2-y,-z
1/2+x,1/2+y,-z
1/2-x,1/2+y,z
1/2+x,1/2-y,z
loop_
_atom_site_type_symbol
_atom_site_label
_atom_site_fract_x
_atom_site_fract_y
_atom_site_fract_z
Si Si1 0.550902 0.335961 0.131043
Si Si2 0.947028 0.159575 0.692045
Si Si3 0.446769 0.840438 0.500000
Si Si4 0.376728 0.663745 0.054436
Si Si5 0.291667 0.160977 0.056425
Si Si6 0.053059 0.340145 0.778930
Si Si7 0.447066 0.340634 0.587126
O O1 0.500000 0.296330 0.118833
O O2 0.555045 0.500000 0.146003
O O3 0.579489 0.300623 0.084596
O O4 0.569494 0.243645 0.174671
O O5 0.927224 0.264667 0.731854
O O6 0.931484 0.210269 0.639556
O O7 0.000000 0.160174 0.694526
O O8 0.929632 0.000000 0.701883
O O9 0.500000 0.837786 0.500000
O O10 0.427616 0.763289 0.453072
O O11 0.428368 0.000000 0.500000
O O12 0.361993 0.500000 0.060275
O O13 0.336729 0.761940 0.073244
O O14 0.388537 0.698014 0.000000
O O15 0.250000 0.250000 0.076994
O O16 0.290476 0.000000 0.076351
O O17 0.289341 0.159465 0.000000
O O18 0.071741 0.500000 0.780833
O O19 0.000000 0.338791 0.777105
O O20 0.500000 0.340013 0.584820
O O21 0.429633 0.500000 0.577229
#
# Coordination Sequence:
#
# PCOD8274915 Si02
#       7
#    16  16   8  16  16  16  16
#     4   9  17  28  40  52  68  92 118 142 169 202
#     4   8  13  21  32  43  53  67  90 120 153 189
#     4   9  15  19  23  33  49  67  85 107 137 175
#     4   9  17  28  41  57  75  93 115 142 169 199
#     4   9  16  26  41  59  77  95 113 134 162 196
#     4   9  16  24  34  47  61  77  99 130 165 197
#     4   8  13  20  28  36  47  65  87 110 139 179
#
# _framework density 13.050575
#
# number of rings (size 3 to 8) (size 9 to 14) (size 15 to 20)
#    0.000    3.308    0.000    2.077    0.000    6.154 
#    0.000    4.615    0.000    0.000    0.000    4.308 
#    0.000    0.000    0.000    0.000    0.000    0.000 
#
# Total GULP energy -644512.871259 kJ/mol
# GULP energy per Si atom -12394.478293 kJ/mol
# Density = 1.302087 g / cm^3
# Si number density = 13.050575 Si / 1000 Ang^3
#
#
#
# Elastic Constant Matrix: (Units=GPa)
#
#
# Indices 1 2 3 4 5 6 
#
# 1 36.3489 30.3988 28.5868 0.0000 0.0000 0.0000
# 2 30.3988 96.9926 58.6956 0.0000 0.0000 0.0000
# 3 28.5868 58.6956 94.0276 0.0000 0.0000 0.0000
# 4 0.0000 0.0000 0.0000 15.3576 0.0000 0.0000
# 5 0.0000 0.0000 0.0000 0.0000 0.5447 0.0000
# 6 0.0000 0.0000 0.0000 0.0000 0.0000 11.9384
#
#
#
# Elastic Compliance Matrix: (Units=1/GPa)
#
#
# Indices 1 2 3 4 5 6 
#
# 1 0.039926 -0.008305 -0.006954 0.000000 0.000000 0.000000
# 2 -0.008305 0.018297 -0.008897 0.000000 0.000000 0.000000
# 3 -0.006954 -0.008897 0.018303 0.000000 0.000000 0.000000
# 4 0.000000 0.000000 0.000000 0.065115 0.000000 0.000000
# 5 0.000000 0.000000 0.000000 0.000000 1.835984 0.000000
# 6 0.000000 0.000000 0.000000 0.000000 0.000000 0.083763
#
#
# Mechanical properties :
#
#
# Convention : Reuss Voigt Hill
#
# Bulk Modulus (GPa) = 35.44329 51.41461 43.42895
# Shear Modulus (GPa) = 2.35949 12.88066 7.62007
#
# Velocity S-wave (km/s) = 1.34606 3.14503 2.41900
# Velocity P-wave (km/s) = 5.44364 7.25743 6.41496
#
# Compressibility (1/GPa) = 0.02821408
#
# Stress axis : x y z
#
# Youngs Moduli (GPa) = 25.04651 54.65430 54.63566
#
# Poissons Ratio (x) = 0.45390 0.37995
# Poissons Ratio (y) = 0.20801 0.48608
# Poissons Ratio (z) = 0.17418 0.48624
#
# Static dielectric constant tensor:
#      x y z
#    x 2.137400 0.000000 0.000000 
#    y 0.000000 2.834910 0.000000 
#    z 0.000000 0.000000 2.715130 
# 
# 
# High freq. dielectric constant tensor:
#      x y z
#    x 1.421550 0.000000 0.000000 
#    y 0.000000 1.507690 0.000000 
#    z 0.000000 0.000000 1.490100 
# 
# From -- ./inp_files/78351.got.cif
#   From: 2010.03.12/outbox.cif.g09.slc.cpg/sg65_40_cif.got.tgz:78351.got - 2010.04.10 20:52:16.
