data_PCOD8274903
_publ_section_title
;
Structure prediction by ZEFSAII (Michael W. Deem and Ramdas Pophale) SiO2 
 PCOD8274903
Probable space group: C M M M
;
_chemical_formula_sum "Si O2"
_cell_formula_units_Z 112
_cell_length_a 27.556057
_cell_length_b 9.590321
_cell_length_c 29.326975
_cell_angle_alpha 90.000000
_cell_angle_beta 90.000000
_cell_angle_gamma 90.000000
_cell_volume 7750.281683
_symmetry_space_group_name_H-M "C M M M"
_symmetry_group_IT_number 65
_symmetry_cell_setting 'orthorhombic'
loop_
_space_group_symop_operation_xyz
x,y,z
-x,-y,z
x,-y,-z
-x,y,-z
-x,-y,-z
x,y,-z
-x,y,z
x,-y,z
1/2+x,1/2+y,z
1/2-x,1/2-y,z
1/2+x,1/2-y,-z
1/2-x,1/2+y,-z
1/2-x,1/2-y,-z
1/2+x,1/2+y,-z
1/2-x,1/2+y,z
1/2+x,1/2-y,z
loop_
_atom_site_type_symbol
_atom_site_label
_atom_site_fract_x
_atom_site_fract_y
_atom_site_fract_z
Si Si1 0.443282 0.837187 0.866249
Si Si2 0.605107 0.835941 0.224944
Si Si3 0.297533 0.164031 0.272997
Si Si4 0.297977 0.838080 0.550883
Si Si5 0.646509 0.835104 0.362071
Si Si6 0.557627 0.656441 0.949727
Si Si7 0.553453 0.166579 0.314321
O O1 0.500000 0.806030 0.857629
O O2 0.412758 0.775808 0.823499
O O3 0.422583 0.760340 0.911084
O O4 0.434034 0.000000 0.873711
O O5 0.661252 0.799849 0.235415
O O6 0.570757 0.776522 0.265109
O O7 0.597650 0.000000 0.223889
O O8 0.250000 0.250000 0.259596
O O9 0.316142 0.214393 0.322835
O O10 0.285454 0.000000 0.272903
O O11 0.319307 0.814527 0.500000
O O12 0.250000 0.750000 0.558207
O O13 0.336956 0.783956 0.587917
O O14 0.285040 0.000000 0.558856
O O15 0.592086 0.778615 0.352103
O O16 0.644745 0.000000 0.359793
O O17 0.500000 0.660717 0.949747
O O18 0.575786 0.500000 0.938938
O O19 0.576498 0.702916 0.000000
O O20 0.500000 0.226464 0.325662
O O21 0.552523 0.000000 0.313810
#
# Coordination Sequence:
#
# PCOD8274903 Si02
#       7
#    16  16  16  16  16  16  16
#     4   9  15  22  35  54  73  93 119 150 179 207
#     4   8  14  23  34  51  74  96 117 146 183 213
#     4   9  16  26  39  53  72  96 120 147 178 214
#     4   9  16  25  37  53  74  97 119 147 184 222
#     4   8  14  23  35  52  72  95 121 148 180 214
#     4   8  14  24  35  47  68  99 128 149 173 207
#     4   8  12  19  33  51  71  96 124 149 173 210
#
# _framework density 14.451086999999999
#
# number of rings (size 3 to 8) (size 9 to 14) (size 15 to 20)
#    0.000    3.571    0.000    3.000    0.000    2.000 
#    0.000    2.143    0.000    0.429    0.000    3.000 
#    0.000   12.000    0.000    4.857    0.000    6.000 
#
# Total GULP energy -693839.407835 kJ/mol
# GULP energy per Si atom -12389.989426 kJ/mol
# Density = 1.441820 g / cm^3
# Si number density = 14.451087 Si / 1000 Ang^3
#
#
#
# Elastic Constant Matrix: (Units=GPa)
#
#
# Indices 1 2 3 4 5 6 
#
# 1 93.4300 27.4998 62.2554 0.0000 0.0000 0.0000
# 2 27.4998 28.1708 35.5019 0.0000 0.0000 0.0000
# 3 62.2554 35.5019 138.3497 0.0000 0.0000 0.0000
# 4 0.0000 0.0000 0.0000 12.2841 0.0000 0.0000
# 5 0.0000 0.0000 0.0000 0.0000 19.3591 0.0000
# 6 0.0000 0.0000 0.0000 0.0000 0.0000 13.7953
#
#
#
# Elastic Compliance Matrix: (Units=1/GPa)
#
#
# Indices 1 2 3 4 5 6 
#
# 1 0.017109 -0.010345 -0.005044 0.000000 0.000000 0.000000
# 2 -0.010345 0.058718 -0.010413 0.000000 0.000000 0.000000
# 3 -0.005044 -0.010413 0.012170 0.000000 0.000000 0.000000
# 4 0.000000 0.000000 0.000000 0.081406 0.000000 0.000000
# 5 0.000000 0.000000 0.000000 0.000000 0.051655 0.000000
# 6 0.000000 0.000000 0.000000 0.000000 0.000000 0.072488
#
#
# Mechanical properties :
#
#
# Convention : Reuss Voigt Hill
#
# Bulk Modulus (GPa) = 27.47696 56.71831 42.09763
# Shear Modulus (GPa) = 13.99455 18.06727 16.03091
#
# Velocity S-wave (km/s) = 3.11530 3.53970 3.33426
# Velocity P-wave (km/s) = 5.65643 7.48597 6.63456
#
# Compressibility (1/GPa) = 0.03639413
#
# Stress axis : x y z
#
# Youngs Moduli (GPa) = 58.44811 17.03043 82.16931
#
# Poissons Ratio (x) = 0.17617 0.41449
# Poissons Ratio (y) = 0.60462 0.85561
# Poissons Ratio (z) = 0.29484 0.17733
#
# Static dielectric constant tensor:
#      x y z
#    x 2.819040 0.000000 0.000000 
#    y 0.000000 2.504630 0.000000 
#    z 0.000000 0.000000 3.190410 
# 
# 
# High freq. dielectric constant tensor:
#      x y z
#    x 1.526050 0.000000 0.000000 
#    y 0.000000 1.513980 0.000000 
#    z 0.000000 0.000000 1.554120 
# 
# From -- ./inp_files/75916.got.cif
#   From: 2010.03.12/outbox.cif.g09.slc.cpg/sg65_38_cif.got.tgz:75916.got - 2010.04.10 20:52:16.
