data_PCOD8274134
_publ_section_title
;
Structure prediction by ZEFSAII (Michael W. Deem and Ramdas Pophale) SiO2 
 PCOD8274134
Probable space group: C M M M
;
_chemical_formula_sum "Si O2"
_cell_formula_units_Z 72
_cell_length_a 9.444498
_cell_length_b 28.533927
_cell_length_c 14.569619
_cell_angle_alpha 90.000000
_cell_angle_beta 90.000000
_cell_angle_gamma 90.000000
_cell_volume 3926.346467
_symmetry_space_group_name_H-M "C M M M"
_symmetry_group_IT_number 65
_symmetry_cell_setting 'orthorhombic'
loop_
_space_group_symop_operation_xyz
x,y,z
-x,-y,z
x,-y,-z
-x,y,-z
-x,-y,-z
x,y,-z
-x,y,z
x,-y,z
1/2+x,1/2+y,z
1/2-x,1/2-y,z
1/2+x,1/2-y,-z
1/2-x,1/2+y,-z
1/2-x,1/2-y,-z
1/2+x,1/2+y,-z
1/2-x,1/2+y,z
1/2+x,1/2-y,z
loop_
_atom_site_type_symbol
_atom_site_label
_atom_site_fract_x
_atom_site_fract_y
_atom_site_fract_z
Si Si1 0.666695 0.798549 0.000000
Si Si2 0.342648 0.704870 0.500000
Si Si3 0.663771 0.628298 0.648550
Si Si4 0.333396 0.865921 0.832101
Si Si5 0.154599 0.948668 0.107509
Si Si6 0.831585 0.053868 0.500000
O O1 0.750000 0.750000 0.000000
O O2 0.710086 0.827410 0.091415
O O3 0.500000 0.788114 0.000000
O O4 0.500000 0.724307 0.500000
O O5 0.250000 0.750000 0.500000
O O6 0.313727 0.673994 0.411462
O O7 0.500000 0.621106 0.675921
O O8 0.755480 0.641684 0.736525
O O9 0.718127 0.582063 0.591997
O O10 0.500000 0.865837 0.816127
O O11 0.285492 0.916673 0.865785
O O12 0.000000 0.929542 0.142024
O O13 0.180527 0.000000 0.151412
O O14 0.149453 0.953484 0.000000
O O15 0.000000 0.054364 0.500000
O O16 0.773494 0.000000 0.500000
#
# Coordination Sequence:
#
# PCOD8274134 Si02
#       6
#     8   8  16  16  16   8
#     4  10  24  42  57  76 105 145 190 233 281 334
#     4   9  19  36  57  79 107 138 174 223 280 334
#     4   9  19  35  55  82 110 140 180 223 270 328
#     4  11  22  37  55  80 114 147 182 228 281 331
#     4   9  18  33  54  79 105 139 184 224 259 308
#     4   8  15  32  58  83 109 142 179 221 265 313
#
# _framework density 18.337658999999999
#
# number of rings (size 3 to 8) (size 9 to 14) (size 15 to 20)
#    0.000    2.556    1.111    2.667    0.000    4.889 
#    0.000    9.444    0.000    0.667    0.000    0.000 
#    0.000    0.000    0.000    0.000    0.000    0.000 
#
# Total GULP energy -446068.317794 kJ/mol
# GULP energy per Si atom -12390.786605 kJ/mol
# Density = 1.829592 g / cm^3
# Si number density = 18.337659 Si / 1000 Ang^3
#
#
#
# Elastic Constant Matrix: (Units=GPa)
#
#
# Indices 1 2 3 4 5 6 
#
# 1 85.2451 67.7793 66.1338 0.0000 0.0000 0.0000
# 2 67.7793 136.7898 66.8970 0.0000 0.0000 0.0000
# 3 66.1338 66.8970 135.7252 0.0000 0.0000 0.0000
# 4 0.0000 0.0000 0.0000 7.0240 0.0000 0.0000
# 5 0.0000 0.0000 0.0000 0.0000 30.5588 0.0000
# 6 0.0000 0.0000 0.0000 0.0000 0.0000 19.9000
#
#
#
# Elastic Compliance Matrix: (Units=1/GPa)
#
#
# Indices 1 2 3 4 5 6 
#
# 1 0.024332 -0.008246 -0.007792 0.000000 0.000000 0.000000
# 2 -0.008246 0.012427 -0.002107 0.000000 0.000000 0.000000
# 3 -0.007792 -0.002107 0.012203 0.000000 0.000000 0.000000
# 4 0.000000 0.000000 0.000000 0.142368 0.000000 0.000000
# 5 0.000000 0.000000 0.000000 0.000000 0.032724 0.000000
# 6 0.000000 0.000000 0.000000 0.000000 0.000000 0.050251
#
#
# Mechanical properties :
#
#
# Convention : Reuss Voigt Hill
#
# Bulk Modulus (GPa) = 78.91202 84.37559 81.64381
# Shear Modulus (GPa) = 15.88210 21.95990 18.92100
#
# Velocity S-wave (km/s) = 2.94614 3.46429 3.21567
# Velocity P-wave (km/s) = 7.39589 7.88123 7.64241
#
# Compressibility (1/GPa) = 0.01267234
#
# Stress axis : x y z
#
# Youngs Moduli (GPa) = 41.09730 80.47091 81.94665
#
# Poissons Ratio (x) = 0.66357 0.63852
# Poissons Ratio (y) = 0.33889 0.17266
# Poissons Ratio (z) = 0.32023 0.16955
#
# Static dielectric constant tensor:
#      x y z
#    x 3.356110 0.000000 0.000000 
#    y 0.000000 3.751550 0.000000 
#    z 0.000000 0.000000 5.386400 
# 
# 
# High freq. dielectric constant tensor:
#      x y z
#    x 1.693820 0.000000 0.000000 
#    y 0.000000 1.713610 0.000000 
#    z 0.000000 0.000000 1.716100 
# 
# From -- ./inp_files/36640.got.cif
#   From: 2010.03.12/outbox.cif.g09.slc.cpg/sg65_19_cif.got.tgz:36640.got - 2010.04.10 20:52:16.
