data_PCOD8274164
_publ_section_title
;
Structure prediction by ZEFSAII (Michael W. Deem and Ramdas Pophale) SiO2 
 PCOD8274164
Probable space group: C M M M
;
_chemical_formula_sum "Si O2"
_cell_formula_units_Z 80
_cell_length_a 14.022726
_cell_length_b 25.643738
_cell_length_c 13.873252
_cell_angle_alpha 90.000000
_cell_angle_beta 90.000000
_cell_angle_gamma 90.000000
_cell_volume 4988.753601
_symmetry_space_group_name_H-M "C M M M"
_symmetry_group_IT_number 65
_symmetry_cell_setting 'orthorhombic'
loop_
_space_group_symop_operation_xyz
x,y,z
-x,-y,z
x,-y,-z
-x,y,-z
-x,-y,-z
x,y,-z
-x,y,z
x,-y,z
1/2+x,1/2+y,z
1/2-x,1/2-y,z
1/2+x,1/2-y,-z
1/2-x,1/2+y,-z
1/2-x,1/2-y,-z
1/2+x,1/2+y,-z
1/2-x,1/2+y,z
1/2+x,1/2-y,z
loop_
_atom_site_type_symbol
_atom_site_label
_atom_site_fract_x
_atom_site_fract_y
_atom_site_fract_z
Si Si1 0.606057 0.307983 0.766881
Si Si2 0.394070 0.226955 0.608337
Si Si3 0.295210 0.854938 0.265781
Si Si4 0.112826 0.290065 0.108365
Si Si5 0.389332 0.060630 0.390400
O O1 0.500000 0.329107 0.794639
O O2 0.602585 0.281787 0.662339
O O3 0.682216 0.355078 0.760388
O O4 0.644008 0.265001 0.843966
O O5 0.362760 0.238486 0.500000
O O6 0.500000 0.200907 0.614004
O O7 0.316878 0.188669 0.654140
O O8 0.350666 0.840185 0.167782
O O9 0.325923 0.910287 0.309903
O O10 0.000000 0.292875 0.110364
O O11 0.153362 0.292661 0.000000
O O12 0.364589 0.078856 0.500000
O O13 0.500000 0.071899 0.369511
O O14 0.366124 0.000000 0.379183
#
# Coordination Sequence:
#
# PCOD8274164 Si02
#       5
#    16  16  16  16  16
#     4   9  19  30  38  57  88 119 149 178 208 245
#     4   9  16  25  38  59  86 110 134 168 210 257
#     4  11  18  26  45  64  82 113 150 180 210 256
#     4   9  17  29  45  67  95 121 145 177 216 259
#     4   9  18  32  49  69  90 109 135 178 229 275
#
# _framework density 16.036069999999999
#
# number of rings (size 3 to 8) (size 9 to 14) (size 15 to 20)
#    0.000    2.600    0.000    6.600    0.000    5.600 
#    0.000    0.000    0.000    1.200    0.000    4.200 
#    0.000    0.000    0.000    6.800    0.000    0.200 
#
# Total GULP energy -495765.558115 kJ/mol
# GULP energy per Si atom -12394.138953 kJ/mol
# Density = 1.599957 g / cm^3
# Si number density = 16.036070 Si / 1000 Ang^3
#
#
#
# Elastic Constant Matrix: (Units=GPa)
#
#
# Indices 1 2 3 4 5 6 
#
# 1 79.5797 35.7933 28.3593 0.0000 0.0000 0.0000
# 2 35.7933 58.3321 33.0329 0.0000 0.0000 0.0000
# 3 28.3593 33.0329 126.5572 0.0000 0.0000 0.0000
# 4 0.0000 0.0000 0.0000 17.8624 0.0000 0.0000
# 5 0.0000 0.0000 0.0000 0.0000 11.6200 0.0000
# 6 0.0000 0.0000 0.0000 0.0000 0.0000 20.6041
#
#
#
# Elastic Compliance Matrix: (Units=1/GPa)
#
#
# Indices 1 2 3 4 5 6 
#
# 1 0.017541 -0.010018 -0.001316 0.000000 0.000000 0.000000
# 2 -0.010018 0.025838 -0.004499 0.000000 0.000000 0.000000
# 3 -0.001316 -0.004499 0.009371 0.000000 0.000000 0.000000
# 4 0.000000 0.000000 0.000000 0.055984 0.000000 0.000000
# 5 0.000000 0.000000 0.000000 0.000000 0.086059 0.000000
# 6 0.000000 0.000000 0.000000 0.000000 0.000000 0.048534
#
#
# Mechanical properties :
#
#
# Convention : Reuss Voigt Hill
#
# Bulk Modulus (GPa) = 47.43004 50.98223 49.20614
# Shear Modulus (GPa) = 17.72920 21.16951 19.44935
#
# Velocity S-wave (km/s) = 3.32864 3.63728 3.48638
# Velocity P-wave (km/s) = 6.66441 7.03570 6.85257
#
# Compressibility (1/GPa) = 0.02108368
#
# Stress axis : x y z
#
# Youngs Moduli (GPa) = 57.00967 38.70213 106.71505
#
# Poissons Ratio (x) = 0.38773 0.14041
# Poissons Ratio (y) = 0.57113 0.48013
# Poissons Ratio (z) = 0.07501 0.17413
#
# Static dielectric constant tensor:
#      x y z
#    x 3.163360 0.000000 0.000000 
#    y 0.000000 2.600510 0.000000 
#    z 0.000000 0.000000 3.266150 
# 
# 
# High freq. dielectric constant tensor:
#      x y z
#    x 1.619780 0.000000 0.000000 
#    y 0.000000 1.555390 0.000000 
#    z 0.000000 0.000000 1.619830 
# 
# From -- ./inp_files/40047.got.cif
#   From: 2010.03.12/outbox.cif.g09.slc.cpg/sg65_21_cif.got.tgz:40047.got - 2010.04.10 20:52:16.
