data_PCOD8274414
_publ_section_title
;
Structure prediction by ZEFSAII (Michael W. Deem and Ramdas Pophale) SiO2 
 PCOD8274414
Probable space group: C M M M
;
_chemical_formula_sum "Si O2"
_cell_formula_units_Z 80
_cell_length_a 13.465530
_cell_length_b 23.234330
_cell_length_c 16.858429
_cell_angle_alpha 90.000000
_cell_angle_beta 90.000000
_cell_angle_gamma 90.000000
_cell_volume 5274.371383
_symmetry_space_group_name_H-M "C M M M"
_symmetry_group_IT_number 65
_symmetry_cell_setting 'orthorhombic'
loop_
_space_group_symop_operation_xyz
x,y,z
-x,-y,z
x,-y,-z
-x,y,-z
-x,-y,-z
x,y,-z
-x,y,z
x,-y,z
1/2+x,1/2+y,z
1/2-x,1/2-y,z
1/2+x,1/2-y,-z
1/2-x,1/2+y,-z
1/2-x,1/2-y,-z
1/2+x,1/2+y,-z
1/2-x,1/2+y,z
1/2+x,1/2-y,z
loop_
_atom_site_type_symbol
_atom_site_label
_atom_site_fract_x
_atom_site_fract_y
_atom_site_fract_z
Si Si1 0.882540 0.784463 0.912630
Si Si2 0.117250 0.932522 0.327980
Si Si3 0.886101 0.345025 0.907785
Si Si4 0.205256 0.110512 0.173914
Si Si5 0.608620 0.432019 0.500000
Si Si6 0.115340 0.000000 0.908076
O O1 0.843431 0.719789 0.895229
O O2 0.847444 0.829990 0.848485
O O3 0.000000 0.780215 0.911949
O O4 0.845923 0.804635 0.000000
O O5 0.186804 0.897411 0.267528
O O6 0.159001 0.914497 0.416040
O O7 0.000000 0.917337 0.318643
O O8 0.132421 0.000000 0.312015
O O9 0.821317 0.386203 0.850498
O O10 0.000000 0.351024 0.880680
O O11 0.874986 0.362889 0.000000
O O12 0.158865 0.057294 0.128516
O O13 0.595779 0.500000 0.500000
O O14 0.500000 0.403548 0.500000
O O15 0.000000 0.000000 0.889081
O O16 0.139830 0.000000 0.000000
#
# Coordination Sequence:
#
# PCOD8274414 Si02
#       6
#    16  16  16  16   8   8
#     4   9  17  29  45  64  85 111 146 187 224 255
#     4   9  16  27  42  64  92 116 138 168 209 265
#     4   9  19  34  47  59  79 113 161 204 222 234
#     4  12  19  27  44  65  89 116 145 176 218 261
#     4   7  12  24  42  60  84 117 141 161 202 257
#     4  11  22  30  37  58  94 124 138 158 209 279
#
# _framework density 15.167684
#
# number of rings (size 3 to 8) (size 9 to 14) (size 15 to 20)
#    0.000    2.400    1.000    6.600    0.000    3.200 
#    0.000    0.500    0.000    1.800    0.000    3.500 
#    0.000    5.600    0.000    0.000    0.000    0.000 
#
# Total GULP energy -495661.241532 kJ/mol
# GULP energy per Si atom -12391.531038 kJ/mol
# Density = 1.513316 g / cm^3
# Si number density = 15.167684 Si / 1000 Ang^3
#
#
#
# Elastic Constant Matrix: (Units=GPa)
#
#
# Indices 1 2 3 4 5 6 
#
# 1 64.6255 46.6515 41.2261 0.0000 0.0000 0.0000
# 2 46.6515 60.3763 40.8442 0.0000 0.0000 0.0000
# 3 41.2261 40.8442 139.0370 0.0000 0.0000 0.0000
# 4 0.0000 0.0000 0.0000 -6.3847 0.0000 0.0000
# 5 0.0000 0.0000 0.0000 0.0000 17.9018 0.0000
# 6 0.0000 0.0000 0.0000 0.0000 0.0000 17.6313
#
#
#
# Elastic Compliance Matrix: (Units=1/GPa)
#
#
# Indices 1 2 3 4 5 6 
#
# 1 0.036049 -0.025738 -0.003128 0.000000 0.000000 0.000000
# 2 -0.025738 0.039047 -0.003839 0.000000 0.000000 0.000000
# 3 -0.003128 -0.003839 0.009248 0.000000 0.000000 0.000000
# 4 0.000000 0.000000 0.000000 -0.156625 0.000000 0.000000
# 5 0.000000 0.000000 0.000000 0.000000 0.055860 0.000000
# 6 0.000000 0.000000 0.000000 0.000000 0.000000 0.056717
#
#
# Mechanical properties :
#
#
# Convention : Reuss Voigt Hill
#
# Bulk Modulus (GPa) = 52.81680 57.94248 55.37964
# Shear Modulus (GPa) = 44.63577 14.85083 29.74330
#
# Velocity S-wave (km/s) = 5.43066 3.13247 4.43308
# Velocity P-wave (km/s) = 8.61512 7.16710 7.92426
#
# Compressibility (1/GPa) = 0.01893337
#
# Stress axis : x y z
#
# Youngs Moduli (GPa) = 27.74017 25.61009 108.13653
#
# Poissons Ratio (x) = 0.65915 0.33824
# Poissons Ratio (y) = 0.71398 0.41514
# Poissons Ratio (z) = 0.08677 0.09832
#
# Static dielectric constant tensor:
#      x y z
#    x 2.860330 0.000000 0.000000 
#    y 0.000000 8.754090 0.000000 
#    z 0.000000 0.000000 3.076730 
# 
# 
# High freq. dielectric constant tensor:
#      x y z
#    x 1.568150 0.000000 0.000000 
#    y 0.000000 1.562840 0.000000 
#    z 0.000000 0.000000 1.566350 
# 
# From -- ./inp_files/53134.got.cif
#   From: 2010.03.12/outbox.cif.g09.slc.cpg/sg65_27_cif.got.tgz:53134.got - 2010.04.10 20:52:16.
