data_PCOD8274959
_publ_section_title
;
Structure prediction by ZEFSAII (Michael W. Deem and Ramdas Pophale) SiO2 
 PCOD8274959
Probable space group: C M M M
;
_chemical_formula_sum "Si O2"
_cell_formula_units_Z 128
_cell_length_a 26.278213
_cell_length_b 19.738055
_cell_length_c 18.332680
_cell_angle_alpha 90.000000
_cell_angle_beta 90.000000
_cell_angle_gamma 90.000000
_cell_volume 9508.809376
_symmetry_space_group_name_H-M "C M M M"
_symmetry_group_IT_number 65
_symmetry_cell_setting 'orthorhombic'
loop_
_space_group_symop_operation_xyz
x,y,z
-x,-y,z
x,-y,-z
-x,y,-z
-x,-y,-z
x,y,-z
-x,y,z
x,-y,z
1/2+x,1/2+y,z
1/2-x,1/2-y,z
1/2+x,1/2-y,-z
1/2-x,1/2+y,-z
1/2-x,1/2-y,-z
1/2+x,1/2+y,-z
1/2-x,1/2+y,z
1/2+x,1/2-y,z
loop_
_atom_site_type_symbol
_atom_site_label
_atom_site_fract_x
_atom_site_fract_y
_atom_site_fract_z
Si Si1 0.288278 0.575390 0.218699
Si Si2 0.346406 0.580690 0.080906
Si Si3 0.893265 0.924803 0.695303
Si Si4 0.850355 0.171342 0.415961
Si Si5 0.247708 0.327821 0.668734
Si Si6 0.145642 0.327594 0.584592
Si Si7 0.944261 0.080676 0.838278
Si Si8 0.056592 0.576219 0.413407
O O1 0.263777 0.500000 0.215664
O O2 0.301575 0.602227 0.136945
O O3 0.339774 0.572159 0.263978
O O4 0.249963 0.627031 0.258047
O O5 0.349738 0.500000 0.080400
O O6 0.401148 0.610252 0.107454
O O7 0.334404 0.609129 0.000000
O O8 0.891310 0.874259 0.626830
O O9 0.934038 0.897513 0.754298
O O10 0.907643 0.000000 0.666791
O O11 0.851550 0.150035 0.500000
O O12 0.793578 0.157509 0.386977
O O13 0.867062 0.248786 0.404691
O O14 0.250000 0.250000 0.693621
O O15 0.195974 0.347772 0.628365
O O16 0.155745 0.344289 0.500000
O O17 0.098533 0.371108 0.616723
O O18 0.000000 0.107937 0.861900
O O19 0.942348 0.000000 0.841669
O O20 0.056038 0.579733 0.500000
O O21 0.070711 0.500000 0.387835
O O22 0.000000 0.595615 0.384221
#
# Coordination Sequence:
#
# PCOD8274959 Si02
#       8
#    16  16  16  16  16  16  16  16
#     4   8  14  24  36  50  69  92 116 140 167 204
#     4   8  13  21  34  52  71  90 113 139 168 205
#     4   8  14  24  35  46  63  90 121 147 175 213
#     4   9  16  25  36  50  68  90 118 153 188 214
#     4   9  16  25  37  52  71  95 119 144 177 215
#     4   9  16  25  37  53  71  90 115 148 183 217
#     4   8  13  21  33  48  66  88 113 144 180 211
#     4   8  14  25  39  52  67  88 111 137 176 225
#
# _framework density 13.461201000000001
#
# number of rings (size 3 to 8) (size 9 to 14) (size 15 to 20)
#    0.000    3.625    0.000    2.250    0.000    2.500 
#    0.000    1.875    0.000    3.750    0.000    1.750 
#    0.000    0.000    0.000    0.000    0.000    0.625 
#
# Total GULP energy -793043.145138 kJ/mol
# GULP energy per Si atom -12391.299143 kJ/mol
# Density = 1.343056 g / cm^3
# Si number density = 13.461201 Si / 1000 Ang^3
#
#
#
# Elastic Constant Matrix: (Units=GPa)
#
#
# Indices 1 2 3 4 5 6 
#
# 1 62.4693 33.9064 31.8762 0.0000 0.0000 0.0000
# 2 33.9064 49.2762 37.1141 0.0000 0.0000 0.0000
# 3 31.8762 37.1141 90.4179 0.0000 0.0000 0.0000
# 4 0.0000 0.0000 0.0000 11.4285 0.0000 0.0000
# 5 0.0000 0.0000 0.0000 0.0000 13.9798 0.0000
# 6 0.0000 0.0000 0.0000 0.0000 0.0000 17.1570
#
#
#
# Elastic Compliance Matrix: (Units=1/GPa)
#
#
# Indices 1 2 3 4 5 6 
#
# 1 0.025977 -0.015889 -0.002636 0.000000 0.000000 0.000000
# 2 -0.015889 0.039094 -0.010446 0.000000 0.000000 0.000000
# 3 -0.002636 -0.010446 0.016277 0.000000 0.000000 0.000000
# 4 0.000000 0.000000 0.000000 0.087500 0.000000 0.000000
# 5 0.000000 0.000000 0.000000 0.000000 0.071532 0.000000
# 6 0.000000 0.000000 0.000000 0.000000 0.000000 0.058285
#
#
# Mechanical properties :
#
#
# Convention : Reuss Voigt Hill
#
# Bulk Modulus (GPa) = 42.72275 45.32852 44.02563
# Shear Modulus (GPa) = 13.72084 15.13084 14.42584
#
# Velocity S-wave (km/s) = 3.19609 3.35630 3.27717
# Velocity P-wave (km/s) = 6.73993 6.98328 6.86268
#
# Compressibility (1/GPa) = 0.02340673
#
# Stress axis : x y z
#
# Youngs Moduli (GPa) = 38.49552 25.57914 61.43757
#
# Poissons Ratio (x) = 0.40643 0.16195
# Poissons Ratio (y) = 0.61166 0.64175
# Poissons Ratio (z) = 0.10147 0.26719
#
# Static dielectric constant tensor:
#      x y z
#    x 2.716780 0.000000 0.000000 
#    y 0.000000 2.617610 0.000000 
#    z 0.000000 0.000000 2.739940 
# 
# 
# High freq. dielectric constant tensor:
#      x y z
#    x 1.496660 0.000000 0.000000 
#    y 0.000000 1.485280 0.000000 
#    z 0.000000 0.000000 1.491070 
# 
# From -- ./inp_files/57047.got.cif
#   From: 2010.03.12/outbox.cif.g09.slc.cpg/sg65_29_cif.got.tgz:57047.got - 2010.04.10 20:52:16.
