data_PCOD8274844
_publ_section_title
;
Structure prediction by ZEFSAII (Michael W. Deem and Ramdas Pophale) SiO2 
 PCOD8274844
Probable space group: C M M M
;
_chemical_formula_sum "Si O2"
_cell_formula_units_Z 72
_cell_length_a 9.349552
_cell_length_b 17.915600
_cell_length_c 23.310713
_cell_angle_alpha 90.000000
_cell_angle_beta 90.000000
_cell_angle_gamma 90.000000
_cell_volume 3904.610486
_symmetry_space_group_name_H-M "C M M M"
_symmetry_group_IT_number 65
_symmetry_cell_setting 'orthorhombic'
loop_
_space_group_symop_operation_xyz
x,y,z
-x,-y,z
x,-y,-z
-x,y,-z
-x,-y,-z
x,y,-z
-x,y,z
x,-y,z
1/2+x,1/2+y,z
1/2-x,1/2-y,z
1/2+x,1/2-y,-z
1/2-x,1/2+y,-z
1/2-x,1/2-y,-z
1/2+x,1/2+y,-z
1/2-x,1/2+y,z
1/2+x,1/2-y,z
loop_
_atom_site_type_symbol
_atom_site_label
_atom_site_fract_x
_atom_site_fract_y
_atom_site_fract_z
Si Si1 0.164497 0.087949 0.403251
Si Si2 0.339850 0.910754 0.830702
Si Si3 0.328364 0.171575 0.500000
Si Si4 0.339392 0.411251 0.063236
Si Si5 0.158406 0.088681 0.274625
O O1 0.278078 0.127710 0.443769
O O2 0.203580 0.113671 0.338558
O O3 0.000000 0.110124 0.417995
O O4 0.183398 0.000000 0.410852
O O5 0.500000 0.879886 0.831421
O O6 0.261927 0.878225 0.887230
O O7 0.265637 0.878919 0.773139
O O8 0.336086 0.000000 0.830869
O O9 0.500000 0.180004 0.500000
O O10 0.250000 0.250000 0.500000
O O11 0.500000 0.381984 0.073949
O O12 0.338289 0.500000 0.066237
O O13 0.285480 0.385412 0.000000
O O14 0.000000 0.118905 0.260424
O O15 0.156964 0.000000 0.272273
#
# Coordination Sequence:
#
# PCOD8274844 Si02
#       5
#    16  16   8  16  16
#     4   9  18  34  55  76  98 124 155 193 236 281
#     4   9  15  20  28  45  69  95 125 168 217 258
#     4  12  25  38  53  73  99 129 159 192 231 278
#     4   8  13  20  28  37  53  84 127 170 210 256
#     4   8  14  25  41  59  79 106 138 172 214 264
#
# _framework density 18.439738999999999
#
# number of rings (size 3 to 8) (size 9 to 14) (size 15 to 20)
#    0.000    3.111    0.000    4.000    0.000    5.778 
#    0.000    4.444    0.000    0.000    0.000    0.000 
#    0.000    0.000    0.000    0.000    0.000    1.111 
#
# Total GULP energy -446149.403690 kJ/mol
# GULP energy per Si atom -12393.038991 kJ/mol
# Density = 1.839777 g / cm^3
# Si number density = 18.439739 Si / 1000 Ang^3
#
#
#
# Elastic Constant Matrix: (Units=GPa)
#
#
# Indices 1 2 3 4 5 6 
#
# 1 158.1161 24.4101 111.2817 0.0000 0.0000 0.0000
# 2 24.4101 19.5865 21.8335 0.0000 0.0000 0.0000
# 3 111.2817 21.8335 184.4409 0.0000 0.0000 0.0000
# 4 0.0000 0.0000 0.0000 -2.0000 0.0000 0.0000
# 5 0.0000 0.0000 0.0000 0.0000 27.1409 0.0000
# 6 0.0000 0.0000 0.0000 0.0000 0.0000 13.1426
#
#
#
# Elastic Compliance Matrix: (Units=1/GPa)
#
#
# Indices 1 2 3 4 5 6 
#
# 1 0.011969 -0.007911 -0.006285 0.000000 0.000000 0.000000
# 2 -0.007911 0.064045 -0.002809 0.000000 0.000000 0.000000
# 3 -0.006285 -0.002809 0.009546 0.000000 0.000000 0.000000
# 4 0.000000 0.000000 0.000000 -0.499992 0.000000 0.000000
# 5 0.000000 0.000000 0.000000 0.000000 0.036845 0.000000
# 6 0.000000 0.000000 0.000000 0.000000 0.000000 0.076089
#
#
# Mechanical properties :
#
#
# Convention : Reuss Voigt Hill
#
# Bulk Modulus (GPa) = 19.39793 75.24377 47.32085
# Shear Modulus (GPa) = -19.97564 21.29790 0.66113
#
# Velocity S-wave (km/s) = -3.29491 3.40222 0.59943
# Velocity P-wave (km/s) = 1.98313 7.50515 5.11832
#
# Compressibility (1/GPa) = 0.05155189
#
# Stress axis : x y z
#
# Youngs Moduli (GPa) = 83.54795 15.61401 104.75196
#
# Poissons Ratio (x) = 0.12352 0.65838
# Poissons Ratio (y) = 0.66092 0.29420
# Poissons Ratio (z) = 0.52511 0.04385
#
# Static dielectric constant tensor:
#      x y z
#    x 3.547510 0.000000 0.000000 
#    y 0.000000 2.639080 0.000000 
#    z 0.000000 0.000000 3.861510 
# 
# 
# High freq. dielectric constant tensor:
#      x y z
#    x 1.713980 0.000000 0.000000 
#    y 0.000000 1.631190 0.000000 
#    z 0.000000 0.000000 1.738100 
# 
# From -- ./inp_files/67115.got.cif
#   From: 2010.03.12/outbox.cif.g09.slc.cpg/sg65_34_cif.got.tgz:67115.got - 2010.04.10 20:52:16.
