data_PCOD8274181
_publ_section_title
;
Structure prediction by ZEFSAII (Michael W. Deem and Ramdas Pophale) SiO2 
 PCOD8274181
Probable space group: C M M M
;
_chemical_formula_sum "Si O2"
_cell_formula_units_Z 80
_cell_length_a 32.594213
_cell_length_b 19.533351
_cell_length_c 8.893923
_cell_angle_alpha 90.000000
_cell_angle_beta 90.000000
_cell_angle_gamma 90.000000
_cell_volume 5662.531338
_symmetry_space_group_name_H-M "C M M M"
_symmetry_group_IT_number 65
_symmetry_cell_setting 'orthorhombic'
loop_
_space_group_symop_operation_xyz
x,y,z
-x,-y,z
x,-y,-z
-x,y,-z
-x,-y,-z
x,y,-z
-x,y,z
x,-y,z
1/2+x,1/2+y,z
1/2-x,1/2-y,z
1/2+x,1/2-y,-z
1/2-x,1/2+y,-z
1/2-x,1/2-y,-z
1/2+x,1/2+y,-z
1/2-x,1/2+y,z
1/2+x,1/2-y,z
loop_
_atom_site_type_symbol
_atom_site_label
_atom_site_fract_x
_atom_site_fract_y
_atom_site_fract_z
Si Si1 0.685816 0.722266 0.677584
Si Si2 0.046474 0.079010 0.325234
Si Si3 0.337035 0.500000 0.670035
Si Si4 0.739867 0.000000 0.668712
Si Si5 0.267439 0.852870 0.678294
Si Si6 0.376414 0.630130 0.177420
O O1 0.679196 0.713148 0.500000
O O2 0.695400 0.801620 0.719489
O O3 0.724084 0.676863 0.736389
O O4 0.644687 0.699914 0.763940
O O5 0.051110 0.096423 0.500000
O O6 0.076305 0.127979 0.230353
O O7 0.000000 0.092763 0.271796
O O8 0.058483 0.000000 0.295074
O O9 0.354638 0.500000 0.500000
O O10 0.288573 0.500000 0.668252
O O11 0.352027 0.432973 0.753771
O O12 0.724502 0.929137 0.747969
O O13 0.722441 0.000000 0.500000
O O14 0.263056 0.858844 0.500000
O O15 0.374508 0.627133 0.000000
#
# Coordination Sequence:
#
# PCOD8274181 Si02
#       6
#    16  16   8   8  16  16
#     4   9  16  28  43  58  78 108 141 172 205 246
#     4   9  18  32  48  62  77 103 138 170 202 242
#     4  11  19  29  44  58  77 107 143 177 207 242
#     4   9  14  23  43  64  76  97 138 188 218 232
#     4   8  14  24  41  62  79 100 141 182 209 237
#     4  12  22  29  40  61  86 108 135 172 211 248
#
# _framework density 14.127957
#
# number of rings (size 3 to 8) (size 9 to 14) (size 15 to 20)
#    0.000    2.400    3.000    3.900    0.000    0.400 
#    0.000    3.000    0.000    0.000    0.000    0.000 
#    0.000    0.000    0.000    0.900    0.000   20.600 
#
# Total GULP energy -495730.232441 kJ/mol
# GULP energy per Si atom -12393.255811 kJ/mol
# Density = 1.409580 g / cm^3
# Si number density = 14.127957 Si / 1000 Ang^3
#
#
#
# Elastic Constant Matrix: (Units=GPa)
#
#
# Indices 1 2 3 4 5 6 
#
# 1 75.7284 44.8101 35.7979 0.0000 0.0000 0.0000
# 2 44.8101 111.2250 28.5017 0.0000 0.0000 0.0000
# 3 35.7979 28.5017 63.3300 0.0000 0.0000 0.0000
# 4 0.0000 0.0000 0.0000 8.3989 0.0000 0.0000
# 5 0.0000 0.0000 0.0000 0.0000 2.8721 0.0000
# 6 0.0000 0.0000 0.0000 0.0000 0.0000 1.1112
#
#
#
# Elastic Compliance Matrix: (Units=1/GPa)
#
#
# Indices 1 2 3 4 5 6 
#
# 1 0.021221 -0.006189 -0.009210 0.000000 0.000000 0.000000
# 2 -0.006189 0.011968 -0.001888 0.000000 0.000000 0.000000
# 3 -0.009210 -0.001888 0.021846 0.000000 0.000000 0.000000
# 4 0.000000 0.000000 0.000000 0.119063 0.000000 0.000000
# 5 0.000000 0.000000 0.000000 0.000000 0.348176 0.000000
# 6 0.000000 0.000000 0.000000 0.000000 0.000000 0.899968
#
#
# Mechanical properties :
#
#
# Convention : Reuss Voigt Hill
#
# Bulk Modulus (GPa) = 48.87313 52.05588 50.46451
# Shear Modulus (GPa) = 3.41615 11.88801 7.65208
#
# Velocity S-wave (km/s) = 1.55668 2.90393 2.32981
# Velocity P-wave (km/s) = 6.15624 6.94044 6.56007
#
# Compressibility (1/GPa) = 0.02046114
#
# Stress axis : x y z
#
# Youngs Moduli (GPa) = 47.12277 83.55554 45.77539
#
# Poissons Ratio (x) = 0.51717 0.42159
# Poissons Ratio (y) = 0.29167 0.08641
# Poissons Ratio (z) = 0.43400 0.15772
#
# Static dielectric constant tensor:
#      x y z
#    x 2.701000 0.000000 0.000000 
#    y 0.000000 2.974030 0.000000 
#    z 0.000000 0.000000 2.527360 
# 
# 
# High freq. dielectric constant tensor:
#      x y z
#    x 1.514900 0.000000 0.000000 
#    y 0.000000 1.522840 0.000000 
#    z 0.000000 0.000000 1.516570 
# 
# From -- ./inp_files/18443.got.cif
#   From: 2010.03.12/outbox.cif.g09.slc.cpg/sg65_10_cif.got.tgz:18443.got - 2010.04.10 20:52:16.
