data_PCOD8274993
_publ_section_title
;
Structure prediction by ZEFSAII (Michael W. Deem and Ramdas Pophale) SiO2 
 PCOD8274993
Probable space group: C M M M
;
_chemical_formula_sum "Si O2"
_cell_formula_units_Z 88
_cell_length_a 9.449715
_cell_length_b 20.297254
_cell_length_c 27.808697
_cell_angle_alpha 90.000000
_cell_angle_beta 90.000000
_cell_angle_gamma 90.000000
_cell_volume 5333.798896
_symmetry_space_group_name_H-M "C M M M"
_symmetry_group_IT_number 65
_symmetry_cell_setting 'orthorhombic'
loop_
_space_group_symop_operation_xyz
x,y,z
-x,-y,z
x,-y,-z
-x,y,-z
-x,-y,-z
x,y,-z
-x,y,z
x,-y,z
1/2+x,1/2+y,z
1/2-x,1/2-y,z
1/2+x,1/2-y,-z
1/2-x,1/2+y,-z
1/2-x,1/2-y,-z
1/2+x,1/2+y,-z
1/2-x,1/2+y,z
1/2+x,1/2-y,z
loop_
_atom_site_type_symbol
_atom_site_label
_atom_site_fract_x
_atom_site_fract_y
_atom_site_fract_z
Si Si1 0.165041 0.314738 0.765209
Si Si2 0.340944 0.578714 0.500000
Si Si3 0.165166 0.685346 0.875873
Si Si4 0.831974 0.573075 0.053779
Si Si5 0.168280 0.573125 0.305824
Si Si6 0.157399 0.578187 0.412100
O O1 0.250000 0.250000 0.749817
O O2 0.193377 0.333077 0.820548
O O3 0.224269 0.375424 0.733690
O O4 0.000000 0.301583 0.755451
O O5 0.340583 0.500000 0.500000
O O6 0.500000 0.606407 0.500000
O O7 0.262298 0.606548 0.452624
O O8 0.250000 0.750000 0.891231
O O9 0.226512 0.625605 0.907913
O O10 0.000000 0.698274 0.885642
O O11 0.774274 0.500000 0.066792
O O12 0.000000 0.571985 0.056112
O O13 0.782106 0.592825 0.000000
O O14 0.229815 0.500000 0.294426
O O15 0.215720 0.597170 0.359066
O O16 0.000000 0.569262 0.304650
O O17 0.148745 0.500000 0.415866
O O18 0.000000 0.607544 0.420624
#
# Coordination Sequence:
#
# PCOD8274993 Si02
#       6
#    16   8  16  16  16  16
#     4   9  17  29  44  62  85 111 139 172 210 252
#     4   9  15  21  31  51  80 109 132 157 195 241
#     4   9  17  28  43  63  85 110 140 174 211 250
#     4   8  14  25  41  62  87 112 140 176 214 249
#     4   8  14  25  42  63  83 104 136 177 211 240
#     4   8  13  22  36  53  74 101 132 164 199 239
#
# _framework density 16.498560000000001
#
# number of rings (size 3 to 8) (size 9 to 14) (size 15 to 20)
#    0.000    3.545    0.000    1.909    0.000    2.182 
#    0.000    4.545    0.000    2.182    0.000    7.000 
#    0.000    0.000    0.000    0.000    0.000    0.000 
#
# Total GULP energy -545322.828627 kJ/mol
# GULP energy per Si atom -12393.700651 kJ/mol
# Density = 1.646101 g / cm^3
# Si number density = 16.498560 Si / 1000 Ang^3
#
#
#
# Elastic Constant Matrix: (Units=GPa)
#
#
# Indices 1 2 3 4 5 6 
#
# 1 44.8401 33.6679 39.4162 0.0000 0.0000 0.0000
# 2 33.6679 103.9344 86.8718 0.0000 0.0000 0.0000
# 3 39.4162 86.8718 128.3243 0.0000 0.0000 0.0000
# 4 0.0000 0.0000 0.0000 10.7132 0.0000 0.0000
# 5 0.0000 0.0000 0.0000 0.0000 13.4064 0.0000
# 6 0.0000 0.0000 0.0000 0.0000 0.0000 17.7832
#
#
#
# Elastic Compliance Matrix: (Units=1/GPa)
#
#
# Indices 1 2 3 4 5 6 
#
# 1 0.031594 -0.004890 -0.006394 0.000000 0.000000 0.000000
# 2 -0.004890 0.022918 -0.014013 0.000000 0.000000 0.000000
# 3 -0.006394 -0.014013 0.019243 0.000000 0.000000 0.000000
# 4 0.000000 0.000000 0.000000 0.093343 0.000000 0.000000
# 5 0.000000 0.000000 0.000000 0.000000 0.074591 0.000000
# 6 0.000000 0.000000 0.000000 0.000000 0.000000 0.056233
#
#
# Mechanical properties :
#
#
# Convention : Reuss Voigt Hill
#
# Bulk Modulus (GPa) = 43.17585 66.33451 54.75518
# Shear Modulus (GPa) = 14.03570 16.19008 15.11289
#
# Velocity S-wave (km/s) = 2.91988 3.13597 3.02985
# Velocity P-wave (km/s) = 6.13138 7.30794 6.74536
#
# Compressibility (1/GPa) = 0.02316110
#
# Stress axis : x y z
#
# Youngs Moduli (GPa) = 31.65197 43.63452 51.96741
#
# Poissons Ratio (x) = 0.21337 0.33228
# Poissons Ratio (y) = 0.15478 0.72820
# Poissons Ratio (z) = 0.20238 0.61143
#
# Static dielectric constant tensor:
#      x y z
#    x 2.845120 0.000000 0.000000 
#    y 0.000000 3.081420 0.000000 
#    z 0.000000 0.000000 3.391890 
# 
# 
# High freq. dielectric constant tensor:
#      x y z
#    x 1.596090 0.000000 0.000000 
#    y 0.000000 1.604410 0.000000 
#    z 0.000000 0.000000 1.645840 
# 
# From -- ./inp_files/75330.got.cif
#   From: 2010.03.12/outbox.cif.g09.slc.cpg/sg65_38_cif.got.tgz:75330.got - 2010.04.10 20:52:16.
