data_PCOD8274333
_publ_section_title
;
Structure prediction by ZEFSAII (Michael W. Deem and Ramdas Pophale) SiO2 
 PCOD8274333
Probable space group: C M M M
;
_chemical_formula_sum "Si O2"
_cell_formula_units_Z 64
_cell_length_a 8.505535
_cell_length_b 23.419760
_cell_length_c 18.117924
_cell_angle_alpha 90.000000
_cell_angle_beta 90.000000
_cell_angle_gamma 90.000000
_cell_volume 3609.046767
_symmetry_space_group_name_H-M "C M M M"
_symmetry_group_IT_number 65
_symmetry_cell_setting 'orthorhombic'
loop_
_space_group_symop_operation_xyz
x,y,z
-x,-y,z
x,-y,-z
-x,y,-z
-x,-y,-z
x,y,-z
-x,y,z
x,-y,z
1/2+x,1/2+y,z
1/2-x,1/2-y,z
1/2+x,1/2-y,-z
1/2-x,1/2+y,-z
1/2-x,1/2-y,-z
1/2+x,1/2+y,-z
1/2-x,1/2+y,z
1/2+x,1/2-y,z
loop_
_atom_site_type_symbol
_atom_site_label
_atom_site_fract_x
_atom_site_fract_y
_atom_site_fract_z
Si Si1 0.815133 0.812753 0.000000
Si Si2 0.816267 0.312767 0.579811
Si Si3 0.314970 0.117682 0.135420
Si Si4 0.184737 0.814315 0.270395
Si Si5 0.313652 0.500000 0.084826
O O1 0.750000 0.750000 0.000000
O O2 0.758914 0.844098 0.072401
O O3 0.000000 0.811069 0.000000
O O4 0.789212 0.344279 0.500000
O O5 0.750000 0.250000 0.571219
O O6 0.724382 0.341101 0.648614
O O7 0.000000 0.310277 0.599416
O O8 0.500000 0.116895 0.125911
O O9 0.268747 0.143929 0.213553
O O10 0.249519 0.054082 0.129149
O O11 0.250000 0.750000 0.262766
O O12 0.000000 0.813855 0.255776
O O13 0.500000 0.500000 0.085764
O O14 0.252332 0.500000 0.000000
#
# Coordination Sequence:
#
# PCOD8274333 Si02
#       5
#     8  16  16  16   8
#     4  12  24  39  56  79 108 140 176 216 264 320
#     4   9  16  27  45  71 104 141 179 217 260 314
#     4  12  24  39  58  80 106 139 179 221 268 318
#     4  11  21  34  52  77 111 146 181 222 269 320
#     4  11  23  41  63  83 105 134 175 226 270 316
#
# _framework density 17.733214
#
# number of rings (size 3 to 8) (size 9 to 14) (size 15 to 20)
#    0.000    1.125    1.250    9.000    0.000    2.000 
#    0.000    0.000    0.000    0.000    0.000    0.875 
#    0.000    7.000    0.000    0.000    0.000    0.000 
#
# Total GULP energy -396712.870621 kJ/mol
# GULP energy per Si atom -12397.277207 kJ/mol
# Density = 1.769285 g / cm^3
# Si number density = 17.733214 Si / 1000 Ang^3
#
#
#
# Elastic Constant Matrix: (Units=GPa)
#
#
# Indices 1 2 3 4 5 6 
#
# 1 122.0979 36.4670 29.5637 0.0000 0.0000 0.0000
# 2 36.4670 107.0969 55.4667 0.0000 0.0000 0.0000
# 3 29.5637 55.4667 137.9496 0.0000 0.0000 0.0000
# 4 0.0000 0.0000 0.0000 -35.7360 0.0000 0.0000
# 5 0.0000 0.0000 0.0000 0.0000 38.6641 0.0000
# 6 0.0000 0.0000 0.0000 0.0000 0.0000 27.1501
#
#
#
# Elastic Compliance Matrix: (Units=1/GPa)
#
#
# Indices 1 2 3 4 5 6 
#
# 1 0.009205 -0.002668 -0.000900 0.000000 0.000000 0.000000
# 2 -0.002668 0.012567 -0.004481 0.000000 0.000000 0.000000
# 3 -0.000900 -0.004481 0.009244 0.000000 0.000000 0.000000
# 4 0.000000 0.000000 0.000000 -0.027983 0.000000 0.000000
# 5 0.000000 0.000000 0.000000 0.000000 0.025864 0.000000
# 6 0.000000 0.000000 0.000000 0.000000 0.000000 0.036832
#
#
# Mechanical properties :
#
#
# Convention : Reuss Voigt Hill
#
# Bulk Modulus (GPa) = 67.03756 67.79324 67.41540
# Shear Modulus (GPa) = 57.60448 22.39209 39.99829
#
# Velocity S-wave (km/s) = 5.70565 3.55733 4.75442
# Velocity P-wave (km/s) = 9.01617 7.42868 8.26065
#
# Compressibility (1/GPa) = 0.01491701
#
# Stress axis : x y z
#
# Youngs Moduli (GPa) = 108.63697 79.57573 108.18332
#
# Poissons Ratio (x) = 0.21233 0.09735
# Poissons Ratio (y) = 0.28988 0.48476
# Poissons Ratio (z) = 0.09776 0.35658
#
# Static dielectric constant tensor:
#      x y z
#    x 3.553010 0.000000 0.000000 
#    y 0.000000 3.093890 0.000000 
#    z 0.000000 0.000000 3.856900 
# 
# 
# High freq. dielectric constant tensor:
#      x y z
#    x 1.712120 0.000000 0.000000 
#    y 0.000000 1.642280 0.000000 
#    z 0.000000 0.000000 1.706430 
# 
# From -- ./inp_files/49420.got.cif
#   From: 2010.03.12/outbox.cif.g09.slc.cpg/sg65_25_cif.got.tgz:49420.got - 2010.04.10 20:52:16.
