data_PCOD8274255
_publ_section_title
;
Structure prediction by ZEFSAII (Michael W. Deem and Ramdas Pophale) SiO2 
 PCOD8274255
Probable space group: C M M M
;
_chemical_formula_sum "Si O2"
_cell_formula_units_Z 104
_cell_length_a 16.555173
_cell_length_b 16.512741
_cell_length_c 26.937975
_cell_angle_alpha 90.000000
_cell_angle_beta 90.000000
_cell_angle_gamma 90.000000
_cell_volume 7364.068813
_symmetry_space_group_name_H-M "C M M M"
_symmetry_group_IT_number 65
_symmetry_cell_setting 'orthorhombic'
loop_
_space_group_symop_operation_xyz
x,y,z
-x,-y,z
x,-y,-z
-x,y,-z
-x,-y,-z
x,y,-z
-x,y,z
x,-y,z
1/2+x,1/2+y,z
1/2-x,1/2-y,z
1/2+x,1/2-y,-z
1/2-x,1/2+y,-z
1/2-x,1/2-y,-z
1/2+x,1/2+y,-z
1/2-x,1/2+y,z
1/2+x,1/2-y,z
loop_
_atom_site_type_symbol
_atom_site_label
_atom_site_fract_x
_atom_site_fract_y
_atom_site_fract_z
Si Si1 0.815945 0.817410 0.247501
Si Si2 0.278498 0.906811 0.328543
Si Si3 0.593579 0.403689 0.839993
Si Si4 0.404373 0.404031 0.500000
Si Si5 0.904261 0.909472 0.947550
Si Si6 0.813924 0.816183 0.411171
Si Si7 0.593196 0.774934 0.327687
O O1 0.750000 0.750000 0.233049
O O2 0.776631 0.887220 0.281072
O O3 0.850370 0.857169 0.198256
O O4 0.888326 0.777453 0.278730
O O5 0.233852 0.882149 0.379072
O O6 0.362653 0.860515 0.323771
O O7 0.299600 0.000000 0.330066
O O8 0.500000 0.382584 0.829798
O O9 0.606711 0.500000 0.835962
O O10 0.622219 0.370597 0.894808
O O11 0.387827 0.500000 0.500000
O O12 0.500000 0.386061 0.500000
O O13 0.362991 0.363223 0.452810
O O14 0.000000 0.914064 0.946004
O O15 0.868986 0.000000 0.949322
O O16 0.876949 0.865382 0.000000
O O17 0.750000 0.750000 0.432886
O O18 0.878455 0.771540 0.376677
O O19 0.500000 0.793473 0.331662
#
# Coordination Sequence:
#
# PCOD8274255 Si02
#       7
#    16  16  16   8  16  16  16
#     4   9  17  27  38  53  77 107 129 148 182 229
#     4   9  17  29  44  60  78 101 128 157 189 223
#     4   9  15  22  36  57  75  93 123 161 192 218
#     4  11  21  30  44  66  87 105 128 158 186 215
#     4   7  10  17  29  47  71  94 116 148 190 227
#     4   9  18  32  47  61  80 106 130 153 186 227
#     4   9  17  29  44  60  78 101 128 157 189 223
#
# _framework density 14.122627
#
# number of rings (size 3 to 8) (size 9 to 14) (size 15 to 20)
#    0.000    3.154    0.000    5.308    0.000    0.308 
#    0.000    0.000    0.000    7.846    0.000    0.000 
#    0.000   11.077    0.000    0.000    0.000    0.000 
#
# Total GULP energy -644192.669255 kJ/mol
# GULP energy per Si atom -12388.320563 kJ/mol
# Density = 1.409048 g / cm^3
# Si number density = 14.122627 Si / 1000 Ang^3
#
#
#
# Elastic Constant Matrix: (Units=GPa)
#
#
# Indices 1 2 3 4 5 6 
#
# 1 81.4576 36.2757 46.6343 0.0000 0.0000 0.0000
# 2 36.2757 81.1958 47.4367 0.0000 0.0000 0.0000
# 3 46.6343 47.4367 118.6397 0.0000 0.0000 0.0000
# 4 0.0000 0.0000 0.0000 16.9749 0.0000 0.0000
# 5 0.0000 0.0000 0.0000 0.0000 17.5058 0.0000
# 6 0.0000 0.0000 0.0000 0.0000 0.0000 15.3902
#
#
#
# Elastic Compliance Matrix: (Units=1/GPa)
#
#
# Indices 1 2 3 4 5 6 
#
# 1 0.017202 -0.004873 -0.004813 0.000000 0.000000 0.000000
# 2 -0.004873 0.017450 -0.005062 0.000000 0.000000 0.000000
# 3 -0.004813 -0.005062 0.012345 0.000000 0.000000 0.000000
# 4 0.000000 0.000000 0.000000 0.058911 0.000000 0.000000
# 5 0.000000 0.000000 0.000000 0.000000 0.057124 0.000000
# 6 0.000000 0.000000 0.000000 0.000000 0.000000 0.064977
#
#
# Mechanical properties :
#
#
# Convention : Reuss Voigt Hill
#
# Bulk Modulus (GPa) = 57.14074 60.22071 58.68073
# Shear Modulus (GPa) = 18.98698 20.03726 19.51212
#
# Velocity S-wave (km/s) = 3.67063 3.77079 3.72105
# Velocity P-wave (km/s) = 7.64938 7.85445 7.75259
#
# Compressibility (1/GPa) = 0.01750065
#
# Stress axis : x y z
#
# Youngs Moduli (GPa) = 58.13238 57.30534 81.00650
#
# Poissons Ratio (x) = 0.27927 0.38990
# Poissons Ratio (y) = 0.28330 0.41003
# Poissons Ratio (z) = 0.27980 0.29006
#
# Static dielectric constant tensor:
#      x y z
#    x 2.570550 0.000000 0.000000 
#    y 0.000000 2.545900 0.000000 
#    z 0.000000 0.000000 3.015340 
# 
# 
# High freq. dielectric constant tensor:
#      x y z
#    x 1.520930 0.000000 0.000000 
#    y 0.000000 1.519090 0.000000 
#    z 0.000000 0.000000 1.549450 
# 
# From -- ./inp_files/74945.got.cif
#   From: 2010.03.12/outbox.cif.g09.slc.cpg/sg65_38_cif.got.tgz:74945.got - 2010.04.10 20:52:16.
