data_PCOD8274155
_publ_section_title
;
Structure prediction by ZEFSAII (Michael W. Deem and Ramdas Pophale) SiO2 
 PCOD8274155
Probable space group: C M M M
;
_chemical_formula_sum "Si O2"
_cell_formula_units_Z 88
_cell_length_a 23.908456
_cell_length_b 16.456886
_cell_length_c 15.730943
_cell_angle_alpha 90.000000
_cell_angle_beta 90.000000
_cell_angle_gamma 90.000000
_cell_volume 6189.476930
_symmetry_space_group_name_H-M "C M M M"
_symmetry_group_IT_number 65
_symmetry_cell_setting 'orthorhombic'
loop_
_space_group_symop_operation_xyz
x,y,z
-x,-y,z
x,-y,-z
-x,y,-z
-x,-y,-z
x,y,-z
-x,y,z
x,-y,z
1/2+x,1/2+y,z
1/2-x,1/2-y,z
1/2+x,1/2-y,-z
1/2-x,1/2+y,-z
1/2-x,1/2-y,-z
1/2+x,1/2+y,-z
1/2-x,1/2+y,z
1/2+x,1/2-y,z
loop_
_atom_site_type_symbol
_atom_site_label
_atom_site_fract_x
_atom_site_fract_y
_atom_site_fract_z
Si Si1 0.124569 0.172198 0.341210
Si Si2 0.362314 0.148564 0.398820
Si Si3 0.066077 0.907314 0.500000
Si Si4 0.259573 0.654736 0.593397
Si Si5 0.062900 0.500000 0.399022
Si Si6 0.934936 0.094048 0.000000
Si Si7 0.934044 0.095474 0.815964
O O1 0.123198 0.269430 0.348914
O O2 0.087699 0.135559 0.415818
O O3 0.188111 0.136840 0.345007
O O4 0.099679 0.148292 0.251070
O O5 0.365865 0.164939 0.500000
O O6 0.299459 0.116920 0.375126
O O7 0.405524 0.080507 0.366860
O O8 0.000000 0.900293 0.500000
O O9 0.086247 0.000000 0.500000
O O10 0.275361 0.620126 0.500000
O O11 0.250000 0.750000 0.585680
O O12 0.062477 0.500000 0.500000
O O13 0.000000 0.500000 0.362237
O O14 0.912191 0.127444 0.909296
O O15 0.000000 0.110460 0.000000
O O16 0.921766 0.000000 0.000000
O O17 0.000000 0.111077 0.805064
O O18 0.921387 0.000000 0.803247
#
# Coordination Sequence:
#
# PCOD8274155 Si02
#       7
#    16  16   8  16   8   8  16
#     4  11  17  28  42  60  81 114 145 171 206 247
#     4   9  17  31  44  58  78 110 145 182 215 245
#     4  11  22  30  33  51  91 123 140 162 195 245
#     4   8  14  27  43  55  76 106 143 177 202 236
#     4   9  18  30  42  58  78 101 141 191 224 248
#     4   7  12  26  44  56  75 111 141 173 214 238
#     4   9  17  28  41  60  86 112 143 175 204 243
#
# _framework density 14.217679
#
# number of rings (size 3 to 8) (size 9 to 14) (size 15 to 20)
#    0.000    2.818    1.818    3.273    0.000    2.909 
#    3.273    0.000    0.000    0.000    0.000    5.727 
#    0.000    0.727    0.000    4.091    0.000    0.000 
#
# Total GULP energy -545126.656566 kJ/mol
# GULP energy per Si atom -12389.242195 kJ/mol
# Density = 1.418532 g / cm^3
# Si number density = 14.217679 Si / 1000 Ang^3
#
#
#
# Elastic Constant Matrix: (Units=GPa)
#
#
# Indices 1 2 3 4 5 6 
#
# 1 96.7442 44.5649 43.8462 0.0000 0.0000 0.0000
# 2 44.5649 63.8895 35.7174 0.0000 0.0000 0.0000
# 3 43.8462 35.7174 104.4133 0.0000 0.0000 0.0000
# 4 0.0000 0.0000 0.0000 16.3675 0.0000 0.0000
# 5 0.0000 0.0000 0.0000 0.0000 9.2902 0.0000
# 6 0.0000 0.0000 0.0000 0.0000 0.0000 19.3151
#
#
#
# Elastic Compliance Matrix: (Units=1/GPa)
#
#
# Indices 1 2 3 4 5 6 
#
# 1 0.016283 -0.009317 -0.003651 0.000000 0.000000 0.000000
# 2 -0.009317 0.024684 -0.004531 0.000000 0.000000 0.000000
# 3 -0.003651 -0.004531 0.012660 0.000000 0.000000 0.000000
# 4 0.000000 0.000000 0.000000 0.061097 0.000000 0.000000
# 5 0.000000 0.000000 0.000000 0.000000 0.107640 0.000000
# 6 0.000000 0.000000 0.000000 0.000000 0.000000 0.051773
#
#
# Mechanical properties :
#
#
# Convention : Reuss Voigt Hill
#
# Bulk Modulus (GPa) = 53.67805 57.03377 55.35591
# Shear Modulus (GPa) = 15.85564 18.38911 17.12238
#
# Velocity S-wave (km/s) = 3.34309 3.60029 3.47407
# Velocity P-wave (km/s) = 7.26210 7.58185 7.42370
#
# Compressibility (1/GPa) = 0.01862959
#
# Stress axis : x y z
#
# Youngs Moduli (GPa) = 61.41437 40.51174 78.98656
#
# Poissons Ratio (x) = 0.37745 0.28834
# Poissons Ratio (y) = 0.57220 0.35792
# Poissons Ratio (z) = 0.22419 0.18358
#
# Static dielectric constant tensor:
#      x y z
#    x 3.032250 0.000000 0.000000 
#    y 0.000000 2.652820 0.000000 
#    z 0.000000 0.000000 2.778490 
# 
# 
# High freq. dielectric constant tensor:
#      x y z
#    x 1.546720 0.000000 0.000000 
#    y 0.000000 1.525340 0.000000 
#    z 0.000000 0.000000 1.503620 
# 
# From -- ./inp_files/45891.got.cif
#   From: 2010.03.12/outbox.cif.g09.slc.cpg/sg65_23_cif.got.tgz:45891.got - 2010.04.10 20:52:16.
