data_PCOD8274487
_publ_section_title
;
Structure prediction by ZEFSAII (Michael W. Deem and Ramdas Pophale) SiO2 
 PCOD8274487
Probable space group: C M M M
;
_chemical_formula_sum "Si O2"
_cell_formula_units_Z 112
_cell_length_a 16.555785
_cell_length_b 23.924080
_cell_length_c 14.120788
_cell_angle_alpha 90.000000
_cell_angle_beta 90.000000
_cell_angle_gamma 90.000000
_cell_volume 5592.988891
_symmetry_space_group_name_H-M "C M M M"
_symmetry_group_IT_number 65
_symmetry_cell_setting 'orthorhombic'
loop_
_space_group_symop_operation_xyz
x,y,z
-x,-y,z
x,-y,-z
-x,y,-z
-x,-y,-z
x,y,-z
-x,y,z
x,-y,z
1/2+x,1/2+y,z
1/2-x,1/2-y,z
1/2+x,1/2-y,-z
1/2-x,1/2+y,-z
1/2-x,1/2-y,-z
1/2+x,1/2+y,-z
1/2-x,1/2+y,z
1/2+x,1/2-y,z
loop_
_atom_site_type_symbol
_atom_site_label
_atom_site_fract_x
_atom_site_fract_y
_atom_site_fract_z
Si Si1 0.591290 0.937383 0.140056
Si Si2 0.172160 0.672591 0.895347
Si Si3 0.679020 0.656109 0.229221
Si Si4 0.591061 0.937720 0.362602
Si Si5 0.202402 0.338955 0.395197
Si Si6 0.591871 0.765832 0.266069
Si Si7 0.405535 0.435461 0.107560
O O1 0.500000 0.927829 0.103304
O O2 0.652392 0.893405 0.093584
O O3 0.594835 0.928141 0.251341
O O4 0.619686 0.000000 0.112639
O O5 0.257932 0.682709 0.845136
O O6 0.102527 0.701091 0.832610
O O7 0.174604 0.699448 0.000000
O O8 0.722330 0.643385 0.329323
O O9 0.608686 0.700729 0.247467
O O10 0.642887 0.599757 0.185388
O O11 0.500000 0.928888 0.398836
O O12 0.647462 0.893048 0.412418
O O13 0.620557 0.000000 0.389444
O O14 0.231800 0.319577 0.500000
O O15 0.152034 0.288706 0.346921
O O16 0.500000 0.773489 0.300475
O O17 0.500000 0.425173 0.122830
O O18 0.383580 0.500000 0.124486
O O19 0.381654 0.417811 0.000000
#
# Coordination Sequence:
#
# PCOD8274487 Si02
#       7
#    16  16  16  16  16  16  16
#     4   9  17  31  51  75 108 149 189 228 269 322
#     4  11  22  35  53  80 115 152 188 230 284 346
#     4  11  23  39  60  83 116 151 188 237 294 352
#     4   9  17  32  55  81 111 148 190 233 276 328
#     4  11  23  39  60  85 116 152 191 241 297 349
#     4  11  24  41  59  81 107 144 194 242 290 346
#     4   9  19  38  65  95 123 153 194 241 288 341
#
# _framework density 20.025072000000002
#
# number of rings (size 3 to 8) (size 9 to 14) (size 15 to 20)
#    0.000    1.857    2.857    4.714    0.000    6.857 
#    0.000    1.429    0.000    1.286    0.000    1.000 
#    0.000    0.000    0.000    0.000    0.000    0.000 
#
# Total GULP energy -694350.565227 kJ/mol
# GULP energy per Si atom -12399.117236 kJ/mol
# Density = 1.997949 g / cm^3
# Si number density = 20.025072 Si / 1000 Ang^3
#
#
#
# Elastic Constant Matrix: (Units=GPa)
#
#
# Indices 1 2 3 4 5 6 
#
# 1 73.8169 30.6786 40.3765 0.0000 0.0000 0.0000
# 2 30.6786 92.8880 35.3405 0.0000 0.0000 0.0000
# 3 40.3765 35.3405 154.6074 0.0000 0.0000 0.0000
# 4 0.0000 0.0000 0.0000 8.5554 0.0000 0.0000
# 5 0.0000 0.0000 0.0000 0.0000 83.3635 0.0000
# 6 0.0000 0.0000 0.0000 0.0000 0.0000 35.1333
#
#
#
# Elastic Compliance Matrix: (Units=1/GPa)
#
#
# Indices 1 2 3 4 5 6 
#
# 1 0.017287 -0.004372 -0.003515 0.000000 0.000000 0.000000
# 2 -0.004372 0.012897 -0.001806 0.000000 0.000000 0.000000
# 3 -0.003515 -0.001806 0.007799 0.000000 0.000000 0.000000
# 4 0.000000 0.000000 0.000000 0.116885 0.000000 0.000000
# 5 0.000000 0.000000 0.000000 0.000000 0.011996 0.000000
# 6 0.000000 0.000000 0.000000 0.000000 0.000000 0.028463
#
#
# Mechanical properties :
#
#
# Convention : Reuss Voigt Hill
#
# Bulk Modulus (GPa) = 53.77587 59.34483 56.56035
# Shear Modulus (GPa) = 22.63346 39.73821 31.18584
#
# Velocity S-wave (km/s) = 3.36558 4.45952 3.95060
# Velocity P-wave (km/s) = 6.48193 7.49773 7.00826
#
# Compressibility (1/GPa) = 0.01859570
#
# Stress axis : x y z
#
# Youngs Moduli (GPa) = 57.84763 77.53848 128.22374
#
# Poissons Ratio (x) = 0.33900 0.45073
# Poissons Ratio (y) = 0.25291 0.23160
# Poissons Ratio (z) = 0.20334 0.14005
#
# Static dielectric constant tensor:
#      x y z
#    x 3.505010 0.000000 0.000000 
#    y 0.000000 3.713750 0.000000 
#    z 0.000000 0.000000 3.599600 
# 
# 
# High freq. dielectric constant tensor:
#      x y z
#    x 1.761800 0.000000 0.000000 
#    y 0.000000 1.783330 0.000000 
#    z 0.000000 0.000000 1.779560 
# 
# From -- ./inp_files/40818.got.cif
#   From: 2010.03.12/outbox.cif.g09.slc.cpg/sg65_21_cif.got.tgz:40818.got - 2010.04.10 20:52:16.
