data_PCOD8274097
_publ_section_title
;
Structure prediction by ZEFSAII (Michael W. Deem and Ramdas Pophale) SiO2 
 PCOD8274097
Probable space group: C M M M
;
_chemical_formula_sum "Si O2"
_cell_formula_units_Z 72
_cell_length_a 7.738595
_cell_length_b 25.486504
_cell_length_c 17.731552
_cell_angle_alpha 90.000000
_cell_angle_beta 90.000000
_cell_angle_gamma 90.000000
_cell_volume 3497.189256
_symmetry_space_group_name_H-M "C M M M"
_symmetry_group_IT_number 65
_symmetry_cell_setting 'orthorhombic'
loop_
_space_group_symop_operation_xyz
x,y,z
-x,-y,z
x,-y,-z
-x,y,-z
-x,-y,-z
x,y,-z
-x,y,z
x,-y,z
1/2+x,1/2+y,z
1/2-x,1/2-y,z
1/2+x,1/2-y,-z
1/2-x,1/2+y,-z
1/2-x,1/2-y,-z
1/2+x,1/2+y,-z
1/2-x,1/2+y,z
1/2+x,1/2-y,z
loop_
_atom_site_type_symbol
_atom_site_label
_atom_site_fract_x
_atom_site_fract_y
_atom_site_fract_z
Si Si1 0.702831 0.310667 0.208254
Si Si2 0.202368 0.500000 0.085745
Si Si3 0.500000 0.938402 0.412390
Si Si4 0.200179 0.888011 0.083918
Si Si5 0.698173 0.629581 0.356102
Si Si6 0.704346 0.190357 0.500000
O O1 0.500000 0.316659 0.206561
O O2 0.750000 0.250000 0.202268
O O3 0.783783 0.343500 0.137940
O O4 0.769899 0.336802 0.285380
O O5 0.273061 0.554182 0.121954
O O6 0.000000 0.500000 0.093768
O O7 0.268527 0.500000 0.000000
O O8 0.500000 0.919590 0.500000
O O9 0.673044 0.918940 0.370323
O O10 0.500000 0.000000 0.406830
O O11 0.000000 0.876381 0.075733
O O12 0.287013 0.885307 0.000000
O O13 0.500000 0.609664 0.344110
O O14 0.703899 0.667231 0.427209
O O15 0.500000 0.179410 0.500000
O O16 0.750000 0.250000 0.500000
#
# Coordination Sequence:
#
# PCOD8274097 Si02
#       6
#    16   8   8  16  16   8
#     4  10  23  38  57  86 117 155 198 245 304 364
#     4   9  17  31  53  83 111 140 187 242 295 347
#     4  11  24  44  68  94 125 163 209 252 300 367
#     4   9  18  36  58  80 112 154 198 244 299 362
#     4  11  22  41  62  89 126 159 202 251 302 361
#     4  12  22  36  60  92 121 157 206 248 298 365
#
# _framework density 20.587962999999998
#
# number of rings (size 3 to 8) (size 9 to 14) (size 15 to 20)
#    0.000    1.778    2.222    2.000    1.556    4.889 
#    2.000    1.111    0.000    0.000    0.000    0.000 
#    0.000    0.000    0.000    0.000    0.000    0.000 
#
# Total GULP energy -446225.323041 kJ/mol
# GULP energy per Si atom -12395.147862 kJ/mol
# Density = 2.054110 g / cm^3
# Si number density = 20.587963 Si / 1000 Ang^3
#
#
#
# Elastic Constant Matrix: (Units=GPa)
#
#
# Indices 1 2 3 4 5 6 
#
# 1 73.5512 34.1494 19.0545 0.0000 0.0000 0.0000
# 2 34.1494 165.4824 80.3040 0.0000 0.0000 0.0000
# 3 19.0545 80.3040 137.4505 0.0000 0.0000 0.0000
# 4 0.0000 0.0000 0.0000 29.5958 0.0000 0.0000
# 5 0.0000 0.0000 0.0000 0.0000 1.6592 0.0000
# 6 0.0000 0.0000 0.0000 0.0000 0.0000 27.1649
#
#
#
# Elastic Compliance Matrix: (Units=1/GPa)
#
#
# Indices 1 2 3 4 5 6 
#
# 1 0.015051 -0.002922 -0.000379 0.000000 0.000000 0.000000
# 2 -0.002922 0.009001 -0.004854 0.000000 0.000000 0.000000
# 3 -0.000379 -0.004854 0.010164 0.000000 0.000000 0.000000
# 4 0.000000 0.000000 0.000000 0.033789 0.000000 0.000000
# 5 0.000000 0.000000 0.000000 0.000000 0.602687 0.000000
# 6 0.000000 0.000000 0.000000 0.000000 0.000000 0.036812
#
#
# Mechanical properties :
#
#
# Convention : Reuss Voigt Hill
#
# Bulk Modulus (GPa) = 55.84815 71.49999 63.67407
# Shear Modulus (GPa) = 6.85135 27.88239 17.36687
#
# Velocity S-wave (km/s) = 1.82622 3.68408 2.90754
# Velocity P-wave (km/s) = 5.62426 7.27331 6.50128
#
# Compressibility (1/GPa) = 0.01790569
#
# Stress axis : x y z
#
# Youngs Moduli (GPa) = 66.44149 111.09445 98.38858
#
# Poissons Ratio (x) = 0.32460 0.03733
# Poissons Ratio (y) = 0.19413 0.47757
# Poissons Ratio (z) = 0.02521 0.53924
#
# Static dielectric constant tensor:
#      x y z
#    x 3.674240 0.000000 0.000000 
#    y 0.000000 1.112800 0.000000 
#    z 0.000000 0.000000 4.129730 
# 
# 
# High freq. dielectric constant tensor:
#      x y z
#    x 1.800520 0.000000 0.000000 
#    y 0.000000 1.809230 0.000000 
#    z 0.000000 0.000000 1.799200 
# 
# From -- ./inp_files/36655.got.cif
#   From: 2010.03.12/outbox.cif.g09.slc.cpg/sg65_19_cif.got.tgz:36655.got - 2010.04.10 20:52:16.
