data_PCOD8274698
_publ_section_title
;
Structure prediction by ZEFSAII (Michael W. Deem and Ramdas Pophale) SiO2 
 PCOD8274698
Probable space group: C M M M
;
_chemical_formula_sum "Si O2"
_cell_formula_units_Z 64
_cell_length_a 27.169964
_cell_length_b 13.137204
_cell_length_c 8.797510
_cell_angle_alpha 90.000000
_cell_angle_beta 90.000000
_cell_angle_gamma 90.000000
_cell_volume 3140.159992
_symmetry_space_group_name_H-M "C M M M"
_symmetry_group_IT_number 65
_symmetry_cell_setting 'orthorhombic'
loop_
_space_group_symop_operation_xyz
x,y,z
-x,-y,z
x,-y,-z
-x,y,-z
-x,-y,-z
x,y,-z
-x,y,z
x,-y,z
1/2+x,1/2+y,z
1/2-x,1/2-y,z
1/2+x,1/2-y,-z
1/2-x,1/2+y,-z
1/2-x,1/2-y,-z
1/2+x,1/2+y,-z
1/2-x,1/2+y,z
1/2+x,1/2-y,z
loop_
_atom_site_type_symbol
_atom_site_label
_atom_site_fract_x
_atom_site_fract_y
_atom_site_fract_z
Si Si1 0.623650 0.383011 0.179186
Si Si2 0.410712 0.000000 0.818862
Si Si3 0.200292 0.500000 0.821819
Si Si4 0.556834 0.209849 0.325848
Si Si5 0.772322 0.143141 0.665216
O O1 0.608565 0.500000 0.218111
O O2 0.585921 0.303085 0.250463
O O3 0.677510 0.359313 0.241846
O O4 0.624592 0.365468 0.000000
O O5 0.354937 0.000000 0.757736
O O6 0.436112 0.102057 0.757305
O O7 0.414840 0.000000 0.000000
O O8 0.229279 0.596723 0.764905
O O9 0.197934 0.500000 0.000000
O O10 0.574204 0.198427 0.500000
O O11 0.500000 0.240083 0.315162
O O12 0.780685 0.089858 0.500000
O O13 0.750000 0.250000 0.630631
#
# Coordination Sequence:
#
# PCOD8274698 Si02
#       5
#    16   8   8  16  16
#     4  11  24  42  65  94 129 170 216 269 325 384
#     4  11  24  42  67  98 132 169 213 270 329 388
#     4  11  23  38  58  89 125 163 204 248 307 374
#     4  11  25  44  67  95 128 169 217 271 330 390
#     4  11  23  38  60  90 124 165 210 257 310 373
#
# _framework density 20.381128
#
# number of rings (size 3 to 8) (size 9 to 14) (size 15 to 20)
#    0.000    1.000    1.250    4.875    0.000   13.500 
#    0.000    2.500    0.000    0.000    0.000    0.000 
#    0.000    0.000    0.000    0.000    0.000    0.000 
#
# Total GULP energy -396652.605641 kJ/mol
# GULP energy per Si atom -12395.393926 kJ/mol
# Density = 2.033474 g / cm^3
# Si number density = 20.381128 Si / 1000 Ang^3
#
#
#
# Elastic Constant Matrix: (Units=GPa)
#
#
# Indices 1 2 3 4 5 6 
#
# 1 106.9816 50.0121 55.4013 0.0000 0.0000 0.0000
# 2 50.0121 148.3398 55.5216 0.0000 0.0000 0.0000
# 3 55.4013 55.5216 114.5229 0.0000 0.0000 0.0000
# 4 0.0000 0.0000 0.0000 40.3606 0.0000 0.0000
# 5 0.0000 0.0000 0.0000 0.0000 36.5159 0.0000
# 6 0.0000 0.0000 0.0000 0.0000 0.0000 50.7102
#
#
#
# Elastic Compliance Matrix: (Units=1/GPa)
#
#
# Indices 1 2 3 4 5 6 
#
# 1 0.013199 -0.002517 -0.005165 0.000000 0.000000 0.000000
# 2 -0.002517 0.008716 -0.003008 0.000000 0.000000 0.000000
# 3 -0.005165 -0.003008 0.012689 0.000000 0.000000 0.000000
# 4 0.000000 0.000000 0.000000 0.024777 0.000000 0.000000
# 5 0.000000 0.000000 0.000000 0.000000 0.027385 0.000000
# 6 0.000000 0.000000 0.000000 0.000000 0.000000 0.019720
#
#
# Mechanical properties :
#
#
# Convention : Reuss Voigt Hill
#
# Bulk Modulus (GPa) = 75.62019 76.85712 76.23866
# Shear Modulus (GPa) = 37.80106 39.44463 38.62285
#
# Velocity S-wave (km/s) = 4.31131 4.40403 4.35792
# Velocity P-wave (km/s) = 7.87190 7.97825 7.92525
#
# Compressibility (1/GPa) = 0.01322398
#
# Stress axis : x y z
#
# Youngs Moduli (GPa) = 75.76593 114.73681 78.81072
#
# Poissons Ratio (x) = 0.28876 0.40704
# Poissons Ratio (y) = 0.19068 0.23706
# Poissons Ratio (z) = 0.39131 0.34512
#
# Static dielectric constant tensor:
#      x y z
#    x 3.795940 0.000000 0.000000 
#    y 0.000000 3.875800 0.000000 
#    z 0.000000 0.000000 3.954700 
# 
# 
# High freq. dielectric constant tensor:
#      x y z
#    x 1.803370 0.000000 0.000000 
#    y 0.000000 1.813650 0.000000 
#    z 0.000000 0.000000 1.818600 
# 
# From -- ./inp_files/13389.got.cif
#   From: 2010.03.12/outbox.cif.g09.slc.cpg/sg65_7_cif.got.tgz:13389.got - 2010.04.10 20:52:16.
