data_PCOD8274852
_publ_section_title
;
Structure prediction by ZEFSAII (Michael W. Deem and Ramdas Pophale) SiO2 
 PCOD8274852
Probable space group: C M M M
;
_chemical_formula_sum "Si O2"
_cell_formula_units_Z 80
_cell_length_a 9.201778
_cell_length_b 18.307852
_cell_length_c 25.762465
_cell_angle_alpha 90.000000
_cell_angle_beta 90.000000
_cell_angle_gamma 90.000000
_cell_volume 4340.068250
_symmetry_space_group_name_H-M "C M M M"
_symmetry_group_IT_number 65
_symmetry_cell_setting 'orthorhombic'
loop_
_space_group_symop_operation_xyz
x,y,z
-x,-y,z
x,-y,-z
-x,y,-z
-x,-y,-z
x,y,-z
-x,y,z
x,-y,z
1/2+x,1/2+y,z
1/2-x,1/2-y,z
1/2+x,1/2-y,-z
1/2-x,1/2+y,-z
1/2-x,1/2-y,-z
1/2+x,1/2+y,-z
1/2-x,1/2+y,z
1/2+x,1/2-y,z
loop_
_atom_site_type_symbol
_atom_site_label
_atom_site_fract_x
_atom_site_fract_y
_atom_site_fract_z
Si Si1 0.665583 0.915202 0.059981
Si Si2 0.668647 0.085661 0.232465
Si Si3 0.660310 0.086704 0.652006
Si Si4 0.337412 0.586798 0.556453
Si Si5 0.173125 0.827374 0.855305
O O1 0.500000 0.897148 0.077024
O O2 0.779428 0.868289 0.092391
O O3 0.697871 0.000000 0.069941
O O4 0.688055 0.895210 0.000000
O O5 0.500000 0.107804 0.223608
O O6 0.719992 0.106964 0.290825
O O7 0.775587 0.127385 0.194377
O O8 0.687131 0.000000 0.222398
O O9 0.500000 0.119353 0.645880
O O10 0.752718 0.121927 0.605129
O O11 0.655662 0.000000 0.646900
O O12 0.269554 0.608776 0.500000
O O13 0.500000 0.617227 0.559540
O O14 0.337423 0.500000 0.561492
O O15 0.250000 0.750000 0.853733
O O16 0.000000 0.818533 0.854614
#
# Coordination Sequence:
#
# PCOD8274852 Si02
#       5
#    16  16  16  16  16
#     4   9  19  38  63  87 111 140 171 204 247 298
#     4   9  18  34  54  74 100 133 168 210 259 308
#     4   8  14  24  39  60  85 117 157 198 242 293
#     4   8  13  20  30  48  79 118 155 193 240 290
#     4  12  25  38  54  77 106 139 174 213 256 301
#
# _framework density 18.43289
#
# number of rings (size 3 to 8) (size 9 to 14) (size 15 to 20)
#    0.000    2.800    0.000    4.800    0.000    5.200 
#    0.000    5.000    0.000    0.000    0.000    0.000 
#    0.000    0.800    0.000    2.600    0.000    5.800 
#
# Total GULP energy -495732.222166 kJ/mol
# GULP energy per Si atom -12393.305554 kJ/mol
# Density = 1.839094 g / cm^3
# Si number density = 18.432890 Si / 1000 Ang^3
#
#
#
# Elastic Constant Matrix: (Units=GPa)
#
#
# Indices 1 2 3 4 5 6 
#
# 1 120.7438 44.1885 76.8565 0.0000 0.0000 0.0000
# 2 44.1885 48.2537 43.9578 0.0000 0.0000 0.0000
# 3 76.8565 43.9578 149.9821 0.0000 0.0000 0.0000
# 4 0.0000 0.0000 0.0000 -3.7163 0.0000 0.0000
# 5 0.0000 0.0000 0.0000 0.0000 39.3109 0.0000
# 6 0.0000 0.0000 0.0000 0.0000 0.0000 26.7011
#
#
#
# Elastic Compliance Matrix: (Units=1/GPa)
#
#
# Indices 1 2 3 4 5 6 
#
# 1 0.014686 -0.008995 -0.004889 0.000000 0.000000 0.000000
# 2 -0.008995 0.033781 -0.005292 0.000000 0.000000 0.000000
# 3 -0.004889 -0.005292 0.010724 0.000000 0.000000 0.000000
# 4 0.000000 0.000000 0.000000 -0.269084 0.000000 0.000000
# 5 0.000000 0.000000 0.000000 0.000000 0.025438 0.000000
# 6 0.000000 0.000000 0.000000 0.000000 0.000000 0.037452
#
#
# Mechanical properties :
#
#
# Convention : Reuss Voigt Hill
#
# Bulk Modulus (GPa) = 47.98534 72.10946 60.04740
# Shear Modulus (GPa) = -49.16187 22.72425 -13.21881
#
# Velocity S-wave (km/s) = -5.16997 3.51495 -2.68084
# Velocity P-wave (km/s) = 3.09018 7.46177 4.80254
#
# Compressibility (1/GPa) = 0.02083970
#
# Stress axis : x y z
#
# Youngs Moduli (GPa) = 68.09207 29.60223 93.24940
#
# Poissons Ratio (x) = 0.26626 0.45594
# Poissons Ratio (y) = 0.61246 0.49345
# Poissons Ratio (z) = 0.33293 0.15665
#
# Static dielectric constant tensor:
#      x y z
#    x 3.484400 0.000000 0.000000 
#    y 0.000000 2.951340 0.000000 
#    z 0.000000 0.000000 3.756880 
# 
# 
# High freq. dielectric constant tensor:
#      x y z
#    x 1.705810 0.000000 0.000000 
#    y 0.000000 1.662740 0.000000 
#    z 0.000000 0.000000 1.738660 
# 
# From -- ./inp_files/72755.got.cif
#   From: 2010.03.12/outbox.cif.g09.slc.cpg/sg65_37_cif.got.tgz:72755.got - 2010.04.10 20:52:16.
