data_PCOD8274127
_publ_section_title
;
Structure prediction by ZEFSAII (Michael W. Deem and Ramdas Pophale) SiO2 
 PCOD8274127
Probable space group: C M M M
;
_chemical_formula_sum "Si O2"
_cell_formula_units_Z 48
_cell_length_a 10.697502
_cell_length_b 25.307497
_cell_length_c 8.745060
_cell_angle_alpha 90.000000
_cell_angle_beta 90.000000
_cell_angle_gamma 90.000000
_cell_volume 2367.523857
_symmetry_space_group_name_H-M "C M M M"
_symmetry_group_IT_number 65
_symmetry_cell_setting 'orthorhombic'
loop_
_space_group_symop_operation_xyz
x,y,z
-x,-y,z
x,-y,-z
-x,y,-z
-x,-y,-z
x,y,-z
-x,y,z
x,-y,z
1/2+x,1/2+y,z
1/2-x,1/2-y,z
1/2+x,1/2-y,-z
1/2-x,1/2+y,-z
1/2-x,1/2-y,-z
1/2+x,1/2+y,-z
1/2-x,1/2+y,z
1/2+x,1/2-y,z
loop_
_atom_site_type_symbol
_atom_site_label
_atom_site_fract_x
_atom_site_fract_y
_atom_site_fract_z
Si Si1 0.144064 0.500000 0.833116
Si Si2 0.255040 0.604649 0.182480
Si Si3 0.356140 0.208494 0.320318
Si Si4 0.500000 0.438009 0.681298
O O1 0.184601 0.446755 0.748694
O O2 0.000000 0.500000 0.854989
O O3 0.210023 0.500000 0.000000
O O4 0.176330 0.654364 0.237448
O O5 0.389938 0.598662 0.256021
O O6 0.262308 0.606893 0.000000
O O7 0.345094 0.199790 0.500000
O O8 0.500000 0.225714 0.277626
O O9 0.250000 0.250000 0.264875
O O10 0.500000 0.500000 0.740259
O O11 0.500000 0.438286 0.500000
#
# Coordination Sequence:
#
# PCOD8274127 Si02
#       4
#     8  16  16   8
#     4   9  18  33  55  84 120 159 194 243 312 373
#     4  11  22  38  62  91 126 162 207 260 314 373
#     4  10  23  43  65  91 125 168 214 261 317 378
#     4  11  23  39  61  91 129 169 209 252 311 382
#
# _framework density 20.274346999999999
#
# number of rings (size 3 to 8) (size 9 to 14) (size 15 to 20)
#    0.000    1.667    1.667    2.500    2.333    3.333 
#    0.000    0.000    0.000    4.000    0.000    0.000 
#    0.000    0.000    0.000    0.000    0.000    0.000 
#
# Total GULP energy -297344.716402 kJ/mol
# GULP energy per Si atom -12389.363183 kJ/mol
# Density = 2.022820 g / cm^3
# Si number density = 20.274347 Si / 1000 Ang^3
#
#
#
# Elastic Constant Matrix: (Units=GPa)
#
#
# Indices 1 2 3 4 5 6 
#
# 1 158.4019 72.7809 39.1239 0.0000 0.0000 0.0000
# 2 72.7809 140.2714 43.9499 0.0000 0.0000 0.0000
# 3 39.1239 43.9499 43.9628 0.0000 0.0000 0.0000
# 4 0.0000 0.0000 0.0000 34.3190 0.0000 0.0000
# 5 0.0000 0.0000 0.0000 0.0000 22.4612 0.0000
# 6 0.0000 0.0000 0.0000 0.0000 0.0000 50.4372
#
#
#
# Elastic Compliance Matrix: (Units=1/GPa)
#
#
# Indices 1 2 3 4 5 6 
#
# 1 0.008943 -0.003126 -0.004834 0.000000 0.000000 0.000000
# 2 -0.003126 0.011473 -0.008688 0.000000 0.000000 0.000000
# 3 -0.004834 -0.008688 0.035734 0.000000 0.000000 0.000000
# 4 0.000000 0.000000 0.000000 0.029138 0.000000 0.000000
# 5 0.000000 0.000000 0.000000 0.000000 0.044521 0.000000
# 6 0.000000 0.000000 0.000000 0.000000 0.000000 0.019827
#
#
# Mechanical properties :
#
#
# Convention : Reuss Voigt Hill
#
# Bulk Modulus (GPa) = 43.75480 72.70506 58.22993
# Shear Modulus (GPa) = 26.23986 33.89558 30.06772
#
# Velocity S-wave (km/s) = 3.60146 4.09326 3.85521
# Velocity P-wave (km/s) = 6.23877 7.63401 6.97138
#
# Compressibility (1/GPa) = 0.02285464
#
# Stress axis : x y z
#
# Youngs Moduli (GPa) = 111.81728 87.16197 27.98461
#
# Poissons Ratio (x) = 0.27243 0.13528
# Poissons Ratio (y) = 0.34950 0.24313
# Poissons Ratio (z) = 0.54054 0.75726
#
# Static dielectric constant tensor:
#      x y z
#    x 3.989070 0.000000 0.000000 
#    y 0.000000 3.833510 0.000000 
#    z 0.000000 0.000000 3.570000 
# 
# 
# High freq. dielectric constant tensor:
#      x y z
#    x 1.810330 0.000000 0.000000 
#    y 0.000000 1.798730 0.000000 
#    z 0.000000 0.000000 1.773710 
# 
# From -- ./inp_files/4068.got.cif
#   From: 2010.03.12/outbox.cif.g09.slc.cpg/sg65_3_cif.got.tgz:4068.got - 2010.04.10 20:52:16.
