data_PCOD8274630
_publ_section_title
;
Structure prediction by ZEFSAII (Michael W. Deem and Ramdas Pophale) SiO2 
 PCOD8274630
Probable space group: C M M M
;
_chemical_formula_sum "Si O2"
_cell_formula_units_Z 52
_cell_length_a 13.660081
_cell_length_b 16.955644
_cell_length_c 11.146870
_cell_angle_alpha 90.000000
_cell_angle_beta 90.000000
_cell_angle_gamma 90.000000
_cell_volume 2581.787539
_symmetry_space_group_name_H-M "C M M M"
_symmetry_group_IT_number 65
_symmetry_cell_setting 'orthorhombic'
loop_
_space_group_symop_operation_xyz
x,y,z
-x,-y,z
x,-y,-z
-x,y,-z
-x,-y,-z
x,y,-z
-x,y,z
x,-y,z
1/2+x,1/2+y,z
1/2-x,1/2-y,z
1/2+x,1/2-y,-z
1/2-x,1/2+y,-z
1/2-x,1/2-y,-z
1/2+x,1/2+y,-z
1/2-x,1/2+y,z
1/2+x,1/2-y,z
loop_
_atom_site_type_symbol
_atom_site_label
_atom_site_fract_x
_atom_site_fract_y
_atom_site_fract_z
Si Si1 0.823002 0.825901 0.500000
Si Si2 0.110315 0.804366 0.758306
Si Si3 0.612465 0.000000 0.252705
Si Si4 0.802541 0.350844 0.861185
Si Si5 0.774235 0.500000 0.500000
O O1 0.750000 0.750000 0.500000
O O2 0.890671 0.818982 0.383608
O O3 0.781185 0.915665 0.500000
O O4 0.145844 0.715902 0.782481
O O5 0.188040 0.861789 0.824559
O O6 0.000000 0.818693 0.807138
O O7 0.639155 0.928416 0.167417
O O8 0.663579 0.000000 0.379998
O O9 0.500000 0.000000 0.283797
O O10 0.810662 0.328241 0.000000
#
# Coordination Sequence:
#
# PCOD8274630 Si02
#       5
#     8  16   8  16   4
#     4  12  21  42  67  94 130 168 213 276 331 382
#     4  11  22  40  65  92 124 168 215 264 319 378
#     4  12  24  42  67  95 127 165 209 265 331 390
#     4  11  24  41  63  94 131 169 213 265 318 384
#     4  12  23  44  69  92 132 170 209 272 333 382
#
# _framework density 20.141082999999998
#
# number of rings (size 3 to 8) (size 9 to 14) (size 15 to 20)
#    0.000    0.615    6.154    3.923    0.000    4.923 
#    0.000    8.462    0.000    1.846    0.000    0.000 
#    0.000    0.000    0.000    0.000    0.000    0.000 
#
# Total GULP energy -322246.514298 kJ/mol
# GULP energy per Si atom -12394.096704 kJ/mol
# Density = 2.009524 g / cm^3
# Si number density = 20.141083 Si / 1000 Ang^3
#
#
#
# Elastic Constant Matrix: (Units=GPa)
#
#
# Indices 1 2 3 4 5 6 
#
# 1 134.4000 30.8037 39.7241 0.0000 0.0000 0.0000
# 2 30.8037 109.7541 40.7975 0.0000 0.0000 0.0000
# 3 39.7241 40.7975 134.5178 0.0000 0.0000 0.0000
# 4 0.0000 0.0000 0.0000 -35.0102 0.0000 0.0000
# 5 0.0000 0.0000 0.0000 0.0000 15.6044 0.0000
# 6 0.0000 0.0000 0.0000 0.0000 0.0000 14.4077
#
#
#
# Elastic Compliance Matrix: (Units=1/GPa)
#
#
# Indices 1 2 3 4 5 6 
#
# 1 0.008399 -0.001618 -0.001990 0.000000 0.000000 0.000000
# 2 -0.001618 0.010581 -0.002731 0.000000 0.000000 0.000000
# 3 -0.001990 -0.002731 0.008850 0.000000 0.000000 0.000000
# 4 0.000000 0.000000 0.000000 -0.028563 0.000000 0.000000
# 5 0.000000 0.000000 0.000000 0.000000 0.064085 0.000000
# 6 0.000000 0.000000 0.000000 0.000000 0.000000 0.069407
#
#
# Mechanical properties :
#
#
# Convention : Reuss Voigt Hill
#
# Bulk Modulus (GPa) = 65.99623 66.81361 66.40492
# Shear Modulus (GPa) = 33.22548 16.82349 25.02448
#
# Velocity S-wave (km/s) = 4.06598 2.89326 3.52868
# Velocity P-wave (km/s) = 7.40817 6.66379 7.04582
#
# Compressibility (1/GPa) = 0.01515238
#
# Stress axis : x y z
#
# Youngs Moduli (GPa) = 119.05678 94.51295 112.99575
#
# Poissons Ratio (x) = 0.15290 0.22483
# Poissons Ratio (y) = 0.19260 0.30862
# Poissons Ratio (z) = 0.23689 0.25814
#
# Static dielectric constant tensor:
#      x y z
#    x 3.741680 0.000000 0.000000 
#    y 0.000000 3.845280 0.000000 
#    z 0.000000 0.000000 3.802610 
# 
# 
# High freq. dielectric constant tensor:
#      x y z
#    x 1.784060 0.000000 0.000000 
#    y 0.000000 1.783830 0.000000 
#    z 0.000000 0.000000 1.805440 
# 
# From -- ./inp_files/23561.got.cif
#   From: 2010.03.12/outbox.cif.g09.slc.cpg/sg65_12_cif.got.tgz:23561.got - 2010.04.10 20:52:16.
