data_PCOD8274587
_publ_section_title
;
Structure prediction by ZEFSAII (Michael W. Deem and Ramdas Pophale) SiO2 
 PCOD8274587
Probable space group: C M M M
;
_chemical_formula_sum "Si O2"
_cell_formula_units_Z 64
_cell_length_a 7.690404
_cell_length_b 17.911193
_cell_length_c 22.261843
_cell_angle_alpha 90.000000
_cell_angle_beta 90.000000
_cell_angle_gamma 90.000000
_cell_volume 3066.442210
_symmetry_space_group_name_H-M "C M M M"
_symmetry_group_IT_number 65
_symmetry_cell_setting 'orthorhombic'
loop_
_space_group_symop_operation_xyz
x,y,z
-x,-y,z
x,-y,-z
-x,y,-z
-x,-y,-z
x,y,-z
-x,y,z
x,-y,z
1/2+x,1/2+y,z
1/2-x,1/2-y,z
1/2+x,1/2-y,-z
1/2-x,1/2+y,-z
1/2-x,1/2-y,-z
1/2+x,1/2+y,-z
1/2-x,1/2+y,z
1/2+x,1/2-y,z
loop_
_atom_site_type_symbol
_atom_site_label
_atom_site_fract_x
_atom_site_fract_y
_atom_site_fract_z
Si Si1 0.500000 0.413865 0.570770
Si Si2 0.704712 0.163538 0.643917
Si Si3 0.293803 0.916467 0.233724
Si Si4 0.300395 0.587489 0.000000
Si Si5 0.804178 0.666046 0.119676
O O1 0.500000 0.500000 0.590346
O O2 0.500000 0.403906 0.500000
O O3 0.677358 0.375980 0.593993
O O4 0.500000 0.150311 0.629731
O O5 0.750000 0.250000 0.645147
O O6 0.760774 0.129529 0.707738
O O7 0.500000 0.921921 0.228789
O O8 0.208230 0.874775 0.175565
O O9 0.215004 0.000000 0.237070
O O10 0.213149 0.619926 0.058983
O O11 0.270418 0.500000 0.000000
O O12 0.500000 0.610985 0.000000
O O13 0.750000 0.750000 0.107659
O O14 0.000000 0.668119 0.140430
#
# Coordination Sequence:
#
# PCOD8274587 Si02
#       5
#     8  16  16   8  16
#     4  11  26  46  68 100 137 174 224 274 324 394
#     4  11  22  42  68  99 135 176 219 274 328 389
#     4   9  19  36  61  91 124 161 207 258 315 377
#     4  11  24  41  58  81 115 149 198 255 310 375
#     4  11  22  38  60  85 117 158 201 252 308 372
#
# _framework density 20.871092999999998
#
# number of rings (size 3 to 8) (size 9 to 14) (size 15 to 20)
#    0.000    1.500    1.250    3.750    0.000    4.500 
#    4.500    1.250    0.000    0.000    0.000    0.000 
#    0.000    0.000    0.000    0.000    0.000    0.000 
#
# Total GULP energy -396774.712905 kJ/mol
# GULP energy per Si atom -12399.209778 kJ/mol
# Density = 2.082359 g / cm^3
# Si number density = 20.871093 Si / 1000 Ang^3
#
#
#
# Elastic Constant Matrix: (Units=GPa)
#
#
# Indices 1 2 3 4 5 6 
#
# 1 83.8080 34.2290 32.7414 0.0000 0.0000 0.0000
# 2 34.2290 107.0843 44.8604 0.0000 0.0000 0.0000
# 3 32.7414 44.8604 122.5337 0.0000 0.0000 0.0000
# 4 0.0000 0.0000 0.0000 36.0743 0.0000 0.0000
# 5 0.0000 0.0000 0.0000 0.0000 38.8098 0.0000
# 6 0.0000 0.0000 0.0000 0.0000 0.0000 -7.7482
#
#
#
# Elastic Compliance Matrix: (Units=1/GPa)
#
#
# Indices 1 2 3 4 5 6 
#
# 1 0.014367 -0.003525 -0.002549 0.000000 0.000000 0.000000
# 2 -0.003525 0.011895 -0.003413 0.000000 0.000000 0.000000
# 3 -0.002549 -0.003413 0.010092 0.000000 0.000000 0.000000
# 4 0.000000 0.000000 0.000000 0.027721 0.000000 0.000000
# 5 0.000000 0.000000 0.000000 0.000000 0.025767 0.000000
# 6 0.000000 0.000000 0.000000 0.000000 0.000000 -0.129062
#
#
# Mechanical properties :
#
#
# Convention : Reuss Voigt Hill
#
# Bulk Modulus (GPa) = 57.53372 59.67638 58.60505
# Shear Modulus (GPa) = -345.90512 26.86685 -159.51913
#
# Velocity S-wave (km/s) = -12.88774 3.59176 -8.75195
# Velocity P-wave (km/s) = 13.92237 6.77169 8.60164
#
# Compressibility (1/GPa) = 0.01738111
#
# Stress axis : x y z
#
# Youngs Moduli (GPa) = 69.60264 84.06965 99.09322
#
# Poissons Ratio (x) = 0.29633 0.25254
# Poissons Ratio (y) = 0.24533 0.33820
# Poissons Ratio (z) = 0.17738 0.28693
#
# Static dielectric constant tensor:
#      x y z
#    x 3.762760 0.000000 0.000000 
#    y 0.000000 3.816530 0.000000 
#    z 0.000000 0.000000 3.773820 
# 
# 
# High freq. dielectric constant tensor:
#      x y z
#    x 1.810230 0.000000 0.000000 
#    y 0.000000 1.838200 0.000000 
#    z 0.000000 0.000000 1.823280 
# 
# From -- ./inp_files/66754.got.cif
#   From: 2010.03.12/outbox.cif.g09.slc.cpg/sg65_34_cif.got.tgz:66754.got - 2010.04.10 20:52:16.
