data_PCOD8274668
_publ_section_title
;
Structure prediction by ZEFSAII (Michael W. Deem and Ramdas Pophale) SiO2 
 PCOD8274668
Probable space group: C M M M
;
_chemical_formula_sum "Si O2"
_cell_formula_units_Z 72
_cell_length_a 20.526789
_cell_length_b 21.225198
_cell_length_c 8.389595
_cell_angle_alpha 90.000000
_cell_angle_beta 90.000000
_cell_angle_gamma 90.000000
_cell_volume 3655.222047
_symmetry_space_group_name_H-M "C M M M"
_symmetry_group_IT_number 65
_symmetry_cell_setting 'orthorhombic'
loop_
_space_group_symop_operation_xyz
x,y,z
-x,-y,z
x,-y,-z
-x,y,-z
-x,-y,-z
x,y,-z
-x,y,z
x,-y,z
1/2+x,1/2+y,z
1/2-x,1/2-y,z
1/2+x,1/2-y,-z
1/2-x,1/2+y,-z
1/2-x,1/2-y,-z
1/2+x,1/2+y,-z
1/2-x,1/2+y,z
1/2+x,1/2-y,z
loop_
_atom_site_type_symbol
_atom_site_label
_atom_site_fract_x
_atom_site_fract_y
_atom_site_fract_z
Si Si1 0.625311 0.615073 0.681992
Si Si2 0.253119 0.928396 0.183367
Si Si3 0.194950 0.301093 0.315079
Si Si4 0.000000 0.930787 0.828882
Si Si5 0.075339 0.242358 0.814396
O O1 0.648985 0.608246 0.500000
O O2 0.676034 0.581583 0.799276
O O3 0.558872 0.580132 0.711733
O O4 0.612422 0.687719 0.719462
O O5 0.284460 0.873615 0.290461
O O6 0.271956 0.000000 0.238860
O O7 0.273253 0.919184 0.000000
O O8 0.183476 0.288269 0.500000
O O9 0.250000 0.250000 0.252571
O O10 0.124909 0.299202 0.223884
O O11 0.000000 0.000000 0.892127
O O12 0.000000 0.890874 0.000000
O O13 0.000000 0.253206 0.755482
O O14 0.074359 0.227578 0.000000
#
# Coordination Sequence:
#
# PCOD8274668 Si02
#       5
#    16  16  16   8  16
#     4  12  23  35  55  83 117 156 199 247 300 356
#     4  11  24  41  62  88 120 160 204 250 303 364
#     4  11  23  39  63  94 124 159 204 254 309 365
#     4  11  23  37  51  71 107 157 206 245 290 355
#     4  11  23  39  62  89 121 161 204 250 303 363
#
# _framework density 19.697846999999999
#
# number of rings (size 3 to 8) (size 9 to 14) (size 15 to 20)
#    0.000    0.778    3.333    5.000    0.000    7.556 
#    0.000    0.000    0.000    0.667    0.000    4.667 
#    0.000    0.000    0.000    0.000    0.000    0.000 
#
# Total GULP energy -446013.566272 kJ/mol
# GULP energy per Si atom -12389.265730 kJ/mol
# Density = 1.965301 g / cm^3
# Si number density = 19.697847 Si / 1000 Ang^3
#
#
#
# Elastic Constant Matrix: (Units=GPa)
#
#
# Indices 1 2 3 4 5 6 
#
# 1 84.5616 38.3301 18.6639 0.0000 0.0000 0.0000
# 2 38.3301 113.4358 17.8627 0.0000 0.0000 0.0000
# 3 18.6639 17.8627 71.4548 0.0000 0.0000 0.0000
# 4 0.0000 0.0000 0.0000 27.5653 0.0000 0.0000
# 5 0.0000 0.0000 0.0000 0.0000 28.4069 0.0000
# 6 0.0000 0.0000 0.0000 0.0000 0.0000 34.9581
#
#
#
# Elastic Compliance Matrix: (Units=1/GPa)
#
#
# Indices 1 2 3 4 5 6 
#
# 1 0.014433 -0.004459 -0.002655 0.000000 0.000000 0.000000
# 2 -0.004459 0.010554 -0.001474 0.000000 0.000000 0.000000
# 3 -0.002655 -0.001474 0.015057 0.000000 0.000000 0.000000
# 4 0.000000 0.000000 0.000000 0.036278 0.000000 0.000000
# 5 0.000000 0.000000 0.000000 0.000000 0.035203 0.000000
# 6 0.000000 0.000000 0.000000 0.000000 0.000000 0.028606
#
#
# Mechanical properties :
#
#
# Convention : Reuss Voigt Hill
#
# Bulk Modulus (GPa) = 43.72849 46.57395 45.15122
# Shear Modulus (GPa) = 30.31624 31.15909 30.73767
#
# Velocity S-wave (km/s) = 3.92735 3.98157 3.95455
# Velocity P-wave (km/s) = 6.54318 6.69572 6.61989
#
# Compressibility (1/GPa) = 0.02286839
#
# Stress axis : x y z
#
# Youngs Moduli (GPa) = 69.28663 94.74855 66.41508
#
# Poissons Ratio (x) = 0.42246 0.17635
# Poissons Ratio (y) = 0.30893 0.09788
# Poissons Ratio (z) = 0.18397 0.13964
#
# Static dielectric constant tensor:
#      x y z
#    x 3.658100 0.000000 0.000000 
#    y 0.000000 3.784570 0.000000 
#    z 0.000000 0.000000 3.505710 
# 
# 
# High freq. dielectric constant tensor:
#      x y z
#    x 1.758250 0.000000 0.000000 
#    y 0.000000 1.756250 0.000000 
#    z 0.000000 0.000000 1.775890 
# 
# From -- ./inp_files/11266.got.cif
#   From: 2010.03.12/outbox.cif.g09.slc.cpg/sg65_6_cif.got.tgz:11266.got - 2010.04.10 20:52:16.
