data_PCOD8274425
_publ_section_title
;
Structure prediction by ZEFSAII (Michael W. Deem and Ramdas Pophale) SiO2 
 PCOD8274425
Probable space group: C M M M
;
_chemical_formula_sum "Si O2"
_cell_formula_units_Z 104
_cell_length_a 9.225498
_cell_length_b 29.996897
_cell_length_c 23.294528
_cell_angle_alpha 90.000000
_cell_angle_beta 90.000000
_cell_angle_gamma 90.000000
_cell_volume 6446.441798
_symmetry_space_group_name_H-M "C M M M"
_symmetry_group_IT_number 65
_symmetry_cell_setting 'orthorhombic'
loop_
_space_group_symop_operation_xyz
x,y,z
-x,-y,z
x,-y,-z
-x,y,-z
-x,-y,-z
x,y,-z
-x,y,z
x,-y,z
1/2+x,1/2+y,z
1/2-x,1/2-y,z
1/2+x,1/2-y,-z
1/2-x,1/2+y,-z
1/2-x,1/2-y,-z
1/2+x,1/2+y,-z
1/2-x,1/2+y,z
1/2+x,1/2-y,z
loop_
_atom_site_type_symbol
_atom_site_label
_atom_site_fract_x
_atom_site_fract_y
_atom_site_fract_z
Si Si1 0.165410 0.707624 0.817246
Si Si2 0.833127 0.332308 0.063617
Si Si3 0.330813 0.110372 0.219395
Si Si4 0.837302 0.052904 0.562717
Si Si5 0.339095 0.000000 0.933487
Si Si6 0.169602 0.550853 0.672863
Si Si7 0.672826 0.585329 0.892920
O O1 0.250000 0.750000 0.792166
O O2 0.208199 0.700928 0.884567
O O3 0.199279 0.663652 0.779075
O O4 0.000000 0.720890 0.812006
O O5 0.728255 0.374531 0.067376
O O6 0.000000 0.348042 0.072257
O O7 0.812686 0.310445 0.000000
O O8 0.500000 0.101746 0.204471
O O9 0.285623 0.085653 0.277799
O O10 0.227471 0.089666 0.171895
O O11 0.781505 0.069906 0.500000
O O12 0.737820 0.070373 0.614365
O O13 0.000000 0.070402 0.573091
O O14 0.834759 0.000000 0.562773
O O15 0.242152 0.958605 0.917303
O O16 0.500000 0.000000 0.903478
O O17 0.367755 0.000000 0.000000
O O18 0.222613 0.500000 0.687195
O O19 0.000000 0.550547 0.663386
O O20 0.500000 0.583092 0.894711
#
# Coordination Sequence:
#
# PCOD8274425 Si02
#       7
#    16  16  16  16   8  16  16
#     4   9  18  32  49  68  90 116 148 186 229 280
#     4   9  18  34  52  67  87 116 144 172 221 289
#     4   9  19  35  50  66  92 125 155 186 229 281
#     4   8  14  25  40  60  91 130 162 187 222 263
#     4  11  23  37  51  63  81 117 156 185 224 279
#     4   9  17  28  45  69  92 121 161 197 223 255
#     4  11  22  33  47  69  91 112 145 192 234 267
#
# _framework density 16.132930999999999
#
# number of rings (size 3 to 8) (size 9 to 14) (size 15 to 20)
#    0.000    2.692    0.000    3.462    1.077    6.462 
#    0.000    1.538    0.000    0.000    0.000    0.000 
#    0.000    0.615    0.000    1.385    0.000    2.462 
#
# Total GULP energy -644399.023442 kJ/mol
# GULP energy per Si atom -12392.288912 kJ/mol
# Density = 1.609621 g / cm^3
# Si number density = 16.132931 Si / 1000 Ang^3
#
#
#
# Elastic Constant Matrix: (Units=GPa)
#
#
# Indices 1 2 3 4 5 6 
#
# 1 71.9789 38.9552 27.5288 0.0000 0.0000 0.0000
# 2 38.9552 82.9671 39.8184 0.0000 0.0000 0.0000
# 3 27.5288 39.8184 95.8509 0.0000 0.0000 0.0000
# 4 0.0000 0.0000 0.0000 11.1634 0.0000 0.0000
# 5 0.0000 0.0000 0.0000 0.0000 48.8329 0.0000
# 6 0.0000 0.0000 0.0000 0.0000 0.0000 25.3489
#
#
#
# Elastic Compliance Matrix: (Units=1/GPa)
#
#
# Indices 1 2 3 4 5 6 
#
# 1 0.018986 -0.007865 -0.002185 0.000000 0.000000 0.000000
# 2 -0.007865 0.018313 -0.005349 0.000000 0.000000 0.000000
# 3 -0.002185 -0.005349 0.013282 0.000000 0.000000 0.000000
# 4 0.000000 0.000000 0.000000 0.089578 0.000000 0.000000
# 5 0.000000 0.000000 0.000000 0.000000 0.020478 0.000000
# 6 0.000000 0.000000 0.000000 0.000000 0.000000 0.039449
#
#
# Mechanical properties :
#
#
# Convention : Reuss Voigt Hill
#
# Bulk Modulus (GPa) = 50.55021 51.48909 51.01965
# Shear Modulus (GPa) = 21.05446 26.70201 23.87823
#
# Velocity S-wave (km/s) = 3.61648 4.07274 3.85137
# Velocity P-wave (km/s) = 6.98857 7.35534 7.17430
#
# Compressibility (1/GPa) = 0.01978231
#
# Stress axis : x y z
#
# Youngs Moduli (GPa) = 52.67166 54.60620 75.28761
#
# Poissons Ratio (x) = 0.42950 0.16452
# Poissons Ratio (y) = 0.41429 0.40268
# Poissons Ratio (z) = 0.11510 0.29207
#
# Static dielectric constant tensor:
#      x y z
#    x 3.076820 0.000000 0.000000 
#    y 0.000000 3.041060 0.000000 
#    z 0.000000 0.000000 3.215990 
# 
# 
# High freq. dielectric constant tensor:
#      x y z
#    x 1.621990 0.000000 0.000000 
#    y 0.000000 1.591770 0.000000 
#    z 0.000000 0.000000 1.607280 
# 
# From -- ./inp_files/68494.got.cif
#   From: 2010.03.12/outbox.cif.g09.slc.cpg/sg65_35_cif.got.tgz:68494.got - 2010.04.10 20:52:16.
