data_PCOD8274608
_publ_section_title
;
Structure prediction by ZEFSAII (Michael W. Deem and Ramdas Pophale) SiO2 
 PCOD8274608
Probable space group: C M M M
;
_chemical_formula_sum "Si O2"
_cell_formula_units_Z 48
_cell_length_a 15.902516
_cell_length_b 8.557149
_cell_length_c 16.987353
_cell_angle_alpha 90.000000
_cell_angle_beta 90.000000
_cell_angle_gamma 90.000000
_cell_volume 2311.642375
_symmetry_space_group_name_H-M "C M M M"
_symmetry_group_IT_number 65
_symmetry_cell_setting 'orthorhombic'
loop_
_space_group_symop_operation_xyz
x,y,z
-x,-y,z
x,-y,-z
-x,y,-z
-x,-y,-z
x,y,-z
-x,y,z
x,-y,z
1/2+x,1/2+y,z
1/2-x,1/2-y,z
1/2+x,1/2-y,-z
1/2-x,1/2+y,-z
1/2-x,1/2-y,-z
1/2+x,1/2+y,-z
1/2-x,1/2+y,z
1/2+x,1/2-y,z
loop_
_atom_site_type_symbol
_atom_site_label
_atom_site_fract_x
_atom_site_fract_y
_atom_site_fract_z
Si Si1 0.156909 0.184393 0.682095
Si Si2 0.000000 0.678542 0.592986
Si Si3 0.339899 0.816470 0.151804
Si Si4 0.406183 0.331483 0.000000
O O1 0.250000 0.250000 0.661512
O O2 0.085754 0.240852 0.622025
O O3 0.126402 0.236127 0.768751
O O4 0.163463 0.000000 0.677987
O O5 0.000000 0.500000 0.621897
O O6 0.000000 0.692303 0.500000
O O7 0.250000 0.750000 0.130025
O O8 0.337711 0.000000 0.166652
O O9 0.394983 0.774075 0.076951
O O10 0.355024 0.500000 0.000000
O O11 0.500000 0.386033 0.000000
#
# Coordination Sequence:
#
# PCOD8274608 Si02
#       4
#    16   8  16   8
#     4  11  23  42  68  97 131 170 215 263 319 380
#     4  11  25  45  69  98 131 168 211 261 319 383
#     4  11  22  39  62  87 120 160 208 256 309 368
#     4  11  24  39  56  83 121 161 208 257 309 366
#
# _framework density 20.764455999999999
#
# number of rings (size 3 to 8) (size 9 to 14) (size 15 to 20)
#    0.000    1.000    0.000    9.500    2.333    3.333 
#    0.000    0.000    0.000    0.000    0.000    0.000 
#    0.000    0.000    0.000    0.000    0.000    0.000 
#
# Total GULP energy -297529.168734 kJ/mol
# GULP energy per Si atom -12397.048697 kJ/mol
# Density = 2.071719 g / cm^3
# Si number density = 20.764456 Si / 1000 Ang^3
#
#
#
# Elastic Constant Matrix: (Units=GPa)
#
#
# Indices 1 2 3 4 5 6 
#
# 1 103.3943 61.7900 59.2243 0.0000 0.0000 0.0000
# 2 61.7900 209.8987 56.8370 0.0000 0.0000 0.0000
# 3 59.2243 56.8370 105.5005 0.0000 0.0000 0.0000
# 4 0.0000 0.0000 0.0000 34.5561 0.0000 0.0000
# 5 0.0000 0.0000 0.0000 0.0000 180.0644 0.0000
# 6 0.0000 0.0000 0.0000 0.0000 0.0000 31.9842
#
#
#
# Elastic Compliance Matrix: (Units=1/GPa)
#
#
# Indices 1 2 3 4 5 6 
#
# 1 0.015345 -0.002558 -0.007236 0.000000 0.000000 0.000000
# 2 -0.002558 0.006004 -0.001799 0.000000 0.000000 0.000000
# 3 -0.007236 -0.001799 0.014510 0.000000 0.000000 0.000000
# 4 0.000000 0.000000 0.000000 0.028938 0.000000 0.000000
# 5 0.000000 0.000000 0.000000 0.000000 0.005554 0.000000
# 6 0.000000 0.000000 0.000000 0.000000 0.000000 0.031265
#
#
# Mechanical properties :
#
#
# Convention : Reuss Voigt Hill
#
# Bulk Modulus (GPa) = 78.90472 86.05512 82.47992
# Shear Modulus (GPa) = 38.75145 65.38375 52.06760
#
# Velocity S-wave (km/s) = 4.32469 5.61753 5.01296
# Velocity P-wave (km/s) = 7.93849 9.14380 8.56238
#
# Compressibility (1/GPa) = 0.01267351
#
# Stress axis : x y z
#
# Youngs Moduli (GPa) = 65.16658 166.54776 68.91841
#
# Poissons Ratio (x) = 0.42601 0.49871
# Poissons Ratio (y) = 0.16669 0.12397
# Poissons Ratio (z) = 0.47156 0.29959
#
# Static dielectric constant tensor:
#      x y z
#    x 3.850830 0.000000 0.000000 
#    y 0.000000 3.987680 0.000000 
#    z 0.000000 0.000000 3.838230 
# 
# 
# High freq. dielectric constant tensor:
#      x y z
#    x 1.811410 0.000000 0.000000 
#    y 0.000000 1.840080 0.000000 
#    z 0.000000 0.000000 1.814810 
# 
# From -- ./inp_files/41649.got.cif
#   From: 2010.03.12/outbox.cif.g09.slc.cpg/sg65_21_cif.got.tgz:41649.got - 2010.04.10 20:52:16.
