data_PCOD8274309
_publ_section_title
;
Structure prediction by ZEFSAII (Michael W. Deem and Ramdas Pophale) SiO2 
 PCOD8274309
Probable space group: C M M M
;
_chemical_formula_sum "Si O2"
_cell_formula_units_Z 88
_cell_length_a 23.077106
_cell_length_b 24.060987
_cell_length_c 9.075867
_cell_angle_alpha 90.000000
_cell_angle_beta 90.000000
_cell_angle_gamma 90.000000
_cell_volume 5039.447282
_symmetry_space_group_name_H-M "C M M M"
_symmetry_group_IT_number 65
_symmetry_cell_setting 'orthorhombic'
loop_
_space_group_symop_operation_xyz
x,y,z
-x,-y,z
x,-y,-z
-x,y,-z
-x,-y,-z
x,y,-z
-x,y,z
x,-y,z
1/2+x,1/2+y,z
1/2-x,1/2-y,z
1/2+x,1/2-y,-z
1/2-x,1/2+y,-z
1/2-x,1/2-y,-z
1/2+x,1/2+y,-z
1/2-x,1/2+y,z
1/2+x,1/2-y,z
loop_
_atom_site_type_symbol
_atom_site_label
_atom_site_fract_x
_atom_site_fract_y
_atom_site_fract_z
Si Si1 0.500000 0.934453 0.670342
Si Si2 0.662688 0.563350 0.674164
Si Si3 0.932184 0.269486 0.668511
Si Si4 0.935915 0.855355 0.675283
Si Si5 0.895056 0.625517 0.173596
Si Si6 0.221052 0.563541 0.171131
O O1 0.500000 0.916464 0.500000
O O2 0.443048 0.910693 0.745682
O O3 0.500000 0.000000 0.690604
O O4 0.666823 0.569046 0.500000
O O5 0.650276 0.500000 0.722574
O O6 0.610726 0.601139 0.738494
O O7 0.722951 0.584850 0.740768
O O8 0.911898 0.277243 0.500000
O O9 0.919117 0.207058 0.724410
O O10 0.896592 0.310859 0.772883
O O11 0.000000 0.283248 0.682653
O O12 0.937680 0.857452 0.500000
O O13 0.000000 0.870881 0.736174
O O14 0.832811 0.601276 0.218066
O O15 0.906141 0.622188 0.000000
O O16 0.206290 0.500000 0.212925
O O17 0.235229 0.569518 0.000000
#
# Coordination Sequence:
#
# PCOD8274309 Si02
#       6
#     8  16  16  16  16  16
#     4  11  23  35  49  73 103 131 162 205 254 301
#     4   9  17  30  51  78 102 126 163 207 247 292
#     4   9  17  31  50  70  97 133 168 202 246 299
#     4   8  15  29  50  76 104 132 161 198 247 300
#     4  11  21  33  51  73  97 129 170 213 252 290
#     4   9  19  35  51  67  94 133 168 199 247 303
#
# _framework density 17.462233000000001
#
# number of rings (size 3 to 8) (size 9 to 14) (size 15 to 20)
#    0.000    2.636    0.909    2.455    0.000    3.273 
#    0.000    5.455    0.000    7.091    0.000    2.545 
#    0.000    0.000    0.000    0.000    0.000    0.000 
#
# Total GULP energy -545595.831657 kJ/mol
# GULP energy per Si atom -12399.905265 kJ/mol
# Density = 1.742249 g / cm^3
# Si number density = 17.462233 Si / 1000 Ang^3
#
#
#
# Elastic Constant Matrix: (Units=GPa)
#
#
# Indices 1 2 3 4 5 6 
#
# 1 147.6534 93.4379 50.4985 0.0000 0.0000 0.0000
# 2 93.4379 114.9404 41.7096 0.0000 0.0000 0.0000
# 3 50.4985 41.7096 51.4845 0.0000 0.0000 0.0000
# 4 0.0000 0.0000 0.0000 18.3484 0.0000 0.0000
# 5 0.0000 0.0000 0.0000 0.0000 9.8142 0.0000
# 6 0.0000 0.0000 0.0000 0.0000 0.0000 30.0171
#
#
#
# Elastic Compliance Matrix: (Units=1/GPa)
#
#
# Indices 1 2 3 4 5 6 
#
# 1 0.015595 -0.010095 -0.007119 0.000000 0.000000 0.000000
# 2 -0.010095 0.018857 -0.005375 0.000000 0.000000 0.000000
# 3 -0.007119 -0.005375 0.030760 0.000000 0.000000 0.000000
# 4 0.000000 0.000000 0.000000 0.054501 0.000000 0.000000
# 5 0.000000 0.000000 0.000000 0.000000 0.101893 0.000000
# 6 0.000000 0.000000 0.000000 0.000000 0.000000 0.033314
#
#
# Mechanical properties :
#
#
# Convention : Reuss Voigt Hill
#
# Bulk Modulus (GPa) = 49.91174 76.15225 63.03199
# Shear Modulus (GPa) = 16.29850 20.19810 18.24830
#
# Velocity S-wave (km/s) = 3.05840 3.40468 3.23618
# Velocity P-wave (km/s) = 6.41222 7.69156 7.08084
#
# Compressibility (1/GPa) = 0.02003537
#
# Stress axis : x y z
#
# Youngs Moduli (GPa) = 64.12197 53.03076 32.50929
#
# Poissons Ratio (x) = 0.53532 0.23142
# Poissons Ratio (y) = 0.64729 0.17475
# Poissons Ratio (z) = 0.45646 0.28507
#
# Static dielectric constant tensor:
#      x y z
#    x 3.354780 0.000000 0.000000 
#    y 0.000000 3.417290 0.000000 
#    z 0.000000 0.000000 3.055320 
# 
# 
# High freq. dielectric constant tensor:
#      x y z
#    x 1.669170 0.000000 0.000000 
#    y 0.000000 1.678440 0.000000 
#    z 0.000000 0.000000 1.655520 
# 
# From -- ./inp_files/13944.got.cif
#   From: 2010.03.12/outbox.cif.g09.slc.cpg/sg65_7_cif.got.tgz:13944.got - 2010.04.10 20:52:16.
