data_PCOD8274692
_publ_section_title
;
Structure prediction by ZEFSAII (Michael W. Deem and Ramdas Pophale) SiO2 
 PCOD8274692
Probable space group: C M M M
;
_chemical_formula_sum "Si O2"
_cell_formula_units_Z 104
_cell_length_a 27.939959
_cell_length_b 22.543986
_cell_length_c 8.744136
_cell_angle_alpha 90.000000
_cell_angle_beta 90.000000
_cell_angle_gamma 90.000000
_cell_volume 5507.739285
_symmetry_space_group_name_H-M "C M M M"
_symmetry_group_IT_number 65
_symmetry_cell_setting 'orthorhombic'
loop_
_space_group_symop_operation_xyz
x,y,z
-x,-y,z
x,-y,-z
-x,y,-z
-x,-y,-z
x,y,-z
-x,y,z
x,-y,z
1/2+x,1/2+y,z
1/2-x,1/2-y,z
1/2+x,1/2-y,-z
1/2-x,1/2+y,-z
1/2-x,1/2-y,-z
1/2+x,1/2+y,-z
1/2-x,1/2+y,z
1/2+x,1/2-y,z
loop_
_atom_site_type_symbol
_atom_site_label
_atom_site_fract_x
_atom_site_fract_y
_atom_site_fract_z
Si Si1 0.556392 0.434286 0.330324
Si Si2 0.555006 0.776420 0.324198
Si Si3 0.105047 0.384566 0.820522
Si Si4 0.695568 0.824983 0.321998
Si Si5 0.604829 0.332133 0.174195
Si Si6 0.555817 0.000000 0.318386
Si Si7 0.302470 0.686884 0.321713
O O1 0.572329 0.412420 0.500000
O O2 0.500000 0.435512 0.320899
O O3 0.576917 0.500000 0.300115
O O4 0.575056 0.391596 0.198455
O O5 0.564962 0.793680 0.500000
O O6 0.500000 0.760493 0.295084
O O7 0.569256 0.831312 0.218874
O O8 0.585941 0.719346 0.284037
O O9 0.158974 0.367118 0.769187
O O10 0.084813 0.442956 0.739480
O O11 0.105465 0.396225 0.000000
O O12 0.685845 0.835820 0.500000
O O13 0.689717 0.755987 0.280708
O O14 0.750500 0.839554 0.278039
O O15 0.659235 0.348078 0.219730
O O16 0.600524 0.311284 0.000000
O O17 0.500000 0.000000 0.261192
O O18 0.556478 0.000000 0.500000
O O19 0.311600 0.676640 0.500000
#
# Coordination Sequence:
#
# PCOD8274692 Si02
#       7
#    16  16  16  16  16   8  16
#     4   9  19  37  59  79 103 144 194 234 271 328
#     4  11  23  38  56  79 112 154 196 235 277 336
#     4  12  24  38  60  90 121 151 186 241 305 353
#     4   9  18  35  60  86 112 149 192 232 275 337
#     4  12  23  33  52  85 119 149 181 230 291 342
#     4  11  25  45  67  87 113 159 211 249 288 353
#     4   9  18  34  58  85 114 150 192 232 273 331
#
# _framework density 18.882521000000001
#
# number of rings (size 3 to 8) (size 9 to 14) (size 15 to 20)
#    0.000    1.615    1.538    5.769    0.000    6.769 
#    0.000    2.308    1.692    0.000    0.000    0.000 
#    0.000    0.000    0.000    0.000    0.000    0.000 
#
# Total GULP energy -644738.963488 kJ/mol
# GULP energy per Si atom -12398.826221 kJ/mol
# Density = 1.883954 g / cm^3
# Si number density = 18.882521 Si / 1000 Ang^3
#
#
#
# Elastic Constant Matrix: (Units=GPa)
#
#
# Indices 1 2 3 4 5 6 
#
# 1 113.8577 43.7234 44.4361 0.0000 0.0000 0.0000
# 2 43.7234 83.0644 33.3187 0.0000 0.0000 0.0000
# 3 44.4361 33.3187 80.8521 0.0000 0.0000 0.0000
# 4 0.0000 0.0000 0.0000 -6.7853 0.0000 0.0000
# 5 0.0000 0.0000 0.0000 0.0000 15.5090 0.0000
# 6 0.0000 0.0000 0.0000 0.0000 0.0000 -17.6481
#
#
#
# Elastic Compliance Matrix: (Units=1/GPa)
#
#
# Indices 1 2 3 4 5 6 
#
# 1 0.012481 -0.004574 -0.004974 0.000000 0.000000 0.000000
# 2 -0.004574 0.016099 -0.004120 0.000000 0.000000 0.000000
# 3 -0.004974 -0.004120 0.016800 0.000000 0.000000 0.000000
# 4 0.000000 0.000000 0.000000 -0.147377 0.000000 0.000000
# 5 0.000000 0.000000 0.000000 0.000000 0.064479 0.000000
# 6 0.000000 0.000000 0.000000 0.000000 0.000000 -0.056663
#
#
# Mechanical properties :
#
#
# Convention : Reuss Voigt Hill
#
# Bulk Modulus (GPa) = 55.42574 57.85895 56.64234
# Shear Modulus (GPa) = -82.19851 8.63485 -36.78183
#
# Velocity S-wave (km/s) = -6.60500 2.14076 -4.41832
# Velocity P-wave (km/s) = 5.36203 6.06783 2.00838
#
# Compressibility (1/GPa) = 0.01804216
#
# Stress axis : x y z
#
# Youngs Moduli (GPa) = 80.12217 62.11375 59.52309
#
# Poissons Ratio (x) = 0.28413 0.29609
# Poissons Ratio (y) = 0.36651 0.24526
# Poissons Ratio (z) = 0.39856 0.25594
#
# Static dielectric constant tensor:
#      x y z
#    x 3.680460 0.000000 0.000000 
#    y 0.000000 3.408030 0.000000 
#    z 0.000000 0.000000 3.393070 
# 
# 
# High freq. dielectric constant tensor:
#      x y z
#    x 1.745660 0.000000 0.000000 
#    y 0.000000 1.712830 0.000000 
#    z 0.000000 0.000000 1.730220 
# 
# From -- ./inp_files/16523.got.cif
#   From: 2010.03.12/outbox.cif.g09.slc.cpg/sg65_9_cif.got.tgz:16523.got - 2010.04.10 20:52:16.
