data_PCOD8274300
_publ_section_title
;
Structure prediction by ZEFSAII (Michael W. Deem and Ramdas Pophale) SiO2 
 PCOD8274300
Probable space group: C M M M
;
_chemical_formula_sum "Si O2"
_cell_formula_units_Z 72
_cell_length_a 8.586528
_cell_length_b 23.473555
_cell_length_c 21.078270
_cell_angle_alpha 90.000000
_cell_angle_beta 90.000000
_cell_angle_gamma 90.000000
_cell_volume 4248.458897
_symmetry_space_group_name_H-M "C M M M"
_symmetry_group_IT_number 65
_symmetry_cell_setting 'orthorhombic'
loop_
_space_group_symop_operation_xyz
x,y,z
-x,-y,z
x,-y,-z
-x,y,-z
-x,-y,-z
x,y,-z
-x,y,z
x,-y,z
1/2+x,1/2+y,z
1/2-x,1/2-y,z
1/2+x,1/2-y,-z
1/2-x,1/2+y,-z
1/2-x,1/2-y,-z
1/2+x,1/2+y,-z
1/2-x,1/2+y,z
1/2+x,1/2-y,z
loop_
_atom_site_type_symbol
_atom_site_label
_atom_site_fract_x
_atom_site_fract_y
_atom_site_fract_z
Si Si1 0.318207 0.312164 0.000000
Si Si2 0.684473 0.378992 0.381633
Si Si3 0.183817 0.687561 0.500000
Si Si4 0.683558 0.813679 0.735904
Si Si5 0.315875 0.686940 0.864613
Si Si6 0.815886 0.000000 0.571265
O O1 0.250000 0.250000 0.000000
O O2 0.274154 0.343776 0.067046
O O3 0.500000 0.302366 0.000000
O O4 0.500000 0.372747 0.384392
O O5 0.757332 0.343147 0.437699
O O6 0.746722 0.356276 0.315310
O O7 0.739118 0.444418 0.390053
O O8 0.250000 0.750000 0.500000
O O9 0.000000 0.689503 0.500000
O O10 0.500000 0.810664 0.728626
O O11 0.750000 0.750000 0.727391
O O12 0.731317 0.841383 0.804101
O O13 0.500000 0.687677 0.851769
O O14 0.250000 0.750000 0.869480
O O15 0.743632 0.000000 0.500000
O O16 0.000000 0.000000 0.564571
#
# Coordination Sequence:
#
# PCOD8274300 Si02
#       6
#     8  16   8  16  16   8
#     4   8  14  22  36  58  86 119 160 199 232 274
#     4  11  21  37  57  75  96 124 158 197 239 289
#     4  12  24  37  52  75 101 128 158 194 235 282
#     4  11  21  33  47  69  99 132 166 201 242 287
#     4   9  15  25  40  61  89 125 162 198 237 280
#     4   9  18  36  60  80  94 117 154 195 242 292
#
# _framework density 16.947322
#
# number of rings (size 3 to 8) (size 9 to 14) (size 15 to 20)
#    0.000    1.889    1.111    6.333    0.000    0.889 
#    0.000    2.778    0.000    0.000    0.000    0.000 
#    0.000    0.889    0.000   10.222    0.000    5.111 
#
# Total GULP energy -446007.059073 kJ/mol
# GULP energy per Si atom -12389.084974 kJ/mol
# Density = 1.690875 g / cm^3
# Si number density = 16.947322 Si / 1000 Ang^3
#
#
#
# Elastic Constant Matrix: (Units=GPa)
#
#
# Indices 1 2 3 4 5 6 
#
# 1 97.4322 38.1936 43.2587 0.0000 0.0000 0.0000
# 2 38.1936 94.9879 66.9479 0.0000 0.0000 0.0000
# 3 43.2587 66.9479 178.8769 0.0000 0.0000 0.0000
# 4 0.0000 0.0000 0.0000 -71.3191 0.0000 0.0000
# 5 0.0000 0.0000 0.0000 0.0000 34.1370 0.0000
# 6 0.0000 0.0000 0.0000 0.0000 0.0000 14.8877
#
#
#
# Elastic Compliance Matrix: (Units=1/GPa)
#
#
# Indices 1 2 3 4 5 6 
#
# 1 0.012493 -0.003931 -0.001550 0.000000 0.000000 0.000000
# 2 -0.003931 0.015536 -0.004864 0.000000 0.000000 0.000000
# 3 -0.001550 -0.004864 0.007786 0.000000 0.000000 0.000000
# 4 0.000000 0.000000 0.000000 -0.014021 0.000000 0.000000
# 5 0.000000 0.000000 0.000000 0.000000 0.029294 0.000000
# 6 0.000000 0.000000 0.000000 0.000000 0.000000 0.067170
#
#
# Mechanical properties :
#
#
# Convention : Reuss Voigt Hill
#
# Bulk Modulus (GPa) = 66.11564 74.23305 70.17434
# Shear Modulus (GPa) = 34.72508 10.40091 22.56299
#
# Velocity S-wave (km/s) = 4.53150 2.48002 3.65274
# Velocity P-wave (km/s) = 8.15331 7.21790 7.69982
#
# Compressibility (1/GPa) = 0.01512501
#
# Stress axis : x y z
#
# Youngs Moduli (GPa) = 80.04762 64.36473 128.43877
#
# Poissons Ratio (x) = 0.25300 0.19908
# Poissons Ratio (y) = 0.31464 0.62476
# Poissons Ratio (z) = 0.12408 0.31308
#
# Static dielectric constant tensor:
#      x y z
#    x 4.699340 0.000000 0.000000 
#    y 0.000000 2.919180 0.000000 
#    z 0.000000 0.000000 3.946160 
# 
# 
# High freq. dielectric constant tensor:
#      x y z
#    x 1.663800 0.000000 0.000000 
#    y 0.000000 1.594070 0.000000 
#    z 0.000000 0.000000 1.681960 
# 
# From -- ./inp_files/59582.got.cif
#   From: 2010.03.12/outbox.cif.g09.slc.cpg/sg65_30_cif.got.tgz:59582.got - 2010.04.10 20:52:16.
