data_PCOD8274293
_publ_section_title
;
Structure prediction by ZEFSAII (Michael W. Deem and Ramdas Pophale) SiO2 
 PCOD8274293
Probable space group: C M M M
;
_chemical_formula_sum "Si O2"
_cell_formula_units_Z 96
_cell_length_a 16.410834
_cell_length_b 27.652464
_cell_length_c 11.728396
_cell_angle_alpha 90.000000
_cell_angle_beta 90.000000
_cell_angle_gamma 90.000000
_cell_volume 5322.346063
_symmetry_space_group_name_H-M "C M M M"
_symmetry_group_IT_number 65
_symmetry_cell_setting 'orthorhombic'
loop_
_space_group_symop_operation_xyz
x,y,z
-x,-y,z
x,-y,-z
-x,y,-z
-x,-y,-z
x,y,-z
-x,y,z
x,-y,z
1/2+x,1/2+y,z
1/2-x,1/2-y,z
1/2+x,1/2-y,-z
1/2-x,1/2+y,-z
1/2-x,1/2-y,-z
1/2+x,1/2+y,-z
1/2-x,1/2+y,z
1/2+x,1/2-y,z
loop_
_atom_site_type_symbol
_atom_site_label
_atom_site_fract_x
_atom_site_fract_y
_atom_site_fract_z
Si Si1 0.753817 0.444862 0.367706
Si Si2 0.093447 0.279136 0.630790
Si Si3 0.342409 0.308240 0.235990
Si Si4 0.095778 0.770923 0.000000
Si Si5 0.329122 0.140569 0.235995
Si Si6 0.409873 0.394192 0.370177
Si Si7 0.903464 0.342016 0.000000
O O1 0.773802 0.435104 0.500000
O O2 0.771334 0.500000 0.333837
O O3 0.812018 0.411646 0.290946
O O4 0.658491 0.434164 0.342276
O O5 0.119171 0.283702 0.500000
O O6 0.151538 0.240167 0.689911
O O7 0.103702 0.331350 0.689509
O O8 0.000000 0.262810 0.645891
O O9 0.367053 0.297686 0.107544
O O10 0.250729 0.326532 0.237723
O O11 0.402034 0.348375 0.287953
O O12 0.119434 0.714595 0.000000
O O13 0.000000 0.777227 0.000000
O O14 0.363481 0.132445 0.109436
O O15 0.399265 0.375602 0.500000
O O16 0.500000 0.417067 0.352239
O O17 0.000000 0.350193 0.000000
#
# Coordination Sequence:
#
# PCOD8274293 Si02
#       7
#    16  16  16   8  16  16   8
#     4   9  19  36  57  81 107 136 174 222 273 319
#     4  11  22  34  50  74 107 144 177 212 257 310
#     4  11  21  32  50  77 110 144 180 215 252 302
#     4  11  21  33  51  73 105 147 182 212 253 300
#     4  11  22  36  56  79 104 137 177 219 265 315
#     4   9  17  30  50  78 113 149 181 213 252 304
#     4  11  23  39  58  78 105 140 179 222 265 312
#
# _framework density 18.037158999999999
#
# number of rings (size 3 to 8) (size 9 to 14) (size 15 to 20)
#    0.000    1.667    1.667    4.000    0.000    5.000 
#    0.000    2.083    0.000    2.500    0.000    5.833 
#    0.000    8.000    0.000    0.000    0.000    0.000 
#
# Total GULP energy -595323.408618 kJ/mol
# GULP energy per Si atom -12402.571013 kJ/mol
# Density = 1.799611 g / cm^3
# Si number density = 18.037159 Si / 1000 Ang^3
#
#
#
# Elastic Constant Matrix: (Units=GPa)
#
#
# Indices 1 2 3 4 5 6 
#
# 1 59.9690 36.2896 36.6428 0.0000 0.0000 0.0000
# 2 36.2896 115.6020 63.1877 0.0000 0.0000 0.0000
# 3 36.6428 63.1877 138.6719 0.0000 0.0000 0.0000
# 4 0.0000 0.0000 0.0000 13.7403 0.0000 0.0000
# 5 0.0000 0.0000 0.0000 0.0000 27.4495 0.0000
# 6 0.0000 0.0000 0.0000 0.0000 0.0000 6.6577
#
#
#
# Elastic Compliance Matrix: (Units=1/GPa)
#
#
# Indices 1 2 3 4 5 6 
#
# 1 0.021803 -0.004921 -0.003519 0.000000 0.000000 0.000000
# 2 -0.004921 0.012630 -0.004455 0.000000 0.000000 0.000000
# 3 -0.003519 -0.004455 0.010171 0.000000 0.000000 0.000000
# 4 0.000000 0.000000 0.000000 0.072778 0.000000 0.000000
# 5 0.000000 0.000000 0.000000 0.000000 0.036431 0.000000
# 6 0.000000 0.000000 0.000000 0.000000 0.000000 0.150202
#
#
# Mechanical properties :
#
#
# Convention : Reuss Voigt Hill
#
# Bulk Modulus (GPa) = 53.14919 65.16478 59.15698
# Shear Modulus (GPa) = 14.87754 21.44435 18.16095
#
# Velocity S-wave (km/s) = 2.87510 3.45178 3.17655
# Velocity P-wave (km/s) = 6.36805 7.21754 6.80606
#
# Compressibility (1/GPa) = 0.01881496
#
# Stress axis : x y z
#
# Youngs Moduli (GPa) = 45.86442 79.17585 98.31863
#
# Poissons Ratio (x) = 0.38962 0.34599
# Poissons Ratio (y) = 0.22570 0.43799
# Poissons Ratio (z) = 0.16140 0.35271
#
# Static dielectric constant tensor:
#      x y z
#    x 3.361260 0.000000 0.000000 
#    y 0.000000 3.142120 0.000000 
#    z 0.000000 0.000000 3.402940 
# 
# 
# High freq. dielectric constant tensor:
#      x y z
#    x 1.705450 0.000000 0.000000 
#    y 0.000000 1.672280 0.000000 
#    z 0.000000 0.000000 1.703710 
# 
# From -- ./inp_files/25481.got.cif
#   From: 2010.03.12/outbox.cif.g09.slc.cpg/sg65_13_cif.got.tgz:25481.got - 2010.04.10 20:52:16.
