data_PCOD8274442
_publ_section_title
;
Structure prediction by ZEFSAII (Michael W. Deem and Ramdas Pophale) SiO2 
 PCOD8274442
Probable space group: C M M M
;
_chemical_formula_sum "Si O2"
_cell_formula_units_Z 104
_cell_length_a 8.931057
_cell_length_b 19.329048
_cell_length_c 33.020444
_cell_angle_alpha 90.000000
_cell_angle_beta 90.000000
_cell_angle_gamma 90.000000
_cell_volume 5700.280595
_symmetry_space_group_name_H-M "C M M M"
_symmetry_group_IT_number 65
_symmetry_cell_setting 'orthorhombic'
loop_
_space_group_symop_operation_xyz
x,y,z
-x,-y,z
x,-y,-z
-x,y,-z
-x,-y,-z
x,y,-z
-x,y,z
x,-y,z
1/2+x,1/2+y,z
1/2-x,1/2-y,z
1/2+x,1/2-y,-z
1/2-x,1/2+y,-z
1/2-x,1/2-y,-z
1/2+x,1/2+y,-z
1/2-x,1/2+y,z
1/2+x,1/2-y,z
loop_
_atom_site_type_symbol
_atom_site_label
_atom_site_fract_x
_atom_site_fract_y
_atom_site_fract_z
Si Si1 0.677949 0.923252 0.271236
Si Si2 0.672385 0.578779 0.047274
Si Si3 0.677425 0.825095 0.110154
Si Si4 0.176142 0.677719 0.569775
Si Si5 0.822293 0.422315 0.181488
Si Si6 0.676655 0.821720 0.661043
Si Si7 0.178019 0.422570 0.500000
O O1 0.500000 0.923557 0.273638
O O2 0.728773 0.897922 0.226470
O O3 0.744456 0.875844 0.306822
O O4 0.740558 0.000000 0.278785
O O5 0.500000 0.592831 0.058729
O O6 0.716277 0.500000 0.058822
O O7 0.777994 0.632469 0.070303
O O8 0.698665 0.591220 0.000000
O O9 0.500000 0.816516 0.111352
O O10 0.750000 0.750000 0.109880
O O11 0.740194 0.867669 0.148934
O O12 0.250000 0.750000 0.557295
O O13 0.220694 0.655693 0.615442
O O14 0.234861 0.617724 0.539947
O O15 0.000000 0.688096 0.565281
O O16 0.760709 0.500000 0.172492
O O17 0.000000 0.424588 0.178992
O O18 0.500000 0.814388 0.665383
O O19 0.750000 0.750000 0.672702
O O20 0.246316 0.500000 0.500000
O O21 0.000000 0.426720 0.500000
#
# Coordination Sequence:
#
# PCOD8274442 Si02
#       7
#    16  16  16  16  16  16   8
#     4   8  14  26  45  68  92 118 151 192 234 274
#     4   9  19  37  59  80 102 129 161 198 241 288
#     4  11  22  34  50  74 103 133 165 201 241 284
#     4   9  17  29  45  64  87 117 151 184 222 272
#     4   8  15  29  48  69  93 122 157 196 237 281
#     4   9  17  28  44  67  91 117 150 186 225 271
#     4   9  17  28  43  65  90 113 142 188 238 271
#
# _framework density 18.244716
#
# number of rings (size 3 to 8) (size 9 to 14) (size 15 to 20)
#    0.000    3.000    0.000    2.538    0.000    2.769 
#    0.000    3.846    0.000    2.308    0.000    8.615 
#    0.000    0.000    0.000    0.000    0.000    0.000 
#
# Total GULP energy -644581.048744 kJ/mol
# GULP energy per Si atom -12395.789399 kJ/mol
# Density = 1.820319 g / cm^3
# Si number density = 18.244716 Si / 1000 Ang^3
#
#
#
# Elastic Constant Matrix: (Units=GPa)
#
#
# Indices 1 2 3 4 5 6 
#
# 1 26.5567 32.2394 27.2814 0.0000 0.0000 0.0000
# 2 32.2394 151.6652 100.3696 0.0000 0.0000 0.0000
# 3 27.2814 100.3696 136.4508 0.0000 0.0000 0.0000
# 4 0.0000 0.0000 0.0000 36.1253 0.0000 0.0000
# 5 0.0000 0.0000 0.0000 0.0000 14.2431 0.0000
# 6 0.0000 0.0000 0.0000 0.0000 0.0000 17.7921
#
#
#
# Elastic Compliance Matrix: (Units=1/GPa)
#
#
# Indices 1 2 3 4 5 6 
#
# 1 0.052087 -0.008145 -0.004423 0.000000 0.000000 0.000000
# 2 -0.008145 0.014121 -0.008759 0.000000 0.000000 0.000000
# 3 -0.004423 -0.008759 0.014656 0.000000 0.000000 0.000000
# 4 0.000000 0.000000 0.000000 0.027681 0.000000 0.000000
# 5 0.000000 0.000000 0.000000 0.000000 0.070210 0.000000
# 6 0.000000 0.000000 0.000000 0.000000 0.000000 0.056205
#
#
# Mechanical properties :
#
#
# Convention : Reuss Voigt Hill
#
# Bulk Modulus (GPa) = 26.17081 70.49484 48.33283
# Shear Modulus (GPa) = 17.22065 23.95093 20.58579
#
# Velocity S-wave (km/s) = 3.07558 3.62713 3.36268
# Velocity P-wave (km/s) = 5.19497 7.50092 6.45180
#
# Compressibility (1/GPa) = 0.03821050
#
# Stress axis : x y z
#
# Youngs Moduli (GPa) = 19.19874 70.81510 68.23365
#
# Poissons Ratio (x) = 0.57681 0.30176
# Poissons Ratio (y) = 0.15638 0.59764
# Poissons Ratio (z) = 0.08491 0.62025
#
# Static dielectric constant tensor:
#      x y z
#    x 2.944770 0.000000 0.000000 
#    y 0.000000 3.565360 0.000000 
#    z 0.000000 0.000000 3.680090 
# 
# 
# High freq. dielectric constant tensor:
#      x y z
#    x 1.663900 0.000000 0.000000 
#    y 0.000000 1.706360 0.000000 
#    z 0.000000 0.000000 1.721460 
# 
# From -- ./inp_files/76844.got.cif
#   From: 2010.03.12/outbox.cif.g09.slc.cpg/sg65_39_cif.got.tgz:76844.got - 2010.04.10 20:52:16.
