data_PCOD8274563
_publ_section_title
;
Structure prediction by ZEFSAII (Michael W. Deem and Ramdas Pophale) SiO2 
 PCOD8274563
Probable space group: C M M M
;
_chemical_formula_sum "Si O2"
_cell_formula_units_Z 56
_cell_length_a 8.588632
_cell_length_b 19.251225
_cell_length_c 17.509242
_cell_angle_alpha 90.000000
_cell_angle_beta 90.000000
_cell_angle_gamma 90.000000
_cell_volume 2895.007612
_symmetry_space_group_name_H-M "C M M M"
_symmetry_group_IT_number 65
_symmetry_cell_setting 'orthorhombic'
loop_
_space_group_symop_operation_xyz
x,y,z
-x,-y,z
x,-y,-z
-x,y,-z
-x,-y,-z
x,y,-z
-x,y,z
x,-y,z
1/2+x,1/2+y,z
1/2-x,1/2-y,z
1/2+x,1/2-y,-z
1/2-x,1/2+y,-z
1/2-x,1/2-y,-z
1/2+x,1/2+y,-z
1/2-x,1/2+y,z
1/2+x,1/2-y,z
loop_
_atom_site_type_symbol
_atom_site_label
_atom_site_fract_x
_atom_site_fract_y
_atom_site_fract_z
Si Si1 0.177846 0.418948 0.086893
Si Si2 0.818831 0.177626 0.207567
Si Si3 0.183766 0.325034 0.629620
Si Si4 0.816358 0.080290 0.500000
O O1 0.204047 0.500000 0.099858
O O2 0.294389 0.379346 0.142558
O O3 0.000000 0.398457 0.105521
O O4 0.218400 0.398591 0.000000
O O5 0.750000 0.250000 0.177057
O O6 0.732277 0.154747 0.284712
O O7 0.000000 0.186257 0.225808
O O8 0.250000 0.250000 0.605610
O O9 0.248460 0.384462 0.575275
O O10 0.000000 0.322056 0.622396
O O11 0.000000 0.088989 0.500000
O O12 0.765777 0.000000 0.500000
#
# Coordination Sequence:
#
# PCOD8274563 Si02
#       4
#    16  16  16   8
#     4   9  19  37  59  82 111 148 188 230 279 335
#     4  11  22  37  58  84 114 147 187 233 280 330
#     4  11  22  39  62  85 113 148 188 230 277 334
#     4  11  24  41  60  85 117 149 186 231 276 325
#
# _framework density 19.343646
#
# number of rings (size 3 to 8) (size 9 to 14) (size 15 to 20)
#    0.000    1.571    0.000    8.571    0.000    4.000 
#    0.000    1.429    0.000    0.000    0.000    0.000 
#    0.000    0.000    0.000    0.000    0.000    0.000 
#
# Total GULP energy -347336.109218 kJ/mol
# GULP energy per Si atom -12404.861044 kJ/mol
# Density = 1.929962 g / cm^3
# Si number density = 19.343646 Si / 1000 Ang^3
#
#
#
# Elastic Constant Matrix: (Units=GPa)
#
#
# Indices 1 2 3 4 5 6 
#
# 1 120.4010 61.8990 42.1619 0.0000 0.0000 0.0000
# 2 61.8990 113.8324 80.6208 0.0000 0.0000 0.0000
# 3 42.1619 80.6208 111.0554 0.0000 0.0000 0.0000
# 4 0.0000 0.0000 0.0000 103.3894 0.0000 0.0000
# 5 0.0000 0.0000 0.0000 0.0000 35.1696 0.0000
# 6 0.0000 0.0000 0.0000 0.0000 0.0000 30.9432
#
#
#
# Elastic Compliance Matrix: (Units=1/GPa)
#
#
# Indices 1 2 3 4 5 6 
#
# 1 0.011535 -0.006527 0.000359 0.000000 0.000000 0.000000
# 2 -0.006527 0.021774 -0.013329 0.000000 0.000000 0.000000
# 3 0.000359 -0.013329 0.018545 0.000000 0.000000 0.000000
# 4 0.000000 0.000000 0.000000 0.009672 0.000000 0.000000
# 5 0.000000 0.000000 0.000000 0.000000 0.028434 0.000000
# 6 0.000000 0.000000 0.000000 0.000000 0.000000 0.032317
#
#
# Mechanical properties :
#
#
# Convention : Reuss Voigt Hill
#
# Bulk Modulus (GPa) = 77.76107 79.40579 78.58343
# Shear Modulus (GPa) = 30.20090 44.60756 37.40423
#
# Velocity S-wave (km/s) = 3.95559 4.80735 4.40212
# Velocity P-wave (km/s) = 7.81981 8.48253 8.15790
#
# Compressibility (1/GPa) = 0.01285991
#
# Stress axis : x y z
#
# Youngs Moduli (GPa) = 86.68983 45.92621 53.92403
#
# Poissons Ratio (x) = 0.29974 -0.01934
# Poissons Ratio (y) = 0.56579 0.71876
# Poissons Ratio (z) = -0.03109 0.61215
#
# Static dielectric constant tensor:
#      x y z
#    x 3.603990 0.000000 0.000000 
#    y 0.000000 3.552620 0.000000 
#    z 0.000000 0.000000 3.533160 
# 
# 
# High freq. dielectric constant tensor:
#      x y z
#    x 1.764910 0.000000 0.000000 
#    y 0.000000 1.750350 0.000000 
#    z 0.000000 0.000000 1.761150 
# 
# From -- ./inp_files/35491.got.cif
#   From: 2010.03.12/outbox.cif.g09.slc.cpg/sg65_18_cif.got.tgz:35491.got - 2010.04.10 20:52:16.
