data_PCOD8274232
_publ_section_title
;
Structure prediction by ZEFSAII (Michael W. Deem and Ramdas Pophale) SiO2 
 PCOD8274232
Probable space group: C M M M
;
_chemical_formula_sum "Si O2"
_cell_formula_units_Z 112
_cell_length_a 15.176513
_cell_length_b 23.504190
_cell_length_c 14.686372
_cell_angle_alpha 90.000000
_cell_angle_beta 90.000000
_cell_angle_gamma 90.000000
_cell_volume 5238.799917
_symmetry_space_group_name_H-M "C M M M"
_symmetry_group_IT_number 65
_symmetry_cell_setting 'orthorhombic'
loop_
_space_group_symop_operation_xyz
x,y,z
-x,-y,z
x,-y,-z
-x,y,-z
-x,-y,-z
x,y,-z
-x,y,z
x,-y,z
1/2+x,1/2+y,z
1/2-x,1/2-y,z
1/2+x,1/2-y,-z
1/2-x,1/2+y,-z
1/2-x,1/2-y,-z
1/2+x,1/2+y,-z
1/2-x,1/2+y,z
1/2+x,1/2-y,z
loop_
_atom_site_type_symbol
_atom_site_label
_atom_site_fract_x
_atom_site_fract_y
_atom_site_fract_z
Si Si1 0.599509 0.862317 0.895142
Si Si2 0.849218 0.238442 0.850439
Si Si3 0.406279 0.818004 0.600540
Si Si4 0.899702 0.196320 0.656120
Si Si5 0.755642 0.564419 0.207320
Si Si6 0.243518 0.888708 0.604956
Si Si7 0.900955 0.119425 0.100259
O O1 0.500000 0.885851 0.886151
O O2 0.597198 0.796653 0.863181
O O3 0.662467 0.899594 0.831003
O O4 0.632129 0.866545 0.000000
O O5 0.750000 0.250000 0.881404
O O6 0.852518 0.216495 0.747598
O O7 0.888817 0.187485 0.910175
O O8 0.413897 0.843501 0.500000
O O9 0.500000 0.831709 0.652665
O O10 0.394994 0.750406 0.590275
O O11 0.320849 0.847103 0.643290
O O12 0.848614 0.144562 0.609046
O O13 0.000000 0.176410 0.674512
O O14 0.765877 0.500000 0.172755
O O15 0.748130 0.562416 0.318171
O O16 0.665176 0.591729 0.171946
O O17 0.256063 0.910812 0.500000
O O18 0.000000 0.106003 0.133842
O O19 0.885075 0.093077 0.000000
#
# Coordination Sequence:
#
# PCOD8274232 Si02
#       7
#    16  16  16  16  16  16  16
#     4  11  24  42  67 101 139 177 217 265 328 400
#     4  12  21  35  63 101 141 175 205 253 313 388
#     4   9  18  32  53  85 122 159 201 251 309 379
#     4  11  20  32  55  89 132 173 206 247 308 386
#     4  12  27  46  67  91 124 171 227 284 334 386
#     4  11  23  40  62  88 121 165 218 273 330 386
#     4  11  24  43  68  98 131 168 212 264 324 391
#
# _framework density 21.378943
#
# number of rings (size 3 to 8) (size 9 to 14) (size 15 to 20)
#    0.000    1.000    2.857    4.714    0.000    7.429 
#    0.000    1.429    0.000    0.000    0.000    5.000 
#    0.000    0.000    0.000    0.000    0.000    0.000 
#
# Total GULP energy -694026.989840 kJ/mol
# GULP energy per Si atom -12393.339104 kJ/mol
# Density = 2.133028 g / cm^3
# Si number density = 21.378943 Si / 1000 Ang^3
#
#
#
# Elastic Constant Matrix: (Units=GPa)
#
#
# Indices 1 2 3 4 5 6 
#
# 1 124.2054 27.6777 30.5345 0.0000 0.0000 0.0000
# 2 27.6777 92.0354 26.0971 0.0000 0.0000 0.0000
# 3 30.5345 26.0971 120.6646 0.0000 0.0000 0.0000
# 4 0.0000 0.0000 0.0000 10.4610 0.0000 0.0000
# 5 0.0000 0.0000 0.0000 0.0000 16.5975 0.0000
# 6 0.0000 0.0000 0.0000 0.0000 0.0000 2.6715
#
#
#
# Elastic Compliance Matrix: (Units=1/GPa)
#
#
# Indices 1 2 3 4 5 6 
#
# 1 0.008982 -0.002191 -0.001799 0.000000 0.000000 0.000000
# 2 -0.002191 0.012110 -0.002065 0.000000 0.000000 0.000000
# 3 -0.001799 -0.002065 0.009189 0.000000 0.000000 0.000000
# 4 0.000000 0.000000 0.000000 0.095593 0.000000 0.000000
# 5 0.000000 0.000000 0.000000 0.000000 0.060250 0.000000
# 6 0.000000 0.000000 0.000000 0.000000 0.000000 0.374322
#
#
# Mechanical properties :
#
#
# Convention : Reuss Voigt Hill
#
# Bulk Modulus (GPa) = 55.03136 56.16933 55.60034
# Shear Modulus (GPa) = 8.64138 22.78574 15.71356
#
# Velocity S-wave (km/s) = 2.01265 3.26821 2.71403
# Velocity P-wave (km/s) = 5.58550 6.36960 5.99039
#
# Compressibility (1/GPa) = 0.01817146
#
# Stress axis : x y z
#
# Youngs Moduli (GPa) = 111.33793 82.57846 108.82328
#
# Poissons Ratio (x) = 0.18092 0.19577
# Poissons Ratio (y) = 0.24393 0.22468
# Poissons Ratio (z) = 0.20030 0.17049
#
# Static dielectric constant tensor:
#      x y z
#    x 4.062130 0.000000 0.000000 
#    y 0.000000 3.499740 0.000000 
#    z 0.000000 0.000000 3.909190 
# 
# 
# High freq. dielectric constant tensor:
#      x y z
#    x 1.855380 0.000000 0.000000 
#    y 0.000000 1.790750 0.000000 
#    z 0.000000 0.000000 1.849250 
# 
# From -- ./inp_files/40835.got.cif
#   From: 2010.03.12/outbox.cif.g09.slc.cpg/sg65_21_cif.got.tgz:40835.got - 2010.04.10 20:52:16.
