data_PCOD8274404
_publ_section_title
;
Structure prediction by ZEFSAII (Michael W. Deem and Ramdas Pophale) SiO2 
 PCOD8274404
Probable space group: C M M M
;
_chemical_formula_sum "Si O2"
_cell_formula_units_Z 112
_cell_length_a 13.589966
_cell_length_b 15.406458
_cell_length_c 26.312449
_cell_angle_alpha 90.000000
_cell_angle_beta 90.000000
_cell_angle_gamma 90.000000
_cell_volume 5509.122710
_symmetry_space_group_name_H-M "C M M M"
_symmetry_group_IT_number 65
_symmetry_cell_setting 'orthorhombic'
loop_
_space_group_symop_operation_xyz
x,y,z
-x,-y,z
x,-y,-z
-x,y,-z
-x,-y,-z
x,y,-z
-x,y,z
x,-y,z
1/2+x,1/2+y,z
1/2-x,1/2-y,z
1/2+x,1/2-y,-z
1/2-x,1/2+y,-z
1/2-x,1/2-y,-z
1/2+x,1/2+y,-z
1/2-x,1/2+y,z
1/2+x,1/2-y,z
loop_
_atom_site_type_symbol
_atom_site_label
_atom_site_fract_x
_atom_site_fract_y
_atom_site_fract_z
Si Si1 0.606341 0.399759 0.346495
Si Si2 0.882222 0.000000 0.939263
Si Si3 0.711081 0.601631 0.555479
Si Si4 0.282533 0.156092 0.715854
Si Si5 0.763507 0.649355 0.091477
Si Si6 0.889170 0.600494 0.620506
Si Si7 0.388177 0.900499 0.184907
Si Si8 0.395949 0.900925 0.000000
O O1 0.500000 0.358584 0.332376
O O2 0.593896 0.500000 0.358065
O O3 0.645044 0.356284 0.399366
O O4 0.681289 0.391140 0.299697
O O5 0.833935 0.087415 0.914073
O O6 0.000000 0.000000 0.928220
O O7 0.861661 0.000000 0.000000
O O8 0.690147 0.644467 0.500000
O O9 0.689813 0.500000 0.551615
O O10 0.824868 0.618249 0.570354
O O11 0.250000 0.250000 0.735410
O O12 0.353842 0.161254 0.666955
O O13 0.341524 0.106593 0.759394
O O14 0.750000 0.750000 0.078809
O O15 0.813304 0.646158 0.146736
O O16 0.840113 0.617661 0.051007
O O17 0.876826 0.500000 0.638104
O O18 0.000000 0.623780 0.606173
O O19 0.500000 0.861197 0.183746
O O20 0.394162 0.000000 0.168935
O O21 0.500000 0.848953 0.000000
O O22 0.421398 0.000000 0.000000
#
# Coordination Sequence:
#
# PCOD8274404 Si02
#       8
#    16   8  16  16  16  16  16   8
#     4   9  18  33  52  73 101 142 182 220 270 333
#     4  11  24  44  66  94 136 184 222 260 315 378
#     4   8  14  25  44  74 107 133 167 222 279 330
#     4  11  22  36  54  81 109 141 180 233 285 348
#     4  12  23  42  65  96 131 171 215 265 312 374
#     4   9  17  31  52  76 103 137 180 224 279 345
#     4  11  23  41  66  89 116 150 192 248 310 363
#     4  11  21  38  66  97 130 168 214 268 320 362
#
# _framework density 20.329916000000001
#
# number of rings (size 3 to 8) (size 9 to 14) (size 15 to 20)
#    0.000    1.857    2.143    3.643    0.000    5.143 
#    0.000    3.571    0.000    6.857    0.000    8.000 
#    0.000    0.000    0.000    0.000    0.000    0.000 
#
# Total GULP energy -693932.206217 kJ/mol
# GULP energy per Si atom -12391.646540 kJ/mol
# Density = 2.028364 g / cm^3
# Si number density = 20.329916 Si / 1000 Ang^3
#
#
#
# Elastic Constant Matrix: (Units=GPa)
#
#
# Indices 1 2 3 4 5 6 
#
# 1 167.6704 22.5849 47.0422 0.0000 0.0000 0.0000
# 2 22.5849 59.8486 2.9876 0.0000 0.0000 0.0000
# 3 47.0422 2.9876 101.9760 0.0000 0.0000 0.0000
# 4 0.0000 0.0000 0.0000 26.0600 0.0000 0.0000
# 5 0.0000 0.0000 0.0000 0.0000 19.6344 0.0000
# 6 0.0000 0.0000 0.0000 0.0000 0.0000 7.4195
#
#
#
# Elastic Compliance Matrix: (Units=1/GPa)
#
#
# Indices 1 2 3 4 5 6 
#
# 1 0.007223 -0.002563 -0.003257 0.000000 0.000000 0.000000
# 2 -0.002563 0.017643 0.000666 0.000000 0.000000 0.000000
# 3 -0.003257 0.000666 0.011289 0.000000 0.000000 0.000000
# 4 0.000000 0.000000 0.000000 0.038373 0.000000 0.000000
# 5 0.000000 0.000000 0.000000 0.000000 0.050931 0.000000
# 6 0.000000 0.000000 0.000000 0.000000 0.000000 0.134781
#
#
# Mechanical properties :
#
#
# Convention : Reuss Voigt Hill
#
# Bulk Modulus (GPa) = 38.69083 52.74715 45.71899
# Shear Modulus (GPa) = 17.91058 27.74811 22.82935
#
# Velocity S-wave (km/s) = 2.97138 3.69845 3.35467
# Velocity P-wave (km/s) = 5.55382 6.65131 6.12719
#
# Compressibility (1/GPa) = 0.02584592
#
# Stress axis : x y z
#
# Youngs Moduli (GPa) = 138.44409 56.68017 88.58020
#
# Poissons Ratio (x) = 0.14528 0.28850
# Poissons Ratio (y) = 0.35486 -0.05895
# Poissons Ratio (z) = 0.45091 -0.03772
#
# Static dielectric constant tensor:
#      x y z
#    x 4.233140 0.000000 0.000000 
#    y 0.000000 3.600040 0.000000 
#    z 0.000000 0.000000 3.905100 
# 
# 
# High freq. dielectric constant tensor:
#      x y z
#    x 1.805710 0.000000 0.000000 
#    y 0.000000 1.770690 0.000000 
#    z 0.000000 0.000000 1.788520 
# 
# From -- ./inp_files/74919.got.cif
#   From: 2010.03.12/outbox.cif.g09.slc.cpg/sg65_38_cif.got.tgz:74919.got - 2010.04.10 20:52:16.
