data_PCOD8274920
_publ_section_title
;
Structure prediction by ZEFSAII (Michael W. Deem and Ramdas Pophale) SiO2 
 PCOD8274920
Probable space group: C M M M
;
_chemical_formula_sum "Si O2"
_cell_formula_units_Z 80
_cell_length_a 20.319162
_cell_length_b 7.780797
_cell_length_c 29.289006
_cell_angle_alpha 90.000000
_cell_angle_beta 90.000000
_cell_angle_gamma 90.000000
_cell_volume 4630.570606
_symmetry_space_group_name_H-M "C M M M"
_symmetry_group_IT_number 65
_symmetry_cell_setting 'orthorhombic'
loop_
_space_group_symop_operation_xyz
x,y,z
-x,-y,z
x,-y,-z
-x,y,-z
-x,-y,-z
x,y,-z
-x,y,z
x,-y,z
1/2+x,1/2+y,z
1/2-x,1/2-y,z
1/2+x,1/2-y,-z
1/2-x,1/2+y,-z
1/2-x,1/2-y,-z
1/2+x,1/2+y,-z
1/2-x,1/2+y,z
1/2+x,1/2-y,z
loop_
_atom_site_type_symbol
_atom_site_label
_atom_site_fract_x
_atom_site_fract_y
_atom_site_fract_z
Si Si1 0.177935 0.297471 0.550987
Si Si2 0.073087 0.703978 0.378068
Si Si3 0.421789 0.809018 0.723613
Si Si4 0.921753 0.690808 0.051194
Si Si5 0.078618 0.000000 0.784861
Si Si6 0.578641 0.500000 0.887920
O O1 0.168056 0.220192 0.500000
O O2 0.169583 0.500000 0.549597
O O3 0.250000 0.250000 0.569733
O O4 0.123447 0.216605 0.584883
O O5 0.070005 0.500000 0.382114
O O6 0.098317 0.752278 0.327306
O O7 0.000000 0.780321 0.387121
O O8 0.500000 0.817786 0.726066
O O9 0.394010 0.670843 0.759758
O O10 0.393270 0.000000 0.734695
O O11 0.897825 0.500000 0.065964
O O12 0.893438 0.831138 0.086407
O O13 0.000000 0.697300 0.051582
O O14 0.896673 0.733261 0.000000
O O15 0.105689 0.000000 0.836405
O O16 0.000000 0.000000 0.783833
O O17 0.500000 0.500000 0.888235
#
# Coordination Sequence:
#
# PCOD8274920 Si02
#       6
#    16  16  16  16   8   8
#     4   9  17  29  44  62  86 111 132 160 202 251
#     4   8  14  26  44  62  78 102 137 170 200 240
#     4   8  14  25  38  51  70  93 119 156 196 235
#     4   8  13  20  28  37  51  75 109 148 189 231
#     4   9  16  23  32  49  69  90 117 150 198 251
#     4   9  15  20  27  40  58  79 106 143 189 242
#
# _framework density 17.276489000000002
#
# number of rings (size 3 to 8) (size 9 to 14) (size 15 to 20)
#    0.000    3.600    0.000    2.100    0.000    2.400 
#    1.800    6.000    0.000    0.000    0.000    2.800 
#    0.000    0.000    0.000    0.000    0.000    0.000 
#
# Total GULP energy -495651.012191 kJ/mol
# GULP energy per Si atom -12391.275305 kJ/mol
# Density = 1.723717 g / cm^3
# Si number density = 17.276489 Si / 1000 Ang^3
#
#
#
# Elastic Constant Matrix: (Units=GPa)
#
#
# Indices 1 2 3 4 5 6 
#
# 1 38.3973 19.2836 43.7377 0.0000 0.0000 0.0000
# 2 19.2836 93.4038 72.5985 0.0000 0.0000 0.0000
# 3 43.7377 72.5985 153.4217 0.0000 0.0000 0.0000
# 4 0.0000 0.0000 0.0000 21.3244 0.0000 0.0000
# 5 0.0000 0.0000 0.0000 0.0000 2.1725 0.0000
# 6 0.0000 0.0000 0.0000 0.0000 0.0000 7.9171
#
#
#
# Elastic Compliance Matrix: (Units=1/GPa)
#
#
# Indices 1 2 3 4 5 6 
#
# 1 0.038618 0.000924 -0.011447 0.000000 0.000000 0.000000
# 2 0.000924 0.016957 -0.008287 0.000000 0.000000 0.000000
# 3 -0.011447 -0.008287 0.013703 0.000000 0.000000 0.000000
# 4 0.000000 0.000000 0.000000 0.046895 0.000000 0.000000
# 5 0.000000 0.000000 0.000000 0.000000 0.460300 0.000000
# 6 0.000000 0.000000 0.000000 0.000000 0.000000 0.126309
#
#
# Mechanical properties :
#
#
# Convention : Reuss Voigt Hill
#
# Bulk Modulus (GPa) = 31.58768 61.82914 46.70841
# Shear Modulus (GPa) = 6.65820 16.25632 11.45726
#
# Velocity S-wave (km/s) = 1.96527 3.07082 2.57800
# Velocity P-wave (km/s) = 4.84490 6.95981 5.99633
#
# Compressibility (1/GPa) = 0.03165792
#
# Stress axis : x y z
#
# Youngs Moduli (GPa) = 25.89461 58.97344 72.97825
#
# Poissons Ratio (x) = -0.05449 0.83535
# Poissons Ratio (y) = -0.02393 0.60479
# Poissons Ratio (z) = 0.29640 0.48873
#
# Static dielectric constant tensor:
#      x y z
#    x 2.681000 0.000000 0.000000 
#    y 0.000000 3.374710 0.000000 
#    z 0.000000 0.000000 3.510890 
# 
# 
# High freq. dielectric constant tensor:
#      x y z
#    x 1.582540 0.000000 0.000000 
#    y 0.000000 1.667750 0.000000 
#    z 0.000000 0.000000 1.668860 
# 
# From -- ./inp_files/67387.got.cif
#   From: 2010.03.12/outbox.cif.g09.slc.cpg/sg65_34_cif.got.tgz:67387.got - 2010.04.10 20:52:16.
