data_PCOD8274431
_publ_section_title
;
Structure prediction by ZEFSAII (Michael W. Deem and Ramdas Pophale) SiO2 
 PCOD8274431
Probable space group: C M M M
;
_chemical_formula_sum "Si O2"
_cell_formula_units_Z 72
_cell_length_a 9.192511
_cell_length_b 30.898407
_cell_length_c 14.207177
_cell_angle_alpha 90.000000
_cell_angle_beta 90.000000
_cell_angle_gamma 90.000000
_cell_volume 4035.320548
_symmetry_space_group_name_H-M "C M M M"
_symmetry_group_IT_number 65
_symmetry_cell_setting 'orthorhombic'
loop_
_space_group_symop_operation_xyz
x,y,z
-x,-y,z
x,-y,-z
-x,y,-z
-x,-y,-z
x,y,-z
-x,y,z
x,-y,z
1/2+x,1/2+y,z
1/2-x,1/2-y,z
1/2+x,1/2-y,-z
1/2-x,1/2+y,-z
1/2-x,1/2-y,-z
1/2+x,1/2+y,-z
1/2-x,1/2+y,z
1/2+x,1/2-y,z
loop_
_atom_site_type_symbol
_atom_site_label
_atom_site_fract_x
_atom_site_fract_y
_atom_site_fract_z
Si Si1 0.327394 0.593770 0.108821
Si Si2 0.333050 0.450746 0.389693
Si Si3 0.170070 0.292433 0.607911
Si Si4 0.330355 0.500000 0.108350
Si Si5 0.172069 0.623178 0.720134
O O1 0.500000 0.599051 0.120167
O O2 0.273251 0.546074 0.147433
O O3 0.242731 0.627040 0.175734
O O4 0.283226 0.601331 0.000000
O O5 0.300630 0.446834 0.500000
O O6 0.500000 0.438399 0.367726
O O7 0.303068 0.500000 0.355618
O O8 0.227653 0.418658 0.335212
O O9 0.214509 0.300779 0.500000
O O10 0.250000 0.250000 0.647864
O O11 0.222555 0.333921 0.665928
O O12 0.000000 0.284532 0.619052
O O13 0.500000 0.500000 0.124056
O O14 0.290642 0.500000 0.000000
O O15 0.000000 0.620195 0.729017
#
# Coordination Sequence:
#
# PCOD8274431 Si02
#       5
#    16  16  16   8  16
#     4   9  18  33  52  73  99 136 181 223 258 297
#     4   9  19  35  52  71  99 138 182 218 245 289
#     4   9  19  36  56  78 104 133 166 207 256 310
#     4   7  12  26  47  67  88 121 168 217 255 282
#     4  11  22  33  50  78 110 138 165 207 266 322
#
# _framework density 17.842448999999998
#
# number of rings (size 3 to 8) (size 9 to 14) (size 15 to 20)
#    0.000    2.778    0.000    3.333    1.556    4.000 
#    0.000    3.333    0.000    2.667    0.000    0.000 
#    0.000    0.000    0.000    0.000    0.000    0.000 
#
# Total GULP energy -446159.456540 kJ/mol
# GULP energy per Si atom -12393.318237 kJ/mol
# Density = 1.780184 g / cm^3
# Si number density = 17.842449 Si / 1000 Ang^3
#
#
#
# Elastic Constant Matrix: (Units=GPa)
#
#
# Indices 1 2 3 4 5 6 
#
# 1 56.3621 49.3921 45.2179 0.0000 0.0000 0.0000
# 2 49.3921 118.3605 70.8110 0.0000 0.0000 0.0000
# 3 45.2179 70.8110 90.1259 0.0000 0.0000 0.0000
# 4 0.0000 0.0000 0.0000 25.4299 0.0000 0.0000
# 5 0.0000 0.0000 0.0000 0.0000 29.0780 0.0000
# 6 0.0000 0.0000 0.0000 0.0000 0.0000 30.3620
#
#
#
# Elastic Compliance Matrix: (Units=1/GPa)
#
#
# Indices 1 2 3 4 5 6 
#
# 1 0.032668 -0.007221 -0.010717 0.000000 0.000000 0.000000
# 2 -0.007221 0.017539 -0.010157 0.000000 0.000000 0.000000
# 3 -0.010717 -0.010157 0.024453 0.000000 0.000000 0.000000
# 4 0.000000 0.000000 0.000000 0.039324 0.000000 0.000000
# 5 0.000000 0.000000 0.000000 0.000000 0.034390 0.000000
# 6 0.000000 0.000000 0.000000 0.000000 0.000000 0.032936
#
#
# Mechanical properties :
#
#
# Convention : Reuss Voigt Hill
#
# Bulk Modulus (GPa) = 54.14211 66.18783 60.16497
# Shear Modulus (GPa) = 20.52072 23.60249 22.06161
#
# Velocity S-wave (km/s) = 3.39500 3.64102 3.52016
# Velocity P-wave (km/s) = 6.76598 7.40623 7.09333
#
# Compressibility (1/GPa) = 0.01846991
#
# Stress axis : x y z
#
# Youngs Moduli (GPa) = 30.61068 57.01657 40.89534
#
# Poissons Ratio (x) = 0.41172 0.43827
# Poissons Ratio (y) = 0.22104 0.41538
# Poissons Ratio (z) = 0.32805 0.57912
#
# Static dielectric constant tensor:
#      x y z
#    x 3.065490 0.000000 0.000000 
#    y 0.000000 3.384800 0.000000 
#    z 0.000000 0.000000 3.370790 
# 
# 
# High freq. dielectric constant tensor:
#      x y z
#    x 1.670990 0.000000 0.000000 
#    y 0.000000 1.677780 0.000000 
#    z 0.000000 0.000000 1.693940 
# 
# From -- ./inp_files/36515.got.cif
#   From: 2010.03.12/outbox.cif.g09.slc.cpg/sg65_19_cif.got.tgz:36515.got - 2010.04.10 20:52:16.
