data_PCOD8274591
_publ_section_title
;
Structure prediction by ZEFSAII (Michael W. Deem and Ramdas Pophale) SiO2 
 PCOD8274591
Probable space group: C M M M
;
_chemical_formula_sum "Si O2"
_cell_formula_units_Z 88
_cell_length_a 17.354766
_cell_length_b 9.829086
_cell_length_c 27.225214
_cell_angle_alpha 90.000000
_cell_angle_beta 90.000000
_cell_angle_gamma 90.000000
_cell_volume 4644.117502
_symmetry_space_group_name_H-M "C M M M"
_symmetry_group_IT_number 65
_symmetry_cell_setting 'orthorhombic'
loop_
_space_group_symop_operation_xyz
x,y,z
-x,-y,z
x,-y,-z
-x,y,-z
-x,-y,-z
x,y,-z
-x,y,z
x,-y,z
1/2+x,1/2+y,z
1/2-x,1/2-y,z
1/2+x,1/2-y,-z
1/2-x,1/2+y,-z
1/2-x,1/2-y,-z
1/2+x,1/2+y,-z
1/2-x,1/2+y,z
1/2+x,1/2-y,z
loop_
_atom_site_type_symbol
_atom_site_label
_atom_site_fract_x
_atom_site_fract_y
_atom_site_fract_z
Si Si1 0.861472 0.000000 0.442473
Si Si2 0.324530 0.843086 0.105847
Si Si3 0.412070 0.764047 0.392350
Si Si4 0.090946 0.653165 0.797185
Si Si5 0.591651 0.346025 0.288219
Si Si6 0.816523 0.500000 0.558699
Si Si7 0.678173 0.153570 0.000000
O O1 0.908584 0.127370 0.423170
O O2 0.772525 0.000000 0.425450
O O3 0.864945 0.000000 0.500000
O O4 0.250000 0.750000 0.110770
O O5 0.383502 0.801193 0.148471
O O6 0.366356 0.821212 0.052002
O O7 0.299170 0.000000 0.111857
O O8 0.500000 0.819200 0.392226
O O9 0.382648 0.733028 0.337288
O O10 0.355527 0.868944 0.418009
O O11 0.119684 0.500000 0.784659
O O12 0.125108 0.759400 0.757547
O O13 0.000000 0.658438 0.795750
O O14 0.500000 0.353947 0.286393
O O15 0.625510 0.500000 0.286986
O O16 0.827441 0.500000 0.500000
O O17 0.750000 0.250000 0.000000
O O18 0.709753 0.000000 0.000000
#
# Coordination Sequence:
#
# PCOD8274591 Si02
#       7
#     8  16  16  16  16   8   8
#     4  11  23  41  61  81 113 153 181 214 273 334
#     4   9  17  30  48  72 101 133 173 216 258 304
#     4  11  22  38  62  88 110 139 188 235 265 312
#     4   9  18  32  52  75 102 136 171 207 258 319
#     4   9  18  34  55  79 103 131 172 219 262 305
#     4  11  25  41  57  83 121 153 175 212 279 340
#     4   8  14  26  45  67  95 133 171 210 256 304
#
# _framework density 18.948702999999998
#
# number of rings (size 3 to 8) (size 9 to 14) (size 15 to 20)
#    0.000    2.364    0.909    1.636    1.273    4.364 
#    0.000    2.273    0.000    2.727    0.000    0.000 
#    0.000   10.182    0.000    0.000    0.000    0.000 
#
# Total GULP energy -545280.302715 kJ/mol
# GULP energy per Si atom -12392.734153 kJ/mol
# Density = 1.890557 g / cm^3
# Si number density = 18.948703 Si / 1000 Ang^3
#
#
#
# Elastic Constant Matrix: (Units=GPa)
#
#
# Indices 1 2 3 4 5 6 
#
# 1 24.2329 7.8545 29.0321 0.0000 0.0000 0.0000
# 2 7.8545 78.2457 49.7312 0.0000 0.0000 0.0000
# 3 29.0321 49.7312 148.0314 0.0000 0.0000 0.0000
# 4 0.0000 0.0000 0.0000 32.9489 0.0000 0.0000
# 5 0.0000 0.0000 0.0000 0.0000 20.5811 0.0000
# 6 0.0000 0.0000 0.0000 0.0000 0.0000 23.1581
#
#
#
# Elastic Compliance Matrix: (Units=1/GPa)
#
#
# Indices 1 2 3 4 5 6 
#
# 1 0.054111 0.001670 -0.011173 0.000000 0.000000 0.000000
# 2 0.001670 0.016302 -0.005804 0.000000 0.000000 0.000000
# 3 -0.011173 -0.005804 0.010896 0.000000 0.000000 0.000000
# 4 0.000000 0.000000 0.000000 0.030350 0.000000 0.000000
# 5 0.000000 0.000000 0.000000 0.000000 0.048588 0.000000
# 6 0.000000 0.000000 0.000000 0.000000 0.000000 0.043181
#
#
# Mechanical properties :
#
#
# Convention : Reuss Voigt Hill
#
# Bulk Modulus (GPa) = 19.72623 47.08285 33.40454
# Shear Modulus (GPa) = 19.92494 26.26377 23.09435
#
# Velocity S-wave (km/s) = 3.24623 3.72700 3.49489
# Velocity P-wave (km/s) = 4.94809 6.58955 5.82691
#
# Compressibility (1/GPa) = 0.05069393
#
# Stress axis : x y z
#
# Youngs Moduli (GPa) = 18.48052 61.34402 91.77282
#
# Poissons Ratio (x) = -0.10242 1.02540
# Poissons Ratio (y) = -0.03086 0.53264
# Poissons Ratio (z) = 0.20649 0.35604
#
# Static dielectric constant tensor:
#      x y z
#    x 3.232380 0.000000 0.000000 
#    y 0.000000 3.629050 0.000000 
#    z 0.000000 0.000000 4.040420 
# 
# 
# High freq. dielectric constant tensor:
#      x y z
#    x 1.692900 0.000000 0.000000 
#    y 0.000000 1.745820 0.000000 
#    z 0.000000 0.000000 1.759510 
# 
# From -- ./inp_files/78010.got.cif
#   From: 2010.03.12/outbox.cif.g09.slc.cpg/sg65_40_cif.got.tgz:78010.got - 2010.04.10 20:52:16.
