data_PCOD8274671
_publ_section_title
;
Structure prediction by ZEFSAII (Michael W. Deem and Ramdas Pophale) SiO2 
 PCOD8274671
Probable space group: C M M M
;
_chemical_formula_sum "Si O2"
_cell_formula_units_Z 64
_cell_length_a 9.012470
_cell_length_b 18.523287
_cell_length_c 20.841799
_cell_angle_alpha 90.000000
_cell_angle_beta 90.000000
_cell_angle_gamma 90.000000
_cell_volume 3479.341771
_symmetry_space_group_name_H-M "C M M M"
_symmetry_group_IT_number 65
_symmetry_cell_setting 'orthorhombic'
loop_
_space_group_symop_operation_xyz
x,y,z
-x,-y,z
x,-y,-z
-x,y,-z
-x,-y,-z
x,y,-z
-x,y,z
x,-y,z
1/2+x,1/2+y,z
1/2-x,1/2-y,z
1/2+x,1/2-y,-z
1/2-x,1/2+y,-z
1/2-x,1/2-y,-z
1/2+x,1/2+y,-z
1/2-x,1/2+y,z
1/2+x,1/2-y,z
loop_
_atom_site_type_symbol
_atom_site_label
_atom_site_fract_x
_atom_site_fract_y
_atom_site_fract_z
Si Si1 0.667587 0.585871 0.000000
Si Si2 0.326395 0.082560 0.126447
Si Si3 0.323442 0.583321 0.639092
Si Si4 0.338694 0.585108 0.500000
Si Si5 0.324205 0.172935 0.250030
O O1 0.746434 0.615738 0.936082
O O2 0.679030 0.500000 0.000000
O O3 0.500000 0.613943 0.000000
O O4 0.500000 0.088280 0.113822
O O5 0.275826 0.127665 0.187901
O O6 0.277704 0.000000 0.138631
O O7 0.500000 0.596337 0.643626
O O8 0.285993 0.500000 0.654107
O O9 0.261009 0.605745 0.567712
O O10 0.235761 0.633119 0.687607
O O11 0.362083 0.500000 0.500000
O O12 0.500000 0.622471 0.500000
O O13 0.500000 0.180887 0.255419
O O14 0.250000 0.250000 0.243968
#
# Coordination Sequence:
#
# PCOD8274671 Si02
#       5
#     8  16  16   8  16
#     4   9  17  29  50  81 108 127 157 205 252 297
#     4   9  18  34  55  76 100 132 167 205 253 307
#     4   9  17  32  56  82 106 134 169 210 257 309
#     4   7  12  26  50  79 106 131 163 205 254 307
#     4  11  23  37  52  73 104 140 178 217 258 305
#
# _framework density 18.394283000000001
#
# number of rings (size 3 to 8) (size 9 to 14) (size 15 to 20)
#    0.000    2.750    0.000    3.375    0.000    5.000 
#    0.000    4.375    0.000    2.250    0.000    0.000 
#    0.000    0.000    0.000    0.000    0.000    0.000 
#
# Total GULP energy -396605.388143 kJ/mol
# GULP energy per Si atom -12393.918379 kJ/mol
# Density = 1.835242 g / cm^3
# Si number density = 18.394283 Si / 1000 Ang^3
#
#
#
# Elastic Constant Matrix: (Units=GPa)
#
#
# Indices 1 2 3 4 5 6 
#
# 1 61.6149 42.8035 66.8360 0.0000 0.0000 0.0000
# 2 42.8035 87.6833 77.1100 0.0000 0.0000 0.0000
# 3 66.8360 77.1100 202.2555 0.0000 0.0000 0.0000
# 4 0.0000 0.0000 0.0000 -3.2084 0.0000 0.0000
# 5 0.0000 0.0000 0.0000 0.0000 24.0479 0.0000
# 6 0.0000 0.0000 0.0000 0.0000 0.0000 -82.8815
#
#
#
# Elastic Compliance Matrix: (Units=1/GPa)
#
#
# Indices 1 2 3 4 5 6 
#
# 1 0.029086 -0.008644 -0.006316 0.000000 0.000000 0.000000
# 2 -0.008644 0.019726 -0.004664 0.000000 0.000000 0.000000
# 3 -0.006316 -0.004664 0.008810 0.000000 0.000000 0.000000
# 4 0.000000 0.000000 0.000000 -0.311677 0.000000 0.000000
# 5 0.000000 0.000000 0.000000 0.000000 0.041584 0.000000
# 6 0.000000 0.000000 0.000000 0.000000 0.000000 -0.012065
#
#
# Mechanical properties :
#
#
# Convention : Reuss Voigt Hill
#
# Bulk Modulus (GPa) = 54.42727 80.56141 67.49434
# Shear Modulus (GPa) = -27.90737 -1.42146 -14.66442
#
# Velocity S-wave (km/s) = -3.89932 -0.88003 -2.82658
# Velocity P-wave (km/s) = 3.06277 6.54671 5.11077
#
# Compressibility (1/GPa) = 0.01837314
#
# Stress axis : x y z
#
# Youngs Moduli (GPa) = 34.38055 50.69407 113.51321
#
# Poissons Ratio (x) = 0.43822 0.71695
# Poissons Ratio (y) = 0.29720 0.52943
# Poissons Ratio (z) = 0.21715 0.23644
#
# Static dielectric constant tensor:
#      x y z
#    x 3.218530 0.000000 0.000000 
#    y 0.000000 3.142020 0.000000 
#    z 0.000000 0.000000 3.797280 
# 
# 
# High freq. dielectric constant tensor:
#      x y z
#    x 1.698040 0.000000 0.000000 
#    y 0.000000 1.680860 0.000000 
#    z 0.000000 0.000000 1.738110 
# 
# From -- ./inp_files/58789.got.cif
#   From: 2010.03.12/outbox.cif.g09.slc.cpg/sg65_30_cif.got.tgz:58789.got - 2010.04.10 20:52:16.
