data_PCOD8274267
_publ_section_title
;
Structure prediction by ZEFSAII (Michael W. Deem and Ramdas Pophale) SiO2 
 PCOD8274267
Probable space group: C M M M
;
_chemical_formula_sum "Si O2"
_cell_formula_units_Z 80
_cell_length_a 23.666609
_cell_length_b 9.049038
_cell_length_c 23.105067
_cell_angle_alpha 90.000000
_cell_angle_beta 90.000000
_cell_angle_gamma 90.000000
_cell_volume 4948.182169
_symmetry_space_group_name_H-M "C M M M"
_symmetry_group_IT_number 65
_symmetry_cell_setting 'orthorhombic'
loop_
_space_group_symop_operation_xyz
x,y,z
-x,-y,z
x,-y,-z
-x,y,-z
-x,-y,-z
x,y,-z
-x,y,z
x,-y,z
1/2+x,1/2+y,z
1/2-x,1/2-y,z
1/2+x,1/2-y,-z
1/2-x,1/2+y,-z
1/2-x,1/2-y,-z
1/2+x,1/2+y,-z
1/2-x,1/2+y,z
1/2+x,1/2-y,z
loop_
_atom_site_type_symbol
_atom_site_label
_atom_site_fract_x
_atom_site_fract_y
_atom_site_fract_z
Si Si1 0.888281 0.673019 0.092503
Si Si2 0.567176 0.833889 0.563352
Si Si3 0.067268 0.835179 0.673580
Si Si4 0.935753 0.329329 0.212576
Si Si5 0.689072 0.677976 0.000000
Si Si6 0.500000 0.339442 0.935447
O O1 0.881678 0.500000 0.076831
O O2 0.889359 0.697910 0.162047
O O3 0.840684 0.766307 0.059074
O O4 0.947804 0.733122 0.073281
O O5 0.585792 0.771628 0.500000
O O6 0.500000 0.832823 0.567282
O O7 0.593123 0.737437 0.615442
O O8 0.589839 0.000000 0.570687
O O9 0.088073 0.752910 0.731159
O O10 0.000000 0.830392 0.671027
O O11 0.090917 0.000000 0.676476
O O12 0.939606 0.500000 0.228601
O O13 0.000000 0.274797 0.194993
O O14 0.750000 0.750000 0.000000
O O15 0.691299 0.500000 0.000000
O O16 0.500000 0.500000 0.900600
O O17 0.500000 0.394109 0.000000
#
# Coordination Sequence:
#
# PCOD8274267 Si02
#       6
#    16  16  16  16   8   8
#     4  11  21  35  54  74  95 122 153 189 230 276
#     4   8  13  21  32  44  61  93 137 180 218 256
#     4   9  16  23  32  50  75 104 136 176 222 261
#     4   9  17  29  43  62  87 116 146 176 219 272
#     4  12  26  43  58  75  94 120 152 188 230 274
#     4  11  21  31  47  75 102 124 147 180 227 278
#
# _framework density 16.167553000000002
#
# number of rings (size 3 to 8) (size 9 to 14) (size 15 to 20)
#    0.000    2.300    2.000    3.000    0.000    4.800 
#    0.000    2.000    0.000    0.000    0.000    0.000 
#    0.000    0.000    0.000    0.000    0.000    1.000 
#
# Total GULP energy -495528.754560 kJ/mol
# GULP energy per Si atom -12388.218864 kJ/mol
# Density = 1.613075 g / cm^3
# Si number density = 16.167553 Si / 1000 Ang^3
#
#
#
# Elastic Constant Matrix: (Units=GPa)
#
#
# Indices 1 2 3 4 5 6 
#
# 1 53.4879 30.3574 31.6257 0.0000 0.0000 0.0000
# 2 30.3574 114.4050 74.8176 0.0000 0.0000 0.0000
# 3 31.6257 74.8176 144.7436 0.0000 0.0000 0.0000
# 4 0.0000 0.0000 0.0000 21.5759 0.0000 0.0000
# 5 0.0000 0.0000 0.0000 0.0000 -17.6576 0.0000
# 6 0.0000 0.0000 0.0000 0.0000 0.0000 15.9905
#
#
#
# Elastic Compliance Matrix: (Units=1/GPa)
#
#
# Indices 1 2 3 4 5 6 
#
# 1 0.022735 -0.004206 -0.002793 0.000000 0.000000 0.000000
# 2 -0.004206 0.013983 -0.006309 0.000000 0.000000 0.000000
# 3 -0.002793 -0.006309 0.010780 0.000000 0.000000 0.000000
# 4 0.000000 0.000000 0.000000 0.046348 0.000000 0.000000
# 5 0.000000 0.000000 0.000000 0.000000 -0.056633 0.000000
# 6 0.000000 0.000000 0.000000 0.000000 0.000000 0.062537
#
#
# Mechanical properties :
#
#
# Convention : Reuss Voigt Hill
#
# Bulk Modulus (GPa) = 47.88938 65.13754 56.51346
# Shear Modulus (GPa) = 37.50218 15.70413 26.60316
#
# Velocity S-wave (km/s) = 4.82144 3.12001 4.06083
# Velocity P-wave (km/s) = 7.78974 7.30450 7.55102
#
# Compressibility (1/GPa) = 0.02088146
#
# Stress axis : x y z
#
# Youngs Moduli (GPa) = 43.98599 71.51786 92.76438
#
# Poissons Ratio (x) = 0.30079 0.25913
# Poissons Ratio (y) = 0.18500 0.58521
# Poissons Ratio (z) = 0.12287 0.45118
#
# Static dielectric constant tensor:
#      x y z
#    x 2.431520 0.000000 0.000000 
#    y 0.000000 3.235680 0.000000 
#    z 0.000000 0.000000 3.495170 
# 
# 
# High freq. dielectric constant tensor:
#      x y z
#    x 1.532720 0.000000 0.000000 
#    y 0.000000 1.637900 0.000000 
#    z 0.000000 0.000000 1.638260 
# 
# From -- ./inp_files/70871.got.cif
#   From: 2010.03.12/outbox.cif.g09.slc.cpg/sg65_36_cif.got.tgz:70871.got - 2010.04.10 20:52:16.
