data_PCOD8274454
_publ_section_title
;
Structure prediction by ZEFSAII (Michael W. Deem and Ramdas Pophale) SiO2 
 PCOD8274454
Probable space group: C M M M
;
_chemical_formula_sum "Si O2"
_cell_formula_units_Z 80
_cell_length_a 25.682003
_cell_length_b 9.975868
_cell_length_c 20.094739
_cell_angle_alpha 90.000000
_cell_angle_beta 90.000000
_cell_angle_gamma 90.000000
_cell_volume 5148.277596
_symmetry_space_group_name_H-M "C M M M"
_symmetry_group_IT_number 65
_symmetry_cell_setting 'orthorhombic'
loop_
_space_group_symop_operation_xyz
x,y,z
-x,-y,z
x,-y,-z
-x,y,-z
-x,-y,-z
x,y,-z
-x,y,z
x,-y,z
1/2+x,1/2+y,z
1/2-x,1/2-y,z
1/2+x,1/2-y,-z
1/2-x,1/2+y,-z
1/2-x,1/2-y,-z
1/2+x,1/2+y,-z
1/2-x,1/2+y,z
1/2+x,1/2-y,z
loop_
_atom_site_type_symbol
_atom_site_label
_atom_site_fract_x
_atom_site_fract_y
_atom_site_fract_z
Si Si1 0.437874 0.152930 0.000000
Si Si2 0.938202 0.851172 0.887037
Si Si3 0.186671 0.000000 0.422341
Si Si4 0.808704 0.500000 0.420913
Si Si5 0.440028 0.656211 0.263411
Si Si6 0.438886 0.844441 0.500000
Si Si7 0.126178 0.745124 0.620383
O O1 0.416803 0.234741 0.935684
O O2 0.500000 0.148508 0.000000
O O3 0.415956 0.000000 0.000000
O O4 0.920998 0.817531 0.811915
O O5 0.000000 0.855733 0.890884
O O6 0.917291 0.000000 0.907566
O O7 0.247692 0.000000 0.408222
O O8 0.161177 0.873980 0.388215
O O9 0.174621 0.000000 0.500000
O O10 0.821208 0.500000 0.500000
O O11 0.833257 0.625096 0.383365
O O12 0.500000 0.700504 0.272425
O O13 0.433994 0.500000 0.282402
O O14 0.403758 0.748541 0.309506
O O15 0.500000 0.829647 0.500000
O O16 0.417620 0.768575 0.564241
O O17 0.421389 0.000000 0.500000
#
# Coordination Sequence:
#
# PCOD8274454 Si02
#       7
#     8  16   8   8  16   8  16
#     4   9  15  23  37  61  91 117 154 199 224 250
#     4   8  14  26  42  59  83 122 161 188 222 266
#     4  11  22  34  56  74  88 111 156 213 253 288
#     4  11  22  38  52  68  92 119 156 201 251 310
#     4   9  18  31  47  68  95 126 162 198 230 274
#     4  11  22  35  48  68  97 128 159 191 232 285
#     4  12  19  36  50  71  92 123 157 196 245 285
#
# _framework density 15.539177
#
# number of rings (size 3 to 8) (size 9 to 14) (size 15 to 20)
#    0.000    2.000    4.000    2.700    0.000    2.800 
#    1.800    0.500    0.000    0.000    0.000    0.000 
#    0.000    0.000    0.000    5.400    0.000    0.700 
#
# Total GULP energy -495865.332155 kJ/mol
# GULP energy per Si atom -12396.633304 kJ/mol
# Density = 1.550381 g / cm^3
# Si number density = 15.539177 Si / 1000 Ang^3
#
#
#
# Elastic Constant Matrix: (Units=GPa)
#
#
# Indices 1 2 3 4 5 6 
#
# 1 67.3266 40.6828 36.5167 0.0000 0.0000 0.0000
# 2 40.6828 123.6885 61.7414 0.0000 0.0000 0.0000
# 3 36.5167 61.7414 114.2537 0.0000 0.0000 0.0000
# 4 0.0000 0.0000 0.0000 23.5308 0.0000 0.0000
# 5 0.0000 0.0000 0.0000 0.0000 3.8766 0.0000
# 6 0.0000 0.0000 0.0000 0.0000 0.0000 17.9632
#
#
#
# Elastic Compliance Matrix: (Units=1/GPa)
#
#
# Indices 1 2 3 4 5 6 
#
# 1 0.019686 -0.004566 -0.003825 0.000000 0.000000 0.000000
# 2 -0.004566 0.012130 -0.005096 0.000000 0.000000 0.000000
# 3 -0.003825 -0.005096 0.012728 0.000000 0.000000 0.000000
# 4 0.000000 0.000000 0.000000 0.042498 0.000000 0.000000
# 5 0.000000 0.000000 0.000000 0.000000 0.257959 0.000000
# 6 0.000000 0.000000 0.000000 0.000000 0.000000 0.055669
#
#
# Mechanical properties :
#
#
# Convention : Reuss Voigt Hill
#
# Bulk Modulus (GPa) = 56.90683 64.79451 60.85067
# Shear Modulus (GPa) = 11.53398 20.16263 15.84831
#
# Velocity S-wave (km/s) = 2.72739 3.60604 3.19704
# Velocity P-wave (km/s) = 6.82783 7.68935 7.27136
#
# Compressibility (1/GPa) = 0.01757258
#
# Stress axis : x y z
#
# Youngs Moduli (GPa) = 50.79644 82.43835 78.56402
#
# Poissons Ratio (x) = 0.37642 0.30047
# Poissons Ratio (y) = 0.23194 0.40034
# Poissons Ratio (z) = 0.19427 0.42008
#
# Static dielectric constant tensor:
#      x y z
#    x 2.701460 0.000000 0.000000 
#    y 0.000000 3.083050 0.000000 
#    z 0.000000 0.000000 3.004440 
# 
# 
# High freq. dielectric constant tensor:
#      x y z
#    x 1.559540 0.000000 0.000000 
#    y 0.000000 1.603070 0.000000 
#    z 0.000000 0.000000 1.589350 
# 
# From -- ./inp_files/65715.got.cif
#   From: 2010.03.12/outbox.cif.g09.slc.cpg/sg65_33_cif.got.tgz:65715.got - 2010.04.10 20:52:16.
