data_PCOD8274579
_publ_section_title
;
Structure prediction by ZEFSAII (Michael W. Deem and Ramdas Pophale) SiO2 
 PCOD8274579
Probable space group: C M M M
;
_chemical_formula_sum "Si O2"
_cell_formula_units_Z 64
_cell_length_a 15.516837
_cell_length_b 23.905311
_cell_length_c 8.607803
_cell_angle_alpha 90.000000
_cell_angle_beta 90.000000
_cell_angle_gamma 90.000000
_cell_volume 3192.933807
_symmetry_space_group_name_H-M "C M M M"
_symmetry_group_IT_number 65
_symmetry_cell_setting 'orthorhombic'
loop_
_space_group_symop_operation_xyz
x,y,z
-x,-y,z
x,-y,-z
-x,y,-z
-x,-y,-z
x,y,-z
-x,y,z
x,-y,z
1/2+x,1/2+y,z
1/2-x,1/2-y,z
1/2+x,1/2-y,-z
1/2-x,1/2+y,-z
1/2-x,1/2-y,-z
1/2+x,1/2+y,-z
1/2-x,1/2+y,z
1/2+x,1/2-y,z
loop_
_atom_site_type_symbol
_atom_site_label
_atom_site_fract_x
_atom_site_fract_y
_atom_site_fract_z
Si Si1 0.160077 0.385045 0.315769
Si Si2 0.500000 0.812998 0.684177
Si Si3 0.000000 0.813944 0.315410
Si Si4 0.903868 0.000000 0.184127
Si Si5 0.598519 0.000000 0.816032
Si Si6 0.159930 0.880892 0.184370
O O1 0.160253 0.387932 0.500000
O O2 0.084559 0.344760 0.252574
O O3 0.147628 0.446471 0.247740
O O4 0.249920 0.359793 0.254594
O O5 0.500000 0.814123 0.500000
O O6 0.500000 0.749755 0.745167
O O7 0.915190 0.842492 0.249438
O O8 0.000000 0.817780 0.500000
O O9 0.854464 0.055274 0.241399
O O10 0.000000 0.000000 0.255560
O O11 0.910335 0.000000 0.000000
O O12 0.500000 0.000000 0.756935
O O13 0.604463 0.000000 0.000000
O O14 0.161088 0.876318 0.000000
#
# Coordination Sequence:
#
# PCOD8274579 Si02
#       6
#    16   8   8   8   8  16
#     4  11  22  40  64  90 119 160 208 251 296 360
#     4   9  22  42  63  84 116 161 208 255 302 350
#     4  11  23  42  63  86 116 159 210 255 299 360
#     4   9  17  34  59  82 114 156 188 223 288 363
#     4  11  22  37  60  93 129 161 192 243 312 368
#     4  11  22  39  62  91 123 157 196 249 312 366
#
# _framework density 20.044260000000001
#
# number of rings (size 3 to 8) (size 9 to 14) (size 15 to 20)
#    0.000    1.500    2.500    3.000    0.000    2.500 
#    0.000   12.500    0.000    0.000    0.000    0.000 
#    0.000    0.000    0.000    0.000    0.000    0.000 
#
# Total GULP energy -396922.095994 kJ/mol
# GULP energy per Si atom -12403.815500 kJ/mol
# Density = 1.999864 g / cm^3
# Si number density = 20.044260 Si / 1000 Ang^3
#
#
#
# Elastic Constant Matrix: (Units=GPa)
#
#
# Indices 1 2 3 4 5 6 
#
# 1 196.8421 78.3526 40.6360 0.0000 0.0000 0.0000
# 2 78.3526 155.1365 33.3365 0.0000 0.0000 0.0000
# 3 40.6360 33.3365 67.8925 0.0000 0.0000 0.0000
# 4 0.0000 0.0000 0.0000 17.1478 0.0000 0.0000
# 5 0.0000 0.0000 0.0000 0.0000 36.7433 0.0000
# 6 0.0000 0.0000 0.0000 0.0000 0.0000 -60.5809
#
#
#
# Elastic Compliance Matrix: (Units=1/GPa)
#
#
# Indices 1 2 3 4 5 6 
#
# 1 0.006759 -0.002845 -0.002649 0.000000 0.000000 0.000000
# 2 -0.002845 0.008403 -0.002424 0.000000 0.000000 0.000000
# 3 -0.002649 -0.002424 0.017505 0.000000 0.000000 0.000000
# 4 0.000000 0.000000 0.000000 0.058316 0.000000 0.000000
# 5 0.000000 0.000000 0.000000 0.000000 0.027216 0.000000
# 6 0.000000 0.000000 0.000000 0.000000 0.000000 -0.016507
#
#
# Mechanical properties :
#
#
# Convention : Reuss Voigt Hill
#
# Bulk Modulus (GPa) = 59.40683 80.50237 69.95460
# Shear Modulus (GPa) = 40.60473 16.49845 28.55159
#
# Velocity S-wave (km/s) = 4.50572 2.87209 3.77825
# Velocity P-wave (km/s) = 7.53464 7.15877 7.34911
#
# Compressibility (1/GPa) = 0.01683308
#
# Stress axis : x y z
#
# Youngs Moduli (GPa) = 147.94291 118.99883 57.12745
#
# Poissons Ratio (x) = 0.33851 0.15133
# Poissons Ratio (y) = 0.42084 0.13846
# Poissons Ratio (z) = 0.39189 0.28841
#
# Static dielectric constant tensor:
#      x y z
#    x 3.921810 0.000000 0.000000 
#    y 0.000000 3.791290 0.000000 
#    z 0.000000 0.000000 3.463310 
# 
# 
# High freq. dielectric constant tensor:
#      x y z
#    x 1.803590 0.000000 0.000000 
#    y 0.000000 1.780850 0.000000 
#    z 0.000000 0.000000 1.769740 
# 
# From -- ./inp_files/6836.got.cif
#   From: 2010.03.12/outbox.cif.g09.slc.cpg/sg65_4_cif.got.tgz:6836.got - 2010.04.10 20:52:16.
