data_PCOD8274725
_publ_section_title
;
Structure prediction by ZEFSAII (Michael W. Deem and Ramdas Pophale) SiO2 
 PCOD8274725
Probable space group: C M M M
;
_chemical_formula_sum "Si O2"
_cell_formula_units_Z 64
_cell_length_a 16.984121
_cell_length_b 12.265382
_cell_length_c 15.285752
_cell_angle_alpha 90.000000
_cell_angle_beta 90.000000
_cell_angle_gamma 90.000000
_cell_volume 3184.277903
_symmetry_space_group_name_H-M "C M M M"
_symmetry_group_IT_number 65
_symmetry_cell_setting 'orthorhombic'
loop_
_space_group_symop_operation_xyz
x,y,z
-x,-y,z
x,-y,-z
-x,y,-z
-x,-y,-z
x,y,-z
-x,y,z
x,-y,z
1/2+x,1/2+y,z
1/2-x,1/2-y,z
1/2+x,1/2-y,-z
1/2-x,1/2+y,-z
1/2-x,1/2-y,-z
1/2+x,1/2+y,-z
1/2-x,1/2+y,z
1/2+x,1/2-y,z
loop_
_atom_site_type_symbol
_atom_site_label
_atom_site_fract_x
_atom_site_fract_y
_atom_site_fract_z
Si Si1 0.907660 0.378348 0.500000
Si Si2 0.406320 0.878608 0.000000
Si Si3 0.905434 0.767692 0.158168
Si Si4 0.087532 0.000000 0.647056
Si Si5 0.158013 0.768498 0.349548
Si Si6 0.414648 0.500000 0.852870
O O1 0.870557 0.500000 0.500000
O O2 0.882731 0.316629 0.412830
O O3 0.000000 0.387130 0.500000
O O4 0.375980 0.820250 0.087927
O O5 0.500000 0.878731 0.000000
O O6 0.371568 0.000000 0.000000
O O7 0.869404 0.738978 0.251684
O O8 0.000000 0.772736 0.167030
O O9 0.872318 0.885767 0.122941
O O10 0.135425 0.108704 0.620011
O O11 0.075188 0.000000 0.749436
O O12 0.000000 0.000000 0.603046
O O13 0.250000 0.750000 0.357070
O O14 0.500000 0.500000 0.899035
#
# Coordination Sequence:
#
# PCOD8274725 Si02
#       6
#     8   8  16   8  16   8
#     4  11  25  43  63  89 123 161 205 245 295 373
#     4   9  18  31  50  81 115 156 207 248 281 351
#     4   9  17  33  56  82 115 152 198 247 300 357
#     4   9  18  37  63  87 116 155 206 252 296 366
#     4  11  23  39  62  91 124 158 202 256 315 362
#     4   7  12  25  49  79 104 135 183 242 292 338
#
# _framework density 20.098749000000002
#
# number of rings (size 3 to 8) (size 9 to 14) (size 15 to 20)
#    0.000    2.500    0.000    4.125    1.750    2.000 
#    0.000    6.875    0.000    0.000    0.000    0.000 
#    0.000    0.000    0.000    0.000    0.000    0.000 
#
# Total GULP energy -396534.637712 kJ/mol
# GULP energy per Si atom -12391.707428 kJ/mol
# Density = 2.005300 g / cm^3
# Si number density = 20.098749 Si / 1000 Ang^3
#
#
#
# Elastic Constant Matrix: (Units=GPa)
#
#
# Indices 1 2 3 4 5 6 
#
# 1 81.5925 49.3077 16.7934 0.0000 0.0000 0.0000
# 2 49.3077 217.4718 88.1579 0.0000 0.0000 0.0000
# 3 16.7934 88.1579 112.0358 0.0000 0.0000 0.0000
# 4 0.0000 0.0000 0.0000 36.5504 0.0000 0.0000
# 5 0.0000 0.0000 0.0000 0.0000 11.8799 0.0000
# 6 0.0000 0.0000 0.0000 0.0000 0.0000 18.4683
#
#
#
# Elastic Compliance Matrix: (Units=1/GPa)
#
#
# Indices 1 2 3 4 5 6 
#
# 1 0.014229 -0.003468 0.000596 0.000000 0.000000 0.000000
# 2 -0.003468 0.007597 -0.005458 0.000000 0.000000 0.000000
# 3 0.000596 -0.005458 0.013131 0.000000 0.000000 0.000000
# 4 0.000000 0.000000 0.000000 0.027359 0.000000 0.000000
# 5 0.000000 0.000000 0.000000 0.000000 0.084176 0.000000
# 6 0.000000 0.000000 0.000000 0.000000 0.000000 0.054147
#
#
# Mechanical properties :
#
#
# Convention : Reuss Voigt Hill
#
# Bulk Modulus (GPa) = 54.65293 79.95758 67.30525
# Shear Modulus (GPa) = 22.38148 30.50246 26.44197
#
# Velocity S-wave (km/s) = 3.34065 3.89990 3.63106
# Velocity P-wave (km/s) = 6.49085 7.75550 7.15118
#
# Compressibility (1/GPa) = 0.01829728
#
# Stress axis : x y z
#
# Youngs Moduli (GPa) = 70.27909 131.62809 76.15376
#
# Poissons Ratio (x) = 0.45644 -0.04537
# Poissons Ratio (y) = 0.24371 0.41566
# Poissons Ratio (z) = -0.04187 0.71845
#
# Static dielectric constant tensor:
#      x y z
#    x 3.475900 0.000000 0.000000 
#    y 0.000000 4.274750 0.000000 
#    z 0.000000 0.000000 3.607190 
# 
# 
# High freq. dielectric constant tensor:
#      x y z
#    x 1.749150 0.000000 0.000000 
#    y 0.000000 1.802200 0.000000 
#    z 0.000000 0.000000 1.780910 
# 
# From -- ./inp_files/37847.got.cif
#   From: 2010.03.12/outbox.cif.g09.slc.cpg/sg65_19_cif.got.tgz:37847.got - 2010.04.10 20:52:16.
