data_PCOD8274542
_publ_section_title
;
Structure prediction by ZEFSAII (Michael W. Deem and Ramdas Pophale) SiO2 
 PCOD8274542
Probable space group: C M M M
;
_chemical_formula_sum "Si O2"
_cell_formula_units_Z 72
_cell_length_a 27.205947
_cell_length_b 8.743690
_cell_length_c 16.171878
_cell_angle_alpha 90.000000
_cell_angle_beta 90.000000
_cell_angle_gamma 90.000000
_cell_volume 3846.972269
_symmetry_space_group_name_H-M "C M M M"
_symmetry_group_IT_number 65
_symmetry_cell_setting 'orthorhombic'
loop_
_space_group_symop_operation_xyz
x,y,z
-x,-y,z
x,-y,-z
-x,y,-z
-x,-y,-z
x,y,-z
-x,y,z
x,-y,z
1/2+x,1/2+y,z
1/2-x,1/2-y,z
1/2+x,1/2-y,-z
1/2-x,1/2+y,-z
1/2-x,1/2-y,-z
1/2+x,1/2+y,-z
1/2-x,1/2+y,z
1/2+x,1/2-y,z
loop_
_atom_site_type_symbol
_atom_site_label
_atom_site_fract_x
_atom_site_fract_y
_atom_site_fract_z
Si Si1 0.555474 0.682037 0.500000
Si Si2 0.152016 0.819142 0.093245
Si Si3 0.053321 0.821092 0.169512
Si Si4 0.198830 0.680367 0.249648
Si Si5 0.607382 0.320858 0.334302
O O1 0.552702 0.500000 0.500000
O O2 0.500000 0.748731 0.500000
O O3 0.584908 0.740910 0.580150
O O4 0.096232 0.758878 0.109276
O O5 0.188625 0.737575 0.156326
O O6 0.154729 0.000000 0.109990
O O7 0.167497 0.777082 0.000000
O O8 0.067195 0.785599 0.264149
O O9 0.000000 0.744433 0.150115
O O10 0.048347 0.000000 0.155202
O O11 0.202424 0.500000 0.248813
O O12 0.250000 0.750000 0.280649
O O13 0.157478 0.732434 0.314373
O O14 0.619822 0.500000 0.338144
#
# Coordination Sequence:
#
# PCOD8274542 Si02
#       5
#     8  16  16  16  16
#     4   9  16  28  54  89 116 139 170 209 248 287
#     4   9  18  32  50  75 105 133 166 210 256 303
#     4   8  13  23  43  71 102 135 168 202 240 285
#     4  11  22  37  56  74  96 130 171 213 260 309
#     4   9  17  31  51  78 109 136 168 209 251 297
#
# _framework density 18.716017999999998
#
# number of rings (size 3 to 8) (size 9 to 14) (size 15 to 20)
#    0.000    2.778    0.000    4.000    0.000    4.000 
#    0.000    3.333    0.000   17.333    0.000    6.222 
#    0.000    0.000    0.000    0.000    0.000    0.000 
#
# Total GULP energy -446261.338624 kJ/mol
# GULP energy per Si atom -12396.148295 kJ/mol
# Density = 1.867342 g / cm^3
# Si number density = 18.716018 Si / 1000 Ang^3
#
#
#
# Elastic Constant Matrix: (Units=GPa)
#
#
# Indices 1 2 3 4 5 6 
#
# 1 124.3137 38.8864 37.1265 0.0000 0.0000 0.0000
# 2 38.8864 65.0587 31.7760 0.0000 0.0000 0.0000
# 3 37.1265 31.7760 106.5731 0.0000 0.0000 0.0000
# 4 0.0000 0.0000 0.0000 17.5752 0.0000 0.0000
# 5 0.0000 0.0000 0.0000 0.0000 20.5375 0.0000
# 6 0.0000 0.0000 0.0000 0.0000 0.0000 21.4638
#
#
#
# Elastic Compliance Matrix: (Units=1/GPa)
#
#
# Indices 1 2 3 4 5 6 
#
# 1 0.010261 -0.005135 -0.002043 0.000000 0.000000 0.000000
# 2 -0.005135 0.020560 -0.004342 0.000000 0.000000 0.000000
# 3 -0.002043 -0.004342 0.011390 0.000000 0.000000 0.000000
# 4 0.000000 0.000000 0.000000 0.056898 0.000000 0.000000
# 5 0.000000 0.000000 0.000000 0.000000 0.048691 0.000000
# 6 0.000000 0.000000 0.000000 0.000000 0.000000 0.046590
#
#
# Mechanical properties :
#
#
# Convention : Reuss Voigt Hill
#
# Bulk Modulus (GPa) = 52.16218 56.83592 54.49905
# Shear Modulus (GPa) = 22.33936 24.45909 23.39923
#
# Velocity S-wave (km/s) = 3.45859 3.61896 3.53969
# Velocity P-wave (km/s) = 6.62420 6.92069 6.77407
#
# Compressibility (1/GPa) = 0.01917098
#
# Stress axis : x y z
#
# Youngs Moduli (GPa) = 97.45945 48.63725 87.79963
#
# Poissons Ratio (x) = 0.24975 0.17941
# Poissons Ratio (y) = 0.50044 0.38118
# Poissons Ratio (z) = 0.19915 0.21116
#
# Static dielectric constant tensor:
#      x y z
#    x 3.629980 0.000000 0.000000 
#    y 0.000000 2.997180 0.000000 
#    z 0.000000 0.000000 3.443340 
# 
# 
# High freq. dielectric constant tensor:
#      x y z
#    x 1.736960 0.000000 0.000000 
#    y 0.000000 1.682000 0.000000 
#    z 0.000000 0.000000 1.718840 
# 
# From -- ./inp_files/46512.got.cif
#   From: 2010.03.12/outbox.cif.g09.slc.cpg/sg65_24_cif.got.tgz:46512.got - 2010.04.10 20:52:16.
