data_PCOD8274256
_publ_section_title
;
Structure prediction by ZEFSAII (Michael W. Deem and Ramdas Pophale) SiO2 
 PCOD8274256
Probable space group: C M M M
;
_chemical_formula_sum "Si O2"
_cell_formula_units_Z 72
_cell_length_a 36.716168
_cell_length_b 14.487400
_cell_length_c 7.985368
_cell_angle_alpha 90.000000
_cell_angle_beta 90.000000
_cell_angle_gamma 90.000000
_cell_volume 4247.591418
_symmetry_space_group_name_H-M "C M M M"
_symmetry_group_IT_number 65
_symmetry_cell_setting 'orthorhombic'
loop_
_space_group_symop_operation_xyz
x,y,z
-x,-y,z
x,-y,-z
-x,y,-z
-x,-y,-z
x,y,-z
-x,y,z
x,-y,z
1/2+x,1/2+y,z
1/2-x,1/2-y,z
1/2+x,1/2-y,-z
1/2-x,1/2+y,-z
1/2-x,1/2-y,-z
1/2+x,1/2+y,-z
1/2-x,1/2+y,z
1/2+x,1/2-y,z
loop_
_atom_site_type_symbol
_atom_site_label
_atom_site_fract_x
_atom_site_fract_y
_atom_site_fract_z
Si Si1 0.839337 0.778975 0.188948
Si Si2 0.693148 0.100056 0.693880
Si Si3 0.540529 0.390881 0.500000
Si Si4 0.090911 0.108339 0.805227
Si Si5 0.726518 0.392504 0.308740
O O1 0.836570 0.679378 0.277711
O O2 0.873088 0.838204 0.257859
O O3 0.802303 0.836161 0.201168
O O4 0.847471 0.754579 0.000000
O O5 0.699848 0.085394 0.500000
O O6 0.733090 0.127724 0.766035
O O7 0.680461 0.000000 0.768968
O O8 0.538189 0.500000 0.500000
O O9 0.500000 0.347514 0.500000
O O10 0.559979 0.359375 0.326538
O O11 0.099045 0.000000 0.787445
O O12 0.080140 0.130928 0.000000
O O13 0.722871 0.358135 0.500000
O O14 0.717280 0.500000 0.293602
#
# Coordination Sequence:
#
# PCOD8274256 Si02
#       5
#    16  16   8  16  16
#     4  11  21  30  44  67  93 122 155 193 242 288
#     4   9  19  34  47  61  84 118 163 207 243 281
#     4   9  18  32  52  76  98 129 165 185 216 274
#     4   9  19  33  47  71 105 131 156 193 231 274
#     4   9  18  31  46  63  85 119 161 201 240 281
#
# _framework density 16.950783999999999
#
# number of rings (size 3 to 8) (size 9 to 14) (size 15 to 20)
#    0.000    2.556    0.000    3.333    3.111    5.778 
#    0.000    4.444    0.000    0.000    0.000    0.000 
#    0.000    1.778    0.000    4.889    0.000    0.222 
#
# Total GULP energy -446114.834159 kJ/mol
# GULP energy per Si atom -12392.078727 kJ/mol
# Density = 1.691220 g / cm^3
# Si number density = 16.950784 Si / 1000 Ang^3
#
#
#
# Elastic Constant Matrix: (Units=GPa)
#
#
# Indices 1 2 3 4 5 6 
#
# 1 102.3607 56.7825 42.5527 0.0000 0.0000 0.0000
# 2 56.7825 73.7740 26.7466 0.0000 0.0000 0.0000
# 3 42.5527 26.7466 61.4790 0.0000 0.0000 0.0000
# 4 0.0000 0.0000 0.0000 9.3771 0.0000 0.0000
# 5 0.0000 0.0000 0.0000 0.0000 18.4155 0.0000
# 6 0.0000 0.0000 0.0000 0.0000 0.0000 15.2490
#
#
#
# Elastic Compliance Matrix: (Units=1/GPa)
#
#
# Indices 1 2 3 4 5 6 
#
# 1 0.020268 -0.012483 -0.008598 0.000000 0.000000 0.000000
# 2 -0.012483 0.023781 -0.001706 0.000000 0.000000 0.000000
# 3 -0.008598 -0.001706 0.022959 0.000000 0.000000 0.000000
# 4 0.000000 0.000000 0.000000 0.106642 0.000000 0.000000
# 5 0.000000 0.000000 0.000000 0.000000 0.054302 0.000000
# 6 0.000000 0.000000 0.000000 0.000000 0.000000 0.065578
#
#
# Mechanical properties :
#
#
# Convention : Reuss Voigt Hill
#
# Bulk Modulus (GPa) = 46.65330 54.41971 50.53650
# Shear Modulus (GPa) = 14.44043 16.04380 15.24212
#
# Velocity S-wave (km/s) = 2.92191 3.07985 3.00192
# Velocity P-wave (km/s) = 6.24227 6.69489 6.47254
#
# Compressibility (1/GPa) = 0.02143471
#
# Stress axis : x y z
#
# Youngs Moduli (GPa) = 49.33793 42.04970 43.55587
#
# Poissons Ratio (x) = 0.52491 0.37449
# Poissons Ratio (y) = 0.61589 0.07431
# Poissons Ratio (z) = 0.42421 0.07174
#
# Static dielectric constant tensor:
#      x y z
#    x 3.165760 0.000000 0.000000 
#    y 0.000000 3.152280 0.000000 
#    z 0.000000 0.000000 3.152420 
# 
# 
# High freq. dielectric constant tensor:
#      x y z
#    x 1.617590 0.000000 0.000000 
#    y 0.000000 1.639820 0.000000 
#    z 0.000000 0.000000 1.654190 
# 
# From -- ./inp_files/7197.got.cif
#   From: 2010.03.12/outbox.cif.g09.slc.cpg/sg65_4_cif.got.tgz:7197.got - 2010.04.10 20:52:16.
