data_PCOD8274975
_publ_section_title
;
Structure prediction by ZEFSAII (Michael W. Deem and Ramdas Pophale) SiO2 
 PCOD8274975
Probable space group: C M M M
;
_chemical_formula_sum "Si O2"
_cell_formula_units_Z 96
_cell_length_a 9.860797
_cell_length_b 30.410692
_cell_length_c 19.869966
_cell_angle_alpha 90.000000
_cell_angle_beta 90.000000
_cell_angle_gamma 90.000000
_cell_volume 5958.479437
_symmetry_space_group_name_H-M "C M M M"
_symmetry_group_IT_number 65
_symmetry_cell_setting 'orthorhombic'
loop_
_space_group_symop_operation_xyz
x,y,z
-x,-y,z
x,-y,-z
-x,y,-z
-x,-y,-z
x,y,-z
-x,y,z
x,-y,z
1/2+x,1/2+y,z
1/2-x,1/2-y,z
1/2+x,1/2-y,-z
1/2-x,1/2+y,-z
1/2-x,1/2-y,-z
1/2+x,1/2+y,-z
1/2-x,1/2+y,z
1/2+x,1/2-y,z
loop_
_atom_site_type_symbol
_atom_site_label
_atom_site_fract_x
_atom_site_fract_y
_atom_site_fract_z
Si Si1 0.650071 0.713732 0.920251
Si Si2 0.842813 0.614154 0.421328
Si Si3 0.161800 0.116393 0.925106
Si Si4 0.839063 0.048596 0.182937
Si Si5 0.349098 0.212841 0.419934
Si Si6 0.343205 0.551420 0.665240
O O1 0.500000 0.720485 0.889139
O O2 0.750000 0.750000 0.888223
O O3 0.707763 0.665289 0.903133
O O4 0.641166 0.719202 0.000000
O O5 0.815530 0.608061 0.500000
O O6 0.802859 0.663757 0.398472
O O7 0.749955 0.579475 0.383508
O O8 0.000000 0.605078 0.404465
O O9 0.224009 0.082226 0.871395
O O10 0.000000 0.114903 0.925925
O O11 0.216422 0.104791 0.000000
O O12 0.799695 0.062916 0.258363
O O13 0.000000 0.047555 0.176656
O O14 0.781072 0.000000 0.167227
O O15 0.350052 0.215445 0.500000
O O16 0.500000 0.222429 0.392371
O O17 0.250000 0.250000 0.389054
O O18 0.500000 0.563761 0.652693
O O19 0.319693 0.500000 0.650713
#
# Coordination Sequence:
#
# PCOD8274975 Si02
#       6
#    16  16  16  16  16  16
#     4   8  13  21  34  54  80 107 134 165 201 241
#     4   9  18  31  46  66  90 113 140 177 217 253
#     4   8  13  21  36  60  85 107 135 172 210 245
#     4   8  14  25  40  58  82 111 140 170 207 252
#     4   8  14  25  41  62  87 111 135 166 205 249
#     4   9  18  31  45  62  85 114 147 179 212 255
#
# _framework density 16.111492999999999
#
# number of rings (size 3 to 8) (size 9 to 14) (size 15 to 20)
#    0.000    3.667    0.000    3.000    0.000    2.000 
#    0.000    5.000    0.000    2.000    0.000    4.667 
#    0.000    0.000    0.000   10.167    0.000   10.333 
#
# Total GULP energy -594801.105204 kJ/mol
# GULP energy per Si atom -12391.689692 kJ/mol
# Density = 1.607482 g / cm^3
# Si number density = 16.111493 Si / 1000 Ang^3
#
#
#
# Elastic Constant Matrix: (Units=GPa)
#
#
# Indices 1 2 3 4 5 6 
#
# 1 60.6527 63.5399 39.3091 0.0000 0.0000 0.0000
# 2 63.5399 132.4244 66.3252 0.0000 0.0000 0.0000
# 3 39.3091 66.3252 64.3261 0.0000 0.0000 0.0000
# 4 0.0000 0.0000 0.0000 3.4375 0.0000 0.0000
# 5 0.0000 0.0000 0.0000 0.0000 7.8790 0.0000
# 6 0.0000 0.0000 0.0000 0.0000 0.0000 28.7823
#
#
#
# Elastic Compliance Matrix: (Units=1/GPa)
#
#
# Indices 1 2 3 4 5 6 
#
# 1 0.035256 -0.012668 -0.008483 0.000000 0.000000 0.000000
# 2 -0.012668 0.020167 -0.013053 0.000000 0.000000 0.000000
# 3 -0.008483 -0.013053 0.034188 0.000000 0.000000 0.000000
# 4 0.000000 0.000000 0.000000 0.290910 0.000000 0.000000
# 5 0.000000 0.000000 0.000000 0.000000 0.126919 0.000000
# 6 0.000000 0.000000 0.000000 0.000000 0.000000 0.034744
#
#
# Mechanical properties :
#
#
# Convention : Reuss Voigt Hill
#
# Bulk Modulus (GPa) = 47.16100 66.19460 56.67780
# Shear Modulus (GPa) = 8.09506 13.90170 10.99838
#
# Velocity S-wave (km/s) = 2.24395 2.94061 2.61558
# Velocity P-wave (km/s) = 6.00408 7.25976 6.66157
#
# Compressibility (1/GPa) = 0.02120396
#
# Stress axis : x y z
#
# Youngs Moduli (GPa) = 28.36400 49.58526 29.24968
#
# Poissons Ratio (x) = 0.62813 0.24813
# Poissons Ratio (y) = 0.35931 0.38179
# Poissons Ratio (z) = 0.24062 0.64723
#
# Static dielectric constant tensor:
#      x y z
#    x 2.909860 0.000000 0.000000 
#    y 0.000000 3.349890 0.000000 
#    z 0.000000 0.000000 2.853400 
# 
# 
# High freq. dielectric constant tensor:
#      x y z
#    x 1.584780 0.000000 0.000000 
#    y 0.000000 1.630340 0.000000 
#    z 0.000000 0.000000 1.584250 
# 
# From -- ./inp_files/51684.got.cif
#   From: 2010.03.12/outbox.cif.g09.slc.cpg/sg65_26_cif.got.tgz:51684.got - 2010.04.10 20:52:16.
