data_PCOD8274441
_publ_section_title
;
Structure prediction by ZEFSAII (Michael W. Deem and Ramdas Pophale) SiO2 
 PCOD8274441
Probable space group: C M M M
;
_chemical_formula_sum "Si O2"
_cell_formula_units_Z 72
_cell_length_a 9.222936
_cell_length_b 18.594760
_cell_length_c 23.217911
_cell_angle_alpha 90.000000
_cell_angle_beta 90.000000
_cell_angle_gamma 90.000000
_cell_volume 3981.831835
_symmetry_space_group_name_H-M "C M M M"
_symmetry_group_IT_number 65
_symmetry_cell_setting 'orthorhombic'
loop_
_space_group_symop_operation_xyz
x,y,z
-x,-y,z
x,-y,-z
-x,y,-z
-x,-y,-z
x,y,-z
-x,y,z
x,-y,z
1/2+x,1/2+y,z
1/2-x,1/2-y,z
1/2+x,1/2-y,-z
1/2-x,1/2+y,-z
1/2-x,1/2-y,-z
1/2+x,1/2+y,-z
1/2-x,1/2+y,z
1/2+x,1/2-y,z
loop_
_atom_site_type_symbol
_atom_site_label
_atom_site_fract_x
_atom_site_fract_y
_atom_site_fract_z
Si Si1 0.168208 0.415767 0.236086
Si Si2 0.328003 0.419776 0.563799
Si Si3 0.838484 0.085978 0.000000
Si Si4 0.172984 0.174126 0.669684
Si Si5 0.839813 0.414624 0.107130
O O1 0.194105 0.500000 0.245676
O O2 0.277137 0.373518 0.276846
O O3 0.211664 0.392528 0.171090
O O4 0.000000 0.396332 0.248404
O O5 0.275353 0.395375 0.500000
O O6 0.500000 0.422123 0.565715
O O7 0.268022 0.500000 0.577310
O O8 0.270599 0.364004 0.611178
O O9 0.763905 0.117042 0.057716
O O10 0.000000 0.116006 0.000000
O O11 0.833907 0.000000 0.000000
O O12 0.250000 0.250000 0.673353
O O13 0.000000 0.183137 0.671228
O O14 0.844335 0.500000 0.103436
O O15 0.000000 0.383719 0.095482
#
# Coordination Sequence:
#
# PCOD8274441 Si02
#       5
#    16  16   8  16  16
#     4   9  18  33  52  73  98 129 166 209 254 299
#     4   8  15  30  52  76 100 127 162 203 246 294
#     4   9  15  21  33  59  94 125 154 195 242 283
#     4  11  22  34  50  73 101 134 170 207 249 295
#     4   8  14  25  41  61  88 124 160 193 238 295
#
# _framework density 18.082131
#
# number of rings (size 3 to 8) (size 9 to 14) (size 15 to 20)
#    0.000    3.000    0.000    3.667    0.000    4.000 
#    0.000    2.222    0.000    2.000    0.000    8.556 
#    0.000    0.000    0.000    0.000    0.000    0.000 
#
# Total GULP energy -446191.211109 kJ/mol
# GULP energy per Si atom -12394.200309 kJ/mol
# Density = 1.804098 g / cm^3
# Si number density = 18.082131 Si / 1000 Ang^3
#
#
#
# Elastic Constant Matrix: (Units=GPa)
#
#
# Indices 1 2 3 4 5 6 
#
# 1 86.1458 37.6884 70.8355 0.0000 0.0000 0.0000
# 2 37.6884 58.4572 52.1743 0.0000 0.0000 0.0000
# 3 70.8355 52.1743 163.5577 0.0000 0.0000 0.0000
# 4 0.0000 0.0000 0.0000 -0.1253 0.0000 0.0000
# 5 0.0000 0.0000 0.0000 0.0000 24.3939 0.0000
# 6 0.0000 0.0000 0.0000 0.0000 0.0000 13.1387
#
#
#
# Elastic Compliance Matrix: (Units=1/GPa)
#
#
# Indices 1 2 3 4 5 6 
#
# 1 0.019992 -0.007216 -0.006356 0.000000 0.000000 0.000000
# 2 -0.007216 0.026520 -0.005335 0.000000 0.000000 0.000000
# 3 -0.006356 -0.005335 0.010569 0.000000 0.000000 0.000000
# 4 0.000000 0.000000 0.000000 -7.981945 0.000000 0.000000
# 5 0.000000 0.000000 0.000000 0.000000 0.040994 0.000000
# 6 0.000000 0.000000 0.000000 0.000000 0.000000 0.076111
#
#
# Mechanical properties :
#
#
# Convention : Reuss Voigt Hill
#
# Bulk Modulus (GPa) = 51.90318 69.95080 60.92699
# Shear Modulus (GPa) = -0.64404 17.31229 8.33413
#
# Velocity S-wave (km/s) = -0.59745 3.09759 2.14920
# Velocity P-wave (km/s) = 5.31888 7.18070 6.31874
#
# Compressibility (1/GPa) = 0.01926664
#
# Stress axis : x y z
#
# Youngs Moduli (GPa) = 50.02023 37.70737 94.61872
#
# Poissons Ratio (x) = 0.27209 0.60144
# Poissons Ratio (y) = 0.36094 0.50476
# Poissons Ratio (z) = 0.31795 0.20116
#
# Static dielectric constant tensor:
#      x y z
#    x 3.232310 0.000000 0.000000 
#    y 0.000000 3.000200 0.000000 
#    z 0.000000 0.000000 3.731380 
# 
# 
# High freq. dielectric constant tensor:
#      x y z
#    x 1.681340 0.000000 0.000000 
#    y 0.000000 1.657350 0.000000 
#    z 0.000000 0.000000 1.719940 
# 
# From -- ./inp_files/66978.got.cif
#   From: 2010.03.12/outbox.cif.g09.slc.cpg/sg65_34_cif.got.tgz:66978.got - 2010.04.10 20:52:16.
