data_PCOD8274794
_publ_section_title
;
Structure prediction by ZEFSAII (Michael W. Deem and Ramdas Pophale) SiO2 
 PCOD8274794
Probable space group: C M M M
;
_chemical_formula_sum "Si O2"
_cell_formula_units_Z 72
_cell_length_a 18.767553
_cell_length_b 8.645747
_cell_length_c 23.163947
_cell_angle_alpha 90.000000
_cell_angle_beta 90.000000
_cell_angle_gamma 90.000000
_cell_volume 3758.570807
_symmetry_space_group_name_H-M "C M M M"
_symmetry_group_IT_number 65
_symmetry_cell_setting 'orthorhombic'
loop_
_space_group_symop_operation_xyz
x,y,z
-x,-y,z
x,-y,-z
-x,y,-z
-x,-y,-z
x,y,-z
-x,y,z
x,-y,z
1/2+x,1/2+y,z
1/2-x,1/2-y,z
1/2+x,1/2-y,-z
1/2-x,1/2+y,-z
1/2-x,1/2-y,-z
1/2+x,1/2+y,-z
1/2-x,1/2+y,z
1/2+x,1/2-y,z
loop_
_atom_site_type_symbol
_atom_site_label
_atom_site_fract_x
_atom_site_fract_y
_atom_site_fract_z
Si Si1 0.416691 0.319712 0.205033
Si Si2 0.327036 0.682217 0.436355
Si Si3 0.917829 0.816761 0.000000
Si Si4 0.328966 0.818413 0.895423
Si Si5 0.078141 0.817022 0.334330
O O1 0.500000 0.279563 0.195120
O O2 0.403761 0.500000 0.191384
O O3 0.365841 0.216734 0.165555
O O4 0.392914 0.278260 0.270398
O O5 0.357925 0.725185 0.500000
O O6 0.322188 0.500000 0.429185
O O7 0.250000 0.750000 0.428277
O O8 0.374432 0.755934 0.385346
O O9 0.878813 0.754320 0.943836
O O10 0.000000 0.760705 0.000000
O O11 0.913662 0.000000 0.000000
O O12 0.250000 0.750000 0.898391
O O13 0.323324 0.000000 0.905298
O O14 0.000000 0.744157 0.341477
O O15 0.073500 0.000000 0.341441
#
# Coordination Sequence:
#
# PCOD8274794 Si02
#       5
#    16  16   8  16  16
#     4   9  18  35  57  79 107 142 178 218 268 324
#     4   9  17  29  46  69  98 132 170 213 261 313
#     4  11  24  43  66  89 115 147 180 215 262 317
#     4  12  25  40  59  84 115 146 181 224 266 311
#     4   8  15  29  50  75 101 131 170 216 262 309
#
# _framework density 19.156217999999999
#
# number of rings (size 3 to 8) (size 9 to 14) (size 15 to 20)
#    0.000    2.333    0.000    4.667    0.000    5.333 
#    0.000    5.556    0.000    2.000    0.000    3.111 
#    0.000    0.000    0.000    0.000    0.000    0.000 
#
# Total GULP energy -446270.039938 kJ/mol
# GULP energy per Si atom -12396.389998 kJ/mol
# Density = 1.911262 g / cm^3
# Si number density = 19.156218 Si / 1000 Ang^3
#
#
#
# Elastic Constant Matrix: (Units=GPa)
#
#
# Indices 1 2 3 4 5 6 
#
# 1 122.8285 42.9026 88.6057 0.0000 0.0000 0.0000
# 2 42.9026 53.1170 36.7841 0.0000 0.0000 0.0000
# 3 88.6057 36.7841 164.7954 0.0000 0.0000 0.0000
# 4 0.0000 0.0000 0.0000 13.5837 0.0000 0.0000
# 5 0.0000 0.0000 0.0000 0.0000 23.5329 0.0000
# 6 0.0000 0.0000 0.0000 0.0000 0.0000 23.7801
#
#
#
# Elastic Compliance Matrix: (Units=1/GPa)
#
#
# Indices 1 2 3 4 5 6 
#
# 1 0.015803 -0.008138 -0.006680 0.000000 0.000000 0.000000
# 2 -0.008138 0.026459 -0.001531 0.000000 0.000000 0.000000
# 3 -0.006680 -0.001531 0.010002 0.000000 0.000000 0.000000
# 4 0.000000 0.000000 0.000000 0.073618 0.000000 0.000000
# 5 0.000000 0.000000 0.000000 0.000000 0.042494 0.000000
# 6 0.000000 0.000000 0.000000 0.000000 0.000000 0.042052
#
#
# Mechanical properties :
#
#
# Convention : Reuss Voigt Hill
#
# Bulk Modulus (GPa) = 51.10809 75.25840 63.18324
# Shear Modulus (GPa) = 20.02834 23.67591 21.85212
#
# Velocity S-wave (km/s) = 3.23697 3.51941 3.38114
# Velocity P-wave (km/s) = 6.38030 7.47576 6.94964
#
# Compressibility (1/GPa) = 0.01956638
#
# Stress axis : x y z
#
# Youngs Moduli (GPa) = 63.27949 37.79406 99.98435
#
# Poissons Ratio (x) = 0.30756 0.66793
# Poissons Ratio (y) = 0.51496 0.15303
# Poissons Ratio (z) = 0.42273 0.05784
#
# Static dielectric constant tensor:
#      x y z
#    x 3.683170 0.000000 0.000000 
#    y 0.000000 3.260590 0.000000 
#    z 0.000000 0.000000 3.926090 
# 
# 
# High freq. dielectric constant tensor:
#      x y z
#    x 1.744870 0.000000 0.000000 
#    y 0.000000 1.718940 0.000000 
#    z 0.000000 0.000000 1.765770 
# 
# From -- ./inp_files/70357.got.cif
#   From: 2010.03.12/outbox.cif.g09.slc.cpg/sg65_36_cif.got.tgz:70357.got - 2010.04.10 20:52:16.
