data_PCOD8274227
_publ_section_title
;
Structure prediction by ZEFSAII (Michael W. Deem and Ramdas Pophale) SiO2 
 PCOD8274227
Probable space group: C M M M
;
_chemical_formula_sum "Si O2"
_cell_formula_units_Z 72
_cell_length_a 13.803665
_cell_length_b 20.574132
_cell_length_c 13.732170
_cell_angle_alpha 90.000000
_cell_angle_beta 90.000000
_cell_angle_gamma 90.000000
_cell_volume 3899.914663
_symmetry_space_group_name_H-M "C M M M"
_symmetry_group_IT_number 65
_symmetry_cell_setting 'orthorhombic'
loop_
_space_group_symop_operation_xyz
x,y,z
-x,-y,z
x,-y,-z
-x,y,-z
-x,-y,-z
x,y,-z
-x,y,z
x,-y,z
1/2+x,1/2+y,z
1/2-x,1/2-y,z
1/2+x,1/2-y,-z
1/2-x,1/2+y,-z
1/2-x,1/2-y,-z
1/2+x,1/2+y,-z
1/2-x,1/2+y,z
1/2+x,1/2-y,z
loop_
_atom_site_type_symbol
_atom_site_label
_atom_site_fract_x
_atom_site_fract_y
_atom_site_fract_z
Si Si1 0.606845 0.771372 0.391215
Si Si2 0.115253 0.500000 0.384679
Si Si3 0.385592 0.796188 0.891469
Si Si4 0.107060 0.827575 0.229629
Si Si5 0.800521 0.622481 0.271286
O O1 0.638885 0.755435 0.500000
O O2 0.500000 0.805879 0.387379
O O3 0.598209 0.703810 0.335574
O O4 0.688098 0.817473 0.345298
O O5 0.144557 0.500000 0.500000
O O6 0.159539 0.439710 0.326719
O O7 0.000000 0.500000 0.374954
O O8 0.500000 0.793860 0.893893
O O9 0.351539 0.727164 0.845391
O O10 0.357537 0.859342 0.827689
O O11 0.341992 0.803219 0.000000
O O12 0.187002 0.884865 0.239884
O O13 0.000000 0.854396 0.198158
#
# Coordination Sequence:
#
# PCOD8274227 Si02
#       5
#    16   8  16  16  16
#     4   9  16  27  46  72  98 122 153 200 257 311
#     4  11  24  40  56  74  98 131 174 220 260 302
#     4   9  17  31  54  84 113 136 162 204 259 314
#     4   9  19  32  47  73 104 131 163 206 254 304
#     4  11  20  32  51  71  98 136 174 208 248 300
#
# _framework density 18.461942000000001
#
# number of rings (size 3 to 8) (size 9 to 14) (size 15 to 20)
#    0.000    2.333    0.000    6.667    0.000    6.222 
#    0.000    1.111    0.000    2.667    0.000    0.000 
#    0.000    5.333    0.000    0.000    0.000    0.000 
#
# Total GULP energy -446015.723575 kJ/mol
# GULP energy per Si atom -12389.325655 kJ/mol
# Density = 1.841992 g / cm^3
# Si number density = 18.461942 Si / 1000 Ang^3
#
#
#
# Elastic Constant Matrix: (Units=GPa)
#
#
# Indices 1 2 3 4 5 6 
#
# 1 93.5694 33.9191 22.6636 0.0000 0.0000 0.0000
# 2 33.9191 63.5426 35.7039 0.0000 0.0000 0.0000
# 3 22.6636 35.7039 156.3553 0.0000 0.0000 0.0000
# 4 0.0000 0.0000 0.0000 13.2839 0.0000 0.0000
# 5 0.0000 0.0000 0.0000 0.0000 15.3288 0.0000
# 6 0.0000 0.0000 0.0000 0.0000 0.0000 21.5151
#
#
#
# Elastic Compliance Matrix: (Units=1/GPa)
#
#
# Indices 1 2 3 4 5 6 
#
# 1 0.013268 -0.006885 -0.000351 0.000000 0.000000 0.000000
# 2 -0.006885 0.021627 -0.003941 0.000000 0.000000 0.000000
# 3 -0.000351 -0.003941 0.007346 0.000000 0.000000 0.000000
# 4 0.000000 0.000000 0.000000 0.075279 0.000000 0.000000
# 5 0.000000 0.000000 0.000000 0.000000 0.065237 0.000000
# 6 0.000000 0.000000 0.000000 0.000000 0.000000 0.046479
#
#
# Mechanical properties :
#
#
# Convention : Reuss Voigt Hill
#
# Bulk Modulus (GPa) = 50.28176 55.33784 52.80980
# Shear Modulus (GPa) = 19.36335 24.77092 22.06714
#
# Velocity S-wave (km/s) = 3.24207 3.66694 3.46103
# Velocity P-wave (km/s) = 6.42722 6.92587 6.68120
#
# Compressibility (1/GPa) = 0.01988793
#
# Stress axis : x y z
#
# Youngs Moduli (GPa) = 75.36799 46.23838 136.12144
#
# Poissons Ratio (x) = 0.31837 0.04777
# Poissons Ratio (y) = 0.51894 0.53639
# Poissons Ratio (z) = 0.02645 0.18220
#
# Static dielectric constant tensor:
#      x y z
#    x 3.734840 0.000000 0.000000 
#    y 0.000000 2.944770 0.000000 
#    z 0.000000 0.000000 3.792670 
# 
# 
# High freq. dielectric constant tensor:
#      x y z
#    x 1.736230 0.000000 0.000000 
#    y 0.000000 1.645010 0.000000 
#    z 0.000000 0.000000 1.725980 
# 
# From -- ./inp_files/39750.got.cif
#   From: 2010.03.12/outbox.cif.g09.slc.cpg/sg65_20_cif.got.tgz:39750.got - 2010.04.10 20:52:16.
