data_PCOD8274103
_publ_section_title
;
Structure prediction by ZEFSAII (Michael W. Deem and Ramdas Pophale) SiO2 
 PCOD8274103
Probable space group: C M M M
;
_chemical_formula_sum "Si O2"
_cell_formula_units_Z 64
_cell_length_a 14.705088
_cell_length_b 25.935485
_cell_length_c 8.823221
_cell_angle_alpha 90.000000
_cell_angle_beta 90.000000
_cell_angle_gamma 90.000000
_cell_volume 3365.031694
_symmetry_space_group_name_H-M "C M M M"
_symmetry_group_IT_number 65
_symmetry_cell_setting 'orthorhombic'
loop_
_space_group_symop_operation_xyz
x,y,z
-x,-y,z
x,-y,-z
-x,y,-z
-x,-y,-z
x,y,-z
-x,y,z
x,-y,z
1/2+x,1/2+y,z
1/2-x,1/2-y,z
1/2+x,1/2-y,-z
1/2-x,1/2+y,-z
1/2-x,1/2-y,-z
1/2+x,1/2+y,-z
1/2-x,1/2+y,z
1/2+x,1/2-y,z
loop_
_atom_site_type_symbol
_atom_site_label
_atom_site_fract_x
_atom_site_fract_y
_atom_site_fract_z
Si Si1 0.667729 0.604901 0.820773
Si Si2 0.000000 0.828167 0.178459
Si Si3 0.000000 0.281845 0.675286
Si Si4 0.500000 0.056654 0.320007
Si Si5 0.648990 0.134976 0.677759
Si Si6 0.105172 0.000000 0.320199
O O1 0.587870 0.641800 0.759949
O O2 0.759587 0.634149 0.774355
O O3 0.658145 0.549584 0.741977
O O4 0.663934 0.596833 0.000000
O O5 0.000000 0.769639 0.229618
O O6 0.000000 0.828394 0.000000
O O7 0.090975 0.313878 0.714896
O O8 0.000000 0.267188 0.500000
O O9 0.500000 0.054803 0.500000
O O10 0.409569 0.085952 0.267211
O O11 0.500000 0.000000 0.246725
O O12 0.671961 0.132060 0.500000
O O13 0.111313 0.000000 0.500000
O O14 0.000000 0.000000 0.264774
#
# Coordination Sequence:
#
# PCOD8274103 Si02
#       6
#    16   8   8   8  16   8
#     4  11  23  39  58  84 119 155 189 234 288 342
#     4  10  23  40  58  80 112 155 196 233 286 350
#     4   9  20  39  61  84 116 151 189 247 297 331
#     4   8  15  30  53  79 110 145 182 230 283 334
#     4   9  19  36  57  85 115 147 191 237 287 340
#     4  11  23  39  61  86 113 150 193 237 284 340
#
# _framework density 19.019138000000002
#
# number of rings (size 3 to 8) (size 9 to 14) (size 15 to 20)
#    0.000    2.250    1.250    2.625    1.750    4.500 
#    0.000    6.875    0.000    0.750    0.000    0.000 
#    0.000    0.000    0.000    0.000    0.000    0.000 
#
# Total GULP energy -396824.438256 kJ/mol
# GULP energy per Si atom -12400.763696 kJ/mol
# Density = 1.897585 g / cm^3
# Si number density = 19.019138 Si / 1000 Ang^3
#
#
#
# Elastic Constant Matrix: (Units=GPa)
#
#
# Indices 1 2 3 4 5 6 
#
# 1 147.0429 53.0812 34.2740 0.0000 0.0000 0.0000
# 2 53.0812 126.4128 24.0811 0.0000 0.0000 0.0000
# 3 34.2740 24.0811 46.7655 0.0000 0.0000 0.0000
# 4 0.0000 0.0000 0.0000 33.4087 0.0000 0.0000
# 5 0.0000 0.0000 0.0000 0.0000 29.8298 0.0000
# 6 0.0000 0.0000 0.0000 0.0000 0.0000 11.9439
#
#
#
# Elastic Compliance Matrix: (Units=1/GPa)
#
#
# Indices 1 2 3 4 5 6 
#
# 1 0.009016 -0.002802 -0.005165 0.000000 0.000000 0.000000
# 2 -0.002802 0.009642 -0.002911 0.000000 0.000000 0.000000
# 3 -0.005165 -0.002911 0.026668 0.000000 0.000000 0.000000
# 4 0.000000 0.000000 0.000000 0.029932 0.000000 0.000000
# 5 0.000000 0.000000 0.000000 0.000000 0.033523 0.000000
# 6 0.000000 0.000000 0.000000 0.000000 0.000000 0.083724
#
#
# Mechanical properties :
#
#
# Convention : Reuss Voigt Hill
#
# Bulk Modulus (GPa) = 42.42845 60.34375 51.38610
# Shear Modulus (GPa) = 22.51047 28.95549 25.73298
#
# Velocity S-wave (km/s) = 3.44404 3.90608 3.68231
# Velocity P-wave (km/s) = 6.17834 7.22081 6.71982
#
# Compressibility (1/GPa) = 0.02356909
#
# Stress axis : x y z
#
# Youngs Moduli (GPa) = 110.91225 103.71561 37.49841
#
# Poissons Ratio (x) = 0.29061 0.19368
# Poissons Ratio (y) = 0.31078 0.10917
# Poissons Ratio (z) = 0.57286 0.30195
#
# Static dielectric constant tensor:
#      x y z
#    x 3.618390 0.000000 0.000000 
#    y 0.000000 3.630620 0.000000 
#    z 0.000000 0.000000 3.226320 
# 
# 
# High freq. dielectric constant tensor:
#      x y z
#    x 1.748750 0.000000 0.000000 
#    y 0.000000 1.745630 0.000000 
#    z 0.000000 0.000000 1.721960 
# 
# From -- ./inp_files/6832.got.cif
#   From: 2010.03.12/outbox.cif.g09.slc.cpg/sg65_4_cif.got.tgz:6832.got - 2010.04.10 20:52:16.
