data_PCOD8274285
_publ_section_title
;
Structure prediction by ZEFSAII (Michael W. Deem and Ramdas Pophale) SiO2 
 PCOD8274285
Probable space group: C M M M
;
_chemical_formula_sum "Si O2"
_cell_formula_units_Z 72
_cell_length_a 36.110983
_cell_length_b 9.123742
_cell_length_c 14.049899
_cell_angle_alpha 90.000000
_cell_angle_beta 90.000000
_cell_angle_gamma 90.000000
_cell_volume 4628.982180
_symmetry_space_group_name_H-M "C M M M"
_symmetry_group_IT_number 65
_symmetry_cell_setting 'orthorhombic'
loop_
_space_group_symop_operation_xyz
x,y,z
-x,-y,z
x,-y,-z
-x,y,-z
-x,-y,-z
x,y,-z
-x,y,z
x,-y,z
1/2+x,1/2+y,z
1/2-x,1/2-y,z
1/2+x,1/2-y,-z
1/2-x,1/2+y,-z
1/2-x,1/2-y,-z
1/2+x,1/2+y,-z
1/2-x,1/2+y,z
1/2+x,1/2-y,z
loop_
_atom_site_type_symbol
_atom_site_label
_atom_site_fract_x
_atom_site_fract_y
_atom_site_fract_z
Si Si1 0.933132 0.172207 0.286041
Si Si2 0.000000 0.669443 0.612279
Si Si3 0.858086 0.170036 0.609054
Si Si4 0.956825 0.331821 0.108113
Si Si5 0.714379 0.834823 0.613384
O O1 0.963567 0.255218 0.347400
O O2 0.893337 0.212532 0.328338
O O3 0.933547 0.226843 0.177123
O O4 0.941222 0.000000 0.290663
O O5 0.000000 0.500000 0.643463
O O6 0.000000 0.688651 0.500000
O O7 0.866779 0.212799 0.500000
O O8 0.823149 0.258894 0.649957
O O9 0.848072 0.000000 0.617391
O O10 0.945114 0.500000 0.124139
O O11 0.000000 0.311959 0.131824
O O12 0.948478 0.284002 0.000000
O O13 0.715336 0.830276 0.500000
O O14 0.750000 0.750000 0.654957
O O15 0.715433 0.000000 0.652135
#
# Coordination Sequence:
#
# PCOD8274285 Si02
#       5
#    16   8  16  16  16
#     4  11  21  32  48  69  91 117 151 193 235 272
#     4  11  23  35  46  61  86 123 161 192 222 265
#     4   9  18  31  44  61  90 124 153 184 223 265
#     4   9  18  33  51  68  88 115 147 187 235 282
#     4   9  16  26  42  63  86 115 151 187 222 261
#
# _framework density 15.554175000000001
#
# number of rings (size 3 to 8) (size 9 to 14) (size 15 to 20)
#    0.000    2.333    1.111    3.000    0.000    6.667 
#    0.000    3.333    0.000    0.000    0.000    0.000 
#    0.000    0.889    0.000    2.889    0.000    4.222 
#
# Total GULP energy -446448.845349 kJ/mol
# GULP energy per Si atom -12401.356815 kJ/mol
# Density = 1.551877 g / cm^3
# Si number density = 15.554175 Si / 1000 Ang^3
#
#
#
# Elastic Constant Matrix: (Units=GPa)
#
#
# Indices 1 2 3 4 5 6 
#
# 1 129.6153 78.7807 50.9645 0.0000 0.0000 0.0000
# 2 78.7807 106.1117 45.0315 0.0000 0.0000 0.0000
# 3 50.9645 45.0315 70.4659 0.0000 0.0000 0.0000
# 4 0.0000 0.0000 0.0000 22.8708 0.0000 0.0000
# 5 0.0000 0.0000 0.0000 0.0000 5.8266 0.0000
# 6 0.0000 0.0000 0.0000 0.0000 0.0000 29.4384
#
#
#
# Elastic Compliance Matrix: (Units=1/GPa)
#
#
# Indices 1 2 3 4 5 6 
#
# 1 0.015351 -0.009173 -0.005241 0.000000 0.000000 0.000000
# 2 -0.009173 0.018412 -0.005132 0.000000 0.000000 0.000000
# 3 -0.005241 -0.005132 0.021261 0.000000 0.000000 0.000000
# 4 0.000000 0.000000 0.000000 0.043724 0.000000 0.000000
# 5 0.000000 0.000000 0.000000 0.000000 0.171627 0.000000
# 6 0.000000 0.000000 0.000000 0.000000 0.000000 0.033969
#
#
# Mechanical properties :
#
#
# Convention : Reuss Voigt Hill
#
# Bulk Modulus (GPa) = 62.76218 72.86071 67.81144
# Shear Modulus (GPa) = 14.33699 20.38824 17.36262
#
# Velocity S-wave (km/s) = 3.03932 3.62441 3.34468
# Velocity P-wave (km/s) = 7.26326 8.02870 7.65555
#
# Compressibility (1/GPa) = 0.01593316
#
# Stress axis : x y z
#
# Youngs Moduli (GPa) = 65.14101 54.31097 47.03419
#
# Poissons Ratio (x) = 0.49821 0.24649
# Poissons Ratio (y) = 0.59756 0.24138
# Poissons Ratio (z) = 0.34138 0.27872
#
# Static dielectric constant tensor:
#      x y z
#    x 2.968560 0.000000 0.000000 
#    y 0.000000 3.081210 0.000000 
#    z 0.000000 0.000000 2.795890 
# 
# 
# High freq. dielectric constant tensor:
#      x y z
#    x 1.589210 0.000000 0.000000 
#    y 0.000000 1.609040 0.000000 
#    z 0.000000 0.000000 1.563170 
# 
# From -- ./inp_files/47460.got.cif
#   From: 2010.03.12/outbox.cif.g09.slc.cpg/sg65_24_cif.got.tgz:47460.got - 2010.04.10 20:52:16.
