data_PCOD8274261
_publ_section_title
;
Structure prediction by ZEFSAII (Michael W. Deem and Ramdas Pophale) SiO2 
 PCOD8274261
Probable space group: C M M M
;
_chemical_formula_sum "Si O2"
_cell_formula_units_Z 80
_cell_length_a 36.071514
_cell_length_b 8.273979
_cell_length_c 18.469506
_cell_angle_alpha 90.000000
_cell_angle_beta 90.000000
_cell_angle_gamma 90.000000
_cell_volume 5512.315477
_symmetry_space_group_name_H-M "C M M M"
_symmetry_group_IT_number 65
_symmetry_cell_setting 'orthorhombic'
loop_
_space_group_symop_operation_xyz
x,y,z
-x,-y,z
x,-y,-z
-x,y,-z
-x,-y,-z
x,y,-z
-x,y,z
x,-y,z
1/2+x,1/2+y,z
1/2-x,1/2-y,z
1/2+x,1/2-y,-z
1/2-x,1/2+y,-z
1/2-x,1/2-y,-z
1/2+x,1/2+y,-z
1/2-x,1/2+y,z
1/2+x,1/2-y,z
loop_
_atom_site_type_symbol
_atom_site_label
_atom_site_fract_x
_atom_site_fract_y
_atom_site_fract_z
Si Si1 0.668032 0.184147 0.140680
Si Si2 0.087107 0.683672 0.915262
Si Si3 0.208525 0.190261 0.000000
Si Si4 0.041438 0.000000 0.914299
Si Si5 0.290971 0.314942 0.275015
Si Si6 0.791612 0.689689 0.577408
O O1 0.624222 0.204852 0.130945
O O2 0.680971 0.285373 0.209573
O O3 0.679239 0.000000 0.154494
O O4 0.688436 0.244528 0.070068
O O5 0.070688 0.500000 0.902105
O O6 0.060609 0.830965 0.888916
O O7 0.096449 0.703717 0.000000
O O8 0.250000 0.250000 0.000000
O O9 0.206851 0.000000 0.000000
O O10 0.000000 0.000000 0.881631
O O11 0.040013 0.000000 0.000000
O O12 0.285242 0.500000 0.288516
O O13 0.250000 0.250000 0.257023
O O14 0.310964 0.247576 0.348417
O O15 0.808668 0.754063 0.500000
O O16 0.792677 0.500000 0.575888
O O17 0.750000 0.750000 0.584005
#
# Coordination Sequence:
#
# PCOD8274261 Si02
#       6
#    16  16   8   8  16  16
#     4  11  21  34  47  60  82 111 146 186 222 264
#     4   9  18  31  48  66  86 114 145 176 219 266
#     4  12  24  34  46  60  78 107 146 191 231 267
#     4   9  18  30  48  70  92 110 137 179 217 265
#     4  11  21  31  43  60  82 109 143 187 229 263
#     4   9  16  27  43  60  78 102 133 173 221 269
#
# _framework density 14.512957
#
# number of rings (size 3 to 8) (size 9 to 14) (size 15 to 20)
#    0.000    1.900    1.000    5.700    2.800    1.600 
#    0.000    2.000    0.000    0.000    0.000    0.000 
#    0.000    0.000    0.000    0.000    0.000    2.000 
#
# Total GULP energy -495592.627304 kJ/mol
# GULP energy per Si atom -12389.815683 kJ/mol
# Density = 1.447992 g / cm^3
# Si number density = 14.512957 Si / 1000 Ang^3
#
#
#
# Elastic Constant Matrix: (Units=GPa)
#
#
# Indices 1 2 3 4 5 6 
#
# 1 58.0970 32.2906 24.4739 0.0000 0.0000 0.0000
# 2 32.2906 67.5604 13.5463 0.0000 0.0000 0.0000
# 3 24.4739 13.5463 98.3711 0.0000 0.0000 0.0000
# 4 0.0000 0.0000 0.0000 27.2332 0.0000 0.0000
# 5 0.0000 0.0000 0.0000 0.0000 -307.7533 0.0000
# 6 0.0000 0.0000 0.0000 0.0000 0.0000 20.9714
#
#
#
# Elastic Compliance Matrix: (Units=1/GPa)
#
#
# Indices 1 2 3 4 5 6 
#
# 1 0.025460 -0.011208 -0.004791 0.000000 0.000000 0.000000
# 2 -0.011208 0.020156 0.000013 0.000000 0.000000 0.000000
# 3 -0.004791 0.000013 0.011356 0.000000 0.000000 0.000000
# 4 0.000000 0.000000 0.000000 0.036720 0.000000 0.000000
# 5 0.000000 0.000000 0.000000 0.000000 -0.003249 0.000000
# 6 0.000000 0.000000 0.000000 0.000000 0.000000 0.047684
#
#
# Mechanical properties :
#
#
# Convention : Reuss Voigt Hill
#
# Bulk Modulus (GPa) = 40.00050 40.51669 40.25859
# Shear Modulus (GPa) = 28.02186 -41.66187 -6.82001
#
# Velocity S-wave (km/s) = 4.39887 -5.36367 -2.17013
# Velocity P-wave (km/s) = 7.30903 3.22187 4.63904
#
# Compressibility (1/GPa) = 0.02499969
#
# Stress axis : x y z
#
# Youngs Moduli (GPa) = 39.27670 49.61301 88.06125
#
# Poissons Ratio (x) = 0.55608 0.42189
# Poissons Ratio (y) = 0.44022 -0.00114
# Poissons Ratio (z) = 0.18817 -0.00064
#
# Static dielectric constant tensor:
#      x y z
#    x 2.599420 0.000000 0.000000 
#    y 0.000000 3.134850 0.000000 
#    z 0.000000 0.000000 3.072280 
# 
# 
# High freq. dielectric constant tensor:
#      x y z
#    x 1.504670 0.000000 0.000000 
#    y 0.000000 1.582070 0.000000 
#    z 0.000000 0.000000 1.543800 
# 
# From -- ./inp_files/57896.got.cif
#   From: 2010.03.12/outbox.cif.g09.slc.cpg/sg65_29_cif.got.tgz:57896.got - 2010.04.10 20:52:16.
