data_PCOD8274289
_publ_section_title
;
Structure prediction by ZEFSAII (Michael W. Deem and Ramdas Pophale) SiO2 
 PCOD8274289
Probable space group: C M M M
;
_chemical_formula_sum "Si O2"
_cell_formula_units_Z 72
_cell_length_a 18.839669
_cell_length_b 8.986736
_cell_length_c 23.587066
_cell_angle_alpha 90.000000
_cell_angle_beta 90.000000
_cell_angle_gamma 90.000000
_cell_volume 3993.458488
_symmetry_space_group_name_H-M "C M M M"
_symmetry_group_IT_number 65
_symmetry_cell_setting 'orthorhombic'
loop_
_space_group_symop_operation_xyz
x,y,z
-x,-y,z
x,-y,-z
-x,y,-z
-x,-y,-z
x,y,-z
-x,y,z
x,-y,z
1/2+x,1/2+y,z
1/2-x,1/2-y,z
1/2+x,1/2-y,-z
1/2-x,1/2+y,-z
1/2-x,1/2-y,-z
1/2+x,1/2+y,-z
1/2-x,1/2+y,z
1/2+x,1/2-y,z
loop_
_atom_site_type_symbol
_atom_site_label
_atom_site_fract_x
_atom_site_fract_y
_atom_site_fract_z
Si Si1 0.827093 0.176691 0.328933
Si Si2 0.326083 0.174327 0.561571
Si Si3 0.415764 0.164297 0.108192
Si Si4 0.083014 0.673097 0.234343
Si Si5 0.915173 0.165183 0.000000
O O1 0.750000 0.250000 0.321645
O O2 0.865308 0.243003 0.386073
O O3 0.874780 0.219588 0.275818
O O4 0.820331 0.000000 0.333303
O O5 0.364708 0.195921 0.500000
O O6 0.250000 0.250000 0.557402
O O7 0.318164 0.000000 0.575561
O O8 0.500000 0.158734 0.103769
O O9 0.395137 0.224012 0.170638
O O10 0.383907 0.262034 0.057261
O O11 0.384259 0.000000 0.100148
O O12 0.102716 0.500000 0.244098
O O13 0.000000 0.697914 0.244754
O O14 0.000000 0.172980 0.000000
O O15 0.886025 0.000000 0.000000
#
# Coordination Sequence:
#
# PCOD8274289 Si02
#       5
#    16  16  16  16   8
#     4  11  21  32  49  72  99 128 159 196 235 279
#     4   9  16  27  45  68  93 120 152 192 236 279
#     4   8  14  25  41  60  84 117 153 187 227 276
#     4   9  18  33  51  70  95 127 161 197 238 284
#     4   9  15  21  33  57  88 117 146 187 232 269
#
# _framework density 18.029484
#
# number of rings (size 3 to 8) (size 9 to 14) (size 15 to 20)
#    0.000    2.778    0.000    5.667    0.000    4.000 
#    0.000    2.222    0.000    0.667    0.000    5.444 
#    0.000    0.000    0.000    0.000    0.000    0.000 
#
# Total GULP energy -446007.657591 kJ/mol
# GULP energy per Si atom -12389.101600 kJ/mol
# Density = 1.798845 g / cm^3
# Si number density = 18.029484 Si / 1000 Ang^3
#
#
#
# Elastic Constant Matrix: (Units=GPa)
#
#
# Indices 1 2 3 4 5 6 
#
# 1 22.1077 26.5231 32.4640 0.0000 0.0000 0.0000
# 2 26.5231 143.5210 92.7733 0.0000 0.0000 0.0000
# 3 32.4640 92.7733 189.4912 0.0000 0.0000 0.0000
# 4 0.0000 0.0000 0.0000 33.1812 0.0000 0.0000
# 5 0.0000 0.0000 0.0000 0.0000 33.8091 0.0000
# 6 0.0000 0.0000 0.0000 0.0000 0.0000 17.1294
#
#
#
# Elastic Compliance Matrix: (Units=1/GPa)
#
#
# Indices 1 2 3 4 5 6 
#
# 1 0.064959 -0.007038 -0.007683 0.000000 0.000000 0.000000
# 2 -0.007038 0.010956 -0.004158 0.000000 0.000000 0.000000
# 3 -0.007683 -0.004158 0.008629 0.000000 0.000000 0.000000
# 4 0.000000 0.000000 0.000000 0.030138 0.000000 0.000000
# 5 0.000000 0.000000 0.000000 0.000000 0.029578 0.000000
# 6 0.000000 0.000000 0.000000 0.000000 0.000000 0.058379
#
#
# Mechanical properties :
#
#
# Convention : Reuss Voigt Hill
#
# Bulk Modulus (GPa) = 21.37407 73.18229 47.27818
# Shear Modulus (GPa) = 19.53172 30.38123 24.95647
#
# Velocity S-wave (km/s) = 3.29495 4.10943 3.72452
# Velocity P-wave (km/s) = 5.13385 7.94953 6.69147
#
# Compressibility (1/GPa) = 0.04678565
#
# Stress axis : x y z
#
# Youngs Moduli (GPa) = 15.39429 91.27200 115.88239
#
# Poissons Ratio (x) = 0.64239 0.89033
# Poissons Ratio (y) = 0.10835 0.48187
# Poissons Ratio (z) = 0.11828 0.37954
#
# Static dielectric constant tensor:
#      x y z
#    x 2.638370 0.000000 0.000000 
#    y 0.000000 3.451730 0.000000 
#    z 0.000000 0.000000 4.135860 
# 
# 
# High freq. dielectric constant tensor:
#      x y z
#    x 1.616490 0.000000 0.000000 
#    y 0.000000 1.704360 0.000000 
#    z 0.000000 0.000000 1.728800 
# 
# From -- ./inp_files/64290.got.cif
#   From: 2010.03.12/outbox.cif.g09.slc.cpg/sg65_33_cif.got.tgz:64290.got - 2010.04.10 20:52:16.
