data_PCOD8274902
_publ_section_title
;
Structure prediction by ZEFSAII (Michael W. Deem and Ramdas Pophale) SiO2 
 PCOD8274902
Probable space group: C M M M
;
_chemical_formula_sum "Si O2"
_cell_formula_units_Z 88
_cell_length_a 27.602270
_cell_length_b 9.262282
_cell_length_c 21.533002
_cell_angle_alpha 90.000000
_cell_angle_beta 90.000000
_cell_angle_gamma 90.000000
_cell_volume 5505.127476
_symmetry_space_group_name_H-M "C M M M"
_symmetry_group_IT_number 65
_symmetry_cell_setting 'orthorhombic'
loop_
_space_group_symop_operation_xyz
x,y,z
-x,-y,z
x,-y,-z
-x,y,-z
-x,-y,-z
x,y,-z
-x,y,z
x,-y,z
1/2+x,1/2+y,z
1/2-x,1/2-y,z
1/2+x,1/2-y,-z
1/2-x,1/2+y,-z
1/2-x,1/2-y,-z
1/2+x,1/2+y,-z
1/2-x,1/2+y,z
1/2+x,1/2-y,z
loop_
_atom_site_type_symbol
_atom_site_label
_atom_site_fract_x
_atom_site_fract_y
_atom_site_fract_z
Si Si1 0.944481 0.172496 0.500000
Si Si2 0.553188 0.672273 0.252546
Si Si3 0.103859 0.170917 0.624654
Si Si4 0.853339 0.171143 0.811485
Si Si5 0.799213 0.170391 0.688923
Si Si6 0.799755 0.831382 0.068973
O O1 0.915811 0.235008 0.440170
O O2 0.000000 0.228087 0.500000
O O3 0.944014 0.000000 0.500000
O O4 0.500000 0.734553 0.236272
O O5 0.552271 0.500000 0.252626
O O6 0.569187 0.728425 0.320392
O O7 0.592332 0.729444 0.202123
O O8 0.159563 0.215169 0.638713
O O9 0.100423 0.000000 0.622756
O O10 0.816470 0.222099 0.757473
O O11 0.836981 0.227880 0.879147
O O12 0.854742 0.000000 0.810251
O O13 0.750000 0.250000 0.670323
O O14 0.789932 0.000000 0.687794
O O15 0.750000 0.750000 0.078834
O O16 0.789406 0.000000 0.078535
O O17 0.821079 0.800937 0.000000
#
# Coordination Sequence:
#
# PCOD8274902 Si02
#       6
#     8  16  16  16  16  16
#     4   9  14  20  33  52  75  99 119 145 186 227
#     4   8  12  19  32  49  70  95 121 147 178 219
#     4   8  14  22  32  50  74  97 120 149 184 216
#     4   8  14  23  35  52  73  97 122 149 182 215
#     4   9  16  26  39  54  75 100 124 150 179 213
#     4   9  16  25  37  53  74  98 122 149 181 215
#
# _framework density 15.985097
#
# number of rings (size 3 to 8) (size 9 to 14) (size 15 to 20)
#    0.000    3.545    0.000    3.273    0.000    2.182 
#    0.000    0.455    0.000    0.545    0.000    3.818 
#    0.000   25.455    0.000    4.545    0.000    4.727 
#
# Total GULP energy -545145.313975 kJ/mol
# GULP energy per Si atom -12389.666227 kJ/mol
# Density = 1.594871 g / cm^3
# Si number density = 15.985097 Si / 1000 Ang^3
#
#
#
# Elastic Constant Matrix: (Units=GPa)
#
#
# Indices 1 2 3 4 5 6 
#
# 1 153.8030 19.9266 87.4508 0.0000 0.0000 0.0000
# 2 19.9266 10.7903 14.0435 0.0000 0.0000 0.0000
# 3 87.4508 14.0435 146.4322 0.0000 0.0000 0.0000
# 4 0.0000 0.0000 0.0000 7.6918 0.0000 0.0000
# 5 0.0000 0.0000 0.0000 0.0000 25.8814 0.0000
# 6 0.0000 0.0000 0.0000 0.0000 0.0000 15.4633
#
#
#
# Elastic Compliance Matrix: (Units=1/GPa)
#
#
# Indices 1 2 3 4 5 6 
#
# 1 0.011432 -0.013969 -0.005487 0.000000 0.000000 0.000000
# 2 -0.013969 0.122963 -0.003450 0.000000 0.000000 0.000000
# 3 -0.005487 -0.003450 0.010437 0.000000 0.000000 0.000000
# 4 0.000000 0.000000 0.000000 0.130009 0.000000 0.000000
# 5 0.000000 0.000000 0.000000 0.000000 0.038638 0.000000
# 6 0.000000 0.000000 0.000000 0.000000 0.000000 0.064669
#
#
# Mechanical properties :
#
#
# Convention : Reuss Voigt Hill
#
# Bulk Modulus (GPa) = 10.09915 61.54081 35.81998
# Shear Modulus (GPa) = 10.94169 22.44761 16.69465
#
# Velocity S-wave (km/s) = 2.61912 3.75144 3.23521
# Velocity P-wave (km/s) = 3.93420 7.57277 6.03427
#
# Compressibility (1/GPa) = 0.09901825
#
# Stress axis : x y z
#
# Youngs Moduli (GPa) = 87.47538 8.13252 95.81171
#
# Poissons Ratio (x) = 0.11361 0.52576
# Poissons Ratio (y) = 1.22197 0.33056
# Poissons Ratio (z) = 0.48002 0.02806
#
# Static dielectric constant tensor:
#      x y z
#    x 3.326770 0.000000 0.000000 
#    y 0.000000 2.434730 0.000000 
#    z 0.000000 0.000000 3.407450 
# 
# 
# High freq. dielectric constant tensor:
#      x y z
#    x 1.616500 0.000000 0.000000 
#    y 0.000000 1.547320 0.000000 
#    z 0.000000 0.000000 1.612380 
# 
# From -- ./inp_files/60698.got.cif
#   From: 2010.03.12/outbox.cif.g09.slc.cpg/sg65_31_cif.got.tgz:60698.got - 2010.04.10 20:52:16.
