data_PCOD8274384
_publ_section_title
;
Structure prediction by ZEFSAII (Michael W. Deem and Ramdas Pophale) SiO2 
 PCOD8274384
Probable space group: C M M M
;
_chemical_formula_sum "Si O2"
_cell_formula_units_Z 96
_cell_length_a 30.801459
_cell_length_b 11.778779
_cell_length_c 13.946687
_cell_angle_alpha 90.000000
_cell_angle_beta 90.000000
_cell_angle_gamma 90.000000
_cell_volume 5059.907951
_symmetry_space_group_name_H-M "C M M M"
_symmetry_group_IT_number 65
_symmetry_cell_setting 'orthorhombic'
loop_
_space_group_symop_operation_xyz
x,y,z
-x,-y,z
x,-y,-z
-x,y,-z
-x,-y,-z
x,y,-z
-x,y,z
x,-y,z
1/2+x,1/2+y,z
1/2-x,1/2-y,z
1/2+x,1/2-y,-z
1/2-x,1/2+y,-z
1/2-x,1/2-y,-z
1/2+x,1/2+y,-z
1/2-x,1/2+y,z
1/2+x,1/2-y,z
loop_
_atom_site_type_symbol
_atom_site_label
_atom_site_fract_x
_atom_site_fract_y
_atom_site_fract_z
Si Si1 0.626239 0.865794 0.889212
Si Si2 0.047966 0.233244 0.793771
Si Si3 0.201534 0.772815 0.201647
Si Si4 0.578339 0.628413 0.392239
Si Si5 0.180872 0.128907 0.607143
Si Si6 0.066057 0.000000 0.108647
Si Si7 0.831455 0.000000 0.108484
O O1 0.583133 0.814548 0.842260
O O2 0.669461 0.825851 0.834118
O O3 0.623505 0.000000 0.880568
O O4 0.628811 0.825872 0.000000
O O5 0.057106 0.217627 0.680668
O O6 0.000000 0.287757 0.806297
O O7 0.047460 0.110578 0.841622
O O8 0.250000 0.750000 0.164433
O O9 0.201866 0.783511 0.317305
O O10 0.186133 0.890940 0.160533
O O11 0.564995 0.664151 0.500000
O O12 0.562184 0.500000 0.371000
O O13 0.629598 0.632470 0.379019
O O14 0.193773 0.168816 0.500000
O O15 0.197378 0.000000 0.624594
O O16 0.117410 0.000000 0.117007
O O17 0.050052 0.000000 0.000000
O O18 0.815008 0.000000 0.000000
#
# Coordination Sequence:
#
# PCOD8274384 Si02
#       7
#    16  16  16  16  16   8   8
#     4  11  26  46  63  83 117 164 213 253 292 352
#     4  12  23  37  61  91 123 157 196 249 305 356
#     4  12  24  39  64  92 125 158 199 252 306 357
#     4   9  17  32  57  89 124 158 191 234 296 366
#     4   9  17  34  62  91 120 156 197 240 295 361
#     4  11  21  36  58  88 124 156 193 245 308 363
#     4  11  22  39  63  88 118 160 200 249 308 361
#
# _framework density 18.972677999999998
#
# number of rings (size 3 to 8) (size 9 to 14) (size 15 to 20)
#    0.000    1.333    5.000    2.250    1.167    4.000 
#    0.000    1.667    0.000    2.000    0.000    1.167 
#    0.000    0.000    0.000    0.000    0.000    0.000 
#
# Total GULP energy -595216.758859 kJ/mol
# GULP energy per Si atom -12400.349143 kJ/mol
# Density = 1.892950 g / cm^3
# Si number density = 18.972678 Si / 1000 Ang^3
#
#
#
# Elastic Constant Matrix: (Units=GPa)
#
#
# Indices 1 2 3 4 5 6 
#
# 1 102.0604 29.3882 38.9468 0.0000 0.0000 0.0000
# 2 29.3882 67.8966 37.9792 0.0000 0.0000 0.0000
# 3 38.9468 37.9792 134.1831 0.0000 0.0000 0.0000
# 4 0.0000 0.0000 0.0000 29.4659 0.0000 0.0000
# 5 0.0000 0.0000 0.0000 0.0000 -2.5487 0.0000
# 6 0.0000 0.0000 0.0000 0.0000 0.0000 -139.9981
#
#
#
# Elastic Compliance Matrix: (Units=1/GPa)
#
#
# Indices 1 2 3 4 5 6 
#
# 1 0.011785 -0.003787 -0.002349 0.000000 0.000000 0.000000
# 2 -0.003787 0.018716 -0.004198 0.000000 0.000000 0.000000
# 3 -0.002349 -0.004198 0.009322 0.000000 0.000000 0.000000
# 4 0.000000 0.000000 0.000000 0.033938 0.000000 0.000000
# 5 0.000000 0.000000 0.000000 0.000000 -0.392351 0.000000
# 6 0.000000 0.000000 0.000000 0.000000 0.000000 -0.007143
#
#
# Mechanical properties :
#
#
# Convention : Reuss Voigt Hill
#
# Bulk Modulus (GPa) = 52.20497 57.41874 54.81185
# Shear Modulus (GPa) = -16.74029 -9.42779 -13.08404
#
# Velocity S-wave (km/s) = -2.97364 -2.23157 -2.62892
# Velocity P-wave (km/s) = 3.97311 4.86721 4.44271
#
# Compressibility (1/GPa) = 0.01915527
#
# Stress axis : x y z
#
# Youngs Moduli (GPa) = 84.85435 53.43081 107.26823
#
# Poissons Ratio (x) = 0.20235 0.25194
# Poissons Ratio (y) = 0.32136 0.45032
# Poissons Ratio (z) = 0.19929 0.22431
#
# Static dielectric constant tensor:
#      x y z
#    x 3.310930 0.000000 0.000000 
#    y 0.000000 3.103450 0.000000 
#    z 0.000000 0.000000 3.957080 
# 
# 
# High freq. dielectric constant tensor:
#      x y z
#    x 1.734710 0.000000 0.000000 
#    y 0.000000 1.706440 0.000000 
#    z 0.000000 0.000000 1.758740 
# 
# From -- ./inp_files/47731.got.cif
#   From: 2010.03.12/outbox.cif.g09.slc.cpg/sg65_24_cif.got.tgz:47731.got - 2010.04.10 20:52:16.
