data_PCOD8274832
_publ_section_title
;
Structure prediction by ZEFSAII (Michael W. Deem and Ramdas Pophale) SiO2 
 PCOD8274832
Probable space group: C M M M
;
_chemical_formula_sum "Si O2"
_cell_formula_units_Z 112
_cell_length_a 14.517296
_cell_length_b 18.183557
_cell_length_c 23.680272
_cell_angle_alpha 90.000000
_cell_angle_beta 90.000000
_cell_angle_gamma 90.000000
_cell_volume 6251.025359
_symmetry_space_group_name_H-M "C M M M"
_symmetry_group_IT_number 65
_symmetry_cell_setting 'orthorhombic'
loop_
_space_group_symop_operation_xyz
x,y,z
-x,-y,z
x,-y,-z
-x,y,-z
-x,-y,-z
x,y,-z
-x,y,z
x,-y,z
1/2+x,1/2+y,z
1/2-x,1/2-y,z
1/2+x,1/2-y,-z
1/2-x,1/2+y,-z
1/2-x,1/2-y,-z
1/2+x,1/2+y,-z
1/2-x,1/2+y,z
1/2+x,1/2-y,z
loop_
_atom_site_type_symbol
_atom_site_label
_atom_site_fract_x
_atom_site_fract_y
_atom_site_fract_z
Si Si1 0.749928 0.586417 0.242374
Si Si2 0.397158 0.912923 0.848914
Si Si3 0.250035 0.663356 0.361499
Si Si4 0.893517 0.083470 0.564459
Si Si5 0.250048 0.912211 0.063198
Si Si6 0.897143 0.912900 0.151029
Si Si7 0.893456 0.415861 0.435940
O O1 0.749556 0.500000 0.256013
O O2 0.841356 0.608807 0.207445
O O3 0.749889 0.631716 0.299162
O O4 0.658789 0.609108 0.207275
O O5 0.500000 0.878073 0.847603
O O6 0.341325 0.884098 0.903859
O O7 0.404161 0.000000 0.852413
O O8 0.250000 0.750000 0.357864
O O9 0.340473 0.637434 0.394270
O O10 0.159502 0.637551 0.394214
O O11 0.877074 0.108127 0.500000
O O12 0.000000 0.088523 0.580457
O O13 0.857905 0.000000 0.572870
O O14 0.158581 0.884226 0.095994
O O15 0.250153 0.000000 0.061996
O O16 0.250141 0.879344 0.000000
O O17 0.000000 0.878092 0.152298
O O18 0.904043 0.000000 0.147753
O O19 0.858594 0.403778 0.500000
O O20 0.876108 0.500000 0.417824
O O21 0.000000 0.395641 0.431295
#
# Coordination Sequence:
#
# PCOD8274832 Si02
#       7
#    16  16  16  16  16  16  16
#     4   9  18  32  47  63  86 121 168 209 234 273
#     4   8  14  25  41  60  83 116 158 199 236 275
#     4  12  24  34  49  76 107 134 160 200 257 308
#     4   9  19  37  59  79  99 128 167 205 240 288
#     4   8  13  20  32  57  93 124 148 180 229 292
#     4   8  14  25  41  60  83 116 158 199 236 275
#     4   9  19  37  59  79  99 128 167 205 240 288
#
# _framework density 17.917061
#
# number of rings (size 3 to 8) (size 9 to 14) (size 15 to 20)
#    0.000    3.000    0.000    4.286    0.000    4.571 
#    0.000    7.143    0.000    0.000    0.000    0.000 
#    0.000    9.143    0.000   10.286    0.000   11.429 
#
# Total GULP energy -694166.100185 kJ/mol
# GULP energy per Si atom -12395.823218 kJ/mol
# Density = 1.787628 g / cm^3
# Si number density = 17.917061 Si / 1000 Ang^3
#
#
#
# Elastic Constant Matrix: (Units=GPa)
#
#
# Indices 1 2 3 4 5 6 
#
# 1 149.6265 33.7331 78.3176 0.0000 0.0000 0.0000
# 2 33.7331 59.3536 56.0177 0.0000 0.0000 0.0000
# 3 78.3176 56.0177 157.7768 0.0000 0.0000 0.0000
# 4 0.0000 0.0000 0.0000 -4.4561 0.0000 0.0000
# 5 0.0000 0.0000 0.0000 0.0000 22.6679 0.0000
# 6 0.0000 0.0000 0.0000 0.0000 0.0000 5.9042
#
#
#
# Elastic Compliance Matrix: (Units=1/GPa)
#
#
# Indices 1 2 3 4 5 6 
#
# 1 0.009102 -0.001367 -0.004033 0.000000 0.000000 0.000000
# 2 -0.001367 0.025544 -0.008391 0.000000 0.000000 0.000000
# 3 -0.004033 -0.008391 0.011319 0.000000 0.000000 0.000000
# 4 0.000000 0.000000 0.000000 -0.224413 0.000000 0.000000
# 5 0.000000 0.000000 0.000000 0.000000 0.044115 0.000000
# 6 0.000000 0.000000 0.000000 0.000000 0.000000 0.169372
#
#
# Mechanical properties :
#
#
# Convention : Reuss Voigt Hill
#
# Bulk Modulus (GPa) = 54.39425 78.09931 66.24678
# Shear Modulus (GPa) = 72.72695 18.06910 45.39803
#
# Velocity S-wave (km/s) = 6.37801 3.17911 5.03913
# Velocity P-wave (km/s) = 9.20128 7.56040 8.42090
#
# Compressibility (1/GPa) = 0.01838429
#
# Stress axis : x y z
#
# Youngs Moduli (GPa) = 109.86092 39.14769 88.34678
#
# Poissons Ratio (x) = 0.05352 0.35630
# Poissons Ratio (y) = 0.15018 0.74130
# Poissons Ratio (z) = 0.44306 0.32848
#
# Static dielectric constant tensor:
#      x y z
#    x 3.746160 0.000000 0.000000 
#    y 0.000000 2.760610 0.000000 
#    z 0.000000 0.000000 3.397260 
# 
# 
# High freq. dielectric constant tensor:
#      x y z
#    x 1.706900 0.000000 0.000000 
#    y 0.000000 1.634170 0.000000 
#    z 0.000000 0.000000 1.697780 
# 
# From -- ./inp_files/70060.got.cif
#   From: 2010.03.12/outbox.cif.g09.slc.cpg/sg65_36_cif.got.tgz:70060.got - 2010.04.10 20:52:16.
