data_PCOD8274786
_publ_section_title
;
Structure prediction by ZEFSAII (Michael W. Deem and Ramdas Pophale) SiO2 
 PCOD8274786
Probable space group: C M M M
;
_chemical_formula_sum "Si O2"
_cell_formula_units_Z 48
_cell_length_a 9.995550
_cell_length_b 9.997281
_cell_length_c 25.240696
_cell_angle_alpha 90.000000
_cell_angle_beta 90.000000
_cell_angle_gamma 90.000000
_cell_volume 2522.260400
_symmetry_space_group_name_H-M "C M M M"
_symmetry_group_IT_number 65
_symmetry_cell_setting 'orthorhombic'
loop_
_space_group_symop_operation_xyz
x,y,z
-x,-y,z
x,-y,-z
-x,y,-z
-x,-y,-z
x,y,-z
-x,y,z
x,-y,z
1/2+x,1/2+y,z
1/2-x,1/2-y,z
1/2+x,1/2-y,-z
1/2-x,1/2+y,-z
1/2-x,1/2-y,-z
1/2+x,1/2+y,-z
1/2-x,1/2+y,z
1/2+x,1/2-y,z
loop_
_atom_site_type_symbol
_atom_site_label
_atom_site_fract_x
_atom_site_fract_y
_atom_site_fract_z
Si Si1 0.000000 0.844685 0.688337
Si Si2 0.750000 0.750000 0.374556
Si Si3 0.340721 0.500000 0.062435
Si Si4 0.656213 0.000000 0.437971
Si Si5 0.250000 0.750000 0.875412
Si Si6 0.000000 0.840267 0.187073
O O1 0.872681 0.773144 0.664129
O O2 0.000000 0.820753 0.750607
O O3 0.000000 0.000000 0.673629
O O4 0.726442 0.872707 0.413142
O O5 0.500000 0.500000 0.077589
O O6 0.258783 0.375870 0.085711
O O7 0.324338 0.500000 0.000000
O O8 0.500000 0.000000 0.424930
O O9 0.684807 0.000000 0.500000
O O10 0.124132 0.758961 0.836575
O O11 0.000000 0.000000 0.172835
#
# Coordination Sequence:
#
# PCOD8274786 Si02
#       6
#     8   8   8   8   8   8
#     4  11  24  41  66  93 127 167 211 261 314 381
#     4  12  22  44  64  96 124 168 214 256 322 376
#     4  11  24  43  66  94 131 168 209 263 316 367
#     4  11  24  41  64  94 131 166 209 267 320 371
#     4  12  20  46  64  94 126 168 208 256 318 368
#     4  11  24  43  64  93 131 167 207 263 320 371
#
# _framework density 19.030549000000001
#
# number of rings (size 3 to 8) (size 9 to 14) (size 15 to 20)
#    0.000    0.667    6.667    2.000    0.000    0.667 
#    0.000    3.333    0.000    0.000    0.000    0.000 
#    0.000    0.000    0.000    0.000    0.000    0.000 
#
# Total GULP energy -297555.858968 kJ/mol
# GULP energy per Si atom -12398.160790 kJ/mol
# Density = 1.898723 g / cm^3
# Si number density = 19.030549 Si / 1000 Ang^3
#
#
#
# Elastic Constant Matrix: (Units=GPa)
#
#
# Indices 1 2 3 4 5 6 
#
# 1 155.8838 70.7100 76.9180 0.0000 0.0000 0.0000
# 2 70.7100 154.8869 73.5670 0.0000 0.0000 0.0000
# 3 76.9180 73.5670 149.7814 0.0000 0.0000 0.0000
# 4 0.0000 0.0000 0.0000 2.4970 0.0000 0.0000
# 5 0.0000 0.0000 0.0000 0.0000 69.7549 0.0000
# 6 0.0000 0.0000 0.0000 0.0000 0.0000 41.7548
#
#
#
# Elastic Compliance Matrix: (Units=1/GPa)
#
#
# Indices 1 2 3 4 5 6 
#
# 1 0.009324 -0.002586 -0.003518 0.000000 0.000000 0.000000
# 2 -0.002586 0.009138 -0.003160 0.000000 0.000000 0.000000
# 3 -0.003518 -0.003160 0.010035 0.000000 0.000000 0.000000
# 4 0.000000 0.000000 0.000000 0.400488 0.000000 0.000000
# 5 0.000000 0.000000 0.000000 0.000000 0.014336 0.000000
# 6 0.000000 0.000000 0.000000 0.000000 0.000000 0.023949
#
#
# Mechanical properties :
#
#
# Convention : Reuss Voigt Hill
#
# Bulk Modulus (GPa) = 100.31321 100.32691 100.32006
# Shear Modulus (GPa) = 10.22242 38.75847 24.49044
#
# Velocity S-wave (km/s) = 2.32018 4.51782 3.59123
# Velocity P-wave (km/s) = 7.74621 8.94693 8.36813
#
# Compressibility (1/GPa) = 0.00996878
#
# Stress axis : x y z
#
# Youngs Moduli (GPa) = 107.25190 109.43582 99.64747
#
# Poissons Ratio (x) = 0.28295 0.35058
# Poissons Ratio (y) = 0.27730 0.31492
# Poissons Ratio (z) = 0.37733 0.34586
#
# Static dielectric constant tensor:
#      x y z
#    x 3.530360 0.000000 0.000000 
#    y 0.000000 3.743540 0.000000 
#    z 0.000000 0.000000 3.658930 
# 
# 
# High freq. dielectric constant tensor:
#      x y z
#    x 1.745970 0.000000 0.000000 
#    y 0.000000 1.746050 0.000000 
#    z 0.000000 0.000000 1.768090 
# 
# From -- ./inp_files/76349.got.cif
#   From: 2010.03.12/outbox.cif.g09.slc.cpg/sg65_39_cif.got.tgz:76349.got - 2010.04.10 20:52:16.
