data_PCOD8274901
_publ_section_title
;
Structure prediction by ZEFSAII (Michael W. Deem and Ramdas Pophale) SiO2 
 PCOD8274901
Probable space group: C M M M
;
_chemical_formula_sum "Si O2"
_cell_formula_units_Z 80
_cell_length_a 9.474743
_cell_length_b 25.920930
_cell_length_c 22.372289
_cell_angle_alpha 90.000000
_cell_angle_beta 90.000000
_cell_angle_gamma 90.000000
_cell_volume 5494.503302
_symmetry_space_group_name_H-M "C M M M"
_symmetry_group_IT_number 65
_symmetry_cell_setting 'orthorhombic'
loop_
_space_group_symop_operation_xyz
x,y,z
-x,-y,z
x,-y,-z
-x,y,-z
-x,-y,-z
x,y,-z
-x,y,z
x,-y,z
1/2+x,1/2+y,z
1/2-x,1/2-y,z
1/2+x,1/2-y,-z
1/2-x,1/2+y,-z
1/2-x,1/2-y,-z
1/2+x,1/2+y,-z
1/2-x,1/2+y,z
1/2+x,1/2-y,z
loop_
_atom_site_type_symbol
_atom_site_label
_atom_site_fract_x
_atom_site_fract_y
_atom_site_fract_z
Si Si1 0.167822 0.599514 0.637078
Si Si2 0.659079 0.438413 0.000000
Si Si3 0.158087 0.561543 0.109687
Si Si4 0.332232 0.942479 0.759808
Si Si5 0.335856 0.800229 0.569239
Si Si6 0.668373 0.000000 0.432614
O O1 0.219426 0.594776 0.706138
O O2 0.224545 0.652460 0.608517
O O3 0.227660 0.550815 0.600275
O O4 0.000000 0.599166 0.632900
O O5 0.737934 0.416799 0.941192
O O6 0.660977 0.500000 0.000000
O O7 0.500000 0.417076 0.000000
O O8 0.154562 0.500000 0.108852
O O9 0.214783 0.579552 0.175185
O O10 0.000000 0.582643 0.097275
O O11 0.500000 0.946463 0.759631
O O12 0.270245 0.000000 0.749167
O O13 0.310145 0.813919 0.500000
O O14 0.500000 0.789812 0.581938
O O15 0.250000 0.750000 0.588908
O O16 0.500000 0.000000 0.431274
O O17 0.725838 0.000000 0.500000
#
# Coordination Sequence:
#
# PCOD8274901 Si02
#       6
#    16   8  16  16  16   8
#     4   9  14  21  34  53  77 100 123 154 193 233
#     4   9  15  21  29  43  63  89 122 155 182 201
#     4   8  13  20  31  45  63  88 119 149 177 212
#     4   8  12  19  31  49  71  95 120 149 187 228
#     4   9  17  28  41  57  76  99 128 160 193 229
#     4   9  14  18  28  50  79 102 117 146 196 239
#
# _framework density 14.560006
#
# number of rings (size 3 to 8) (size 9 to 14) (size 15 to 20)
#    0.000    3.400    1.000    2.100    0.000    3.600 
#    0.000    0.000    0.000    1.200    0.000    0.700 
#    0.000    4.000    0.000    0.900    0.000    8.500 
#
# Total GULP energy -495662.585310 kJ/mol
# GULP energy per Si atom -12391.564633 kJ/mol
# Density = 1.452687 g / cm^3
# Si number density = 14.560006 Si / 1000 Ang^3
#
#
#
# Elastic Constant Matrix: (Units=GPa)
#
#
# Indices 1 2 3 4 5 6 
#
# 1 37.8930 23.4860 38.5314 0.0000 0.0000 0.0000
# 2 23.4860 79.3190 56.4495 0.0000 0.0000 0.0000
# 3 38.5314 56.4495 147.1377 0.0000 0.0000 0.0000
# 4 0.0000 0.0000 0.0000 12.4041 0.0000 0.0000
# 5 0.0000 0.0000 0.0000 0.0000 7.3456 0.0000
# 6 0.0000 0.0000 0.0000 0.0000 0.0000 11.3152
#
#
#
# Elastic Compliance Matrix: (Units=1/GPa)
#
#
# Indices 1 2 3 4 5 6 
#
# 1 0.037752 -0.005698 -0.007700 0.000000 0.000000 0.000000
# 2 -0.005698 0.018202 -0.005491 0.000000 0.000000 0.000000
# 3 -0.007700 -0.005491 0.010919 0.000000 0.000000 0.000000
# 4 0.000000 0.000000 0.000000 0.080618 0.000000 0.000000
# 5 0.000000 0.000000 0.000000 0.000000 0.136136 0.000000
# 6 0.000000 0.000000 0.000000 0.000000 0.000000 0.088377
#
#
# Mechanical properties :
#
#
# Convention : Reuss Voigt Hill
#
# Bulk Modulus (GPa) = 34.37041 55.69815 45.03428
# Shear Modulus (GPa) = 11.91947 15.93851 13.92899
#
# Velocity S-wave (km/s) = 2.86430 3.31218 3.09635
# Velocity P-wave (km/s) = 5.88186 7.27768 6.61668
#
# Compressibility (1/GPa) = 0.02909480
#
# Stress axis : x y z
#
# Youngs Moduli (GPa) = 26.48901 54.93767 91.57946
#
# Poissons Ratio (x) = 0.31304 0.70516
# Poissons Ratio (y) = 0.15094 0.50288
# Poissons Ratio (z) = 0.20397 0.30167
#
# Static dielectric constant tensor:
#      x y z
#    x 2.481370 0.000000 0.000000 
#    y 0.000000 2.550050 0.000000 
#    z 0.000000 0.000000 3.251540 
# 
# 
# High freq. dielectric constant tensor:
#      x y z
#    x 1.509740 0.000000 0.000000 
#    y 0.000000 1.503480 0.000000 
#    z 0.000000 0.000000 1.571490 
# 
# From -- ./inp_files/67979.got.cif
#   From: 2010.03.12/outbox.cif.g09.slc.cpg/sg65_34_cif.got.tgz:67979.got - 2010.04.10 20:52:16.
