data_PCOD8274446
_publ_section_title
;
Structure prediction by ZEFSAII (Michael W. Deem and Ramdas Pophale) SiO2 
 PCOD8274446
Probable space group: C M M M
;
_chemical_formula_sum "Si O2"
_cell_formula_units_Z 72
_cell_length_a 18.849751
_cell_length_b 8.912328
_cell_length_c 22.700557
_cell_angle_alpha 90.000000
_cell_angle_beta 90.000000
_cell_angle_gamma 90.000000
_cell_volume 3813.583788
_symmetry_space_group_name_H-M "C M M M"
_symmetry_group_IT_number 65
_symmetry_cell_setting 'orthorhombic'
loop_
_space_group_symop_operation_xyz
x,y,z
-x,-y,z
x,-y,-z
-x,y,-z
-x,-y,-z
x,y,-z
-x,y,z
x,-y,z
1/2+x,1/2+y,z
1/2-x,1/2-y,z
1/2+x,1/2-y,-z
1/2-x,1/2+y,-z
1/2-x,1/2-y,-z
1/2+x,1/2+y,-z
1/2-x,1/2+y,z
1/2+x,1/2-y,z
loop_
_atom_site_type_symbol
_atom_site_label
_atom_site_fract_x
_atom_site_fract_y
_atom_site_fract_z
Si Si1 0.326199 0.822905 0.828461
Si Si2 0.918488 0.172761 0.596621
Si Si3 0.081771 0.827825 0.732602
Si Si4 0.173690 0.676053 0.500000
Si Si5 0.420670 0.178257 0.934670
O O1 0.250000 0.750000 0.825571
O O2 0.369828 0.782155 0.770340
O O3 0.366841 0.757655 0.885940
O O4 0.317579 0.000000 0.831828
O O5 0.900165 0.201708 0.664600
O O6 0.868564 0.277659 0.558291
O O7 0.000000 0.214259 0.583615
O O8 0.904574 0.000000 0.579861
O O9 0.000000 0.789808 0.745446
O O10 0.098123 0.000000 0.749114
O O11 0.184131 0.500000 0.500000
O O12 0.250000 0.750000 0.500000
O O13 0.500000 0.239346 0.921579
O O14 0.421903 0.000000 0.931636
O O15 0.396222 0.230971 0.000000
#
# Coordination Sequence:
#
# PCOD8274446 Si02
#       5
#    16  16  16   8  16
#     4  11  22  34  51  77 109 145 181 219 266 317
#     4   9  19  38  62  84 108 140 176 216 266 321
#     4   9  19  37  60  83 107 138 176 219 267 318
#     4  12  25  38  55  81 113 147 181 220 265 312
#     4   8  15  30  52  76 101 132 174 222 269 318
#
# _framework density 18.87988
#
# number of rings (size 3 to 8) (size 9 to 14) (size 15 to 20)
#    0.000    2.444    0.000    4.667    0.000    5.333 
#    0.000    2.222    0.000    2.000    0.000    7.778 
#    0.000    0.000    0.000    0.000    0.000    0.000 
#
# Total GULP energy -446412.783006 kJ/mol
# GULP energy per Si atom -12400.355083 kJ/mol
# Density = 1.883691 g / cm^3
# Si number density = 18.879880 Si / 1000 Ang^3
#
#
#
# Elastic Constant Matrix: (Units=GPa)
#
#
# Indices 1 2 3 4 5 6 
#
# 1 126.2489 54.1333 80.4266 0.0000 0.0000 0.0000
# 2 54.1333 79.1494 48.7345 0.0000 0.0000 0.0000
# 3 80.4266 48.7345 124.8059 0.0000 0.0000 0.0000
# 4 0.0000 0.0000 0.0000 21.7912 0.0000 0.0000
# 5 0.0000 0.0000 0.0000 0.0000 6.2917 0.0000
# 6 0.0000 0.0000 0.0000 0.0000 0.0000 16.6694
#
#
#
# Elastic Compliance Matrix: (Units=1/GPa)
#
#
# Indices 1 2 3 4 5 6 
#
# 1 0.015191 -0.005743 -0.007547 0.000000 0.000000 0.000000
# 2 -0.005743 0.018805 -0.003642 0.000000 0.000000 0.000000
# 3 -0.007547 -0.003642 0.014298 0.000000 0.000000 0.000000
# 4 0.000000 0.000000 0.000000 0.045890 0.000000 0.000000
# 5 0.000000 0.000000 0.000000 0.000000 0.158941 0.000000
# 6 0.000000 0.000000 0.000000 0.000000 0.000000 0.059990
#
#
# Mechanical properties :
#
#
# Convention : Reuss Voigt Hill
#
# Bulk Modulus (GPa) = 69.30023 77.42144 73.36083
# Shear Modulus (GPa) = 14.21310 18.74443 16.47876
#
# Velocity S-wave (km/s) = 2.74673 3.15433 2.95756
# Velocity P-wave (km/s) = 6.84433 7.37311 7.11364
#
# Compressibility (1/GPa) = 0.01442997
#
# Stress axis : x y z
#
# Youngs Moduli (GPa) = 65.82862 53.17823 69.94068
#
# Poissons Ratio (x) = 0.30540 0.52782
# Poissons Ratio (y) = 0.37805 0.25473
# Poissons Ratio (z) = 0.49679 0.19368
#
# Static dielectric constant tensor:
#      x y z
#    x 3.496220 0.000000 0.000000 
#    y 0.000000 3.185070 0.000000 
#    z 0.000000 0.000000 3.651410 
# 
# 
# High freq. dielectric constant tensor:
#      x y z
#    x 1.734400 0.000000 0.000000 
#    y 0.000000 1.709380 0.000000 
#    z 0.000000 0.000000 1.748060 
# 
# From -- ./inp_files/64376.got.cif
#   From: 2010.03.12/outbox.cif.g09.slc.cpg/sg65_33_cif.got.tgz:64376.got - 2010.04.10 20:52:16.
