data_PCOD8274801
_publ_section_title
;
Structure prediction by ZEFSAII (Michael W. Deem and Ramdas Pophale) SiO2 
 PCOD8274801
Probable space group: C M M M
;
_chemical_formula_sum "Si O2"
_cell_formula_units_Z 72
_cell_length_a 10.234367
_cell_length_b 14.892576
_cell_length_c 25.262814
_cell_angle_alpha 90.000000
_cell_angle_beta 90.000000
_cell_angle_gamma 90.000000
_cell_volume 3850.459291
_symmetry_space_group_name_H-M "C M M M"
_symmetry_group_IT_number 65
_symmetry_cell_setting 'orthorhombic'
loop_
_space_group_symop_operation_xyz
x,y,z
-x,-y,z
x,-y,-z
-x,y,-z
-x,-y,-z
x,y,-z
-x,y,z
x,-y,z
1/2+x,1/2+y,z
1/2-x,1/2-y,z
1/2+x,1/2-y,-z
1/2-x,1/2+y,-z
1/2-x,1/2-y,-z
1/2+x,1/2+y,-z
1/2-x,1/2+y,z
1/2+x,1/2-y,z
loop_
_atom_site_type_symbol
_atom_site_label
_atom_site_fract_x
_atom_site_fract_y
_atom_site_fract_z
Si Si1 0.152009 0.000000 0.937654
Si Si2 0.849553 0.602949 0.561086
Si Si3 0.000000 0.751069 0.293573
Si Si4 0.744649 0.647855 0.862786
Si Si5 0.000000 0.602574 0.202800
Si Si6 0.750000 0.250000 0.633527
Si Si7 0.000000 0.894840 0.208440
O O1 0.222106 0.912096 0.914677
O O2 0.000000 0.000000 0.920459
O O3 0.169622 0.000000 0.000000
O O4 0.812880 0.617605 0.500000
O O5 0.828297 0.500000 0.577479
O O6 0.752254 0.662284 0.596326
O O7 0.000000 0.631040 0.571088
O O8 0.000000 0.667482 0.253223
O O9 0.874475 0.747976 0.329671
O O10 0.000000 0.846117 0.264418
O O11 0.750000 0.750000 0.882427
O O12 0.627617 0.635752 0.822222
O O13 0.875684 0.619373 0.833703
O O14 0.000000 0.500000 0.223499
O O15 0.000000 0.000000 0.218813
#
# Coordination Sequence:
#
# PCOD8274801 Si02
#       7
#     8  16   8  16   8   8   8
#     4  11  24  43  67  99 129 163 205 251 322 383
#     4   9  19  39  67  92 120 166 214 252 310 390
#     4  12  26  38  59  94 127 166 208 268 306 372
#     4  12  21  40  68  91 122 161 205 260 302 362
#     4  12  24  40  64  92 119 162 217 258 300 360
#     4  12  23  40  60  92 136 156 203 266 330 354
#     4  12  22  42  64  86 117 170 219 242 302 376
#
# _framework density 18.699068
#
# number of rings (size 3 to 8) (size 9 to 14) (size 15 to 20)
#    0.000    0.778    6.667    2.333    0.000    2.222 
#    0.000    1.111    0.000    1.333    0.000    0.000 
#    0.000    0.000    0.000    0.000    0.000    0.000 
#
# Total GULP energy -446531.682148 kJ/mol
# GULP energy per Si atom -12403.657837 kJ/mol
# Density = 1.865651 g / cm^3
# Si number density = 18.699068 Si / 1000 Ang^3
#
#
#
# Elastic Constant Matrix: (Units=GPa)
#
#
# Indices 1 2 3 4 5 6 
#
# 1 137.0618 49.7662 65.1667 0.0000 0.0000 0.0000
# 2 49.7662 178.7619 75.4665 0.0000 0.0000 0.0000
# 3 65.1667 75.4665 118.2207 0.0000 0.0000 0.0000
# 4 0.0000 0.0000 0.0000 20.1491 0.0000 0.0000
# 5 0.0000 0.0000 0.0000 0.0000 46.9935 0.0000
# 6 0.0000 0.0000 0.0000 0.0000 0.0000 30.3323
#
#
#
# Elastic Compliance Matrix: (Units=1/GPa)
#
#
# Indices 1 2 3 4 5 6 
#
# 1 0.009937 -0.000621 -0.005081 0.000000 0.000000 0.000000
# 2 -0.000621 0.007697 -0.004571 0.000000 0.000000 0.000000
# 3 -0.005081 -0.004571 0.014177 0.000000 0.000000 0.000000
# 4 0.000000 0.000000 0.000000 0.049630 0.000000 0.000000
# 5 0.000000 0.000000 0.000000 0.000000 0.021280 0.000000
# 6 0.000000 0.000000 0.000000 0.000000 0.000000 0.032968
#
#
# Mechanical properties :
#
#
# Convention : Reuss Voigt Hill
#
# Bulk Modulus (GPa) = 88.77044 90.53811 89.65427
# Shear Modulus (GPa) = 31.25192 35.73800 33.49496
#
# Velocity S-wave (km/s) = 4.09260 4.37649 4.23692
# Velocity P-wave (km/s) = 8.36115 8.60592 8.48442
#
# Compressibility (1/GPa) = 0.01126501
#
# Stress axis : x y z
#
# Youngs Moduli (GPa) = 100.62931 129.92824 70.53577
#
# Poissons Ratio (x) = 0.08075 0.35840
# Poissons Ratio (y) = 0.06254 0.32239
# Poissons Ratio (z) = 0.51131 0.59384
#
# Static dielectric constant tensor:
#      x y z
#    x 3.492740 0.000000 0.000000 
#    y 0.000000 3.965070 0.000000 
#    z 0.000000 0.000000 3.413970 
# 
# 
# High freq. dielectric constant tensor:
#      x y z
#    x 1.732340 0.000000 0.000000 
#    y 0.000000 1.742700 0.000000 
#    z 0.000000 0.000000 1.725410 
# 
# From -- ./inp_files/72643.got.cif
#   From: 2010.03.12/outbox.cif.g09.slc.cpg/sg65_37_cif.got.tgz:72643.got - 2010.04.10 20:52:16.
