data_PCOD8274984
_publ_section_title
;
Structure prediction by ZEFSAII (Michael W. Deem and Ramdas Pophale) SiO2 
 PCOD8274984
Probable space group: C M M M
;
_chemical_formula_sum "Si O2"
_cell_formula_units_Z 96
_cell_length_a 19.841945
_cell_length_b 30.284766
_cell_length_c 9.936803
_cell_angle_alpha 90.000000
_cell_angle_beta 90.000000
_cell_angle_gamma 90.000000
_cell_volume 5971.110988
_symmetry_space_group_name_H-M "C M M M"
_symmetry_group_IT_number 65
_symmetry_cell_setting 'orthorhombic'
loop_
_space_group_symop_operation_xyz
x,y,z
-x,-y,z
x,-y,-z
-x,y,-z
-x,-y,-z
x,y,-z
-x,y,z
x,-y,z
1/2+x,1/2+y,z
1/2-x,1/2-y,z
1/2+x,1/2-y,-z
1/2-x,1/2+y,-z
1/2-x,1/2-y,-z
1/2+x,1/2+y,-z
1/2-x,1/2+y,z
1/2+x,1/2-y,z
loop_
_atom_site_type_symbol
_atom_site_label
_atom_site_fract_x
_atom_site_fract_y
_atom_site_fract_z
Si Si1 0.679199 0.951057 0.340125
Si Si2 0.080140 0.790782 0.850876
Si Si3 0.419858 0.782020 0.350451
Si Si4 0.075192 0.620222 0.660461
Si Si5 0.421494 0.609933 0.844085
Si Si6 0.168925 0.051774 0.653555
O O1 0.673810 0.951971 0.500000
O O2 0.626555 0.915858 0.278381
O O3 0.754892 0.937473 0.299339
O O4 0.661797 0.000000 0.284012
O O5 0.111318 0.755177 0.747531
O O6 0.101323 0.840177 0.807919
O O7 0.000000 0.787655 0.852662
O O8 0.108001 0.780090 0.000000
O O9 0.390063 0.774233 0.500000
O O10 0.500000 0.778364 0.356401
O O11 0.400533 0.830785 0.295583
O O12 0.074020 0.618396 0.500000
O O13 0.000000 0.610164 0.715913
O O14 0.500000 0.603404 0.813430
O O15 0.381451 0.576616 0.751065
O O16 0.406094 0.599735 0.000000
O O17 0.157304 0.067506 0.500000
O O18 0.154696 0.000000 0.665387
#
# Coordination Sequence:
#
# PCOD8274984 Si02
#       6
#    16  16  16  16  16  16
#     4   8  14  25  40  58  83 115 146 174 207 248
#     4   8  14  25  40  58  81 107 134 166 205 248
#     4   8  13  21  35  58  86 111 135 166 204 244
#     4   8  13  21  36  61  89 113 140 176 212 243
#     4   9  18  31  46  65  86 107 136 176 216 250
#     4   9  18  31  45  62  85 113 143 173 207 250
#
# _framework density 16.07741
#
# number of rings (size 3 to 8) (size 9 to 14) (size 15 to 20)
#    0.000    3.667    0.000    3.000    0.000    2.000 
#    0.000    5.000    0.000    2.000    0.000    7.000 
#    0.000    0.000    0.000   10.167    0.000   10.333 
#
# Total GULP energy -594823.348067 kJ/mol
# GULP energy per Si atom -12392.153085 kJ/mol
# Density = 1.604082 g / cm^3
# Si number density = 16.077410 Si / 1000 Ang^3
#
#
#
# Elastic Constant Matrix: (Units=GPa)
#
#
# Indices 1 2 3 4 5 6 
#
# 1 63.5749 61.0230 39.4758 0.0000 0.0000 0.0000
# 2 61.0230 115.0955 59.0053 0.0000 0.0000 0.0000
# 3 39.4758 59.0053 59.4065 0.0000 0.0000 0.0000
# 4 0.0000 0.0000 0.0000 3.7170 0.0000 0.0000
# 5 0.0000 0.0000 0.0000 0.0000 8.6396 0.0000
# 6 0.0000 0.0000 0.0000 0.0000 0.0000 3.1080
#
#
#
# Elastic Compliance Matrix: (Units=1/GPa)
#
#
# Indices 1 2 3 4 5 6 
#
# 1 0.034579 -0.013353 -0.009715 0.000000 0.000000 0.000000
# 2 -0.013353 0.022859 -0.013832 0.000000 0.000000 0.000000
# 3 -0.009715 -0.013832 0.037027 0.000000 0.000000 0.000000
# 4 0.000000 0.000000 0.000000 0.269038 0.000000 0.000000
# 5 0.000000 0.000000 0.000000 0.000000 0.115746 0.000000
# 6 0.000000 0.000000 0.000000 0.000000 0.000000 0.321746
#
#
# Mechanical properties :
#
#
# Convention : Reuss Voigt Hill
#
# Bulk Modulus (GPa) = 48.38904 61.89834 55.14369
# Shear Modulus (GPa) = 5.67098 8.33112 7.00105
#
# Velocity S-wave (km/s) = 1.88015 2.27884 2.08903
# Velocity P-wave (km/s) = 5.90560 6.74596 6.33972
#
# Compressibility (1/GPa) = 0.02066583
#
# Stress axis : x y z
#
# Youngs Moduli (GPa) = 28.91950 43.74629 27.00735
#
# Poissons Ratio (x) = 0.58414 0.26237
# Poissons Ratio (y) = 0.38616 0.37356
# Poissons Ratio (z) = 0.28095 0.60508
#
# Static dielectric constant tensor:
#      x y z
#    x 2.845210 0.000000 0.000000 
#    y 0.000000 3.323840 0.000000 
#    z 0.000000 0.000000 2.904510 
# 
# 
# High freq. dielectric constant tensor:
#      x y z
#    x 1.582540 0.000000 0.000000 
#    y 0.000000 1.628080 0.000000 
#    z 0.000000 0.000000 1.583980 
# 
# From -- ./inp_files/27362.got.cif
#   From: 2010.03.12/outbox.cif.g09.slc.cpg/sg65_14_cif.got.tgz:27362.got - 2010.04.10 20:52:16.
