data_PCOD8274459
_publ_section_title
;
Structure prediction by ZEFSAII (Michael W. Deem and Ramdas Pophale) SiO2 
 PCOD8274459
Probable space group: C M M M
;
_chemical_formula_sum "Si O2"
_cell_formula_units_Z 72
_cell_length_a 18.434852
_cell_length_b 8.948140
_cell_length_c 23.341872
_cell_angle_alpha 90.000000
_cell_angle_beta 90.000000
_cell_angle_gamma 90.000000
_cell_volume 3850.420038
_symmetry_space_group_name_H-M "C M M M"
_symmetry_group_IT_number 65
_symmetry_cell_setting 'orthorhombic'
loop_
_space_group_symop_operation_xyz
x,y,z
-x,-y,z
x,-y,-z
-x,y,-z
-x,-y,-z
x,y,-z
-x,y,z
x,-y,z
1/2+x,1/2+y,z
1/2-x,1/2-y,z
1/2+x,1/2-y,-z
1/2-x,1/2+y,-z
1/2-x,1/2-y,-z
1/2+x,1/2+y,-z
1/2-x,1/2+y,z
1/2+x,1/2-y,z
loop_
_atom_site_type_symbol
_atom_site_label
_atom_site_fract_x
_atom_site_fract_y
_atom_site_fract_z
Si Si1 0.421127 0.823846 0.000000
Si Si2 0.419157 0.322424 0.330947
Si Si3 0.086473 0.671706 0.123996
Si Si4 0.671947 0.323513 0.222981
Si Si5 0.174733 0.175830 0.435678
O O1 0.382672 0.781497 0.060387
O O2 0.500000 0.746159 0.000000
O O3 0.432800 0.000000 0.000000
O O4 0.500000 0.254806 0.325016
O O5 0.422796 0.500000 0.328806
O O6 0.369498 0.262564 0.279244
O O7 0.386366 0.267904 0.391554
O O8 0.106731 0.500000 0.138066
O O9 0.124664 0.781235 0.168094
O O10 0.000000 0.693824 0.126579
O O11 0.681669 0.500000 0.225058
O O12 0.750000 0.250000 0.219688
O O13 0.151132 0.222746 0.500000
O O14 0.250000 0.250000 0.417933
O O15 0.186014 0.000000 0.430964
#
# Coordination Sequence:
#
# PCOD8274459 Si02
#       5
#     8  16  16  16  16
#     4   7  12  26  50  77 102 129 159 195 242 293
#     4   9  18  32  50  73  99 126 160 205 252 294
#     4   9  17  32  55  80 104 130 163 202 245 296
#     4  11  22  35  51  71  99 134 170 208 252 299
#     4   9  17  30  50  74  99 129 163 198 238 287
#
# _framework density 18.699258
#
# number of rings (size 3 to 8) (size 9 to 14) (size 15 to 20)
#    0.000    2.778    0.000    3.333    0.000    1.778 
#    0.000    4.444    0.000    5.333    0.000    3.111 
#    0.000    0.000    0.000    0.000    0.000    0.000 
#
# Total GULP energy -446169.544269 kJ/mol
# GULP energy per Si atom -12393.598452 kJ/mol
# Density = 1.865670 g / cm^3
# Si number density = 18.699258 Si / 1000 Ang^3
#
#
#
# Elastic Constant Matrix: (Units=GPa)
#
#
# Indices 1 2 3 4 5 6 
#
# 1 97.4328 25.6856 65.0483 0.0000 0.0000 0.0000
# 2 25.6856 34.3948 27.0473 0.0000 0.0000 0.0000
# 3 65.0483 27.0473 152.7367 0.0000 0.0000 0.0000
# 4 0.0000 0.0000 0.0000 23.3409 0.0000 0.0000
# 5 0.0000 0.0000 0.0000 0.0000 15.9788 0.0000
# 6 0.0000 0.0000 0.0000 0.0000 0.0000 19.2681
#
#
#
# Elastic Compliance Matrix: (Units=1/GPa)
#
#
# Indices 1 2 3 4 5 6 
#
# 1 0.015885 -0.007601 -0.005419 0.000000 0.000000 0.000000
# 2 -0.007601 0.037415 -0.003388 0.000000 0.000000 0.000000
# 3 -0.005419 -0.003388 0.009455 0.000000 0.000000 0.000000
# 4 0.000000 0.000000 0.000000 0.042843 0.000000 0.000000
# 5 0.000000 0.000000 0.000000 0.000000 0.062583 0.000000
# 6 0.000000 0.000000 0.000000 0.000000 0.000000 0.051899
#
#
# Mechanical properties :
#
#
# Convention : Reuss Voigt Hill
#
# Bulk Modulus (GPa) = 33.40251 57.79187 45.59719
# Shear Modulus (GPa) = 19.02019 22.83645 20.92832
#
# Velocity S-wave (km/s) = 3.19276 3.49843 3.34908
# Velocity P-wave (km/s) = 5.61190 6.87690 6.27635
#
# Compressibility (1/GPa) = 0.02993787
#
# Stress axis : x y z
#
# Youngs Moduli (GPa) = 62.95079 26.72703 105.76168
#
# Poissons Ratio (x) = 0.20316 0.57315
# Poissons Ratio (y) = 0.47852 0.35836
# Poissons Ratio (z) = 0.34115 0.09056
#
# Static dielectric constant tensor:
#      x y z
#    x 3.424470 0.000000 0.000000 
#    y 0.000000 3.087760 0.000000 
#    z 0.000000 0.000000 3.898510 
# 
# 
# High freq. dielectric constant tensor:
#      x y z
#    x 1.711480 0.000000 0.000000 
#    y 0.000000 1.689110 0.000000 
#    z 0.000000 0.000000 1.749430 
# 
# From -- ./inp_files/67068.got.cif
#   From: 2010.03.12/outbox.cif.g09.slc.cpg/sg65_34_cif.got.tgz:67068.got - 2010.04.10 20:52:16.
