data_PCOD8274147
_publ_section_title
;
Structure prediction by ZEFSAII (Michael W. Deem and Ramdas Pophale) SiO2 
 PCOD8274147
Probable space group: C M M M
;
_chemical_formula_sum "Si O2"
_cell_formula_units_Z 88
_cell_length_a 22.347947
_cell_length_b 9.278290
_cell_length_c 21.329781
_cell_angle_alpha 90.000000
_cell_angle_beta 90.000000
_cell_angle_gamma 90.000000
_cell_volume 4422.745729
_symmetry_space_group_name_H-M "C M M M"
_symmetry_group_IT_number 65
_symmetry_cell_setting 'orthorhombic'
loop_
_space_group_symop_operation_xyz
x,y,z
-x,-y,z
x,-y,-z
-x,y,-z
-x,-y,-z
x,y,-z
-x,y,z
x,-y,z
1/2+x,1/2+y,z
1/2-x,1/2-y,z
1/2+x,1/2-y,-z
1/2-x,1/2+y,-z
1/2-x,1/2-y,-z
1/2+x,1/2+y,-z
1/2-x,1/2+y,z
1/2+x,1/2-y,z
loop_
_atom_site_type_symbol
_atom_site_label
_atom_site_fract_x
_atom_site_fract_y
_atom_site_fract_z
Si Si1 0.839626 0.500000 0.425540
Si Si2 0.500000 0.676036 0.170530
Si Si3 0.000000 0.159668 0.689097
Si Si4 0.880243 0.671707 0.127404
Si Si5 0.375980 0.273750 0.356902
Si Si6 0.689778 0.326795 0.767229
Si Si7 0.187607 0.664822 0.000000
Si Si8 0.700528 0.500000 0.426843
O O1 0.850831 0.500000 0.500000
O O2 0.873705 0.623161 0.389745
O O3 0.769829 0.500000 0.409002
O O4 0.500000 0.500000 0.164352
O O5 0.500000 0.738530 0.242734
O O6 0.557434 0.743941 0.135880
O O7 0.944997 0.184077 0.642170
O O8 0.000000 0.000000 0.714317
O O9 0.886819 0.500000 0.142070
O O10 0.830405 0.748250 0.169975
O O11 0.855152 0.699459 0.058365
O O12 0.359206 0.287840 0.284399
O O13 0.330495 0.362690 0.398637
O O14 0.696823 0.500000 0.775350
O O15 0.750000 0.250000 0.744234
O O16 0.250000 0.750000 0.000000
O O17 0.207992 0.500000 0.000000
O O18 0.690801 0.500000 0.500000
#
# Coordination Sequence:
#
# PCOD8274147 Si02
#       8
#     8   8   8  16  16  16   8   8
#     4  11  26  45  65  97 137 169 215 280 337 407
#     4  11  23  42  66  96 137 179 225 279 336 397
#     4  11  22  44  66  92 131 172 218 277 328 391
#     4  11  24  43  67  98 134 178 227 275 336 398
#     4  12  24  41  67  96 128 174 221 273 336 396
#     4  12  24  39  63  98 134 168 221 282 338 400
#     4  10  24  45  68  97 137 180 222 274 335 402
#     4  11  22  43  69  95 129 175 219 266 335 407
#
# _framework density 19.897141000000001
#
# number of rings (size 3 to 8) (size 9 to 14) (size 15 to 20)
#    0.000    0.727    3.636    4.091    2.545    5.091 
#    1.636    4.545    0.000    0.000    0.000    0.000 
#    0.000    0.000    0.000    0.000    0.000    0.000 
#
# Total GULP energy -545306.970919 kJ/mol
# GULP energy per Si atom -12393.340248 kJ/mol
# Density = 1.985185 g / cm^3
# Si number density = 19.897141 Si / 1000 Ang^3
#
#
#
# Elastic Constant Matrix: (Units=GPa)
#
#
# Indices 1 2 3 4 5 6 
#
# 1 108.4187 38.4085 50.8400 0.0000 0.0000 0.0000
# 2 38.4085 134.9160 41.7766 0.0000 0.0000 0.0000
# 3 50.8400 41.7766 95.2021 0.0000 0.0000 0.0000
# 4 0.0000 0.0000 0.0000 37.9467 0.0000 0.0000
# 5 0.0000 0.0000 0.0000 0.0000 27.3053 0.0000
# 6 0.0000 0.0000 0.0000 0.0000 0.0000 -0.7174
#
#
#
# Elastic Compliance Matrix: (Units=1/GPa)
#
#
# Indices 1 2 3 4 5 6 
#
# 1 0.012651 -0.001747 -0.005989 0.000000 0.000000 0.000000
# 2 -0.001747 0.008819 -0.002937 0.000000 0.000000 0.000000
# 3 -0.005989 -0.002937 0.014991 0.000000 0.000000 0.000000
# 4 0.000000 0.000000 0.000000 0.026353 0.000000 0.000000
# 5 0.000000 0.000000 0.000000 0.000000 0.036623 0.000000
# 6 0.000000 0.000000 0.000000 0.000000 0.000000 -1.393981
#
#
# Mechanical properties :
#
#
# Convention : Reuss Voigt Hill
#
# Bulk Modulus (GPa) = 66.16155 66.73186 66.44671
# Shear Modulus (GPa) = -3.94272 26.74106 11.39917
#
# Velocity S-wave (km/s) = -1.40920 3.66999 2.39614
# Velocity P-wave (km/s) = 5.53861 7.18120 6.41272
#
# Compressibility (1/GPa) = 0.01511452
#
# Stress axis : x y z
#
# Youngs Moduli (GPa) = 79.04605 113.39449 66.70610
#
# Poissons Ratio (x) = 0.19809 0.39952
# Poissons Ratio (y) = 0.13809 0.19591
# Poissons Ratio (z) = 0.47343 0.33303
#
# Static dielectric constant tensor:
#      x y z
#    x 3.726520 0.000000 0.000000 
#    y 0.000000 3.707020 0.000000 
#    z 0.000000 0.000000 3.689860 
# 
# 
# High freq. dielectric constant tensor:
#      x y z
#    x 1.790310 0.000000 0.000000 
#    y 0.000000 1.787520 0.000000 
#    z 0.000000 0.000000 1.782940 
# 
# From -- ./inp_files/65287.got.cif
#   From: 2010.03.12/outbox.cif.g09.slc.cpg/sg65_33_cif.got.tgz:65287.got - 2010.04.10 20:52:16.
