data_PCOD8274342
_publ_section_title
;
Structure prediction by ZEFSAII (Michael W. Deem and Ramdas Pophale) SiO2 
 PCOD8274342
Probable space group: C M M M
;
_chemical_formula_sum "Si O2"
_cell_formula_units_Z 104
_cell_length_a 8.643688
_cell_length_b 23.602923
_cell_length_c 28.339188
_cell_angle_alpha 90.000000
_cell_angle_beta 90.000000
_cell_angle_gamma 90.000000
_cell_volume 5781.656346
_symmetry_space_group_name_H-M "C M M M"
_symmetry_group_IT_number 65
_symmetry_cell_setting 'orthorhombic'
loop_
_space_group_symop_operation_xyz
x,y,z
-x,-y,z
x,-y,-z
-x,y,-z
-x,-y,-z
x,y,-z
-x,y,z
x,-y,z
1/2+x,1/2+y,z
1/2-x,1/2-y,z
1/2+x,1/2-y,-z
1/2-x,1/2+y,-z
1/2-x,1/2-y,-z
1/2+x,1/2+y,-z
1/2-x,1/2+y,z
1/2+x,1/2-y,z
loop_
_atom_site_type_symbol
_atom_site_label
_atom_site_fract_x
_atom_site_fract_y
_atom_site_fract_z
Si Si1 0.317559 0.187934 0.450168
Si Si2 0.182958 0.381401 0.740551
Si Si3 0.182668 0.188007 0.826854
Si Si4 0.171970 0.000000 0.748176
Si Si5 0.182870 0.312019 0.651329
Si Si6 0.683443 0.064479 0.000000
Si Si7 0.182420 0.390585 0.099353
Si Si8 0.172163 0.000000 0.858442
O O1 0.265943 0.156817 0.500000
O O2 0.500000 0.193283 0.449896
O O3 0.250000 0.250000 0.450942
O O4 0.266080 0.160296 0.399852
O O5 0.262543 0.354683 0.786350
O O6 0.231191 0.445786 0.732275
O O7 0.245491 0.350028 0.693866
O O8 0.000000 0.376512 0.747286
O O9 0.250000 0.250000 0.817768
O O10 0.236407 0.164381 0.877900
O O11 0.000000 0.191756 0.826033
O O12 0.150894 0.000000 0.803465
O O13 0.000000 0.000000 0.725132
O O14 0.250000 0.250000 0.657870
O O15 0.000000 0.307511 0.654501
O O16 0.739476 0.099880 0.954449
O O17 0.500000 0.058991 0.000000
O O18 0.752041 0.000000 0.000000
O O19 0.228471 0.445800 0.128181
O O20 0.000000 0.381497 0.102231
O O21 0.000000 0.000000 0.881991
#
# Coordination Sequence:
#
# PCOD8274342 Si02
#       8
#    16  16  16   8  16   8  16   8
#     4   8  13  23  40  63  94 130 166 206 251 298
#     4  11  22  36  55  78 105 138 174 215 263 310
#     4  12  25  41  58  80 108 140 180 216 255 309
#     4  11  23  37  54  78 107 136 172 216 261 309
#     4   9  18  30  46  72 103 136 173 210 252 306
#     4   9  18  34  57  88 115 138 171 213 258 308
#     4  11  21  37  61  85 111 142 175 213 260 308
#     4  11  21  34  54  83 113 140 171 216 260 306
#
# _framework density 17.987924
#
# number of rings (size 3 to 8) (size 9 to 14) (size 15 to 20)
#    0.000    1.769    2.308    3.231    0.000    3.077 
#    0.000    2.308    0.000    0.000    0.000    0.538 
#    0.000    4.308    0.000    0.000    0.000    0.000 
#
# Total GULP energy -644336.941459 kJ/mol
# GULP energy per Si atom -12391.095028 kJ/mol
# Density = 1.794698 g / cm^3
# Si number density = 17.987924 Si / 1000 Ang^3
#
#
#
# Elastic Constant Matrix: (Units=GPa)
#
#
# Indices 1 2 3 4 5 6 
#
# 1 71.9226 26.3983 32.1541 0.0000 0.0000 0.0000
# 2 26.3983 96.2379 48.7406 0.0000 0.0000 0.0000
# 3 32.1541 48.7406 144.4884 0.0000 0.0000 0.0000
# 4 0.0000 0.0000 0.0000 12.8042 0.0000 0.0000
# 5 0.0000 0.0000 0.0000 0.0000 12.5070 0.0000
# 6 0.0000 0.0000 0.0000 0.0000 0.0000 40.3913
#
#
#
# Elastic Compliance Matrix: (Units=1/GPa)
#
#
# Indices 1 2 3 4 5 6 
#
# 1 0.016198 -0.003157 -0.002540 0.000000 0.000000 0.000000
# 2 -0.003157 0.013147 -0.003732 0.000000 0.000000 0.000000
# 3 -0.002540 -0.003732 0.008745 0.000000 0.000000 0.000000
# 4 0.000000 0.000000 0.000000 0.078099 0.000000 0.000000
# 5 0.000000 0.000000 0.000000 0.000000 0.079955 0.000000
# 6 0.000000 0.000000 0.000000 0.000000 0.000000 0.024758
#
#
# Mechanical properties :
#
#
# Convention : Reuss Voigt Hill
#
# Bulk Modulus (GPa) = 51.99595 58.58166 55.28881
# Shear Modulus (GPa) = 20.31105 26.83091 23.57098
#
# Velocity S-wave (km/s) = 3.36393 3.86632 3.62384
# Velocity P-wave (km/s) = 6.63753 7.25046 6.95075
#
# Compressibility (1/GPa) = 0.01923227
#
# Stress axis : x y z
#
# Youngs Moduli (GPa) = 61.73625 76.06194 114.34799
#
# Poissons Ratio (x) = 0.24012 0.29041
# Poissons Ratio (y) = 0.19489 0.42680
# Poissons Ratio (z) = 0.15679 0.28390
#
# Static dielectric constant tensor:
#      x y z
#    x 2.748710 0.000000 0.000000 
#    y 0.000000 3.005450 0.000000 
#    z 0.000000 0.000000 4.087660 
# 
# 
# High freq. dielectric constant tensor:
#      x y z
#    x 1.699750 0.000000 0.000000 
#    y 0.000000 1.663210 0.000000 
#    z 0.000000 0.000000 1.711980 
# 
# From -- ./inp_files/76958.got.cif
#   From: 2010.03.12/outbox.cif.g09.slc.cpg/sg65_39_cif.got.tgz:76958.got - 2010.04.10 20:52:16.
