data_PCOD8274177
_publ_section_title
;
Structure prediction by ZEFSAII (Michael W. Deem and Ramdas Pophale) SiO2 
 PCOD8274177
Probable space group: C M M M
;
_chemical_formula_sum "Si O2"
_cell_formula_units_Z 88
_cell_length_a 14.373996
_cell_length_b 26.467329
_cell_length_c 13.815868
_cell_angle_alpha 90.000000
_cell_angle_beta 90.000000
_cell_angle_gamma 90.000000
_cell_volume 5256.126522
_symmetry_space_group_name_H-M "C M M M"
_symmetry_group_IT_number 65
_symmetry_cell_setting 'orthorhombic'
loop_
_space_group_symop_operation_xyz
x,y,z
-x,-y,z
x,-y,-z
-x,y,-z
-x,-y,-z
x,y,-z
-x,y,z
x,-y,z
1/2+x,1/2+y,z
1/2-x,1/2-y,z
1/2+x,1/2-y,-z
1/2-x,1/2+y,-z
1/2-x,1/2-y,-z
1/2+x,1/2+y,-z
1/2-x,1/2+y,z
1/2+x,1/2-y,z
loop_
_atom_site_type_symbol
_atom_site_label
_atom_site_fract_x
_atom_site_fract_y
_atom_site_fract_z
Si Si1 0.109260 0.808218 0.609539
Si Si2 0.103774 0.291322 0.273263
Si Si3 0.396275 0.283036 0.109767
Si Si4 0.000000 0.559426 0.104560
Si Si5 0.797424 0.558658 0.115013
Si Si6 0.776401 0.145308 0.234846
O O1 0.146260 0.810717 0.500000
O O2 0.135478 0.753589 0.654103
O O3 0.155567 0.853433 0.672065
O O4 0.000000 0.816852 0.615168
O O5 0.103832 0.270303 0.164323
O O6 0.176394 0.336943 0.276008
O O7 0.000000 0.310942 0.301143
O O8 0.500000 0.307675 0.120187
O O9 0.316965 0.318601 0.152293
O O10 0.370584 0.271495 0.000000
O O11 0.098276 0.573881 0.154030
O O12 0.000000 0.500000 0.088579
O O13 0.000000 0.586035 0.000000
O O14 0.775501 0.500000 0.133292
O O15 0.728746 0.590491 0.183901
O O16 0.786153 0.570836 0.000000
#
# Coordination Sequence:
#
# PCOD8274177 Si02
#       6
#    16  16  16   8  16  16
#     4   9  18  34  53  71  94 123 154 191 237 288
#     4   9  19  30  41  67  99 123 151 188 229 279
#     4   9  17  29  42  59  90 126 154 184 228 282
#     4   7  12  26  44  60  85 123 161 191 222 262
#     4   9  18  31  46  67  96 129 164 199 232 269
#     4  11  19  27  48  71  91 120 159 199 234 277
#
# _framework density 16.742367000000002
#
# number of rings (size 3 to 8) (size 9 to 14) (size 15 to 20)
#    0.000    2.818    0.000    5.455    1.273    3.636 
#    0.000    0.000    0.000    2.727    0.000    7.636 
#    0.000    2.182    0.000    0.000    0.000    0.000 
#
# Total GULP energy -545089.146004 kJ/mol
# GULP energy per Si atom -12388.389682 kJ/mol
# Density = 1.670426 g / cm^3
# Si number density = 16.742367 Si / 1000 Ang^3
#
#
#
# Elastic Constant Matrix: (Units=GPa)
#
#
# Indices 1 2 3 4 5 6 
#
# 1 59.3736 26.7752 26.7308 0.0000 0.0000 0.0000
# 2 26.7752 55.9555 31.1604 0.0000 0.0000 0.0000
# 3 26.7308 31.1604 117.2253 0.0000 0.0000 0.0000
# 4 0.0000 0.0000 0.0000 16.7921 0.0000 0.0000
# 5 0.0000 0.0000 0.0000 0.0000 19.2786 0.0000
# 6 0.0000 0.0000 0.0000 0.0000 0.0000 17.2597
#
#
#
# Elastic Compliance Matrix: (Units=1/GPa)
#
#
# Indices 1 2 3 4 5 6 
#
# 1 0.022142 -0.009136 -0.002621 0.000000 0.000000 0.000000
# 2 -0.009136 0.024746 -0.004495 0.000000 0.000000 0.000000
# 3 -0.002621 -0.004495 0.010323 0.000000 0.000000 0.000000
# 4 0.000000 0.000000 0.000000 0.059552 0.000000 0.000000
# 5 0.000000 0.000000 0.000000 0.000000 0.051871 0.000000
# 6 0.000000 0.000000 0.000000 0.000000 0.000000 0.057939
#
#
# Mechanical properties :
#
#
# Convention : Reuss Voigt Hill
#
# Bulk Modulus (GPa) = 40.47137 44.65412 42.56275
# Shear Modulus (GPa) = 18.70479 20.52526 19.61503
#
# Velocity S-wave (km/s) = 3.34610 3.50515 3.42655
# Velocity P-wave (km/s) = 6.25732 6.56587 6.41345
#
# Compressibility (1/GPa) = 0.02470882
#
# Stress axis : x y z
#
# Youngs Moduli (GPa) = 45.16246 40.41068 96.87204
#
# Poissons Ratio (x) = 0.36919 0.25386
# Poissons Ratio (y) = 0.41260 0.43540
# Poissons Ratio (z) = 0.11835 0.18163
#
# Static dielectric constant tensor:
#      x y z
#    x 3.412040 0.000000 0.000000 
#    y 0.000000 2.722730 0.000000 
#    z 0.000000 0.000000 3.199230 
# 
# 
# High freq. dielectric constant tensor:
#      x y z
#    x 1.658520 0.000000 0.000000 
#    y 0.000000 1.594760 0.000000 
#    z 0.000000 0.000000 1.630130 
# 
# From -- ./inp_files/40593.got.cif
#   From: 2010.03.12/outbox.cif.g09.slc.cpg/sg65_21_cif.got.tgz:40593.got - 2010.04.10 20:52:16.
