data_PCOD8274538
_publ_section_title
;
Structure prediction by ZEFSAII (Michael W. Deem and Ramdas Pophale) SiO2 
 PCOD8274538
Probable space group: C M M M
;
_chemical_formula_sum "Si O2"
_cell_formula_units_Z 104
_cell_length_a 29.032545
_cell_length_b 8.892943
_cell_length_c 23.541728
_cell_angle_alpha 90.000000
_cell_angle_beta 90.000000
_cell_angle_gamma 90.000000
_cell_volume 6078.115578
_symmetry_space_group_name_H-M "C M M M"
_symmetry_group_IT_number 65
_symmetry_cell_setting 'orthorhombic'
loop_
_space_group_symop_operation_xyz
x,y,z
-x,-y,z
x,-y,-z
-x,y,-z
-x,-y,-z
x,y,-z
-x,y,z
x,-y,z
1/2+x,1/2+y,z
1/2-x,1/2-y,z
1/2+x,1/2-y,-z
1/2-x,1/2+y,-z
1/2-x,1/2-y,-z
1/2+x,1/2+y,-z
1/2-x,1/2+y,z
1/2+x,1/2-y,z
loop_
_atom_site_type_symbol
_atom_site_label
_atom_site_fract_x
_atom_site_fract_y
_atom_site_fract_z
Si Si1 0.700166 0.321976 0.159511
Si Si2 0.645328 0.679080 0.270255
Si Si3 0.298659 0.674590 0.500000
Si Si4 0.049696 0.821790 0.769761
Si Si5 0.551940 0.325343 0.099779
Si Si6 0.700134 0.677579 0.377565
Si Si7 0.640397 0.827841 0.064111
O O1 0.705208 0.500000 0.159405
O O2 0.750000 0.250000 0.156481
O O3 0.675047 0.264216 0.216689
O O4 0.670963 0.274726 0.104888
O O5 0.644324 0.500000 0.270342
O O6 0.592915 0.742611 0.266047
O O7 0.666943 0.742620 0.328617
O O8 0.288811 0.500000 0.500000
O O9 0.250000 0.750000 0.500000
O O10 0.322929 0.717747 0.560264
O O11 0.056826 0.776118 0.834883
O O12 0.000000 0.758253 0.747711
O O13 0.048557 0.000000 0.765235
O O14 0.500000 0.294740 0.078018
O O15 0.564656 0.500000 0.092195
O O16 0.587358 0.225746 0.064152
O O17 0.706170 0.500000 0.370187
O O18 0.750000 0.750000 0.370686
O O19 0.643317 0.000000 0.084459
O O20 0.659249 0.811223 0.000000
#
# Coordination Sequence:
#
# PCOD8274538 Si02
#       7
#    16  16   8  16  16  16  16
#     4  11  22  37  55  73  94 120 154 197 243 287
#     4   9  16  27  46  71  95 120 151 191 233 275
#     4   8  14  24  38  58  87 125 159 189 222 262
#     4   8  13  24  45  71  94 115 145 185 227 272
#     4   9  17  32  55  78  98 122 154 192 235 284
#     4   9  16  26  41  63  93 125 158 190 225 268
#     4  11  24  39  53  71  96 126 159 193 234 286
#
# _framework density 17.110567
#
# number of rings (size 3 to 8) (size 9 to 14) (size 15 to 20)
#    0.000    2.615    1.538    2.308    0.000    2.154 
#    0.000    2.308    0.000    0.000    0.000    0.538 
#    0.000    4.308    0.000    0.000    0.000   26.923 
#
# Total GULP energy -644338.267275 kJ/mol
# GULP energy per Si atom -12391.120525 kJ/mol
# Density = 1.707162 g / cm^3
# Si number density = 17.110567 Si / 1000 Ang^3
#
#
#
# Elastic Constant Matrix: (Units=GPa)
#
#
# Indices 1 2 3 4 5 6 
#
# 1 114.8609 22.5745 59.7783 0.0000 0.0000 0.0000
# 2 22.5745 34.1170 25.4970 0.0000 0.0000 0.0000
# 3 59.7783 25.4970 123.2106 0.0000 0.0000 0.0000
# 4 0.0000 0.0000 0.0000 13.3482 0.0000 0.0000
# 5 0.0000 0.0000 0.0000 0.0000 21.1232 0.0000
# 6 0.0000 0.0000 0.0000 0.0000 0.0000 21.4481
#
#
#
# Elastic Compliance Matrix: (Units=1/GPa)
#
#
# Indices 1 2 3 4 5 6 
#
# 1 0.012158 -0.004302 -0.005009 0.000000 0.000000 0.000000
# 2 -0.004302 0.036195 -0.005403 0.000000 0.000000 0.000000
# 3 -0.005009 -0.005403 0.011664 0.000000 0.000000 0.000000
# 4 0.000000 0.000000 0.000000 0.074916 0.000000 0.000000
# 5 0.000000 0.000000 0.000000 0.000000 0.047341 0.000000
# 6 0.000000 0.000000 0.000000 0.000000 0.000000 0.046624
#
#
# Mechanical properties :
#
#
# Convention : Reuss Voigt Hill
#
# Bulk Modulus (GPa) = 32.68947 54.20979 43.44963
# Shear Modulus (GPa) = 18.62032 22.13981 20.38007
#
# Velocity S-wave (km/s) = 3.30242 3.60102 3.45495
# Velocity P-wave (km/s) = 5.80410 7.00290 6.43149
#
# Compressibility (1/GPa) = 0.03059089
#
# Stress axis : x y z
#
# Youngs Moduli (GPa) = 82.24783 27.62795 85.73118
#
# Poissons Ratio (x) = 0.11885 0.42940
# Poissons Ratio (y) = 0.35381 0.46321
# Poissons Ratio (z) = 0.41195 0.14928
#
# Static dielectric constant tensor:
#      x y z
#    x 3.443410 0.000000 0.000000 
#    y 0.000000 3.237830 0.000000 
#    z 0.000000 0.000000 3.537500 
# 
# 
# High freq. dielectric constant tensor:
#      x y z
#    x 1.653240 0.000000 0.000000 
#    y 0.000000 1.633230 0.000000 
#    z 0.000000 0.000000 1.654380 
# 
# From -- ./inp_files/71819.got.cif
#   From: 2010.03.12/outbox.cif.g09.slc.cpg/sg65_36_cif.got.tgz:71819.got - 2010.04.10 20:52:16.
