data_PCOD8274424
_publ_section_title
;
Structure prediction by ZEFSAII (Michael W. Deem and Ramdas Pophale) SiO2 
 PCOD8274424
Probable space group: C M M M
;
_chemical_formula_sum "Si O2"
_cell_formula_units_Z 104
_cell_length_a 32.911682
_cell_length_b 20.398379
_cell_length_c 8.537819
_cell_angle_alpha 90.000000
_cell_angle_beta 90.000000
_cell_angle_gamma 90.000000
_cell_volume 5731.821780
_symmetry_space_group_name_H-M "C M M M"
_symmetry_group_IT_number 65
_symmetry_cell_setting 'orthorhombic'
loop_
_space_group_symop_operation_xyz
x,y,z
-x,-y,z
x,-y,-z
-x,y,-z
-x,-y,-z
x,y,-z
-x,y,z
x,-y,z
1/2+x,1/2+y,z
1/2-x,1/2-y,z
1/2+x,1/2-y,-z
1/2-x,1/2+y,-z
1/2-x,1/2-y,-z
1/2+x,1/2+y,-z
1/2-x,1/2+y,z
1/2+x,1/2-y,z
loop_
_atom_site_type_symbol
_atom_site_label
_atom_site_fract_x
_atom_site_fract_y
_atom_site_fract_z
Si Si1 0.546955 0.000000 0.327377
Si Si2 0.129663 0.192724 0.314131
Si Si3 0.955016 0.755020 0.682888
Si Si4 0.180330 0.072585 0.686465
Si Si5 0.079181 0.371575 0.818672
Si Si6 0.160694 0.329983 0.316720
Si Si7 0.728332 0.073379 0.313541
O O1 0.557473 0.061743 0.222397
O O2 0.500000 0.000000 0.359455
O O3 0.568490 0.000000 0.500000
O O4 0.133501 0.191674 0.500000
O O5 0.081804 0.196326 0.265583
O O6 0.149378 0.126641 0.242656
O O7 0.154678 0.256032 0.248373
O O8 0.950392 0.738490 0.500000
O O9 0.951086 0.687558 0.776508
O O10 0.000000 0.785437 0.718060
O O11 0.178967 0.073611 0.500000
O O12 0.225958 0.089306 0.743370
O O13 0.167563 0.000000 0.746506
O O14 0.120005 0.369798 0.717076
O O15 0.090605 0.368373 0.000000
O O16 0.167960 0.324802 0.500000
O O17 0.198506 0.370624 0.242043
O O18 0.726181 0.074566 0.500000
O O19 0.715802 0.000000 0.255654
#
# Coordination Sequence:
#
# PCOD8274424 Si02
#       7
#     8  16  16  16  16  16  16
#     4  11  23  37  51  65  85 119 159 193 231 277
#     4   8  14  24  39  61  87 117 152 188 230 279
#     4   9  17  31  49  66  87 117 152 186 225 277
#     4   8  13  22  37  61  94 122 145 184 239 282
#     4  11  22  33  46  67  93 118 150 193 236 273
#     4   9  17  29  44  63  88 120 157 191 229 274
#     4   8  14  23  37  60  87 118 155 192 230 271
#
# _framework density 18.144317000000001
#
# number of rings (size 3 to 8) (size 9 to 14) (size 15 to 20)
#    0.000    3.000    0.000    3.923    1.077    3.385 
#    0.000    3.077    0.000    0.462    0.000   11.846 
#    0.000   14.769    0.000    5.538    0.000    6.154 
#
# Total GULP energy -644290.056723 kJ/mol
# GULP energy per Si atom -12390.193399 kJ/mol
# Density = 1.810302 g / cm^3
# Si number density = 18.144317 Si / 1000 Ang^3
#
#
#
# Elastic Constant Matrix: (Units=GPa)
#
#
# Indices 1 2 3 4 5 6 
#
# 1 138.6231 95.9944 2.6552 0.0000 0.0000 0.0000
# 2 95.9944 133.9285 9.1032 0.0000 0.0000 0.0000
# 3 2.6552 9.1032 9.7931 0.0000 0.0000 0.0000
# 4 0.0000 0.0000 0.0000 6.4481 0.0000 0.0000
# 5 0.0000 0.0000 0.0000 0.0000 3.0379 0.0000
# 6 0.0000 0.0000 0.0000 0.0000 0.0000 20.1123
#
#
#
# Elastic Compliance Matrix: (Units=1/GPa)
#
#
# Indices 1 2 3 4 5 6 
#
# 1 0.014666 -0.010932 0.006186 0.000000 0.000000 0.000000
# 2 -0.010932 0.016119 -0.012020 0.000000 0.000000 0.000000
# 3 0.006186 -0.012020 0.111608 0.000000 0.000000 0.000000
# 4 0.000000 0.000000 0.000000 0.155085 0.000000 0.000000
# 5 0.000000 0.000000 0.000000 0.000000 0.329178 0.000000
# 6 0.000000 0.000000 0.000000 0.000000 0.000000 0.049721
#
#
# Mechanical properties :
#
#
# Convention : Reuss Voigt Hill
#
# Bulk Modulus (GPa) = 9.18603 55.31671 32.25137
# Shear Modulus (GPa) = 6.70065 17.55913 12.12989
#
# Velocity S-wave (km/s) = 1.92380 3.11424 2.58839
# Velocity P-wave (km/s) = 3.16361 6.59428 5.17170
#
# Compressibility (1/GPa) = 0.10886096
#
# Stress axis : x y z
#
# Youngs Moduli (GPa) = 68.18628 62.03701 8.95991
#
# Poissons Ratio (x) = 0.67820 -0.05542
# Poissons Ratio (y) = 0.74543 0.10770
# Poissons Ratio (z) = -0.42178 0.74567
#
# Static dielectric constant tensor:
#      x y z
#    x 3.576720 0.000000 0.000000 
#    y 0.000000 3.639610 0.000000 
#    z 0.000000 0.000000 2.832710 
# 
# 
# High freq. dielectric constant tensor:
#      x y z
#    x 1.703930 0.000000 0.000000 
#    y 0.000000 1.691060 0.000000 
#    z 0.000000 0.000000 1.651470 
# 
# From -- ./inp_files/18700.got.cif
#   From: 2010.03.12/outbox.cif.g09.slc.cpg/sg65_10_cif.got.tgz:18700.got - 2010.04.10 20:52:16.
