data_PCOD8274994
_publ_section_title
;
Structure prediction by ZEFSAII (Michael W. Deem and Ramdas Pophale) SiO2 
 PCOD8274994
Probable space group: C M M M
;
_chemical_formula_sum "Si O2"
_cell_formula_units_Z 80
_cell_length_a 19.564622
_cell_length_b 9.469620
_cell_length_c 25.573230
_cell_angle_alpha 90.000000
_cell_angle_beta 90.000000
_cell_angle_gamma 90.000000
_cell_volume 4737.940451
_symmetry_space_group_name_H-M "C M M M"
_symmetry_group_IT_number 65
_symmetry_cell_setting 'orthorhombic'
loop_
_space_group_symop_operation_xyz
x,y,z
-x,-y,z
x,-y,-z
-x,y,-z
-x,-y,-z
x,y,-z
-x,y,z
x,-y,z
1/2+x,1/2+y,z
1/2-x,1/2-y,z
1/2+x,1/2-y,-z
1/2-x,1/2+y,-z
1/2-x,1/2-y,-z
1/2+x,1/2+y,-z
1/2-x,1/2+y,z
1/2+x,1/2-y,z
loop_
_atom_site_type_symbol
_atom_site_label
_atom_site_fract_x
_atom_site_fract_y
_atom_site_fract_z
Si Si1 0.075459 0.832195 0.710530
Si Si2 0.918555 0.842443 0.404331
Si Si3 0.576708 0.333011 0.000000
Si Si4 0.682297 0.335586 0.913628
Si Si5 0.316895 0.664620 0.205898
Si Si6 0.918372 0.658942 0.500000
O O1 0.104161 0.787436 0.653246
O O2 0.123899 0.775895 0.756524
O O3 0.000000 0.767435 0.719904
O O4 0.070661 0.000000 0.712186
O O5 0.889673 0.737402 0.448470
O O6 0.000000 0.847414 0.405866
O O7 0.889912 0.000000 0.415309
O O8 0.618623 0.283580 0.948729
O O9 0.569533 0.500000 0.000000
O O10 0.500000 0.266176 0.000000
O O11 0.698356 0.500000 0.923551
O O12 0.750000 0.250000 0.929466
O O13 0.661201 0.306443 0.853801
O O14 0.302508 0.500000 0.215550
O O15 0.250000 0.750000 0.221034
O O16 0.889949 0.500000 0.500000
O O17 0.000000 0.660608 0.500000
#
# Coordination Sequence:
#
# PCOD8274994 Si02
#       6
#    16  16   8  16  16   8
#     4   8  14  25  42  63  84 107 140 180 215 250
#     4   8  13  22  36  53  74 102 135 169 205 245
#     4   9  17  28  43  67  94 115 142 182 222 255
#     4   9  17  29  46  65  86 115 147 179 214 254
#     4   9  17  29  45  65  87 112 144 179 215 255
#     4   9  15  21  31  51  80 109 134 163 201 247
#
# _framework density 16.884974
#
# number of rings (size 3 to 8) (size 9 to 14) (size 15 to 20)
#    0.000    3.400    0.000    1.800    0.000    2.000 
#    0.000    5.000    0.000    3.000    0.000    6.300 
#    0.000    0.000    0.000    0.000    0.000    0.000 
#
# Total GULP energy -495765.287292 kJ/mol
# GULP energy per Si atom -12394.132182 kJ/mol
# Density = 1.684654 g / cm^3
# Si number density = 16.884974 Si / 1000 Ang^3
#
#
#
# Elastic Constant Matrix: (Units=GPa)
#
#
# Indices 1 2 3 4 5 6 
#
# 1 94.1949 33.8241 79.6471 0.0000 0.0000 0.0000
# 2 33.8241 52.2731 45.6341 0.0000 0.0000 0.0000
# 3 79.6471 45.6341 148.3596 0.0000 0.0000 0.0000
# 4 0.0000 0.0000 0.0000 14.7791 0.0000 0.0000
# 5 0.0000 0.0000 0.0000 0.0000 10.0365 0.0000
# 6 0.0000 0.0000 0.0000 0.0000 0.0000 16.6818
#
#
#
# Elastic Compliance Matrix: (Units=1/GPa)
#
#
# Indices 1 2 3 4 5 6 
#
# 1 0.020341 -0.004961 -0.009394 0.000000 0.000000 0.000000
# 2 -0.004961 0.027363 -0.005753 0.000000 0.000000 0.000000
# 3 -0.009394 -0.005753 0.013553 0.000000 0.000000 0.000000
# 4 0.000000 0.000000 0.000000 0.067663 0.000000 0.000000
# 5 0.000000 0.000000 0.000000 0.000000 0.099636 0.000000
# 6 0.000000 0.000000 0.000000 0.000000 0.000000 0.059945
#
#
# Mechanical properties :
#
#
# Convention : Reuss Voigt Hill
#
# Bulk Modulus (GPa) = 47.52748 68.11538 57.82143
# Shear Modulus (GPa) = 14.89283 17.34764 16.12024
#
# Velocity S-wave (km/s) = 2.97310 3.20879 3.09319
# Velocity P-wave (km/s) = 6.32413 7.35913 6.86118
#
# Compressibility (1/GPa) = 0.02104046
#
# Stress axis : x y z
#
# Youngs Moduli (GPa) = 49.16191 36.54580 73.78264
#
# Poissons Ratio (x) = 0.18130 0.69313
# Poissons Ratio (y) = 0.24389 0.42450
# Poissons Ratio (z) = 0.46183 0.21026
#
# Static dielectric constant tensor:
#      x y z
#    x 3.051370 0.000000 0.000000 
#    y 0.000000 2.956980 0.000000 
#    z 0.000000 0.000000 3.505430 
# 
# 
# High freq. dielectric constant tensor:
#      x y z
#    x 1.610970 0.000000 0.000000 
#    y 0.000000 1.618000 0.000000 
#    z 0.000000 0.000000 1.668660 
# 
# From -- ./inp_files/75096.got.cif
#   From: 2010.03.12/outbox.cif.g09.slc.cpg/sg65_38_cif.got.tgz:75096.got - 2010.04.10 20:52:16.
