data_PCOD8274926
_publ_section_title
;
Structure prediction by ZEFSAII (Michael W. Deem and Ramdas Pophale) SiO2 
 PCOD8274926
Probable space group: C M M M
;
_chemical_formula_sum "Si O2"
_cell_formula_units_Z 80
_cell_length_a 10.074958
_cell_length_b 30.620627
_cell_length_c 20.457100
_cell_angle_alpha 90.000000
_cell_angle_beta 90.000000
_cell_angle_gamma 90.000000
_cell_volume 6311.046669
_symmetry_space_group_name_H-M "C M M M"
_symmetry_group_IT_number 65
_symmetry_cell_setting 'orthorhombic'
loop_
_space_group_symop_operation_xyz
x,y,z
-x,-y,z
x,-y,-z
-x,y,-z
-x,-y,-z
x,y,-z
-x,y,z
x,-y,z
1/2+x,1/2+y,z
1/2-x,1/2-y,z
1/2+x,1/2-y,-z
1/2-x,1/2+y,-z
1/2-x,1/2-y,-z
1/2+x,1/2+y,-z
1/2-x,1/2+y,z
1/2+x,1/2-y,z
loop_
_atom_site_type_symbol
_atom_site_label
_atom_site_fract_x
_atom_site_fract_y
_atom_site_fract_z
Si Si1 0.352212 0.551927 0.178686
Si Si2 0.148381 0.448051 0.073029
Si Si3 0.158025 0.048662 0.323835
Si Si4 0.147875 0.785336 0.577694
Si Si5 0.342055 0.382425 0.572802
O O1 0.500000 0.570914 0.165799
O O2 0.357766 0.500000 0.173381
O O3 0.251837 0.572111 0.125116
O O4 0.300744 0.564603 0.251207
O O5 0.151038 0.500000 0.076772
O O6 0.000000 0.431309 0.089677
O O7 0.189162 0.432842 0.000000
O O8 0.218287 0.082088 0.377064
O O9 0.000000 0.047498 0.327793
O O10 0.214022 0.000000 0.338299
O O11 0.142159 0.781582 0.500000
O O12 0.250000 0.750000 0.607621
O O13 0.198596 0.833870 0.596619
O O14 0.000000 0.776588 0.606125
O O15 0.285732 0.392039 0.500000
O O16 0.500000 0.385338 0.570912
#
# Coordination Sequence:
#
# PCOD8274926 Si02
#       5
#    16  16  16  16  16
#     4   8  13  20  29  41  57  77 100 125 153 184
#     4   8  13  20  29  41  56  73  95 125 157 184
#     4   8  13  20  29  42  61  84 109 136 163 189
#     4   8  13  21  33  48  64  80  98 123 157 195
#     4   8  13  20  30  45  63  82 106 135 164 193
#
# _framework density 12.676186
#
# number of rings (size 3 to 8) (size 9 to 14) (size 15 to 20)
#    0.000    4.000    0.000    3.000    0.000    0.800 
#    0.000    4.000    0.000    1.200    0.000    0.000 
#    0.000    0.000    0.000   15.600    0.000   17.000 
#
# Total GULP energy -495540.994969 kJ/mol
# GULP energy per Si atom -12388.524874 kJ/mol
# Density = 1.264733 g / cm^3
# Si number density = 12.676186 Si / 1000 Ang^3
#
#
#
# Elastic Constant Matrix: (Units=GPa)
#
#
# Indices 1 2 3 4 5 6 
#
# 1 45.7772 27.8501 40.5250 0.0000 0.0000 0.0000
# 2 27.8501 57.6396 42.8562 0.0000 0.0000 0.0000
# 3 40.5250 42.8562 88.6765 0.0000 0.0000 0.0000
# 4 0.0000 0.0000 0.0000 1.1435 0.0000 0.0000
# 5 0.0000 0.0000 0.0000 0.0000 8.0666 0.0000
# 6 0.0000 0.0000 0.0000 0.0000 0.0000 9.3914
#
#
#
# Elastic Compliance Matrix: (Units=1/GPa)
#
#
# Indices 1 2 3 4 5 6 
#
# 1 0.039358 -0.008809 -0.013729 0.000000 0.000000 0.000000
# 2 -0.008809 0.029051 -0.010015 0.000000 0.000000 0.000000
# 3 -0.013729 -0.010015 0.022391 0.000000 0.000000 0.000000
# 4 0.000000 0.000000 0.000000 0.874478 0.000000 0.000000
# 5 0.000000 0.000000 0.000000 0.000000 0.123968 0.000000
# 6 0.000000 0.000000 0.000000 0.000000 0.000000 0.106481
#
#
# Mechanical properties :
#
#
# Convention : Reuss Voigt Hill
#
# Bulk Modulus (GPa) = 38.91783 46.06177 42.48980
# Shear Modulus (GPa) = 3.93887 9.11111 6.52499
#
# Velocity S-wave (km/s) = 1.76467 2.68387 2.27126
# Velocity P-wave (km/s) = 5.90933 6.78383 6.36163
#
# Compressibility (1/GPa) = 0.02569517
#
# Stress axis : x y z
#
# Youngs Moduli (GPa) = 25.40760 34.42169 44.66042
#
# Poissons Ratio (x) = 0.30322 0.61316
# Poissons Ratio (y) = 0.22381 0.44725
# Poissons Ratio (z) = 0.34883 0.34472
#
# Static dielectric constant tensor:
#      x y z
#    x 2.567780 0.000000 0.000000 
#    y 0.000000 2.458110 0.000000 
#    z 0.000000 0.000000 2.725640 
# 
# 
# High freq. dielectric constant tensor:
#      x y z
#    x 1.454410 0.000000 0.000000 
#    y 0.000000 1.436230 0.000000 
#    z 0.000000 0.000000 1.467910 
# 
# From -- ./inp_files/52021.got.cif
#   From: 2010.03.12/outbox.cif.g09.slc.cpg/sg65_27_cif.got.tgz:52021.got - 2010.04.10 20:52:16.
