data_PCOD8274278
_publ_section_title
;
Structure prediction by ZEFSAII (Michael W. Deem and Ramdas Pophale) SiO2 
 PCOD8274278
Probable space group: C M M M
;
_chemical_formula_sum "Si O2"
_cell_formula_units_Z 80
_cell_length_a 8.811280
_cell_length_b 27.810721
_cell_length_c 18.978439
_cell_angle_alpha 90.000000
_cell_angle_beta 90.000000
_cell_angle_gamma 90.000000
_cell_volume 4650.629464
_symmetry_space_group_name_H-M "C M M M"
_symmetry_group_IT_number 65
_symmetry_cell_setting 'orthorhombic'
loop_
_space_group_symop_operation_xyz
x,y,z
-x,-y,z
x,-y,-z
-x,y,-z
-x,-y,-z
x,y,-z
-x,y,z
x,-y,z
1/2+x,1/2+y,z
1/2-x,1/2-y,z
1/2+x,1/2-y,-z
1/2-x,1/2+y,-z
1/2-x,1/2-y,-z
1/2+x,1/2+y,-z
1/2-x,1/2+y,z
1/2+x,1/2-y,z
loop_
_atom_site_type_symbol
_atom_site_label
_atom_site_fract_x
_atom_site_fract_y
_atom_site_fract_z
Si Si1 0.821693 0.699813 0.921621
Si Si2 0.320627 0.854565 0.786178
Si Si3 0.320822 0.300714 0.658929
Si Si4 0.176623 0.384909 0.579673
Si Si5 0.321261 0.052677 0.290895
O O1 0.750000 0.750000 0.897498
O O2 0.774747 0.658103 0.866514
O O3 0.000000 0.707528 0.921231
O O4 0.764850 0.684899 0.000000
O O5 0.500000 0.849785 0.773524
O O6 0.240040 0.816966 0.734961
O O7 0.265476 0.908946 0.768150
O O8 0.500000 0.296212 0.662325
O O9 0.250000 0.250000 0.638018
O O10 0.273311 0.337947 0.598219
O O11 0.211796 0.401135 0.500000
O O12 0.224487 0.428380 0.631440
O O13 0.000000 0.372137 0.590459
O O14 0.500000 0.047152 0.285534
O O15 0.245855 0.000000 0.278371
#
# Coordination Sequence:
#
# PCOD8274278 Si02
#       5
#    16  16  16  16  16
#     4   9  17  28  43  65  93 123 152 183 221 264
#     4   9  17  30  47  67  92 120 152 189 225 264
#     4  11  21  32  47  66  90 120 153 186 223 268
#     4   9  18  32  48  67  91 117 148 186 226 269
#     4   8  14  26  46  70  91 114 148 187 225 265
#
# _framework density 17.201972999999999
#
# number of rings (size 3 to 8) (size 9 to 14) (size 15 to 20)
#    0.000    2.800    0.000    3.600    0.000    3.600 
#    0.000    2.000    0.000   10.200    0.000    9.800 
#    0.000    0.000    0.000   12.200    0.000   13.200 
#
# Total GULP energy -495811.479038 kJ/mol
# GULP energy per Si atom -12395.286976 kJ/mol
# Density = 1.716282 g / cm^3
# Si number density = 17.201973 Si / 1000 Ang^3
#
#
#
# Elastic Constant Matrix: (Units=GPa)
#
#
# Indices 1 2 3 4 5 6 
#
# 1 45.6214 23.7825 20.6740 0.0000 0.0000 0.0000
# 2 23.7825 138.4294 71.3039 0.0000 0.0000 0.0000
# 3 20.6740 71.3039 133.4985 0.0000 0.0000 0.0000
# 4 0.0000 0.0000 0.0000 17.3000 0.0000 0.0000
# 5 0.0000 0.0000 0.0000 0.0000 18.3345 0.0000
# 6 0.0000 0.0000 0.0000 0.0000 0.0000 16.5787
#
#
#
# Elastic Compliance Matrix: (Units=1/GPa)
#
#
# Indices 1 2 3 4 5 6 
#
# 1 0.024508 -0.003112 -0.002133 0.000000 0.000000 0.000000
# 2 -0.003112 0.010361 -0.005052 0.000000 0.000000 0.000000
# 3 -0.002133 -0.005052 0.010519 0.000000 0.000000 0.000000
# 4 0.000000 0.000000 0.000000 0.057803 0.000000 0.000000
# 5 0.000000 0.000000 0.000000 0.000000 0.054542 0.000000
# 6 0.000000 0.000000 0.000000 0.000000 0.000000 0.060318
#
#
# Mechanical properties :
#
#
# Convention : Reuss Voigt Hill
#
# Bulk Modulus (GPa) = 40.33162 61.00779 50.66970
# Shear Modulus (GPa) = 20.25020 23.89524 22.07272
#
# Velocity S-wave (km/s) = 3.43476 3.73111 3.58600
# Velocity P-wave (km/s) = 6.26314 7.35555 6.83122
#
# Compressibility (1/GPa) = 0.02479444
#
# Stress axis : x y z
#
# Youngs Moduli (GPa) = 40.80224 96.51835 95.06190
#
# Poissons Ratio (x) = 0.30033 0.20281
# Poissons Ratio (y) = 0.12696 0.48025
# Poissons Ratio (z) = 0.08705 0.48761
#
# Static dielectric constant tensor:
#      x y z
#    x 2.987630 0.000000 0.000000 
#    y 0.000000 3.535170 0.000000 
#    z 0.000000 0.000000 3.400240 
# 
# 
# High freq. dielectric constant tensor:
#      x y z
#    x 1.640100 0.000000 0.000000 
#    y 0.000000 1.655550 0.000000 
#    z 0.000000 0.000000 1.660680 
# 
# From -- ./inp_files/49871.got.cif
#   From: 2010.03.12/outbox.cif.g09.slc.cpg/sg65_25_cif.got.tgz:49871.got - 2010.04.10 20:52:16.
