data_PCOD8274050
_publ_section_title
;
Structure prediction by ZEFSAII (Michael W. Deem and Ramdas Pophale) SiO2 
 PCOD8274050
Probable space group: C M M M
;
_chemical_formula_sum "Si O2"
_cell_formula_units_Z 112
_cell_length_a 13.944522
_cell_length_b 24.119465
_cell_length_c 17.555598
_cell_angle_alpha 90.000000
_cell_angle_beta 90.000000
_cell_angle_gamma 90.000000
_cell_volume 5904.551701
_symmetry_space_group_name_H-M "C M M M"
_symmetry_group_IT_number 65
_symmetry_cell_setting 'orthorhombic'
loop_
_space_group_symop_operation_xyz
x,y,z
-x,-y,z
x,-y,-z
-x,y,-z
-x,-y,-z
x,y,-z
-x,y,z
x,-y,z
1/2+x,1/2+y,z
1/2-x,1/2-y,z
1/2+x,1/2-y,-z
1/2-x,1/2+y,-z
1/2-x,1/2-y,-z
1/2+x,1/2+y,-z
1/2-x,1/2+y,z
1/2+x,1/2-y,z
loop_
_atom_site_type_symbol
_atom_site_label
_atom_site_fract_x
_atom_site_fract_y
_atom_site_fract_z
Si Si1 0.612568 0.938955 0.084172
Si Si2 0.604940 0.643799 0.914513
Si Si3 0.108172 0.937159 0.590024
Si Si4 0.889617 0.262152 0.588010
Si Si5 0.106450 0.274402 0.085501
Si Si6 0.769082 0.163744 0.647625
Si Si7 0.279685 0.855568 0.820637
O O1 0.500000 0.943505 0.087123
O O2 0.642936 0.901285 0.155475
O O3 0.657701 0.000000 0.095076
O O4 0.643620 0.915557 0.000000
O O5 0.500000 0.619478 0.894848
O O6 0.602728 0.709320 0.905692
O O7 0.680194 0.620484 0.854228
O O8 0.634201 0.626494 0.000000
O O9 0.110765 0.933300 0.500000
O O10 0.187032 0.894637 0.621583
O O11 0.000000 0.922057 0.618237
O O12 0.134184 0.000000 0.616200
O O13 0.882624 0.243578 0.500000
O O14 0.849684 0.211867 0.640199
O O15 0.824941 0.317346 0.599661
O O16 0.000000 0.274457 0.610849
O O17 0.186842 0.297855 0.141867
O O18 0.000000 0.298700 0.103634
O O19 0.136317 0.291351 0.000000
O O20 0.730938 0.155232 0.732215
#
# Coordination Sequence:
#
# PCOD8274050 Si02
#       7
#    16  16  16  16  16  16  16
#     4   9  19  37  59  79 100 135 187 237 273 314
#     4   9  19  33  47  66  97 139 182 217 250 300
#     4   9  18  36  64  90 109 136 177 226 278 331
#     4  10  22  41  61  78 106 152 197 230 263 322
#     4   9  18  32  50  71  98 136 180 222 258 300
#     4  11  23  34  53  87 118 144 178 226 285 336
#     4  12  22  30  49  78 107 140 169 212 280 329
#
# _framework density 18.968416999999999
#
# number of rings (size 3 to 8) (size 9 to 14) (size 15 to 20)
#    0.000    2.143    0.000    6.000    4.000    6.286 
#    0.000    0.000    0.000    0.857    0.000    4.000 
#    0.000    0.000    0.000    0.000    0.000    0.000 
#
# Total GULP energy -694003.271277 kJ/mol
# GULP energy per Si atom -12392.915559 kJ/mol
# Density = 1.892524 g / cm^3
# Si number density = 18.968417 Si / 1000 Ang^3
#
#
#
# Elastic Constant Matrix: (Units=GPa)
#
#
# Indices 1 2 3 4 5 6 
#
# 1 107.3564 34.5867 33.5133 0.0000 0.0000 0.0000
# 2 34.5867 80.1101 29.3261 0.0000 0.0000 0.0000
# 3 33.5133 29.3261 92.0221 0.0000 0.0000 0.0000
# 4 0.0000 0.0000 0.0000 7.9341 0.0000 0.0000
# 5 0.0000 0.0000 0.0000 0.0000 -39.7364 0.0000
# 6 0.0000 0.0000 0.0000 0.0000 0.0000 26.4212
#
#
#
# Elastic Compliance Matrix: (Units=1/GPa)
#
#
# Indices 1 2 3 4 5 6 
#
# 1 0.011484 -0.003880 -0.002946 0.000000 0.000000 0.000000
# 2 -0.003880 0.015442 -0.003508 0.000000 0.000000 0.000000
# 3 -0.002946 -0.003508 0.013058 0.000000 0.000000 0.000000
# 4 0.000000 0.000000 0.000000 0.126038 0.000000 0.000000
# 5 0.000000 0.000000 0.000000 0.000000 -0.025166 0.000000
# 6 0.000000 0.000000 0.000000 0.000000 0.000000 0.037848
#
#
# Mechanical properties :
#
#
# Convention : Reuss Voigt Hill
#
# Bulk Modulus (GPa) = 51.76971 52.70453 52.23712
# Shear Modulus (GPa) = 24.29403 11.06127 17.67765
#
# Velocity S-wave (km/s) = 3.58266 2.41745 3.05610
# Velocity P-wave (km/s) = 6.66826 5.96974 6.32865
#
# Compressibility (1/GPa) = 0.01931631
#
# Stress axis : x y z
#
# Youngs Moduli (GPa) = 87.07490 64.75790 76.58212
#
# Poissons Ratio (x) = 0.25125 0.22561
# Poissons Ratio (y) = 0.33783 0.26867
# Poissons Ratio (z) = 0.25653 0.22718
#
# Static dielectric constant tensor:
#      x y z
#    x 4.146030 0.000000 0.000000 
#    y 0.000000 3.454260 0.000000 
#    z 0.000000 0.000000 3.343110 
# 
# 
# High freq. dielectric constant tensor:
#      x y z
#    x 1.747230 0.000000 0.000000 
#    y 0.000000 1.717970 0.000000 
#    z 0.000000 0.000000 1.716340 
# 
# From -- ./inp_files/41110.got.cif
#   From: 2010.03.12/outbox.cif.g09.slc.cpg/sg65_21_cif.got.tgz:41110.got - 2010.04.10 20:52:16.
