data_PCOD8274440
_publ_section_title
;
Structure prediction by ZEFSAII (Michael W. Deem and Ramdas Pophale) SiO2 
 PCOD8274440
Probable space group: C M M M
;
_chemical_formula_sum "Si O2"
_cell_formula_units_Z 88
_cell_length_a 18.604129
_cell_length_b 9.175232
_cell_length_c 28.419304
_cell_angle_alpha 90.000000
_cell_angle_beta 90.000000
_cell_angle_gamma 90.000000
_cell_volume 4851.095611
_symmetry_space_group_name_H-M "C M M M"
_symmetry_group_IT_number 65
_symmetry_cell_setting 'orthorhombic'
loop_
_space_group_symop_operation_xyz
x,y,z
-x,-y,z
x,-y,-z
-x,y,-z
-x,-y,-z
x,y,-z
-x,y,z
x,-y,z
1/2+x,1/2+y,z
1/2-x,1/2-y,z
1/2+x,1/2-y,-z
1/2-x,1/2+y,-z
1/2-x,1/2-y,-z
1/2+x,1/2+y,-z
1/2-x,1/2+y,z
1/2+x,1/2-y,z
loop_
_atom_site_type_symbol
_atom_site_label
_atom_site_fract_x
_atom_site_fract_y
_atom_site_fract_z
Si Si1 0.585699 0.164178 0.500000
Si Si2 0.414629 0.161288 0.321327
Si Si3 0.919780 0.172936 0.052125
Si Si4 0.084118 0.668959 0.784129
Si Si5 0.085805 0.836662 0.409558
Si Si6 0.673976 0.673604 0.138545
O O1 0.500000 0.165428 0.500000
O O2 0.615352 0.244813 0.453649
O O3 0.615370 0.000000 0.500000
O O4 0.500000 0.156503 0.323858
O O5 0.391793 0.210415 0.268971
O O6 0.383716 0.270038 0.360826
O O7 0.384317 0.000000 0.331999
O O8 0.864300 0.231343 0.090912
O O9 0.000000 0.233103 0.063023
O O10 0.921956 0.000000 0.053833
O O11 0.895262 0.225564 0.000000
O O12 0.102642 0.500000 0.794781
O O13 0.126586 0.777866 0.817480
O O14 0.000000 0.697321 0.791465
O O15 0.000000 0.834975 0.409374
O O16 0.115447 0.000000 0.414115
O O17 0.682966 0.500000 0.139275
O O18 0.750000 0.750000 0.141659
#
# Coordination Sequence:
#
# PCOD8274440 Si02
#       6
#     8  16  16  16  16  16
#     4   9  15  21  29  41  63 101 144 181 222 277
#     4   8  14  25  40  57  78 107 143 182 228 282
#     4   8  15  30  52  76 100 127 162 203 244 287
#     4   9  18  33  52  72  95 124 159 202 249 295
#     4   9  15  21  30  47  72 101 137 183 229 272
#     4  11  22  34  50  73 101 133 167 202 243 291
#
# _framework density 18.140232000000001
#
# number of rings (size 3 to 8) (size 9 to 14) (size 15 to 20)
#    0.000    3.000    0.000    3.545    0.000    5.455 
#    0.000    1.818    0.000    1.636    0.000    6.364 
#    0.000    0.000    0.000    0.818    0.000   11.818 
#
# Total GULP energy -545387.354430 kJ/mol
# GULP energy per Si atom -12395.167146 kJ/mol
# Density = 1.809894 g / cm^3
# Si number density = 18.140232 Si / 1000 Ang^3
#
#
#
# Elastic Constant Matrix: (Units=GPa)
#
#
# Indices 1 2 3 4 5 6 
#
# 1 45.2375 31.5262 42.2520 0.0000 0.0000 0.0000
# 2 31.5262 107.9114 76.5507 0.0000 0.0000 0.0000
# 3 42.2520 76.5507 164.2455 0.0000 0.0000 0.0000
# 4 0.0000 0.0000 0.0000 26.4847 0.0000 0.0000
# 5 0.0000 0.0000 0.0000 0.0000 -0.1453 0.0000
# 6 0.0000 0.0000 0.0000 0.0000 0.0000 10.8044
#
#
#
# Elastic Compliance Matrix: (Units=1/GPa)
#
#
# Indices 1 2 3 4 5 6 
#
# 1 0.030836 -0.005052 -0.005578 0.000000 0.000000 0.000000
# 2 -0.005052 0.014672 -0.005539 0.000000 0.000000 0.000000
# 3 -0.005578 -0.005539 0.010105 0.000000 0.000000 0.000000
# 4 0.000000 0.000000 0.000000 0.037758 0.000000 0.000000
# 5 0.000000 0.000000 0.000000 0.000000 -6.883487 0.000000
# 6 0.000000 0.000000 0.000000 0.000000 0.000000 0.092555
#
#
# Mechanical properties :
#
#
# Convention : Reuss Voigt Hill
#
# Bulk Modulus (GPa) = 42.96301 68.67247 55.81774
# Shear Modulus (GPa) = -0.75104 18.56646 8.90771
#
# Velocity S-wave (km/s) = -0.64414 3.20268 2.21836
# Velocity P-wave (km/s) = 4.81477 7.18435 6.11543
#
# Compressibility (1/GPa) = 0.02327584
#
# Stress axis : x y z
#
# Youngs Moduli (GPa) = 32.42958 68.15855 98.96307
#
# Poissons Ratio (x) = 0.34432 0.55202
# Poissons Ratio (y) = 0.16382 0.54811
# Poissons Ratio (z) = 0.18089 0.37750
#
# Static dielectric constant tensor:
#      x y z
#    x 2.855030 0.000000 0.000000 
#    y 0.000000 3.313230 0.000000 
#    z 0.000000 0.000000 3.719430 
# 
# 
# High freq. dielectric constant tensor:
#      x y z
#    x 1.642300 0.000000 0.000000 
#    y 0.000000 1.691770 0.000000 
#    z 0.000000 0.000000 1.722800 
# 
# From -- ./inp_files/75380.got.cif
#   From: 2010.03.12/outbox.cif.g09.slc.cpg/sg65_38_cif.got.tgz:75380.got - 2010.04.10 20:52:16.
