data_PCOD8274909
_publ_section_title
;
Structure prediction by ZEFSAII (Michael W. Deem and Ramdas Pophale) SiO2 
 PCOD8274909
Probable space group: C M M M
;
_chemical_formula_sum "Si O2"
_cell_formula_units_Z 96
_cell_length_a 9.627752
_cell_length_b 29.693516
_cell_length_c 25.749740
_cell_angle_alpha 90.000000
_cell_angle_beta 90.000000
_cell_angle_gamma 90.000000
_cell_volume 7361.382228
_symmetry_space_group_name_H-M "C M M M"
_symmetry_group_IT_number 65
_symmetry_cell_setting 'orthorhombic'
loop_
_space_group_symop_operation_xyz
x,y,z
-x,-y,z
x,-y,-z
-x,y,-z
-x,-y,-z
x,y,-z
-x,y,z
x,-y,z
1/2+x,1/2+y,z
1/2-x,1/2-y,z
1/2+x,1/2-y,-z
1/2-x,1/2+y,-z
1/2-x,1/2-y,-z
1/2+x,1/2+y,-z
1/2-x,1/2+y,z
1/2+x,1/2-y,z
loop_
_atom_site_type_symbol
_atom_site_label
_atom_site_fract_x
_atom_site_fract_y
_atom_site_fract_z
Si Si1 0.340500 0.875553 0.940130
Si Si2 0.155925 0.946392 0.648211
Si Si3 0.844023 0.946487 0.762650
Si Si4 0.344294 0.053567 0.442797
Si Si5 0.160158 0.448607 0.856187
Si Si6 0.841628 0.208745 0.061683
O O1 0.500000 0.859500 0.931954
O O2 0.306705 0.920171 0.907526
O O3 0.236282 0.836731 0.920948
O O4 0.313729 0.887870 0.000000
O O5 0.206589 0.930160 0.705434
O O6 0.250606 0.925039 0.602828
O O7 0.000000 0.929316 0.638492
O O8 0.161096 0.000000 0.645672
O O9 0.744021 0.927643 0.807546
O O10 0.000000 0.929043 0.773231
O O11 0.840807 0.000000 0.763638
O O12 0.289251 0.068314 0.500000
O O13 0.500000 0.071626 0.434709
O O14 0.342668 0.000000 0.439115
O O15 0.204497 0.500000 0.868120
O O16 0.000000 0.445689 0.840525
O O17 0.750000 0.250000 0.084147
O O18 0.000000 0.209815 0.083691
O O19 0.846522 0.212046 0.000000
#
# Coordination Sequence:
#
# PCOD8274909 Si02
#       6
#    16  16  16  16  16  16
#     4   9  17  28  40  54  73  94 114 138 169 205
#     4   8  13  20  29  40  52  68  93 123 155 192
#     4   8  14  24  35  45  58  77 102 134 170 202
#     4   8  13  19  25  35  52  71  89 112 147 190
#     4   9  17  27  38  52  68  88 116 146 174 205
#     4   9  16  26  41  59  76  92 110 132 160 197
#
# _framework density 13.041029
#
# number of rings (size 3 to 8) (size 9 to 14) (size 15 to 20)
#    0.000    3.500    0.000    2.000    0.000    4.000 
#    0.000    6.667    0.000    0.000    0.000    4.667 
#    0.000    0.000    0.000    0.000    0.000    0.000 
#
# Total GULP energy -594780.505469 kJ/mol
# GULP energy per Si atom -12391.260531 kJ/mol
# Density = 1.301135 g / cm^3
# Si number density = 13.041029 Si / 1000 Ang^3
#
#
#
# Elastic Constant Matrix: (Units=GPa)
#
#
# Indices 1 2 3 4 5 6 
#
# 1 79.2158 31.8731 53.8473 0.0000 0.0000 0.0000
# 2 31.8731 37.7616 29.9148 0.0000 0.0000 0.0000
# 3 53.8473 29.9148 92.7226 0.0000 0.0000 0.0000
# 4 0.0000 0.0000 0.0000 0.6901 0.0000 0.0000
# 5 0.0000 0.0000 0.0000 0.0000 24.1902 0.0000
# 6 0.0000 0.0000 0.0000 0.0000 0.0000 12.8340
#
#
#
# Elastic Compliance Matrix: (Units=1/GPa)
#
#
# Indices 1 2 3 4 5 6 
#
# 1 0.024713 -0.012748 -0.010239 0.000000 0.000000 0.000000
# 2 -0.012748 0.042150 -0.006196 0.000000 0.000000 0.000000
# 3 -0.010239 -0.006196 0.018730 0.000000 0.000000 0.000000
# 4 0.000000 0.000000 0.000000 1.449124 0.000000 0.000000
# 5 0.000000 0.000000 0.000000 0.000000 0.041339 0.000000
# 6 0.000000 0.000000 0.000000 0.000000 0.000000 0.077918
#
#
# Mechanical properties :
#
#
# Convention : Reuss Voigt Hill
#
# Bulk Modulus (GPa) = 36.72680 48.99671 42.86176
# Shear Modulus (GPa) = 2.90459 13.81384 8.35921
#
# Velocity S-wave (km/s) = 1.49402 3.25816 2.53453
# Velocity P-wave (km/s) = 5.58568 7.19770 6.44231
#
# Compressibility (1/GPa) = 0.02722807
#
# Stress axis : x y z
#
# Youngs Moduli (GPa) = 40.46472 23.72466 53.39099
#
# Poissons Ratio (x) = 0.30244 0.54666
# Poissons Ratio (y) = 0.51585 0.33079
# Poissons Ratio (z) = 0.41431 0.14699
#
# Static dielectric constant tensor:
#      x y z
#    x 2.852100 0.000000 0.000000 
#    y 0.000000 2.184480 0.000000 
#    z 0.000000 0.000000 2.779580 
# 
# 
# High freq. dielectric constant tensor:
#      x y z
#    x 1.505270 0.000000 0.000000 
#    y 0.000000 1.428580 0.000000 
#    z 0.000000 0.000000 1.487260 
# 
# From -- ./inp_files/73708.got.cif
#   From: 2010.03.12/outbox.cif.g09.slc.cpg/sg65_37_cif.got.tgz:73708.got - 2010.04.10 20:52:16.
