data_PCOD8274998
_publ_section_title
;
Structure prediction by ZEFSAII (Michael W. Deem and Ramdas Pophale) SiO2 
 PCOD8274998
Probable space group: C M M M
;
_chemical_formula_sum "Si O2"
_cell_formula_units_Z 104
_cell_length_a 26.360979
_cell_length_b 9.837242
_cell_length_c 24.668702
_cell_angle_alpha 90.000000
_cell_angle_beta 90.000000
_cell_angle_gamma 90.000000
_cell_volume 6397.071269
_symmetry_space_group_name_H-M "C M M M"
_symmetry_group_IT_number 65
_symmetry_cell_setting 'orthorhombic'
loop_
_space_group_symop_operation_xyz
x,y,z
-x,-y,z
x,-y,-z
-x,y,-z
-x,-y,-z
x,y,-z
-x,y,z
x,-y,z
1/2+x,1/2+y,z
1/2-x,1/2-y,z
1/2+x,1/2-y,-z
1/2-x,1/2+y,-z
1/2-x,1/2-y,-z
1/2+x,1/2+y,-z
1/2-x,1/2+y,z
1/2+x,1/2-y,z
loop_
_atom_site_type_symbol
_atom_site_label
_atom_site_fract_x
_atom_site_fract_y
_atom_site_fract_z
Si Si1 0.289880 0.648483 0.563013
Si Si2 0.440564 0.843668 0.235135
Si Si3 0.597217 0.338426 0.441173
Si Si4 0.298019 0.158102 0.063361
Si Si5 0.900529 0.659863 0.119899
Si Si6 0.441561 0.650765 0.329025
Si Si7 0.000000 0.338173 0.061606
O O1 0.276760 0.632596 0.500000
O O2 0.285710 0.500000 0.590915
O O3 0.250000 0.750000 0.591496
O O4 0.345700 0.711155 0.570210
O O5 0.500000 0.817560 0.222315
O O6 0.406772 0.803823 0.183198
O O7 0.418691 0.752943 0.284532
O O8 0.432331 0.000000 0.251412
O O9 0.577926 0.280597 0.500000
O O10 0.596073 0.500000 0.445398
O O11 0.564278 0.288488 0.390034
O O12 0.250000 0.250000 0.080533
O O13 0.346949 0.214147 0.096579
O O14 0.286263 0.000000 0.076901
O O15 0.310317 0.175932 0.000000
O O16 0.901485 0.500000 0.110253
O O17 0.949031 0.723381 0.088692
O O18 0.500000 0.637023 0.316113
O O19 0.416138 0.500000 0.324620
O O20 0.000000 0.500000 0.068341
O O21 0.000000 0.291026 0.000000
#
# Coordination Sequence:
#
# PCOD8274998 Si02
#       7
#    16  16  16  16  16  16   8
#     4   8  13  22  37  56  77 100 125 154 192 240
#     4   9  16  28  45  63  85 112 141 173 214 263
#     4   8  14  25  41  61  84 108 134 168 212 256
#     4   9  17  29  45  66  92 121 153 187 221 260
#     4   9  15  25  42  65  90 116 146 181 221 263
#     4   9  17  28  43  63  85 109 141 177 208 247
#     4   9  14  20  36  66  97 115 134 175 226 264
#
# _framework density 16.257439999999999
#
# number of rings (size 3 to 8) (size 9 to 14) (size 15 to 20)
#    0.000    3.308    0.769    1.385    0.000    2.154 
#    0.000    3.077    0.000    2.308    0.000    8.615 
#    0.000    3.692    0.000    0.000    0.000    0.000 
#
# Total GULP energy -644247.943576 kJ/mol
# GULP energy per Si atom -12389.383530 kJ/mol
# Density = 1.622044 g / cm^3
# Si number density = 16.257440 Si / 1000 Ang^3
#
#
#
# Elastic Constant Matrix: (Units=GPa)
#
#
# Indices 1 2 3 4 5 6 
#
# 1 79.7897 30.5081 53.5593 0.0000 0.0000 0.0000
# 2 30.5081 45.4885 39.7242 0.0000 0.0000 0.0000
# 3 53.5593 39.7242 114.2692 0.0000 0.0000 0.0000
# 4 0.0000 0.0000 0.0000 18.9331 0.0000 0.0000
# 5 0.0000 0.0000 0.0000 0.0000 19.3530 0.0000
# 6 0.0000 0.0000 0.0000 0.0000 0.0000 18.7730
#
#
#
# Elastic Compliance Matrix: (Units=1/GPa)
#
#
# Indices 1 2 3 4 5 6 
#
# 1 0.019911 -0.007472 -0.006735 0.000000 0.000000 0.000000
# 2 -0.007472 0.034371 -0.008446 0.000000 0.000000 0.000000
# 3 -0.006735 -0.008446 0.014844 0.000000 0.000000 0.000000
# 4 0.000000 0.000000 0.000000 0.052817 0.000000 0.000000
# 5 0.000000 0.000000 0.000000 0.000000 0.051672 0.000000
# 6 0.000000 0.000000 0.000000 0.000000 0.000000 0.053268
#
#
# Mechanical properties :
#
#
# Convention : Reuss Voigt Hill
#
# Bulk Modulus (GPa) = 41.98286 54.12562 48.05424
# Shear Modulus (GPa) = 17.84887 19.12887 18.48887
#
# Velocity S-wave (km/s) = 3.31704 3.43391 3.37598
# Velocity P-wave (km/s) = 6.36790 7.00624 6.69468
#
# Compressibility (1/GPa) = 0.02381925
#
# Stress axis : x y z
#
# Youngs Moduli (GPa) = 50.22400 29.09414 67.36662
#
# Poissons Ratio (x) = 0.21740 0.45370
# Poissons Ratio (y) = 0.37530 0.56900
# Poissons Ratio (z) = 0.33824 0.24574
#
# Static dielectric constant tensor:
#      x y z
#    x 3.083300 0.000000 0.000000 
#    y 0.000000 2.951160 0.000000 
#    z 0.000000 0.000000 3.182540 
# 
# 
# High freq. dielectric constant tensor:
#      x y z
#    x 1.612110 0.000000 0.000000 
#    y 0.000000 1.583410 0.000000 
#    z 0.000000 0.000000 1.613550 
# 
# From -- ./inp_files/76006.got.cif
#   From: 2010.03.12/outbox.cif.g09.slc.cpg/sg65_39_cif.got.tgz:76006.got - 2010.04.10 20:52:16.
