data_PCOD8274048
_publ_section_title
;
Structure prediction by ZEFSAII (Michael W. Deem and Ramdas Pophale) SiO2 
 PCOD8274048
Probable space group: C M M M
;
_chemical_formula_sum "Si O2"
_cell_formula_units_Z 96
_cell_length_a 14.519834
_cell_length_b 20.127488
_cell_length_c 15.472042
_cell_angle_alpha 90.000000
_cell_angle_beta 90.000000
_cell_angle_gamma 90.000000
_cell_volume 4521.669998
_symmetry_space_group_name_H-M "C M M M"
_symmetry_group_IT_number 65
_symmetry_cell_setting 'orthorhombic'
loop_
_space_group_symop_operation_xyz
x,y,z
-x,-y,z
x,-y,-z
-x,y,-z
-x,-y,-z
x,y,-z
-x,y,z
x,-y,z
1/2+x,1/2+y,z
1/2-x,1/2-y,z
1/2+x,1/2-y,-z
1/2-x,1/2+y,-z
1/2-x,1/2-y,-z
1/2+x,1/2+y,-z
1/2-x,1/2+y,z
1/2+x,1/2-y,z
loop_
_atom_site_type_symbol
_atom_site_label
_atom_site_fract_x
_atom_site_fract_y
_atom_site_fract_z
Si Si1 0.257825 0.926759 0.125221
Si Si2 0.899752 0.223211 0.265710
Si Si3 0.602590 0.500000 0.601700
Si Si4 0.773652 0.104225 0.310650
Si Si5 0.843907 0.710033 0.094767
Si Si6 0.896817 0.338182 0.400098
Si Si7 0.399090 0.422657 0.000000
O O1 0.249372 0.938611 0.226949
O O2 0.331713 0.869918 0.103249
O O3 0.285170 0.000000 0.086713
O O4 0.159689 0.902628 0.084904
O O5 0.814908 0.172898 0.273300
O O6 0.902488 0.264409 0.175873
O O7 0.887565 0.270758 0.347285
O O8 0.000000 0.187683 0.272142
O O9 0.500000 0.500000 0.641091
O O10 0.599060 0.500000 0.500000
O O11 0.652579 0.566906 0.631103
O O12 0.680398 0.111301 0.365878
O O13 0.750000 0.750000 0.098360
O O14 0.890483 0.723020 0.000000
O O15 0.877399 0.321709 0.500000
O O16 0.000000 0.368745 0.388427
O O17 0.417933 0.500000 0.000000
O O18 0.500000 0.386684 0.000000
#
# Coordination Sequence:
#
# PCOD8274048 Si02
#       7
#    16  16   8  16  16  16   8
#     4  11  21  37  60  89 123 170 216 262 325 395
#     4  11  23  39  62  93 129 168 217 271 328 399
#     4  11  26  44  63  94 134 176 222 266 321 401
#     4  12  22  41  64  90 128 175 215 264 331 390
#     4  11  21  38  61  87 124 170 216 271 325 385
#     4  10  22  40  65  95 123 158 212 276 336 395
#     4   9  20  36  55  88 131 167 211 265 314 385
#
# _framework density 21.231095
#
# number of rings (size 3 to 8) (size 9 to 14) (size 15 to 20)
#    0.000    1.167    5.000    1.500    0.000    3.667 
#    0.000    2.083    0.000    3.000    0.000    1.167 
#    0.000    0.000    0.000    0.000    0.000    0.000 
#
# Total GULP energy -594897.881095 kJ/mol
# GULP energy per Si atom -12393.705856 kJ/mol
# Density = 2.118277 g / cm^3
# Si number density = 21.231095 Si / 1000 Ang^3
#
#
#
# Elastic Constant Matrix: (Units=GPa)
#
#
# Indices 1 2 3 4 5 6 
#
# 1 106.0766 39.2340 47.1983 0.0000 0.0000 0.0000
# 2 39.2340 91.8737 31.1398 0.0000 0.0000 0.0000
# 3 47.1983 31.1398 158.8323 0.0000 0.0000 0.0000
# 4 0.0000 0.0000 0.0000 23.9149 0.0000 0.0000
# 5 0.0000 0.0000 0.0000 0.0000 30.4622 0.0000
# 6 0.0000 0.0000 0.0000 0.0000 0.0000 22.6720
#
#
#
# Elastic Compliance Matrix: (Units=1/GPa)
#
#
# Indices 1 2 3 4 5 6 
#
# 1 0.012259 -0.004285 -0.002803 0.000000 0.000000 0.000000
# 2 -0.004285 0.013157 -0.001306 0.000000 0.000000 0.000000
# 3 -0.002803 -0.001306 0.007385 0.000000 0.000000 0.000000
# 4 0.000000 0.000000 0.000000 0.041815 0.000000 0.000000
# 5 0.000000 0.000000 0.000000 0.000000 0.032828 0.000000
# 6 0.000000 0.000000 0.000000 0.000000 0.000000 0.044107
#
#
# Mechanical properties :
#
#
# Convention : Reuss Voigt Hill
#
# Bulk Modulus (GPa) = 62.44931 65.76964 64.10947
# Shear Modulus (GPa) = 28.78908 31.35719 30.07313
#
# Velocity S-wave (km/s) = 3.68637 3.84728 3.76768
# Velocity P-wave (km/s) = 6.89906 7.12605 7.01347
#
# Compressibility (1/GPa) = 0.01601299
#
# Stress axis : x y z
#
# Youngs Moduli (GPa) = 81.57148 76.00404 135.41161
#
# Poissons Ratio (x) = 0.32569 0.37953
# Poissons Ratio (y) = 0.34955 0.17687
# Poissons Ratio (z) = 0.22863 0.09927
#
# Static dielectric constant tensor:
#      x y z
#    x 3.913440 0.000000 0.000000 
#    y 0.000000 3.643400 0.000000 
#    z 0.000000 0.000000 4.146830 
# 
# 
# High freq. dielectric constant tensor:
#      x y z
#    x 1.816870 0.000000 0.000000 
#    y 0.000000 1.820670 0.000000 
#    z 0.000000 0.000000 1.853550 
# 
# From -- ./inp_files/40418.got.cif
#   From: 2010.03.12/outbox.cif.g09.slc.cpg/sg65_21_cif.got.tgz:40418.got - 2010.04.10 20:52:16.
