data_PCOD8274045
_publ_section_title
;
Structure prediction by ZEFSAII (Michael W. Deem and Ramdas Pophale) SiO2 
 PCOD8274045
Probable space group: C M M M
;
_chemical_formula_sum "Si O2"
_cell_formula_units_Z 72
_cell_length_a 26.479561
_cell_length_b 9.899644
_cell_length_c 14.627892
_cell_angle_alpha 90.000000
_cell_angle_beta 90.000000
_cell_angle_gamma 90.000000
_cell_volume 3834.529676
_symmetry_space_group_name_H-M "C M M M"
_symmetry_group_IT_number 65
_symmetry_cell_setting 'orthorhombic'
loop_
_space_group_symop_operation_xyz
x,y,z
-x,-y,z
x,-y,-z
-x,y,-z
-x,-y,-z
x,y,-z
-x,y,z
x,-y,z
1/2+x,1/2+y,z
1/2-x,1/2-y,z
1/2+x,1/2-y,-z
1/2-x,1/2+y,-z
1/2-x,1/2-y,-z
1/2+x,1/2+y,-z
1/2-x,1/2+y,z
1/2+x,1/2-y,z
loop_
_atom_site_type_symbol
_atom_site_label
_atom_site_fract_x
_atom_site_fract_y
_atom_site_fract_z
Si Si1 0.942966 0.159273 0.500000
Si Si2 0.440702 0.846223 0.000000
Si Si3 0.702779 0.347793 0.000000
Si Si4 0.886155 0.844382 0.866232
Si Si5 0.292176 0.500000 0.392952
Si Si6 0.822091 0.500000 0.390132
Si Si7 0.631380 0.275690 0.339632
O O1 0.914612 0.207243 0.409405
O O2 0.000000 0.218099 0.500000
O O3 0.943801 0.000000 0.500000
O O4 0.424178 0.762225 0.911018
O O5 0.500000 0.857069 0.000000
O O6 0.418066 0.000000 0.000000
O O7 0.750000 0.250000 0.000000
O O8 0.669367 0.321471 0.909275
O O9 0.723796 0.500000 0.000000
O O10 0.888038 0.814430 0.759645
O O11 0.902971 0.000000 0.884905
O O12 0.289740 0.500000 0.500000
O O13 0.235468 0.500000 0.354752
O O14 0.320521 0.633284 0.361694
O O15 0.826300 0.500000 0.500000
O O16 0.850365 0.376066 0.344738
#
# Coordination Sequence:
#
# PCOD8274045 Si02
#       7
#     8   8   8  16   8   8  16
#     4  11  22  39  64  90 119 162 207 253 306 362
#     4  10  23  43  67  95 122 150 196 258 318 365
#     4   9  20  38  56  84 119 154 196 238 291 358
#     4  10  22  40  64  88 119 162 203 247 299 363
#     4  11  20  38  62  87 124 173 209 254 297 359
#     4  11  24  36  60  91 126 167 213 248 313 363
#     4  12  21  41  60  91 128 162 207 259 302 364
#
# _framework density 18.776748999999999
#
# number of rings (size 3 to 8) (size 9 to 14) (size 15 to 20)
#    0.000    1.333    4.444    1.667    1.556    7.111 
#    0.000    1.111    0.000    0.000    0.000    0.000 
#    0.000    0.000    0.000    0.000    0.000    0.000 
#
# Total GULP energy -446413.500615 kJ/mol
# GULP energy per Si atom -12400.375017 kJ/mol
# Density = 1.873401 g / cm^3
# Si number density = 18.776749 Si / 1000 Ang^3
#
#
#
# Elastic Constant Matrix: (Units=GPa)
#
#
# Indices 1 2 3 4 5 6 
#
# 1 109.6967 68.3265 61.8619 0.0000 0.0000 0.0000
# 2 68.3265 158.3881 37.2454 0.0000 0.0000 0.0000
# 3 61.8619 37.2454 122.0145 0.0000 0.0000 0.0000
# 4 0.0000 0.0000 0.0000 25.8525 0.0000 0.0000
# 5 0.0000 0.0000 0.0000 0.0000 4.3437 0.0000
# 6 0.0000 0.0000 0.0000 0.0000 0.0000 33.7477
#
#
#
# Elastic Compliance Matrix: (Units=1/GPa)
#
#
# Indices 1 2 3 4 5 6 
#
# 1 0.016206 -0.005450 -0.006553 0.000000 0.000000 0.000000
# 2 -0.005450 0.008635 0.000127 0.000000 0.000000 0.000000
# 3 -0.006553 0.000127 0.011479 0.000000 0.000000 0.000000
# 4 0.000000 0.000000 0.000000 0.038681 0.000000 0.000000
# 5 0.000000 0.000000 0.000000 0.000000 0.230220 0.000000
# 6 0.000000 0.000000 0.000000 0.000000 0.000000 0.029632
#
#
# Mechanical properties :
#
#
# Convention : Reuss Voigt Hill
#
# Bulk Modulus (GPa) = 79.56156 80.55187 80.05672
# Shear Modulus (GPa) = 13.78194 27.63313 20.70754
#
# Velocity S-wave (km/s) = 2.71216 3.84039 3.32449
# Velocity P-wave (km/s) = 7.22995 7.91567 7.58056
#
# Compressibility (1/GPa) = 0.01256888
#
# Stress axis : x y z
#
# Youngs Moduli (GPa) = 61.70456 115.81074 87.11396
#
# Poissons Ratio (x) = 0.63119 0.57085
# Poissons Ratio (y) = 0.33630 -0.01111
# Poissons Ratio (z) = 0.40435 -0.01476
#
# Static dielectric constant tensor:
#      x y z
#    x 4.637670 0.000000 0.000000 
#    y 0.000000 3.673770 0.000000 
#    z 0.000000 0.000000 3.579140 
# 
# 
# High freq. dielectric constant tensor:
#      x y z
#    x 1.722220 0.000000 0.000000 
#    y 0.000000 1.743730 0.000000 
#    z 0.000000 0.000000 1.732400 
# 
# From -- ./inp_files/46600.got.cif
#   From: 2010.03.12/outbox.cif.g09.slc.cpg/sg65_24_cif.got.tgz:46600.got - 2010.04.10 20:52:16.
