data_PCOD8274827
_publ_section_title
;
Structure prediction by ZEFSAII (Michael W. Deem and Ramdas Pophale) SiO2 
 PCOD8274827
Probable space group: C M M M
;
_chemical_formula_sum "Si O2"
_cell_formula_units_Z 64
_cell_length_a 17.831759
_cell_length_b 14.088223
_cell_length_c 13.942975
_cell_angle_alpha 90.000000
_cell_angle_beta 90.000000
_cell_angle_gamma 90.000000
_cell_volume 3502.723467
_symmetry_space_group_name_H-M "C M M M"
_symmetry_group_IT_number 65
_symmetry_cell_setting 'orthorhombic'
loop_
_space_group_symop_operation_xyz
x,y,z
-x,-y,z
x,-y,-z
-x,y,-z
-x,-y,-z
x,y,-z
-x,y,z
x,-y,z
1/2+x,1/2+y,z
1/2-x,1/2-y,z
1/2+x,1/2-y,-z
1/2-x,1/2+y,-z
1/2-x,1/2-y,-z
1/2+x,1/2+y,-z
1/2-x,1/2+y,z
1/2+x,1/2-y,z
loop_
_atom_site_type_symbol
_atom_site_label
_atom_site_fract_x
_atom_site_fract_y
_atom_site_fract_z
Si Si1 0.411925 0.390783 0.391331
Si Si2 0.336577 0.237924 0.264711
Si Si3 0.082168 0.603612 0.388916
Si Si4 0.411837 0.107354 0.890218
O O1 0.390622 0.354774 0.500000
O O2 0.500000 0.377981 0.376607
O O3 0.388163 0.500000 0.381499
O O4 0.370912 0.336400 0.303959
O O5 0.250000 0.250000 0.241025
O O6 0.349186 0.164662 0.351078
O O7 0.375247 0.191908 0.171528
O O8 0.093528 0.592326 0.500000
O O9 0.084894 0.500000 0.340244
O O10 0.000000 0.649792 0.365772
O O11 0.500000 0.112319 0.873023
O O12 0.383692 0.000000 0.863959
O O13 0.391288 0.129226 0.000000
#
# Coordination Sequence:
#
# PCOD8274827 Si02
#       4
#    16  16  16  16
#     4   9  19  36  54  70  95 139 191 227 242 269
#     4  12  23  31  48  78 111 140 165 201 260 320
#     4   9  18  33  53  76 102 135 177 223 266 306
#     4   9  19  38  63  84  99 123 165 215 264 315
#
# _framework density 18.271495999999999
#
# number of rings (size 3 to 8) (size 9 to 14) (size 15 to 20)
#    0.000    2.250    0.000    6.000    0.000    8.500 
#    0.000    2.500    0.000    0.750    0.000    3.500 
#    0.000    0.000    0.000    0.000    0.000    0.000 
#
# Total GULP energy -396419.125733 kJ/mol
# GULP energy per Si atom -12388.097679 kJ/mol
# Density = 1.822991 g / cm^3
# Si number density = 18.271496 Si / 1000 Ang^3
#
#
#
# Elastic Constant Matrix: (Units=GPa)
#
#
# Indices 1 2 3 4 5 6 
#
# 1 75.7212 44.7964 44.1073 0.0000 0.0000 0.0000
# 2 44.7964 104.0340 59.2454 0.0000 0.0000 0.0000
# 3 44.1073 59.2454 109.4234 0.0000 0.0000 0.0000
# 4 0.0000 0.0000 0.0000 39.3337 0.0000 0.0000
# 5 0.0000 0.0000 0.0000 0.0000 8.9561 0.0000
# 6 0.0000 0.0000 0.0000 0.0000 0.0000 -142.1284
#
#
#
# Elastic Compliance Matrix: (Units=1/GPa)
#
#
# Indices 1 2 3 4 5 6 
#
# 1 0.019282 -0.005605 -0.004738 0.000000 0.000000 0.000000
# 2 -0.005605 0.015526 -0.006147 0.000000 0.000000 0.000000
# 3 -0.004738 -0.006147 0.014377 0.000000 0.000000 0.000000
# 4 0.000000 0.000000 0.000000 0.025424 0.000000 0.000000
# 5 0.000000 0.000000 0.000000 0.000000 0.111656 0.000000
# 6 0.000000 0.000000 0.000000 0.000000 0.000000 -0.007036
#
#
# Mechanical properties :
#
#
# Convention : Reuss Voigt Hill
#
# Bulk Modulus (GPa) = 61.70672 65.05299 63.37985
# Shear Modulus (GPa) = 22.97696 -9.36576 6.80560
#
# Velocity S-wave (km/s) = 3.55001 -2.26650 1.93204
# Velocity P-wave (km/s) = 7.11680 5.36950 6.30398
#
# Compressibility (1/GPa) = 0.01620569
#
# Stress axis : x y z
#
# Youngs Moduli (GPa) = 51.86273 64.40682 69.55595
#
# Poissons Ratio (x) = 0.36097 0.32954
# Poissons Ratio (y) = 0.29066 0.42758
# Poissons Ratio (z) = 0.24571 0.39593
#
# Static dielectric constant tensor:
#      x y z
#    x 3.123460 0.000000 0.000000 
#    y 0.000000 3.765250 0.000000 
#    z 0.000000 0.000000 3.377920 
# 
# 
# High freq. dielectric constant tensor:
#      x y z
#    x 1.680800 0.000000 0.000000 
#    y 0.000000 1.714300 0.000000 
#    z 0.000000 0.000000 1.704720 
# 
# From -- ./inp_files/39505.got.cif
#   From: 2010.03.12/outbox.cif.g09.slc.cpg/sg65_20_cif.got.tgz:39505.got - 2010.04.10 20:52:16.
