data_PCOD8274447
_publ_section_title
;
Structure prediction by ZEFSAII (Michael W. Deem and Ramdas Pophale) SiO2 
 PCOD8274447
Probable space group: C M M M
;
_chemical_formula_sum "Si O2"
_cell_formula_units_Z 88
_cell_length_a 17.676880
_cell_length_b 15.396646
_cell_length_c 17.598511
_cell_angle_alpha 90.000000
_cell_angle_beta 90.000000
_cell_angle_gamma 90.000000
_cell_volume 4789.692829
_symmetry_space_group_name_H-M "C M M M"
_symmetry_group_IT_number 65
_symmetry_cell_setting 'orthorhombic'
loop_
_space_group_symop_operation_xyz
x,y,z
-x,-y,z
x,-y,-z
-x,y,-z
-x,-y,-z
x,y,-z
-x,y,z
x,-y,z
1/2+x,1/2+y,z
1/2-x,1/2-y,z
1/2+x,1/2-y,-z
1/2-x,1/2+y,-z
1/2-x,1/2-y,-z
1/2+x,1/2+y,-z
1/2-x,1/2+y,z
1/2+x,1/2-y,z
loop_
_atom_site_type_symbol
_atom_site_label
_atom_site_fract_x
_atom_site_fract_y
_atom_site_fract_z
Si Si1 0.838197 0.261157 0.194108
Si Si2 0.087442 0.402320 0.910858
Si Si3 0.910061 0.500000 0.416830
Si Si4 0.413761 0.348209 0.582620
Si Si5 0.588824 0.402613 0.255188
Si Si6 0.913452 0.326796 0.341153
O O1 0.750000 0.250000 0.182563
O O2 0.867115 0.324303 0.127981
O O3 0.875078 0.164455 0.194841
O O4 0.857112 0.305025 0.273649
O O5 0.113881 0.500000 0.885340
O O6 0.000000 0.391185 0.889289
O O7 0.100371 0.392181 0.000000
O O8 0.873443 0.500000 0.500000
O O9 0.881149 0.416123 0.372905
O O10 0.000000 0.500000 0.422828
O O11 0.375474 0.372105 0.500000
O O12 0.500000 0.379499 0.577895
O O13 0.377452 0.392278 0.658361
O O14 0.408899 0.244319 0.592348
O O15 0.500000 0.381204 0.258709
O O16 0.605150 0.500000 0.226128
O O17 0.000000 0.334603 0.311029
#
# Coordination Sequence:
#
# PCOD8274447 Si02
#       6
#    16  16   8  16  16  16
#     4  11  22  34  52  78 108 146 177 210 257 313
#     4   9  19  37  62  89 113 136 166 210 263 319
#     4   9  16  26  46  76 103 131 176 235 287 323
#     4   8  13  23  42  67  93 120 160 219 274 310
#     4   9  18  33  51  71  97 133 178 225 265 303
#     4   9  17  29  46  72 101 135 175 220 271 321
#
# _framework density 18.372786999999999
#
# number of rings (size 3 to 8) (size 9 to 14) (size 15 to 20)
#    0.000    2.818    0.000    3.818    1.273    3.636 
#    0.000    1.818    0.000   14.182    0.000    2.545 
#    0.000    0.000    0.000    0.000    0.000    0.000 
#
# Total GULP energy -545154.136075 kJ/mol
# GULP energy per Si atom -12389.866729 kJ/mol
# Density = 1.833097 g / cm^3
# Si number density = 18.372787 Si / 1000 Ang^3
#
#
#
# Elastic Constant Matrix: (Units=GPa)
#
#
# Indices 1 2 3 4 5 6 
#
# 1 69.1304 49.4768 38.3039 0.0000 0.0000 0.0000
# 2 49.4768 151.8100 47.9899 0.0000 0.0000 0.0000
# 3 38.3039 47.9899 69.6280 0.0000 0.0000 0.0000
# 4 0.0000 0.0000 0.0000 23.5546 0.0000 0.0000
# 5 0.0000 0.0000 0.0000 0.0000 4.2953 0.0000
# 6 0.0000 0.0000 0.0000 0.0000 0.0000 12.6420
#
#
#
# Elastic Compliance Matrix: (Units=1/GPa)
#
#
# Indices 1 2 3 4 5 6 
#
# 1 0.022950 -0.004460 -0.009551 0.000000 0.000000 0.000000
# 2 -0.004460 0.009289 -0.003949 0.000000 0.000000 0.000000
# 3 -0.009551 -0.003949 0.022338 0.000000 0.000000 0.000000
# 4 0.000000 0.000000 0.000000 0.042455 0.000000 0.000000
# 5 0.000000 0.000000 0.000000 0.000000 0.232811 0.000000
# 6 0.000000 0.000000 0.000000 0.000000 0.000000 0.079101
#
#
# Mechanical properties :
#
#
# Convention : Reuss Voigt Hill
#
# Bulk Modulus (GPa) = 53.59991 62.45663 58.02827
# Shear Modulus (GPa) = 11.08446 18.41824 14.75135
#
# Velocity S-wave (km/s) = 2.45890 3.16962 2.83661
# Velocity P-wave (km/s) = 6.10724 6.88936 6.51006
#
# Compressibility (1/GPa) = 0.01865675
#
# Stress axis : x y z
#
# Youngs Moduli (GPa) = 43.57352 107.65304 44.76741
#
# Poissons Ratio (x) = 0.48018 0.42757
# Poissons Ratio (y) = 0.19436 0.17677
# Poissons Ratio (z) = 0.41617 0.42508
#
# Static dielectric constant tensor:
#      x y z
#    x 2.910230 0.000000 0.000000 
#    y 0.000000 3.648360 0.000000 
#    z 0.000000 0.000000 3.274800 
# 
# 
# High freq. dielectric constant tensor:
#      x y z
#    x 1.660310 0.000000 0.000000 
#    y 0.000000 1.726770 0.000000 
#    z 0.000000 0.000000 1.696850 
# 
# From -- ./inp_files/53041.got.cif
#   From: 2010.03.12/outbox.cif.g09.slc.cpg/sg65_27_cif.got.tgz:53041.got - 2010.04.10 20:52:16.
