data_PCOD8274561
_publ_section_title
;
Structure prediction by ZEFSAII (Michael W. Deem and Ramdas Pophale) SiO2 
 PCOD8274561
Probable space group: C M M M
;
_chemical_formula_sum "Si O2"
_cell_formula_units_Z 56
_cell_length_a 8.707269
_cell_length_b 18.256346
_cell_length_c 18.037488
_cell_angle_alpha 90.000000
_cell_angle_beta 90.000000
_cell_angle_gamma 90.000000
_cell_volume 2867.291682
_symmetry_space_group_name_H-M "C M M M"
_symmetry_group_IT_number 65
_symmetry_cell_setting 'orthorhombic'
loop_
_space_group_symop_operation_xyz
x,y,z
-x,-y,z
x,-y,-z
-x,y,-z
-x,-y,-z
x,y,-z
-x,y,z
x,-y,z
1/2+x,1/2+y,z
1/2-x,1/2-y,z
1/2+x,1/2-y,-z
1/2-x,1/2+y,-z
1/2-x,1/2-y,-z
1/2+x,1/2+y,-z
1/2-x,1/2+y,z
1/2+x,1/2-y,z
loop_
_atom_site_type_symbol
_atom_site_label
_atom_site_fract_x
_atom_site_fract_y
_atom_site_fract_z
Si Si1 0.321821 0.086450 0.500000
Si Si2 0.318507 0.672362 0.082773
Si Si3 0.817708 0.830354 0.362854
Si Si4 0.317422 0.418401 0.779548
O O1 0.500000 0.108511 0.500000
O O2 0.240859 0.118578 0.428150
O O3 0.297575 0.000000 0.500000
O O4 0.500000 0.679555 0.086473
O O5 0.250000 0.750000 0.105708
O O6 0.258290 0.612743 0.141638
O O7 0.264786 0.649051 0.000000
O O8 0.750000 0.750000 0.371247
O O9 0.758397 0.866172 0.286249
O O10 0.000000 0.825560 0.366078
O O11 0.500000 0.421576 0.778370
O O12 0.249139 0.500000 0.769355
#
# Coordination Sequence:
#
# PCOD8274561 Si02
#       4
#     8  16  16  16
#     4  11  24  41  60  83 111 139 172 217 266 317
#     4   9  17  30  50  75 103 136 173 214 259 308
#     4  11  22  37  58  81 108 142 180 220 263 314
#     4   9  18  32  51  77 106 136 174 219 264 310
#
# _framework density 19.530626000000002
#
# number of rings (size 3 to 8) (size 9 to 14) (size 15 to 20)
#    0.000    2.143    0.000    3.429    0.000    2.857 
#    0.000    4.286    0.000    4.286    0.000    4.000 
#    0.000    0.000    0.000    0.000    0.000    0.000 
#
# Total GULP energy -347214.553632 kJ/mol
# GULP energy per Si atom -12400.519773 kJ/mol
# Density = 1.948617 g / cm^3
# Si number density = 19.530626 Si / 1000 Ang^3
#
#
#
# Elastic Constant Matrix: (Units=GPa)
#
#
# Indices 1 2 3 4 5 6 
#
# 1 47.3815 32.7353 31.2367 0.0000 0.0000 0.0000
# 2 32.7353 123.4208 65.8339 0.0000 0.0000 0.0000
# 3 31.2367 65.8339 146.3912 0.0000 0.0000 0.0000
# 4 0.0000 0.0000 0.0000 38.9465 0.0000 0.0000
# 5 0.0000 0.0000 0.0000 0.0000 -4.9356 0.0000
# 6 0.0000 0.0000 0.0000 0.0000 0.0000 22.9868
#
#
#
# Elastic Compliance Matrix: (Units=1/GPa)
#
#
# Indices 1 2 3 4 5 6 
#
# 1 0.027032 -0.005385 -0.003346 0.000000 0.000000 0.000000
# 2 -0.005385 0.011732 -0.004127 0.000000 0.000000 0.000000
# 3 -0.003346 -0.004127 0.009401 0.000000 0.000000 0.000000
# 4 0.000000 0.000000 0.000000 0.025676 0.000000 0.000000
# 5 0.000000 0.000000 0.000000 0.000000 -0.202610 0.000000
# 6 0.000000 0.000000 0.000000 0.000000 0.000000 0.043503
#
#
# Mechanical properties :
#
#
# Convention : Reuss Voigt Hill
#
# Bulk Modulus (GPa) = 44.54659 64.08946 54.31803
# Shear Modulus (GPa) = -96.03047 23.89205 -36.06921
#
# Velocity S-wave (km/s) = -7.01968 3.50138 -4.30211
# Velocity P-wave (km/s) = 6.54547 7.01658 1.78735
#
# Compressibility (1/GPa) = 0.02244840
#
# Stress axis : x y z
#
# Youngs Moduli (GPa) = 36.99368 85.23726 106.37129
#
# Poissons Ratio (x) = 0.45898 0.35596
# Poissons Ratio (y) = 0.19920 0.43900
# Poissons Ratio (z) = 0.12380 0.35178
#
# Static dielectric constant tensor:
#      x y z
#    x 3.340200 0.000000 0.000000 
#    y 0.000000 3.607500 0.000000 
#    z 0.000000 0.000000 3.953460 
# 
# 
# High freq. dielectric constant tensor:
#      x y z
#    x 1.733790 0.000000 0.000000 
#    y 0.000000 1.769360 0.000000 
#    z 0.000000 0.000000 1.780910 
# 
# From -- ./inp_files/35500.got.cif
#   From: 2010.03.12/outbox.cif.g09.slc.cpg/sg65_18_cif.got.tgz:35500.got - 2010.04.10 20:52:16.
