data_PCOD8274950
_publ_section_title
;
Structure prediction by ZEFSAII (Michael W. Deem and Ramdas Pophale) SiO2 
 PCOD8274950
Probable space group: C M M M
;
_chemical_formula_sum "Si O2"
_cell_formula_units_Z 104
_cell_length_a 33.156553
_cell_length_b 19.368138
_cell_length_c 9.363384
_cell_angle_alpha 90.000000
_cell_angle_beta 90.000000
_cell_angle_gamma 90.000000
_cell_volume 6012.984436
_symmetry_space_group_name_H-M "C M M M"
_symmetry_group_IT_number 65
_symmetry_cell_setting 'orthorhombic'
loop_
_space_group_symop_operation_xyz
x,y,z
-x,-y,z
x,-y,-z
-x,y,-z
-x,-y,-z
x,y,-z
-x,y,z
x,-y,z
1/2+x,1/2+y,z
1/2-x,1/2-y,z
1/2+x,1/2-y,-z
1/2-x,1/2+y,-z
1/2-x,1/2-y,-z
1/2+x,1/2+y,-z
1/2-x,1/2+y,z
1/2+x,1/2-y,z
loop_
_atom_site_type_symbol
_atom_site_label
_atom_site_fract_x
_atom_site_fract_y
_atom_site_fract_z
Si Si1 0.186087 0.417844 0.839527
Si Si2 0.239648 0.917896 0.659196
Si Si3 0.500000 0.422796 0.670194
Si Si4 0.954742 0.691800 0.330659
Si Si5 0.108230 0.579376 0.666748
Si Si6 0.650755 0.422642 0.670239
Si Si7 0.075865 0.837190 0.670164
O O1 0.188014 0.500000 0.840385
O O2 0.226072 0.387450 0.763472
O O3 0.146879 0.393363 0.752876
O O4 0.183950 0.388414 0.000000
O O5 0.246589 0.887587 0.500000
O O6 0.195309 0.897374 0.718923
O O7 0.242560 0.000000 0.651678
O O8 0.500000 0.500000 0.731915
O O9 0.500000 0.423375 0.500000
O O10 0.539442 0.384047 0.728088
O O11 0.957961 0.696245 0.500000
O O12 0.930293 0.623816 0.283729
O O13 0.931093 0.759381 0.273111
O O14 0.000000 0.688200 0.265913
O O15 0.117843 0.589579 0.500000
O O16 0.098167 0.500000 0.702258
O O17 0.649727 0.425153 0.500000
O O18 0.641517 0.500000 0.728567
O O19 0.617694 0.368793 0.730676
O O20 0.076685 0.838257 0.500000
#
# Coordination Sequence:
#
# PCOD8274950 Si02
#       7
#    16  16   8  16  16  16  16
#     4   9  16  26  42  64  87 108 134 173 217 257
#     4   8  13  22  37  58  85 114 140 167 202 245
#     4   9  14  18  28  48  77 115 148 171 203 249
#     4   9  16  26  39  56  80 109 141 177 216 252
#     4   9  17  28  43  63  85 110 141 176 213 255
#     4   8  13  20  32  53  81 113 146 175 203 241
#     4   9  14  21  32  50  79 112 144 176 208 246
#
# _framework density 17.295905000000001
#
# number of rings (size 3 to 8) (size 9 to 14) (size 15 to 20)
#    0.000    3.308    0.769    1.846    0.000    4.000 
#    0.000    1.538    0.000    1.385    0.000    9.692 
#    0.000    0.000    0.000    0.154    0.000   15.231 
#
# Total GULP energy -644460.703344 kJ/mol
# GULP energy per Si atom -12393.475064 kJ/mol
# Density = 1.725654 g / cm^3
# Si number density = 17.295905 Si / 1000 Ang^3
#
#
#
# Elastic Constant Matrix: (Units=GPa)
#
#
# Indices 1 2 3 4 5 6 
#
# 1 173.7984 70.7804 41.2235 0.0000 0.0000 0.0000
# 2 70.7804 84.0315 19.9179 0.0000 0.0000 0.0000
# 3 41.2235 19.9179 39.9277 0.0000 0.0000 0.0000
# 4 0.0000 0.0000 0.0000 4.4462 0.0000 0.0000
# 5 0.0000 0.0000 0.0000 0.0000 2.0588 0.0000
# 6 0.0000 0.0000 0.0000 0.0000 0.0000 13.0584
#
#
#
# Elastic Compliance Matrix: (Units=1/GPa)
#
#
# Indices 1 2 3 4 5 6 
#
# 1 0.010288 -0.006972 -0.007143 0.000000 0.000000 0.000000
# 2 -0.006972 0.018221 -0.001891 0.000000 0.000000 0.000000
# 3 -0.007143 -0.001891 0.033364 0.000000 0.000000 0.000000
# 4 0.000000 0.000000 0.000000 0.224911 0.000000 0.000000
# 5 0.000000 0.000000 0.000000 0.000000 0.485722 0.000000
# 6 0.000000 0.000000 0.000000 0.000000 0.000000 0.076579
#
#
# Mechanical properties :
#
#
# Convention : Reuss Voigt Hill
#
# Bulk Modulus (GPa) = 33.49049 62.40013 47.94531
# Shear Modulus (GPa) = 5.61135 14.96840 10.28987
#
# Velocity S-wave (km/s) = 1.80315 2.94501 2.44177
# Velocity P-wave (km/s) = 4.87242 6.90800 5.97749
#
# Compressibility (1/GPa) = 0.02985922
#
# Stress axis : x y z
#
# Youngs Moduli (GPa) = 97.20453 54.88089 29.97245
#
# Poissons Ratio (x) = 0.38264 0.21411
# Poissons Ratio (y) = 0.67772 0.05669
# Poissons Ratio (z) = 0.69437 0.10379
#
# Static dielectric constant tensor:
#      x y z
#    x 3.587420 0.000000 0.000000 
#    y 0.000000 3.050560 0.000000 
#    z 0.000000 0.000000 2.754990 
# 
# 
# High freq. dielectric constant tensor:
#      x y z
#    x 1.684840 0.000000 0.000000 
#    y 0.000000 1.635610 0.000000 
#    z 0.000000 0.000000 1.601300 
# 
# From -- ./inp_files/18658.got.cif
#   From: 2010.03.12/outbox.cif.g09.slc.cpg/sg65_10_cif.got.tgz:18658.got - 2010.04.10 20:52:16.
