data_PCOD8274846
_publ_section_title
;
Structure prediction by ZEFSAII (Michael W. Deem and Ramdas Pophale) SiO2 
 PCOD8274846
Probable space group: C M M M
;
_chemical_formula_sum "Si O2"
_cell_formula_units_Z 64
_cell_length_a 18.246897
_cell_length_b 8.932396
_cell_length_c 20.818940
_cell_angle_alpha 90.000000
_cell_angle_beta 90.000000
_cell_angle_gamma 90.000000
_cell_volume 3393.248006
_symmetry_space_group_name_H-M "C M M M"
_symmetry_group_IT_number 65
_symmetry_cell_setting 'orthorhombic'
loop_
_space_group_symop_operation_xyz
x,y,z
-x,-y,z
x,-y,-z
-x,y,-z
-x,-y,-z
x,y,-z
-x,y,z
x,-y,z
1/2+x,1/2+y,z
1/2-x,1/2-y,z
1/2+x,1/2-y,-z
1/2-x,1/2+y,-z
1/2-x,1/2-y,-z
1/2+x,1/2+y,-z
1/2-x,1/2+y,z
1/2+x,1/2-y,z
loop_
_atom_site_type_symbol
_atom_site_label
_atom_site_fract_x
_atom_site_fract_y
_atom_site_fract_z
Si Si1 0.087462 0.829201 0.293771
Si Si2 0.172154 0.324305 0.817374
Si Si3 0.418034 0.677625 0.432071
Si Si4 0.916141 0.172601 0.925789
O O1 0.118863 0.720135 0.240383
O O2 0.118297 0.772761 0.364099
O O3 0.000000 0.818819 0.293177
O O4 0.112196 0.000000 0.279546
O O5 0.182730 0.500000 0.818573
O O6 0.250000 0.250000 0.806179
O O7 0.137844 0.274462 0.884851
O O8 0.378271 0.727819 0.500000
O O9 0.500000 0.743157 0.434439
O O10 0.422171 0.500000 0.429523
O O11 0.000000 0.218675 0.911865
O O12 0.904217 0.000000 0.906704
O O13 0.896851 0.198825 0.000000
#
# Coordination Sequence:
#
# PCOD8274846 Si02
#       4
#    16  16  16  16
#     4   9  17  31  53  79 107 138 171 211 259 310
#     4  12  25  38  53  74 104 141 179 219 259 303
#     4   7  10  19  40  72 104 131 163 204 250 302
#     4   9  19  38  63  87 110 136 166 203 250 305
#
# _framework density 18.860984999999999
#
# number of rings (size 3 to 8) (size 9 to 14) (size 15 to 20)
#    0.000    2.750    0.000    6.000    0.000    5.000 
#    0.000    1.250    0.000    1.500    0.000    3.500 
#    0.000    0.000    0.000    0.000    0.000    0.000 
#
# Total GULP energy -396419.728589 kJ/mol
# GULP energy per Si atom -12388.116518 kJ/mol
# Density = 1.881806 g / cm^3
# Si number density = 18.860985 Si / 1000 Ang^3
#
#
#
# Elastic Constant Matrix: (Units=GPa)
#
#
# Indices 1 2 3 4 5 6 
#
# 1 43.3849 26.6791 31.8606 0.0000 0.0000 0.0000
# 2 26.6791 87.4395 43.7245 0.0000 0.0000 0.0000
# 3 31.8606 43.7245 131.5804 0.0000 0.0000 0.0000
# 4 0.0000 0.0000 0.0000 10.8109 0.0000 0.0000
# 5 0.0000 0.0000 0.0000 0.0000 -0.3096 0.0000
# 6 0.0000 0.0000 0.0000 0.0000 0.0000 24.6559
#
#
#
# Elastic Compliance Matrix: (Units=1/GPa)
#
#
# Indices 1 2 3 4 5 6 
#
# 1 0.031135 -0.006872 -0.005255 0.000000 0.000000 0.000000
# 2 -0.006872 0.015232 -0.003398 0.000000 0.000000 0.000000
# 3 -0.005255 -0.003398 0.010002 0.000000 0.000000 0.000000
# 4 0.000000 0.000000 0.000000 0.092500 0.000000 0.000000
# 5 0.000000 0.000000 0.000000 0.000000 -3.230199 0.000000
# 6 0.000000 0.000000 0.000000 0.000000 0.000000 0.040558
#
#
# Mechanical properties :
#
#
# Convention : Reuss Voigt Hill
#
# Bulk Modulus (GPa) = 39.49661 51.88145 45.68903
# Shear Modulus (GPa) = -1.66595 17.70749 8.02077
#
# Velocity S-wave (km/s) = -0.94085 3.06738 2.06441
# Velocity P-wave (km/s) = 4.45040 6.33341 5.47349
#
# Compressibility (1/GPa) = 0.02531863
#
# Stress axis : x y z
#
# Youngs Moduli (GPa) = 32.11868 65.65033 99.98457
#
# Poissons Ratio (x) = 0.45112 0.52546
# Poissons Ratio (y) = 0.22071 0.33973
# Poissons Ratio (z) = 0.16880 0.22307
#
# Static dielectric constant tensor:
#      x y z
#    x 3.115570 0.000000 0.000000 
#    y 0.000000 3.143470 0.000000 
#    z 0.000000 0.000000 4.077180 
# 
# 
# High freq. dielectric constant tensor:
#      x y z
#    x 1.691510 0.000000 0.000000 
#    y 0.000000 1.697590 0.000000 
#    z 0.000000 0.000000 1.766540 
# 
# From -- ./inp_files/58749.got.cif
#   From: 2010.03.12/outbox.cif.g09.slc.cpg/sg65_30_cif.got.tgz:58749.got - 2010.04.10 20:52:16.
