data_PCOD8274760
_publ_section_title
;
Structure prediction by ZEFSAII (Michael W. Deem and Ramdas Pophale) SiO2 
 PCOD8274760
Probable space group: C M M M
;
_chemical_formula_sum "Si O2"
_cell_formula_units_Z 88
_cell_length_a 17.177715
_cell_length_b 12.061328
_cell_length_c 20.370970
_cell_angle_alpha 90.000000
_cell_angle_beta 90.000000
_cell_angle_gamma 90.000000
_cell_volume 4220.580909
_symmetry_space_group_name_H-M "C M M M"
_symmetry_group_IT_number 65
_symmetry_cell_setting 'orthorhombic'
loop_
_space_group_symop_operation_xyz
x,y,z
-x,-y,z
x,-y,-z
-x,y,-z
-x,-y,-z
x,y,-z
-x,y,z
x,-y,z
1/2+x,1/2+y,z
1/2-x,1/2-y,z
1/2+x,1/2-y,-z
1/2-x,1/2+y,-z
1/2-x,1/2-y,-z
1/2+x,1/2+y,-z
1/2-x,1/2+y,z
1/2+x,1/2-y,z
loop_
_atom_site_type_symbol
_atom_site_label
_atom_site_fract_x
_atom_site_fract_y
_atom_site_fract_z
Si Si1 0.408735 0.875738 0.309262
Si Si2 0.908450 0.260838 0.075391
Si Si3 0.412698 0.500000 0.255288
Si Si4 0.839601 0.236157 0.426510
Si Si5 0.839179 0.218237 0.794916
Si Si6 0.591341 0.000000 0.070952
Si Si7 0.413542 0.500000 0.406913
O O1 0.500000 0.885428 0.307053
O O2 0.387542 0.806411 0.373891
O O3 0.384442 0.816893 0.241442
O O4 0.372137 0.000000 0.312181
O O5 0.864114 0.189196 0.129489
O O6 0.885879 0.383988 0.104020
O O7 0.000000 0.237425 0.078097
O O8 0.879618 0.241332 0.000000
O O9 0.500000 0.500000 0.221255
O O10 0.359083 0.394942 0.241029
O O11 0.428671 0.500000 0.330939
O O12 0.853079 0.284574 0.500000
O O13 0.750000 0.250000 0.405893
O O14 0.864758 0.107826 0.427722
O O15 0.750000 0.250000 0.791262
O O16 0.500000 0.000000 0.059585
O O17 0.632067 0.000000 0.000000
O O18 0.500000 0.500000 0.440188
#
# Coordination Sequence:
#
# PCOD8274760 Si02
#       7
#    16  16   8  16  16   8   8
#     4  11  25  43  66  95 127 166 213 265 320 385
#     4   9  18  35  59  88 124 166 213 264 318 381
#     4  11  24  44  68  94 128 172 220 268 321 385
#     4  11  25  42  66  98 134 171 210 263 324 381
#     4  12  26  40  65  94 130 170 214 267 328 383
#     4   7  12  25  50  82 111 145 190 244 303 354
#     4  11  23  42  70  96 124 170 229 277 306 370
#
# _framework density 20.850210000000001
#
# number of rings (size 3 to 8) (size 9 to 14) (size 15 to 20)
#    0.000    1.545    1.818    4.091    3.818    2.545 
#    0.000    1.364    0.000    1.636    0.000    0.000 
#    0.000    0.000    0.000    0.000    0.000    0.000 
#
# Total GULP energy -545075.275407 kJ/mol
# GULP energy per Si atom -12388.074441 kJ/mol
# Density = 2.080275 g / cm^3
# Si number density = 20.850210 Si / 1000 Ang^3
#
#
#
# Elastic Constant Matrix: (Units=GPa)
#
#
# Indices 1 2 3 4 5 6 
#
# 1 106.9607 41.6287 30.7523 0.0000 0.0000 0.0000
# 2 41.6287 113.5774 34.5193 0.0000 0.0000 0.0000
# 3 30.7523 34.5193 129.9028 0.0000 0.0000 0.0000
# 4 0.0000 0.0000 0.0000 4.3695 0.0000 0.0000
# 5 0.0000 0.0000 0.0000 0.0000 363.0950 0.0000
# 6 0.0000 0.0000 0.0000 0.0000 0.0000 30.5849
#
#
#
# Elastic Compliance Matrix: (Units=1/GPa)
#
#
# Indices 1 2 3 4 5 6 
#
# 1 0.011241 -0.003602 -0.001704 0.000000 0.000000 0.000000
# 2 -0.003602 0.010732 -0.001999 0.000000 0.000000 0.000000
# 3 -0.001704 -0.001999 0.008633 0.000000 0.000000 0.000000
# 4 0.000000 0.000000 0.000000 0.228861 0.000000 0.000000
# 5 0.000000 0.000000 0.000000 0.000000 0.002754 0.000000
# 6 0.000000 0.000000 0.000000 0.000000 0.000000 0.032696
#
#
# Mechanical properties :
#
#
# Convention : Reuss Voigt Hill
#
# Bulk Modulus (GPa) = 62.51731 62.69348 62.60540
# Shear Modulus (GPa) = 15.88011 95.84591 55.86301
#
# Velocity S-wave (km/s) = 2.76276 6.78738 5.18177
# Velocity P-wave (km/s) = 6.34241 9.56862 8.11741
#
# Compressibility (1/GPa) = 0.01599557
#
# Stress axis : x y z
#
# Youngs Moduli (GPa) = 88.95924 93.17502 115.83886
#
# Poissons Ratio (x) = 0.33564 0.19738
# Poissons Ratio (y) = 0.32045 0.23158
# Poissons Ratio (z) = 0.15158 0.18627
#
# Static dielectric constant tensor:
#      x y z
#    x 4.080120 0.000000 0.000000 
#    y 0.000000 4.011750 0.000000 
#    z 0.000000 0.000000 3.923970 
# 
# 
# High freq. dielectric constant tensor:
#      x y z
#    x 1.803900 0.000000 0.000000 
#    y 0.000000 1.812820 0.000000 
#    z 0.000000 0.000000 1.830810 
# 
# From -- ./inp_files/63677.got.cif
#   From: 2010.03.12/outbox.cif.g09.slc.cpg/sg65_32_cif.got.tgz:63677.got - 2010.04.10 20:52:16.
