data_PCOD8274565
_publ_section_title
;
Structure prediction by ZEFSAII (Michael W. Deem and Ramdas Pophale) SiO2 
 PCOD8274565
Probable space group: C M M M
;
_chemical_formula_sum "Si O2"
_cell_formula_units_Z 56
_cell_length_a 15.883289
_cell_length_b 8.633741
_cell_length_c 19.613440
_cell_angle_alpha 90.000000
_cell_angle_beta 90.000000
_cell_angle_gamma 90.000000
_cell_volume 2689.634245
_symmetry_space_group_name_H-M "C M M M"
_symmetry_group_IT_number 65
_symmetry_cell_setting 'orthorhombic'
loop_
_space_group_symop_operation_xyz
x,y,z
-x,-y,z
x,-y,-z
-x,y,-z
-x,-y,-z
x,y,-z
-x,y,z
x,-y,z
1/2+x,1/2+y,z
1/2-x,1/2-y,z
1/2+x,1/2-y,-z
1/2-x,1/2+y,-z
1/2-x,1/2-y,-z
1/2+x,1/2+y,-z
1/2-x,1/2+y,z
1/2+x,1/2-y,z
loop_
_atom_site_type_symbol
_atom_site_label
_atom_site_fract_x
_atom_site_fract_y
_atom_site_fract_z
Si Si1 0.661456 0.679356 0.798551
Si Si2 0.843420 0.316869 0.342944
Si Si3 0.597281 0.830340 0.926153
Si Si4 0.500000 0.323224 0.580592
O O1 0.666815 0.500000 0.779661
O O2 0.750000 0.750000 0.818247
O O3 0.625258 0.767384 0.732380
O O4 0.607613 0.704977 0.866415
O O5 0.837364 0.500000 0.348168
O O6 0.750000 0.250000 0.359203
O O7 0.914174 0.258093 0.394863
O O8 0.500000 0.852666 0.936753
O O9 0.636240 0.000000 0.906529
O O10 0.635300 0.775343 0.000000
O O11 0.500000 0.500000 0.606466
O O12 0.500000 0.312722 0.500000
#
# Coordination Sequence:
#
# PCOD8274565 Si02
#       4
#    16  16  16   8
#     4  11  22  37  58  84 116 153 199 250 301 361
#     4  11  23  42  67  95 130 169 211 261 313 371
#     4   9  19  36  56  79 111 151 196 246 302 362
#     4  11  25  45  69  99 132 167 210 255 305 371
#
# _framework density 20.820675000000001
#
# number of rings (size 3 to 8) (size 9 to 14) (size 15 to 20)
#    0.000    1.571    0.000    8.143    2.000    3.429 
#    0.000    1.429    0.000    0.000    0.000    0.000 
#    0.000    0.000    0.000    0.000    0.000    0.000 
#
# Total GULP energy -347001.149662 kJ/mol
# GULP energy per Si atom -12392.898202 kJ/mol
# Density = 2.077329 g / cm^3
# Si number density = 20.820675 Si / 1000 Ang^3
#
#
#
# Elastic Constant Matrix: (Units=GPa)
#
#
# Indices 1 2 3 4 5 6 
#
# 1 84.3447 52.0293 51.1649 0.0000 0.0000 0.0000
# 2 52.0293 174.6632 54.8656 0.0000 0.0000 0.0000
# 3 51.1649 54.8656 112.4858 0.0000 0.0000 0.0000
# 4 0.0000 0.0000 0.0000 35.9864 0.0000 0.0000
# 5 0.0000 0.0000 0.0000 0.0000 -6.2892 0.0000
# 6 0.0000 0.0000 0.0000 0.0000 0.0000 31.9304
#
#
#
# Elastic Compliance Matrix: (Units=1/GPa)
#
#
# Indices 1 2 3 4 5 6 
#
# 1 0.017820 -0.003262 -0.006515 0.000000 0.000000 0.000000
# 2 -0.003262 0.007358 -0.002105 0.000000 0.000000 0.000000
# 3 -0.006515 -0.002105 0.012880 0.000000 0.000000 0.000000
# 4 0.000000 0.000000 0.000000 0.027788 0.000000 0.000000
# 5 0.000000 0.000000 0.000000 0.000000 -0.159002 0.000000
# 6 0.000000 0.000000 0.000000 0.000000 0.000000 0.031318
#
#
# Mechanical properties :
#
#
# Convention : Reuss Voigt Hill
#
# Bulk Modulus (GPa) = 69.95539 76.40149 73.17844
# Shear Modulus (GPa) = -150.11227 26.55443 -61.77892
#
# Velocity S-wave (km/s) = -8.50025 3.57513 -5.45310
# Velocity P-wave (km/s) = 7.91625 7.33599 2.10360
#
# Compressibility (1/GPa) = 0.01429482
#
# Stress axis : x y z
#
# Youngs Moduli (GPa) = 56.11622 135.90053 77.63910
#
# Poissons Ratio (x) = 0.44330 0.50579
# Poissons Ratio (y) = 0.18305 0.16346
# Poissons Ratio (z) = 0.36557 0.28612
#
# Static dielectric constant tensor:
#      x y z
#    x 3.671730 0.000000 0.000000 
#    y 0.000000 3.943490 0.000000 
#    z 0.000000 0.000000 3.912210 
# 
# 
# High freq. dielectric constant tensor:
#      x y z
#    x 1.804870 0.000000 0.000000 
#    y 0.000000 1.822520 0.000000 
#    z 0.000000 0.000000 1.823140 
# 
# From -- ./inp_files/48766.got.cif
#   From: 2010.03.12/outbox.cif.g09.slc.cpg/sg65_25_cif.got.tgz:48766.got - 2010.04.10 20:52:16.
