data_PCOD8274753
_publ_section_title
;
Structure prediction by ZEFSAII (Michael W. Deem and Ramdas Pophale) SiO2 
 PCOD8274753
Probable space group: C M M M
;
_chemical_formula_sum "Si O2"
_cell_formula_units_Z 58
_cell_length_a 9.872434
_cell_length_b 16.495295
_cell_length_c 17.271970
_cell_angle_alpha 90.000000
_cell_angle_beta 90.000000
_cell_angle_gamma 90.000000
_cell_volume 2812.718054
_symmetry_space_group_name_H-M "C M M M"
_symmetry_group_IT_number 65
_symmetry_cell_setting 'orthorhombic'
loop_
_space_group_symop_operation_xyz
x,y,z
-x,-y,z
x,-y,-z
-x,y,-z
-x,-y,-z
x,y,-z
-x,y,z
x,-y,z
1/2+x,1/2+y,z
1/2-x,1/2-y,z
1/2+x,1/2-y,-z
1/2-x,1/2+y,-z
1/2-x,1/2-y,-z
1/2+x,1/2+y,-z
1/2-x,1/2+y,z
1/2+x,1/2-y,z
loop_
_atom_site_type_symbol
_atom_site_label
_atom_site_fract_x
_atom_site_fract_y
_atom_site_fract_z
Si Si1 0.845306 0.676043 0.844976
Si Si2 0.000000 0.867174 0.632222
Si Si3 0.160758 0.409777 0.000000
Si Si4 0.500000 0.500000 0.500000
Si Si5 0.215508 0.406147 0.308837
Si Si6 0.000000 0.681549 0.589457
O O1 0.750000 0.750000 0.821031
O O2 0.788263 0.637213 0.924021
O O3 0.839993 0.609703 0.777153
O O4 0.000000 0.706010 0.855242
O O5 0.000000 0.930558 0.563881
O O6 0.128860 0.880021 0.687343
O O7 0.000000 0.777503 0.597716
O O8 0.223721 0.500000 0.000000
O O9 0.000000 0.415857 0.000000
O O10 0.195015 0.500000 0.329280
O O11 0.134218 0.354895 0.372168
O O12 0.000000 0.656300 0.500000
#
# Coordination Sequence:
#
# PCOD8274753 Si02
#       6
#    16   8   8   2  16   8
#     4  11  23  41  67  98 134 174 223 277 331 400
#     4  12  26  47  68  95 127 179 220 273 336 405
#     4   9  19  38  67  97 130 175 222 274 333 396
#     4  12  24  48  72  94 134 170 236 266 344 412
#     4  12  26  44  66  97 133 175 220 277 333 395
#     4  12  27  42  68  97 132 168 221 277 334 394
#
# _framework density 20.620622999999998
#
# number of rings (size 3 to 8) (size 9 to 14) (size 15 to 20)
#    0.000    0.690    3.448    4.138    3.862    3.310 
#    0.000    0.000    0.000    0.828    0.000    0.000 
#    0.000    0.000    0.000    0.000    0.000    0.000 
#
# Total GULP energy -359258.605532 kJ/mol
# GULP energy per Si atom -12388.227777 kJ/mol
# Density = 2.057369 g / cm^3
# Si number density = 20.620623 Si / 1000 Ang^3
#
#
#
# Elastic Constant Matrix: (Units=GPa)
#
#
# Indices 1 2 3 4 5 6 
#
# 1 109.8003 45.7608 32.1094 0.0000 0.0000 0.0000
# 2 45.7608 149.0504 46.9459 0.0000 0.0000 0.0000
# 3 32.1094 46.9459 154.7901 0.0000 0.0000 0.0000
# 4 0.0000 0.0000 0.0000 39.9370 0.0000 0.0000
# 5 0.0000 0.0000 0.0000 0.0000 -4.4932 0.0000
# 6 0.0000 0.0000 0.0000 0.0000 0.0000 19.2286
#
#
#
# Elastic Compliance Matrix: (Units=1/GPa)
#
#
# Indices 1 2 3 4 5 6 
#
# 1 0.010694 -0.002857 -0.001352 0.000000 0.000000 0.000000
# 2 -0.002857 0.008181 -0.001889 0.000000 0.000000 0.000000
# 3 -0.001352 -0.001889 0.007314 0.000000 0.000000 0.000000
# 4 0.000000 0.000000 0.000000 0.025039 0.000000 0.000000
# 5 0.000000 0.000000 0.000000 0.000000 -0.222560 0.000000
# 6 0.000000 0.000000 0.000000 0.000000 0.000000 0.052006
#
#
# Mechanical properties :
#
#
# Convention : Reuss Voigt Hill
#
# Bulk Modulus (GPa) = 71.46332 73.69700 72.58016
# Shear Modulus (GPa) = -48.79615 30.18947 -9.30334
#
# Velocity S-wave (km/s) = -4.86982 3.83043 -2.12637
# Velocity P-wave (km/s) = 1.76389 7.44177 5.40792
#
# Compressibility (1/GPa) = 0.01399319
#
# Stress axis : x y z
#
# Youngs Moduli (GPa) = 93.51428 122.23121 136.73320
#
# Poissons Ratio (x) = 0.34926 0.18482
# Poissons Ratio (y) = 0.26720 0.25823
# Poissons Ratio (z) = 0.12640 0.23084
#
# Static dielectric constant tensor:
#      x y z
#    x 3.703670 0.000000 0.000000 
#    y 0.000000 3.923160 0.000000 
#    z 0.000000 0.000000 3.861280 
# 
# 
# High freq. dielectric constant tensor:
#      x y z
#    x 1.791250 0.000000 0.000000 
#    y 0.000000 1.825070 0.000000 
#    z 0.000000 0.000000 1.822280 
# 
# From -- ./inp_files/48901.got.cif
#   From: 2010.03.12/outbox.cif.g09.slc.cpg/sg65_25_cif.got.tgz:48901.got - 2010.04.10 20:52:16.
