data_PCOD8274040
_publ_section_title
;
Structure prediction by ZEFSAII (Michael W. Deem and Ramdas Pophale) SiO2 
 PCOD8274040
Probable space group: C M M M
;
_chemical_formula_sum "Si O2"
_cell_formula_units_Z 68
_cell_length_a 9.965014
_cell_length_b 23.193839
_cell_length_c 15.610263
_cell_angle_alpha 90.000000
_cell_angle_beta 90.000000
_cell_angle_gamma 90.000000
_cell_volume 3607.952169
_symmetry_space_group_name_H-M "C M M M"
_symmetry_group_IT_number 65
_symmetry_cell_setting 'orthorhombic'
loop_
_space_group_symop_operation_xyz
x,y,z
-x,-y,z
x,-y,-z
-x,y,-z
-x,-y,-z
x,y,-z
-x,y,z
x,-y,z
1/2+x,1/2+y,z
1/2-x,1/2-y,z
1/2+x,1/2-y,-z
1/2-x,1/2+y,-z
1/2-x,1/2-y,-z
1/2+x,1/2+y,-z
1/2-x,1/2+y,z
1/2+x,1/2-y,z
loop_
_atom_site_type_symbol
_atom_site_label
_atom_site_fract_x
_atom_site_fract_y
_atom_site_fract_z
Si Si1 0.248366 0.898993 0.705408
Si Si2 0.500000 0.931029 0.399226
Si Si3 0.662355 0.307072 0.165925
Si Si4 0.651468 0.000000 0.185808
Si Si5 0.764854 0.500000 0.000000
Si Si6 0.500000 0.566953 0.406483
Si Si7 0.653826 0.375141 0.000000
O O1 0.375603 0.898334 0.643336
O O2 0.212275 0.837733 0.747109
O O3 0.268520 0.944283 0.782220
O O4 0.128530 0.916492 0.645807
O O5 0.500000 0.918984 0.500000
O O6 0.500000 0.000000 0.381343
O O7 0.500000 0.296209 0.168033
O O8 0.750000 0.250000 0.158335
O O9 0.711522 0.345865 0.085778
O O10 0.500000 0.000000 0.222644
O O11 0.641815 0.000000 0.083353
O O12 0.672899 0.556435 0.000000
O O13 0.500000 0.500000 0.422321
O O14 0.500000 0.597633 0.500000
O O15 0.500000 0.360673 0.000000
#
# Coordination Sequence:
#
# PCOD8274040 Si02
#       7
#    16   8  16   8   4   8   8
#     4  12  21  39  63  90 130 163 208 258 305 377
#     4  11  22  38  63  97 132 167 200 248 320 389
#     4  11  25  43  65  90 122 168 219 264 306 357
#     4  12  23  38  57  93 131 173 211 244 307 369
#     4  12  22  38  62  94 138 169 189 250 322 367
#     4  11  22  36  61  99 130 157 194 254 324 385
#     4  10  22  40  62  96 128 162 207 252 306 372
#
# _framework density 18.847256000000002
#
# number of rings (size 3 to 8) (size 9 to 14) (size 15 to 20)
#    0.000    0.706    7.059    1.412    1.647    1.882 
#    2.118    0.000    0.000    4.235    0.000    0.000 
#    0.000    0.000    0.000    0.000    0.000    0.000 
#
# Total GULP energy -421473.961655 kJ/mol
# GULP energy per Si atom -12396.292990 kJ/mol
# Density = 1.880436 g / cm^3
# Si number density = 18.847256 Si / 1000 Ang^3
#
#
#
# Elastic Constant Matrix: (Units=GPa)
#
#
# Indices 1 2 3 4 5 6 
#
# 1 136.0441 47.6734 66.3691 0.0000 0.0000 0.0000
# 2 47.6734 117.0218 53.2859 0.0000 0.0000 0.0000
# 3 66.3691 53.2859 154.8064 0.0000 0.0000 0.0000
# 4 0.0000 0.0000 0.0000 24.1605 0.0000 0.0000
# 5 0.0000 0.0000 0.0000 0.0000 36.7684 0.0000
# 6 0.0000 0.0000 0.0000 0.0000 0.0000 32.1444
#
#
#
# Elastic Compliance Matrix: (Units=1/GPa)
#
#
# Indices 1 2 3 4 5 6 
#
# 1 0.009867 -0.002483 -0.003376 0.000000 0.000000 0.000000
# 2 -0.002483 0.010758 -0.002639 0.000000 0.000000 0.000000
# 3 -0.003376 -0.002639 0.008815 0.000000 0.000000 0.000000
# 4 0.000000 0.000000 0.000000 0.041390 0.000000 0.000000
# 5 0.000000 0.000000 0.000000 0.000000 0.027197 0.000000
# 6 0.000000 0.000000 0.000000 0.000000 0.000000 0.031110
#
#
# Mechanical properties :
#
#
# Convention : Reuss Voigt Hill
#
# Bulk Modulus (GPa) = 80.34369 82.50326 81.42348
# Shear Modulus (GPa) = 33.27094 34.65093 33.96094
#
# Velocity S-wave (km/s) = 4.20610 4.29244 4.24949
# Velocity P-wave (km/s) = 8.14308 8.27263 8.20811
#
# Compressibility (1/GPa) = 0.01244653
#
# Stress axis : x y z
#
# Youngs Moduli (GPa) = 101.34314 92.95059 113.43958
#
# Poissons Ratio (x) = 0.23077 0.38295
# Poissons Ratio (y) = 0.25161 0.29934
# Poissons Ratio (z) = 0.34212 0.24527
#
# Static dielectric constant tensor:
#      x y z
#    x 3.355290 0.000000 0.000000 
#    y 0.000000 3.314160 0.000000 
#    z 0.000000 0.000000 3.999580 
# 
# 
# High freq. dielectric constant tensor:
#      x y z
#    x 1.738800 0.000000 0.000000 
#    y 0.000000 1.708700 0.000000 
#    z 0.000000 0.000000 1.756040 
# 
# From -- ./inp_files/49294.got.cif
#   From: 2010.03.12/outbox.cif.g09.slc.cpg/sg65_25_cif.got.tgz:49294.got - 2010.04.10 20:52:16.
