data_PCOD8274530
_publ_section_title
;
Structure prediction by ZEFSAII (Michael W. Deem and Ramdas Pophale) SiO2 
 PCOD8274530
Probable space group: C M M M
;
_chemical_formula_sum "Si O2"
_cell_formula_units_Z 72
_cell_length_a 14.444501
_cell_length_b 27.444784
_cell_length_c 8.769943
_cell_angle_alpha 90.000000
_cell_angle_beta 90.000000
_cell_angle_gamma 90.000000
_cell_volume 3476.635265
_symmetry_space_group_name_H-M "C M M M"
_symmetry_group_IT_number 65
_symmetry_cell_setting 'orthorhombic'
loop_
_space_group_symop_operation_xyz
x,y,z
-x,-y,z
x,-y,-z
-x,y,-z
-x,-y,-z
x,y,-z
-x,y,z
x,-y,z
1/2+x,1/2+y,z
1/2-x,1/2-y,z
1/2+x,1/2-y,-z
1/2-x,1/2+y,-z
1/2-x,1/2-y,-z
1/2+x,1/2+y,-z
1/2-x,1/2+y,z
1/2+x,1/2-y,z
loop_
_atom_site_type_symbol
_atom_site_label
_atom_site_fract_x
_atom_site_fract_y
_atom_site_fract_z
Si Si1 0.394894 0.133312 0.677144
Si Si2 0.398121 0.668863 0.327775
Si Si3 0.275491 0.591315 0.178932
Si Si4 0.643772 0.763556 0.826884
Si Si5 0.105364 0.000000 0.818514
O O1 0.376030 0.142193 0.500000
O O2 0.500000 0.115469 0.706344
O O3 0.324729 0.091808 0.739424
O O4 0.376035 0.183022 0.765349
O O5 0.358900 0.666486 0.500000
O O6 0.500000 0.644654 0.320029
O O7 0.328784 0.641310 0.214943
O O8 0.410235 0.724607 0.275609
O O9 0.338233 0.546956 0.241224
O O10 0.258712 0.587031 0.000000
O O11 0.750000 0.750000 0.814851
O O12 0.607861 0.760957 0.000000
O O13 0.000000 0.000000 0.753047
O O14 0.100848 0.000000 0.000000
#
# Coordination Sequence:
#
# PCOD8274530 Si02
#       5
#    16  16  16  16   8
#     4  11  24  41  61  86 120 163 204 246 299 354
#     4  11  23  37  56  85 121 160 198 240 294 355
#     4  11  22  39  64  91 118 153 197 247 301 354
#     4  11  22  36  57  87 119 157 203 250 297 345
#     4   9  20  40  66  95 124 152 187 239 302 361
#
# _framework density 20.709679000000001
#
# number of rings (size 3 to 8) (size 9 to 14) (size 15 to 20)
#    0.000    1.222    2.222    4.000    0.000    8.000 
#    0.000    2.778    0.000    7.333    0.000    0.000 
#    0.000    0.000    0.000    0.000    0.000    0.000 
#
# Total GULP energy -446461.781973 kJ/mol
# GULP energy per Si atom -12401.716166 kJ/mol
# Density = 2.066254 g / cm^3
# Si number density = 20.709679 Si / 1000 Ang^3
#
#
#
# Elastic Constant Matrix: (Units=GPa)
#
#
# Indices 1 2 3 4 5 6 
#
# 1 153.7760 50.2901 43.9613 0.0000 0.0000 0.0000
# 2 50.2901 88.2169 17.5911 0.0000 0.0000 0.0000
# 3 43.9613 17.5911 92.4570 0.0000 0.0000 0.0000
# 4 0.0000 0.0000 0.0000 2.0139 0.0000 0.0000
# 5 0.0000 0.0000 0.0000 0.0000 26.7815 0.0000
# 6 0.0000 0.0000 0.0000 0.0000 0.0000 31.4290
#
#
#
# Elastic Compliance Matrix: (Units=1/GPa)
#
#
# Indices 1 2 3 4 5 6 
#
# 1 0.008916 -0.004404 -0.003401 0.000000 0.000000 0.000000
# 2 -0.004404 0.013958 -0.000562 0.000000 0.000000 0.000000
# 3 -0.003401 -0.000562 0.012540 0.000000 0.000000 0.000000
# 4 0.000000 0.000000 0.000000 0.496554 0.000000 0.000000
# 5 0.000000 0.000000 0.000000 0.000000 0.037339 0.000000
# 6 0.000000 0.000000 0.000000 0.000000 0.000000 0.031818
#
#
# Mechanical properties :
#
#
# Convention : Reuss Voigt Hill
#
# Bulk Modulus (GPa) = 53.53408 62.01500 57.77454
# Shear Modulus (GPa) = 8.01171 26.88536 17.44854
#
# Velocity S-wave (km/s) = 1.96901 3.60697 2.90579
# Velocity P-wave (km/s) = 5.57451 6.88163 6.26227
#
# Compressibility (1/GPa) = 0.01867969
#
# Stress axis : x y z
#
# Youngs Moduli (GPa) = 112.16191 71.64099 79.74543
#
# Poissons Ratio (x) = 0.31553 0.27123
# Poissons Ratio (y) = 0.49400 0.04479
# Poissons Ratio (z) = 0.38149 0.04023
#
# Static dielectric constant tensor:
#      x y z
#    x 4.150910 0.000000 0.000000 
#    y 0.000000 3.639040 0.000000 
#    z 0.000000 0.000000 3.707270 
# 
# 
# High freq. dielectric constant tensor:
#      x y z
#    x 1.829960 0.000000 0.000000 
#    y 0.000000 1.784950 0.000000 
#    z 0.000000 0.000000 1.808950 
# 
# From -- ./inp_files/7278.got.cif
#   From: 2010.03.12/outbox.cif.g09.slc.cpg/sg65_4_cif.got.tgz:7278.got - 2010.04.10 20:52:16.
