data_PCOD8274029
_publ_section_title
;
Structure prediction by ZEFSAII (Michael W. Deem and Ramdas Pophale) SiO2 
 PCOD8274029
Probable space group: C M M M
;
_chemical_formula_sum "Si O2"
_cell_formula_units_Z 88
_cell_length_a 8.727987
_cell_length_b 18.294615
_cell_length_c 27.996700
_cell_angle_alpha 90.000000
_cell_angle_beta 90.000000
_cell_angle_gamma 90.000000
_cell_volume 4470.377605
_symmetry_space_group_name_H-M "C M M M"
_symmetry_group_IT_number 65
_symmetry_cell_setting 'orthorhombic'
loop_
_space_group_symop_operation_xyz
x,y,z
-x,-y,z
x,-y,-z
-x,y,-z
-x,-y,-z
x,y,-z
-x,y,z
x,-y,z
1/2+x,1/2+y,z
1/2-x,1/2-y,z
1/2+x,1/2-y,-z
1/2-x,1/2+y,-z
1/2-x,1/2-y,-z
1/2+x,1/2+y,-z
1/2-x,1/2+y,z
1/2+x,1/2-y,z
loop_
_atom_site_type_symbol
_atom_site_label
_atom_site_fract_x
_atom_site_fract_y
_atom_site_fract_z
Si Si1 0.319277 0.330237 0.088199
Si Si2 0.672572 0.913762 0.553398
Si Si3 0.678721 0.326743 0.633914
Si Si4 0.680413 0.171694 0.733412
Si Si5 0.822180 0.915593 0.816649
Si Si6 0.319715 0.915031 0.000000
O O1 0.500000 0.325019 0.081399
O O2 0.250000 0.250000 0.087027
O O3 0.273471 0.368731 0.137550
O O4 0.250809 0.378638 0.046441
O O5 0.715414 0.886719 0.500000
O O6 0.500000 0.888139 0.566183
O O7 0.792739 0.882419 0.590991
O O8 0.683740 0.000000 0.555725
O O9 0.500000 0.317829 0.643345
O O10 0.750000 0.250000 0.618461
O O11 0.755923 0.355617 0.682537
O O12 0.500000 0.180347 0.730086
O O13 0.750000 0.250000 0.747973
O O14 0.722781 0.111059 0.772136
O O15 0.000000 0.904309 0.804411
O O16 0.784176 0.000000 0.826964
O O17 0.500000 0.902219 0.000000
O O18 0.275763 0.000000 0.000000
#
# Coordination Sequence:
#
# PCOD8274029 Si02
#       6
#    16  16  16  16  16   8
#     4  11  23  40  63  89 119 156 196 238 286 341
#     4   9  19  37  59  82 111 147 186 230 281 337
#     4  11  22  37  58  83 113 148 188 235 283 335
#     4  11  22  38  60  84 113 149 189 233 283 339
#     4  10  22  40  61  87 118 151 190 236 285 337
#     4  11  24  41  62  89 121 155 194 243 292 339
#
# _framework density 19.685137999999998
#
# number of rings (size 3 to 8) (size 9 to 14) (size 15 to 20)
#    0.000    1.545    0.000    7.091    0.000    6.545 
#    0.000    0.909    0.000    0.000    0.000    0.000 
#    0.000    0.000    0.000    0.000    0.000    0.000 
#
# Total GULP energy -545802.894761 kJ/mol
# GULP energy per Si atom -12404.611245 kJ/mol
# Density = 1.964033 g / cm^3
# Si number density = 19.685138 Si / 1000 Ang^3
#
#
#
# Elastic Constant Matrix: (Units=GPa)
#
#
# Indices 1 2 3 4 5 6 
#
# 1 130.2200 54.6942 64.4896 0.0000 0.0000 0.0000
# 2 54.6942 105.6129 71.1301 0.0000 0.0000 0.0000
# 3 64.4896 71.1301 140.9065 0.0000 0.0000 0.0000
# 4 0.0000 0.0000 0.0000 53.6163 0.0000 0.0000
# 5 0.0000 0.0000 0.0000 0.0000 47.9923 0.0000
# 6 0.0000 0.0000 0.0000 0.0000 0.0000 25.8291
#
#
#
# Elastic Compliance Matrix: (Units=1/GPa)
#
#
# Indices 1 2 3 4 5 6 
#
# 1 0.010675 -0.003391 -0.003174 0.000000 0.000000 0.000000
# 2 -0.003391 0.015423 -0.006234 0.000000 0.000000 0.000000
# 3 -0.003174 -0.006234 0.011696 0.000000 0.000000 0.000000
# 4 0.000000 0.000000 0.000000 0.018651 0.000000 0.000000
# 5 0.000000 0.000000 0.000000 0.000000 0.020837 0.000000
# 6 0.000000 0.000000 0.000000 0.000000 0.000000 0.038716
#
#
# Mechanical properties :
#
#
# Convention : Reuss Voigt Hill
#
# Bulk Modulus (GPa) = 81.98384 84.15191 83.06788
# Shear Modulus (GPa) = 34.32612 37.91591 36.12101
#
# Velocity S-wave (km/s) = 4.18036 4.39352 4.28827
# Velocity P-wave (km/s) = 8.06465 8.28125 8.17367
#
# Compressibility (1/GPa) = 0.01219753
#
# Stress axis : x y z
#
# Youngs Moduli (GPa) = 93.67281 64.83882 85.49574
#
# Poissons Ratio (x) = 0.21985 0.27139
# Poissons Ratio (y) = 0.31761 0.53295
# Poissons Ratio (z) = 0.29734 0.40418
#
# Static dielectric constant tensor:
#      x y z
#    x 3.723100 0.000000 0.000000 
#    y 0.000000 3.541120 0.000000 
#    z 0.000000 0.000000 3.815980 
# 
# 
# High freq. dielectric constant tensor:
#      x y z
#    x 1.774440 0.000000 0.000000 
#    y 0.000000 1.768210 0.000000 
#    z 0.000000 0.000000 1.781860 
# 
# From -- ./inp_files/67524.got.cif
#   From: 2010.03.12/outbox.cif.g09.slc.cpg/sg65_34_cif.got.tgz:67524.got - 2010.04.10 20:52:16.
