data_PCOD8274996
_publ_section_title
;
Structure prediction by ZEFSAII (Michael W. Deem and Ramdas Pophale) SiO2 
 PCOD8274996
Probable space group: C M M M
;
_chemical_formula_sum "Si O2"
_cell_formula_units_Z 80
_cell_length_a 10.347550
_cell_length_b 30.104516
_cell_length_c 19.234062
_cell_angle_alpha 90.000000
_cell_angle_beta 90.000000
_cell_angle_gamma 90.000000
_cell_volume 5991.563888
_symmetry_space_group_name_H-M "C M M M"
_symmetry_group_IT_number 65
_symmetry_cell_setting 'orthorhombic'
loop_
_space_group_symop_operation_xyz
x,y,z
-x,-y,z
x,-y,-z
-x,y,-z
-x,-y,-z
x,y,-z
-x,y,z
x,-y,z
1/2+x,1/2+y,z
1/2-x,1/2-y,z
1/2+x,1/2-y,-z
1/2-x,1/2+y,-z
1/2-x,1/2-y,-z
1/2+x,1/2+y,-z
1/2-x,1/2+y,z
1/2+x,1/2-y,z
loop_
_atom_site_type_symbol
_atom_site_label
_atom_site_fract_x
_atom_site_fract_y
_atom_site_fract_z
Si Si1 0.151531 0.448731 0.694938
Si Si2 0.152762 0.616771 0.423169
Si Si3 0.500000 0.053072 0.078073
Si Si4 0.752651 0.552620 0.843041
Si Si5 0.500000 0.553032 0.920338
Si Si6 0.855630 0.284046 0.417355
O O1 0.174927 0.500000 0.675703
O O2 0.205511 0.419457 0.631165
O O3 0.234910 0.434317 0.762097
O O4 0.000000 0.440256 0.710387
O O5 0.212820 0.607733 0.500000
O O6 0.188446 0.666185 0.396564
O O7 0.000000 0.612530 0.428936
O O8 0.625923 0.072698 0.115688
O O9 0.500000 0.000000 0.081054
O O10 0.500000 0.070837 0.000000
O O11 0.754168 0.500000 0.850300
O O12 0.623482 0.571891 0.878474
O O13 0.500000 0.500000 0.920558
O O14 0.500000 0.570486 0.000000
O O15 0.860111 0.280346 0.500000
O O16 0.750000 0.250000 0.385768
O O17 0.000000 0.273450 0.388043
#
# Coordination Sequence:
#
# PCOD8274996 Si02
#       6
#    16  16   8  16   8  16
#     4   9  15  23  35  50  70  97 128 159 185 210
#     4   8  14  23  35  53  74  95 123 156 187 217
#     4   9  14  20  32  48  65  83 108 145 181 209
#     4   9  15  23  33  47  65  88 117 147 179 215
#     4   9  16  24  34  48  65  85 114 151 183 213
#     4   8  13  22  37  55  73  91 111 141 182 224
#
# _framework density 13.352105999999999
#
# number of rings (size 3 to 8) (size 9 to 14) (size 15 to 20)
#    0.000    3.400    1.000    1.800    0.000    2.800 
#    0.000    2.000    2.200    0.000    0.000    0.000 
#    0.000    4.000    0.000    0.000    0.000    6.000 
#
# Total GULP energy -495676.747764 kJ/mol
# GULP energy per Si atom -12391.918694 kJ/mol
# Density = 1.332172 g / cm^3
# Si number density = 13.352106 Si / 1000 Ang^3
#
#
#
# Elastic Constant Matrix: (Units=GPa)
#
#
# Indices 1 2 3 4 5 6 
#
# 1 78.8209 29.1573 46.4135 0.0000 0.0000 0.0000
# 2 29.1573 53.2492 43.4082 0.0000 0.0000 0.0000
# 3 46.4135 43.4082 93.0750 0.0000 0.0000 0.0000
# 4 0.0000 0.0000 0.0000 0.9195 0.0000 0.0000
# 5 0.0000 0.0000 0.0000 0.0000 16.3632 0.0000
# 6 0.0000 0.0000 0.0000 0.0000 0.0000 10.8739
#
#
#
# Elastic Compliance Matrix: (Units=1/GPa)
#
#
# Indices 1 2 3 4 5 6 
#
# 1 0.018530 -0.004217 -0.007274 0.000000 0.000000 0.000000
# 2 -0.004217 0.031258 -0.012475 0.000000 0.000000 0.000000
# 3 -0.007274 -0.012475 0.020189 0.000000 0.000000 0.000000
# 4 0.000000 0.000000 0.000000 1.087565 0.000000 0.000000
# 5 0.000000 0.000000 0.000000 0.000000 0.061113 0.000000
# 6 0.000000 0.000000 0.000000 0.000000 0.000000 0.091964
#
#
# Mechanical properties :
#
#
# Convention : Reuss Voigt Hill
#
# Bulk Modulus (GPa) = 45.35996 51.45591 48.40793
# Shear Modulus (GPa) = 3.66059 12.70906 8.18482
#
# Velocity S-wave (km/s) = 1.65757 3.08854 2.47857
# Velocity P-wave (km/s) = 6.14079 7.16520 6.67268
#
# Compressibility (1/GPa) = 0.02204588
#
# Stress axis : x y z
#
# Youngs Moduli (GPa) = 53.96671 31.99131 49.53107
#
# Poissons Ratio (x) = 0.13491 0.36027
# Poissons Ratio (y) = 0.22758 0.61792
# Poissons Ratio (z) = 0.39253 0.39910
#
# Static dielectric constant tensor:
#      x y z
#    x 2.742580 0.000000 0.000000 
#    y 0.000000 2.422870 0.000000 
#    z 0.000000 0.000000 2.764630 
# 
# 
# High freq. dielectric constant tensor:
#      x y z
#    x 1.494310 0.000000 0.000000 
#    y 0.000000 1.455640 0.000000 
#    z 0.000000 0.000000 1.497950 
# 
# From -- ./inp_files/60568.got.cif
#   From: 2010.03.12/outbox.cif.g09.slc.cpg/sg65_31_cif.got.tgz:60568.got - 2010.04.10 20:52:16.
