data_PCOD8274612
_publ_section_title
;
Structure prediction by ZEFSAII (Michael W. Deem and Ramdas Pophale) SiO2 
 PCOD8274612
Probable space group: C M M M
;
_chemical_formula_sum "Si O2"
_cell_formula_units_Z 88
_cell_length_a 17.217887
_cell_length_b 11.788769
_cell_length_c 23.163750
_cell_angle_alpha 90.000000
_cell_angle_beta 90.000000
_cell_angle_gamma 90.000000
_cell_volume 4701.724525
_symmetry_space_group_name_H-M "C M M M"
_symmetry_group_IT_number 65
_symmetry_cell_setting 'orthorhombic'
loop_
_space_group_symop_operation_xyz
x,y,z
-x,-y,z
x,-y,-z
-x,y,-z
-x,-y,-z
x,y,-z
-x,y,z
x,-y,z
1/2+x,1/2+y,z
1/2-x,1/2-y,z
1/2+x,1/2-y,-z
1/2-x,1/2+y,-z
1/2-x,1/2-y,-z
1/2+x,1/2+y,-z
1/2-x,1/2+y,z
1/2+x,1/2-y,z
loop_
_atom_site_type_symbol
_atom_site_label
_atom_site_fract_x
_atom_site_fract_y
_atom_site_fract_z
Si Si1 0.909041 0.126407 0.168005
Si Si2 0.161072 0.262442 0.064405
Si Si3 0.911814 0.500000 0.781738
Si Si4 0.592448 0.870132 0.375596
Si Si5 0.087203 0.500000 0.916891
Si Si6 0.415533 0.133600 0.500000
Si Si7 0.159777 0.725456 0.734666
O O1 0.890003 0.197304 0.111016
O O2 0.876297 0.174459 0.227725
O O3 0.000000 0.126413 0.175193
O O4 0.875603 0.000000 0.159897
O O5 0.250000 0.250000 0.084317
O O6 0.135487 0.392558 0.061629
O O7 0.150024 0.210015 0.000000
O O8 0.921385 0.500000 0.849136
O O9 0.861542 0.391953 0.764956
O O10 0.000000 0.500000 0.753970
O O11 0.500000 0.861014 0.377423
O O12 0.627029 0.835554 0.439260
O O13 0.626275 0.779680 0.330273
O O14 0.616472 0.000000 0.358608
O O15 0.000000 0.500000 0.943634
O O16 0.500000 0.193279 0.500000
O O17 0.428349 0.000000 0.500000
O O18 0.250000 0.750000 0.731260
#
# Coordination Sequence:
#
# PCOD8274612 Si02
#       7
#    16  16   8  16   8   8  16
#     4  11  25  42  60  82 113 153 195 237 283 344
#     4  11  25  41  62  89 119 151 187 236 297 354
#     4  11  22  39  64  88 112 150 197 241 293 353
#     4   9  16  30  55  84 115 150 193 240 287 341
#     4  11  23  40  67  94 115 146 194 248 294 342
#     4   7  12  24  47  82 115 145 186 239 287 332
#     4  12  24  35  58  87 118 152 192 241 294 345
#
# _framework density 18.716536999999999
#
# number of rings (size 3 to 8) (size 9 to 14) (size 15 to 20)
#    0.000    1.545    2.727    4.091    2.545    2.182 
#    0.000    1.364    0.000    0.000    0.000    0.636 
#    0.000    3.636    0.000    0.000    0.000    0.000 
#
# Total GULP energy -545329.382476 kJ/mol
# GULP energy per Si atom -12393.849602 kJ/mol
# Density = 1.867394 g / cm^3
# Si number density = 18.716537 Si / 1000 Ang^3
#
#
#
# Elastic Constant Matrix: (Units=GPa)
#
#
# Indices 1 2 3 4 5 6 
#
# 1 89.6157 41.4858 31.5455 0.0000 0.0000 0.0000
# 2 41.4858 95.0637 42.8939 0.0000 0.0000 0.0000
# 3 31.5455 42.8939 148.5396 0.0000 0.0000 0.0000
# 4 0.0000 0.0000 0.0000 -7.7206 0.0000 0.0000
# 5 0.0000 0.0000 0.0000 0.0000 111.1353 0.0000
# 6 0.0000 0.0000 0.0000 0.0000 0.0000 35.9855
#
#
#
# Elastic Compliance Matrix: (Units=1/GPa)
#
#
# Indices 1 2 3 4 5 6 
#
# 1 0.014237 -0.005575 -0.001414 0.000000 0.000000 0.000000
# 2 -0.005575 0.014279 -0.002939 0.000000 0.000000 0.000000
# 3 -0.001414 -0.002939 0.007881 0.000000 0.000000 0.000000
# 4 0.000000 0.000000 0.000000 -0.129524 0.000000 0.000000
# 5 0.000000 0.000000 0.000000 0.000000 0.008998 0.000000
# 6 0.000000 0.000000 0.000000 0.000000 0.000000 0.027789
#
#
# Mechanical properties :
#
#
# Convention : Reuss Voigt Hill
#
# Bulk Modulus (GPa) = 60.45659 62.78549 61.62104
# Shear Modulus (GPa) = -161.44635 42.36629 -59.54003
#
# Velocity S-wave (km/s) = -9.29763 4.76287 -5.64628
# Velocity P-wave (km/s) = 9.10439 7.99155 3.08425
#
# Compressibility (1/GPa) = 0.01654079
#
# Stress axis : x y z
#
# Youngs Moduli (GPa) = 70.23769 70.03514 126.88468
#
# Poissons Ratio (x) = 0.39047 0.17936
# Poissons Ratio (y) = 0.39160 0.37294
# Poissons Ratio (z) = 0.09929 0.20585
#
# Static dielectric constant tensor:
#      x y z
#    x 3.312130 0.000000 0.000000 
#    y 0.000000 3.449520 0.000000 
#    z 0.000000 0.000000 4.006470 
# 
# 
# High freq. dielectric constant tensor:
#      x y z
#    x 1.714080 0.000000 0.000000 
#    y 0.000000 1.702510 0.000000 
#    z 0.000000 0.000000 1.751970 
# 
# From -- ./inp_files/63662.got.cif
#   From: 2010.03.12/outbox.cif.g09.slc.cpg/sg65_32_cif.got.tgz:63662.got - 2010.04.10 20:52:16.
