data_PCOD8274110
_publ_section_title
;
Structure prediction by ZEFSAII (Michael W. Deem and Ramdas Pophale) SiO2 
 PCOD8274110
Probable space group: C M M M
;
_chemical_formula_sum "Si O2"
_cell_formula_units_Z 64
_cell_length_a 17.633196
_cell_length_b 10.307975
_cell_length_c 17.136270
_cell_angle_alpha 90.000000
_cell_angle_beta 90.000000
_cell_angle_gamma 90.000000
_cell_volume 3114.732022
_symmetry_space_group_name_H-M "C M M M"
_symmetry_group_IT_number 65
_symmetry_cell_setting 'orthorhombic'
loop_
_space_group_symop_operation_xyz
x,y,z
-x,-y,z
x,-y,-z
-x,y,-z
-x,-y,-z
x,y,-z
-x,y,z
x,-y,z
1/2+x,1/2+y,z
1/2-x,1/2-y,z
1/2+x,1/2-y,-z
1/2-x,1/2+y,-z
1/2-x,1/2-y,-z
1/2+x,1/2+y,-z
1/2-x,1/2+y,z
1/2+x,1/2-y,z
loop_
_atom_site_type_symbol
_atom_site_label
_atom_site_fract_x
_atom_site_fract_y
_atom_site_fract_z
Si Si1 0.915231 0.152329 0.500000
Si Si2 0.589271 0.500000 0.914827
Si Si3 0.189768 0.642452 0.911991
Si Si4 0.411035 0.730272 0.195664
Si Si5 0.178411 0.845465 0.348176
O O1 0.868072 0.195869 0.424653
O O2 0.000000 0.215666 0.500000
O O3 0.925520 0.000000 0.500000
O O4 0.500000 0.500000 0.924696
O O5 0.614284 0.625446 0.868145
O O6 0.629001 0.500000 0.000000
O O7 0.228043 0.500000 0.907954
O O8 0.250000 0.750000 0.887220
O O9 0.123794 0.641818 0.845350
O O10 0.157936 0.667475 0.000000
O O11 0.500000 0.745915 0.208467
O O12 0.376194 0.687760 0.277103
O O13 0.250000 0.750000 0.343431
O O14 0.200494 0.000000 0.348518
#
# Coordination Sequence:
#
# PCOD8274110 Si02
#       5
#     8   8  16  16  16
#     4   9  19  38  67  97 124 155 200 252 306 365
#     4   9  18  32  52  81 115 151 193 245 303 357
#     4  10  23  41  60  84 117 159 205 254 310 372
#     4  11  22  36  59  88 119 156 204 256 308 361
#     4  11  23  40  63  92 125 164 204 252 303 368
#
# _framework density 20.547512999999999
#
# number of rings (size 3 to 8) (size 9 to 14) (size 15 to 20)
#    0.000    1.750    1.250    2.625    1.750    6.000 
#    0.000    1.250    0.000    3.000    0.000    0.000 
#    0.000    0.000    0.000    0.000    0.000    0.000 
#
# Total GULP energy -396592.886357 kJ/mol
# GULP energy per Si atom -12393.527699 kJ/mol
# Density = 2.050075 g / cm^3
# Si number density = 20.547513 Si / 1000 Ang^3
#
#
#
# Elastic Constant Matrix: (Units=GPa)
#
#
# Indices 1 2 3 4 5 6 
#
# 1 138.7496 61.3547 69.6310 0.0000 0.0000 0.0000
# 2 61.3547 103.7616 46.4507 0.0000 0.0000 0.0000
# 3 69.6310 46.4507 170.7169 0.0000 0.0000 0.0000
# 4 0.0000 0.0000 0.0000 14.3816 0.0000 0.0000
# 5 0.0000 0.0000 0.0000 0.0000 25.3952 0.0000
# 6 0.0000 0.0000 0.0000 0.0000 0.0000 21.2537
#
#
#
# Elastic Compliance Matrix: (Units=1/GPa)
#
#
# Indices 1 2 3 4 5 6 
#
# 1 0.011036 -0.005136 -0.003104 0.000000 0.000000 0.000000
# 2 -0.005136 0.013365 -0.001541 0.000000 0.000000 0.000000
# 3 -0.003104 -0.001541 0.007543 0.000000 0.000000 0.000000
# 4 0.000000 0.000000 0.000000 0.069533 0.000000 0.000000
# 5 0.000000 0.000000 0.000000 0.000000 0.039377 0.000000
# 6 0.000000 0.000000 0.000000 0.000000 0.000000 0.047051
#
#
# Mechanical properties :
#
#
# Convention : Reuss Voigt Hill
#
# Bulk Modulus (GPa) = 80.77063 85.34455 83.05759
# Shear Modulus (GPa) = 23.63007 27.92556 25.77782
#
# Velocity S-wave (km/s) = 3.39487 3.69056 3.54580
# Velocity P-wave (km/s) = 7.40010 7.73212 7.56793
#
# Compressibility (1/GPa) = 0.01238074
#
# Stress axis : x y z
#
# Youngs Moduli (GPa) = 90.61180 74.82442 132.57255
#
# Poissons Ratio (x) = 0.38431 0.41148
# Poissons Ratio (y) = 0.46540 0.20436
# Poissons Ratio (z) = 0.28124 0.11534
#
# Static dielectric constant tensor:
#      x y z
#    x 3.703070 0.000000 0.000000 
#    y 0.000000 3.787550 0.000000 
#    z 0.000000 0.000000 4.014580 
# 
# 
# High freq. dielectric constant tensor:
#      x y z
#    x 1.806650 0.000000 0.000000 
#    y 0.000000 1.790110 0.000000 
#    z 0.000000 0.000000 1.817900 
# 
# From -- ./inp_files/41925.got.cif
#   From: 2010.03.12/outbox.cif.g09.slc.cpg/sg65_21_cif.got.tgz:41925.got - 2010.04.10 20:52:16.
