data_PCOD8274260
_publ_section_title
;
Structure prediction by ZEFSAII (Michael W. Deem and Ramdas Pophale) SiO2 
 PCOD8274260
Probable space group: C M M M
;
_chemical_formula_sum "Si O2"
_cell_formula_units_Z 88
_cell_length_a 24.785958
_cell_length_b 27.940699
_cell_length_c 8.993460
_cell_angle_alpha 90.000000
_cell_angle_beta 90.000000
_cell_angle_gamma 90.000000
_cell_volume 6228.303735
_symmetry_space_group_name_H-M "C M M M"
_symmetry_group_IT_number 65
_symmetry_cell_setting 'orthorhombic'
loop_
_space_group_symop_operation_xyz
x,y,z
-x,-y,z
x,-y,-z
-x,y,-z
-x,-y,-z
x,y,-z
-x,y,z
x,-y,z
1/2+x,1/2+y,z
1/2-x,1/2-y,z
1/2+x,1/2-y,-z
1/2-x,1/2+y,-z
1/2-x,1/2-y,-z
1/2+x,1/2+y,-z
1/2-x,1/2+y,z
1/2+x,1/2-y,z
loop_
_atom_site_type_symbol
_atom_site_label
_atom_site_fract_x
_atom_site_fract_y
_atom_site_fract_z
Si Si1 0.648070 0.688387 0.333372
Si Si2 0.395164 0.599369 0.823071
Si Si3 0.266183 0.143763 0.664296
Si Si4 0.793963 0.945766 0.326728
Si Si5 0.500000 0.556627 0.327565
Si Si6 0.808964 0.273023 0.833641
O O1 0.624316 0.691899 0.500000
O O2 0.610934 0.653783 0.234314
O O3 0.707965 0.668042 0.337120
O O4 0.649425 0.741411 0.262389
O O5 0.345470 0.566328 0.772894
O O6 0.448326 0.577405 0.753717
O O7 0.398819 0.599612 0.000000
O O8 0.291829 0.145556 0.500000
O O9 0.256603 0.088708 0.716184
O O10 0.306261 0.172607 0.772154
O O11 0.809674 0.937418 0.500000
O O12 0.775710 0.000000 0.296482
O O13 0.500000 0.500000 0.310471
O O14 0.500000 0.571919 0.500000
O O15 0.750000 0.250000 0.828853
O O16 0.831495 0.275374 0.000000
#
# Coordination Sequence:
#
# PCOD8274260 Si02
#       6
#    16  16  16  16   8  16
#     4   9  16  27  41  54  70  92 115 139 173 219
#     4  11  21  31  43  59  75  89 113 152 194 230
#     4   8  14  23  35  51  70  93 119 144 172 210
#     4   9  17  29  42  54  71  97 126 153 183 221
#     4  11  23  37  49  57  69  93 123 153 188 231
#     4   9  15  22  34  53  74  92 111 139 175 211
#
# _framework density 14.129047999999999
#
# number of rings (size 3 to 8) (size 9 to 14) (size 15 to 20)
#    0.000    2.636    0.000    4.636    0.000    9.818 
#    0.000    0.000    0.000    0.000    0.000    0.000 
#    0.000    0.000    0.000    0.000    0.000    0.000 
#
# Total GULP energy -545397.531394 kJ/mol
# GULP energy per Si atom -12395.398441 kJ/mol
# Density = 1.409689 g / cm^3
# Si number density = 14.129048 Si / 1000 Ang^3
#
#
#
# Elastic Constant Matrix: (Units=GPa)
#
#
# Indices 1 2 3 4 5 6 
#
# 1 19.3906 34.6403 26.8158 0.0000 0.0000 0.0000
# 2 34.6403 121.5114 62.4661 0.0000 0.0000 0.0000
# 3 26.8158 62.4661 118.1440 0.0000 0.0000 0.0000
# 4 0.0000 0.0000 0.0000 16.7711 0.0000 0.0000
# 5 0.0000 0.0000 0.0000 0.0000 28.5902 0.0000
# 6 0.0000 0.0000 0.0000 0.0000 0.0000 14.7616
#
#
#
# Elastic Compliance Matrix: (Units=1/GPa)
#
#
# Indices 1 2 3 4 5 6 
#
# 1 0.116657 -0.026977 -0.012215 0.000000 0.000000 0.000000
# 2 -0.026977 0.017540 -0.003151 0.000000 0.000000 0.000000
# 3 -0.012215 -0.003151 0.012903 0.000000 0.000000 0.000000
# 4 0.000000 0.000000 0.000000 0.059626 0.000000 0.000000
# 5 0.000000 0.000000 0.000000 0.000000 0.034977 0.000000
# 6 0.000000 0.000000 0.000000 0.000000 0.000000 0.067743
#
#
# Mechanical properties :
#
#
# Convention : Reuss Voigt Hill
#
# Bulk Modulus (GPa) = 16.02200 56.32116 36.17158
# Shear Modulus (GPa) = 12.05007 21.03282 16.54144
#
# Velocity S-wave (km/s) = 2.92354 3.86245 3.42532
# Velocity P-wave (km/s) = 4.77080 7.73562 6.42652
#
# Compressibility (1/GPa) = 0.06241418
#
# Stress axis : x y z
#
# Youngs Moduli (GPa) = 8.57217 57.01268 77.50378
#
# Poissons Ratio (x) = 1.53803 0.94669
# Poissons Ratio (y) = 0.23125 0.24420
# Poissons Ratio (z) = 0.10471 0.17963
#
# Static dielectric constant tensor:
#      x y z
#    x 2.338960 0.000000 0.000000 
#    y 0.000000 3.063960 0.000000 
#    z 0.000000 0.000000 2.960740 
# 
# 
# High freq. dielectric constant tensor:
#      x y z
#    x 1.464540 0.000000 0.000000 
#    y 0.000000 1.542660 0.000000 
#    z 0.000000 0.000000 1.554380 
# 
# From -- ./inp_files/10144.got.cif
#   From: 2010.03.12/outbox.cif.g09.slc.cpg/sg65_6_cif.got.tgz:10144.got - 2010.04.10 20:52:16.
