data_PCOD8274135
_publ_section_title
;
Structure prediction by ZEFSAII (Michael W. Deem and Ramdas Pophale) SiO2 
 PCOD8274135
Probable space group: C M M M
;
_chemical_formula_sum "Si O2"
_cell_formula_units_Z 104
_cell_length_a 28.279469
_cell_length_b 8.854047
_cell_length_c 22.950694
_cell_angle_alpha 90.000000
_cell_angle_beta 90.000000
_cell_angle_gamma 90.000000
_cell_volume 5746.572578
_symmetry_space_group_name_H-M "C M M M"
_symmetry_group_IT_number 65
_symmetry_cell_setting 'orthorhombic'
loop_
_space_group_symop_operation_xyz
x,y,z
-x,-y,z
x,-y,-z
-x,y,-z
-x,-y,-z
x,y,-z
-x,y,z
x,-y,z
1/2+x,1/2+y,z
1/2-x,1/2-y,z
1/2+x,1/2-y,-z
1/2-x,1/2+y,-z
1/2-x,1/2-y,-z
1/2+x,1/2+y,-z
1/2-x,1/2+y,z
1/2+x,1/2-y,z
loop_
_atom_site_type_symbol
_atom_site_label
_atom_site_fract_x
_atom_site_fract_y
_atom_site_fract_z
Si Si1 0.446648 0.825573 0.782950
Si Si2 0.801025 0.822741 0.500000
Si Si3 0.946732 0.324912 0.647191
Si Si4 0.855492 0.177468 0.615428
Si Si5 0.143373 0.176300 0.825240
Si Si6 0.201543 0.823606 0.935114
Si Si7 0.301085 0.178777 0.278760
O O1 0.500000 0.788604 0.803070
O O2 0.440388 0.787848 0.715175
O O3 0.411396 0.722191 0.820133
O O4 0.434559 0.000000 0.794430
O O5 0.750000 0.750000 0.500000
O O6 0.829825 0.770129 0.443411
O O7 0.793917 0.000000 0.500000
O O8 0.935910 0.500000 0.635229
O O9 0.910784 0.221452 0.610429
O O10 0.000000 0.284912 0.627318
O O11 0.833898 0.270323 0.668436
O O12 0.849822 0.000000 0.626690
O O13 0.159542 0.217361 0.890705
O O14 0.175800 0.270082 0.781405
O O15 0.149527 0.000000 0.811310
O O16 0.250000 0.750000 0.912804
O O17 0.210861 0.000000 0.936126
O O18 0.187884 0.764740 0.000000
O O19 0.250000 0.250000 0.286961
O O20 0.296305 0.000000 0.279120
#
# Coordination Sequence:
#
# PCOD8274135 Si02
#       7
#    16   8  16  16  16  16  16
#     4   9  18  33  53  78 110 144 177 218 268 319
#     4  10  24  42  59  80 107 141 182 225 265 318
#     4   9  18  34  56  82 111 143 178 218 267 320
#     4  11  22  38  58  82 109 140 180 222 269 321
#     4  11  21  33  53  82 110 139 178 221 269 323
#     4   9  19  35  53  75 106 143 182 222 263 312
#     4  12  24  37  53  77 110 142 175 220 271 319
#
# _framework density 18.097743999999999
#
# number of rings (size 3 to 8) (size 9 to 14) (size 15 to 20)
#    0.000    1.846    1.538    4.154    0.000    5.538 
#    0.000    1.923    0.000    2.769    0.000    3.231 
#    0.000    0.000    0.000    0.000    0.000    0.000 
#
# Total GULP energy -644912.418310 kJ/mol
# GULP energy per Si atom -12402.161891 kJ/mol
# Density = 1.805655 g / cm^3
# Si number density = 18.097744 Si / 1000 Ang^3
#
#
#
# Elastic Constant Matrix: (Units=GPa)
#
#
# Indices 1 2 3 4 5 6 
#
# 1 130.2284 43.8406 49.7610 0.0000 0.0000 0.0000
# 2 43.8406 77.3494 38.1220 0.0000 0.0000 0.0000
# 3 49.7610 38.1220 88.8161 0.0000 0.0000 0.0000
# 4 0.0000 0.0000 0.0000 10.6508 0.0000 0.0000
# 5 0.0000 0.0000 0.0000 0.0000 29.2606 0.0000
# 6 0.0000 0.0000 0.0000 0.0000 0.0000 37.5924
#
#
#
# Elastic Compliance Matrix: (Units=1/GPa)
#
#
# Indices 1 2 3 4 5 6 
#
# 1 0.010631 -0.003919 -0.004274 0.000000 0.000000 0.000000
# 2 -0.003919 0.017842 -0.005462 0.000000 0.000000 0.000000
# 3 -0.004274 -0.005462 0.015999 0.000000 0.000000 0.000000
# 4 0.000000 0.000000 0.000000 0.093889 0.000000 0.000000
# 5 0.000000 0.000000 0.000000 0.000000 0.034176 0.000000
# 6 0.000000 0.000000 0.000000 0.000000 0.000000 0.026601
#
#
# Mechanical properties :
#
#
# Convention : Reuss Voigt Hill
#
# Bulk Modulus (GPa) = 58.27433 62.20460 60.23946
# Shear Modulus (GPa) = 21.53601 26.47880 24.00740
#
# Velocity S-wave (km/s) = 3.45336 3.82920 3.64612
# Velocity P-wave (km/s) = 6.94050 7.34823 7.14727
#
# Compressibility (1/GPa) = 0.01716021
#
# Stress axis : x y z
#
# Youngs Moduli (GPa) = 94.06109 56.04814 62.50574
#
# Poissons Ratio (x) = 0.21966 0.26717
# Poissons Ratio (y) = 0.36864 0.34143
# Poissons Ratio (z) = 0.40204 0.30615
#
# Static dielectric constant tensor:
#      x y z
#    x 3.570310 0.000000 0.000000 
#    y 0.000000 3.331360 0.000000 
#    z 0.000000 0.000000 3.407020 
# 
# 
# High freq. dielectric constant tensor:
#      x y z
#    x 1.710760 0.000000 0.000000 
#    y 0.000000 1.704000 0.000000 
#    z 0.000000 0.000000 1.683450 
# 
# From -- ./inp_files/60832.got.cif
#   From: 2010.03.12/outbox.cif.g09.slc.cpg/sg65_31_cif.got.tgz:60832.got - 2010.04.10 20:52:16.
