data_PCOD8274141
_publ_section_title
;
Structure prediction by ZEFSAII (Michael W. Deem and Ramdas Pophale) SiO2 
 PCOD8274141
Probable space group: C M M M
;
_chemical_formula_sum "Si O2"
_cell_formula_units_Z 64
_cell_length_a 23.853417
_cell_length_b 8.609059
_cell_length_c 15.489429
_cell_angle_alpha 90.000000
_cell_angle_beta 90.000000
_cell_angle_gamma 90.000000
_cell_volume 3180.839039
_symmetry_space_group_name_H-M "C M M M"
_symmetry_group_IT_number 65
_symmetry_cell_setting 'orthorhombic'
loop_
_space_group_symop_operation_xyz
x,y,z
-x,-y,z
x,-y,-z
-x,y,-z
-x,-y,-z
x,y,-z
-x,y,z
x,-y,z
1/2+x,1/2+y,z
1/2-x,1/2-y,z
1/2+x,1/2-y,-z
1/2-x,1/2+y,-z
1/2-x,1/2-y,-z
1/2+x,1/2+y,-z
1/2-x,1/2+y,z
1/2+x,1/2-y,z
loop_
_atom_site_type_symbol
_atom_site_label
_atom_site_fract_x
_atom_site_fract_y
_atom_site_fract_z
Si Si1 0.500000 0.316067 0.401057
Si Si2 0.311641 0.816532 0.500000
Si Si3 0.115321 0.684207 0.339171
Si Si4 0.500000 0.683883 0.096180
Si Si5 0.119679 0.184312 0.841233
Si Si6 0.188180 0.316076 0.000000
O O1 0.500000 0.500000 0.393327
O O2 0.500000 0.259284 0.500000
O O3 0.553658 0.250663 0.352675
O O4 0.250000 0.750000 0.500000
O O5 0.344538 0.756250 0.415779
O O6 0.308241 0.000000 0.500000
O O7 0.112684 0.500000 0.335780
O O8 0.140675 0.751366 0.250552
O O9 0.500000 0.500000 0.088966
O O10 0.444632 0.739897 0.146182
O O11 0.500000 0.756183 0.000000
O O12 0.125698 0.000000 0.844862
O O13 0.157324 0.257052 0.915105
O O14 0.250000 0.250000 0.000000
O O15 0.189819 0.500000 0.000000
#
# Coordination Sequence:
#
# PCOD8274141 Si02
#       6
#     8   8  16   8  16   8
#     4  11  22  37  62  95 127 165 210 259 318 380
#     4  10  24  43  64  87 119 162 208 258 313 366
#     4  11  23  41  63  92 128 167 207 257 316 378
#     4   9  17  34  61  90 124 160 196 239 300 365
#     4  11  22  40  66  96 128 166 207 256 311 374
#     4  12  26  45  66  91 123 166 216 266 316 372
#
# _framework density 20.120476
#
# number of rings (size 3 to 8) (size 9 to 14) (size 15 to 20)
#    0.000    1.250    2.500    3.750    0.000    4.500 
#    0.000    5.000    0.000    0.000    0.000    0.000 
#    0.000    0.000    0.000    0.000    0.000    0.000 
#
# Total GULP energy -396948.159735 kJ/mol
# GULP energy per Si atom -12404.629992 kJ/mol
# Density = 2.007468 g / cm^3
# Si number density = 20.120476 Si / 1000 Ang^3
#
#
#
# Elastic Constant Matrix: (Units=GPa)
#
#
# Indices 1 2 3 4 5 6 
#
# 1 157.5187 46.4855 82.3927 0.0000 0.0000 0.0000
# 2 46.4855 91.3651 57.7427 0.0000 0.0000 0.0000
# 3 82.3927 57.7427 200.6604 0.0000 0.0000 0.0000
# 4 0.0000 0.0000 0.0000 37.5823 0.0000 0.0000
# 5 0.0000 0.0000 0.0000 0.0000 -6.8029 0.0000
# 6 0.0000 0.0000 0.0000 0.0000 0.0000 34.1979
#
#
#
# Elastic Compliance Matrix: (Units=1/GPa)
#
#
# Indices 1 2 3 4 5 6 
#
# 1 0.008565 -0.002610 -0.002766 0.000000 0.000000 0.000000
# 2 -0.002610 0.014173 -0.003007 0.000000 0.000000 0.000000
# 3 -0.002766 -0.003007 0.006985 0.000000 0.000000 0.000000
# 4 0.000000 0.000000 0.000000 0.026608 0.000000 0.000000
# 5 0.000000 0.000000 0.000000 0.000000 -0.146996 0.000000
# 6 0.000000 0.000000 0.000000 0.000000 0.000000 0.029242
#
#
# Mechanical properties :
#
#
# Convention : Reuss Voigt Hill
#
# Bulk Modulus (GPa) = 77.17402 91.42068 84.29735
# Shear Modulus (GPa) = -123.95231 30.52367 -46.71432
#
# Velocity S-wave (km/s) = -7.85740 3.89915 -4.82366
# Velocity P-wave (km/s) = 6.62414 8.11212 3.31114
#
# Compressibility (1/GPa) = 0.01295773
#
# Stress axis : x y z
#
# Youngs Moduli (GPa) = 116.74782 70.55484 143.17255
#
# Poissons Ratio (x) = 0.18414 0.39602
# Poissons Ratio (y) = 0.30470 0.43051
# Poissons Ratio (z) = 0.32293 0.21215
#
# Static dielectric constant tensor:
#      x y z
#    x 3.808330 0.000000 0.000000 
#    y 0.000000 3.592870 0.000000 
#    z 0.000000 0.000000 3.995870 
# 
# 
# High freq. dielectric constant tensor:
#      x y z
#    x 1.785310 0.000000 0.000000 
#    y 0.000000 1.782440 0.000000 
#    z 0.000000 0.000000 1.807560 
# 
# From -- ./inp_files/45170.got.cif
#   From: 2010.03.12/outbox.cif.g09.slc.cpg/sg65_23_cif.got.tgz:45170.got - 2010.04.10 20:52:16.
