data_PCOD8274842
_publ_section_title
;
Structure prediction by ZEFSAII (Michael W. Deem and Ramdas Pophale) SiO2 
 PCOD8274842
Probable space group: C M M M
;
_chemical_formula_sum "Si O2"
_cell_formula_units_Z 64
_cell_length_a 18.935106
_cell_length_b 8.087092
_cell_length_c 22.480117
_cell_angle_alpha 90.000000
_cell_angle_beta 90.000000
_cell_angle_gamma 90.000000
_cell_volume 3442.379063
_symmetry_space_group_name_H-M "C M M M"
_symmetry_group_IT_number 65
_symmetry_cell_setting 'orthorhombic'
loop_
_space_group_symop_operation_xyz
x,y,z
-x,-y,z
x,-y,-z
-x,y,-z
-x,-y,-z
x,y,-z
-x,y,z
x,-y,z
1/2+x,1/2+y,z
1/2-x,1/2-y,z
1/2+x,1/2-y,-z
1/2-x,1/2+y,-z
1/2-x,1/2-y,-z
1/2+x,1/2+y,-z
1/2-x,1/2+y,z
1/2+x,1/2-y,z
loop_
_atom_site_type_symbol
_atom_site_label
_atom_site_fract_x
_atom_site_fract_y
_atom_site_fract_z
Si Si1 0.915945 0.682315 0.860765
Si Si2 0.078242 0.195274 0.391160
Si Si3 0.084202 0.000000 0.067473
Si Si4 0.329702 0.807077 0.500000
Si Si5 0.916144 0.816317 0.262020
O O1 0.889920 0.500000 0.882931
O O2 0.886149 0.832641 0.901214
O O3 0.889001 0.704647 0.792714
O O4 0.000000 0.688570 0.862935
O O5 0.133339 0.241638 0.441172
O O6 0.105353 0.260965 0.326474
O O7 0.000000 0.267120 0.406486
O O8 0.072385 0.000000 0.386210
O O9 0.000000 0.000000 0.070518
O O10 0.111619 0.000000 0.000000
O O11 0.250000 0.750000 0.500000
O O12 0.334493 0.000000 0.500000
O O13 0.000000 0.828594 0.260428
O O14 0.884015 0.000000 0.253732
#
# Coordination Sequence:
#
# PCOD8274842 Si02
#       5
#    16  16   8   8  16
#     4   9  15  22  34  51  73 103 141 187 232 273
#     4   9  18  33  54  76  97 122 155 199 249 297
#     4   9  16  24  32  44  70 107 147 187 225 276
#     4  12  25  38  51  67  95 131 165 202 241 300
#     4   8  13  24  42  62  84 109 138 181 235 283
#
# _framework density 18.591792999999999
#
# number of rings (size 3 to 8) (size 9 to 14) (size 15 to 20)
#    0.000    2.875    1.250    3.000    0.000    3.500 
#    0.000    5.000    0.000    0.000    0.000    0.000 
#    0.000    0.000    0.000    0.000    0.000    1.250 
#
# Total GULP energy -396440.901474 kJ/mol
# GULP energy per Si atom -12388.778171 kJ/mol
# Density = 1.854948 g / cm^3
# Si number density = 18.591793 Si / 1000 Ang^3
#
#
#
# Elastic Constant Matrix: (Units=GPa)
#
#
# Indices 1 2 3 4 5 6 
#
# 1 39.0407 13.6186 33.7133 0.0000 0.0000 0.0000
# 2 13.6186 110.3799 69.1578 0.0000 0.0000 0.0000
# 3 33.7133 69.1578 170.7621 0.0000 0.0000 0.0000
# 4 0.0000 0.0000 0.0000 17.1553 0.0000 0.0000
# 5 0.0000 0.0000 0.0000 0.0000 -1.6330 0.0000
# 6 0.0000 0.0000 0.0000 0.0000 0.0000 11.5010
#
#
#
# Elastic Compliance Matrix: (Units=1/GPa)
#
#
# Indices 1 2 3 4 5 6 
#
# 1 0.030879 0.000013 -0.006102 0.000000 0.000000 0.000000
# 2 0.000013 0.012140 -0.004919 0.000000 0.000000 0.000000
# 3 -0.006102 -0.004919 0.009053 0.000000 0.000000 0.000000
# 4 0.000000 0.000000 0.000000 0.058291 0.000000 0.000000
# 5 0.000000 0.000000 0.000000 0.000000 -0.612360 0.000000
# 6 0.000000 0.000000 0.000000 0.000000 0.000000 0.086949
#
#
# Mechanical properties :
#
#
# Convention : Reuss Voigt Hill
#
# Bulk Modulus (GPa) = 33.27086 61.46244 47.36665
# Shear Modulus (GPa) = -13.05435 18.98419 2.96492
#
# Velocity S-wave (km/s) = -2.65270 3.19894 1.26420
# Velocity P-wave (km/s) = 2.92436 6.83922 5.25960
#
# Compressibility (1/GPa) = 0.03005633
#
# Stress axis : x y z
#
# Youngs Moduli (GPa) = 32.38474 82.37136 110.46023
#
# Poissons Ratio (x) = -0.00109 0.67399
# Poissons Ratio (y) = -0.00043 0.54339
# Poissons Ratio (z) = 0.19760 0.40521
#
# Static dielectric constant tensor:
#      x y z
#    x 2.669780 0.000000 0.000000 
#    y 0.000000 3.607540 0.000000 
#    z 0.000000 0.000000 3.722440 
# 
# 
# High freq. dielectric constant tensor:
#      x y z
#    x 1.629340 0.000000 0.000000 
#    y 0.000000 1.724400 0.000000 
#    z 0.000000 0.000000 1.736860 
# 
# From -- ./inp_files/63250.got.cif
#   From: 2010.03.12/outbox.cif.g09.slc.cpg/sg65_32_cif.got.tgz:63250.got - 2010.04.10 20:52:16.
