data_PCOD8274928
_publ_section_title
;
Structure prediction by ZEFSAII (Michael W. Deem and Ramdas Pophale) SiO2 
 PCOD8274928
Probable space group: C M M M
;
_chemical_formula_sum "Si O2"
_cell_formula_units_Z 80
_cell_length_a 9.469516
_cell_length_b 30.530068
_cell_length_c 20.546630
_cell_angle_alpha 90.000000
_cell_angle_beta 90.000000
_cell_angle_gamma 90.000000
_cell_volume 5940.132796
_symmetry_space_group_name_H-M "C M M M"
_symmetry_group_IT_number 65
_symmetry_cell_setting 'orthorhombic'
loop_
_space_group_symop_operation_xyz
x,y,z
-x,-y,z
x,-y,-z
-x,y,-z
-x,-y,-z
x,y,-z
-x,y,z
x,-y,z
1/2+x,1/2+y,z
1/2-x,1/2-y,z
1/2+x,1/2-y,-z
1/2-x,1/2+y,-z
1/2-x,1/2-y,-z
1/2+x,1/2+y,-z
1/2-x,1/2+y,z
1/2+x,1/2-y,z
loop_
_atom_site_type_symbol
_atom_site_label
_atom_site_fract_x
_atom_site_fract_y
_atom_site_fract_z
Si Si1 0.167980 0.548507 0.330431
Si Si2 0.339523 0.290843 0.577321
Si Si3 0.156231 0.447978 0.187570
Si Si4 0.341986 0.447951 0.928484
Si Si5 0.335647 0.875108 0.575623
O O1 0.227576 0.500000 0.347851
O O2 0.221306 0.563651 0.258667
O O3 0.218803 0.582674 0.384758
O O4 0.000000 0.546094 0.327949
O O5 0.343991 0.287981 0.500000
O O6 0.500000 0.290253 0.604937
O O7 0.250000 0.250000 0.605441
O O8 0.259059 0.334665 0.599491
O O9 0.148848 0.500000 0.181038
O O10 0.249098 0.427221 0.129480
O O11 0.000000 0.427806 0.180315
O O12 0.500000 0.429689 0.920435
O O13 0.342999 0.500000 0.922636
O O14 0.282446 0.434425 0.000000
O O15 0.311550 0.885492 0.500000
O O16 0.500000 0.864353 0.589493
#
# Coordination Sequence:
#
# PCOD8274928 Si02
#       5
#    16  16  16  16  16
#     4   8  14  24  36  50  69  93 122 155 184 207
#     4   9  16  26  40  56  73  90 108 135 174 219
#     4   8  13  21  32  44  59  82 112 143 172 202
#     4   8  13  20  29  42  60  79 100 132 173 210
#     4   9  16  25  38  55  72  91 118 150 182 215
#
# _framework density 13.467712000000001
#
# number of rings (size 3 to 8) (size 9 to 14) (size 15 to 20)
#    0.000    3.600    0.000    2.400    0.000    3.200 
#    0.000    5.000    0.000    1.800    0.000    2.800 
#    0.000    0.000    0.000    0.000    0.000    1.000 
#
# Total GULP energy -495614.792708 kJ/mol
# GULP energy per Si atom -12390.369818 kJ/mol
# Density = 1.343706 g / cm^3
# Si number density = 13.467712 Si / 1000 Ang^3
#
#
#
# Elastic Constant Matrix: (Units=GPa)
#
#
# Indices 1 2 3 4 5 6 
#
# 1 63.6110 36.5507 37.3395 0.0000 0.0000 0.0000
# 2 36.5507 69.6623 44.5349 0.0000 0.0000 0.0000
# 3 37.3395 44.5349 79.6037 0.0000 0.0000 0.0000
# 4 0.0000 0.0000 0.0000 0.7952 0.0000 0.0000
# 5 0.0000 0.0000 0.0000 0.0000 11.8389 0.0000
# 6 0.0000 0.0000 0.0000 0.0000 0.0000 13.6949
#
#
#
# Elastic Compliance Matrix: (Units=1/GPa)
#
#
# Indices 1 2 3 4 5 6 
#
# 1 0.024621 -0.008617 -0.006728 0.000000 0.000000 0.000000
# 2 -0.008617 0.025364 -0.010148 0.000000 0.000000 0.000000
# 3 -0.006728 -0.010148 0.021396 0.000000 0.000000 0.000000
# 4 0.000000 0.000000 0.000000 1.257585 0.000000 0.000000
# 5 0.000000 0.000000 0.000000 0.000000 0.084467 0.000000
# 6 0.000000 0.000000 0.000000 0.000000 0.000000 0.073020
#
#
# Mechanical properties :
#
#
# Convention : Reuss Voigt Hill
#
# Bulk Modulus (GPa) = 49.03355 49.96969 49.50162
# Shear Modulus (GPa) = 3.23785 11.56260 7.40022
#
# Velocity S-wave (km/s) = 1.55222 2.93327 2.34664
# Velocity P-wave (km/s) = 6.30077 6.97538 6.64664
#
# Compressibility (1/GPa) = 0.02039420
#
# Stress axis : x y z
#
# Youngs Moduli (GPa) = 40.61512 39.42631 46.73872
#
# Poissons Ratio (x) = 0.33974 0.31447
# Poissons Ratio (y) = 0.34999 0.47430
# Poissons Ratio (z) = 0.27327 0.40010
#
# Static dielectric constant tensor:
#      x y z
#    x 2.759290 0.000000 0.000000 
#    y 0.000000 2.455120 0.000000 
#    z 0.000000 0.000000 2.776150 
# 
# 
# High freq. dielectric constant tensor:
#      x y z
#    x 1.503490 0.000000 0.000000 
#    y 0.000000 1.463420 0.000000 
#    z 0.000000 0.000000 1.498160 
# 
# From -- ./inp_files/58136.got.cif
#   From: 2010.03.12/outbox.cif.g09.slc.cpg/sg65_30_cif.got.tgz:58136.got - 2010.04.10 20:52:16.
