data_PCOD8274656
_publ_section_title
;
Structure prediction by ZEFSAII (Michael W. Deem and Ramdas Pophale) SiO2 
 PCOD8274656
Probable space group: C M M M
;
_chemical_formula_sum "Si O2"
_cell_formula_units_Z 48
_cell_length_a 18.705923
_cell_length_b 19.328083
_cell_length_c 7.740623
_cell_angle_alpha 90.000000
_cell_angle_beta 90.000000
_cell_angle_gamma 90.000000
_cell_volume 2798.619400
_symmetry_space_group_name_H-M "C M M M"
_symmetry_group_IT_number 65
_symmetry_cell_setting 'orthorhombic'
loop_
_space_group_symop_operation_xyz
x,y,z
-x,-y,z
x,-y,-z
-x,y,-z
-x,-y,-z
x,y,-z
-x,y,z
x,-y,z
1/2+x,1/2+y,z
1/2-x,1/2-y,z
1/2+x,1/2-y,-z
1/2-x,1/2+y,-z
1/2-x,1/2-y,-z
1/2+x,1/2+y,-z
1/2-x,1/2+y,z
1/2+x,1/2-y,z
loop_
_atom_site_type_symbol
_atom_site_label
_atom_site_fract_x
_atom_site_fract_y
_atom_site_fract_z
Si Si1 0.328745 0.718556 0.000000
Si Si2 0.581796 0.781975 0.306957
Si Si3 0.628627 0.924024 0.808097
Si Si4 0.766025 0.923712 0.000000
O O1 0.250000 0.750000 0.000000
O O2 0.368510 0.743025 0.828429
O O3 0.326554 0.635167 0.000000
O O4 0.597416 0.753904 0.500000
O O5 0.500000 0.768298 0.255372
O O6 0.596994 0.864227 0.311138
O O7 0.714989 0.916112 0.830405
O O8 0.611052 0.000000 0.728766
O O9 0.593814 0.917803 0.000000
O O10 0.802636 0.000000 0.000000
#
# Coordination Sequence:
#
# PCOD8274656 Si02
#       4
#     8  16  16   8
#     4  12  19  36  59  80 103 139 178 221 267 304
#     4  11  23  35  51  79 111 144 179 214 260 315
#     4   8  15  31  52  74 105 143 175 208 252 310
#     4   8  16  32  54  80 105 131 172 216 265 317
#
# _framework density 17.151312999999998
#
# number of rings (size 3 to 8) (size 9 to 14) (size 15 to 20)
#    1.000    1.333    5.000    0.500    0.000    2.000 
#    0.000    3.333    0.000    3.000    0.000    2.333 
#    0.000    0.000    0.000    0.000    0.000    0.000 
#
# Total GULP energy -297319.966500 kJ/mol
# GULP energy per Si atom -12388.331937 kJ/mol
# Density = 1.711228 g / cm^3
# Si number density = 17.151313 Si / 1000 Ang^3
#
#
#
# Elastic Constant Matrix: (Units=GPa)
#
#
# Indices 1 2 3 4 5 6 
#
# 1 93.0715 54.4159 55.8782 0.0000 0.0000 0.0000
# 2 54.4159 114.5942 42.5708 0.0000 0.0000 0.0000
# 3 55.8782 42.5708 85.3037 0.0000 0.0000 0.0000
# 4 0.0000 0.0000 0.0000 10.8484 0.0000 0.0000
# 5 0.0000 0.0000 0.0000 0.0000 -31.4327 0.0000
# 6 0.0000 0.0000 0.0000 0.0000 0.0000 20.1582
#
#
#
# Elastic Compliance Matrix: (Units=1/GPa)
#
#
# Indices 1 2 3 4 5 6 
#
# 1 0.020438 -0.005808 -0.010489 0.000000 0.000000 0.000000
# 2 -0.005808 0.012363 -0.002365 0.000000 0.000000 0.000000
# 3 -0.010489 -0.002365 0.019774 0.000000 0.000000 0.000000
# 4 0.000000 0.000000 0.000000 0.092179 0.000000 0.000000
# 5 0.000000 0.000000 0.000000 0.000000 -0.031814 0.000000
# 6 0.000000 0.000000 0.000000 0.000000 0.000000 0.049608
#
#
# Mechanical properties :
#
#
# Convention : Reuss Voigt Hill
#
# Bulk Modulus (GPa) = 65.57435 66.52214 66.04824
# Shear Modulus (GPa) = 24.39541 9.25507 16.82524
#
# Velocity S-wave (km/s) = 3.77552 2.32548 3.13547
# Velocity P-wave (km/s) = 7.57112 6.78823 7.19034
#
# Compressibility (1/GPa) = 0.01524987
#
# Stress axis : x y z
#
# Youngs Moduli (GPa) = 48.92864 80.88496 50.57138
#
# Poissons Ratio (x) = 0.46982 0.53045
# Poissons Ratio (y) = 0.28420 0.11960
# Poissons Ratio (z) = 0.51322 0.19130
#
# Static dielectric constant tensor:
#      x y z
#    x 2.968210 0.000000 0.000000 
#    y 0.000000 3.209400 0.000000 
#    z 0.000000 0.000000 2.918390 
# 
# 
# High freq. dielectric constant tensor:
#      x y z
#    x 1.633570 0.000000 0.000000 
#    y 0.000000 1.656600 0.000000 
#    z 0.000000 0.000000 1.640720 
# 
# From -- ./inp_files/8638.got.cif
#   From: 2010.03.12/outbox.cif.g09.slc.cpg/sg65_5_cif.got.tgz:8638.got - 2010.04.10 20:52:16.
