data_PCOD8274797
_publ_section_title
;
Structure prediction by ZEFSAII (Michael W. Deem and Ramdas Pophale) SiO2 
 PCOD8274797
Probable space group: C M M M
;
_chemical_formula_sum "Si O2"
_cell_formula_units_Z 72
_cell_length_a 17.728668
_cell_length_b 8.705067
_cell_length_c 23.567644
_cell_angle_alpha 90.000000
_cell_angle_beta 90.000000
_cell_angle_gamma 90.000000
_cell_volume 3637.176652
_symmetry_space_group_name_H-M "C M M M"
_symmetry_group_IT_number 65
_symmetry_cell_setting 'orthorhombic'
loop_
_space_group_symop_operation_xyz
x,y,z
-x,-y,z
x,-y,-z
-x,y,-z
-x,-y,-z
x,y,-z
-x,y,z
x,-y,z
1/2+x,1/2+y,z
1/2-x,1/2-y,z
1/2+x,1/2-y,-z
1/2-x,1/2+y,-z
1/2-x,1/2-y,-z
1/2+x,1/2+y,-z
1/2-x,1/2+y,z
1/2+x,1/2-y,z
loop_
_atom_site_type_symbol
_atom_site_label
_atom_site_fract_x
_atom_site_fract_y
_atom_site_fract_z
Si Si1 0.911088 0.324967 0.106609
Si Si2 0.589595 0.821400 0.682874
Si Si3 0.668003 0.319726 0.000000
Si Si4 0.832225 0.819461 0.788097
Si Si5 0.584412 0.817886 0.559926
O O1 0.882476 0.500000 0.103457
O O2 0.888115 0.253004 0.166241
O O3 0.000000 0.315695 0.100810
O O4 0.875681 0.230509 0.055754
O O5 0.500000 0.793787 0.687907
O O6 0.634793 0.716746 0.726383
O O7 0.620384 0.766936 0.620206
O O8 0.608286 0.000000 0.694536
O O9 0.750000 0.250000 0.000000
O O10 0.675557 0.500000 0.000000
O O11 0.750000 0.750000 0.796151
O O12 0.827656 0.000000 0.797207
O O13 0.625328 0.765256 0.500000
O O14 0.500000 0.751495 0.557949
O O15 0.580471 0.000000 0.561712
#
# Coordination Sequence:
#
# PCOD8274797 Si02
#       5
#    16  16   8  16  16
#     4  11  24  43  66  91 120 152 188 231 279 330
#     4   9  17  31  53  81 112 144 180 225 277 333
#     4  12  25  42  65  93 127 161 195 232 273 324
#     4  12  25  40  58  80 110 147 189 235 283 336
#     4   7  10  19  40  72 106 138 174 217 266 323
#
# _framework density 19.795573999999998
#
# number of rings (size 3 to 8) (size 9 to 14) (size 15 to 20)
#    0.000    2.000    0.000    7.333    0.000    6.222 
#    0.000    0.000    0.000    1.333    0.000    3.111 
#    0.000    0.000    0.000    0.000    0.000    0.000 
#
# Total GULP energy -446108.949893 kJ/mol
# GULP energy per Si atom -12391.915275 kJ/mol
# Density = 1.975052 g / cm^3
# Si number density = 19.795574 Si / 1000 Ang^3
#
#
#
# Elastic Constant Matrix: (Units=GPa)
#
#
# Indices 1 2 3 4 5 6 
#
# 1 56.8992 42.6027 31.4783 0.0000 0.0000 0.0000
# 2 42.6027 125.9878 48.4875 0.0000 0.0000 0.0000
# 3 31.4783 48.4875 158.4693 0.0000 0.0000 0.0000
# 4 0.0000 0.0000 0.0000 76.0871 0.0000 0.0000
# 5 0.0000 0.0000 0.0000 0.0000 -30.3862 0.0000
# 6 0.0000 0.0000 0.0000 0.0000 0.0000 23.4315
#
#
#
# Elastic Compliance Matrix: (Units=1/GPa)
#
#
# Indices 1 2 3 4 5 6 
#
# 1 0.024470 -0.007259 -0.002640 0.000000 0.000000 0.000000
# 2 -0.007259 0.011150 -0.001970 0.000000 0.000000 0.000000
# 3 -0.002640 -0.001970 0.007437 0.000000 0.000000 0.000000
# 4 0.000000 0.000000 0.000000 0.013143 0.000000 0.000000
# 5 0.000000 0.000000 0.000000 0.000000 -0.032910 0.000000
# 6 0.000000 0.000000 0.000000 0.000000 0.000000 0.042678
#
#
# Mechanical properties :
#
#
# Convention : Reuss Voigt Hill
#
# Bulk Modulus (GPa) = 51.75672 65.16592 58.46132
# Shear Modulus (GPa) = 52.00491 28.41233 40.20862
#
# Velocity S-wave (km/s) = 5.13108 3.79263 4.51176
# Velocity P-wave (km/s) = 7.82984 7.22285 7.53246
#
# Compressibility (1/GPa) = 0.01932116
#
# Stress axis : x y z
#
# Youngs Moduli (GPa) = 40.86610 89.68739 134.45520
#
# Poissons Ratio (x) = 0.65101 0.35493
# Poissons Ratio (y) = 0.29663 0.26484
# Poissons Ratio (z) = 0.10788 0.17666
#
# Static dielectric constant tensor:
#      x y z
#    x 3.373910 0.000000 0.000000 
#    y 0.000000 3.561600 0.000000 
#    z 0.000000 0.000000 4.458820 
# 
# 
# High freq. dielectric constant tensor:
#      x y z
#    x 1.744050 0.000000 0.000000 
#    y 0.000000 1.753770 0.000000 
#    z 0.000000 0.000000 1.806450 
# 
# From -- ./inp_files/67141.got.cif
#   From: 2010.03.12/outbox.cif.g09.slc.cpg/sg65_34_cif.got.tgz:67141.got - 2010.04.10 20:52:16.
