data_PCOD8274392
_publ_section_title
;
Structure prediction by ZEFSAII (Michael W. Deem and Ramdas Pophale) SiO2 
 PCOD8274392
Probable space group: C M M M
;
_chemical_formula_sum "Si O2"
_cell_formula_units_Z 72
_cell_length_a 10.304287
_cell_length_b 16.555292
_cell_length_c 20.585371
_cell_angle_alpha 90.000000
_cell_angle_beta 90.000000
_cell_angle_gamma 90.000000
_cell_volume 3511.668323
_symmetry_space_group_name_H-M "C M M M"
_symmetry_group_IT_number 65
_symmetry_cell_setting 'orthorhombic'
loop_
_space_group_symop_operation_xyz
x,y,z
-x,-y,z
x,-y,-z
-x,y,-z
-x,-y,-z
x,y,-z
-x,y,z
x,-y,z
1/2+x,1/2+y,z
1/2-x,1/2-y,z
1/2+x,1/2-y,-z
1/2-x,1/2+y,-z
1/2-x,1/2-y,-z
1/2+x,1/2+y,-z
1/2-x,1/2+y,z
1/2+x,1/2-y,z
loop_
_atom_site_type_symbol
_atom_site_label
_atom_site_fract_x
_atom_site_fract_y
_atom_site_fract_z
Si Si1 0.500000 0.172398 0.300168
Si Si2 0.244005 0.653737 0.073097
Si Si3 0.000000 0.340074 0.847061
Si Si4 0.500000 0.351929 0.142520
Si Si5 0.500000 0.636417 0.710671
Si Si6 0.744992 0.907447 0.635539
Si Si7 0.645575 0.404009 0.500000
O O1 0.500000 0.133708 0.228194
O O2 0.500000 0.268067 0.297311
O O3 0.629189 0.146174 0.337096
O O4 0.250000 0.750000 0.072513
O O5 0.374791 0.617125 0.103414
O O6 0.125736 0.623134 0.117566
O O7 0.225871 0.620874 0.000000
O O8 0.000000 0.244220 0.852846
O O9 0.500000 0.389465 0.214152
O O10 0.627309 0.598433 0.679216
O O11 0.777400 0.874303 0.563565
O O12 0.698488 0.000000 0.633153
O O13 0.634504 0.500000 0.500000
O O14 0.500000 0.367095 0.500000
#
# Coordination Sequence:
#
# PCOD8274392 Si02
#       7
#     8  16   8   8   8  16   8
#     4  11  23  37  54  86 123 148 177 230 290 331
#     4   9  15  24  40  64  96 137 180 218 261 318
#     4   9  17  29  43  64 104 146 171 206 274 338
#     4   9  17  27  43  68 102 138 173 220 274 320
#     4  11  21  37  58  82 115 156 187 218 282 349
#     4  11  22  39  62  84 110 146 191 232 272 330
#     4   9  18  37  62  84 107 144 188 230 277 330
#
# _framework density 20.503076
#
# number of rings (size 3 to 8) (size 9 to 14) (size 15 to 20)
#    0.000    2.111    1.111    3.333    0.000    6.667 
#    0.000    5.000    0.000    0.000    0.000    0.000 
#    0.000   62.222    0.000    0.000    0.000    0.000 
#
# Total GULP energy -446460.383428 kJ/mol
# GULP energy per Si atom -12401.677317 kJ/mol
# Density = 2.045641 g / cm^3
# Si number density = 20.503076 Si / 1000 Ang^3
#
#
#
# Elastic Constant Matrix: (Units=GPa)
#
#
# Indices 1 2 3 4 5 6 
#
# 1 164.5761 3.9094 82.2075 0.0000 0.0000 0.0000
# 2 3.9094 28.4198 10.3289 0.0000 0.0000 0.0000
# 3 82.2075 10.3289 197.8656 0.0000 0.0000 0.0000
# 4 0.0000 0.0000 0.0000 -4.9327 0.0000 0.0000
# 5 0.0000 0.0000 0.0000 0.0000 45.7918 0.0000
# 6 0.0000 0.0000 0.0000 0.0000 0.0000 46.1734
#
#
#
# Elastic Compliance Matrix: (Units=1/GPa)
#
#
# Indices 1 2 3 4 5 6 
#
# 1 0.007668 0.000105 -0.003191 0.000000 0.000000 0.000000
# 2 0.000105 0.035869 -0.001916 0.000000 0.000000 0.000000
# 3 -0.003191 -0.001916 0.006480 0.000000 0.000000 0.000000
# 4 0.000000 0.000000 0.000000 -0.202730 0.000000 0.000000
# 5 0.000000 0.000000 0.000000 0.000000 0.021838 0.000000
# 6 0.000000 0.000000 0.000000 0.000000 0.000000 0.021657
#
#
# Mechanical properties :
#
#
# Convention : Reuss Voigt Hill
#
# Bulk Modulus (GPa) = 24.99263 64.86146 44.92704
# Shear Modulus (GPa) = -58.22331 37.03421 -10.59455
#
# Velocity S-wave (km/s) = -5.33470 4.25464 -2.27563
# Velocity P-wave (km/s) = 5.07239 7.47259 3.88011
#
# Compressibility (1/GPa) = 0.04001180
#
# Stress axis : x y z
#
# Youngs Moduli (GPa) = 130.41603 27.87949 154.32529
#
# Poissons Ratio (x) = -0.00293 0.49249
# Poissons Ratio (y) = -0.01370 0.29569
# Poissons Ratio (z) = 0.41619 0.05342
#
# Static dielectric constant tensor:
#      x y z
#    x 3.615230 0.000000 0.000000 
#    y 0.000000 3.164190 0.000000 
#    z 0.000000 0.000000 4.072950 
# 
# 
# High freq. dielectric constant tensor:
#      x y z
#    x 1.814060 0.000000 0.000000 
#    y 0.000000 1.749470 0.000000 
#    z 0.000000 0.000000 1.821170 
# 
# From -- ./inp_files/59446.got.cif
#   From: 2010.03.12/outbox.cif.g09.slc.cpg/sg65_30_cif.got.tgz:59446.got - 2010.04.10 20:52:16.
