data_PCOD8274229
_publ_section_title
;
Structure prediction by ZEFSAII (Michael W. Deem and Ramdas Pophale) SiO2 
 PCOD8274229
Probable space group: C M M M
;
_chemical_formula_sum "Si O2"
_cell_formula_units_Z 88
_cell_length_a 24.528566
_cell_length_b 22.521801
_cell_length_c 9.107736
_cell_angle_alpha 90.000000
_cell_angle_beta 90.000000
_cell_angle_gamma 90.000000
_cell_volume 5031.363668
_symmetry_space_group_name_H-M "C M M M"
_symmetry_group_IT_number 65
_symmetry_cell_setting 'orthorhombic'
loop_
_space_group_symop_operation_xyz
x,y,z
-x,-y,z
x,-y,-z
-x,y,-z
-x,-y,-z
x,y,-z
-x,y,z
x,-y,z
1/2+x,1/2+y,z
1/2-x,1/2-y,z
1/2+x,1/2-y,-z
1/2-x,1/2+y,-z
1/2-x,1/2-y,-z
1/2+x,1/2+y,-z
1/2-x,1/2+y,z
1/2+x,1/2-y,z
loop_
_atom_site_type_symbol
_atom_site_label
_atom_site_fract_x
_atom_site_fract_y
_atom_site_fract_z
Si Si1 0.563628 0.784681 0.668400
Si Si2 0.352739 0.430036 0.168667
Si Si3 0.266686 0.934520 0.826611
Si Si4 0.939197 0.150058 0.327135
Si Si5 0.119369 0.610529 0.173506
Si Si6 0.064474 0.500000 0.330205
O O1 0.580110 0.797366 0.500000
O O2 0.500000 0.797936 0.690368
O O3 0.577534 0.717290 0.713356
O O4 0.598001 0.825913 0.776099
O O5 0.361057 0.500000 0.190255
O O6 0.292397 0.411281 0.228659
O O7 0.397604 0.396071 0.260263
O O8 0.359961 0.411706 0.000000
O O9 0.316506 0.891747 0.782233
O O10 0.278989 0.000000 0.760798
O O11 0.261891 0.940683 0.000000
O O12 0.938903 0.142175 0.500000
O O13 0.000000 0.136764 0.266559
O O14 0.086866 0.558629 0.253297
O O15 0.111294 0.602709 0.000000
O O16 0.082187 0.500000 0.500000
O O17 0.000000 0.500000 0.313490
#
# Coordination Sequence:
#
# PCOD8274229 Si02
#       6
#    16  16  16  16  16   8
#     4   9  19  36  53  69  98 139 173 205 255 311
#     4   9  18  33  55  79 103 132 165 204 251 303
#     4   8  15  31  51  71 100 135 165 202 254 302
#     4   9  19  36  55  74 101 137 170 203 250 306
#     4  11  20  32  53  77  99 130 174 219 256 294
#     4  11  23  35  47  69 105 141 170 209 260 307
#
# _framework density 17.490289000000001
#
# number of rings (size 3 to 8) (size 9 to 14) (size 15 to 20)
#    0.000    2.636    0.909    3.545    0.000    5.091 
#    0.000    6.364    0.000    5.455    0.000    0.000 
#    0.000    0.000    0.000    0.000    0.000    0.000 
#
# Total GULP energy -545428.589457 kJ/mol
# GULP energy per Si atom -12396.104306 kJ/mol
# Density = 1.745048 g / cm^3
# Si number density = 17.490289 Si / 1000 Ang^3
#
#
#
# Elastic Constant Matrix: (Units=GPa)
#
#
# Indices 1 2 3 4 5 6 
#
# 1 120.9439 61.8847 45.2602 0.0000 0.0000 0.0000
# 2 61.8847 75.4651 35.4876 0.0000 0.0000 0.0000
# 3 45.2602 35.4876 55.6022 0.0000 0.0000 0.0000
# 4 0.0000 0.0000 0.0000 31.0908 0.0000 0.0000
# 5 0.0000 0.0000 0.0000 0.0000 -202.5679 0.0000
# 6 0.0000 0.0000 0.0000 0.0000 0.0000 14.1389
#
#
#
# Elastic Compliance Matrix: (Units=1/GPa)
#
#
# Indices 1 2 3 4 5 6 
#
# 1 0.015752 -0.009841 -0.006541 0.000000 0.000000 0.000000
# 2 -0.009841 0.025082 -0.007998 0.000000 0.000000 0.000000
# 3 -0.006541 -0.007998 0.028414 0.000000 0.000000 0.000000
# 4 0.000000 0.000000 0.000000 0.032164 0.000000 0.000000
# 5 0.000000 0.000000 0.000000 0.000000 -0.004937 0.000000
# 6 0.000000 0.000000 0.000000 0.000000 0.000000 0.070727
#
#
# Mechanical properties :
#
#
# Convention : Reuss Voigt Hill
#
# Bulk Modulus (GPa) = 48.80910 59.69738 54.25324
# Shear Modulus (GPa) = 22.44263 -24.17572 -0.86655
#
# Velocity S-wave (km/s) = 3.58599 -3.72188 -0.70464
# Velocity P-wave (km/s) = 6.71660 3.96686 5.51583
#
# Compressibility (1/GPa) = 0.02048798
#
# Stress axis : x y z
#
# Youngs Moduli (GPa) = 63.48586 39.86868 35.19446
#
# Poissons Ratio (x) = 0.39235 0.23020
# Poissons Ratio (y) = 0.62478 0.28148
# Poissons Ratio (z) = 0.41524 0.31886
#
# Static dielectric constant tensor:
#      x y z
#    x 3.503030 0.000000 0.000000 
#    y 0.000000 3.215190 0.000000 
#    z 0.000000 0.000000 3.080650 
# 
# 
# High freq. dielectric constant tensor:
#      x y z
#    x 1.685190 0.000000 0.000000 
#    y 0.000000 1.666850 0.000000 
#    z 0.000000 0.000000 1.660350 
# 
# From -- ./inp_files/11743.got.cif
#   From: 2010.03.12/outbox.cif.g09.slc.cpg/sg65_6_cif.got.tgz:11743.got - 2010.04.10 20:52:16.
