data_PCOD8274921
_publ_section_title
;
Structure prediction by ZEFSAII (Michael W. Deem and Ramdas Pophale) SiO2 
 PCOD8274921
Probable space group: C M M M
;
_chemical_formula_sum "Si O2"
_cell_formula_units_Z 80
_cell_length_a 9.525787
_cell_length_b 20.151000
_cell_length_c 25.647016
_cell_angle_alpha 90.000000
_cell_angle_beta 90.000000
_cell_angle_gamma 90.000000
_cell_volume 4923.050742
_symmetry_space_group_name_H-M "C M M M"
_symmetry_group_IT_number 65
_symmetry_cell_setting 'orthorhombic'
loop_
_space_group_symop_operation_xyz
x,y,z
-x,-y,z
x,-y,-z
-x,y,-z
-x,-y,-z
x,y,-z
-x,y,z
x,-y,z
1/2+x,1/2+y,z
1/2-x,1/2-y,z
1/2+x,1/2-y,-z
1/2-x,1/2+y,-z
1/2-x,1/2-y,-z
1/2+x,1/2+y,-z
1/2-x,1/2+y,z
1/2+x,1/2-y,z
loop_
_atom_site_type_symbol
_atom_site_label
_atom_site_fract_x
_atom_site_fract_y
_atom_site_fract_z
Si Si1 0.157488 0.078900 0.442174
Si Si2 0.843663 0.078819 0.746869
Si Si3 0.158123 0.420706 0.652359
Si Si4 0.833196 0.926458 0.137913
Si Si5 0.336499 0.314642 0.059977
O O1 0.203800 0.103019 0.500000
O O2 0.264535 0.107456 0.399198
O O3 0.000000 0.104156 0.429621
O O4 0.158887 0.000000 0.440241
O O5 0.737984 0.107239 0.703369
O O6 0.787233 0.098549 0.804443
O O7 0.000000 0.107961 0.736958
O O8 0.851588 0.000000 0.743219
O O9 0.158749 0.500000 0.652401
O O10 0.000000 0.393027 0.652789
O O11 0.777875 0.875369 0.094547
O O12 0.000000 0.930795 0.136368
O O13 0.771006 0.000000 0.126178
O O14 0.500000 0.300589 0.070831
O O15 0.250000 0.250000 0.076152
O O16 0.310034 0.333794 0.000000
#
# Coordination Sequence:
#
# PCOD8274921 Si02
#       5
#    16  16  16  16  16
#     4   8  13  20  28  37  51  76 113 153 188 223
#     4   8  13  22  35  48  64  88 118 153 192 232
#     4   9  15  20  27  41  61  84 111 146 189 234
#     4   8  14  25  42  63  82 102 135 176 209 237
#     4   9  17  29  45  64  86 111 137 166 202 246
#
# _framework density 16.250087000000001
#
# number of rings (size 3 to 8) (size 9 to 14) (size 15 to 20)
#    0.000    3.600    0.000    2.400    0.000    3.200 
#    0.000    5.000    0.000    1.800    0.000    2.800 
#    0.000    0.000    0.000    0.000    0.000    1.000 
#
# Total GULP energy -495690.993985 kJ/mol
# GULP energy per Si atom -12392.274850 kJ/mol
# Density = 1.621310 g / cm^3
# Si number density = 16.250087 Si / 1000 Ang^3
#
#
#
# Elastic Constant Matrix: (Units=GPa)
#
#
# Indices 1 2 3 4 5 6 
#
# 1 84.3313 27.7717 67.8082 0.0000 0.0000 0.0000
# 2 27.7717 41.4173 51.5445 0.0000 0.0000 0.0000
# 3 67.8082 51.5445 148.1638 0.0000 0.0000 0.0000
# 4 0.0000 0.0000 0.0000 1.7872 0.0000 0.0000
# 5 0.0000 0.0000 0.0000 0.0000 16.4554 0.0000
# 6 0.0000 0.0000 0.0000 0.0000 0.0000 10.4328
#
#
#
# Elastic Compliance Matrix: (Units=1/GPa)
#
#
# Indices 1 2 3 4 5 6 
#
# 1 0.019028 -0.003388 -0.007530 0.000000 0.000000 0.000000
# 2 -0.003388 0.043183 -0.013472 0.000000 0.000000 0.000000
# 3 -0.007530 -0.013472 0.014882 0.000000 0.000000 0.000000
# 4 0.000000 0.000000 0.000000 0.559535 0.000000 0.000000
# 5 0.000000 0.000000 0.000000 0.000000 0.060770 0.000000
# 6 0.000000 0.000000 0.000000 0.000000 0.000000 0.095852
#
#
# Mechanical properties :
#
#
# Convention : Reuss Voigt Hill
#
# Bulk Modulus (GPa) = 35.31952 63.12904 49.22428
# Shear Modulus (GPa) = 5.87221 14.18761 10.02991
#
# Velocity S-wave (km/s) = 1.90302 2.95800 2.48709
# Velocity P-wave (km/s) = 5.15857 7.11330 6.21329
#
# Compressibility (1/GPa) = 0.02831295
#
# Stress axis : x y z
#
# Youngs Moduli (GPa) = 52.55375 23.15736 67.19486
#
# Poissons Ratio (x) = 0.07846 0.50595
# Poissons Ratio (y) = 0.17807 0.90526
# Poissons Ratio (z) = 0.39571 0.31198
#
# Static dielectric constant tensor:
#      x y z
#    x 3.057080 0.000000 0.000000 
#    y 0.000000 2.580220 0.000000 
#    z 0.000000 0.000000 3.462040 
# 
# 
# High freq. dielectric constant tensor:
#      x y z
#    x 1.607630 0.000000 0.000000 
#    y 0.000000 1.547250 0.000000 
#    z 0.000000 0.000000 1.642370 
# 
# From -- ./inp_files/72827.got.cif
#   From: 2010.03.12/outbox.cif.g09.slc.cpg/sg65_37_cif.got.tgz:72827.got - 2010.04.10 20:52:16.
