data_PCOD8274399
_publ_section_title
;
Structure prediction by ZEFSAII (Michael W. Deem and Ramdas Pophale) SiO2 
 PCOD8274399
Probable space group: C M M M
;
_chemical_formula_sum "Si O2"
_cell_formula_units_Z 72
_cell_length_a 17.248561
_cell_length_b 14.926889
_cell_length_c 13.619422
_cell_angle_alpha 90.000000
_cell_angle_beta 90.000000
_cell_angle_gamma 90.000000
_cell_volume 3506.556565
_symmetry_space_group_name_H-M "C M M M"
_symmetry_group_IT_number 65
_symmetry_cell_setting 'orthorhombic'
loop_
_space_group_symop_operation_xyz
x,y,z
-x,-y,z
x,-y,-z
-x,y,-z
-x,-y,-z
x,y,-z
-x,y,z
x,-y,z
1/2+x,1/2+y,z
1/2-x,1/2-y,z
1/2+x,1/2-y,-z
1/2-x,1/2+y,-z
1/2-x,1/2-y,-z
1/2+x,1/2+y,-z
1/2-x,1/2+y,z
1/2+x,1/2-y,z
loop_
_atom_site_type_symbol
_atom_site_label
_atom_site_fract_x
_atom_site_fract_y
_atom_site_fract_z
Si Si1 0.637496 0.900161 0.739885
Si Si2 0.000000 0.606490 0.392427
Si Si3 0.589972 0.395282 0.747097
Si Si4 0.658142 0.748773 0.888456
Si Si5 0.724378 0.647943 0.611933
O O1 0.576469 0.859600 0.662557
O O2 0.630754 0.838741 0.835174
O O3 0.720339 0.906059 0.685863
O O4 0.614841 0.000000 0.774216
O O5 0.000000 0.500000 0.400600
O O6 0.000000 0.650618 0.500000
O O7 0.500000 0.372060 0.729037
O O8 0.601243 0.500000 0.770728
O O9 0.623211 0.340095 0.839272
O O10 0.636550 0.366733 0.648860
O O11 0.750000 0.750000 0.881567
O O12 0.628471 0.751069 0.000000
O O13 0.731340 0.612838 0.500000
O O14 0.750000 0.750000 0.620263
#
# Coordination Sequence:
#
# PCOD8274399 Si02
#       5
#    16   8  16  16  16
#     4  11  21  38  63  91 126 163 205 256 313 383
#     4   9  20  36  57  91 126 157 197 243 299 371
#     4  11  24  43  66  93 128 169 215 265 316 375
#     4  11  24  43  65  90 121 159 208 266 324 375
#     4  11  22  39  64  94 128 169 214 257 314 382
#
# _framework density 20.532964
#
# number of rings (size 3 to 8) (size 9 to 14) (size 15 to 20)
#    0.000    1.222    4.444    1.333    1.556    4.444 
#    0.000    4.444    0.000    2.000    0.000    0.000 
#    0.000    0.000    0.000    0.000    0.000    0.000 
#
# Total GULP energy -446459.701084 kJ/mol
# GULP energy per Si atom -12401.658363 kJ/mol
# Density = 2.048623 g / cm^3
# Si number density = 20.532964 Si / 1000 Ang^3
#
#
#
# Elastic Constant Matrix: (Units=GPa)
#
#
# Indices 1 2 3 4 5 6 
#
# 1 125.9407 35.3011 49.4370 0.0000 0.0000 0.0000
# 2 35.3011 113.7761 61.2578 0.0000 0.0000 0.0000
# 3 49.4370 61.2578 150.9941 0.0000 0.0000 0.0000
# 4 0.0000 0.0000 0.0000 10.7651 0.0000 0.0000
# 5 0.0000 0.0000 0.0000 0.0000 31.6119 0.0000
# 6 0.0000 0.0000 0.0000 0.0000 0.0000 29.6396
#
#
#
# Elastic Compliance Matrix: (Units=1/GPa)
#
#
# Indices 1 2 3 4 5 6 
#
# 1 0.009333 -0.001600 -0.002407 0.000000 0.000000 0.000000
# 2 -0.001600 0.011520 -0.004150 0.000000 0.000000 0.000000
# 3 -0.002407 -0.004150 0.009094 0.000000 0.000000 0.000000
# 4 0.000000 0.000000 0.000000 0.092893 0.000000 0.000000
# 5 0.000000 0.000000 0.000000 0.000000 0.031634 0.000000
# 6 0.000000 0.000000 0.000000 0.000000 0.000000 0.033739
#
#
# Mechanical properties :
#
#
# Convention : Reuss Voigt Hill
#
# Bulk Modulus (GPa) = 73.34266 75.85585 74.59926
# Shear Modulus (GPa) = 23.91536 30.71766 27.31651
#
# Velocity S-wave (km/s) = 3.41652 3.87203 3.65139
# Velocity P-wave (km/s) = 7.16662 7.55075 7.36119
#
# Compressibility (1/GPa) = 0.01363463
#
# Stress axis : x y z
#
# Youngs Moduli (GPa) = 107.14106 86.80657 109.95933
#
# Poissons Ratio (x) = 0.13890 0.26464
# Poissons Ratio (y) = 0.17144 0.45630
# Poissons Ratio (z) = 0.25786 0.36022
#
# Static dielectric constant tensor:
#      x y z
#    x 3.963880 0.000000 0.000000 
#    y 0.000000 3.678850 0.000000 
#    z 0.000000 0.000000 3.862490 
# 
# 
# High freq. dielectric constant tensor:
#      x y z
#    x 1.810490 0.000000 0.000000 
#    y 0.000000 1.806820 0.000000 
#    z 0.000000 0.000000 1.794580 
# 
# From -- ./inp_files/42132.got.cif
#   From: 2010.03.12/outbox.cif.g09.slc.cpg/sg65_22_cif.got.tgz:42132.got - 2010.04.10 20:52:16.
