data_PCOD8274704
_publ_section_title
;
Structure prediction by ZEFSAII (Michael W. Deem and Ramdas Pophale) SiO2 
 PCOD8274704
Probable space group: C M M M
;
_chemical_formula_sum "Si O2"
_cell_formula_units_Z 80
_cell_length_a 17.707844
_cell_length_b 8.821839
_cell_length_c 26.204296
_cell_angle_alpha 90.000000
_cell_angle_beta 90.000000
_cell_angle_gamma 90.000000
_cell_volume 4093.523722
_symmetry_space_group_name_H-M "C M M M"
_symmetry_group_IT_number 65
_symmetry_cell_setting 'orthorhombic'
loop_
_space_group_symop_operation_xyz
x,y,z
-x,-y,z
x,-y,-z
-x,y,-z
-x,-y,-z
x,y,-z
-x,y,z
x,-y,z
1/2+x,1/2+y,z
1/2-x,1/2-y,z
1/2+x,1/2-y,-z
1/2-x,1/2+y,-z
1/2-x,1/2-y,-z
1/2+x,1/2+y,-z
1/2-x,1/2+y,z
1/2+x,1/2-y,z
loop_
_atom_site_type_symbol
_atom_site_label
_atom_site_fract_x
_atom_site_fract_y
_atom_site_fract_z
Si Si1 0.168491 0.180502 0.689319
Si Si2 0.583308 0.819118 0.000000
Si Si3 0.167884 0.180018 0.500000
Si Si4 0.915227 0.821614 0.789820
Si Si5 0.410998 0.826585 0.404183
Si Si6 0.090226 0.670207 0.891115
O O1 0.250000 0.250000 0.679112
O O2 0.138325 0.236018 0.744381
O O3 0.110736 0.245120 0.648125
O O4 0.172188 0.000000 0.685021
O O5 0.623423 0.770185 0.946254
O O6 0.500000 0.746454 0.000000
O O7 0.576630 0.000000 0.000000
O O8 0.250000 0.250000 0.500000
O O9 0.124720 0.234590 0.549794
O O10 0.173130 0.000000 0.500000
O O11 0.879946 0.770328 0.844015
O O12 0.000000 0.754125 0.782695
O O13 0.919482 0.000000 0.789155
O O14 0.500000 0.821125 0.410512
O O15 0.381639 0.000000 0.404548
O O16 0.118056 0.500000 0.880585
O O17 0.000000 0.676964 0.894851
#
# Coordination Sequence:
#
# PCOD8274704 Si02
#       6
#    16   8   8  16  16  16
#     4  11  23  39  58  80 109 144 183 226 274 327
#     4   7  10  18  33  57  90 125 160 201 251 305
#     4  12  25  42  65  91 123 159 193 228 269 318
#     4   9  18  32  49  71 101 135 170 212 264 320
#     4  11  24  42  64  90 119 149 185 229 273 320
#     4   8  13  22  39  63  92 127 166 207 252 307
#
# _framework density 19.543064999999999
#
# number of rings (size 3 to 8) (size 9 to 14) (size 15 to 20)
#    0.000    2.300    0.000    4.800    0.000    5.200 
#    0.000    2.500    0.000    3.000    0.000    0.700 
#    0.000    0.000    0.000    0.000    0.000    0.000 
#
# Total GULP energy -495768.399095 kJ/mol
# GULP energy per Si atom -12394.209977 kJ/mol
# Density = 1.949858 g / cm^3
# Si number density = 19.543065 Si / 1000 Ang^3
#
#
#
# Elastic Constant Matrix: (Units=GPa)
#
#
# Indices 1 2 3 4 5 6 
#
# 1 56.5351 29.5876 33.8742 0.0000 0.0000 0.0000
# 2 29.5876 84.6940 53.4035 0.0000 0.0000 0.0000
# 3 33.8742 53.4035 175.3866 0.0000 0.0000 0.0000
# 4 0.0000 0.0000 0.0000 40.5872 0.0000 0.0000
# 5 0.0000 0.0000 0.0000 0.0000 -2.4482 0.0000
# 6 0.0000 0.0000 0.0000 0.0000 0.0000 20.7213
#
#
#
# Elastic Compliance Matrix: (Units=1/GPa)
#
#
# Indices 1 2 3 4 5 6 
#
# 1 0.022439 -0.006320 -0.002410 0.000000 0.000000 0.000000
# 2 -0.006320 0.016393 -0.003771 0.000000 0.000000 0.000000
# 3 -0.002410 -0.003771 0.007315 0.000000 0.000000 0.000000
# 4 0.000000 0.000000 0.000000 0.024638 0.000000 0.000000
# 5 0.000000 0.000000 0.000000 0.000000 -0.408470 0.000000
# 6 0.000000 0.000000 0.000000 0.000000 0.000000 0.048259
#
#
# Mechanical properties :
#
#
# Convention : Reuss Voigt Hill
#
# Bulk Modulus (GPa) = 47.28827 61.14961 54.21894
# Shear Modulus (GPa) = -19.42689 25.08877 2.83094
#
# Velocity S-wave (km/s) = -3.15628 3.58686 1.20487
# Velocity P-wave (km/s) = 3.31159 6.96503 5.45336
#
# Compressibility (1/GPa) = 0.02114689
#
# Stress axis : x y z
#
# Youngs Moduli (GPa) = 44.56458 61.00283 136.70045
#
# Poissons Ratio (x) = 0.38552 0.32940
# Poissons Ratio (y) = 0.28164 0.51547
# Poissons Ratio (z) = 0.10738 0.23003
#
# Static dielectric constant tensor:
#      x y z
#    x 3.262610 0.000000 0.000000 
#    y 0.000000 3.538240 0.000000 
#    z 0.000000 0.000000 4.160710 
# 
# 
# High freq. dielectric constant tensor:
#      x y z
#    x 1.723270 0.000000 0.000000 
#    y 0.000000 1.750980 0.000000 
#    z 0.000000 0.000000 1.790800 
# 
# From -- ./inp_files/75126.got.cif
#   From: 2010.03.12/outbox.cif.g09.slc.cpg/sg65_38_cif.got.tgz:75126.got - 2010.04.10 20:52:16.
