data_PCOD8274274
_publ_section_title
;
Structure prediction by ZEFSAII (Michael W. Deem and Ramdas Pophale) SiO2 
 PCOD8274274
Probable space group: C M M M
;
_chemical_formula_sum "Si O2"
_cell_formula_units_Z 88
_cell_length_a 8.793492
_cell_length_b 27.671073
_cell_length_c 21.910277
_cell_angle_alpha 90.000000
_cell_angle_beta 90.000000
_cell_angle_gamma 90.000000
_cell_volume 5331.326018
_symmetry_space_group_name_H-M "C M M M"
_symmetry_group_IT_number 65
_symmetry_cell_setting 'orthorhombic'
loop_
_space_group_symop_operation_xyz
x,y,z
-x,-y,z
x,-y,-z
-x,y,-z
-x,-y,-z
x,y,-z
-x,y,z
x,-y,z
1/2+x,1/2+y,z
1/2-x,1/2-y,z
1/2+x,1/2-y,-z
1/2-x,1/2+y,-z
1/2-x,1/2-y,-z
1/2+x,1/2+y,-z
1/2-x,1/2+y,z
1/2+x,1/2-y,z
loop_
_atom_site_type_symbol
_atom_site_label
_atom_site_fract_x
_atom_site_fract_y
_atom_site_fract_z
Si Si1 0.179306 0.302614 0.131430
Si Si2 0.320543 0.699339 0.363913
Si Si3 0.680553 0.146846 0.747961
Si Si4 0.822045 0.698270 0.000000
Si Si5 0.176692 0.386019 0.431076
Si Si6 0.820885 0.552911 0.317649
O O1 0.250000 0.250000 0.141676
O O2 0.234502 0.339731 0.183645
O O3 0.226166 0.326150 0.064907
O O4 0.000000 0.295507 0.135795
O O5 0.500000 0.703774 0.359625
O O6 0.250000 0.750000 0.383969
O O7 0.255958 0.684529 0.298023
O O8 0.274983 0.661049 0.415741
O O9 0.500000 0.150825 0.739862
O O10 0.736654 0.092280 0.732129
O O11 0.750000 0.750000 0.000000
O O12 0.000000 0.705358 0.000000
O O13 0.210819 0.402897 0.500000
O O14 0.223727 0.429405 0.385675
O O15 0.000000 0.372650 0.421649
O O16 0.745955 0.500000 0.305832
O O17 0.000000 0.547823 0.312114
#
# Coordination Sequence:
#
# PCOD8274274 Si02
#       6
#    16  16  16   8  16  16
#     4   9  16  25  39  59  85 115 144 174 207 245
#     4  11  21  32  46  63  86 115 144 174 208 248
#     4   9  17  29  44  64  87 111 143 179 213 251
#     4   8  14  24  36  54  81 113 145 173 204 242
#     4   9  18  32  48  66  87 109 137 173 210 252
#     4   8  14  26  45  67  87 106 134 175 216 251
#
# _framework density 16.506212999999999
#
# number of rings (size 3 to 8) (size 9 to 14) (size 15 to 20)
#    0.000    2.909    0.000    3.273    0.000    3.273 
#    0.000    1.818    0.000    8.727    0.000    5.727 
#    0.000    5.091    0.000    0.000    0.000   40.909 
#
# Total GULP energy -545151.297155 kJ/mol
# GULP energy per Si atom -12389.802208 kJ/mol
# Density = 1.646864 g / cm^3
# Si number density = 16.506213 Si / 1000 Ang^3
#
#
#
# Elastic Constant Matrix: (Units=GPa)
#
#
# Indices 1 2 3 4 5 6 
#
# 1 35.2585 16.3324 15.7019 0.0000 0.0000 0.0000
# 2 16.3324 108.0515 56.3521 0.0000 0.0000 0.0000
# 3 15.7019 56.3521 150.6139 0.0000 0.0000 0.0000
# 4 0.0000 0.0000 0.0000 14.7909 0.0000 0.0000
# 5 0.0000 0.0000 0.0000 0.0000 16.3179 0.0000
# 6 0.0000 0.0000 0.0000 0.0000 0.0000 14.0557
#
#
#
# Elastic Compliance Matrix: (Units=1/GPa)
#
#
# Indices 1 2 3 4 5 6 
#
# 1 0.030898 -0.003715 -0.001831 0.000000 0.000000 0.000000
# 2 -0.003715 0.011945 -0.004082 0.000000 0.000000 0.000000
# 3 -0.001831 -0.004082 0.008358 0.000000 0.000000 0.000000
# 4 0.000000 0.000000 0.000000 0.067609 0.000000 0.000000
# 5 0.000000 0.000000 0.000000 0.000000 0.061282 0.000000
# 6 0.000000 0.000000 0.000000 0.000000 0.000000 0.071146
#
#
# Mechanical properties :
#
#
# Convention : Reuss Voigt Hill
#
# Bulk Modulus (GPa) = 31.30443 52.29963 41.80203
# Shear Modulus (GPa) = 17.78449 22.73540 20.25995
#
# Velocity S-wave (km/s) = 3.28600 3.71534 3.50725
# Velocity P-wave (km/s) = 5.77958 7.08227 6.46383
#
# Compressibility (1/GPa) = 0.03194436
#
# Stress axis : x y z
#
# Youngs Moduli (GPa) = 32.36406 83.71475 119.65068
#
# Poissons Ratio (x) = 0.31104 0.21909
# Poissons Ratio (y) = 0.12025 0.48841
# Poissons Ratio (z) = 0.05926 0.34172
#
# Static dielectric constant tensor:
#      x y z
#    x 3.025910 0.000000 0.000000 
#    y 0.000000 3.216570 0.000000 
#    z 0.000000 0.000000 3.598880 
# 
# 
# High freq. dielectric constant tensor:
#      x y z
#    x 1.615500 0.000000 0.000000 
#    y 0.000000 1.609900 0.000000 
#    z 0.000000 0.000000 1.640770 
# 
# From -- ./inp_files/60246.got.cif
#   From: 2010.03.12/outbox.cif.g09.slc.cpg/sg65_31_cif.got.tgz:60246.got - 2010.04.10 20:52:16.
