data_PCOD8274497
_publ_section_title
;
Structure prediction by ZEFSAII (Michael W. Deem and Ramdas Pophale) SiO2 
 PCOD8274497
Probable space group: C M M M
;
_chemical_formula_sum "Si O2"
_cell_formula_units_Z 56
_cell_length_a 10.078015
_cell_length_b 26.628700
_cell_length_c 11.334052
_cell_angle_alpha 90.000000
_cell_angle_beta 90.000000
_cell_angle_gamma 90.000000
_cell_volume 3041.656496
_symmetry_space_group_name_H-M "C M M M"
_symmetry_group_IT_number 65
_symmetry_cell_setting 'orthorhombic'
loop_
_space_group_symop_operation_xyz
x,y,z
-x,-y,z
x,-y,-z
-x,y,-z
-x,-y,-z
x,y,-z
-x,y,z
x,-y,z
1/2+x,1/2+y,z
1/2-x,1/2-y,z
1/2+x,1/2-y,-z
1/2-x,1/2+y,-z
1/2-x,1/2-y,-z
1/2+x,1/2+y,-z
1/2-x,1/2+y,z
1/2+x,1/2-y,z
loop_
_atom_site_type_symbol
_atom_site_label
_atom_site_fract_x
_atom_site_fract_y
_atom_site_fract_z
Si Si1 0.247976 0.849708 0.740972
Si Si2 0.500000 0.310036 0.873089
Si Si3 0.000000 0.692616 0.132682
Si Si4 0.154936 0.442356 0.864704
Si Si5 0.164800 0.197639 0.500000
O O1 0.128363 0.827516 0.809975
O O2 0.375975 0.821926 0.788893
O O3 0.262996 0.909080 0.770324
O O4 0.216115 0.837254 0.606003
O O5 0.500000 0.251066 0.883571
O O6 0.500000 0.335623 0.000000
O O7 0.000000 0.667775 0.000000
O O8 0.182451 0.500000 0.832247
O O9 0.000000 0.429176 0.850831
O O10 0.199039 0.431558 0.000000
O O11 0.250000 0.250000 0.500000
O O12 0.000000 0.205761 0.500000
#
# Coordination Sequence:
#
# PCOD8274497 Si02
#       5
#    16   8   8  16   8
#     4  12  23  39  62  88 128 164 209 258 312 370
#     4  11  22  35  56  88 125 161 197 256 322 382
#     4  11  22  37  60  92 123 161 205 252 316 386
#     4   9  18  36  64  96 126 158 204 261 317 375
#     4  12  28  46  65  88 125 177 226 261 299 364
#
# _framework density 18.411021000000002
#
# number of rings (size 3 to 8) (size 9 to 14) (size 15 to 20)
#    0.000    1.143    2.857    6.000    2.000    2.286 
#    0.000    1.429    0.000    5.143    0.000    0.000 
#    0.000    0.000    0.000    0.000    0.000    0.000 
#
# Total GULP energy -346908.865311 kJ/mol
# GULP energy per Si atom -12389.602333 kJ/mol
# Density = 1.836912 g / cm^3
# Si number density = 18.411021 Si / 1000 Ang^3
#
#
#
# Elastic Constant Matrix: (Units=GPa)
#
#
# Indices 1 2 3 4 5 6 
#
# 1 127.2086 33.4224 64.6732 0.0000 0.0000 0.0000
# 2 33.4224 101.6931 60.4942 0.0000 0.0000 0.0000
# 3 64.6732 60.4942 164.3530 0.0000 0.0000 0.0000
# 4 0.0000 0.0000 0.0000 23.7647 0.0000 0.0000
# 5 0.0000 0.0000 0.0000 0.0000 37.0751 0.0000
# 6 0.0000 0.0000 0.0000 0.0000 0.0000 101.1363
#
#
#
# Elastic Compliance Matrix: (Units=1/GPa)
#
#
# Indices 1 2 3 4 5 6 
#
# 1 0.009941 -0.001204 -0.003469 0.000000 0.000000 0.000000
# 2 -0.001204 0.012736 -0.004214 0.000000 0.000000 0.000000
# 3 -0.003469 -0.004214 0.009001 0.000000 0.000000 0.000000
# 4 0.000000 0.000000 0.000000 0.042079 0.000000 0.000000
# 5 0.000000 0.000000 0.000000 0.000000 0.026972 0.000000
# 6 0.000000 0.000000 0.000000 0.000000 0.000000 0.009888
#
#
# Mechanical properties :
#
#
# Convention : Reuss Voigt Hill
#
# Bulk Modulus (GPa) = 71.92039 78.93715 75.42877
# Shear Modulus (GPa) = 37.58710 48.03954 42.81332
#
# Velocity S-wave (km/s) = 4.52326 5.11365 4.82749
# Velocity P-wave (km/s) = 8.15036 8.82236 8.49301
#
# Compressibility (1/GPa) = 0.01390426
#
# Stress axis : x y z
#
# Youngs Moduli (GPa) = 100.59497 78.51773 111.10492
#
# Poissons Ratio (x) = 0.09452 0.38539
# Poissons Ratio (y) = 0.12109 0.46821
# Poissons Ratio (z) = 0.34893 0.33088
#
# Static dielectric constant tensor:
#      x y z
#    x 3.553100 0.000000 0.000000 
#    y 0.000000 3.628980 0.000000 
#    z 0.000000 0.000000 3.438250 
# 
# 
# High freq. dielectric constant tensor:
#      x y z
#    x 1.719350 0.000000 0.000000 
#    y 0.000000 1.718750 0.000000 
#    z 0.000000 0.000000 1.712460 
# 
# From -- ./inp_files/20857.got.cif
#   From: 2010.03.12/outbox.cif.g09.slc.cpg/sg65_11_cif.got.tgz:20857.got - 2010.04.10 20:52:16.
