data_PCOD8274564
_publ_section_title
;
Structure prediction by ZEFSAII (Michael W. Deem and Ramdas Pophale) SiO2 
 PCOD8274564
Probable space group: C M M M
;
_chemical_formula_sum "Si O2"
_cell_formula_units_Z 64
_cell_length_a 18.288263
_cell_length_b 8.807008
_cell_length_c 20.527384
_cell_angle_alpha 90.000000
_cell_angle_beta 90.000000
_cell_angle_gamma 90.000000
_cell_volume 3306.240611
_symmetry_space_group_name_H-M "C M M M"
_symmetry_group_IT_number 65
_symmetry_cell_setting 'orthorhombic'
loop_
_space_group_symop_operation_xyz
x,y,z
-x,-y,z
x,-y,-z
-x,y,-z
-x,-y,-z
x,y,-z
-x,y,z
x,-y,z
1/2+x,1/2+y,z
1/2-x,1/2-y,z
1/2+x,1/2-y,-z
1/2-x,1/2+y,-z
1/2-x,1/2-y,-z
1/2+x,1/2+y,-z
1/2-x,1/2+y,z
1/2+x,1/2-y,z
loop_
_atom_site_type_symbol
_atom_site_label
_atom_site_fract_x
_atom_site_fract_y
_atom_site_fract_z
Si Si1 0.170778 0.319328 0.382131
Si Si2 0.919071 0.319924 0.259535
Si Si3 0.086483 0.175391 0.500000
Si Si4 0.171490 0.176738 0.000000
Si Si5 0.585952 0.826323 0.114385
O O1 0.175436 0.500000 0.386342
O O2 0.250000 0.250000 0.393081
O O3 0.139143 0.262222 0.312675
O O4 0.116697 0.258930 0.436795
O O5 0.924676 0.500000 0.261057
O O6 0.893817 0.269521 0.187328
O O7 0.000000 0.253108 0.275148
O O8 0.000000 0.192187 0.500000
O O9 0.111172 0.000000 0.500000
O O10 0.250000 0.250000 0.000000
O O11 0.127888 0.221149 0.935569
O O12 0.182929 0.000000 0.000000
O O13 0.500000 0.810443 0.102283
O O14 0.610644 0.000000 0.103695
#
# Coordination Sequence:
#
# PCOD8274564 Si02
#       5
#    16  16   8   8  16
#     4  11  22  37  58  84 116 150 185 225 272 326
#     4   8  16  33  58  85 110 141 183 226 269 324
#     4  11  24  41  60  83 111 143 184 233 280 327
#     4  12  25  38  53  77 111 147 187 232 277 328
#     4   9  18  36  61  85 111 144 181 223 274 330
#
# _framework density 19.357332
#
# number of rings (size 3 to 8) (size 9 to 14) (size 15 to 20)
#    0.000    2.125    0.000    5.250    0.000    5.000 
#    0.000    5.000    0.000    3.000    0.000    0.000 
#    0.000    0.000    0.000    0.000    0.000    0.000 
#
# Total GULP energy -396807.578131 kJ/mol
# GULP energy per Si atom -12400.236817 kJ/mol
# Density = 1.931327 g / cm^3
# Si number density = 19.357332 Si / 1000 Ang^3
#
#
#
# Elastic Constant Matrix: (Units=GPa)
#
#
# Indices 1 2 3 4 5 6 
#
# 1 90.5433 46.3468 65.2861 0.0000 0.0000 0.0000
# 2 46.3468 99.6350 55.1119 0.0000 0.0000 0.0000
# 3 65.2861 55.1119 155.3300 0.0000 0.0000 0.0000
# 4 0.0000 0.0000 0.0000 -24.1234 0.0000 0.0000
# 5 0.0000 0.0000 0.0000 0.0000 -4.2430 0.0000
# 6 0.0000 0.0000 0.0000 0.0000 0.0000 24.5347
#
#
#
# Elastic Compliance Matrix: (Units=1/GPa)
#
#
# Indices 1 2 3 4 5 6 
#
# 1 0.017733 -0.005134 -0.005632 0.000000 0.000000 0.000000
# 2 -0.005134 0.013973 -0.002800 0.000000 0.000000 0.000000
# 3 -0.005632 -0.002800 0.009799 0.000000 0.000000 0.000000
# 4 0.000000 0.000000 0.000000 -0.041454 0.000000 0.000000
# 5 0.000000 0.000000 0.000000 0.000000 -0.235683 0.000000
# 6 0.000000 0.000000 0.000000 0.000000 0.000000 0.040759
#
#
# Mechanical properties :
#
#
# Convention : Reuss Voigt Hill
#
# Bulk Modulus (GPa) = 69.57122 75.44420 72.50771
# Shear Modulus (GPa) = -30.68429 11.15124 -9.76653
#
# Velocity S-wave (km/s) = -3.98571 2.40276 -2.24863
# Velocity P-wave (km/s) = 3.85192 6.83789 5.54951
#
# Compressibility (1/GPa) = 0.01437376
#
# Stress axis : x y z
#
# Youngs Moduli (GPa) = 56.39185 71.56407 102.05606
#
# Poissons Ratio (x) = 0.36738 0.57477
# Poissons Ratio (y) = 0.28949 0.28578
# Poissons Ratio (z) = 0.31759 0.20039
#
# Static dielectric constant tensor:
#      x y z
#    x 3.597490 0.000000 0.000000 
#    y 0.000000 3.361170 0.000000 
#    z 0.000000 0.000000 3.886910 
# 
# 
# High freq. dielectric constant tensor:
#      x y z
#    x 1.756330 0.000000 0.000000 
#    y 0.000000 1.732600 0.000000 
#    z 0.000000 0.000000 1.772830 
# 
# From -- ./inp_files/63262.got.cif
#   From: 2010.03.12/outbox.cif.g09.slc.cpg/sg65_32_cif.got.tgz:63262.got - 2010.04.10 20:52:16.
