data_PCOD8274196
_publ_section_title
;
Structure prediction by ZEFSAII (Michael W. Deem and Ramdas Pophale) SiO2 
 PCOD8274196
Probable space group: C M M M
;
_chemical_formula_sum "Si O2"
_cell_formula_units_Z 72
_cell_length_a 23.960883
_cell_length_b 8.520707
_cell_length_c 17.772563
_cell_angle_alpha 90.000000
_cell_angle_beta 90.000000
_cell_angle_gamma 90.000000
_cell_volume 3628.511572
_symmetry_space_group_name_H-M "C M M M"
_symmetry_group_IT_number 65
_symmetry_cell_setting 'orthorhombic'
loop_
_space_group_symop_operation_xyz
x,y,z
-x,-y,z
x,-y,-z
-x,y,-z
-x,-y,-z
x,y,-z
-x,y,z
x,-y,z
1/2+x,1/2+y,z
1/2-x,1/2-y,z
1/2+x,1/2-y,-z
1/2-x,1/2+y,-z
1/2-x,1/2-y,-z
1/2+x,1/2+y,-z
1/2-x,1/2+y,z
1/2+x,1/2-y,z
loop_
_atom_site_type_symbol
_atom_site_label
_atom_site_fract_x
_atom_site_fract_y
_atom_site_fract_z
Si Si1 0.000000 0.826435 0.718764
Si Si2 0.120110 0.185903 0.917550
Si Si3 0.064769 0.814879 0.500000
Si Si4 0.500000 0.670546 0.107205
Si Si5 0.892371 0.683929 0.653030
Si Si6 0.688176 0.313864 0.774296
O O1 0.947086 0.723270 0.699553
O O2 0.000000 0.858273 0.805245
O O3 0.000000 0.000000 0.677780
O O4 0.156966 0.254589 0.849015
O O5 0.057213 0.259743 0.915915
O O6 0.115315 0.000000 0.905373
O O7 0.146587 0.225728 0.000000
O O8 0.100208 0.755221 0.429466
O O9 0.000000 0.751591 0.500000
O O10 0.063704 0.000000 0.500000
O O11 0.500000 0.500000 0.067205
O O12 0.883112 0.500000 0.646298
O O13 0.840076 0.757498 0.696954
O O14 0.688369 0.500000 0.775360
O O15 0.750000 0.250000 0.776543
#
# Coordination Sequence:
#
# PCOD8274196 Si02
#       6
#     8  16   8   8  16  16
#     4  11  19  33  58  89 121 162 202 244 298 359
#     4   9  17  30  53  86 120 155 199 251 304 360
#     4  11  23  39  64  95 129 164 196 237 291 355
#     4   9  15  27  51  85 119 152 193 242 298 361
#     4  12  24  39  61  92 126 160 199 247 300 357
#     4  11  23  41  62  85 116 159 210 258 306 359
#
# _framework density 19.842846999999999
#
# number of rings (size 3 to 8) (size 9 to 14) (size 15 to 20)
#    0.000    1.444    3.333    3.667    0.000    2.222 
#    0.000    0.556    0.000    2.000    0.000    1.556 
#    0.000    0.000    0.000    0.000    0.000    0.000 
#
# Total GULP energy -446166.017204 kJ/mol
# GULP energy per Si atom -12393.500478 kJ/mol
# Density = 1.979768 g / cm^3
# Si number density = 19.842847 Si / 1000 Ang^3
#
#
#
# Elastic Constant Matrix: (Units=GPa)
#
#
# Indices 1 2 3 4 5 6 
#
# 1 153.2240 31.9291 77.1690 0.0000 0.0000 0.0000
# 2 31.9291 73.3270 36.7072 0.0000 0.0000 0.0000
# 3 77.1690 36.7072 171.4983 0.0000 0.0000 0.0000
# 4 0.0000 0.0000 0.0000 8.7906 0.0000 0.0000
# 5 0.0000 0.0000 0.0000 0.0000 17.9798 0.0000
# 6 0.0000 0.0000 0.0000 0.0000 0.0000 25.7590
#
#
#
# Elastic Compliance Matrix: (Units=1/GPa)
#
#
# Indices 1 2 3 4 5 6 
#
# 1 0.008705 -0.002049 -0.003479 0.000000 0.000000 0.000000
# 2 -0.002049 0.015757 -0.002450 0.000000 0.000000 0.000000
# 3 -0.003479 -0.002450 0.007921 0.000000 0.000000 0.000000
# 4 0.000000 0.000000 0.000000 0.113758 0.000000 0.000000
# 5 0.000000 0.000000 0.000000 0.000000 0.055618 0.000000
# 6 0.000000 0.000000 0.000000 0.000000 0.000000 0.038821
#
#
# Mechanical properties :
#
#
# Convention : Reuss Voigt Hill
#
# Bulk Modulus (GPa) = 60.87848 76.62887 68.75368
# Shear Modulus (GPa) = 19.08314 27.32215 23.20265
#
# Velocity S-wave (km/s) = 3.10452 3.71472 3.42324
# Velocity P-wave (km/s) = 6.60285 7.55649 7.09571
#
# Compressibility (1/GPa) = 0.01642616
#
# Stress axis : x y z
#
# Youngs Moduli (GPa) = 114.87230 63.46583 126.25215
#
# Poissons Ratio (x) = 0.13006 0.43917
# Poissons Ratio (y) = 0.23540 0.30937
# Poissons Ratio (z) = 0.39958 0.15552
#
# Static dielectric constant tensor:
#      x y z
#    x 3.801650 0.000000 0.000000 
#    y 0.000000 3.354470 0.000000 
#    z 0.000000 0.000000 3.837660 
# 
# 
# High freq. dielectric constant tensor:
#      x y z
#    x 1.763750 0.000000 0.000000 
#    y 0.000000 1.743400 0.000000 
#    z 0.000000 0.000000 1.794400 
# 
# From -- ./inp_files/56482.got.cif
#   From: 2010.03.12/outbox.cif.g09.slc.cpg/sg65_29_cif.got.tgz:56482.got - 2010.04.10 20:52:16.
