data_PCOD8274712
_publ_section_title
;
Structure prediction by ZEFSAII (Michael W. Deem and Ramdas Pophale) SiO2 
 PCOD8274712
Probable space group: C M M M
;
_chemical_formula_sum "Si O2"
_cell_formula_units_Z 64
_cell_length_a 8.803790
_cell_length_b 17.722343
_cell_length_c 20.644623
_cell_angle_alpha 90.000000
_cell_angle_beta 90.000000
_cell_angle_gamma 90.000000
_cell_volume 3221.052243
_symmetry_space_group_name_H-M "C M M M"
_symmetry_group_IT_number 65
_symmetry_cell_setting 'orthorhombic'
loop_
_space_group_symop_operation_xyz
x,y,z
-x,-y,z
x,-y,-z
-x,y,-z
-x,-y,-z
x,y,-z
-x,y,z
x,-y,z
1/2+x,1/2+y,z
1/2-x,1/2-y,z
1/2+x,1/2-y,-z
1/2-x,1/2+y,-z
1/2-x,1/2-y,-z
1/2+x,1/2+y,-z
1/2-x,1/2+y,z
1/2+x,1/2-y,z
loop_
_atom_site_type_symbol
_atom_site_label
_atom_site_fract_x
_atom_site_fract_y
_atom_site_fract_z
Si Si1 0.179933 0.332014 0.000000
Si Si2 0.326330 0.411068 0.878533
Si Si3 0.171440 0.910346 0.500000
Si Si4 0.178719 0.585580 0.630061
Si Si5 0.319648 0.831675 0.759622
O O1 0.250000 0.250000 0.000000
O O2 0.233418 0.375290 0.936683
O O3 0.000000 0.326201 0.000000
O O4 0.500000 0.382019 0.880014
O O5 0.319429 0.500000 0.886307
O O6 0.247844 0.388908 0.811615
O O7 0.250568 0.878935 0.564822
O O8 0.000000 0.881526 0.500000
O O9 0.185503 0.000000 0.500000
O O10 0.237130 0.500000 0.642114
O O11 0.230646 0.637594 0.689538
O O12 0.000000 0.585831 0.621552
O O13 0.500000 0.828337 0.767014
O O14 0.250000 0.750000 0.771302
#
# Coordination Sequence:
#
# PCOD8274712 Si02
#       5
#     8  16   8  16  16
#     4  12  25  42  65  91 123 159 195 236 283 338
#     4  11  24  42  64  90 120 153 192 239 288 339
#     4   9  17  29  50  81 112 141 179 231 286 339
#     4   9  18  34  56  80 108 145 188 233 282 340
#     4  11  23  39  59  84 116 153 194 238 288 345
#
# _framework density 19.869284
#
# number of rings (size 3 to 8) (size 9 to 14) (size 15 to 20)
#    0.000    1.625    0.000    4.875    0.000    8.000 
#    0.000    3.125    0.000    0.000    0.000    0.000 
#    0.000    0.000    0.000    0.000    0.000    0.000 
#
# Total GULP energy -396931.287552 kJ/mol
# GULP energy per Si atom -12404.102736 kJ/mol
# Density = 1.982406 g / cm^3
# Si number density = 19.869284 Si / 1000 Ang^3
#
#
#
# Elastic Constant Matrix: (Units=GPa)
#
#
# Indices 1 2 3 4 5 6 
#
# 1 116.7259 38.9706 71.0726 0.0000 0.0000 0.0000
# 2 38.9706 71.3682 38.3978 0.0000 0.0000 0.0000
# 3 71.0726 38.3978 160.1134 0.0000 0.0000 0.0000
# 4 0.0000 0.0000 0.0000 -31.7871 0.0000 0.0000
# 5 0.0000 0.0000 0.0000 0.0000 39.6345 0.0000
# 6 0.0000 0.0000 0.0000 0.0000 0.0000 26.4292
#
#
#
# Elastic Compliance Matrix: (Units=1/GPa)
#
#
# Indices 1 2 3 4 5 6 
#
# 1 0.012913 -0.004555 -0.004639 0.000000 0.000000 0.000000
# 2 -0.004555 0.017694 -0.002222 0.000000 0.000000 0.000000
# 3 -0.004639 -0.002222 0.008838 0.000000 0.000000 0.000000
# 4 0.000000 0.000000 0.000000 -0.031459 0.000000 0.000000
# 5 0.000000 0.000000 0.000000 0.000000 0.025231 0.000000
# 6 0.000000 0.000000 0.000000 0.000000 0.000000 0.037837
#
#
# Mechanical properties :
#
#
# Convention : Reuss Voigt Hill
#
# Bulk Modulus (GPa) = 60.19381 71.67661 65.93521
# Shear Modulus (GPa) = 50.29058 20.17308 35.23183
#
# Velocity S-wave (km/s) = 5.03643 3.18982 4.21548
# Velocity P-wave (km/s) = 8.01134 7.05117 7.54654
#
# Compressibility (1/GPa) = 0.01661300
#
# Stress axis : x y z
#
# Youngs Moduli (GPa) = 77.44331 56.51560 113.15102
#
# Poissons Ratio (x) = 0.25742 0.52496
# Poissons Ratio (y) = 0.35274 0.25137
# Poissons Ratio (z) = 0.35930 0.12555
#
# Static dielectric constant tensor:
#      x y z
#    x 3.766070 0.000000 0.000000 
#    y 0.000000 3.514540 0.000000 
#    z 0.000000 0.000000 3.989710 
# 
# 
# High freq. dielectric constant tensor:
#      x y z
#    x 1.784580 0.000000 0.000000 
#    y 0.000000 1.764500 0.000000 
#    z 0.000000 0.000000 1.795440 
# 
# From -- ./inp_files/66757.got.cif
#   From: 2010.03.12/outbox.cif.g09.slc.cpg/sg65_34_cif.got.tgz:66757.got - 2010.04.10 20:52:16.
