data_PCOD8274934
_publ_section_title
;
Structure prediction by ZEFSAII (Michael W. Deem and Ramdas Pophale) SiO2 
 PCOD8274934
Probable space group: C M M M
;
_chemical_formula_sum "Si O2"
_cell_formula_units_Z 104
_cell_length_a 13.900878
_cell_length_b 23.457833
_cell_length_c 20.979629
_cell_angle_alpha 90.000000
_cell_angle_beta 90.000000
_cell_angle_gamma 90.000000
_cell_volume 6841.131301
_symmetry_space_group_name_H-M "C M M M"
_symmetry_group_IT_number 65
_symmetry_cell_setting 'orthorhombic'
loop_
_space_group_symop_operation_xyz
x,y,z
-x,-y,z
x,-y,-z
-x,y,-z
-x,-y,-z
x,y,-z
-x,y,z
x,-y,z
1/2+x,1/2+y,z
1/2-x,1/2-y,z
1/2+x,1/2-y,-z
1/2-x,1/2+y,-z
1/2-x,1/2-y,-z
1/2+x,1/2+y,-z
1/2-x,1/2+y,z
1/2+x,1/2-y,z
loop_
_atom_site_type_symbol
_atom_site_label
_atom_site_fract_x
_atom_site_fract_y
_atom_site_fract_z
Si Si1 0.393682 0.432412 0.696147
Si Si2 0.708758 0.433481 0.825453
Si Si3 0.207846 0.431995 0.372059
Si Si4 0.788452 0.840317 0.075133
Si Si5 0.105718 0.272499 0.924580
Si Si6 0.110098 0.431959 0.500000
Si Si7 0.894860 0.432774 0.752597
O O1 0.500000 0.406462 0.682760
O O2 0.397735 0.500000 0.693280
O O3 0.359070 0.414854 0.766801
O O4 0.317460 0.410843 0.642552
O O5 0.695894 0.500000 0.841910
O O6 0.681246 0.397429 0.887776
O O7 0.819043 0.418265 0.807810
O O8 0.206112 0.500000 0.373097
O O9 0.167393 0.407786 0.438636
O O10 0.140022 0.408325 0.315564
O O11 0.859673 0.790003 0.097348
O O12 0.680536 0.821515 0.095774
O O13 0.795721 0.852889 0.000000
O O14 0.000000 0.285337 0.895440
O O15 0.101714 0.271463 0.000000
O O16 0.109851 0.500000 0.500000
O O17 0.000000 0.409597 0.500000
O O18 0.901511 0.500000 0.745182
O O19 0.000000 0.407029 0.769488
#
# Coordination Sequence:
#
# PCOD8274934 Si02
#       7
#    16  16  16  16  16   8  16
#     4   8  14  25  37  46  63  95 130 158 182 215
#     4   9  17  26  37  56  78 100 127 157 192 235
#     4   8  13  20  30  45  63  86 120 158 193 226
#     4   9  17  28  42  60  78  96 123 158 196 238
#     4   8  15  29  46  59  72  94 123 154 188 229
#     4   9  14  18  27  45  67  87 112 155 205 236
#     4   8  13  22  34  46  65  95 127 154 180 219
#
# _framework density 15.202164
#
# number of rings (size 3 to 8) (size 9 to 14) (size 15 to 20)
#    0.000    3.615    0.000    3.231    0.000    3.385 
#    0.000    0.385    0.000    2.308    0.000    8.615 
#    0.000    0.000    0.000    0.000    0.000   49.231 
#
# Total GULP energy -644200.352037 kJ/mol
# GULP energy per Si atom -12388.468308 kJ/mol
# Density = 1.516756 g / cm^3
# Si number density = 15.202164 Si / 1000 Ang^3
#
#
#
# Elastic Constant Matrix: (Units=GPa)
#
#
# Indices 1 2 3 4 5 6 
#
# 1 107.3753 6.8722 23.6190 0.0000 0.0000 0.0000
# 2 6.8722 29.5071 23.8495 0.0000 0.0000 0.0000
# 3 23.6190 23.8495 67.8945 0.0000 0.0000 0.0000
# 4 0.0000 0.0000 0.0000 2.2294 0.0000 0.0000
# 5 0.0000 0.0000 0.0000 0.0000 14.3907 0.0000
# 6 0.0000 0.0000 0.0000 0.0000 0.0000 0.2294
#
#
#
# Elastic Compliance Matrix: (Units=1/GPa)
#
#
# Indices 1 2 3 4 5 6 
#
# 1 0.010095 0.000681 -0.003751 0.000000 0.000000 0.000000
# 2 0.000681 0.047373 -0.016878 0.000000 0.000000 0.000000
# 3 -0.003751 -0.016878 0.021962 0.000000 0.000000 0.000000
# 4 0.000000 0.000000 0.000000 0.448546 0.000000 0.000000
# 5 0.000000 0.000000 0.000000 0.000000 0.069489 0.000000
# 6 0.000000 0.000000 0.000000 0.000000 0.000000 4.359993
#
#
# Mechanical properties :
#
#
# Convention : Reuss Voigt Hill
#
# Bulk Modulus (GPa) = 25.29449 34.82869 30.06159
# Shear Modulus (GPa) = 0.99790 13.39898 7.19844
#
# Velocity S-wave (km/s) = 0.81108 2.97204 2.17840
# Velocity P-wave (km/s) = 4.18951 5.89385 5.11319
#
# Compressibility (1/GPa) = 0.03953430
#
# Stress axis : x y z
#
# Youngs Moduli (GPa) = 99.06275 21.10901 45.53277
#
# Poissons Ratio (x) = -0.01437 0.17078
# Poissons Ratio (y) = -0.06742 0.76849
# Poissons Ratio (z) = 0.37156 0.35627
#
# Static dielectric constant tensor:
#      x y z
#    x 3.669540 0.000000 0.000000 
#    y 0.000000 2.325470 0.000000 
#    z 0.000000 0.000000 2.786790 
# 
# 
# High freq. dielectric constant tensor:
#      x y z
#    x 1.598630 0.000000 0.000000 
#    y 0.000000 1.512230 0.000000 
#    z 0.000000 0.000000 1.563430 
# 
# From -- ./inp_files/53505.got.cif
#   From: 2010.03.12/outbox.cif.g09.slc.cpg/sg65_27_cif.got.tgz:53505.got - 2010.04.10 20:52:16.
