data_PCOD8274099
_publ_section_title
;
Structure prediction by ZEFSAII (Michael W. Deem and Ramdas Pophale) SiO2 
 PCOD8274099
Probable space group: C M M M
;
_chemical_formula_sum "Si O2"
_cell_formula_units_Z 88
_cell_length_a 8.097535
_cell_length_b 21.413225
_cell_length_c 26.754785
_cell_angle_alpha 90.000000
_cell_angle_beta 90.000000
_cell_angle_gamma 90.000000
_cell_volume 4639.128257
_symmetry_space_group_name_H-M "C M M M"
_symmetry_group_IT_number 65
_symmetry_cell_setting 'orthorhombic'
loop_
_space_group_symop_operation_xyz
x,y,z
-x,-y,z
x,-y,-z
-x,y,-z
-x,-y,-z
x,y,-z
-x,y,z
x,-y,z
1/2+x,1/2+y,z
1/2-x,1/2-y,z
1/2+x,1/2-y,-z
1/2-x,1/2+y,-z
1/2-x,1/2-y,-z
1/2+x,1/2+y,-z
1/2-x,1/2+y,z
1/2+x,1/2-y,z
loop_
_atom_site_type_symbol
_atom_site_label
_atom_site_fract_x
_atom_site_fract_y
_atom_site_fract_z
Si Si1 0.317670 0.572991 0.884813
Si Si2 0.000000 0.425579 0.942770
Si Si3 0.805170 0.680199 0.700744
Si Si4 0.804923 0.181365 0.500000
Si Si5 0.812153 0.000000 0.443922
Si Si6 0.309601 0.877730 0.599827
Si Si7 0.305626 0.071165 0.775490
O O1 0.500000 0.600781 0.899207
O O2 0.320196 0.500000 0.895950
O O3 0.166818 0.602446 0.917116
O O4 0.288071 0.585763 0.826598
O O5 0.000000 0.500000 0.936800
O O6 0.000000 0.404181 0.000000
O O7 0.750000 0.750000 0.716825
O O8 0.733560 0.662361 0.645776
O O9 0.742786 0.624757 0.737342
O O10 0.000000 0.680685 0.700170
O O11 0.750000 0.250000 0.500000
O O12 0.717956 0.156231 0.548432
O O13 0.000000 0.167983 0.500000
O O14 0.773763 0.055970 0.406780
O O15 0.722857 0.000000 0.500000
O O16 0.000000 0.000000 0.458352
O O17 0.500000 0.889005 0.611005
O O18 0.500000 0.076701 0.785296
O O19 0.264386 0.000000 0.756652
#
# Coordination Sequence:
#
# PCOD8274099 Si02
#       7
#    16   8  16   8   8  16  16
#     4   9  16  27  45  71 103 144 192 235 279 334
#     4   9  16  26  42  68 108 154 190 231 286 334
#     4  10  23  39  58  83 112 146 180 231 284 334
#     4  12  24  39  58  79 104 138 178 220 270 340
#     4  11  23  39  59  85 112 140 172 222 276 327
#     4  11  23  39  60  83 107 141 181 222 276 335
#     4   9  17  33  56  77 104 146 190 232 280 336
#
# _framework density 18.969082
#
# number of rings (size 3 to 8) (size 9 to 14) (size 15 to 20)
#    0.000    2.000    1.818    2.182    1.273    4.364 
#    0.000    1.818    0.000    0.000    0.000    0.000 
#    0.000    0.727    0.364    0.000    0.000    0.000 
#
# Total GULP energy -545117.573004 kJ/mol
# GULP energy per Si atom -12389.035750 kJ/mol
# Density = 1.892591 g / cm^3
# Si number density = 18.969082 Si / 1000 Ang^3
#
#
#
# Elastic Constant Matrix: (Units=GPa)
#
#
# Indices 1 2 3 4 5 6 
#
# 1 91.7883 23.1246 51.2770 0.0000 0.0000 0.0000
# 2 23.1246 117.7838 48.3943 0.0000 0.0000 0.0000
# 3 51.2770 48.3943 112.7092 0.0000 0.0000 0.0000
# 4 0.0000 0.0000 0.0000 -2.8525 0.0000 0.0000
# 5 0.0000 0.0000 0.0000 0.0000 6.5228 0.0000
# 6 0.0000 0.0000 0.0000 0.0000 0.0000 23.0038
#
#
#
# Elastic Compliance Matrix: (Units=1/GPa)
#
#
# Indices 1 2 3 4 5 6 
#
# 1 0.014610 -0.000167 -0.006575 0.000000 0.000000 0.000000
# 2 -0.000167 0.010311 -0.004351 0.000000 0.000000 0.000000
# 3 -0.006575 -0.004351 0.013732 0.000000 0.000000 0.000000
# 4 0.000000 0.000000 0.000000 -0.350567 0.000000 0.000000
# 5 0.000000 0.000000 0.000000 0.000000 0.153309 0.000000
# 6 0.000000 0.000000 0.000000 0.000000 0.000000 0.043471
#
#
# Mechanical properties :
#
#
# Convention : Reuss Voigt Hill
#
# Bulk Modulus (GPa) = 60.73038 63.09700 61.91369
# Shear Modulus (GPa) = -57.16999 18.63383 -19.26808
#
# Velocity S-wave (km/s) = -5.49581 3.13761 -3.19056
# Velocity P-wave (km/s) = 2.86129 6.81626 4.37461
#
# Compressibility (1/GPa) = 0.01646622
#
# Stress axis : x y z
#
# Youngs Moduli (GPa) = 68.44719 96.98661 72.82238
#
# Poissons Ratio (x) = 0.01618 0.47881
# Poissons Ratio (y) = 0.01142 0.31687
# Poissons Ratio (z) = 0.45005 0.42201
#
# Static dielectric constant tensor:
#      x y z
#    x 3.768490 0.000000 0.000000 
#    y 0.000000 3.472230 0.000000 
#    z 0.000000 0.000000 3.524820 
# 
# 
# High freq. dielectric constant tensor:
#      x y z
#    x 1.741230 0.000000 0.000000 
#    y 0.000000 1.705940 0.000000 
#    z 0.000000 0.000000 1.731420 
# 
# From -- ./inp_files/67634.got.cif
#   From: 2010.03.12/outbox.cif.g09.slc.cpg/sg65_34_cif.got.tgz:67634.got - 2010.04.10 20:52:16.
