data_PCOD8274729
_publ_section_title
;
Structure prediction by ZEFSAII (Michael W. Deem and Ramdas Pophale) SiO2 
 PCOD8274729
Probable space group: C M M M
;
_chemical_formula_sum "Si O2"
_cell_formula_units_Z 72
_cell_length_a 7.639512
_cell_length_b 28.982756
_cell_length_c 16.003685
_cell_angle_alpha 90.000000
_cell_angle_beta 90.000000
_cell_angle_gamma 90.000000
_cell_volume 3543.441707
_symmetry_space_group_name_H-M "C M M M"
_symmetry_group_IT_number 65
_symmetry_cell_setting 'orthorhombic'
loop_
_space_group_symop_operation_xyz
x,y,z
-x,-y,z
x,-y,-z
-x,y,-z
-x,-y,-z
x,y,-z
-x,y,z
x,-y,z
1/2+x,1/2+y,z
1/2-x,1/2-y,z
1/2+x,1/2-y,-z
1/2-x,1/2+y,-z
1/2-x,1/2-y,-z
1/2+x,1/2+y,-z
1/2-x,1/2+y,z
1/2+x,1/2-y,z
loop_
_atom_site_type_symbol
_atom_site_label
_atom_site_fract_x
_atom_site_fract_y
_atom_site_fract_z
Si Si1 0.795242 0.196100 0.000000
Si Si2 0.200013 0.611178 0.319893
Si Si3 0.000000 0.054629 0.403048
Si Si4 0.207037 0.123834 0.866351
Si Si5 0.704548 0.798705 0.407577
Si Si6 0.706588 0.550863 0.000000
O O1 0.750000 0.250000 0.000000
O O2 0.726223 0.169893 0.916293
O O3 0.000000 0.188785 0.000000
O O4 0.325561 0.571158 0.354540
O O5 0.196659 0.617735 0.220870
O O6 0.280653 0.658822 0.355617
O O7 0.000000 0.601051 0.349221
O O8 0.000000 0.071293 0.500000
O O9 0.000000 0.000000 0.398358
O O10 0.000000 0.125787 0.851727
O O11 0.264945 0.078871 0.918320
O O12 0.790569 0.799152 0.500000
O O13 0.500000 0.805251 0.413607
O O14 0.750000 0.750000 0.363033
O O15 0.793934 0.500000 0.000000
O O16 0.500000 0.546273 0.000000
#
# Coordination Sequence:
#
# PCOD8274729 Si02
#       6
#     8  16   8  16  16   8
#     4   9  19  34  55  81 125 175 214 256 304 361
#     4  11  23  40  63  92 126 162 205 263 315 371
#     4  11  26  46  68  91 119 165 215 262 329 395
#     4   9  18  35  55  84 120 155 201 250 301 363
#     4   9  19  34  54  83 116 152 194 241 299 360
#     4   8  15  30  56  83 107 142 185 234 294 354
#
# _framework density 20.319227999999999
#
# number of rings (size 3 to 8) (size 9 to 14) (size 15 to 20)
#    0.000    2.444    1.111    2.000    1.556    4.444 
#    0.000    7.222    0.000    0.667    0.000    0.000 
#    0.000    0.000    0.000    0.000    0.000    0.000 
#
# Total GULP energy -446182.394753 kJ/mol
# GULP energy per Si atom -12393.955410 kJ/mol
# Density = 2.027298 g / cm^3
# Si number density = 20.319228 Si / 1000 Ang^3
#
#
#
# Elastic Constant Matrix: (Units=GPa)
#
#
# Indices 1 2 3 4 5 6 
#
# 1 70.0317 25.2302 23.0580 0.0000 0.0000 0.0000
# 2 25.2302 159.8508 61.4816 0.0000 0.0000 0.0000
# 3 23.0580 61.4816 126.0143 0.0000 0.0000 0.0000
# 4 0.0000 0.0000 0.0000 5.7699 0.0000 0.0000
# 5 0.0000 0.0000 0.0000 0.0000 17.6121 0.0000
# 6 0.0000 0.0000 0.0000 0.0000 0.0000 26.7589
#
#
#
# Elastic Compliance Matrix: (Units=1/GPa)
#
#
# Indices 1 2 3 4 5 6 
#
# 1 0.015550 -0.001674 -0.002029 0.000000 0.000000 0.000000
# 2 -0.001674 0.007881 -0.003539 0.000000 0.000000 0.000000
# 3 -0.002029 -0.003539 0.010033 0.000000 0.000000 0.000000
# 4 0.000000 0.000000 0.000000 0.173315 0.000000 0.000000
# 5 0.000000 0.000000 0.000000 0.000000 0.056779 0.000000
# 6 0.000000 0.000000 0.000000 0.000000 0.000000 0.037371
#
#
# Mechanical properties :
#
#
# Convention : Reuss Voigt Hill
#
# Bulk Modulus (GPa) = 52.68233 63.93739 58.30986
# Shear Modulus (GPa) = 15.54052 26.43666 20.98859
#
# Velocity S-wave (km/s) = 2.76854 3.61094 3.21743
# Velocity P-wave (km/s) = 6.01692 6.99428 6.52393
#
# Compressibility (1/GPa) = 0.01898170
#
# Stress axis : x y z
#
# Youngs Moduli (GPa) = 64.30746 126.88451 99.66737
#
# Poissons Ratio (x) = 0.21243 0.20218
# Poissons Ratio (y) = 0.10766 0.35271
# Poissons Ratio (z) = 0.13045 0.44902
#
# Static dielectric constant tensor:
#      x y z
#    x 3.424660 0.000000 0.000000 
#    y 0.000000 2.779630 0.000000 
#    z 0.000000 0.000000 3.809540 
# 
# 
# High freq. dielectric constant tensor:
#      x y z
#    x 1.782840 0.000000 0.000000 
#    y 0.000000 1.796580 0.000000 
#    z 0.000000 0.000000 1.789650 
# 
# From -- ./inp_files/37037.got.cif
#   From: 2010.03.12/outbox.cif.g09.slc.cpg/sg65_19_cif.got.tgz:37037.got - 2010.04.10 20:52:16.
