data_PCOD8274816
_publ_section_title
;
Structure prediction by ZEFSAII (Michael W. Deem and Ramdas Pophale) SiO2 
 PCOD8274816
Probable space group: C M M M
;
_chemical_formula_sum "Si O2"
_cell_formula_units_Z 88
_cell_length_a 22.883679
_cell_length_b 14.174055
_cell_length_c 14.088517
_cell_angle_alpha 90.000000
_cell_angle_beta 90.000000
_cell_angle_gamma 90.000000
_cell_volume 4569.674236
_symmetry_space_group_name_H-M "C M M M"
_symmetry_group_IT_number 65
_symmetry_cell_setting 'orthorhombic'
loop_
_space_group_symop_operation_xyz
x,y,z
-x,-y,z
x,-y,-z
-x,y,-z
-x,-y,-z
x,y,-z
-x,y,z
x,-y,z
1/2+x,1/2+y,z
1/2-x,1/2-y,z
1/2+x,1/2-y,-z
1/2-x,1/2+y,-z
1/2-x,1/2-y,-z
1/2+x,1/2+y,-z
1/2-x,1/2+y,z
1/2+x,1/2-y,z
loop_
_atom_site_type_symbol
_atom_site_label
_atom_site_fract_x
_atom_site_fract_y
_atom_site_fract_z
Si Si1 0.891007 0.785130 0.200408
Si Si2 0.500000 0.390020 0.888259
Si Si3 0.153743 0.394008 0.112240
Si Si4 0.155230 0.770507 0.608916
Si Si5 0.286810 0.390682 0.892204
Si Si6 0.235619 0.602852 0.390853
O O1 0.943169 0.843213 0.155769
O O2 0.891051 0.677995 0.161928
O O3 0.897242 0.786195 0.315749
O O4 0.829137 0.831749 0.174562
O O5 0.500000 0.500000 0.863033
O O6 0.500000 0.372816 0.000000
O O7 0.135402 0.500000 0.141624
O O8 0.220740 0.374224 0.144082
O O9 0.149336 0.381787 0.000000
O O10 0.132251 0.761907 0.500000
O O11 0.187663 0.676148 0.647498
O O12 0.199006 0.858250 0.618155
O O13 0.303926 0.500000 0.886985
O O14 0.294146 0.354187 0.000000
O O15 0.220366 0.590160 0.500000
O O16 0.231331 0.500000 0.339326
#
# Coordination Sequence:
#
# PCOD8274816 Si02
#       6
#    16   8  16  16  16  16
#     4  12  22  35  58  80 106 152 191 228 279 333
#     4  11  26  46  64  84 108 137 186 242 282 330
#     4   9  19  34  53  83 117 142 175 227 284 348
#     4   9  20  34  49  79 115 147 188 230 269 323
#     4   9  18  32  52  81 113 141 175 224 281 340
#     4   8  15  30  50  74 111 152 182 219 274 326
#
# _framework density 19.257389
#
# number of rings (size 3 to 8) (size 9 to 14) (size 15 to 20)
#    0.000    2.455    0.000    4.909    5.091    5.091 
#    0.000    0.909    0.000    2.182    0.000    0.000 
#    0.000    4.364    0.000    0.000    0.000    0.000 
#
# Total GULP energy -545396.153627 kJ/mol
# GULP energy per Si atom -12395.367128 kJ/mol
# Density = 1.921356 g / cm^3
# Si number density = 19.257389 Si / 1000 Ang^3
#
#
#
# Elastic Constant Matrix: (Units=GPa)
#
#
# Indices 1 2 3 4 5 6 
#
# 1 61.6301 48.3682 47.4362 0.0000 0.0000 0.0000
# 2 48.3682 132.1718 51.3876 0.0000 0.0000 0.0000
# 3 47.4362 51.3876 101.9936 0.0000 0.0000 0.0000
# 4 0.0000 0.0000 0.0000 2.3890 0.0000 0.0000
# 5 0.0000 0.0000 0.0000 0.0000 24.5993 0.0000
# 6 0.0000 0.0000 0.0000 0.0000 0.0000 23.5608
#
#
#
# Elastic Compliance Matrix: (Units=1/GPa)
#
#
# Indices 1 2 3 4 5 6 
#
# 1 0.029468 -0.006784 -0.010287 0.000000 0.000000 0.000000
# 2 -0.006784 0.010971 -0.002372 0.000000 0.000000 0.000000
# 3 -0.010287 -0.002372 0.015784 0.000000 0.000000 0.000000
# 4 0.000000 0.000000 0.000000 0.418578 0.000000 0.000000
# 5 0.000000 0.000000 0.000000 0.000000 0.040652 0.000000
# 6 0.000000 0.000000 0.000000 0.000000 0.000000 0.042443
#
#
# Mechanical properties :
#
#
# Convention : Reuss Voigt Hill
#
# Bulk Modulus (GPa) = 57.68366 65.57550 61.62958
# Shear Modulus (GPa) = 8.29790 20.01673 14.15732
#
# Velocity S-wave (km/s) = 2.07805 3.22752 2.71433
# Velocity P-wave (km/s) = 5.98137 6.92930 6.47271
#
# Compressibility (1/GPa) = 0.01733593
#
# Stress axis : x y z
#
# Youngs Moduli (GPa) = 33.93487 91.15023 63.35444
#
# Poissons Ratio (x) = 0.61839 0.65174
# Poissons Ratio (y) = 0.23022 0.15029
# Poissons Ratio (z) = 0.34910 0.21623
#
# Static dielectric constant tensor:
#      x y z
#    x 2.888770 0.000000 0.000000 
#    y 0.000000 4.113790 0.000000 
#    z 0.000000 0.000000 3.553790 
# 
# 
# High freq. dielectric constant tensor:
#      x y z
#    x 1.681820 0.000000 0.000000 
#    y 0.000000 1.769030 0.000000 
#    z 0.000000 0.000000 1.757930 
# 
# From -- ./inp_files/44011.got.cif
#   From: 2010.03.12/outbox.cif.g09.slc.cpg/sg65_23_cif.got.tgz:44011.got - 2010.04.10 20:52:16.
