data_PCOD8274126
_publ_section_title
;
Structure prediction by ZEFSAII (Michael W. Deem and Ramdas Pophale) SiO2 
 PCOD8274126
Probable space group: C M M M
;
_chemical_formula_sum "Si O2"
_cell_formula_units_Z 72
_cell_length_a 13.343828
_cell_length_b 29.022322
_cell_length_c 9.381172
_cell_angle_alpha 90.000000
_cell_angle_beta 90.000000
_cell_angle_gamma 90.000000
_cell_volume 3633.035907
_symmetry_space_group_name_H-M "C M M M"
_symmetry_group_IT_number 65
_symmetry_cell_setting 'orthorhombic'
loop_
_space_group_symop_operation_xyz
x,y,z
-x,-y,z
x,-y,-z
-x,y,-z
-x,-y,-z
x,y,-z
-x,y,z
x,-y,z
1/2+x,1/2+y,z
1/2-x,1/2-y,z
1/2+x,1/2-y,-z
1/2-x,1/2+y,-z
1/2-x,1/2-y,-z
1/2+x,1/2+y,-z
1/2-x,1/2+y,z
1/2+x,1/2-y,z
loop_
_atom_site_type_symbol
_atom_site_label
_atom_site_fract_x
_atom_site_fract_y
_atom_site_fract_z
Si Si1 0.385253 0.237654 0.832340
Si Si2 0.281267 0.684353 0.327390
Si Si3 0.884463 0.000000 0.330834
Si Si4 0.881875 0.444900 0.000000
Si Si5 0.746987 0.083441 0.741881
Si Si6 0.117704 0.551714 0.500000
O O1 0.500000 0.223387 0.820729
O O2 0.367821 0.285988 0.749930
O O3 0.323504 0.199432 0.744680
O O4 0.353122 0.240840 0.000000
O O5 0.281025 0.691261 0.500000
O O6 0.302545 0.631800 0.283226
O O7 0.832935 0.045051 0.265513
O O8 0.873146 0.000000 0.500000
O O9 0.000000 0.000000 0.283451
O O10 0.820636 0.420378 0.878342
O O11 0.870082 0.500000 0.000000
O O12 0.000000 0.431861 0.000000
O O13 0.657995 0.079167 0.631442
O O14 0.161934 0.500000 0.500000
O O15 0.000000 0.550543 0.500000
#
# Coordination Sequence:
#
# PCOD8274126 Si02
#       6
#    16  16   8   8  16   8
#     4  10  23  43  65  91 123 161 205 255 314 377
#     4  11  23  39  65  93 124 163 204 259 315 366
#     4  11  22  41  66  91 125 171 213 255 306 357
#     4  11  24  40  62  91 128 172 210 254 317 376
#     4  12  22  41  60  94 129 163 210 261 308 365
#     4  11  20  36  62  87 124 168 208 250 307 370
#
# _framework density 19.818135999999999
#
# number of rings (size 3 to 8) (size 9 to 14) (size 15 to 20)
#    0.000    1.000    4.444    3.333    3.111    6.222 
#    0.000    1.111    0.000    0.000    0.000    0.000 
#    0.000    0.000    0.000    0.000    0.000    0.000 
#
# Total GULP energy -446045.764168 kJ/mol
# GULP energy per Si atom -12390.160116 kJ/mol
# Density = 1.977303 g / cm^3
# Si number density = 19.818136 Si / 1000 Ang^3
#
#
#
# Elastic Constant Matrix: (Units=GPa)
#
#
# Indices 1 2 3 4 5 6 
#
# 1 103.7397 19.2178 38.1194 0.0000 0.0000 0.0000
# 2 19.2178 125.4411 31.2561 0.0000 0.0000 0.0000
# 3 38.1194 31.2561 163.4929 0.0000 0.0000 0.0000
# 4 0.0000 0.0000 0.0000 32.9820 0.0000 0.0000
# 5 0.0000 0.0000 0.0000 0.0000 54.2203 0.0000
# 6 0.0000 0.0000 0.0000 0.0000 0.0000 11.9976
#
#
#
# Elastic Compliance Matrix: (Units=1/GPa)
#
#
# Indices 1 2 3 4 5 6 
#
# 1 0.010677 -0.001066 -0.002286 0.000000 0.000000 0.000000
# 2 -0.001066 0.008477 -0.001372 0.000000 0.000000 0.000000
# 3 -0.002286 -0.001372 0.006912 0.000000 0.000000 0.000000
# 4 0.000000 0.000000 0.000000 0.030320 0.000000 0.000000
# 5 0.000000 0.000000 0.000000 0.000000 0.018443 0.000000
# 6 0.000000 0.000000 0.000000 0.000000 0.000000 0.083350
#
#
# Mechanical properties :
#
#
# Convention : Reuss Voigt Hill
#
# Bulk Modulus (GPa) = 60.17566 63.31782 61.74674
# Shear Modulus (GPa) = 28.87418 40.11202 34.49310
#
# Velocity S-wave (km/s) = 3.82115 4.50378 4.17643
# Velocity P-wave (km/s) = 7.06386 7.68532 7.38113
#
# Compressibility (1/GPa) = 0.01661801
#
# Stress axis : x y z
#
# Youngs Moduli (GPa) = 93.66048 117.96512 144.68303
#
# Poissons Ratio (x) = 0.12578 0.33068
# Poissons Ratio (y) = 0.09986 0.19851
# Poissons Ratio (z) = 0.21406 0.16185
#
# Static dielectric constant tensor:
#      x y z
#    x 3.562270 0.000000 0.000000 
#    y 0.000000 3.688720 0.000000 
#    z 0.000000 0.000000 3.819350 
# 
# 
# High freq. dielectric constant tensor:
#      x y z
#    x 1.772050 0.000000 0.000000 
#    y 0.000000 1.774170 0.000000 
#    z 0.000000 0.000000 1.790960 
# 
# From -- ./inp_files/7409.got.cif
#   From: 2010.03.12/outbox.cif.g09.slc.cpg/sg65_4_cif.got.tgz:7409.got - 2010.04.10 20:52:16.
