data_PCOD8274536
_publ_section_title
;
Structure prediction by ZEFSAII (Michael W. Deem and Ramdas Pophale) SiO2 
 PCOD8274536
Probable space group: C M M M
;
_chemical_formula_sum "Si O2"
_cell_formula_units_Z 88
_cell_length_a 12.904853
_cell_length_b 30.776649
_cell_length_c 11.697087
_cell_angle_alpha 90.000000
_cell_angle_beta 90.000000
_cell_angle_gamma 90.000000
_cell_volume 4645.710184
_symmetry_space_group_name_H-M "C M M M"
_symmetry_group_IT_number 65
_symmetry_cell_setting 'orthorhombic'
loop_
_space_group_symop_operation_xyz
x,y,z
-x,-y,z
x,-y,-z
-x,y,-z
-x,-y,-z
x,y,-z
-x,y,z
x,-y,z
1/2+x,1/2+y,z
1/2-x,1/2-y,z
1/2+x,1/2-y,-z
1/2-x,1/2+y,-z
1/2-x,1/2-y,-z
1/2+x,1/2+y,-z
1/2-x,1/2+y,z
1/2+x,1/2-y,z
loop_
_atom_site_type_symbol
_atom_site_label
_atom_site_fract_x
_atom_site_fract_y
_atom_site_fract_z
Si Si1 0.000000 0.448865 0.375635
Si Si2 0.781985 0.374297 0.133063
Si Si3 0.383322 0.329038 0.500000
Si Si4 0.227863 0.549445 0.709488
Si Si5 0.500000 0.254356 0.136469
Si Si6 0.000000 0.657775 0.870282
Si Si7 0.688753 0.706371 0.261060
Si Si8 0.122444 0.931699 0.500000
O O1 0.890029 0.435237 0.319672
O O2 0.000000 0.500000 0.387924
O O3 0.000000 0.426565 0.500000
O O4 0.734086 0.417321 0.192102
O O5 0.745949 0.329719 0.187948
O O6 0.904524 0.373535 0.156151
O O7 0.752094 0.375823 0.000000
O O8 0.500000 0.312048 0.500000
O O9 0.330078 0.311697 0.386824
O O10 0.376254 0.380413 0.500000
O O11 0.226003 0.500000 0.756179
O O12 0.312492 0.551088 0.608279
O O13 0.500000 0.205314 0.190963
O O14 0.407119 0.282294 0.183654
O O15 0.500000 0.255217 0.000000
O O16 0.000000 0.672917 0.000000
O O17 0.750000 0.750000 0.279527
O O18 0.000000 0.947656 0.500000
#
# Coordination Sequence:
#
# PCOD8274536 Si02
#       8
#     8  16   8  16   8   8  16   8
#     4   9  17  32  59  91 118 151 194 242 297 358
#     4  11  23  39  61  90 122 158 201 249 300 356
#     4  11  23  42  62  85 122 160 192 252 313 357
#     4  11  22  39  63  89 122 159 200 251 307 367
#     4  11  22  36  60  91 119 160 207 245 290 348
#     4   9  19  37  59  86 123 158 195 245 292 347
#     4  12  23  39  63  88 121 159 203 247 297 364
#     4  11  23  40  64  90 115 157 207 251 306 366
#
# _framework density 18.942207
#
# number of rings (size 3 to 8) (size 9 to 14) (size 15 to 20)
#    0.000    1.182    5.455    1.636    0.000    1.818 
#    0.000    0.000    0.000    3.273    0.000    1.273 
#    0.000    0.000    0.000    0.000    0.000    0.000 
#
# Total GULP energy -545143.519901 kJ/mol
# GULP energy per Si atom -12389.625452 kJ/mol
# Density = 1.889909 g / cm^3
# Si number density = 18.942207 Si / 1000 Ang^3
#
#
#
# Elastic Constant Matrix: (Units=GPa)
#
#
# Indices 1 2 3 4 5 6 
#
# 1 91.9418 13.3660 24.3837 0.0000 0.0000 0.0000
# 2 13.3660 101.7500 41.1208 0.0000 0.0000 0.0000
# 3 24.3837 41.1208 107.2775 0.0000 0.0000 0.0000
# 4 0.0000 0.0000 0.0000 86.4332 0.0000 0.0000
# 5 0.0000 0.0000 0.0000 0.0000 25.3064 0.0000
# 6 0.0000 0.0000 0.0000 0.0000 0.0000 24.9659
#
#
#
# Elastic Compliance Matrix: (Units=1/GPa)
#
#
# Indices 1 2 3 4 5 6 
#
# 1 0.011599 -0.000542 -0.002429 0.000000 0.000000 0.000000
# 2 -0.000542 0.011655 -0.004344 0.000000 0.000000 0.000000
# 3 -0.002429 -0.004344 0.011539 0.000000 0.000000 0.000000
# 4 0.000000 0.000000 0.000000 0.011570 0.000000 0.000000
# 5 0.000000 0.000000 0.000000 0.000000 0.039516 0.000000
# 6 0.000000 0.000000 0.000000 0.000000 0.000000 0.040055
#
#
# Mechanical properties :
#
#
# Convention : Reuss Voigt Hill
#
# Bulk Modulus (GPa) = 49.59594 50.96781 50.28187
# Shear Modulus (GPa) = 33.94797 42.14769 38.04783
#
# Velocity S-wave (km/s) = 4.23802 4.72218 4.48663
# Velocity P-wave (km/s) = 7.08430 7.52977 7.31043
#
# Compressibility (1/GPa) = 0.02016294
#
# Stress axis : x y z
#
# Youngs Moduli (GPa) = 86.21161 85.80086 86.66387
#
# Poissons Ratio (x) = 0.04652 0.21048
# Poissons Ratio (y) = 0.04674 0.37649
# Poissons Ratio (z) = 0.20938 0.37274
#
# Static dielectric constant tensor:
#      x y z
#    x 3.611750 0.000000 0.000000 
#    y 0.000000 3.487190 0.000000 
#    z 0.000000 0.000000 3.407530 
# 
# 
# High freq. dielectric constant tensor:
#      x y z
#    x 1.739230 0.000000 0.000000 
#    y 0.000000 1.747310 0.000000 
#    z 0.000000 0.000000 1.729870 
# 
# From -- ./inp_files/23071.got.cif
#   From: 2010.03.12/outbox.cif.g09.slc.cpg/sg65_12_cif.got.tgz:23071.got - 2010.04.10 20:52:16.
