data_PCOD8274109
_publ_section_title
;
Structure prediction by ZEFSAII (Michael W. Deem and Ramdas Pophale) SiO2 
 PCOD8274109
Probable space group: C M M M
;
_chemical_formula_sum "Si O2"
_cell_formula_units_Z 72
_cell_length_a 22.886768
_cell_length_b 19.191408
_cell_length_c 8.011268
_cell_angle_alpha 90.000000
_cell_angle_beta 90.000000
_cell_angle_gamma 90.000000
_cell_volume 3518.783656
_symmetry_space_group_name_H-M "C M M M"
_symmetry_group_IT_number 65
_symmetry_cell_setting 'orthorhombic'
loop_
_space_group_symop_operation_xyz
x,y,z
-x,-y,z
x,-y,-z
-x,y,-z
-x,-y,-z
x,y,-z
-x,y,z
x,-y,z
1/2+x,1/2+y,z
1/2-x,1/2-y,z
1/2+x,1/2-y,-z
1/2-x,1/2+y,-z
1/2-x,1/2-y,-z
1/2+x,1/2+y,-z
1/2-x,1/2+y,z
1/2+x,1/2-y,z
loop_
_atom_site_type_symbol
_atom_site_label
_atom_site_fract_x
_atom_site_fract_y
_atom_site_fract_z
Si Si1 0.378319 0.846253 0.809443
Si Si2 0.138746 0.924162 0.694086
Si Si3 0.768146 0.580670 0.304076
Si Si4 0.565506 0.702626 0.806172
Si Si5 0.068296 0.576284 0.500000
O O1 0.310317 0.866581 0.795799
O O2 0.390179 0.765419 0.764807
O O3 0.413750 0.888868 0.672953
O O4 0.400106 0.861324 0.000000
O O5 0.147854 0.934130 0.500000
O O6 0.202798 0.901959 0.762099
O O7 0.089242 0.867856 0.726093
O O8 0.120407 0.000000 0.769790
O O9 0.776733 0.595759 0.500000
O O10 0.783140 0.500000 0.263950
O O11 0.500000 0.718260 0.736215
O O12 0.561979 0.688685 0.000000
O O13 0.097399 0.500000 0.500000
O O14 0.000000 0.571680 0.500000
#
# Coordination Sequence:
#
# PCOD8274109 Si02
#       5
#    16  16  16  16   8
#     4  11  23  39  61  90 123 160 204 250 300 361
#     4   9  20  38  61  90 120 153 197 250 305 363
#     4   9  18  36  60  87 123 159 194 245 307 364
#     4  10  23  41  58  81 118 162 204 250 304 358
#     4  11  24  40  60  87 119 161 208 253 305 357
#
# _framework density 20.461615999999999
#
# number of rings (size 3 to 8) (size 9 to 14) (size 15 to 20)
#    0.000    2.111    1.111    2.667    1.556    6.222 
#    0.000   10.000    0.000    0.000    0.000    0.000 
#    0.000    0.000    0.000    0.000    0.000    0.000 
#
# Total GULP energy -446173.967329 kJ/mol
# GULP energy per Si atom -12393.721315 kJ/mol
# Density = 2.041504 g / cm^3
# Si number density = 20.461616 Si / 1000 Ang^3
#
#
#
# Elastic Constant Matrix: (Units=GPa)
#
#
# Indices 1 2 3 4 5 6 
#
# 1 98.7717 58.9415 22.2333 0.0000 0.0000 0.0000
# 2 58.9415 134.8417 43.5325 0.0000 0.0000 0.0000
# 3 22.2333 43.5325 76.8399 0.0000 0.0000 0.0000
# 4 0.0000 0.0000 0.0000 44.6525 0.0000 0.0000
# 5 0.0000 0.0000 0.0000 0.0000 22.4847 0.0000
# 6 0.0000 0.0000 0.0000 0.0000 0.0000 41.1147
#
#
#
# Elastic Compliance Matrix: (Units=1/GPa)
#
#
# Indices 1 2 3 4 5 6 
#
# 1 0.013728 -0.005775 -0.000701 0.000000 0.000000 0.000000
# 2 -0.005775 0.011505 -0.004847 0.000000 0.000000 0.000000
# 3 -0.000701 -0.004847 0.015963 0.000000 0.000000 0.000000
# 4 0.000000 0.000000 0.000000 0.022395 0.000000 0.000000
# 5 0.000000 0.000000 0.000000 0.000000 0.044475 0.000000
# 6 0.000000 0.000000 0.000000 0.000000 0.000000 0.024322
#
#
# Mechanical properties :
#
#
# Convention : Reuss Voigt Hill
#
# Bulk Modulus (GPa) = 53.90484 62.20756 58.05620
# Shear Modulus (GPa) = 31.01414 34.03342 32.52378
#
# Velocity S-wave (km/s) = 3.89745 4.08276 3.99118
# Velocity P-wave (km/s) = 6.83045 7.25902 7.04799
#
# Compressibility (1/GPa) = 0.01855121
#
# Stress axis : x y z
#
# Youngs Moduli (GPa) = 72.84388 86.91772 62.64517
#
# Poissons Ratio (x) = 0.50191 0.04389
# Poissons Ratio (y) = 0.42064 0.30366
# Poissons Ratio (z) = 0.05104 0.42131
#
# Static dielectric constant tensor:
#      x y z
#    x 3.999380 0.000000 0.000000 
#    y 0.000000 3.866580 0.000000 
#    z 0.000000 0.000000 3.584940 
# 
# 
# High freq. dielectric constant tensor:
#      x y z
#    x 1.802800 0.000000 0.000000 
#    y 0.000000 1.797830 0.000000 
#    z 0.000000 0.000000 1.791370 
# 
# From -- ./inp_files/15973.got.cif
#   From: 2010.03.12/outbox.cif.g09.slc.cpg/sg65_8_cif.got.tgz:15973.got - 2010.04.10 20:52:16.
