data_PCOD8274364
_publ_section_title
;
Structure prediction by ZEFSAII (Michael W. Deem and Ramdas Pophale) SiO2 
 PCOD8274364
Probable space group: C M M M
;
_chemical_formula_sum "Si O2"
_cell_formula_units_Z 88
_cell_length_a 20.235540
_cell_length_b 27.270791
_cell_length_c 7.723862
_cell_angle_alpha 90.000000
_cell_angle_beta 90.000000
_cell_angle_gamma 90.000000
_cell_volume 4262.329689
_symmetry_space_group_name_H-M "C M M M"
_symmetry_group_IT_number 65
_symmetry_cell_setting 'orthorhombic'
loop_
_space_group_symop_operation_xyz
x,y,z
-x,-y,z
x,-y,-z
-x,y,-z
-x,-y,-z
x,y,-z
-x,y,z
x,-y,z
1/2+x,1/2+y,z
1/2-x,1/2-y,z
1/2+x,1/2-y,-z
1/2-x,1/2+y,-z
1/2-x,1/2-y,-z
1/2+x,1/2+y,-z
1/2-x,1/2+y,z
1/2+x,1/2-y,z
loop_
_atom_site_type_symbol
_atom_site_label
_atom_site_fract_x
_atom_site_fract_y
_atom_site_fract_z
Si Si1 0.623460 0.627044 0.306652
Si Si2 0.739489 0.696293 0.193505
Si Si3 0.132243 0.650455 0.697675
Si Si4 0.426463 0.946963 0.294446
Si Si5 0.920748 0.058263 0.000000
Si Si6 0.500000 0.685046 0.802105
Si Si7 0.500000 0.199459 0.197548
O O1 0.623887 0.603891 0.500000
O O2 0.690270 0.658927 0.288123
O O3 0.613516 0.582931 0.168788
O O4 0.564343 0.665415 0.293110
O O5 0.750000 0.750000 0.283383
O O6 0.811916 0.673048 0.182365
O O7 0.711458 0.704219 0.000000
O O8 0.157348 0.650012 0.500000
O O9 0.121267 0.595642 0.772887
O O10 0.064422 0.680289 0.705433
O O11 0.431058 0.943777 0.500000
O O12 0.500000 0.939356 0.217819
O O13 0.398453 0.000000 0.235579
O O14 0.000000 0.067205 0.000000
O O15 0.905456 0.000000 0.000000
O O16 0.500000 0.742692 0.789508
O O17 0.500000 0.666413 0.000000
O O18 0.500000 0.181400 0.000000
#
# Coordination Sequence:
#
# PCOD8274364 Si02
#       7
#    16  16  16  16   8   8   8
#     4  12  23  41  69  99 130 169 217 267 324 392
#     4  11  24  42  62  86 127 176 213 257 324 394
#     4  11  21  35  56  86 118 153 207 265 311 367
#     4   8  14  28  52  79 108 145 186 235 295 348
#     4  11  24  46  73 102 138 171 212 277 339 397
#     4  11  21  39  61  88 127 165 204 254 315 379
#     4  11  23  35  54  82 123 170 207 255 314 376
#
# _framework density 20.645986000000001
#
# number of rings (size 3 to 8) (size 9 to 14) (size 15 to 20)
#    0.000    1.364    3.636    3.273    0.000    7.636 
#    0.000    1.818    0.000    4.364    0.000    0.000 
#    0.000    0.000    0.000    0.000    0.000    0.000 
#
# Total GULP energy -545442.558716 kJ/mol
# GULP energy per Si atom -12396.421789 kJ/mol
# Density = 2.059900 g / cm^3
# Si number density = 20.645986 Si / 1000 Ang^3
#
#
#
# Elastic Constant Matrix: (Units=GPa)
#
#
# Indices 1 2 3 4 5 6 
#
# 1 119.0527 56.5843 16.6444 0.0000 0.0000 0.0000
# 2 56.5843 161.1415 40.5762 0.0000 0.0000 0.0000
# 3 16.6444 40.5762 102.3796 0.0000 0.0000 0.0000
# 4 0.0000 0.0000 0.0000 14.3605 0.0000 0.0000
# 5 0.0000 0.0000 0.0000 0.0000 26.7933 0.0000
# 6 0.0000 0.0000 0.0000 0.0000 0.0000 17.7952
#
#
#
# Elastic Compliance Matrix: (Units=1/GPa)
#
#
# Indices 1 2 3 4 5 6 
#
# 1 0.010089 -0.003477 -0.000262 0.000000 0.000000 0.000000
# 2 -0.003477 0.008092 -0.002642 0.000000 0.000000 0.000000
# 3 -0.000262 -0.002642 0.010857 0.000000 0.000000 0.000000
# 4 0.000000 0.000000 0.000000 0.069636 0.000000 0.000000
# 5 0.000000 0.000000 0.000000 0.000000 0.037323 0.000000
# 6 0.000000 0.000000 0.000000 0.000000 0.000000 0.056195
#
#
# Mechanical properties :
#
#
# Convention : Reuss Voigt Hill
#
# Bulk Modulus (GPa) = 61.43892 67.79817 64.61855
# Shear Modulus (GPa) = 23.76675 29.70770 26.73723
#
# Velocity S-wave (km/s) = 3.39655 3.79741 3.60256
# Velocity P-wave (km/s) = 6.72346 7.22058 6.97645
#
# Compressibility (1/GPa) = 0.01627633
#
# Stress axis : x y z
#
# Youngs Moduli (GPa) = 99.12099 123.58306 92.10441
#
# Poissons Ratio (x) = 0.42964 0.02416
# Poissons Ratio (y) = 0.34460 0.24332
# Poissons Ratio (z) = 0.02600 0.32648
#
# Static dielectric constant tensor:
#      x y z
#    x 3.457210 0.000000 0.000000 
#    y 0.000000 4.025360 0.000000 
#    z 0.000000 0.000000 3.644540 
# 
# 
# High freq. dielectric constant tensor:
#      x y z
#    x 1.796760 0.000000 0.000000 
#    y 0.000000 1.813650 0.000000 
#    z 0.000000 0.000000 1.801010 
# 
# From -- ./inp_files/10233.got.cif
#   From: 2010.03.12/outbox.cif.g09.slc.cpg/sg65_6_cif.got.tgz:10233.got - 2010.04.10 20:52:16.
