data_PCOD8274034
_publ_section_title
;
Structure prediction by ZEFSAII (Michael W. Deem and Ramdas Pophale) SiO2 
 PCOD8274034
Probable space group: C M M M
;
_chemical_formula_sum "Si O2"
_cell_formula_units_Z 72
_cell_length_a 27.069798
_cell_length_b 17.040113
_cell_length_c 7.545020
_cell_angle_alpha 90.000000
_cell_angle_beta 90.000000
_cell_angle_gamma 90.000000
_cell_volume 3480.309610
_symmetry_space_group_name_H-M "C M M M"
_symmetry_group_IT_number 65
_symmetry_cell_setting 'orthorhombic'
loop_
_space_group_symop_operation_xyz
x,y,z
-x,-y,z
x,-y,-z
-x,y,-z
-x,-y,-z
x,y,-z
-x,y,z
x,-y,z
1/2+x,1/2+y,z
1/2-x,1/2-y,z
1/2+x,1/2-y,-z
1/2-x,1/2+y,-z
1/2-x,1/2-y,-z
1/2+x,1/2+y,-z
1/2-x,1/2+y,z
1/2+x,1/2-y,z
loop_
_atom_site_type_symbol
_atom_site_label
_atom_site_fract_x
_atom_site_fract_y
_atom_site_fract_z
Si Si1 0.281532 0.592106 0.202590
Si Si2 0.596312 0.906897 0.500000
Si Si3 0.207596 0.407265 0.500000
Si Si4 0.387056 0.649156 0.790817
Si Si5 0.444338 0.500000 0.211858
Si Si6 0.057199 0.697706 0.203534
O O1 0.293278 0.500000 0.228028
O O2 0.236302 0.621149 0.323919
O O3 0.329679 0.641029 0.262524
O O4 0.266914 0.610140 0.000000
O O5 0.652350 0.873722 0.500000
O O6 0.568802 0.877628 0.676658
O O7 0.593992 0.000000 0.500000
O O8 0.204858 0.500000 0.500000
O O9 0.417448 0.576665 0.709128
O O10 0.409889 0.730532 0.721118
O O11 0.393027 0.646206 0.000000
O O12 0.500000 0.500000 0.281806
O O13 0.442009 0.500000 0.000000
O O14 0.000000 0.721515 0.220692
O O15 0.070427 0.677095 0.000000
#
# Coordination Sequence:
#
# PCOD8274034 Si02
#       6
#    16   8   8  16   8  16
#     4   9  16  30  53  82 118 157 194 229 265 315
#     4  11  25  45  65  84 107 138 188 250 305 361
#     4   9  20  36  56  82 106 140 191 240 294 345
#     4   9  16  29  51  84 121 158 196 227 265 321
#     4   9  14  22  44  79 119 161 202 233 255 304
#     4  10  22  40  62  88 119 152 183 227 291 349
#
# _framework density 20.687816000000002
#
# number of rings (size 3 to 8) (size 9 to 14) (size 15 to 20)
#    0.000    2.556    1.111    1.000    0.000    5.778 
#    0.000    5.556    0.000    4.000    0.000    3.111 
#    0.000    0.000    0.000    0.000    0.000    0.000 
#
# Total GULP energy -446385.545399 kJ/mol
# GULP energy per Si atom -12399.598483 kJ/mol
# Density = 2.064073 g / cm^3
# Si number density = 20.687816 Si / 1000 Ang^3
#
#
#
# Elastic Constant Matrix: (Units=GPa)
#
#
# Indices 1 2 3 4 5 6 
#
# 1 96.7310 29.0008 44.6784 0.0000 0.0000 0.0000
# 2 29.0008 87.9422 33.5572 0.0000 0.0000 0.0000
# 3 44.6784 33.5572 95.9715 0.0000 0.0000 0.0000
# 4 0.0000 0.0000 0.0000 17.2310 0.0000 0.0000
# 5 0.0000 0.0000 0.0000 0.0000 55.2325 0.0000
# 6 0.0000 0.0000 0.0000 0.0000 0.0000 29.3755
#
#
#
# Elastic Compliance Matrix: (Units=1/GPa)
#
#
# Indices 1 2 3 4 5 6 
#
# 1 0.013590 -0.002386 -0.005493 0.000000 0.000000 0.000000
# 2 -0.002386 0.013541 -0.003624 0.000000 0.000000 0.000000
# 3 -0.005493 -0.003624 0.014244 0.000000 0.000000 0.000000
# 4 0.000000 0.000000 0.000000 0.058035 0.000000 0.000000
# 5 0.000000 0.000000 0.000000 0.000000 0.018105 0.000000
# 6 0.000000 0.000000 0.000000 0.000000 0.000000 0.034042
#
#
# Mechanical properties :
#
#
# Convention : Reuss Voigt Hill
#
# Bulk Modulus (GPa) = 54.43591 55.01305 54.72448
# Shear Modulus (GPa) = 27.67251 31.92836 29.80043
#
# Velocity S-wave (km/s) = 3.66132 3.93280 3.79949
# Velocity P-wave (km/s) = 6.65161 6.87548 6.76447
#
# Compressibility (1/GPa) = 0.01837023
#
# Stress axis : x y z
#
# Youngs Moduli (GPa) = 73.58283 73.85138 70.20565
#
# Poissons Ratio (x) = 0.17619 0.38560
# Poissons Ratio (y) = 0.17555 0.25442
# Poissons Ratio (z) = 0.40415 0.26763
#
# Static dielectric constant tensor:
#      x y z
#    x 3.883370 0.000000 0.000000 
#    y 0.000000 3.560540 0.000000 
#    z 0.000000 0.000000 3.552440 
# 
# 
# High freq. dielectric constant tensor:
#      x y z
#    x 1.813800 0.000000 0.000000 
#    y 0.000000 1.785250 0.000000 
#    z 0.000000 0.000000 1.799040 
# 
# From -- ./inp_files/13637.got.cif
#   From: 2010.03.12/outbox.cif.g09.slc.cpg/sg65_7_cif.got.tgz:13637.got - 2010.04.10 20:52:16.
