data_PCOD8274524
_publ_section_title
;
Structure prediction by ZEFSAII (Michael W. Deem and Ramdas Pophale) SiO2 
 PCOD8274524
Probable space group: C M M M
;
_chemical_formula_sum "Si O2"
_cell_formula_units_Z 72
_cell_length_a 18.018261
_cell_length_b 8.653690
_cell_length_c 23.254247
_cell_angle_alpha 90.000000
_cell_angle_beta 90.000000
_cell_angle_gamma 90.000000
_cell_volume 3625.905558
_symmetry_space_group_name_H-M "C M M M"
_symmetry_group_IT_number 65
_symmetry_cell_setting 'orthorhombic'
loop_
_space_group_symop_operation_xyz
x,y,z
-x,-y,z
x,-y,-z
-x,y,-z
-x,-y,-z
x,y,-z
-x,y,z
x,-y,z
1/2+x,1/2+y,z
1/2-x,1/2-y,z
1/2+x,1/2-y,-z
1/2-x,1/2+y,-z
1/2-x,1/2-y,-z
1/2+x,1/2+y,-z
1/2-x,1/2+y,z
1/2+x,1/2-y,z
loop_
_atom_site_type_symbol
_atom_site_label
_atom_site_fract_x
_atom_site_fract_y
_atom_site_fract_z
Si Si1 0.416598 0.683857 0.500000
Si Si2 0.169394 0.816628 0.173232
Si Si3 0.668467 0.317010 0.387676
Si Si4 0.416878 0.683543 0.936510
Si Si5 0.587257 0.821641 0.720842
O O1 0.418518 0.500000 0.500000
O O2 0.500000 0.751026 0.500000
O O3 0.374523 0.746168 0.443671
O O4 0.250000 0.750000 0.185939
O O5 0.140015 0.754119 0.111527
O O6 0.112174 0.758116 0.220541
O O7 0.173059 0.000000 0.175141
O O8 0.672941 0.500000 0.387812
O O9 0.750000 0.250000 0.388005
O O10 0.625700 0.263144 0.331674
O O11 0.500000 0.746294 0.923895
O O12 0.418716 0.500000 0.934634
O O13 0.390799 0.740011 0.000000
O O14 0.500000 0.800642 0.714272
O O15 0.611216 0.000000 0.721441
#
# Coordination Sequence:
#
# PCOD8274524 Si02
#       5
#     8  16  16  16  16
#     4   9  19  36  59  87 116 149 190 233 276 326
#     4  11  22  36  56  82 113 149 188 229 277 332
#     4  11  22  38  61  87 118 152 188 230 277 331
#     4   8  15  30  53  80 108 140 182 230 277 328
#     4  11  24  41  60  83 112 145 185 234 284 334
#
# _framework density 19.857106999999999
#
# number of rings (size 3 to 8) (size 9 to 14) (size 15 to 20)
#    0.000    1.889    0.000    5.000    0.000    4.000 
#    0.000    1.667    0.000    6.000    0.000    7.778 
#    0.000    0.000    0.000    0.000    0.000    0.000 
#
# Total GULP energy -446457.068816 kJ/mol
# GULP energy per Si atom -12401.585245 kJ/mol
# Density = 1.981191 g / cm^3
# Si number density = 19.857107 Si / 1000 Ang^3
#
#
#
# Elastic Constant Matrix: (Units=GPa)
#
#
# Indices 1 2 3 4 5 6 
#
# 1 103.9076 33.8013 57.1420 0.0000 0.0000 0.0000
# 2 33.8013 69.0506 36.0805 0.0000 0.0000 0.0000
# 3 57.1420 36.0805 155.0932 0.0000 0.0000 0.0000
# 4 0.0000 0.0000 0.0000 -820.7088 0.0000 0.0000
# 5 0.0000 0.0000 0.0000 0.0000 34.6574 0.0000
# 6 0.0000 0.0000 0.0000 0.0000 0.0000 -19.3966
#
#
#
# Elastic Compliance Matrix: (Units=1/GPa)
#
#
# Indices 1 2 3 4 5 6 
#
# 1 0.013172 -0.004453 -0.003817 0.000000 0.000000 0.000000
# 2 -0.004453 0.017992 -0.002545 0.000000 0.000000 0.000000
# 3 -0.003817 -0.002545 0.008446 0.000000 0.000000 0.000000
# 4 0.000000 0.000000 0.000000 -0.001218 0.000000 0.000000
# 5 0.000000 0.000000 0.000000 0.000000 0.028854 0.000000
# 6 0.000000 0.000000 0.000000 0.000000 0.000000 -0.051556
#
#
# Mechanical properties :
#
#
# Convention : Reuss Voigt Hill
#
# Bulk Modulus (GPa) = 55.61903 64.67768 60.14836
# Shear Modulus (GPa) = 115.44014 -147.68775 -16.12381
#
# Velocity S-wave (km/s) = 7.63293 -8.63347 -2.85264
# Velocity P-wave (km/s) = 10.28361 8.16946 4.41659
#
# Compressibility (1/GPa) = 0.01797946
#
# Stress axis : x y z
#
# Youngs Moduli (GPa) = 75.92077 55.58089 118.39861
#
# Poissons Ratio (x) = 0.24752 0.45192
# Poissons Ratio (y) = 0.33810 0.30130
# Poissons Ratio (z) = 0.28978 0.14144
#
# Static dielectric constant tensor:
#      x y z
#    x 3.736290 0.000000 0.000000 
#    y 0.000000 3.428060 0.000000 
#    z 0.000000 0.000000 4.000720 
# 
# 
# High freq. dielectric constant tensor:
#      x y z
#    x 1.785450 0.000000 0.000000 
#    y 0.000000 1.752250 0.000000 
#    z 0.000000 0.000000 1.795760 
# 
# From -- ./inp_files/70339.got.cif
#   From: 2010.03.12/outbox.cif.g09.slc.cpg/sg65_36_cif.got.tgz:70339.got - 2010.04.10 20:52:16.
