data_PCOD8274771
_publ_section_title
;
Structure prediction by ZEFSAII (Michael W. Deem and Ramdas Pophale) SiO2 
 PCOD8274771
Probable space group: C M M M
;
_chemical_formula_sum "Si O2"
_cell_formula_units_Z 96
_cell_length_a 15.282971
_cell_length_b 17.977322
_cell_length_c 19.020214
_cell_angle_alpha 90.000000
_cell_angle_beta 90.000000
_cell_angle_gamma 90.000000
_cell_volume 5225.744659
_symmetry_space_group_name_H-M "C M M M"
_symmetry_group_IT_number 65
_symmetry_cell_setting 'orthorhombic'
loop_
_space_group_symop_operation_xyz
x,y,z
-x,-y,z
x,-y,-z
-x,y,-z
-x,-y,-z
x,y,-z
-x,y,z
x,-y,z
1/2+x,1/2+y,z
1/2-x,1/2-y,z
1/2+x,1/2-y,-z
1/2-x,1/2+y,-z
1/2-x,1/2-y,-z
1/2+x,1/2+y,-z
1/2-x,1/2+y,z
1/2+x,1/2-y,z
loop_
_atom_site_type_symbol
_atom_site_label
_atom_site_fract_x
_atom_site_fract_y
_atom_site_fract_z
Si Si1 0.096357 0.665403 0.321532
Si Si2 0.100803 0.153813 0.831727
Si Si3 0.403938 0.657801 0.327024
Si Si4 0.247763 0.661094 0.420861
Si Si5 0.246416 0.413706 0.080915
Si Si6 0.601243 0.172692 0.836685
O O1 0.095270 0.753697 0.326464
O O2 0.164428 0.631331 0.377194
O O3 0.122514 0.643558 0.242045
O O4 0.000000 0.633941 0.339883
O O5 0.119795 0.130123 0.751163
O O6 0.163341 0.105872 0.880664
O O7 0.122118 0.240275 0.842740
O O8 0.000000 0.136841 0.851227
O O9 0.500000 0.628177 0.349107
O O10 0.334128 0.628016 0.383502
O O11 0.242597 0.629930 0.500000
O O12 0.250000 0.750000 0.420931
O O13 0.226461 0.500000 0.091216
O O14 0.163030 0.369685 0.109656
O O15 0.258441 0.392024 0.000000
O O16 0.500000 0.156909 0.855443
#
# Coordination Sequence:
#
# PCOD8274771 Si02
#       6
#    16  16  16  16  16  16
#     4   8  14  25  41  61  85 115 154 198 237 271
#     4   9  18  34  56  76  93 123 169 212 244 279
#     4   8  14  25  41  61  85 115 154 198 237 271
#     4   9  15  20  30  54  90 129 158 180 220 281
#     4  11  24  37  49  71 104 135 156 186 244 307
#     4   9  18  34  56  76  93 123 169 212 244 279
#
# _framework density 18.370588999999999
#
# number of rings (size 3 to 8) (size 9 to 14) (size 15 to 20)
#    0.000    3.000    0.000    3.500    0.000    6.000 
#    0.000    6.667    0.000    0.000    0.000    0.000 
#    0.000   10.667    0.000   29.333    0.000   29.333 
#
# Total GULP energy -595025.164715 kJ/mol
# GULP energy per Si atom -12396.357598 kJ/mol
# Density = 1.832878 g / cm^3
# Si number density = 18.370589 Si / 1000 Ang^3
#
#
#
# Elastic Constant Matrix: (Units=GPa)
#
#
# Indices 1 2 3 4 5 6 
#
# 1 112.1032 12.0213 68.6407 0.0000 0.0000 0.0000
# 2 12.0213 16.8913 14.7714 0.0000 0.0000 0.0000
# 3 68.6407 14.7714 121.0877 0.0000 0.0000 0.0000
# 4 0.0000 0.0000 0.0000 -1.7686 0.0000 0.0000
# 5 0.0000 0.0000 0.0000 0.0000 18.9417 0.0000
# 6 0.0000 0.0000 0.0000 0.0000 0.0000 9.8569
#
#
#
# Elastic Compliance Matrix: (Units=1/GPa)
#
#
# Indices 1 2 3 4 5 6 
#
# 1 0.013829 -0.003343 -0.007431 0.000000 0.000000 0.000000
# 2 -0.003343 0.067080 -0.006288 0.000000 0.000000 0.000000
# 3 -0.007431 -0.006288 0.013238 0.000000 0.000000 0.000000
# 4 0.000000 0.000000 0.000000 -0.565424 0.000000 0.000000
# 5 0.000000 0.000000 0.000000 0.000000 0.052793 0.000000
# 6 0.000000 0.000000 0.000000 0.000000 0.000000 0.101452
#
#
# Mechanical properties :
#
#
# Convention : Reuss Voigt Hill
#
# Bulk Modulus (GPa) = 16.66049 48.99434 32.82741
# Shear Modulus (GPa) = -19.01872 15.71592 -1.65140
#
# Velocity S-wave (km/s) = -3.22107 2.92806 -0.94915
# Velocity P-wave (km/s) = 2.17828 6.17732 4.08744
#
# Compressibility (1/GPa) = 0.06002225
#
# Stress axis : x y z
#
# Youngs Moduli (GPa) = 72.31109 14.90757 75.53911
#
# Poissons Ratio (x) = 0.04984 0.56137
# Poissons Ratio (y) = 0.24175 0.47498
# Poissons Ratio (z) = 0.53738 0.09374
#
# Static dielectric constant tensor:
#      x y z
#    x 3.735890 0.000000 0.000000 
#    y 0.000000 2.775450 0.000000 
#    z 0.000000 0.000000 3.494620 
# 
# 
# High freq. dielectric constant tensor:
#      x y z
#    x 1.729960 0.000000 0.000000 
#    y 0.000000 1.648460 0.000000 
#    z 0.000000 0.000000 1.713170 
# 
# From -- ./inp_files/62610.got.cif
#   From: 2010.03.12/outbox.cif.g09.slc.cpg/sg65_32_cif.got.tgz:62610.got - 2010.04.10 20:52:16.
