data_PCOD8274031
_publ_section_title
;
Structure prediction by ZEFSAII (Michael W. Deem and Ramdas Pophale) SiO2 
 PCOD8274031
Probable space group: C M M M
;
_chemical_formula_sum "Si O2"
_cell_formula_units_Z 72
_cell_length_a 20.251845
_cell_length_b 20.508325
_cell_length_c 8.112262
_cell_angle_alpha 90.000000
_cell_angle_beta 90.000000
_cell_angle_gamma 90.000000
_cell_volume 3369.277289
_symmetry_space_group_name_H-M "C M M M"
_symmetry_group_IT_number 65
_symmetry_cell_setting 'orthorhombic'
loop_
_space_group_symop_operation_xyz
x,y,z
-x,-y,z
x,-y,-z
-x,y,-z
-x,-y,-z
x,y,-z
-x,y,z
x,-y,z
1/2+x,1/2+y,z
1/2-x,1/2-y,z
1/2+x,1/2-y,-z
1/2-x,1/2+y,-z
1/2-x,1/2-y,-z
1/2+x,1/2+y,-z
1/2-x,1/2+y,z
1/2+x,1/2-y,z
loop_
_atom_site_type_symbol
_atom_site_label
_atom_site_fract_x
_atom_site_fract_y
_atom_site_fract_z
Si Si1 0.625513 0.500000 0.309586
Si Si2 0.677467 0.256796 0.809410
Si Si3 0.727698 0.000000 0.806700
Si Si4 0.925849 0.137717 0.193487
Si Si5 0.638195 0.880931 0.302992
Si Si6 0.500000 0.075058 0.689730
O O1 0.606704 0.500000 0.500000
O O2 0.703751 0.500000 0.288791
O O3 0.594293 0.436311 0.227429
O O4 0.750000 0.250000 0.724097
O O5 0.629032 0.312148 0.729019
O O6 0.646732 0.186716 0.787075
O O7 0.686836 0.275100 0.000000
O O8 0.689798 0.065171 0.755763
O O9 0.741730 0.000000 0.000000
O O10 0.000000 0.151148 0.265567
O O11 0.927992 0.149720 0.000000
O O12 0.641813 0.875567 0.500000
O O13 0.566542 0.898276 0.231022
O O14 0.500000 0.094272 0.500000
O O15 0.500000 0.000000 0.720740
#
# Coordination Sequence:
#
# PCOD8274031 Si02
#       6
#     8  16   8  16  16   8
#     4  12  25  41  65  94 122 153 201 261 315 371
#     4  10  22  40  61  88 124 165 208 254 304 362
#     4  12  24  40  62  90 123 162 206 253 308 371
#     4  10  22  41  64  90 125 168 209 253 310 371
#     4  11  22  38  62  90 123 162 206 253 307 364
#     4   9  18  36  58  84 124 163 194 241 304 364
#
# _framework density 21.369568999999998
#
# number of rings (size 3 to 8) (size 9 to 14) (size 15 to 20)
#    0.000    1.444    1.111    4.333    1.556    4.889 
#    0.000    2.222    0.000    0.000    0.000    0.000 
#    0.000    0.000    0.000    0.000    0.000    0.000 
#
# Total GULP energy -446198.896332 kJ/mol
# GULP energy per Si atom -12394.413787 kJ/mol
# Density = 2.132093 g / cm^3
# Si number density = 21.369569 Si / 1000 Ang^3
#
#
#
# Elastic Constant Matrix: (Units=GPa)
#
#
# Indices 1 2 3 4 5 6 
#
# 1 200.2312 92.6980 2.2065 0.0000 0.0000 0.0000
# 2 92.6980 162.9754 -11.0377 0.0000 0.0000 0.0000
# 3 2.2065 -11.0377 22.8245 0.0000 0.0000 0.0000
# 4 0.0000 0.0000 0.0000 19.2074 0.0000 0.0000
# 5 0.0000 0.0000 0.0000 0.0000 18.4300 0.0000
# 6 0.0000 0.0000 0.0000 0.0000 0.0000 5.4775
#
#
#
# Elastic Compliance Matrix: (Units=1/GPa)
#
#
# Indices 1 2 3 4 5 6 
#
# 1 0.006933 -0.004124 -0.002664 0.000000 0.000000 0.000000
# 2 -0.004124 0.008796 0.004652 0.000000 0.000000 0.000000
# 3 -0.002664 0.004652 0.046320 0.000000 0.000000 0.000000
# 4 0.000000 0.000000 0.000000 0.052063 0.000000 0.000000
# 5 0.000000 0.000000 0.000000 0.000000 0.054259 0.000000
# 6 0.000000 0.000000 0.000000 0.000000 0.000000 0.182565
#
#
# Mechanical properties :
#
#
# Convention : Reuss Voigt Hill
#
# Bulk Modulus (GPa) = 17.30759 61.52944 39.41851
# Shear Modulus (GPa) = 13.35232 28.76726 21.05979
#
# Velocity S-wave (km/s) = 2.50237 3.67301 3.14268
# Velocity P-wave (km/s) = 4.05782 6.84423 5.62625
#
# Compressibility (1/GPa) = 0.05777812
#
# Stress axis : x y z
#
# Youngs Moduli (GPa) = 144.24515 113.68218 21.58896
#
# Poissons Ratio (x) = 0.46878 0.05752
# Poissons Ratio (y) = 0.59481 -0.10044
# Poissons Ratio (z) = 0.38432 -0.52891
#
# Static dielectric constant tensor:
#      x y z
#    x 4.536560 0.000000 0.000000 
#    y 0.000000 3.905060 0.000000 
#    z 0.000000 0.000000 3.585990 
# 
# 
# High freq. dielectric constant tensor:
#      x y z
#    x 1.866440 0.000000 0.000000 
#    y 0.000000 1.850110 0.000000 
#    z 0.000000 0.000000 1.811500 
# 
# From -- ./inp_files/11307.got.cif
#   From: 2010.03.12/outbox.cif.g09.slc.cpg/sg65_6_cif.got.tgz:11307.got - 2010.04.10 20:52:16.
