data_PCOD8274062
_publ_section_title
;
Structure prediction by ZEFSAII (Michael W. Deem and Ramdas Pophale) SiO2 
 PCOD8274062
Probable space group: C M M M
;
_chemical_formula_sum "Si O2"
_cell_formula_units_Z 72
_cell_length_a 16.977151
_cell_length_b 13.783538
_cell_length_c 15.024481
_cell_angle_alpha 90.000000
_cell_angle_beta 90.000000
_cell_angle_gamma 90.000000
_cell_volume 3515.806771
_symmetry_space_group_name_H-M "C M M M"
_symmetry_group_IT_number 65
_symmetry_cell_setting 'orthorhombic'
loop_
_space_group_symop_operation_xyz
x,y,z
-x,-y,z
x,-y,-z
-x,y,-z
-x,-y,-z
x,y,-z
-x,y,z
x,-y,z
1/2+x,1/2+y,z
1/2-x,1/2-y,z
1/2+x,1/2-y,-z
1/2-x,1/2+y,-z
1/2-x,1/2-y,-z
1/2+x,1/2+y,-z
1/2-x,1/2+y,z
1/2+x,1/2-y,z
loop_
_atom_site_type_symbol
_atom_site_label
_atom_site_fract_x
_atom_site_fract_y
_atom_site_fract_z
Si Si1 0.628869 0.890170 0.399359
Si Si2 0.414549 0.267300 0.725611
Si Si3 0.338304 0.291926 0.899425
Si Si4 0.192855 0.885148 0.401852
Si Si5 0.090729 0.000000 0.896755
O O1 0.597548 0.881029 0.500000
O O2 0.575330 0.828360 0.333835
O O3 0.717582 0.848451 0.392378
O O4 0.624568 0.000000 0.366587
O O5 0.500000 0.316401 0.735079
O O6 0.385282 0.233653 0.823573
O O7 0.357790 0.343874 0.678398
O O8 0.250000 0.250000 0.893929
O O9 0.355327 0.405346 0.872152
O O10 0.370157 0.273226 0.000000
O O11 0.160474 0.853345 0.500000
O O12 0.191461 0.000000 0.394930
O O13 0.000000 0.000000 0.855024
O O14 0.076730 0.000000 0.000000
#
# Coordination Sequence:
#
# PCOD8274062 Si02
#       5
#    16  16  16  16   8
#     4   9  19  38  62  83 109 152 203 248 288 342
#     4  12  24  35  54  85 120 155 189 238 300 358
#     4  10  22  41  63  89 119 157 204 253 303 363
#     4   9  19  36  57  82 113 149 191 240 291 346
#     4   9  18  36  64  94 122 152 194 253 312 362
#
# _framework density 20.478940999999999
#
# number of rings (size 3 to 8) (size 9 to 14) (size 15 to 20)
#    0.000    2.111    0.000    4.667    1.556    5.778 
#    2.000    2.222    0.000    0.000    0.000    1.556 
#    0.000    0.000    0.000    0.000    0.000    0.000 
#
# Total GULP energy -445983.764621 kJ/mol
# GULP energy per Si atom -12388.437906 kJ/mol
# Density = 2.043233 g / cm^3
# Si number density = 20.478941 Si / 1000 Ang^3
#
#
#
# Elastic Constant Matrix: (Units=GPa)
#
#
# Indices 1 2 3 4 5 6 
#
# 1 101.3825 28.5342 47.5333 0.0000 0.0000 0.0000
# 2 28.5342 52.2911 16.6676 0.0000 0.0000 0.0000
# 3 47.5333 16.6676 133.7337 0.0000 0.0000 0.0000
# 4 0.0000 0.0000 0.0000 11.9818 0.0000 0.0000
# 5 0.0000 0.0000 0.0000 0.0000 -4.4842 0.0000
# 6 0.0000 0.0000 0.0000 0.0000 0.0000 3.5797
#
#
#
# Elastic Compliance Matrix: (Units=1/GPa)
#
#
# Indices 1 2 3 4 5 6 
#
# 1 0.013458 -0.006060 -0.004028 0.000000 0.000000 0.000000
# 2 -0.006060 0.022643 -0.000668 0.000000 0.000000 0.000000
# 3 -0.004028 -0.000668 0.008993 0.000000 0.000000 0.000000
# 4 0.000000 0.000000 0.000000 0.083460 0.000000 0.000000
# 5 0.000000 0.000000 0.000000 0.000000 -0.223004 0.000000
# 6 0.000000 0.000000 0.000000 0.000000 0.000000 0.279354
#
#
# Mechanical properties :
#
#
# Convention : Reuss Voigt Hill
#
# Bulk Modulus (GPa) = 42.40606 52.54194 47.47400
# Shear Modulus (GPa) = 23.33440 15.19360 19.26400
#
# Velocity S-wave (km/s) = 3.37921 2.72676 3.07037
# Velocity P-wave (km/s) = 5.99813 5.96875 5.98345
#
# Compressibility (1/GPa) = 0.02358154
#
# Stress axis : x y z
#
# Youngs Moduli (GPa) = 74.30688 44.16304 111.20319
#
# Poissons Ratio (x) = 0.26761 0.44793
# Poissons Ratio (y) = 0.45028 0.07432
# Poissons Ratio (z) = 0.29931 0.02951
#
# Static dielectric constant tensor:
#      x y z
#    x 3.618060 0.000000 0.000000 
#    y 0.000000 3.734780 0.000000 
#    z 0.000000 0.000000 3.899440 
# 
# 
# High freq. dielectric constant tensor:
#      x y z
#    x 1.789390 0.000000 0.000000 
#    y 0.000000 1.794890 0.000000 
#    z 0.000000 0.000000 1.807000 
# 
# From -- ./inp_files/42137.got.cif
#   From: 2010.03.12/outbox.cif.g09.slc.cpg/sg65_22_cif.got.tgz:42137.got - 2010.04.10 20:52:16.
