data_PCOD8274475
_publ_section_title
;
Structure prediction by ZEFSAII (Michael W. Deem and Ramdas Pophale) SiO2 
 PCOD8274475
Probable space group: C M M M
;
_chemical_formula_sum "Si O2"
_cell_formula_units_Z 80
_cell_length_a 18.541650
_cell_length_b 9.005730
_cell_length_c 26.071508
_cell_angle_alpha 90.000000
_cell_angle_beta 90.000000
_cell_angle_gamma 90.000000
_cell_volume 4353.448919
_symmetry_space_group_name_H-M "C M M M"
_symmetry_group_IT_number 65
_symmetry_cell_setting 'orthorhombic'
loop_
_space_group_symop_operation_xyz
x,y,z
-x,-y,z
x,-y,-z
-x,y,-z
-x,-y,-z
x,y,-z
-x,y,z
x,-y,z
1/2+x,1/2+y,z
1/2-x,1/2-y,z
1/2+x,1/2-y,-z
1/2-x,1/2+y,-z
1/2-x,1/2-y,-z
1/2+x,1/2+y,-z
1/2-x,1/2+y,z
1/2+x,1/2-y,z
loop_
_atom_site_type_symbol
_atom_site_label
_atom_site_fract_x
_atom_site_fract_y
_atom_site_fract_z
Si Si1 0.419352 0.676498 0.740205
Si Si2 0.327393 0.324669 0.834974
Si Si3 0.917330 0.670745 0.440554
Si Si4 0.173857 0.826908 0.054150
Si Si5 0.827030 0.175550 0.356478
O O1 0.500000 0.743047 0.737633
O O2 0.422597 0.500000 0.741047
O O3 0.381251 0.737218 0.791745
O O4 0.375366 0.732321 0.690896
O O5 0.316419 0.500000 0.828508
O O6 0.250000 0.250000 0.827848
O O7 0.363106 0.284686 0.891208
O O8 0.900626 0.698673 0.500000
O O9 0.902016 0.500000 0.426121
O O10 0.865123 0.777203 0.409003
O O11 0.000000 0.711741 0.428170
O O12 0.250000 0.750000 0.052820
O O13 0.189205 0.000000 0.054801
O O14 0.131898 0.785505 0.000000
O O15 0.750000 0.250000 0.351330
O O16 0.817130 0.000000 0.356176
#
# Coordination Sequence:
#
# PCOD8274475 Si02
#       5
#    16  16  16  16  16
#     4   9  18  32  49  69  93 123 159 196 238 290
#     4   9  16  27  45  66  90 120 152 191 235 278
#     4   9  19  37  59  81 106 135 165 198 238 285
#     4   8  13  21  35  58  86 114 146 184 226 272
#     4  11  22  35  53  76 102 131 165 206 247 289
#
# _framework density 18.376234
#
# number of rings (size 3 to 8) (size 9 to 14) (size 15 to 20)
#    0.000    2.800    0.000    2.400    0.000    2.000 
#    0.000    2.000    0.000    3.600    0.000    4.200 
#    0.000    0.000    0.000   32.400    0.000   15.200 
#
# Total GULP energy -495562.371151 kJ/mol
# GULP energy per Si atom -12389.059279 kJ/mol
# Density = 1.833441 g / cm^3
# Si number density = 18.376234 Si / 1000 Ang^3
#
#
#
# Elastic Constant Matrix: (Units=GPa)
#
#
# Indices 1 2 3 4 5 6 
#
# 1 121.6413 32.5504 82.7405 0.0000 0.0000 0.0000
# 2 32.5504 36.9073 36.5417 0.0000 0.0000 0.0000
# 3 82.7405 36.5417 160.3520 0.0000 0.0000 0.0000
# 4 0.0000 0.0000 0.0000 19.0003 0.0000 0.0000
# 5 0.0000 0.0000 0.0000 0.0000 20.4373 0.0000
# 6 0.0000 0.0000 0.0000 0.0000 0.0000 8.7290
#
#
#
# Elastic Compliance Matrix: (Units=1/GPa)
#
#
# Indices 1 2 3 4 5 6 
#
# 1 0.013815 -0.006620 -0.005620 0.000000 0.000000 0.000000
# 2 -0.006620 0.038162 -0.005281 0.000000 0.000000 0.000000
# 3 -0.005620 -0.005281 0.010339 0.000000 0.000000 0.000000
# 4 0.000000 0.000000 0.000000 0.052631 0.000000 0.000000
# 5 0.000000 0.000000 0.000000 0.000000 0.048930 0.000000
# 6 0.000000 0.000000 0.000000 0.000000 0.000000 0.114561
#
#
# Mechanical properties :
#
#
# Convention : Reuss Voigt Hill
#
# Bulk Modulus (GPa) = 36.66320 69.17398 52.91859
# Shear Modulus (GPa) = 15.50051 20.77119 18.13585
#
# Velocity S-wave (km/s) = 2.90747 3.36568 3.14493
# Velocity P-wave (km/s) = 5.59159 7.26833 6.48439
#
# Compressibility (1/GPa) = 0.02727531
#
# Stress axis : x y z
#
# Youngs Moduli (GPa) = 72.38530 26.20432 96.71689
#
# Poissons Ratio (x) = 0.17347 0.54353
# Poissons Ratio (y) = 0.47918 0.51072
# Poissons Ratio (z) = 0.40679 0.13837
#
# Static dielectric constant tensor:
#      x y z
#    x 3.191520 0.000000 0.000000 
#    y 0.000000 3.088940 0.000000 
#    z 0.000000 0.000000 4.065390 
# 
# 
# High freq. dielectric constant tensor:
#      x y z
#    x 1.681290 0.000000 0.000000 
#    y 0.000000 1.690110 0.000000 
#    z 0.000000 0.000000 1.743210 
# 
# From -- ./inp_files/72797.got.cif
#   From: 2010.03.12/outbox.cif.g09.slc.cpg/sg65_37_cif.got.tgz:72797.got - 2010.04.10 20:52:16.
