data_PCOD8274678
_publ_section_title
;
Structure prediction by ZEFSAII (Michael W. Deem and Ramdas Pophale) SiO2 
 PCOD8274678
Probable space group: C M M M
;
_chemical_formula_sum "Si O2"
_cell_formula_units_Z 104
_cell_length_a 20.569007
_cell_length_b 9.255715
_cell_length_c 29.765317
_cell_angle_alpha 90.000000
_cell_angle_beta 90.000000
_cell_angle_gamma 90.000000
_cell_volume 5666.746846
_symmetry_space_group_name_H-M "C M M M"
_symmetry_group_IT_number 65
_symmetry_cell_setting 'orthorhombic'
loop_
_space_group_symop_operation_xyz
x,y,z
-x,-y,z
x,-y,-z
-x,y,-z
-x,-y,-z
x,y,-z
-x,y,z
x,-y,z
1/2+x,1/2+y,z
1/2-x,1/2-y,z
1/2+x,1/2-y,-z
1/2-x,1/2+y,-z
1/2-x,1/2-y,-z
1/2+x,1/2+y,-z
1/2-x,1/2+y,z
1/2+x,1/2-y,z
loop_
_atom_site_type_symbol
_atom_site_label
_atom_site_fract_x
_atom_site_fract_y
_atom_site_fract_z
Si Si1 0.814448 0.669104 0.551573
Si Si2 0.500000 0.169332 0.951537
Si Si3 0.574048 0.169974 0.381167
Si Si4 0.072315 0.828135 0.196555
Si Si5 0.859476 0.668207 0.052938
Si Si6 0.811777 0.171515 0.133519
Si Si7 0.076910 0.159493 0.704858
O O1 0.828365 0.710037 0.500000
O O2 0.801976 0.500000 0.557802
O O3 0.750000 0.750000 0.569258
O O4 0.878002 0.720298 0.579057
O O5 0.567995 0.210338 0.928144
O O6 0.500000 0.000000 0.960128
O O7 0.500000 0.246851 0.000000
O O8 0.500000 0.221043 0.392225
O O9 0.601390 0.237426 0.334951
O O10 0.575805 0.000000 0.374823
O O11 0.124382 0.774926 0.160101
O O12 0.095763 0.775817 0.246136
O O13 0.000000 0.766782 0.184669
O O14 0.068792 0.000000 0.197504
O O15 0.843543 0.500000 0.062129
O O16 0.813446 0.771143 0.082036
O O17 0.851827 0.702641 0.000000
O O18 0.750000 0.250000 0.156545
O O19 0.803175 0.000000 0.134221
O O20 0.000000 0.147130 0.703266
O O21 0.107695 0.000000 0.697943
#
# Coordination Sequence:
#
# PCOD8274678 Si02
#       7
#    16   8  16  16  16  16  16
#     4   9  18  32  48  66  93 132 172 207 246 292
#     4   7  12  26  49  75 101 127 153 189 237 283
#     4   9  17  29  47  73 102 127 157 203 252 294
#     4   8  16  33  56  78  98 126 165 205 245 292
#     4   9  18  34  55  77 103 134 166 200 242 293
#     4  11  23  37  54  75 104 135 166 206 249 294
#     4   8  14  28  51  75  98 126 161 199 243 297
#
# _framework density 18.352681
#
# number of rings (size 3 to 8) (size 9 to 14) (size 15 to 20)
#    0.000    3.154    0.000    2.308    1.077    1.538 
#    0.000    3.846    0.000    6.923    0.000    4.308 
#    0.000    0.000    0.000    0.000    0.000    0.000 
#
# Total GULP energy -644257.919467 kJ/mol
# GULP energy per Si atom -12389.575374 kJ/mol
# Density = 1.831091 g / cm^3
# Si number density = 18.352681 Si / 1000 Ang^3
#
#
#
# Elastic Constant Matrix: (Units=GPa)
#
#
# Indices 1 2 3 4 5 6 
#
# 1 111.5504 37.8174 65.4300 0.0000 0.0000 0.0000
# 2 37.8174 44.6164 37.7788 0.0000 0.0000 0.0000
# 3 65.4300 37.7788 110.0613 0.0000 0.0000 0.0000
# 4 0.0000 0.0000 0.0000 24.4447 0.0000 0.0000
# 5 0.0000 0.0000 0.0000 0.0000 20.2465 0.0000
# 6 0.0000 0.0000 0.0000 0.0000 0.0000 23.0783
#
#
#
# Elastic Compliance Matrix: (Units=1/GPa)
#
#
# Indices 1 2 3 4 5 6 
#
# 1 0.015337 -0.007443 -0.006563 0.000000 0.000000 0.000000
# 2 -0.007443 0.035209 -0.007661 0.000000 0.000000 0.000000
# 3 -0.006563 -0.007661 0.015617 0.000000 0.000000 0.000000
# 4 0.000000 0.000000 0.000000 0.040909 0.000000 0.000000
# 5 0.000000 0.000000 0.000000 0.000000 0.049391 0.000000
# 6 0.000000 0.000000 0.000000 0.000000 0.000000 0.043331
#
#
# Mechanical properties :
#
#
# Convention : Reuss Voigt Hill
#
# Bulk Modulus (GPa) = 43.80259 60.92004 52.36131
# Shear Modulus (GPa) = 19.94120 21.90070 20.92095
#
# Velocity S-wave (km/s) = 3.29987 3.45820 3.37996
# Velocity P-wave (km/s) = 6.19982 7.01510 6.62003
#
# Compressibility (1/GPa) = 0.02282970
#
# Stress axis : x y z
#
# Youngs Moduli (GPa) = 65.20010 28.40208 64.03241
#
# Poissons Ratio (x) = 0.21139 0.42025
# Poissons Ratio (y) = 0.48528 0.49054
# Poissons Ratio (z) = 0.42791 0.21758
#
# Static dielectric constant tensor:
#      x y z
#    x 3.659360 0.000000 0.000000 
#    y 0.000000 3.134890 0.000000 
#    z 0.000000 0.000000 3.495640 
# 
# 
# High freq. dielectric constant tensor:
#      x y z
#    x 1.704800 0.000000 0.000000 
#    y 0.000000 1.683750 0.000000 
#    z 0.000000 0.000000 1.705410 
# 
# From -- ./inp_files/78256.got.cif
#   From: 2010.03.12/outbox.cif.g09.slc.cpg/sg65_40_cif.got.tgz:78256.got - 2010.04.10 20:52:16.
