data_PCOD8274090
_publ_section_title
;
Structure prediction by ZEFSAII (Michael W. Deem and Ramdas Pophale) SiO2 
 PCOD8274090
Probable space group: C M M M
;
_chemical_formula_sum "Si O2"
_cell_formula_units_Z 72
_cell_length_a 10.295564
_cell_length_b 15.051991
_cell_length_c 23.267485
_cell_angle_alpha 90.000000
_cell_angle_beta 90.000000
_cell_angle_gamma 90.000000
_cell_volume 3605.732756
_symmetry_space_group_name_H-M "C M M M"
_symmetry_group_IT_number 65
_symmetry_cell_setting 'orthorhombic'
loop_
_space_group_symop_operation_xyz
x,y,z
-x,-y,z
x,-y,-z
-x,y,-z
-x,-y,-z
x,y,-z
-x,y,z
x,-y,z
1/2+x,1/2+y,z
1/2-x,1/2-y,z
1/2+x,1/2-y,-z
1/2-x,1/2+y,-z
1/2-x,1/2-y,-z
1/2+x,1/2+y,-z
1/2-x,1/2+y,z
1/2+x,1/2-y,z
loop_
_atom_site_type_symbol
_atom_site_label
_atom_site_fract_x
_atom_site_fract_y
_atom_site_fract_z
Si Si1 0.147833 0.604600 0.436604
Si Si2 0.500000 0.595881 0.737801
Si Si3 0.500000 0.259149 0.835261
Si Si4 0.755626 0.349477 0.318450
Si Si5 0.655468 0.893376 0.000000
Si Si6 0.500000 0.097147 0.246950
Si Si7 0.750000 0.250000 0.089004
O O1 0.202793 0.629602 0.500000
O O2 0.154860 0.500000 0.426910
O O3 0.231725 0.651686 0.387444
O O4 0.000000 0.637596 0.431548
O O5 0.500000 0.500000 0.768613
O O6 0.500000 0.670332 0.785132
O O7 0.624088 0.600917 0.696843
O O8 0.500000 0.161953 0.807376
O O9 0.372766 0.275408 0.872765
O O10 0.750000 0.250000 0.294532
O O11 0.876071 0.395849 0.287892
O O12 0.715564 0.839964 0.053942
O O13 0.500000 0.883223 0.000000
O O14 0.692635 0.000000 0.000000
O O15 0.500000 0.000000 0.218454
#
# Coordination Sequence:
#
# PCOD8274090 Si02
#       7
#    16   8   8  16   8   8   8
#     4   9  18  34  59  88 113 148 207 270 321 383
#     4  12  26  42  60  89 132 172 205 261 328 380
#     4  12  24  43  64 100 137 170 220 266 320 362
#     4  12  22  40  62  88 123 162 212 265 323 395
#     4  10  22  45  74 105 136 181 225 256 312 376
#     4  12  24  42  68  91 120 174 229 261 306 386
#     4  11  24  42  72 102 140 172 213 274 314 360
#
# _framework density 19.968202000000002
#
# number of rings (size 3 to 8) (size 9 to 14) (size 15 to 20)
#    0.000    1.000    4.444    4.000    0.000    2.222 
#    0.000    1.111    0.000    2.000    0.000    0.000 
#    0.000    0.000    0.000    0.000    0.000    0.000 
#
# Total GULP energy -446356.679574 kJ/mol
# GULP energy per Si atom -12398.796655 kJ/mol
# Density = 1.992275 g / cm^3
# Si number density = 19.968202 Si / 1000 Ang^3
#
#
#
# Elastic Constant Matrix: (Units=GPa)
#
#
# Indices 1 2 3 4 5 6 
#
# 1 153.0643 39.8753 63.3971 0.0000 0.0000 0.0000
# 2 39.8753 142.6904 44.3424 0.0000 0.0000 0.0000
# 3 63.3971 44.3424 122.9540 0.0000 0.0000 0.0000
# 4 0.0000 0.0000 0.0000 10.3353 0.0000 0.0000
# 5 0.0000 0.0000 0.0000 0.0000 40.7233 0.0000
# 6 0.0000 0.0000 0.0000 0.0000 0.0000 32.8991
#
#
#
# Elastic Compliance Matrix: (Units=1/GPa)
#
#
# Indices 1 2 3 4 5 6 
#
# 1 0.008468 -0.001137 -0.003956 0.000000 0.000000 0.000000
# 2 -0.001137 0.008045 -0.002315 0.000000 0.000000 0.000000
# 3 -0.003956 -0.002315 0.011008 0.000000 0.000000 0.000000
# 4 0.000000 0.000000 0.000000 0.096756 0.000000 0.000000
# 5 0.000000 0.000000 0.000000 0.000000 0.024556 0.000000
# 6 0.000000 0.000000 0.000000 0.000000 0.000000 0.030396
#
#
# Mechanical properties :
#
#
# Convention : Reuss Voigt Hill
#
# Bulk Modulus (GPa) = 78.71227 79.32648 79.01937
# Shear Modulus (GPa) = 25.21673 34.86446 30.04060
#
# Velocity S-wave (km/s) = 3.55751 4.18305 3.88290
# Velocity P-wave (km/s) = 7.50859 7.94627 7.73052
#
# Compressibility (1/GPa) = 0.01270450
#
# Stress axis : x y z
#
# Youngs Moduli (GPa) = 118.09154 124.29457 90.84314
#
# Poissons Ratio (x) = 0.14132 0.35939
# Poissons Ratio (y) = 0.13427 0.21033
# Poissons Ratio (z) = 0.46719 0.28777
#
# Static dielectric constant tensor:
#      x y z
#    x 3.693820 0.000000 0.000000 
#    y 0.000000 3.721880 0.000000 
#    z 0.000000 0.000000 3.750580 
# 
# 
# High freq. dielectric constant tensor:
#      x y z
#    x 1.781220 0.000000 0.000000 
#    y 0.000000 1.783790 0.000000 
#    z 0.000000 0.000000 1.783170 
# 
# From -- ./inp_files/72667.got.cif
#   From: 2010.03.12/outbox.cif.g09.slc.cpg/sg65_37_cif.got.tgz:72667.got - 2010.04.10 20:52:16.
