data_PCOD8274914
_publ_section_title
;
Structure prediction by ZEFSAII (Michael W. Deem and Ramdas Pophale) SiO2 
 PCOD8274914
Probable space group: C M M M
;
_chemical_formula_sum "Si O2"
_cell_formula_units_Z 88
_cell_length_a 9.742344
_cell_length_b 20.085864
_cell_length_c 28.202260
_cell_angle_alpha 90.000000
_cell_angle_beta 90.000000
_cell_angle_gamma 90.000000
_cell_volume 5518.714029
_symmetry_space_group_name_H-M "C M M M"
_symmetry_group_IT_number 65
_symmetry_cell_setting 'orthorhombic'
loop_
_space_group_symop_operation_xyz
x,y,z
-x,-y,z
x,-y,-z
-x,y,-z
-x,-y,-z
x,y,-z
-x,y,z
x,-y,z
1/2+x,1/2+y,z
1/2-x,1/2-y,z
1/2+x,1/2-y,-z
1/2-x,1/2+y,-z
1/2-x,1/2-y,-z
1/2+x,1/2+y,-z
1/2-x,1/2+y,z
1/2+x,1/2-y,z
loop_
_atom_site_type_symbol
_atom_site_label
_atom_site_fract_x
_atom_site_fract_y
_atom_site_fract_z
Si Si1 0.153325 0.420801 0.310738
Si Si2 0.847694 0.920824 0.770367
Si Si3 0.836794 0.073720 0.874809
Si Si4 0.345749 0.920869 0.416143
Si Si5 0.159286 0.813110 0.945344
Si Si6 0.344337 0.579521 0.500000
O O1 0.157372 0.500000 0.308145
O O2 0.252345 0.389629 0.270744
O O3 0.199392 0.397513 0.363390
O O4 0.000000 0.395109 0.300322
O O5 0.788497 0.902077 0.822476
O O6 0.000000 0.891040 0.763227
O O7 0.853523 0.000000 0.766362
O O8 0.785154 0.125169 0.914415
O O9 0.000000 0.069576 0.874576
O O10 0.777139 0.000000 0.886411
O O11 0.500000 0.894950 0.427852
O O12 0.235916 0.892714 0.453814
O O13 0.347404 0.000000 0.418582
O O14 0.250000 0.750000 0.931082
O O15 0.000000 0.797014 0.934692
O O16 0.181011 0.832624 0.000000
O O17 0.346050 0.500000 0.500000
O O18 0.500000 0.607267 0.500000
#
# Coordination Sequence:
#
# PCOD8274914 Si02
#       6
#    16  16  16  16  16   8
#     4   8  13  20  29  41  57  78 105 136 172 218
#     4   8  13  21  33  48  66  87 110 141 182 223
#     4   8  14  25  41  61  82 103 131 166 201 237
#     4   8  13  20  27  33  45  69  98 128 167 214
#     4   9  17  29  45  63  83 108 136 166 199 236
#     4   9  15  19  23  33  47  63  91 135 178 211
#
# _framework density 15.945743
#
# number of rings (size 3 to 8) (size 9 to 14) (size 15 to 20)
#    0.000    3.727    0.000    2.455    0.000    2.182 
#    0.000    6.364    0.000    1.636    0.000    2.545 
#    0.000    0.000    0.000    0.000    0.000    0.000 
#
# Total GULP energy -545182.965862 kJ/mol
# GULP energy per Si atom -12390.521951 kJ/mol
# Density = 1.590945 g / cm^3
# Si number density = 15.945743 Si / 1000 Ang^3
#
#
#
# Elastic Constant Matrix: (Units=GPa)
#
#
# Indices 1 2 3 4 5 6 
#
# 1 79.6432 27.3338 70.2467 0.0000 0.0000 0.0000
# 2 27.3338 36.2305 47.0553 0.0000 0.0000 0.0000
# 3 70.2467 47.0553 144.7096 0.0000 0.0000 0.0000
# 4 0.0000 0.0000 0.0000 1.2593 0.0000 0.0000
# 5 0.0000 0.0000 0.0000 0.0000 25.7527 0.0000
# 6 0.0000 0.0000 0.0000 0.0000 0.0000 9.4392
#
#
#
# Elastic Compliance Matrix: (Units=1/GPa)
#
#
# Indices 1 2 3 4 5 6 
#
# 1 0.022432 -0.004814 -0.009324 0.000000 0.000000 0.000000
# 2 -0.004814 0.048812 -0.013535 0.000000 0.000000 0.000000
# 3 -0.009324 -0.013535 0.015838 0.000000 0.000000 0.000000
# 4 0.000000 0.000000 0.000000 0.794099 0.000000 0.000000
# 5 0.000000 0.000000 0.000000 0.000000 0.038831 0.000000
# 6 0.000000 0.000000 0.000000 0.000000 0.000000 0.105941
#
#
# Mechanical properties :
#
#
# Convention : Reuss Voigt Hill
#
# Bulk Modulus (GPa) = 31.51042 61.09501 46.30272
# Shear Modulus (GPa) = 4.57926 15.02008 9.79967
#
# Velocity S-wave (km/s) = 1.69647 3.07245 2.48173
# Velocity P-wave (km/s) = 4.86223 7.14031 6.10841
#
# Compressibility (1/GPa) = 0.03173553
#
# Stress axis : x y z
#
# Youngs Moduli (GPa) = 44.57925 20.48656 63.14014
#
# Poissons Ratio (x) = 0.09862 0.58871
# Poissons Ratio (y) = 0.21461 0.85463
# Poissons Ratio (z) = 0.41565 0.27729
#
# Static dielectric constant tensor:
#      x y z
#    x 3.102300 0.000000 0.000000 
#    y 0.000000 2.486560 0.000000 
#    z 0.000000 0.000000 3.422070 
# 
# 
# High freq. dielectric constant tensor:
#      x y z
#    x 1.598240 0.000000 0.000000 
#    y 0.000000 1.531820 0.000000 
#    z 0.000000 0.000000 1.629280 
# 
# From -- ./inp_files/76783.got.cif
#   From: 2010.03.12/outbox.cif.g09.slc.cpg/sg65_39_cif.got.tgz:76783.got - 2010.04.10 20:52:16.
