data_PCOD8274974
_publ_section_title
;
Structure prediction by ZEFSAII (Michael W. Deem and Ramdas Pophale) SiO2 
 PCOD8274974
Probable space group: C M M M
;
_chemical_formula_sum "Si O2"
_cell_formula_units_Z 96
_cell_length_a 30.526016
_cell_length_b 9.823499
_cell_length_c 19.794075
_cell_angle_alpha 90.000000
_cell_angle_beta 90.000000
_cell_angle_gamma 90.000000
_cell_volume 5935.694552
_symmetry_space_group_name_H-M "C M M M"
_symmetry_group_IT_number 65
_symmetry_cell_setting 'orthorhombic'
loop_
_space_group_symop_operation_xyz
x,y,z
-x,-y,z
x,-y,-z
-x,y,-z
-x,-y,-z
x,y,-z
-x,y,z
x,-y,z
1/2+x,1/2+y,z
1/2-x,1/2-y,z
1/2+x,1/2-y,-z
1/2-x,1/2+y,-z
1/2-x,1/2-y,-z
1/2+x,1/2+y,-z
1/2-x,1/2+y,z
1/2+x,1/2-y,z
loop_
_atom_site_type_symbol
_atom_site_label
_atom_site_fract_x
_atom_site_fract_y
_atom_site_fract_z
Si Si1 0.449796 0.654992 0.920949
Si Si2 0.116984 0.337872 0.683129
Si Si3 0.213117 0.349654 0.838731
Si Si4 0.786686 0.651227 0.321725
Si Si5 0.451027 0.838019 0.424736
Si Si6 0.885657 0.661201 0.835562
O O1 0.500000 0.685330 0.901036
O O2 0.437632 0.500000 0.901298
O O3 0.419058 0.759834 0.882556
O O4 0.442804 0.678022 0.000000
O O5 0.116768 0.500000 0.682903
O O6 0.165331 0.289635 0.659861
O O7 0.081944 0.275273 0.630641
O O8 0.105902 0.288576 0.758767
O O9 0.221713 0.500000 0.868741
O O10 0.250000 0.250000 0.869973
O O11 0.217408 0.355676 0.758533
O O12 0.164024 0.301390 0.857846
O O13 0.779851 0.500000 0.352100
O O14 0.750000 0.750000 0.353372
O O15 0.437312 0.789608 0.500000
O O16 0.500000 0.786373 0.407944
O O17 0.449710 0.000000 0.421426
O O18 0.893655 0.500000 0.842544
#
# Coordination Sequence:
#
# PCOD8274974 Si02
#       6
#    16  16  16  16  16  16
#     4   9  19  35  50  63  84 115 146 174 208 254
#     4   8  14  24  37  57  86 113 136 170 215 251
#     4   8  14  24  38  59  86 112 138 169 206 249
#     4   8  13  22  36  54  79 109 137 166 202 244
#     4   8  13  21  34  53  78 110 145 174 203 248
#     4   9  17  28  44  68  92 111 138 179 220 254
#
# _framework density 16.173338999999999
#
# number of rings (size 3 to 8) (size 9 to 14) (size 15 to 20)
#    0.000    3.667    0.000    3.000    0.000    2.000 
#    0.000    5.000    0.000    1.000    0.000    0.000 
#    0.000    2.000    0.000    9.167    0.000    8.000 
#
# Total GULP energy -594798.314428 kJ/mol
# GULP energy per Si atom -12391.631551 kJ/mol
# Density = 1.613653 g / cm^3
# Si number density = 16.173339 Si / 1000 Ang^3
#
#
#
# Elastic Constant Matrix: (Units=GPa)
#
#
# Indices 1 2 3 4 5 6 
#
# 1 143.1947 61.4749 62.1597 0.0000 0.0000 0.0000
# 2 61.4749 57.0267 32.7889 0.0000 0.0000 0.0000
# 3 62.1597 32.7889 54.8566 0.0000 0.0000 0.0000
# 4 0.0000 0.0000 0.0000 7.8596 0.0000 0.0000
# 5 0.0000 0.0000 0.0000 0.0000 1.9872 0.0000
# 6 0.0000 0.0000 0.0000 0.0000 0.0000 29.0756
#
#
#
# Elastic Compliance Matrix: (Units=1/GPa)
#
#
# Indices 1 2 3 4 5 6 
#
# 1 0.017557 -0.011409 -0.013076 0.000000 0.000000 0.000000
# 2 -0.011409 0.034131 -0.007473 0.000000 0.000000 0.000000
# 3 -0.013076 -0.007473 0.037513 0.000000 0.000000 0.000000
# 4 0.000000 0.000000 0.000000 0.127232 0.000000 0.000000
# 5 0.000000 0.000000 0.000000 0.000000 0.503221 0.000000
# 6 0.000000 0.000000 0.000000 0.000000 0.000000 0.034393
#
#
# Mechanical properties :
#
#
# Convention : Reuss Voigt Hill
#
# Bulk Modulus (GPa) = 39.54759 63.10275 51.32517
# Shear Modulus (GPa) = 6.05040 14.36146 10.20593
#
# Velocity S-wave (km/s) = 1.93626 2.98312 2.51476
# Velocity P-wave (km/s) = 5.43178 7.13909 6.34314
#
# Compressibility (1/GPa) = 0.02528599
#
# Stress axis : x y z
#
# Youngs Moduli (GPa) = 56.95602 29.29859 26.65768
#
# Poissons Ratio (x) = 0.33426 0.34856
# Poissons Ratio (y) = 0.64980 0.19922
# Poissons Ratio (z) = 0.74473 0.21896
#
# Static dielectric constant tensor:
#      x y z
#    x 3.367610 0.000000 0.000000 
#    y 0.000000 2.922210 0.000000 
#    z 0.000000 0.000000 2.864440 
# 
# 
# High freq. dielectric constant tensor:
#      x y z
#    x 1.633660 0.000000 0.000000 
#    y 0.000000 1.586390 0.000000 
#    z 0.000000 0.000000 1.586400 
# 
# From -- ./inp_files/51845.got.cif
#   From: 2010.03.12/outbox.cif.g09.slc.cpg/sg65_26_cif.got.tgz:51845.got - 2010.04.10 20:52:16.
