data_PCOD8274919
_publ_section_title
;
Structure prediction by ZEFSAII (Michael W. Deem and Ramdas Pophale) SiO2 
 PCOD8274919
Probable space group: C M M M
;
_chemical_formula_sum "Si O2"
_cell_formula_units_Z 96
_cell_length_a 9.667528
_cell_length_b 30.185839
_cell_length_c 25.316262
_cell_angle_alpha 90.000000
_cell_angle_beta 90.000000
_cell_angle_gamma 90.000000
_cell_volume 7387.853443
_symmetry_space_group_name_H-M "C M M M"
_symmetry_group_IT_number 65
_symmetry_cell_setting 'orthorhombic'
loop_
_space_group_symop_operation_xyz
x,y,z
-x,-y,z
x,-y,-z
-x,y,-z
-x,-y,-z
x,y,-z
-x,y,z
x,-y,z
1/2+x,1/2+y,z
1/2-x,1/2-y,z
1/2+x,1/2-y,-z
1/2-x,1/2+y,-z
1/2-x,1/2-y,-z
1/2+x,1/2+y,-z
1/2-x,1/2+y,z
1/2+x,1/2-y,z
loop_
_atom_site_type_symbol
_atom_site_label
_atom_site_fract_x
_atom_site_fract_y
_atom_site_fract_z
Si Si1 0.655051 0.552664 0.441228
Si Si2 0.656230 0.947082 0.652761
Si Si3 0.152951 0.711923 0.062744
Si Si4 0.662108 0.886979 0.938975
Si Si5 0.153587 0.947364 0.253603
Si Si6 0.339250 0.448689 0.135027
O O1 0.697510 0.568969 0.500000
O O2 0.500000 0.569345 0.427311
O O3 0.656466 0.500000 0.439393
O O4 0.764306 0.571568 0.398881
O O5 0.500000 0.928521 0.652681
O O6 0.734963 0.928749 0.704680
O O7 0.655542 0.000000 0.652630
O O8 0.250000 0.750000 0.087512
O O9 0.206687 0.662870 0.077721
O O10 0.000000 0.719417 0.086140
O O11 0.147424 0.715983 0.000000
O O12 0.500000 0.893856 0.928601
O O13 0.747438 0.921381 0.905066
O O14 0.697641 0.895537 0.000000
O O15 0.195830 0.932708 0.194555
O O16 0.000000 0.929257 0.267742
O O17 0.148943 0.000000 0.256093
O O18 0.500000 0.440604 0.122575
O O19 0.301052 0.500000 0.127844
#
# Coordination Sequence:
#
# PCOD8274919 Si02
#       6
#    16  16  16  16  16  16
#     4   8  13  20  28  37  51  73  97 118 147 191
#     4   9  15  20  28  43  58  71  92 124 160 196
#     4   8  14  25  40  57  75  92 110 132 159 195
#     4   9  18  30  41  55  75  95 113 135 168 211
#     4   8  14  25  37  45  56  76 102 133 167 199
#     4   9  18  30  41  53  68  88 117 150 178 204
#
# _framework density 12.994301999999999
#
# number of rings (size 3 to 8) (size 9 to 14) (size 15 to 20)
#    0.000    3.500    0.000    3.000    0.000    4.667 
#    0.000    6.667    0.000    0.000    0.000    0.000 
#    0.000    0.000    0.000    0.000    0.000    0.000 
#
# Total GULP energy -594821.457036 kJ/mol
# GULP energy per Si atom -12392.113688 kJ/mol
# Density = 1.296473 g / cm^3
# Si number density = 12.994302 Si / 1000 Ang^3
#
#
#
# Elastic Constant Matrix: (Units=GPa)
#
#
# Indices 1 2 3 4 5 6 
#
# 1 96.3825 35.2644 66.1174 0.0000 0.0000 0.0000
# 2 35.2644 39.0683 32.5883 0.0000 0.0000 0.0000
# 3 66.1174 32.5883 89.2063 0.0000 0.0000 0.0000
# 4 0.0000 0.0000 0.0000 -0.4430 0.0000 0.0000
# 5 0.0000 0.0000 0.0000 0.0000 20.0289 0.0000
# 6 0.0000 0.0000 0.0000 0.0000 0.0000 16.4590
#
#
#
# Elastic Compliance Matrix: (Units=1/GPa)
#
#
# Indices 1 2 3 4 5 6 
#
# 1 0.023346 -0.009550 -0.013815 0.000000 0.000000 0.000000
# 2 -0.009550 0.040720 -0.007798 0.000000 0.000000 0.000000
# 3 -0.013815 -0.007798 0.024298 0.000000 0.000000 0.000000
# 4 0.000000 0.000000 0.000000 -2.257406 0.000000 0.000000
# 5 0.000000 0.000000 0.000000 0.000000 0.049928 0.000000
# 6 0.000000 0.000000 0.000000 0.000000 0.000000 0.060757
#
#
# Mechanical properties :
#
#
# Convention : Reuss Voigt Hill
#
# Bulk Modulus (GPa) = 38.40278 54.73303 46.56790
# Shear Modulus (GPa) = -2.51591 13.25478 5.36944
#
# Velocity S-wave (km/s) = -1.39297 3.19728 2.03497
# Velocity P-wave (km/s) = 5.19909 7.47278 6.43712
#
# Compressibility (1/GPa) = 0.02603978
#
# Stress axis : x y z
#
# Youngs Moduli (GPa) = 42.83317 24.55769 41.15552
#
# Poissons Ratio (x) = 0.23451 0.56857
# Poissons Ratio (y) = 0.40904 0.32092
# Poissons Ratio (z) = 0.59175 0.19150
#
# Static dielectric constant tensor:
#      x y z
#    x 2.822660 0.000000 0.000000 
#    y 0.000000 2.208120 0.000000 
#    z 0.000000 0.000000 2.676010 
# 
# 
# High freq. dielectric constant tensor:
#      x y z
#    x 1.503860 0.000000 0.000000 
#    y 0.000000 1.427380 0.000000 
#    z 0.000000 0.000000 1.485280 
# 
# From -- ./inp_files/73702.got.cif
#   From: 2010.03.12/outbox.cif.g09.slc.cpg/sg65_37_cif.got.tgz:73702.got - 2010.04.10 20:52:16.
