data_PCOD8274091
_publ_section_title
;
Structure prediction by ZEFSAII (Michael W. Deem and Ramdas Pophale) SiO2 
 PCOD8274091
Probable space group: C M M M
;
_chemical_formula_sum "Si O2"
_cell_formula_units_Z 56
_cell_length_a 10.200093
_cell_length_b 14.847635
_cell_length_c 18.217445
_cell_angle_alpha 90.000000
_cell_angle_beta 90.000000
_cell_angle_gamma 90.000000
_cell_volume 2758.982090
_symmetry_space_group_name_H-M "C M M M"
_symmetry_group_IT_number 65
_symmetry_cell_setting 'orthorhombic'
loop_
_space_group_symop_operation_xyz
x,y,z
-x,-y,z
x,-y,-z
-x,y,-z
-x,-y,-z
x,y,-z
-x,y,z
x,-y,z
1/2+x,1/2+y,z
1/2-x,1/2-y,z
1/2+x,1/2-y,-z
1/2-x,1/2+y,-z
1/2-x,1/2-y,-z
1/2+x,1/2+y,-z
1/2-x,1/2+y,z
1/2+x,1/2-y,z
loop_
_atom_site_type_symbol
_atom_site_label
_atom_site_fract_x
_atom_site_fract_y
_atom_site_fract_z
Si Si1 0.738759 0.355831 0.582456
Si Si2 0.000000 0.099370 0.685924
Si Si3 0.500000 0.761941 0.788084
Si Si4 0.343846 0.606747 0.000000
Si Si5 0.750000 0.750000 0.115265
Si Si6 0.000000 0.597137 0.341665
O O1 0.704210 0.387374 0.500000
O O2 0.750000 0.250000 0.587156
O O3 0.627199 0.388044 0.636787
O O4 0.875615 0.397884 0.605640
O O5 0.000000 0.160858 0.757853
O O6 0.000000 0.000000 0.719463
O O7 0.371604 0.780459 0.835580
O O8 0.500000 0.826591 0.718814
O O9 0.286387 0.660233 0.069737
O O10 0.302499 0.500000 0.000000
O O11 0.500000 0.615268 0.000000
O O12 0.000000 0.500000 0.301885
#
# Coordination Sequence:
#
# PCOD8274091 Si02
#       6
#    16   8   8   8   8   8
#     4  11  22  41  65  88 121 166 219 280 339 384
#     4  12  25  41  64  92 125 170 222 272 321 383
#     4  12  24  43  63  94 140 170 214 252 316 384
#     4  10  22  45  74 107 134 163 213 256 300 368
#     4  11  24  42  72 100 133 176 202 256 315 362
#     4  12  25  41  62  90 127 170 214 268 327 385
#
# _framework density 20.297339999999998
#
# number of rings (size 3 to 8) (size 9 to 14) (size 15 to 20)
#    0.000    0.714    4.286    3.429    0.000    8.000 
#    0.000    0.714    0.000    0.000    0.000    0.000 
#    0.000    0.000    0.000    0.000    0.000    0.000 
#
# Total GULP energy -347250.395906 kJ/mol
# GULP energy per Si atom -12401.799854 kJ/mol
# Density = 2.025114 g / cm^3
# Si number density = 20.297340 Si / 1000 Ang^3
#
#
#
# Elastic Constant Matrix: (Units=GPa)
#
#
# Indices 1 2 3 4 5 6 
#
# 1 146.0469 27.8107 35.9839 0.0000 0.0000 0.0000
# 2 27.8107 148.7533 47.3163 0.0000 0.0000 0.0000
# 3 35.9839 47.3163 87.3669 0.0000 0.0000 0.0000
# 4 0.0000 0.0000 0.0000 -47.4840 0.0000 0.0000
# 5 0.0000 0.0000 0.0000 0.0000 45.6139 0.0000
# 6 0.0000 0.0000 0.0000 0.0000 0.0000 33.8004
#
#
#
# Elastic Compliance Matrix: (Units=1/GPa)
#
#
# Indices 1 2 3 4 5 6 
#
# 1 0.007653 -0.000517 -0.002872 0.000000 0.000000 0.000000
# 2 -0.000517 0.008157 -0.004204 0.000000 0.000000 0.000000
# 3 -0.002872 -0.004204 0.014906 0.000000 0.000000 0.000000
# 4 0.000000 0.000000 0.000000 -0.021060 0.000000 0.000000
# 5 0.000000 0.000000 0.000000 0.000000 0.021923 0.000000
# 6 0.000000 0.000000 0.000000 0.000000 0.000000 0.029585
#
#
# Mechanical properties :
#
#
# Convention : Reuss Voigt Hill
#
# Bulk Modulus (GPa) = 64.39830 67.15432 65.77631
# Shear Modulus (GPa) = 61.32855 24.45648 42.89251
#
# Velocity S-wave (km/s) = 5.50279 3.47495 4.60195
# Velocity P-wave (km/s) = 8.49533 7.01837 7.79192
#
# Compressibility (1/GPa) = 0.01552836
#
# Stress axis : x y z
#
# Youngs Moduli (GPa) = 130.66370 122.59989 67.08759
#
# Poissons Ratio (x) = 0.06342 0.19267
# Poissons Ratio (y) = 0.06759 0.28206
# Poissons Ratio (z) = 0.37526 0.51546
#
# Static dielectric constant tensor:
#      x y z
#    x 4.137830 0.000000 0.000000 
#    y 0.000000 4.018560 0.000000 
#    z 0.000000 0.000000 3.773890 
# 
# 
# High freq. dielectric constant tensor:
#      x y z
#    x 1.811050 0.000000 0.000000 
#    y 0.000000 1.806880 0.000000 
#    z 0.000000 0.000000 1.793900 
# 
# From -- ./inp_files/58656.got.cif
#   From: 2010.03.12/outbox.cif.g09.slc.cpg/sg65_30_cif.got.tgz:58656.got - 2010.04.10 20:52:16.
