data_PCOD8274963
_publ_section_title
;
Structure prediction by ZEFSAII (Michael W. Deem and Ramdas Pophale) SiO2 
 PCOD8274963
Probable space group: C M M M
;
_chemical_formula_sum "Si O2"
_cell_formula_units_Z 88
_cell_length_a 19.351981
_cell_length_b 9.475674
_cell_length_c 27.997076
_cell_angle_alpha 90.000000
_cell_angle_beta 90.000000
_cell_angle_gamma 90.000000
_cell_volume 5133.909587
_symmetry_space_group_name_H-M "C M M M"
_symmetry_group_IT_number 65
_symmetry_cell_setting 'orthorhombic'
loop_
_space_group_symop_operation_xyz
x,y,z
-x,-y,z
x,-y,-z
-x,y,-z
-x,-y,-z
x,y,-z
-x,y,z
x,-y,z
1/2+x,1/2+y,z
1/2-x,1/2-y,z
1/2+x,1/2-y,-z
1/2-x,1/2+y,-z
1/2-x,1/2-y,-z
1/2+x,1/2+y,-z
1/2-x,1/2+y,z
1/2+x,1/2-y,z
loop_
_atom_site_type_symbol
_atom_site_label
_atom_site_fract_x
_atom_site_fract_y
_atom_site_fract_z
Si Si1 0.422972 0.166911 0.000000
Si Si2 0.082194 0.658384 0.447032
Si Si3 0.816299 0.337101 0.188514
Si Si4 0.417616 0.659169 0.639854
Si Si5 0.079537 0.336882 0.270231
Si Si6 0.682088 0.834908 0.079763
O O1 0.381719 0.216328 0.047198
O O2 0.500000 0.234584 0.000000
O O3 0.429883 0.000000 0.000000
O O4 0.106601 0.706508 0.500000
O O5 0.108901 0.500000 0.436226
O O6 0.112636 0.765250 0.407560
O O7 0.000000 0.659197 0.444693
O O8 0.796362 0.500000 0.193405
O O9 0.750000 0.250000 0.205107
O O10 0.879952 0.296286 0.222291
O O11 0.838023 0.300186 0.134371
O O12 0.500000 0.660566 0.638441
O O13 0.388823 0.500000 0.641658
O O14 0.391386 0.743289 0.686295
O O15 0.089669 0.500000 0.284436
O O16 0.000000 0.302250 0.259696
O O17 0.750000 0.750000 0.064075
O O18 0.697604 0.000000 0.072076
#
# Coordination Sequence:
#
# PCOD8274963 Si02
#       6
#     8  16  16  16  16  16
#     4   9  17  28  45  71  98 121 148 186 226 261
#     4   8  13  21  33  49  72 106 145 180 215 258
#     4   9  18  31  47  67  89 115 148 186 225 264
#     4   9  16  24  35  54  80 109 141 178 221 266
#     4   9  17  29  44  61  83 113 147 181 219 265
#     4   9  17  30  48  68  90 118 151 184 221 266
#
# _framework density 17.140931999999999
#
# number of rings (size 3 to 8) (size 9 to 14) (size 15 to 20)
#    0.000    3.182    0.000    1.364    0.000    4.000 
#    0.000    5.455    0.000    1.091    0.000    5.091 
#    0.000    0.727    0.000    2.364    0.000    4.727 
#
# Total GULP energy -545466.576486 kJ/mol
# GULP energy per Si atom -12396.967647 kJ/mol
# Density = 1.710192 g / cm^3
# Si number density = 17.140932 Si / 1000 Ang^3
#
#
#
# Elastic Constant Matrix: (Units=GPa)
#
#
# Indices 1 2 3 4 5 6 
#
# 1 74.2552 39.0704 64.2912 0.0000 0.0000 0.0000
# 2 39.0704 77.1603 64.7798 0.0000 0.0000 0.0000
# 3 64.2912 64.7798 141.7532 0.0000 0.0000 0.0000
# 4 0.0000 0.0000 0.0000 21.4036 0.0000 0.0000
# 5 0.0000 0.0000 0.0000 0.0000 5.5692 0.0000
# 6 0.0000 0.0000 0.0000 0.0000 0.0000 17.3991
#
#
#
# Elastic Compliance Matrix: (Units=1/GPa)
#
#
# Indices 1 2 3 4 5 6 
#
# 1 0.023190 -0.004725 -0.008358 0.000000 0.000000 0.000000
# 2 -0.004725 0.021990 -0.007906 0.000000 0.000000 0.000000
# 3 -0.008358 -0.007906 0.014458 0.000000 0.000000 0.000000
# 4 0.000000 0.000000 0.000000 0.046721 0.000000 0.000000
# 5 0.000000 0.000000 0.000000 0.000000 0.179558 0.000000
# 6 0.000000 0.000000 0.000000 0.000000 0.000000 0.057474
#
#
# Mechanical properties :
#
#
# Convention : Reuss Voigt Hill
#
# Bulk Modulus (GPa) = 56.62738 69.93903 63.28320
# Shear Modulus (GPa) = 12.77927 17.20953 14.99440
#
# Velocity S-wave (km/s) = 2.73342 3.17204 2.96086
# Velocity P-wave (km/s) = 6.56279 7.36931 6.97771
#
# Compressibility (1/GPa) = 0.01765930
#
# Stress axis : x y z
#
# Youngs Moduli (GPa) = 43.12198 45.47451 69.16350
#
# Poissons Ratio (x) = 0.21487 0.57809
# Poissons Ratio (y) = 0.20376 0.54683
# Poissons Ratio (z) = 0.36043 0.35954
#
# Static dielectric constant tensor:
#      x y z
#    x 2.865930 0.000000 0.000000 
#    y 0.000000 3.221570 0.000000 
#    z 0.000000 0.000000 3.445730 
# 
# 
# High freq. dielectric constant tensor:
#      x y z
#    x 1.611020 0.000000 0.000000 
#    y 0.000000 1.652110 0.000000 
#    z 0.000000 0.000000 1.676250 
# 
# From -- ./inp_files/76562.got.cif
#   From: 2010.03.12/outbox.cif.g09.slc.cpg/sg65_39_cif.got.tgz:76562.got - 2010.04.10 20:52:16.
