data_PCOD8274626
_publ_section_title
;
Structure prediction by ZEFSAII (Michael W. Deem and Ramdas Pophale) SiO2 
 PCOD8274626
Probable space group: C M M M
;
_chemical_formula_sum "Si O2"
_cell_formula_units_Z 56
_cell_length_a 15.480844
_cell_length_b 7.480332
_cell_length_c 23.286911
_cell_angle_alpha 90.000000
_cell_angle_beta 90.000000
_cell_angle_gamma 90.000000
_cell_volume 2696.667439
_symmetry_space_group_name_H-M "C M M M"
_symmetry_group_IT_number 65
_symmetry_cell_setting 'orthorhombic'
loop_
_space_group_symop_operation_xyz
x,y,z
-x,-y,z
x,-y,-z
-x,y,-z
-x,-y,-z
x,y,-z
-x,y,z
x,-y,z
1/2+x,1/2+y,z
1/2-x,1/2-y,z
1/2+x,1/2-y,-z
1/2-x,1/2+y,-z
1/2-x,1/2-y,-z
1/2+x,1/2+y,-z
1/2-x,1/2+y,z
1/2+x,1/2-y,z
loop_
_atom_site_type_symbol
_atom_site_label
_atom_site_fract_x
_atom_site_fract_y
_atom_site_fract_z
Si Si1 0.102012 0.500000 0.065923
Si Si2 0.155390 0.791272 0.436102
Si Si3 0.154841 0.791216 0.151870
Si Si4 0.500000 0.286130 0.639681
Si Si5 0.500000 0.710996 0.767870
O O1 0.141346 0.678723 0.093927
O O2 0.000000 0.500000 0.073449
O O3 0.130439 0.500000 0.000000
O O4 0.146604 0.705437 0.500000
O O5 0.250000 0.750000 0.410568
O O6 0.084072 0.709878 0.393371
O O7 0.139521 0.000000 0.440845
O O8 0.250000 0.750000 0.176859
O O9 0.085702 0.724221 0.198954
O O10 0.142547 0.000000 0.137261
O O11 0.500000 0.500000 0.641556
O O12 0.500000 0.206151 0.704006
O O13 0.500000 0.500000 0.763439
#
# Coordination Sequence:
#
# PCOD8274626 Si02
#       5
#     8  16  16   8   8
#     4  11  24  42  66  93 123 157 195 244 293 348
#     4   9  17  30  51  76 106 143 181 228 285 340
#     4  11  22  40  63  88 121 160 198 241 297 353
#     4   9  17  32  53  77 106 142 190 236 271 338
#     4   9  20  36  57  81 111 150 195 241 289 341
#
# _framework density 20.766370999999999
#
# number of rings (size 3 to 8) (size 9 to 14) (size 15 to 20)
#    0.000    2.143    2.857    0.429    0.000    4.000 
#    0.000    2.143    6.286    3.429    0.000    0.000 
#    0.000    0.000    0.000    0.000    0.000    0.000 
#
# Total GULP energy -347178.345685 kJ/mol
# GULP energy per Si atom -12399.226632 kJ/mol
# Density = 2.071911 g / cm^3
# Si number density = 20.766371 Si / 1000 Ang^3
#
#
#
# Elastic Constant Matrix: (Units=GPa)
#
#
# Indices 1 2 3 4 5 6 
#
# 1 202.6814 17.6568 106.7882 0.0000 0.0000 0.0000
# 2 17.6568 73.0976 32.1864 0.0000 0.0000 0.0000
# 3 106.7882 32.1864 167.5862 0.0000 0.0000 0.0000
# 4 0.0000 0.0000 0.0000 6.4993 0.0000 0.0000
# 5 0.0000 0.0000 0.0000 0.0000 19.5798 0.0000
# 6 0.0000 0.0000 0.0000 0.0000 0.0000 22.6327
#
#
#
# Elastic Compliance Matrix: (Units=1/GPa)
#
#
# Indices 1 2 3 4 5 6 
#
# 1 0.007434 0.000317 -0.004798 0.000000 0.000000 0.000000
# 2 0.000317 0.014958 -0.003075 0.000000 0.000000 0.000000
# 3 -0.004798 -0.003075 0.009615 0.000000 0.000000 0.000000
# 4 0.000000 0.000000 0.000000 0.153863 0.000000 0.000000
# 5 0.000000 0.000000 0.000000 0.000000 0.051073 0.000000
# 6 0.000000 0.000000 0.000000 0.000000 0.000000 0.044184
#
#
# Mechanical properties :
#
#
# Convention : Reuss Voigt Hill
#
# Bulk Modulus (GPa) = 59.18837 84.06978 71.62908
# Shear Modulus (GPa) = 16.56339 28.85793 22.71066
#
# Velocity S-wave (km/s) = 2.82726 3.73184 3.31059
# Velocity P-wave (km/s) = 6.26273 7.69028 7.01292
#
# Compressibility (1/GPa) = 0.01689521
#
# Stress axis : x y z
#
# Youngs Moduli (GPa) = 134.51291 66.85542 104.00423
#
# Poissons Ratio (x) = -0.02119 0.49902
# Poissons Ratio (y) = -0.04263 0.31978
# Poissons Ratio (z) = 0.64540 0.20556
#
# Static dielectric constant tensor:
#      x y z
#    x 4.006200 0.000000 0.000000 
#    y 0.000000 3.493320 0.000000 
#    z 0.000000 0.000000 3.898890 
# 
# 
# High freq. dielectric constant tensor:
#      x y z
#    x 1.827020 0.000000 0.000000 
#    y 0.000000 1.801330 0.000000 
#    z 0.000000 0.000000 1.797390 
# 
# From -- ./inp_files/69455.got.cif
#   From: 2010.03.12/outbox.cif.g09.slc.cpg/sg65_35_cif.got.tgz:69455.got - 2010.04.10 20:52:16.
