data_PCOD8274063
_publ_section_title
;
Structure prediction by ZEFSAII (Michael W. Deem and Ramdas Pophale) SiO2 
 PCOD8274063
Probable space group: C M M M
;
_chemical_formula_sum "Si O2"
_cell_formula_units_Z 48
_cell_length_a 8.560104
_cell_length_b 14.995816
_cell_length_c 19.043061
_cell_angle_alpha 90.000000
_cell_angle_beta 90.000000
_cell_angle_gamma 90.000000
_cell_volume 2444.476703
_symmetry_space_group_name_H-M "C M M M"
_symmetry_group_IT_number 65
_symmetry_cell_setting 'orthorhombic'
loop_
_space_group_symop_operation_xyz
x,y,z
-x,-y,z
x,-y,-z
-x,y,-z
-x,-y,-z
x,y,-z
-x,y,z
x,-y,z
1/2+x,1/2+y,z
1/2-x,1/2-y,z
1/2+x,1/2-y,-z
1/2-x,1/2+y,-z
1/2-x,1/2-y,-z
1/2+x,1/2+y,-z
1/2-x,1/2+y,z
1/2+x,1/2-y,z
loop_
_atom_site_type_symbol
_atom_site_label
_atom_site_fract_x
_atom_site_fract_y
_atom_site_fract_z
Si Si1 0.685824 0.900138 0.000000
Si Si2 0.313796 0.147898 0.500000
Si Si3 0.317174 0.500000 0.238021
Si Si4 0.815596 0.000000 0.599220
Si Si5 0.684509 0.841466 0.149784
O O1 0.750906 0.853786 0.929537
O O2 0.500000 0.900054 0.000000
O O3 0.750885 0.000000 0.000000
O O4 0.500000 0.152900 0.500000
O O5 0.250000 0.250000 0.500000
O O6 0.255979 0.091211 0.432630
O O7 0.500000 0.500000 0.225247
O O8 0.273124 0.500000 0.319380
O O9 0.243224 0.414680 0.202763
O O10 0.000000 0.000000 0.584903
O O11 0.500000 0.842933 0.148827
O O12 0.750000 0.750000 0.180299
#
# Coordination Sequence:
#
# PCOD8274063 Si02
#       5
#     8   8   8   8  16
#     4   9  17  34  58  83 110 148 196 247 302 353
#     4  11  22  39  66  96 124 155 194 235 282 342
#     4  11  24  41  60  86 120 157 198 241 292 350
#     4  10  22  41  63  89 123 157 194 242 288 340
#     4  11  22  38  60  84 116 154 197 248 300 355
#
# _framework density 19.636102999999999
#
# number of rings (size 3 to 8) (size 9 to 14) (size 15 to 20)
#    0.000    1.500    1.667    5.000    0.000    4.000 
#    0.000    3.333    0.000    0.000    0.000    0.000 
#    0.000    0.000    0.000    0.000    0.000    0.000 
#
# Total GULP energy -297571.314342 kJ/mol
# GULP energy per Si atom -12398.804764 kJ/mol
# Density = 1.959141 g / cm^3
# Si number density = 19.636103 Si / 1000 Ang^3
#
#
#
# Elastic Constant Matrix: (Units=GPa)
#
#
# Indices 1 2 3 4 5 6 
#
# 1 107.6353 61.7469 66.2822 0.0000 0.0000 0.0000
# 2 61.7469 200.9592 83.0937 0.0000 0.0000 0.0000
# 3 66.2822 83.0937 158.8322 0.0000 0.0000 0.0000
# 4 0.0000 0.0000 0.0000 45.4793 0.0000 0.0000
# 5 0.0000 0.0000 0.0000 0.0000 29.3750 0.0000
# 6 0.0000 0.0000 0.0000 0.0000 0.0000 33.3769
#
#
#
# Elastic Compliance Matrix: (Units=1/GPa)
#
#
# Indices 1 2 3 4 5 6 
#
# 1 0.013276 -0.002282 -0.004346 0.000000 0.000000 0.000000
# 2 -0.002282 0.006742 -0.002575 0.000000 0.000000 0.000000
# 3 -0.004346 -0.002575 0.009457 0.000000 0.000000 0.000000
# 4 0.000000 0.000000 0.000000 0.021988 0.000000 0.000000
# 5 0.000000 0.000000 0.000000 0.000000 0.034043 0.000000
# 6 0.000000 0.000000 0.000000 0.000000 0.000000 0.029961
#
#
# Mechanical properties :
#
#
# Convention : Reuss Voigt Hill
#
# Bulk Modulus (GPa) = 90.34674 98.85247 94.59960
# Shear Modulus (GPa) = 36.34710 38.73318 37.54014
#
# Velocity S-wave (km/s) = 4.30703 4.44616 4.37715
# Velocity P-wave (km/s) = 8.41691 8.76409 8.59226
#
# Compressibility (1/GPa) = 0.01106847
#
# Stress axis : x y z
#
# Youngs Moduli (GPa) = 75.32182 148.32504 105.74457
#
# Poissons Ratio (x) = 0.33849 0.45961
# Poissons Ratio (y) = 0.17189 0.27226
# Poissons Ratio (z) = 0.32738 0.38190
#
# Static dielectric constant tensor:
#      x y z
#    x 3.556860 0.000000 0.000000 
#    y 0.000000 3.760340 0.000000 
#    z 0.000000 0.000000 3.747540 
# 
# 
# High freq. dielectric constant tensor:
#      x y z
#    x 1.765510 0.000000 0.000000 
#    y 0.000000 1.780030 0.000000 
#    z 0.000000 0.000000 1.768280 
# 
# From -- ./inp_files/48492.got.cif
#   From: 2010.03.12/outbox.cif.g09.slc.cpg/sg65_25_cif.got.tgz:48492.got - 2010.04.10 20:52:16.
