data_PCOD8274705
_publ_section_title
;
Structure prediction by ZEFSAII (Michael W. Deem and Ramdas Pophale) SiO2 
 PCOD8274705
Probable space group: C M M M
;
_chemical_formula_sum "Si O2"
_cell_formula_units_Z 56
_cell_length_a 9.012943
_cell_length_b 17.807615
_cell_length_c 18.243033
_cell_angle_alpha 90.000000
_cell_angle_beta 90.000000
_cell_angle_gamma 90.000000
_cell_volume 2927.988899
_symmetry_space_group_name_H-M "C M M M"
_symmetry_group_IT_number 65
_symmetry_cell_setting 'orthorhombic'
loop_
_space_group_symop_operation_xyz
x,y,z
-x,-y,z
x,-y,-z
-x,y,-z
-x,-y,-z
x,y,-z
-x,y,z
x,-y,z
1/2+x,1/2+y,z
1/2-x,1/2-y,z
1/2+x,1/2-y,-z
1/2-x,1/2+y,-z
1/2-x,1/2-y,-z
1/2+x,1/2+y,-z
1/2-x,1/2+y,z
1/2+x,1/2-y,z
loop_
_atom_site_type_symbol
_atom_site_label
_atom_site_fract_x
_atom_site_fract_y
_atom_site_fract_z
Si Si1 0.669246 0.411261 0.500000
Si Si2 0.667838 0.589209 0.920193
Si Si3 0.323074 0.169621 0.368025
Si Si4 0.325609 0.084907 0.222517
O O1 0.668369 0.500000 0.500000
O O2 0.500000 0.380076 0.500000
O O3 0.757799 0.384778 0.570976
O O4 0.500000 0.616538 0.908970
O O5 0.677292 0.500000 0.919557
O O6 0.763314 0.621319 0.852697
O O7 0.726589 0.618063 0.000000
O O8 0.500000 0.174855 0.376291
O O9 0.250000 0.250000 0.378370
O O10 0.274104 0.136405 0.289714
O O11 0.500000 0.083546 0.215590
O O12 0.265174 0.000000 0.234777
#
# Coordination Sequence:
#
# PCOD8274705 Si02
#       4
#     8  16  16  16
#     4  11  24  41  62  87 111 137 174 217 262 315
#     4   8  14  25  43  70 103 136 170 212 263 314
#     4  11  23  39  58  80 110 145 180 219 265 317
#     4   9  18  32  51  76 104 136 175 218 265 315
#
# _framework density 19.125757
#
# number of rings (size 3 to 8) (size 9 to 14) (size 15 to 20)
#    0.000    2.429    0.000    3.429    0.000    5.143 
#    0.000    5.714    0.000    0.857    0.000    0.000 
#    0.000    0.000    0.000    0.000    0.000    0.000 
#
# Total GULP energy -347104.760823 kJ/mol
# GULP energy per Si atom -12396.598601 kJ/mol
# Density = 1.908223 g / cm^3
# Si number density = 19.125757 Si / 1000 Ang^3
#
#
#
# Elastic Constant Matrix: (Units=GPa)
#
#
# Indices 1 2 3 4 5 6 
#
# 1 64.5287 25.3905 56.0712 0.0000 0.0000 0.0000
# 2 25.3905 54.3658 34.1047 0.0000 0.0000 0.0000
# 3 56.0712 34.1047 171.6854 0.0000 0.0000 0.0000
# 4 0.0000 0.0000 0.0000 3.9467 0.0000 0.0000
# 5 0.0000 0.0000 0.0000 0.0000 39.7298 0.0000
# 6 0.0000 0.0000 0.0000 0.0000 0.0000 18.6253
#
#
#
# Elastic Compliance Matrix: (Units=1/GPa)
#
#
# Indices 1 2 3 4 5 6 
#
# 1 0.023839 -0.007139 -0.006367 0.000000 0.000000 0.000000
# 2 -0.007139 0.023150 -0.002267 0.000000 0.000000 0.000000
# 3 -0.006367 -0.002267 0.008355 0.000000 0.000000 0.000000
# 4 0.000000 0.000000 0.000000 0.253378 0.000000 0.000000
# 5 0.000000 0.000000 0.000000 0.000000 0.025170 0.000000
# 6 0.000000 0.000000 0.000000 0.000000 0.000000 0.053691
#
#
# Mechanical properties :
#
#
# Convention : Reuss Voigt Hill
#
# Bulk Modulus (GPa) = 42.02323 57.96809 49.99566
# Shear Modulus (GPa) = 11.70791 24.12793 17.91792
#
# Velocity S-wave (km/s) = 2.47686 3.55567 3.06412
# Velocity P-wave (km/s) = 5.49541 6.87254 6.22219
#
# Compressibility (1/GPa) = 0.02379636
#
# Stress axis : x y z
#
# Youngs Moduli (GPa) = 41.94819 43.19595 119.69555
#
# Poissons Ratio (x) = 0.30838 0.76216
# Poissons Ratio (y) = 0.29947 0.27137
# Poissons Ratio (z) = 0.26710 0.09793
#
# Static dielectric constant tensor:
#      x y z
#    x 3.573650 0.000000 0.000000 
#    y 0.000000 3.219260 0.000000 
#    z 0.000000 0.000000 4.077630 
# 
# 
# High freq. dielectric constant tensor:
#      x y z
#    x 1.741840 0.000000 0.000000 
#    y 0.000000 1.709160 0.000000 
#    z 0.000000 0.000000 1.767430 
# 
# From -- ./inp_files/48777.got.cif
#   From: 2010.03.12/outbox.cif.g09.slc.cpg/sg65_25_cif.got.tgz:48777.got - 2010.04.10 20:52:16.
