data_PCOD8274743
_publ_section_title
;
Structure prediction by ZEFSAII (Michael W. Deem and Ramdas Pophale) SiO2 
 PCOD8274743
Probable space group: C M M M
;
_chemical_formula_sum "Si O2"
_cell_formula_units_Z 56
_cell_length_a 20.761558
_cell_length_b 8.341581
_cell_length_c 14.763290
_cell_angle_alpha 90.000000
_cell_angle_beta 90.000000
_cell_angle_gamma 90.000000
_cell_volume 2556.768830
_symmetry_space_group_name_H-M "C M M M"
_symmetry_group_IT_number 65
_symmetry_cell_setting 'orthorhombic'
loop_
_space_group_symop_operation_xyz
x,y,z
-x,-y,z
x,-y,-z
-x,y,-z
-x,-y,-z
x,y,-z
-x,y,z
x,-y,z
1/2+x,1/2+y,z
1/2-x,1/2-y,z
1/2+x,1/2-y,-z
1/2-x,1/2+y,-z
1/2-x,1/2-y,-z
1/2+x,1/2+y,-z
1/2-x,1/2+y,z
1/2+x,1/2-y,z
loop_
_atom_site_type_symbol
_atom_site_label
_atom_site_fract_x
_atom_site_fract_y
_atom_site_fract_z
Si Si1 0.126102 0.313417 0.682900
Si Si2 0.500000 0.310441 0.606330
Si Si3 0.319836 0.309306 0.500000
Si Si4 0.575098 0.811644 0.000000
Si Si5 0.820720 0.185800 0.137835
O O1 0.130180 0.500000 0.707342
O O2 0.151708 0.275346 0.585363
O O3 0.168087 0.217457 0.756254
O O4 0.054305 0.252190 0.673657
O O5 0.500000 0.500000 0.599383
O O6 0.500000 0.245668 0.500000
O O7 0.331634 0.500000 0.500000
O O8 0.250000 0.250000 0.500000
O O9 0.617554 0.761181 0.086879
O O10 0.500000 0.742484 0.000000
O O11 0.568444 0.000000 0.000000
O O12 0.750000 0.250000 0.107674
O O13 0.820258 0.000000 0.115392
#
# Coordination Sequence:
#
# PCOD8274743 Si02
#       5
#    16   8   8   8  16
#     4  12  25  42  66  97 134 177 227 280 340 403
#     4  11  23  41  65  94 132 179 230 282 340 405
#     4  12  24  41  62  91 130 174 224 278 336 400
#     4  11  26  49  76 107 143 179 226 281 343 412
#     4  12  26  47  74 104 141 182 231 283 345 412
#
# _framework density 21.902643999999999
#
# number of rings (size 3 to 8) (size 9 to 14) (size 15 to 20)
#    0.000    0.286    1.429    8.571    2.000    1.714 
#    0.000    0.000    0.000    0.000    0.000    0.000 
#    0.000    0.000    0.000    0.000    0.000    0.000 
#
# Total GULP energy -346885.585314 kJ/mol
# GULP energy per Si atom -12388.770904 kJ/mol
# Density = 2.185279 g / cm^3
# Si number density = 21.902644 Si / 1000 Ang^3
#
#
#
# Elastic Constant Matrix: (Units=GPa)
#
#
# Indices 1 2 3 4 5 6 
#
# 1 189.1863 39.9892 43.5890 0.0000 0.0000 0.0000
# 2 39.9892 112.3791 12.8362 0.0000 0.0000 0.0000
# 3 43.5890 12.8362 106.7055 0.0000 0.0000 0.0000
# 4 0.0000 0.0000 0.0000 45.3750 0.0000 0.0000
# 5 0.0000 0.0000 0.0000 0.0000 44.5799 0.0000
# 6 0.0000 0.0000 0.0000 0.0000 0.0000 39.8839
#
#
#
# Elastic Compliance Matrix: (Units=1/GPa)
#
#
# Indices 1 2 3 4 5 6 
#
# 1 0.006231 -0.001953 -0.002310 0.000000 0.000000 0.000000
# 2 -0.001953 0.009635 -0.000361 0.000000 0.000000 0.000000
# 3 -0.002310 -0.000361 0.010359 0.000000 0.000000 0.000000
# 4 0.000000 0.000000 0.000000 0.022039 0.000000 0.000000
# 5 0.000000 0.000000 0.000000 0.000000 0.022432 0.000000
# 6 0.000000 0.000000 0.000000 0.000000 0.000000 0.025073
#
#
# Mechanical properties :
#
#
# Convention : Reuss Voigt Hill
#
# Bulk Modulus (GPa) = 58.91027 66.78887 62.84957
# Shear Modulus (GPa) = 45.17711 46.75818 45.96764
#
# Velocity S-wave (km/s) = 4.54655 4.62542 4.58616
# Velocity P-wave (km/s) = 7.38351 7.68673 7.53665
#
# Compressibility (1/GPa) = 0.01697497
#
# Stress axis : x y z
#
# Youngs Moduli (GPa) = 160.48782 103.79064 96.53619
#
# Poissons Ratio (x) = 0.20274 0.22303
# Poissons Ratio (y) = 0.31349 0.03486
# Poissons Ratio (z) = 0.37079 0.03748
#
# Static dielectric constant tensor:
#      x y z
#    x 5.693150 0.000000 0.000000 
#    y 0.000000 4.090280 0.000000 
#    z 0.000000 0.000000 4.073490 
# 
# 
# High freq. dielectric constant tensor:
#      x y z
#    x 1.889840 0.000000 0.000000 
#    y 0.000000 1.868700 0.000000 
#    z 0.000000 0.000000 1.871150 
# 
# From -- ./inp_files/43584.got.cif
#   From: 2010.03.12/outbox.cif.g09.slc.cpg/sg65_22_cif.got.tgz:43584.got - 2010.04.10 20:52:16.
