data_PCOD8274085
_publ_section_title
;
Structure prediction by ZEFSAII (Michael W. Deem and Ramdas Pophale) SiO2 
 PCOD8274085
Probable space group: C M M M
;
_chemical_formula_sum "Si O2"
_cell_formula_units_Z 56
_cell_length_a 29.284358
_cell_length_b 8.910710
_cell_length_c 10.337406
_cell_angle_alpha 90.000000
_cell_angle_beta 90.000000
_cell_angle_gamma 90.000000
_cell_volume 2697.488430
_symmetry_space_group_name_H-M "C M M M"
_symmetry_group_IT_number 65
_symmetry_cell_setting 'orthorhombic'
loop_
_space_group_symop_operation_xyz
x,y,z
-x,-y,z
x,-y,-z
-x,y,-z
-x,-y,-z
x,y,-z
-x,y,z
x,-y,z
1/2+x,1/2+y,z
1/2-x,1/2-y,z
1/2+x,1/2-y,-z
1/2-x,1/2+y,-z
1/2-x,1/2-y,-z
1/2+x,1/2+y,-z
1/2-x,1/2+y,z
1/2+x,1/2-y,z
loop_
_atom_site_type_symbol
_atom_site_label
_atom_site_fract_x
_atom_site_fract_y
_atom_site_fract_z
Si Si1 0.138644 0.327245 0.143219
Si Si2 0.051814 0.820405 0.220769
Si Si3 0.201797 0.175920 0.353095
Si Si4 0.446635 0.661250 0.500000
O O1 0.137540 0.500000 0.185619
O O2 0.087246 0.262510 0.128114
O O3 0.165366 0.234006 0.250515
O O4 0.160976 0.310032 0.000000
O O5 0.064869 0.756375 0.365226
O O6 0.000000 0.776721 0.181729
O O7 0.057495 0.000000 0.214816
O O8 0.186014 0.215404 0.500000
O O9 0.250000 0.250000 0.321295
O O10 0.207610 0.000000 0.334716
O O11 0.420819 0.500000 0.500000
O O12 0.500000 0.627705 0.500000
#
# Coordination Sequence:
#
# PCOD8274085 Si02
#       4
#    16  16  16   8
#     4  11  25  41  57  84 124 167 206 245 294 352
#     4   9  18  34  57  84 116 156 203 253 302 354
#     4  10  22  42  69  97 122 151 191 242 300 360
#     4   7  12  26  49  77 106 137 180 237 295 345
#
# _framework density 20.760052999999999
#
# number of rings (size 3 to 8) (size 9 to 14) (size 15 to 20)
#    0.000    2.429    0.000    3.429    2.000    5.714 
#    0.000    2.857    0.000    2.571    0.000    0.000 
#    0.000    0.000    0.000    0.000    0.000    0.000 
#
# Total GULP energy -346942.620766 kJ/mol
# GULP energy per Si atom -12390.807885 kJ/mol
# Density = 2.071280 g / cm^3
# Si number density = 20.760053 Si / 1000 Ang^3
#
#
#
# Elastic Constant Matrix: (Units=GPa)
#
#
# Indices 1 2 3 4 5 6 
#
# 1 102.6646 50.2014 52.8519 0.0000 0.0000 0.0000
# 2 50.2014 87.9279 43.1929 0.0000 0.0000 0.0000
# 3 52.8519 43.1929 103.1032 0.0000 0.0000 0.0000
# 4 0.0000 0.0000 0.0000 41.6817 0.0000 0.0000
# 5 0.0000 0.0000 0.0000 0.0000 20.2822 0.0000
# 6 0.0000 0.0000 0.0000 0.0000 0.0000 33.0519
#
#
#
# Elastic Compliance Matrix: (Units=1/GPa)
#
#
# Indices 1 2 3 4 5 6 
#
# 1 0.015553 -0.006249 -0.005354 0.000000 0.000000 0.000000
# 2 -0.006249 0.016831 -0.003847 0.000000 0.000000 0.000000
# 3 -0.005354 -0.003847 0.014056 0.000000 0.000000 0.000000
# 4 0.000000 0.000000 0.000000 0.023991 0.000000 0.000000
# 5 0.000000 0.000000 0.000000 0.000000 0.049304 0.000000
# 6 0.000000 0.000000 0.000000 0.000000 0.000000 0.030255
#
#
# Mechanical properties :
#
#
# Convention : Reuss Voigt Hill
#
# Bulk Modulus (GPa) = 64.36387 65.13202 64.74794
# Shear Modulus (GPa) = 26.87131 28.83314 27.85223
#
# Velocity S-wave (km/s) = 3.60165 3.73081 3.66680
# Velocity P-wave (km/s) = 6.95463 7.07110 7.01310
#
# Compressibility (1/GPa) = 0.01553667
#
# Stress axis : x y z
#
# Youngs Moduli (GPa) = 64.29697 59.41420 71.14595
#
# Poissons Ratio (x) = 0.37130 0.38095
# Poissons Ratio (y) = 0.40182 0.27373
# Poissons Ratio (z) = 0.34428 0.22859
#
# Static dielectric constant tensor:
#      x y z
#    x 3.690470 0.000000 0.000000 
#    y 0.000000 3.513700 0.000000 
#    z 0.000000 0.000000 4.090810 
# 
# 
# High freq. dielectric constant tensor:
#      x y z
#    x 1.804520 0.000000 0.000000 
#    y 0.000000 1.790070 0.000000 
#    z 0.000000 0.000000 1.824390 
# 
# From -- ./inp_files/31744.got.cif
#   From: 2010.03.12/outbox.cif.g09.slc.cpg/sg65_16_cif.got.tgz:31744.got - 2010.04.10 20:52:16.
