data_PCOD8274747
_publ_section_title
;
Structure prediction by ZEFSAII (Michael W. Deem and Ramdas Pophale) SiO2 
 PCOD8274747
Probable space group: C M M M
;
_chemical_formula_sum "Si O2"
_cell_formula_units_Z 72
_cell_length_a 9.088472
_cell_length_b 15.792386
_cell_length_c 24.844579
_cell_angle_alpha 90.000000
_cell_angle_beta 90.000000
_cell_angle_gamma 90.000000
_cell_volume 3565.909082
_symmetry_space_group_name_H-M "C M M M"
_symmetry_group_IT_number 65
_symmetry_cell_setting 'orthorhombic'
loop_
_space_group_symop_operation_xyz
x,y,z
-x,-y,z
x,-y,-z
-x,y,-z
-x,-y,-z
x,y,-z
-x,y,z
x,-y,z
1/2+x,1/2+y,z
1/2-x,1/2-y,z
1/2+x,1/2-y,-z
1/2-x,1/2+y,-z
1/2-x,1/2-y,-z
1/2+x,1/2+y,-z
1/2-x,1/2+y,z
1/2+x,1/2-y,z
loop_
_atom_site_type_symbol
_atom_site_label
_atom_site_fract_x
_atom_site_fract_y
_atom_site_fract_z
Si Si1 0.325317 0.337446 0.386501
Si Si2 0.326687 0.161000 0.057924
Si Si3 0.331138 0.000000 0.563676
Si Si4 0.837816 0.401765 0.830269
Si Si5 0.829768 0.096101 0.271406
O O1 0.500000 0.335477 0.398502
O O2 0.250000 0.250000 0.406172
O O3 0.253547 0.416160 0.417228
O O4 0.292548 0.347440 0.323120
O O5 0.500000 0.173445 0.062611
O O6 0.250000 0.250000 0.058865
O O7 0.267278 0.110759 0.110212
O O8 0.290139 0.115759 0.000000
O O9 0.500000 0.000000 0.585230
O O10 0.330010 0.000000 0.500000
O O11 0.845427 0.500000 0.818975
O O12 0.745213 0.361641 0.781320
O O13 0.000000 0.360769 0.828218
O O14 0.000000 0.095352 0.258336
O O15 0.775155 0.000000 0.282952
#
# Coordination Sequence:
#
# PCOD8274747 Si02
#       5
#    16  16   8  16  16
#     4  11  23  41  65  95 128 166 211 255 304 362
#     4   9  18  32  48  66  93 130 172 220 274 333
#     4  11  25  45  69  97 129 167 208 253 306 357
#     4   9  18  31  49  75 102 133 177 225 278 337
#     4   9  18  35  56  79 112 151 189 233 291 350
#
# _framework density 20.191206000000001
#
# number of rings (size 3 to 8) (size 9 to 14) (size 15 to 20)
#    0.000    2.333    1.111    1.000    0.000    5.333 
#    0.000    6.667    0.000    0.000    0.000    6.222 
#    0.000    0.000    0.000    0.000    0.000    0.000 
#
# Total GULP energy -446069.588968 kJ/mol
# GULP energy per Si atom -12390.821916 kJ/mol
# Density = 2.014525 g / cm^3
# Si number density = 20.191206 Si / 1000 Ang^3
#
#
#
# Elastic Constant Matrix: (Units=GPa)
#
#
# Indices 1 2 3 4 5 6 
#
# 1 79.9385 47.3386 54.1402 0.0000 0.0000 0.0000
# 2 47.3386 93.9726 37.8058 0.0000 0.0000 0.0000
# 3 54.1402 37.8058 114.4860 0.0000 0.0000 0.0000
# 4 0.0000 0.0000 0.0000 28.3068 0.0000 0.0000
# 5 0.0000 0.0000 0.0000 0.0000 29.8945 0.0000
# 6 0.0000 0.0000 0.0000 0.0000 0.0000 28.0159
#
#
#
# Elastic Compliance Matrix: (Units=1/GPa)
#
#
# Indices 1 2 3 4 5 6 
#
# 1 0.022891 -0.008276 -0.008092 0.000000 0.000000 0.000000
# 2 -0.008276 0.015264 -0.001127 0.000000 0.000000 0.000000
# 3 -0.008092 -0.001127 0.012934 0.000000 0.000000 0.000000
# 4 0.000000 0.000000 0.000000 0.035327 0.000000 0.000000
# 5 0.000000 0.000000 0.000000 0.000000 0.033451 0.000000
# 6 0.000000 0.000000 0.000000 0.000000 0.000000 0.035694
#
#
# Mechanical properties :
#
#
# Convention : Reuss Voigt Hill
#
# Bulk Modulus (GPa) = 62.11720 62.99625 62.55673
# Shear Modulus (GPa) = 25.52104 27.18426 26.35265
#
# Velocity S-wave (km/s) = 3.55909 3.67323 3.61661
# Velocity P-wave (km/s) = 6.90802 7.01839 6.96342
#
# Compressibility (1/GPa) = 0.01609860
#
# Stress axis : x y z
#
# Youngs Moduli (GPa) = 43.68488 65.51515 77.31773
#
# Poissons Ratio (x) = 0.54219 0.62568
# Poissons Ratio (y) = 0.36153 0.08712
# Poissons Ratio (z) = 0.35351 0.07382
#
# Static dielectric constant tensor:
#      x y z
#    x 3.785110 0.000000 0.000000 
#    y 0.000000 3.430310 0.000000 
#    z 0.000000 0.000000 4.101410 
# 
# 
# High freq. dielectric constant tensor:
#      x y z
#    x 1.781920 0.000000 0.000000 
#    y 0.000000 1.766850 0.000000 
#    z 0.000000 0.000000 1.806230 
# 
# From -- ./inp_files/72490.got.cif
#   From: 2010.03.12/outbox.cif.g09.slc.cpg/sg65_37_cif.got.tgz:72490.got - 2010.04.10 20:52:16.
