data_PCOD8274728
_publ_section_title
;
Structure prediction by ZEFSAII (Michael W. Deem and Ramdas Pophale) SiO2 
 PCOD8274728
Probable space group: C M M M
;
_chemical_formula_sum "Si O2"
_cell_formula_units_Z 72
_cell_length_a 9.031889
_cell_length_b 15.486822
_cell_length_c 26.256170
_cell_angle_alpha 90.000000
_cell_angle_beta 90.000000
_cell_angle_gamma 90.000000
_cell_volume 3672.588534
_symmetry_space_group_name_H-M "C M M M"
_symmetry_group_IT_number 65
_symmetry_cell_setting 'orthorhombic'
loop_
_space_group_symop_operation_xyz
x,y,z
-x,-y,z
x,-y,-z
-x,y,-z
-x,-y,-z
x,y,-z
-x,y,z
x,-y,z
1/2+x,1/2+y,z
1/2-x,1/2-y,z
1/2+x,1/2-y,-z
1/2-x,1/2+y,-z
1/2-x,1/2-y,-z
1/2+x,1/2+y,-z
1/2-x,1/2+y,z
1/2+x,1/2-y,z
loop_
_atom_site_type_symbol
_atom_site_label
_atom_site_fract_x
_atom_site_fract_y
_atom_site_fract_z
Si Si1 0.329082 0.598273 0.901152
Si Si2 0.676124 0.000000 0.737640
Si Si3 0.832699 0.397233 0.000000
Si Si4 0.673848 0.837295 0.441454
Si Si5 0.174786 0.161869 0.790933
Si Si6 0.325362 0.000000 0.379991
O O1 0.500000 0.600494 0.915759
O O2 0.277450 0.500000 0.890490
O O3 0.242182 0.639785 0.948822
O O4 0.294470 0.653347 0.851070
O O5 0.747436 0.084268 0.761901
O O6 0.500000 0.000000 0.746413
O O7 0.719992 0.000000 0.678619
O O8 0.815517 0.500000 0.000000
O O9 0.000000 0.365462 0.000000
O O10 0.713984 0.857006 0.500000
O O11 0.500000 0.826064 0.433736
O O12 0.750000 0.750000 0.422196
O O13 0.739204 0.914927 0.407404
O O14 0.250000 0.250000 0.771648
O O15 0.000000 0.161626 0.779003
O O16 0.500000 0.000000 0.387668
#
# Coordination Sequence:
#
# PCOD8274728 Si02
#       6
#    16   8   8  16  16   8
#     4   9  17  33  55  77 107 145 182 224 277 338
#     4  11  23  40  61  85 115 152 192 243 295 344
#     4   9  17  27  46  81 114 140 176 222 272 332
#     4   9  17  32  55  82 114 151 189 230 275 328
#     4  11  23  41  62  86 113 148 194 241 291 347
#     4   9  19  35  56  82 111 147 192 231 278 338
#
# _framework density 19.604702
#
# number of rings (size 3 to 8) (size 9 to 14) (size 15 to 20)
#    0.000    2.333    1.111    1.667    0.000    5.333 
#    0.000    5.556    0.000    2.667    0.000    0.000 
#    0.000    0.000    0.000    0.000    0.000    0.000 
#
# Total GULP energy -446447.383928 kJ/mol
# GULP energy per Si atom -12401.316220 kJ/mol
# Density = 1.956008 g / cm^3
# Si number density = 19.604702 Si / 1000 Ang^3
#
#
#
# Elastic Constant Matrix: (Units=GPa)
#
#
# Indices 1 2 3 4 5 6 
#
# 1 86.9370 61.3988 63.0978 0.0000 0.0000 0.0000
# 2 61.3988 151.5142 76.0314 0.0000 0.0000 0.0000
# 3 63.0978 76.0314 121.4000 0.0000 0.0000 0.0000
# 4 0.0000 0.0000 0.0000 -464.4022 0.0000 0.0000
# 5 0.0000 0.0000 0.0000 0.0000 24.5406 0.0000
# 6 0.0000 0.0000 0.0000 0.0000 0.0000 30.8540
#
#
#
# Elastic Compliance Matrix: (Units=1/GPa)
#
#
# Indices 1 2 3 4 5 6 
#
# 1 0.020188 -0.004252 -0.007830 0.000000 0.000000 0.000000
# 2 -0.004252 0.010520 -0.004379 0.000000 0.000000 0.000000
# 3 -0.007830 -0.004379 0.015049 0.000000 0.000000 0.000000
# 4 0.000000 0.000000 0.000000 -0.002153 0.000000 0.000000
# 5 0.000000 0.000000 0.000000 0.000000 0.040749 0.000000
# 6 0.000000 0.000000 0.000000 0.000000 0.000000 0.032411
#
#
# Mechanical properties :
#
#
# Convention : Reuss Voigt Hill
#
# Bulk Modulus (GPa) = 77.90250 84.54523 81.22387
# Shear Modulus (GPa) = 32.47493 -71.17998 -19.35252
#
# Velocity S-wave (km/s) = 4.07441 -6.03212 -3.14528
# Velocity P-wave (km/s) = 7.87130 2.30144 5.32263
#
# Compressibility (1/GPa) = 0.01283656
#
# Stress axis : x y z
#
# Youngs Moduli (GPa) = 49.53342 95.05334 66.44784
#
# Poissons Ratio (x) = 0.40415 0.52029
# Poissons Ratio (y) = 0.21061 0.29097
# Poissons Ratio (z) = 0.38785 0.41623
#
# Static dielectric constant tensor:
#      x y z
#    x 3.444900 0.000000 0.000000 
#    y 0.000000 3.684740 0.000000 
#    z 0.000000 0.000000 3.633740 
# 
# 
# High freq. dielectric constant tensor:
#      x y z
#    x 1.752690 0.000000 0.000000 
#    y 0.000000 1.762480 0.000000 
#    z 0.000000 0.000000 1.763420 
# 
# From -- ./inp_files/72637.got.cif
#   From: 2010.03.12/outbox.cif.g09.slc.cpg/sg65_37_cif.got.tgz:72637.got - 2010.04.10 20:52:16.
