data_PCOD8274276
_publ_section_title
;
Structure prediction by ZEFSAII (Michael W. Deem and Ramdas Pophale) SiO2 
 PCOD8274276
Probable space group: C M M M
;
_chemical_formula_sum "Si O2"
_cell_formula_units_Z 104
_cell_length_a 8.825447
_cell_length_b 27.598928
_cell_length_c 26.685693
_cell_angle_alpha 90.000000
_cell_angle_beta 90.000000
_cell_angle_gamma 90.000000
_cell_volume 6499.911001
_symmetry_space_group_name_H-M "C M M M"
_symmetry_group_IT_number 65
_symmetry_cell_setting 'orthorhombic'
loop_
_space_group_symop_operation_xyz
x,y,z
-x,-y,z
x,-y,-z
-x,y,-z
-x,-y,-z
x,y,-z
-x,y,z
x,-y,z
1/2+x,1/2+y,z
1/2-x,1/2-y,z
1/2+x,1/2-y,-z
1/2-x,1/2+y,-z
1/2-x,1/2-y,-z
1/2+x,1/2+y,-z
1/2-x,1/2+y,z
1/2+x,1/2-y,z
loop_
_atom_site_type_symbol
_atom_site_label
_atom_site_fract_x
_atom_site_fract_y
_atom_site_fract_z
Si Si1 0.670682 0.557557 0.000000
Si Si2 0.821757 0.552762 0.704732
Si Si3 0.822046 0.300724 0.555485
Si Si4 0.179007 0.555081 0.100929
Si Si5 0.820089 0.198514 0.747005
Si Si6 0.321227 0.888780 0.801108
Si Si7 0.679405 0.147409 0.653760
O O1 0.752505 0.577089 0.950124
O O2 0.679916 0.500000 0.000000
O O3 0.500000 0.576908 0.000000
O O4 0.745541 0.500000 0.694954
O O5 0.776502 0.571279 0.759734
O O6 0.767177 0.592065 0.663564
O O7 0.000000 0.546869 0.701141
O O8 0.767094 0.317573 0.500000
O O9 0.750000 0.250000 0.570800
O O10 0.773219 0.340217 0.596815
O O11 0.000000 0.293072 0.555913
O O12 0.236071 0.500000 0.110712
O O13 0.232943 0.589756 0.145892
O O14 0.000000 0.555383 0.096053
O O15 0.750000 0.250000 0.761523
O O16 0.766965 0.160756 0.789603
O O17 0.762117 0.183216 0.692070
O O18 0.000000 0.201879 0.746324
O O19 0.500000 0.878015 0.799871
O O20 0.500000 0.153185 0.662986
#
# Coordination Sequence:
#
# PCOD8274276 Si02
#       7
#     8  16  16  16  16  16  16
#     4   9  17  27  39  59  90 125 156 187 223 259
#     4   8  13  23  41  63  85 111 143 174 206 249
#     4   9  17  28  42  61  84 109 138 175 219 263
#     4   9  16  27  45  67  91 120 153 186 218 257
#     4  11  21  32  46  64  88 115 143 176 215 260
#     4   9  17  29  45  66  89 114 146 181 217 256
#     4   9  17  29  45  64  86 113 144 177 213 255
#
# _framework density 16.000219999999999
#
# number of rings (size 3 to 8) (size 9 to 14) (size 15 to 20)
#    0.000    2.846    0.000    3.462    0.000    5.231 
#    0.000    0.000    0.000   11.538    0.000    3.769 
#    0.000    0.000    0.000    9.385    0.000   10.154 
#
# Total GULP energy -644561.368467 kJ/mol
# GULP energy per Si atom -12395.410932 kJ/mol
# Density = 1.596380 g / cm^3
# Si number density = 16.000220 Si / 1000 Ang^3
#
#
#
# Elastic Constant Matrix: (Units=GPa)
#
#
# Indices 1 2 3 4 5 6 
#
# 1 46.0234 32.5801 34.4854 0.0000 0.0000 0.0000
# 2 32.5801 117.7879 73.3280 0.0000 0.0000 0.0000
# 3 34.4854 73.3280 145.2233 0.0000 0.0000 0.0000
# 4 0.0000 0.0000 0.0000 25.1424 0.0000 0.0000
# 5 0.0000 0.0000 0.0000 0.0000 18.6972 0.0000
# 6 0.0000 0.0000 0.0000 0.0000 0.0000 18.0345
#
#
#
# Elastic Compliance Matrix: (Units=1/GPa)
#
#
# Indices 1 2 3 4 5 6 
#
# 1 0.028583 -0.005368 -0.004077 0.000000 0.000000 0.000000
# 2 -0.005368 0.013390 -0.005486 0.000000 0.000000 0.000000
# 3 -0.004077 -0.005486 0.010624 0.000000 0.000000 0.000000
# 4 0.000000 0.000000 0.000000 0.039773 0.000000 0.000000
# 5 0.000000 0.000000 0.000000 0.000000 0.053484 0.000000
# 6 0.000000 0.000000 0.000000 0.000000 0.000000 0.055449
#
#
# Mechanical properties :
#
#
# Convention : Reuss Voigt Hill
#
# Bulk Modulus (GPa) = 43.98556 65.53573 54.76065
# Shear Modulus (GPa) = 20.94287 23.61759 22.28023
#
# Velocity S-wave (km/s) = 3.62181 3.84615 3.73566
# Velocity P-wave (km/s) = 6.71121 7.79564 7.27366
#
# Compressibility (1/GPa) = 0.02273473
#
# Stress axis : x y z
#
# Youngs Moduli (GPa) = 34.98594 74.68181 94.12330
#
# Poissons Ratio (x) = 0.40089 0.38374
# Poissons Ratio (y) = 0.18780 0.51640
# Poissons Ratio (z) = 0.14264 0.40974
#
# Static dielectric constant tensor:
#      x y z
#    x 2.873000 0.000000 0.000000 
#    y 0.000000 2.315710 0.000000 
#    z 0.000000 0.000000 3.203100 
# 
# 
# High freq. dielectric constant tensor:
#      x y z
#    x 1.599090 0.000000 0.000000 
#    y 0.000000 1.596990 0.000000 
#    z 0.000000 0.000000 1.611270 
# 
# From -- ./inp_files/73789.got.cif
#   From: 2010.03.12/outbox.cif.g09.slc.cpg/sg65_37_cif.got.tgz:73789.got - 2010.04.10 20:52:16.
