data_PCOD8274439
_publ_section_title
;
Structure prediction by ZEFSAII (Michael W. Deem and Ramdas Pophale) SiO2 
 PCOD8274439
Probable space group: C M M M
;
_chemical_formula_sum "Si O2"
_cell_formula_units_Z 80
_cell_length_a 18.486777
_cell_length_b 9.374226
_cell_length_c 25.933899
_cell_angle_alpha 90.000000
_cell_angle_beta 90.000000
_cell_angle_gamma 90.000000
_cell_volume 4494.324614
_symmetry_space_group_name_H-M "C M M M"
_symmetry_group_IT_number 65
_symmetry_cell_setting 'orthorhombic'
loop_
_space_group_symop_operation_xyz
x,y,z
-x,-y,z
x,-y,-z
-x,y,-z
-x,-y,-z
x,y,-z
-x,y,z
x,-y,z
1/2+x,1/2+y,z
1/2-x,1/2-y,z
1/2+x,1/2-y,-z
1/2-x,1/2+y,-z
1/2-x,1/2-y,-z
1/2+x,1/2+y,-z
1/2-x,1/2+y,z
1/2+x,1/2-y,z
loop_
_atom_site_type_symbol
_atom_site_label
_atom_site_fract_x
_atom_site_fract_y
_atom_site_fract_z
Si Si1 0.674459 0.329085 0.152505
Si Si2 0.585904 0.842686 0.350935
Si Si3 0.419411 0.330912 0.057075
Si Si4 0.584946 0.165142 0.235554
Si Si5 0.914020 0.159584 0.443676
O O1 0.683695 0.500000 0.155323
O O2 0.750000 0.250000 0.155995
O O3 0.637117 0.276359 0.099449
O O4 0.625539 0.276139 0.199347
O O5 0.500000 0.845818 0.355514
O O6 0.606888 0.789229 0.293762
O O7 0.620590 0.746910 0.396228
O O8 0.617546 0.000000 0.359360
O O9 0.500000 0.271355 0.069373
O O10 0.422364 0.500000 0.058376
O O11 0.394907 0.278467 0.000000
O O12 0.500000 0.184128 0.226481
O O13 0.607013 0.000000 0.225030
O O14 0.891989 0.223482 0.500000
O O15 0.000000 0.159337 0.438893
O O16 0.883874 0.000000 0.439138
#
# Coordination Sequence:
#
# PCOD8274439 Si02
#       5
#    16  16  16  16  16
#     4  11  22  34  50  73 100 131 166 201 241 289
#     4   8  14  24  38  57  81 112 150 189 232 282
#     4   8  15  30  52  76 100 126 159 199 239 281
#     4   9  18  33  51  70  95 126 160 203 251 293
#     4   8  13  20  30  48  78 114 148 184 228 275
#
# _framework density 17.800227
#
# number of rings (size 3 to 8) (size 9 to 14) (size 15 to 20)
#    0.000    3.200    0.000    3.600    0.000    2.800 
#    0.000    4.000    0.000    1.800    0.000    7.000 
#    0.000    0.800    0.000    2.600    0.000    5.800 
#
# Total GULP energy -495625.338070 kJ/mol
# GULP energy per Si atom -12390.633452 kJ/mol
# Density = 1.775971 g / cm^3
# Si number density = 17.800227 Si / 1000 Ang^3
#
#
#
# Elastic Constant Matrix: (Units=GPa)
#
#
# Indices 1 2 3 4 5 6 
#
# 1 47.1346 32.7311 46.2848 0.0000 0.0000 0.0000
# 2 32.7311 73.5191 68.5402 0.0000 0.0000 0.0000
# 3 46.2848 68.5402 167.5099 0.0000 0.0000 0.0000
# 4 0.0000 0.0000 0.0000 24.6418 0.0000 0.0000
# 5 0.0000 0.0000 0.0000 0.0000 -0.5483 0.0000
# 6 0.0000 0.0000 0.0000 0.0000 0.0000 13.3682
#
#
#
# Elastic Compliance Matrix: (Units=1/GPa)
#
#
# Indices 1 2 3 4 5 6 
#
# 1 0.033154 -0.010056 -0.005046 0.000000 0.000000 0.000000
# 2 -0.010056 0.025040 -0.007467 0.000000 0.000000 0.000000
# 3 -0.005046 -0.007467 0.010420 0.000000 0.000000 0.000000
# 4 0.000000 0.000000 0.000000 0.040581 0.000000 0.000000
# 5 0.000000 0.000000 0.000000 0.000000 -1.823983 0.000000
# 6 0.000000 0.000000 0.000000 0.000000 0.000000 0.074804
#
#
# Mechanical properties :
#
#
# Convention : Reuss Voigt Hill
#
# Bulk Modulus (GPa) = 42.59810 64.80843 53.70327
# Shear Modulus (GPa) = -3.15056 16.86618 6.85781
#
# Velocity S-wave (km/s) = -1.33184 3.08153 1.96495
# Velocity P-wave (km/s) = 4.64953 7.01063 5.94840
#
# Compressibility (1/GPa) = 0.02347522
#
# Stress axis : x y z
#
# Youngs Moduli (GPa) = 30.16223 39.93547 95.97366
#
# Poissons Ratio (x) = 0.40158 0.48431
# Poissons Ratio (y) = 0.30331 0.71666
# Poissons Ratio (z) = 0.15221 0.29821
#
# Static dielectric constant tensor:
#      x y z
#    x 2.892420 0.000000 0.000000 
#    y 0.000000 3.275050 0.000000 
#    z 0.000000 0.000000 3.758680 
# 
# 
# High freq. dielectric constant tensor:
#      x y z
#    x 1.638070 0.000000 0.000000 
#    y 0.000000 1.668890 0.000000 
#    z 0.000000 0.000000 1.709830 
# 
# From -- ./inp_files/72749.got.cif
#   From: 2010.03.12/outbox.cif.g09.slc.cpg/sg65_37_cif.got.tgz:72749.got - 2010.04.10 20:52:16.
