data_PCOD8274607
_publ_section_title
;
Structure prediction by ZEFSAII (Michael W. Deem and Ramdas Pophale) SiO2 
 PCOD8274607
Probable space group: C M M M
;
_chemical_formula_sum "Si O2"
_cell_formula_units_Z 64
_cell_length_a 14.951657
_cell_length_b 9.051077
_cell_length_c 24.114424
_cell_angle_alpha 90.000000
_cell_angle_beta 90.000000
_cell_angle_gamma 90.000000
_cell_volume 3263.371210
_symmetry_space_group_name_H-M "C M M M"
_symmetry_group_IT_number 65
_symmetry_cell_setting 'orthorhombic'
loop_
_space_group_symop_operation_xyz
x,y,z
-x,-y,z
x,-y,-z
-x,y,-z
-x,-y,-z
x,y,-z
-x,y,z
x,-y,z
1/2+x,1/2+y,z
1/2-x,1/2-y,z
1/2+x,1/2-y,-z
1/2-x,1/2+y,-z
1/2-x,1/2-y,-z
1/2+x,1/2+y,-z
1/2-x,1/2+y,z
1/2+x,1/2-y,z
loop_
_atom_site_type_symbol
_atom_site_label
_atom_site_fract_x
_atom_site_fract_y
_atom_site_fract_z
Si Si1 0.500000 0.676357 0.791163
Si Si2 0.160838 0.325638 0.271458
Si Si3 0.606481 0.332889 0.500000
Si Si4 0.102155 0.670353 0.392934
Si Si5 0.500000 0.325562 0.082501
Si Si6 0.347903 0.675374 0.000000
O O1 0.500000 0.500000 0.785684
O O2 0.415443 0.744423 0.761621
O O3 0.500000 0.730585 0.854638
O O4 0.158294 0.500000 0.259256
O O5 0.250000 0.250000 0.248870
O O6 0.154526 0.292801 0.336915
O O7 0.638588 0.500000 0.500000
O O8 0.500000 0.313996 0.500000
O O9 0.645647 0.258844 0.444294
O O10 0.107988 0.500000 0.408838
O O11 0.000000 0.719111 0.382930
O O12 0.500000 0.500000 0.078705
O O13 0.592122 0.272127 0.052860
O O14 0.250000 0.750000 0.000000
O O15 0.332248 0.500000 0.000000
#
# Coordination Sequence:
#
# PCOD8274607 Si02
#       6
#     8  16   8  16   8   8
#     4  11  22  39  62  87 117 156 197 242 292 341
#     4  11  23  40  59  84 114 151 196 242 293 349
#     4   9  17  27  46  79 108 132 174 228 282 344
#     4   9  17  33  54  74 103 142 182 227 284 347
#     4   8  18  36  58  84 117 157 195 230 281 340
#     4   9  17  35  60  86 120 157 193 235 278 330
#
# _framework density 19.611621
#
# number of rings (size 3 to 8) (size 9 to 14) (size 15 to 20)
#    0.000    2.375    1.250    2.250    0.000    4.500 
#    0.000    6.875    0.000    0.000    0.000    0.000 
#    0.000    0.000    0.000    0.000    0.000    0.000 
#
# Total GULP energy -396708.084353 kJ/mol
# GULP energy per Si atom -12397.127636 kJ/mol
# Density = 1.956698 g / cm^3
# Si number density = 19.611621 Si / 1000 Ang^3
#
#
#
# Elastic Constant Matrix: (Units=GPa)
#
#
# Indices 1 2 3 4 5 6 
#
# 1 140.9621 57.8305 59.5004 0.0000 0.0000 0.0000
# 2 57.8305 97.2392 71.1532 0.0000 0.0000 0.0000
# 3 59.5004 71.1532 130.6532 0.0000 0.0000 0.0000
# 4 0.0000 0.0000 0.0000 24.5801 0.0000 0.0000
# 5 0.0000 0.0000 0.0000 0.0000 35.9916 0.0000
# 6 0.0000 0.0000 0.0000 0.0000 0.0000 31.6033
#
#
#
# Elastic Compliance Matrix: (Units=1/GPa)
#
#
# Indices 1 2 3 4 5 6 
#
# 1 0.009727 -0.004228 -0.002127 0.000000 0.000000 0.000000
# 2 -0.004228 0.018935 -0.008386 0.000000 0.000000 0.000000
# 3 -0.002127 -0.008386 0.013190 0.000000 0.000000 0.000000
# 4 0.000000 0.000000 0.000000 0.040683 0.000000 0.000000
# 5 0.000000 0.000000 0.000000 0.000000 0.027784 0.000000
# 6 0.000000 0.000000 0.000000 0.000000 0.000000 0.031642
#
#
# Mechanical properties :
#
#
# Convention : Reuss Voigt Hill
#
# Bulk Modulus (GPa) = 80.85218 82.86917 81.86068
# Shear Modulus (GPa) = 28.47910 30.45968 29.46939
#
# Velocity S-wave (km/s) = 3.81485 3.94527 3.88061
# Velocity P-wave (km/s) = 7.79232 7.94358 7.86831
#
# Compressibility (1/GPa) = 0.01236825
#
# Stress axis : x y z
#
# Youngs Moduli (GPa) = 102.81152 52.81144 75.81709
#
# Poissons Ratio (x) = 0.22331 0.16125
# Poissons Ratio (y) = 0.43472 0.63584
# Poissons Ratio (z) = 0.21866 0.44290
#
# Static dielectric constant tensor:
#      x y z
#    x 3.421840 0.000000 0.000000 
#    y 0.000000 3.444230 0.000000 
#    z 0.000000 0.000000 3.924240 
# 
# 
# High freq. dielectric constant tensor:
#      x y z
#    x 1.762760 0.000000 0.000000 
#    y 0.000000 1.753840 0.000000 
#    z 0.000000 0.000000 1.765530 
# 
# From -- ./inp_files/69599.got.cif
#   From: 2010.03.12/outbox.cif.g09.slc.cpg/sg65_35_cif.got.tgz:69599.got - 2010.04.10 20:52:16.
