data_PCOD8274450
_publ_section_title
;
Structure prediction by ZEFSAII (Michael W. Deem and Ramdas Pophale) SiO2 
 PCOD8274450
Probable space group: C M M M
;
_chemical_formula_sum "Si O2"
_cell_formula_units_Z 112
_cell_length_a 15.607158
_cell_length_b 15.046896
_cell_length_c 23.555278
_cell_angle_alpha 90.000000
_cell_angle_beta 90.000000
_cell_angle_gamma 90.000000
_cell_volume 5531.704603
_symmetry_space_group_name_H-M "C M M M"
_symmetry_group_IT_number 65
_symmetry_cell_setting 'orthorhombic'
loop_
_space_group_symop_operation_xyz
x,y,z
-x,-y,z
x,-y,-z
-x,y,-z
-x,-y,-z
x,y,-z
-x,y,z
x,-y,z
1/2+x,1/2+y,z
1/2-x,1/2-y,z
1/2+x,1/2-y,-z
1/2-x,1/2+y,-z
1/2-x,1/2-y,-z
1/2+x,1/2+y,-z
1/2-x,1/2+y,z
1/2+x,1/2-y,z
loop_
_atom_site_type_symbol
_atom_site_label
_atom_site_fract_x
_atom_site_fract_y
_atom_site_fract_z
Si Si1 0.827054 0.598622 0.062979
Si Si2 0.401656 0.896848 0.353990
Si Si3 0.099502 0.897121 0.356748
Si Si4 0.900757 0.245384 0.267588
Si Si5 0.375056 0.401145 0.937137
Si Si6 0.095302 0.257119 0.143188
Si Si7 0.252996 0.104268 0.562704
O O1 0.860304 0.500000 0.079778
O O2 0.726112 0.599926 0.062007
O O3 0.853722 0.670364 0.108394
O O4 0.862023 0.623492 0.000000
O O5 0.500000 0.882121 0.375058
O O6 0.383218 0.839800 0.297626
O O7 0.335314 0.861463 0.401632
O O8 0.385233 0.000000 0.338848
O O9 0.134155 0.837025 0.304843
O O10 0.161291 0.872340 0.409244
O O11 0.000000 0.875869 0.373003
O O12 0.110008 0.000000 0.339226
O O13 0.858798 0.245244 0.204736
O O14 0.000000 0.226634 0.259574
O O15 0.408319 0.500000 0.922275
O O16 0.410686 0.335656 0.889696
O O17 0.408352 0.373357 0.000000
O O18 0.000000 0.294697 0.152037
O O19 0.255328 0.148189 0.500000
O O20 0.262654 0.000000 0.556955
#
# Coordination Sequence:
#
# PCOD8274450 Si02
#       7
#    16  16  16  16  16  16  16
#     4   9  19  37  57  76 105 144 181 220 270 329
#     4   9  18  35  56  75 105 147 180 217 271 320
#     4   9  18  35  56  75 105 147 180 217 271 320
#     4   9  20  37  53  73 104 142 181 215 256 318
#     4   9  19  37  57  76 105 144 181 220 270 329
#     4  11  22  34  53  82 111 138 176 230 280 322
#     4   9  18  33  55  85 112 135 177 226 266 322
#
# _framework density 20.246922999999999
#
# number of rings (size 3 to 8) (size 9 to 14) (size 15 to 20)
#    0.000    2.714    0.000    1.714    0.000    5.143 
#    5.143    8.571    0.000    2.571    0.000    0.000 
#    0.000    0.000    0.000    0.000    0.000    0.000 
#
# Total GULP energy -694044.654855 kJ/mol
# GULP energy per Si atom -12393.654551 kJ/mol
# Density = 2.020084 g / cm^3
# Si number density = 20.246923 Si / 1000 Ang^3
#
#
#
# Elastic Constant Matrix: (Units=GPa)
#
#
# Indices 1 2 3 4 5 6 
#
# 1 78.2987 27.1455 48.9422 0.0000 0.0000 0.0000
# 2 27.1455 99.8563 69.4901 0.0000 0.0000 0.0000
# 3 48.9422 69.4901 175.0465 0.0000 0.0000 0.0000
# 4 0.0000 0.0000 0.0000 110.7228 0.0000 0.0000
# 5 0.0000 0.0000 0.0000 0.0000 23.1138 0.0000
# 6 0.0000 0.0000 0.0000 0.0000 0.0000 839.7547
#
#
#
# Elastic Compliance Matrix: (Units=1/GPa)
#
#
# Indices 1 2 3 4 5 6 
#
# 1 0.015676 -0.001674 -0.003719 0.000000 0.000000 0.000000
# 2 -0.001674 0.014016 -0.005096 0.000000 0.000000 0.000000
# 3 -0.003719 -0.005096 0.008775 0.000000 0.000000 0.000000
# 4 0.000000 0.000000 0.000000 0.009032 0.000000 0.000000
# 5 0.000000 0.000000 0.000000 0.000000 0.043264 0.000000
# 6 0.000000 0.000000 0.000000 0.000000 0.000000 0.001191
#
#
# Mechanical properties :
#
#
# Convention : Reuss Voigt Hill
#
# Bulk Modulus (GPa) = 57.17295 71.59524 64.38409
# Shear Modulus (GPa) = 42.10140 208.55982 125.33061
#
# Velocity S-wave (km/s) = 4.56499 10.16030 7.87626
# Velocity P-wave (km/s) = 7.48897 13.15599 10.70432
#
# Compressibility (1/GPa) = 0.01749079
#
# Stress axis : x y z
#
# Youngs Moduli (GPa) = 63.79076 71.34855 113.95410
#
# Poissons Ratio (x) = 0.11942 0.42374
# Poissons Ratio (y) = 0.10677 0.58071
# Poissons Ratio (z) = 0.23721 0.36359
#
# Static dielectric constant tensor:
#      x y z
#    x 3.624930 0.000000 0.000000 
#    y 0.000000 3.758760 0.000000 
#    z 0.000000 0.000000 4.094030 
# 
# 
# High freq. dielectric constant tensor:
#      x y z
#    x 1.786810 0.000000 0.000000 
#    y 0.000000 1.791060 0.000000 
#    z 0.000000 0.000000 1.781580 
# 
# From -- ./inp_files/69959.got.cif
#   From: 2010.03.12/outbox.cif.g09.slc.cpg/sg65_35_cif.got.tgz:69959.got - 2010.04.10 20:52:16.
