data_PCOD8274499
_publ_section_title
;
Structure prediction by ZEFSAII (Michael W. Deem and Ramdas Pophale) SiO2 
 PCOD8274499
Probable space group: C M M M
;
_chemical_formula_sum "Si O2"
_cell_formula_units_Z 104
_cell_length_a 27.702700
_cell_length_b 8.054826
_cell_length_c 28.484193
_cell_angle_alpha 90.000000
_cell_angle_beta 90.000000
_cell_angle_gamma 90.000000
_cell_volume 6355.975024
_symmetry_space_group_name_H-M "C M M M"
_symmetry_group_IT_number 65
_symmetry_cell_setting 'orthorhombic'
loop_
_space_group_symop_operation_xyz
x,y,z
-x,-y,z
x,-y,-z
-x,y,-z
-x,-y,-z
x,y,-z
-x,y,z
x,-y,z
1/2+x,1/2+y,z
1/2-x,1/2-y,z
1/2+x,1/2-y,-z
1/2-x,1/2+y,-z
1/2-x,1/2-y,-z
1/2+x,1/2+y,-z
1/2-x,1/2+y,z
1/2+x,1/2-y,z
loop_
_atom_site_type_symbol
_atom_site_label
_atom_site_fract_x
_atom_site_fract_y
_atom_site_fract_z
Si Si1 0.442492 0.186850 0.887824
Si Si2 0.557527 0.500000 0.946795
Si Si3 0.303435 0.308993 0.643923
Si Si4 0.446864 0.197335 0.602118
Si Si5 0.395026 0.193139 0.693326
Si Si6 0.446311 0.803561 0.783732
Si Si7 0.852746 0.303491 0.552304
O O1 0.500000 0.180988 0.888984
O O2 0.422654 0.330348 0.922591
O O3 0.425689 0.239931 0.835388
O O4 0.423296 0.000000 0.901241
O O5 0.500000 0.500000 0.944500
O O6 0.576457 0.500000 0.000000
O O7 0.307950 0.500000 0.654520
O O8 0.250000 0.250000 0.655138
O O9 0.339137 0.220318 0.680613
O O10 0.315981 0.274364 0.589517
O O11 0.500000 0.270434 0.590304
O O12 0.428646 0.269147 0.652131
O O13 0.407973 0.252275 0.562875
O O14 0.449418 0.000000 0.604324
O O15 0.410631 0.271223 0.743597
O O16 0.405065 0.000000 0.695908
O O17 0.500000 0.727462 0.776677
O O18 0.449936 0.000000 0.779621
O O19 0.839149 0.241957 0.500000
O O20 0.848079 0.500000 0.556766
#
# Coordination Sequence:
#
# PCOD8274499 Si02
#       7
#    16   8  16  16  16  16  16
#     4   8  14  24  36  53  78 109 148 192 232 266
#     4   9  16  24  34  50  74 110 156 200 237 267
#     4  11  22  36  51  65  83 106 134 170 210 255
#     4   8  13  22  40  66  91 112 135 165 198 235
#     4   9  16  28  46  67  88 110 139 173 208 252
#     4   8  13  23  42  65  88 115 145 179 217 255
#     4   9  18  32  49  69  89 108 135 169 205 245
#
# _framework density 16.362556000000001
#
# number of rings (size 3 to 8) (size 9 to 14) (size 15 to 20)
#    0.000    3.154    0.000    3.692    0.000    3.077 
#    1.385    3.077    0.000   11.077    0.000    4.308 
#    0.000    0.000    0.000    0.000    0.000    0.769 
#
# Total GULP energy -644286.604029 kJ/mol
# GULP energy per Si atom -12390.127001 kJ/mol
# Density = 1.632531 g / cm^3
# Si number density = 16.362556 Si / 1000 Ang^3
#
#
#
# Elastic Constant Matrix: (Units=GPa)
#
#
# Indices 1 2 3 4 5 6 
#
# 1 65.4311 -1.0631 25.0299 0.0000 0.0000 0.0000
# 2 -1.0631 38.9944 29.6541 0.0000 0.0000 0.0000
# 3 25.0299 29.6541 113.9998 0.0000 0.0000 0.0000
# 4 0.0000 0.0000 0.0000 17.4215 0.0000 0.0000
# 5 0.0000 0.0000 0.0000 0.0000 12.1806 0.0000
# 6 0.0000 0.0000 0.0000 0.0000 0.0000 11.6699
#
#
#
# Elastic Compliance Matrix: (Units=1/GPa)
#
#
# Indices 1 2 3 4 5 6 
#
# 1 0.017211 0.004167 -0.004863 0.000000 0.000000 0.000000
# 2 0.004167 0.032978 -0.009493 0.000000 0.000000 0.000000
# 3 -0.004863 -0.009493 0.012309 0.000000 0.000000 0.000000
# 4 0.000000 0.000000 0.000000 0.057400 0.000000 0.000000
# 5 0.000000 0.000000 0.000000 0.000000 0.082097 0.000000
# 6 0.000000 0.000000 0.000000 0.000000 0.000000 0.085691
#
#
# Mechanical properties :
#
#
# Convention : Reuss Voigt Hill
#
# Bulk Modulus (GPa) = 23.74156 36.18524 29.96340
# Shear Modulus (GPa) = 15.52292 19.24136 17.38214
#
# Velocity S-wave (km/s) = 3.08342 3.43292 3.26285
# Velocity P-wave (km/s) = 5.21707 6.15434 5.70498
#
# Compressibility (1/GPa) = 0.04212023
#
# Stress axis : x y z
#
# Youngs Moduli (GPa) = 58.10163 30.32356 81.24087
#
# Poissons Ratio (x) = -0.12637 0.39507
# Poissons Ratio (y) = -0.24213 0.77124
# Poissons Ratio (z) = 0.28254 0.28787
#
# Static dielectric constant tensor:
#      x y z
#    x 2.827260 0.000000 0.000000 
#    y 0.000000 2.975730 0.000000 
#    z 0.000000 0.000000 3.290890 
# 
# 
# High freq. dielectric constant tensor:
#      x y z
#    x 1.583430 0.000000 0.000000 
#    y 0.000000 1.615330 0.000000 
#    z 0.000000 0.000000 1.619640 
# 
# From -- ./inp_files/74043.got.cif
#   From: 2010.03.12/outbox.cif.g09.slc.cpg/sg65_38_cif.got.tgz:74043.got - 2010.04.10 20:52:16.
