data_PCOD8274359
_publ_section_title
;
Structure prediction by ZEFSAII (Michael W. Deem and Ramdas Pophale) SiO2 
 PCOD8274359
Probable space group: C M M M
;
_chemical_formula_sum "Si O2"
_cell_formula_units_Z 64
_cell_length_a 11.130939
_cell_length_b 35.045124
_cell_length_c 9.096201
_cell_angle_alpha 90.000000
_cell_angle_beta 90.000000
_cell_angle_gamma 90.000000
_cell_volume 3548.292818
_symmetry_space_group_name_H-M "C M M M"
_symmetry_group_IT_number 65
_symmetry_cell_setting 'orthorhombic'
loop_
_space_group_symop_operation_xyz
x,y,z
-x,-y,z
x,-y,-z
-x,y,-z
-x,-y,-z
x,y,-z
-x,y,z
x,-y,z
1/2+x,1/2+y,z
1/2-x,1/2-y,z
1/2+x,1/2-y,-z
1/2-x,1/2+y,-z
1/2-x,1/2-y,-z
1/2+x,1/2+y,-z
1/2-x,1/2+y,z
1/2+x,1/2-y,z
loop_
_atom_site_type_symbol
_atom_site_label
_atom_site_fract_x
_atom_site_fract_y
_atom_site_fract_z
Si Si1 0.861542 0.139810 0.165971
Si Si2 0.865201 0.773415 0.825385
Si Si3 0.860308 0.000000 0.162404
Si Si4 0.500000 0.957696 0.673108
Si Si5 0.747305 0.570837 0.326555
O O1 0.844539 0.182950 0.222593
O O2 0.789930 0.112668 0.275140
O O3 0.000000 0.127920 0.169916
O O4 0.811825 0.135346 0.000000
O O5 0.750000 0.750000 0.760518
O O6 0.000000 0.759947 0.769573
O O7 0.866068 0.770152 0.000000
O O8 0.828555 0.962174 0.251171
O O9 0.000000 0.000000 0.139575
O O10 0.798998 0.000000 0.000000
O O11 0.500000 0.962957 0.500000
O O12 0.384554 0.934182 0.723813
O O13 0.500000 0.000000 0.745401
O O14 0.728861 0.567280 0.500000
#
# Coordination Sequence:
#
# PCOD8274359 Si02
#       5
#    16  16   8   8  16
#     4   9  18  33  51  74 107 137 161 203 261 302
#     4   8  14  27  48  72 100 135 169 203 250 304
#     4  11  23  36  51  74 104 131 158 205 260 297
#     4   9  18  36  54  68  94 132 166 206 256 296
#     4  11  21  35  55  74  96 131 174 208 244 301
#
# _framework density 18.036843000000001
#
# number of rings (size 3 to 8) (size 9 to 14) (size 15 to 20)
#    0.000    2.500    1.250    3.375    0.000    4.500 
#    2.250    3.125    0.000    0.750    0.000    0.000 
#    0.000    0.000    0.000    0.000    0.000    0.000 
#
# Total GULP energy -396595.680605 kJ/mol
# GULP energy per Si atom -12393.615019 kJ/mol
# Density = 1.799579 g / cm^3
# Si number density = 18.036843 Si / 1000 Ang^3
#
#
#
# Elastic Constant Matrix: (Units=GPa)
#
#
# Indices 1 2 3 4 5 6 
#
# 1 128.2077 74.2793 35.6471 0.0000 0.0000 0.0000
# 2 74.2793 115.3915 35.5476 0.0000 0.0000 0.0000
# 3 35.6471 35.5476 65.1557 0.0000 0.0000 0.0000
# 4 0.0000 0.0000 0.0000 42.6292 0.0000 0.0000
# 5 0.0000 0.0000 0.0000 0.0000 13.4087 0.0000
# 6 0.0000 0.0000 0.0000 0.0000 0.0000 27.8092
#
#
#
# Elastic Compliance Matrix: (Units=1/GPa)
#
#
# Indices 1 2 3 4 5 6 
#
# 1 0.012922 -0.007381 -0.003043 0.000000 0.000000 0.000000
# 2 -0.007381 0.014633 -0.003945 0.000000 0.000000 0.000000
# 3 -0.003043 -0.003945 0.019165 0.000000 0.000000 0.000000
# 4 0.000000 0.000000 0.000000 0.023458 0.000000 0.000000
# 5 0.000000 0.000000 0.000000 0.000000 0.074578 0.000000
# 6 0.000000 0.000000 0.000000 0.000000 0.000000 0.035959
#
#
# Mechanical properties :
#
#
# Convention : Reuss Voigt Hill
#
# Bulk Modulus (GPa) = 55.61125 66.63364 61.12244
# Shear Modulus (GPa) = 23.20753 27.65482 25.43117
#
# Velocity S-wave (km/s) = 3.59091 3.91991 3.75901
# Velocity P-wave (km/s) = 6.93483 7.58359 7.26645
#
# Compressibility (1/GPa) = 0.01798197
#
# Stress axis : x y z
#
# Youngs Moduli (GPa) = 77.38703 68.34058 52.17816
#
# Poissons Ratio (x) = 0.50440 0.15878
# Poissons Ratio (y) = 0.57117 0.20585
# Poissons Ratio (z) = 0.23549 0.26962
#
# Static dielectric constant tensor:
#      x y z
#    x 3.796340 0.000000 0.000000 
#    y 0.000000 3.349700 0.000000 
#    z 0.000000 0.000000 3.051760 
# 
# 
# High freq. dielectric constant tensor:
#      x y z
#    x 1.704560 0.000000 0.000000 
#    y 0.000000 1.697130 0.000000 
#    z 0.000000 0.000000 1.665940 
# 
# From -- ./inp_files/4944.got.cif
#   From: 2010.03.12/outbox.cif.g09.slc.cpg/sg65_3_cif.got.tgz:4944.got - 2010.04.10 20:52:16.
