data_PCOD8274198
_publ_section_title
;
Structure prediction by ZEFSAII (Michael W. Deem and Ramdas Pophale) SiO2 
 PCOD8274198
Probable space group: C M M M
;
_chemical_formula_sum "Si O2"
_cell_formula_units_Z 72
_cell_length_a 20.876023
_cell_length_b 18.869838
_cell_length_c 10.269801
_cell_angle_alpha 90.000000
_cell_angle_beta 90.000000
_cell_angle_gamma 90.000000
_cell_volume 4045.553666
_symmetry_space_group_name_H-M "C M M M"
_symmetry_group_IT_number 65
_symmetry_cell_setting 'orthorhombic'
loop_
_space_group_symop_operation_xyz
x,y,z
-x,-y,z
x,-y,-z
-x,y,-z
-x,-y,-z
x,y,-z
-x,y,z
x,-y,z
1/2+x,1/2+y,z
1/2-x,1/2-y,z
1/2+x,1/2-y,-z
1/2-x,1/2+y,-z
1/2-x,1/2-y,-z
1/2+x,1/2+y,-z
1/2-x,1/2+y,z
1/2+x,1/2-y,z
loop_
_atom_site_type_symbol
_atom_site_label
_atom_site_fract_x
_atom_site_fract_y
_atom_site_fract_z
Si Si1 0.886079 0.151530 0.255826
Si Si2 0.576124 0.744419 0.500000
Si Si3 0.703014 0.179478 0.500000
Si Si4 0.251273 0.917652 0.270100
Si Si5 0.350808 0.278456 0.000000
Si Si6 0.718173 0.860798 0.000000
Si Si7 0.000000 0.920839 0.644136
O O1 0.902442 0.202629 0.373304
O O2 0.821108 0.108617 0.267463
O O3 0.890578 0.198245 0.126047
O O4 0.940412 0.092445 0.261663
O O5 0.500000 0.766919 0.500000
O O6 0.626425 0.809211 0.500000
O O7 0.750000 0.250000 0.500000
O O8 0.714112 0.132709 0.372404
O O9 0.284395 0.909359 0.128724
O O10 0.254459 0.000000 0.312032
O O11 0.341640 0.193560 0.000000
O O12 0.282620 0.315850 0.000000
O O13 0.000000 0.878395 0.500000
O O14 0.000000 0.000000 0.598341
#
# Coordination Sequence:
#
# PCOD8274198 Si02
#       7
#    16   8   8  16   8   8   8
#     4  11  19  36  54  82 114 150 189 230 276 338
#     4  12  22  38  57  79 114 152 196 234 282 340
#     4  12  23  36  59  87 117 147 193 252 285 329
#     4  11  22  36  59  88 118 148 187 234 292 347
#     4   9  20  31  57  80 109 144 188 234 281 325
#     4   9  19  36  54  80 115 149 182 226 291 348
#     4  11  22  35  51  75 115 165 196 222 273 344
#
# _framework density 17.797317
#
# number of rings (size 3 to 8) (size 9 to 14) (size 15 to 20)
#    0.000    1.222    4.444    2.667    3.111    0.444 
#    0.000    2.222    0.000    1.333    0.000    0.000 
#    0.000    3.556    0.000    0.000    0.000    0.000 
#
# Total GULP energy -446048.237481 kJ/mol
# GULP energy per Si atom -12390.228819 kJ/mol
# Density = 1.775681 g / cm^3
# Si number density = 17.797317 Si / 1000 Ang^3
#
#
#
# Elastic Constant Matrix: (Units=GPa)
#
#
# Indices 1 2 3 4 5 6 
#
# 1 84.7165 62.8163 52.0018 0.0000 0.0000 0.0000
# 2 62.8163 102.5551 56.7826 0.0000 0.0000 0.0000
# 3 52.0018 56.7826 146.1404 0.0000 0.0000 0.0000
# 4 0.0000 0.0000 0.0000 -27.9549 0.0000 0.0000
# 5 0.0000 0.0000 0.0000 0.0000 22.4643 0.0000
# 6 0.0000 0.0000 0.0000 0.0000 0.0000 30.0101
#
#
#
# Elastic Compliance Matrix: (Units=1/GPa)
#
#
# Indices 1 2 3 4 5 6 
#
# 1 0.022907 -0.012126 -0.003439 0.000000 0.000000 0.000000
# 2 -0.012126 0.018843 -0.003006 0.000000 0.000000 0.000000
# 3 -0.003439 -0.003006 0.009235 0.000000 0.000000 0.000000
# 4 0.000000 0.000000 0.000000 -0.035772 0.000000 0.000000
# 5 0.000000 0.000000 0.000000 0.000000 0.044515 0.000000
# 6 0.000000 0.000000 0.000000 0.000000 0.000000 0.033322
#
#
# Mechanical properties :
#
#
# Convention : Reuss Voigt Hill
#
# Bulk Modulus (GPa) = 72.25332 75.17928 73.71630
# Shear Modulus (GPa) = 37.08982 15.69131 26.39056
#
# Velocity S-wave (km/s) = 4.57005 2.97251 3.85494
# Velocity P-wave (km/s) = 8.27848 7.35627 7.83096
#
# Compressibility (1/GPa) = 0.01384019
#
# Stress axis : x y z
#
# Youngs Moduli (GPa) = 43.65500 53.06994 108.28698
#
# Poissons Ratio (x) = 0.64355 0.37244
# Poissons Ratio (y) = 0.52938 0.32556
# Poissons Ratio (z) = 0.15014 0.15955
#
# Static dielectric constant tensor:
#      x y z
#    x 3.490610 0.000000 0.000000 
#    y 0.000000 3.336950 0.000000 
#    z 0.000000 0.000000 3.604630 
# 
# 
# High freq. dielectric constant tensor:
#      x y z
#    x 1.666900 0.000000 0.000000 
#    y 0.000000 1.678330 0.000000 
#    z 0.000000 0.000000 1.707130 
# 
# From -- ./inp_files/11362.got.cif
#   From: 2010.03.12/outbox.cif.g09.slc.cpg/sg65_6_cif.got.tgz:11362.got - 2010.04.10 20:52:16.
