data_PCOD8274882
_publ_section_title
;
Structure prediction by ZEFSAII (Michael W. Deem and Ramdas Pophale) SiO2 
 PCOD8274882
Probable space group: C M M M
;
_chemical_formula_sum "Si O2"
_cell_formula_units_Z 88
_cell_length_a 16.761966
_cell_length_b 16.605918
_cell_length_c 21.871354
_cell_angle_alpha 90.000000
_cell_angle_beta 90.000000
_cell_angle_gamma 90.000000
_cell_volume 6087.843989
_symmetry_space_group_name_H-M "C M M M"
_symmetry_group_IT_number 65
_symmetry_cell_setting 'orthorhombic'
loop_
_space_group_symop_operation_xyz
x,y,z
-x,-y,z
x,-y,-z
-x,y,-z
-x,-y,-z
x,y,-z
-x,y,z
x,-y,z
1/2+x,1/2+y,z
1/2-x,1/2-y,z
1/2+x,1/2-y,-z
1/2-x,1/2+y,-z
1/2-x,1/2-y,-z
1/2+x,1/2+y,-z
1/2-x,1/2+y,z
1/2+x,1/2-y,z
loop_
_atom_site_type_symbol
_atom_site_label
_atom_site_fract_x
_atom_site_fract_y
_atom_site_fract_z
Si Si1 0.907773 0.727065 0.162767
Si Si2 0.184352 0.819200 0.068374
Si Si3 0.908261 0.904076 0.632378
Si Si4 0.094009 0.912469 0.500000
Si Si5 0.812530 0.816154 0.736426
Si Si6 0.780189 0.407643 0.162380
O O1 0.892304 0.785036 0.104471
O O2 0.880485 0.772816 0.223822
O O3 0.860645 0.643625 0.155079
O O4 0.000000 0.705733 0.167197
O O5 0.250000 0.750000 0.067549
O O6 0.222241 0.894999 0.103953
O O7 0.159128 0.845252 0.000000
O O8 0.883470 0.869856 0.564488
O O9 0.851229 0.860277 0.679478
O O10 0.000000 0.882636 0.647337
O O11 0.895871 0.000000 0.635507
O O12 0.000000 0.925474 0.500000
O O13 0.135540 0.000000 0.500000
O O14 0.750000 0.750000 0.712055
O O15 0.766817 0.881940 0.776928
O O16 0.805270 0.500000 0.166887
#
# Coordination Sequence:
#
# PCOD8274882 Si02
#       6
#    16  16  16   8  16  16
#     4   9  17  28  42  60  80 102 130 162 194 230
#     4   8  15  28  43  57  75 101 128 152 185 230
#     4   9  15  24  41  61  79 101 130 164 199 232
#     4   7  12  22  35  56  82 102 123 155 198 242
#     4   9  17  28  40  56  80 108 135 160 189 230
#     4   9  17  28  42  60  80 102 130 162 194 230
#
# _framework density 14.455036
#
# number of rings (size 3 to 8) (size 9 to 14) (size 15 to 20)
#    0.000    3.364    0.000    4.364    0.000    1.091 
#    0.000    0.455    0.000    4.909    0.000   10.182 
#    0.000    0.000    0.000    0.000    0.000  109.091 
#
# Total GULP energy -545204.125240 kJ/mol
# GULP energy per Si atom -12391.002846 kJ/mol
# Density = 1.442214 g / cm^3
# Si number density = 14.455036 Si / 1000 Ang^3
#
#
#
# Elastic Constant Matrix: (Units=GPa)
#
#
# Indices 1 2 3 4 5 6 
#
# 1 89.9686 39.1045 53.3851 0.0000 0.0000 0.0000
# 2 39.1045 69.4706 38.4137 0.0000 0.0000 0.0000
# 3 53.3851 38.4137 125.0068 0.0000 0.0000 0.0000
# 4 0.0000 0.0000 0.0000 15.2073 0.0000 0.0000
# 5 0.0000 0.0000 0.0000 0.0000 18.2107 0.0000
# 6 0.0000 0.0000 0.0000 0.0000 0.0000 16.0628
#
#
#
# Elastic Compliance Matrix: (Units=1/GPa)
#
#
# Indices 1 2 3 4 5 6 
#
# 1 0.017172 -0.006760 -0.005256 0.000000 0.000000 0.000000
# 2 -0.006760 0.020002 -0.003260 0.000000 0.000000 0.000000
# 3 -0.005256 -0.003260 0.011246 0.000000 0.000000 0.000000
# 4 0.000000 0.000000 0.000000 0.065758 0.000000 0.000000
# 5 0.000000 0.000000 0.000000 0.000000 0.054913 0.000000
# 6 0.000000 0.000000 0.000000 0.000000 0.000000 0.062256
#
#
# Mechanical properties :
#
#
# Convention : Reuss Voigt Hill
#
# Bulk Modulus (GPa) = 55.96344 60.69475 58.32910
# Shear Modulus (GPa) = 18.66690 20.13232 19.39961
#
# Velocity S-wave (km/s) = 3.59747 3.73601 3.66740
# Velocity P-wave (km/s) = 7.48701 7.79039 7.64021
#
# Compressibility (1/GPa) = 0.01786881
#
# Stress axis : x y z
#
# Youngs Moduli (GPa) = 58.23469 49.99512 88.92069
#
# Poissons Ratio (x) = 0.33794 0.46739
# Poissons Ratio (y) = 0.39364 0.28986
# Poissons Ratio (z) = 0.30609 0.16297
#
# Static dielectric constant tensor:
#      x y z
#    x 2.576050 0.000000 0.000000 
#    y 0.000000 2.563000 0.000000 
#    z 0.000000 0.000000 3.075370 
# 
# 
# High freq. dielectric constant tensor:
#      x y z
#    x 1.532260 0.000000 0.000000 
#    y 0.000000 1.530320 0.000000 
#    z 0.000000 0.000000 1.559330 
# 
# From -- ./inp_files/63743.got.cif
#   From: 2010.03.12/outbox.cif.g09.slc.cpg/sg65_32_cif.got.tgz:63743.got - 2010.04.10 20:52:16.
