data_PCOD8274825
_publ_section_title
;
Structure prediction by ZEFSAII (Michael W. Deem and Ramdas Pophale) SiO2 
 PCOD8274825
Probable space group: C M M M
;
_chemical_formula_sum "Si O2"
_cell_formula_units_Z 112
_cell_length_a 17.326071
_cell_length_b 21.505754
_cell_length_c 14.722176
_cell_angle_alpha 90.000000
_cell_angle_beta 90.000000
_cell_angle_gamma 90.000000
_cell_volume 5485.633249
_symmetry_space_group_name_H-M "C M M M"
_symmetry_group_IT_number 65
_symmetry_cell_setting 'orthorhombic'
loop_
_space_group_symop_operation_xyz
x,y,z
-x,-y,z
x,-y,-z
-x,y,-z
-x,-y,-z
x,y,-z
-x,y,z
x,-y,z
1/2+x,1/2+y,z
1/2-x,1/2-y,z
1/2+x,1/2-y,-z
1/2-x,1/2+y,-z
1/2-x,1/2-y,-z
1/2+x,1/2+y,-z
1/2-x,1/2+y,z
1/2+x,1/2-y,z
loop_
_atom_site_type_symbol
_atom_site_label
_atom_site_fract_x
_atom_site_fract_y
_atom_site_fract_z
Si Si1 0.090267 0.279158 0.603297
Si Si2 0.661511 0.156954 0.231057
Si Si3 0.588103 0.636867 0.393892
Si Si4 0.694168 0.569851 0.744227
Si Si5 0.411814 0.748042 0.894465
Si Si6 0.912217 0.895860 0.897732
Si Si7 0.910483 0.567333 0.097845
O O1 0.114150 0.294289 0.500000
O O2 0.137303 0.326192 0.666747
O O3 0.111300 0.208129 0.627520
O O4 0.000000 0.290283 0.617944
O O5 0.744026 0.123857 0.235151
O O6 0.653248 0.217977 0.167015
O O7 0.604129 0.108519 0.185235
O O8 0.596486 0.623322 0.500000
O O9 0.500000 0.625229 0.362318
O O10 0.644142 0.589967 0.342423
O O11 0.728207 0.500000 0.726169
O O12 0.640194 0.563623 0.831995
O O13 0.500000 0.771342 0.873244
O O14 0.406202 0.676060 0.869399
O O15 0.393237 0.759735 0.000000
O O16 0.000000 0.918747 0.889154
O O17 0.882291 0.905673 0.000000
O O18 0.870302 0.500000 0.111659
O O19 0.000000 0.557245 0.090529
O O20 0.881264 0.595822 0.000000
#
# Coordination Sequence:
#
# PCOD8274825 Si02
#       7
#    16  16  16  16  16  16  16
#     4   9  19  37  63  93 117 139 175 224 280 344
#     4  12  22  33  52  81 119 158 184 218 277 338
#     4   9  20  42  69  91 109 132 173 235 296 341
#     4  12  27  40  52  79 117 155 195 232 268 323
#     4   9  18  34  59  89 114 140 184 240 291 337
#     4   9  20  40  62  83 110 144 185 237 292 342
#     4   9  18  33  53  76 104 146 202 251 279 306
#
# _framework density 20.416969000000002
#
# number of rings (size 3 to 8) (size 9 to 14) (size 15 to 20)
#    0.000    2.143    0.000    5.571    0.000    9.143 
#    0.000    4.286    0.000    1.286    0.000    5.000 
#    0.000    0.000    0.000    0.000    0.000    0.000 
#
# Total GULP energy -694018.745985 kJ/mol
# GULP energy per Si atom -12393.191893 kJ/mol
# Density = 2.037050 g / cm^3
# Si number density = 20.416969 Si / 1000 Ang^3
#
#
#
# Elastic Constant Matrix: (Units=GPa)
#
#
# Indices 1 2 3 4 5 6 
#
# 1 64.6132 31.3158 38.0303 0.0000 0.0000 0.0000
# 2 31.3158 79.7245 43.1764 0.0000 0.0000 0.0000
# 3 38.0303 43.1764 111.9360 0.0000 0.0000 0.0000
# 4 0.0000 0.0000 0.0000 19.3373 0.0000 0.0000
# 5 0.0000 0.0000 0.0000 0.0000 14.3192 0.0000
# 6 0.0000 0.0000 0.0000 0.0000 0.0000 29.8087
#
#
#
# Elastic Compliance Matrix: (Units=1/GPa)
#
#
# Indices 1 2 3 4 5 6 
#
# 1 0.021142 -0.005580 -0.005031 0.000000 0.000000 0.000000
# 2 -0.005580 0.017328 -0.004788 0.000000 0.000000 0.000000
# 3 -0.005031 -0.004788 0.012490 0.000000 0.000000 0.000000
# 4 0.000000 0.000000 0.000000 0.051713 0.000000 0.000000
# 5 0.000000 0.000000 0.000000 0.000000 0.069837 0.000000
# 6 0.000000 0.000000 0.000000 0.000000 0.000000 0.033547
#
#
# Mechanical properties :
#
#
# Convention : Reuss Voigt Hill
#
# Bulk Modulus (GPa) = 49.59746 53.47983 51.53865
# Shear Modulus (GPa) = 20.52749 22.27645 21.40197
#
# Velocity S-wave (km/s) = 3.17427 3.30673 3.24117
# Velocity P-wave (km/s) = 6.14651 6.38983 6.26935
#
# Compressibility (1/GPa) = 0.02016232
#
# Stress axis : x y z
#
# Youngs Moduli (GPa) = 47.29869 57.70959 80.06599
#
# Poissons Ratio (x) = 0.32203 0.40279
# Poissons Ratio (y) = 0.26394 0.38336
# Poissons Ratio (z) = 0.23794 0.27631
#
# Static dielectric constant tensor:
#      x y z
#    x 3.492870 0.000000 0.000000 
#    y 0.000000 3.670260 0.000000 
#    z 0.000000 0.000000 3.793130 
# 
# 
# High freq. dielectric constant tensor:
#      x y z
#    x 1.773490 0.000000 0.000000 
#    y 0.000000 1.796430 0.000000 
#    z 0.000000 0.000000 1.804310 
# 
# From -- ./inp_files/40815.got.cif
#   From: 2010.03.12/outbox.cif.g09.slc.cpg/sg65_21_cif.got.tgz:40815.got - 2010.04.10 20:52:16.
