data_PCOD8274467
_publ_section_title
;
Structure prediction by ZEFSAII (Michael W. Deem and Ramdas Pophale) SiO2 
 PCOD8274467
Probable space group: C M M M
;
_chemical_formula_sum "Si O2"
_cell_formula_units_Z 88
_cell_length_a 9.212913
_cell_length_b 18.678779
_cell_length_c 29.494775
_cell_angle_alpha 90.000000
_cell_angle_beta 90.000000
_cell_angle_gamma 90.000000
_cell_volume 5075.636844
_symmetry_space_group_name_H-M "C M M M"
_symmetry_group_IT_number 65
_symmetry_cell_setting 'orthorhombic'
loop_
_space_group_symop_operation_xyz
x,y,z
-x,-y,z
x,-y,-z
-x,y,-z
-x,-y,-z
x,y,-z
-x,y,z
x,-y,z
1/2+x,1/2+y,z
1/2-x,1/2-y,z
1/2+x,1/2-y,-z
1/2-x,1/2+y,-z
1/2-x,1/2-y,-z
1/2+x,1/2+y,-z
1/2-x,1/2+y,z
1/2+x,1/2-y,z
loop_
_atom_site_type_symbol
_atom_site_label
_atom_site_fract_x
_atom_site_fract_y
_atom_site_fract_z
Si Si1 0.171974 0.579561 0.791587
Si Si2 0.658809 0.814942 0.389015
Si Si3 0.000000 0.416809 0.447013
Si Si4 0.328605 0.821916 0.711706
Si Si5 0.666031 0.582111 0.947091
Si Si6 0.327266 0.174204 0.123833
O O1 0.240085 0.500000 0.795305
O O2 0.224807 0.614181 0.744177
O O3 0.225664 0.627632 0.833310
O O4 0.000000 0.574207 0.792611
O O5 0.500000 0.781646 0.380142
O O6 0.750000 0.750000 0.410595
O O7 0.644733 0.881353 0.424399
O O8 0.719468 0.840873 0.340129
O O9 0.000000 0.500000 0.435760
O O10 0.000000 0.400856 0.500000
O O11 0.500000 0.811045 0.716813
O O12 0.250000 0.750000 0.727909
O O13 0.500000 0.599583 0.933473
O O14 0.702819 0.500000 0.935007
O O15 0.776482 0.633702 0.921275
O O16 0.689422 0.596138 0.000000
O O17 0.500000 0.184646 0.122461
O O18 0.250000 0.250000 0.127371
#
# Coordination Sequence:
#
# PCOD8274467 Si02
#       6
#    16  16   8  16  16  16
#     4   9  18  31  48  72  98 125 161 203 245 291
#     4   8  16  29  47  72  97 129 170 206 251 303
#     4   9  18  30  46  72 103 131 167 217 261 299
#     4   9  16  29  48  70  96 126 159 200 240 289
#     4   9  19  37  59  80 102 129 160 197 244 297
#     4  11  22  35  52  74 101 132 166 204 247 290
#
# _framework density 17.337726
#
# number of rings (size 3 to 8) (size 9 to 14) (size 15 to 20)
#    0.545    2.273    0.000    2.182    0.000    2.909 
#    0.000    1.818    0.000    3.273    0.000    6.364 
#    0.000    0.000    0.000    0.000    0.000    0.000 
#
# Total GULP energy -545311.590446 kJ/mol
# GULP energy per Si atom -12393.445237 kJ/mol
# Density = 1.729826 g / cm^3
# Si number density = 17.337726 Si / 1000 Ang^3
#
#
#
# Elastic Constant Matrix: (Units=GPa)
#
#
# Indices 1 2 3 4 5 6 
#
# 1 46.0868 44.8200 32.5414 0.0000 0.0000 0.0000
# 2 44.8200 157.7747 85.2933 0.0000 0.0000 0.0000
# 3 32.5414 85.2933 106.2827 0.0000 0.0000 0.0000
# 4 0.0000 0.0000 0.0000 34.7872 0.0000 0.0000
# 5 0.0000 0.0000 0.0000 0.0000 8.7244 0.0000
# 6 0.0000 0.0000 0.0000 0.0000 0.0000 21.8180
#
#
#
# Elastic Compliance Matrix: (Units=1/GPa)
#
#
# Indices 1 2 3 4 5 6 
#
# 1 0.031050 -0.006502 -0.004289 0.000000 0.000000 0.000000
# 2 -0.006502 0.012557 -0.008086 0.000000 0.000000 0.000000
# 3 -0.004289 -0.008086 0.017211 0.000000 0.000000 0.000000
# 4 0.000000 0.000000 0.000000 0.028746 0.000000 0.000000
# 5 0.000000 0.000000 0.000000 0.000000 0.114621 0.000000
# 6 0.000000 0.000000 0.000000 0.000000 0.000000 0.045834
#
#
# Mechanical properties :
#
#
# Convention : Reuss Voigt Hill
#
# Bulk Modulus (GPa) = 43.35805 70.60595 56.98200
# Shear Modulus (GPa) = 16.92278 22.89855 19.91067
#
# Velocity S-wave (km/s) = 3.12760 3.63814 3.39248
# Velocity P-wave (km/s) = 6.17290 7.64594 6.94856
#
# Compressibility (1/GPa) = 0.02306377
#
# Stress axis : x y z
#
# Youngs Moduli (GPa) = 32.20648 79.64000 58.10180
#
# Poissons Ratio (x) = 0.51781 0.24919
# Poissons Ratio (y) = 0.20940 0.46981
# Poissons Ratio (z) = 0.13813 0.64397
#
# Static dielectric constant tensor:
#      x y z
#    x 3.014720 0.000000 0.000000 
#    y 0.000000 3.267980 0.000000 
#    z 0.000000 0.000000 3.265960 
# 
# 
# High freq. dielectric constant tensor:
#      x y z
#    x 1.639740 0.000000 0.000000 
#    y 0.000000 1.668550 0.000000 
#    z 0.000000 0.000000 1.675000 
# 
# From -- ./inp_files/76814.got.cif
#   From: 2010.03.12/outbox.cif.g09.slc.cpg/sg65_39_cif.got.tgz:76814.got - 2010.04.10 20:52:16.
