data_PCOD8274736
_publ_section_title
;
Structure prediction by ZEFSAII (Michael W. Deem and Ramdas Pophale) SiO2 
 PCOD8274736
Probable space group: C M M M
;
_chemical_formula_sum "Si O2"
_cell_formula_units_Z 72
_cell_length_a 9.218409
_cell_length_b 15.093525
_cell_length_c 24.835761
_cell_angle_alpha 90.000000
_cell_angle_beta 90.000000
_cell_angle_gamma 90.000000
_cell_volume 3455.605234
_symmetry_space_group_name_H-M "C M M M"
_symmetry_group_IT_number 65
_symmetry_cell_setting 'orthorhombic'
loop_
_space_group_symop_operation_xyz
x,y,z
-x,-y,z
x,-y,-z
-x,y,-z
-x,-y,-z
x,y,-z
-x,y,z
x,-y,z
1/2+x,1/2+y,z
1/2-x,1/2-y,z
1/2+x,1/2-y,-z
1/2-x,1/2+y,-z
1/2-x,1/2-y,-z
1/2+x,1/2+y,-z
1/2-x,1/2+y,z
1/2+x,1/2-y,z
loop_
_atom_site_type_symbol
_atom_site_label
_atom_site_fract_x
_atom_site_fract_y
_atom_site_fract_z
Si Si1 0.759473 0.595875 0.131149
Si Si2 0.000000 0.320403 0.060601
Si Si3 0.667877 0.654448 0.500000
Si Si4 0.500000 0.386579 0.059042
Si Si5 0.830185 0.000000 0.417025
Si Si6 0.826774 0.839713 0.754219
Si Si7 0.674964 0.000000 0.694107
O O1 0.827360 0.500000 0.148430
O O2 0.865214 0.655273 0.096738
O O3 0.633024 0.574306 0.090770
O O4 0.702732 0.648642 0.182683
O O5 0.000000 0.217452 0.053742
O O6 0.000000 0.363898 0.000000
O O7 0.500000 0.680370 0.500000
O O8 0.750000 0.750000 0.500000
O O9 0.704018 0.591266 0.449078
O O10 0.500000 0.428624 0.000000
O O11 0.719126 0.000000 0.367980
O O12 0.000000 0.000000 0.399782
O O13 0.750000 0.750000 0.734608
O O14 0.746989 0.915323 0.721264
O O15 0.000000 0.838563 0.742968
O O16 0.500000 0.000000 0.700540
#
# Coordination Sequence:
#
# PCOD8274736 Si02
#       7
#    16   8   8   8   8  16   8
#     4  12  25  40  64  90 121 158 207 262 334 410
#     4  11  25  43  61  89 123 161 203 260 329 404
#     4   9  19  37  68 104 144 197 241 283 341 394
#     4  11  23  41  63  89 121 157 203 256 321 410
#     4   9  20  42  66  98 146 193 239 287 338 399
#     4  12  26  46  70  97 131 174 227 287 349 414
#     4  12  27  45  71 104 139 185 236 289 351 407
#
# _framework density 20.835713999999999
#
# number of rings (size 3 to 8) (size 9 to 14) (size 15 to 20)
#    0.000    0.889    2.222    5.667    3.111    6.222 
#    0.000    3.333    0.000    0.000    0.000    0.000 
#    0.000    0.000    0.000    0.000    0.000    0.000 
#
# Total GULP energy -446092.127999 kJ/mol
# GULP energy per Si atom -12391.448000 kJ/mol
# Density = 2.078829 g / cm^3
# Si number density = 20.835714 Si / 1000 Ang^3
#
#
#
# Elastic Constant Matrix: (Units=GPa)
#
#
# Indices 1 2 3 4 5 6 
#
# 1 164.0480 70.4954 69.9655 0.0000 0.0000 0.0000
# 2 70.4954 175.0860 51.3277 0.0000 0.0000 0.0000
# 3 69.9655 51.3277 121.4344 0.0000 0.0000 0.0000
# 4 0.0000 0.0000 0.0000 30.4166 0.0000 0.0000
# 5 0.0000 0.0000 0.0000 0.0000 50.4322 0.0000
# 6 0.0000 0.0000 0.0000 0.0000 0.0000 42.4356
#
#
#
# Elastic Compliance Matrix: (Units=1/GPa)
#
#
# Indices 1 2 3 4 5 6 
#
# 1 0.008864 -0.002365 -0.004107 0.000000 0.000000 0.000000
# 2 -0.002365 0.007150 -0.001660 0.000000 0.000000 0.000000
# 3 -0.004107 -0.001660 0.011303 0.000000 0.000000 0.000000
# 4 0.000000 0.000000 0.000000 0.032877 0.000000 0.000000
# 5 0.000000 0.000000 0.000000 0.000000 0.019829 0.000000
# 6 0.000000 0.000000 0.000000 0.000000 0.000000 0.023565
#
#
# Mechanical properties :
#
#
# Convention : Reuss Voigt Hill
#
# Bulk Modulus (GPa) = 90.47247 93.79395 92.13321
# Shear Modulus (GPa) = 40.47418 42.57552 41.52485
#
# Velocity S-wave (km/s) = 4.41221 4.52529 4.46911
# Velocity P-wave (km/s) = 8.33504 8.50988 8.42291
#
# Compressibility (1/GPa) = 0.01105309
#
# Stress axis : x y z
#
# Youngs Moduli (GPa) = 112.81918 139.85691 88.47240
#
# Poissons Ratio (x) = 0.33072 0.36339
# Poissons Ratio (y) = 0.26679 0.14684
# Poissons Ratio (z) = 0.46339 0.23213
#
# Static dielectric constant tensor:
#      x y z
#    x 3.786890 0.000000 0.000000 
#    y 0.000000 3.417260 0.000000 
#    z 0.000000 0.000000 3.857610 
# 
# 
# High freq. dielectric constant tensor:
#      x y z
#    x 1.819390 0.000000 0.000000 
#    y 0.000000 1.843540 0.000000 
#    z 0.000000 0.000000 1.812520 
# 
# From -- ./inp_files/72677.got.cif
#   From: 2010.03.12/outbox.cif.g09.slc.cpg/sg65_37_cif.got.tgz:72677.got - 2010.04.10 20:52:16.
