data_PCOD8274716
_publ_section_title
;
Structure prediction by ZEFSAII (Michael W. Deem and Ramdas Pophale) SiO2 
 PCOD8274716
Probable space group: C M M M
;
_chemical_formula_sum "Si O2"
_cell_formula_units_Z 88
_cell_length_a 27.157012
_cell_length_b 19.499838
_cell_length_c 7.843072
_cell_angle_alpha 90.000000
_cell_angle_beta 90.000000
_cell_angle_gamma 90.000000
_cell_volume 4153.356303
_symmetry_space_group_name_H-M "C M M M"
_symmetry_group_IT_number 65
_symmetry_cell_setting 'orthorhombic'
loop_
_space_group_symop_operation_xyz
x,y,z
-x,-y,z
x,-y,-z
-x,y,-z
-x,-y,-z
x,y,-z
-x,y,z
x,-y,z
1/2+x,1/2+y,z
1/2-x,1/2-y,z
1/2+x,1/2-y,-z
1/2-x,1/2+y,-z
1/2-x,1/2-y,-z
1/2+x,1/2+y,-z
1/2-x,1/2+y,z
1/2+x,1/2-y,z
loop_
_atom_site_type_symbol
_atom_site_label
_atom_site_fract_x
_atom_site_fract_y
_atom_site_fract_z
Si Si1 0.941552 0.581766 0.000000
Si Si2 0.714131 0.421977 0.693995
Si Si3 0.717278 0.188471 0.191210
Si Si4 0.109760 0.338322 0.689919
Si Si5 0.554804 0.288296 0.194235
Si Si6 0.897985 0.923653 0.700724
O O1 0.915712 0.612756 0.830755
O O2 0.933441 0.500000 0.000000
O O3 0.000000 0.599746 0.000000
O O4 0.719529 0.395965 0.500000
O O5 0.731347 0.500000 0.708786
O O6 0.748878 0.378557 0.816046
O O7 0.658317 0.413580 0.756721
O O8 0.750000 0.250000 0.274128
O O9 0.668361 0.169510 0.293636
O O10 0.701637 0.209564 0.000000
O O11 0.098894 0.368134 0.500000
O O12 0.089466 0.260926 0.696883
O O13 0.500000 0.281003 0.267152
O O14 0.569855 0.367656 0.203116
O O15 0.557356 0.263188 0.000000
O O16 0.903623 0.913793 0.500000
O O17 0.915882 0.000000 0.753536
#
# Coordination Sequence:
#
# PCOD8274716 Si02
#       6
#     8  16  16  16  16  16
#     4  11  26  50  75 100 133 167 212 281 349 416
#     4   9  19  36  57  83 117 159 204 250 305 367
#     4  11  23  39  61  93 133 173 214 262 318 379
#     4  12  25  44  71 100 132 173 218 267 332 401
#     4  11  23  39  60  87 123 164 210 268 323 374
#     4   9  19  36  57  85 124 168 216 267 314 367
#
# _framework density 21.187684000000001
#
# number of rings (size 3 to 8) (size 9 to 14) (size 15 to 20)
#    0.000    1.545    1.818    3.818    0.000    9.818 
#    0.000    4.545    0.000    0.000    0.000    0.000 
#    0.000    0.000    0.000    0.000    0.000    0.000 
#
# Total GULP energy -545595.093378 kJ/mol
# GULP energy per Si atom -12399.888486 kJ/mol
# Density = 2.113946 g / cm^3
# Si number density = 21.187684 Si / 1000 Ang^3
#
#
#
# Elastic Constant Matrix: (Units=GPa)
#
#
# Indices 1 2 3 4 5 6 
#
# 1 89.5580 39.0720 34.6936 0.0000 0.0000 0.0000
# 2 39.0720 101.7193 32.5361 0.0000 0.0000 0.0000
# 3 34.6936 32.5361 100.6381 0.0000 0.0000 0.0000
# 4 0.0000 0.0000 0.0000 27.3565 0.0000 0.0000
# 5 0.0000 0.0000 0.0000 0.0000 26.7956 0.0000
# 6 0.0000 0.0000 0.0000 0.0000 0.0000 40.2138
#
#
#
# Elastic Compliance Matrix: (Units=1/GPa)
#
#
# Indices 1 2 3 4 5 6 
#
# 1 0.014474 -0.004421 -0.003560 0.000000 0.000000 0.000000
# 2 -0.004421 0.012315 -0.002457 0.000000 0.000000 0.000000
# 3 -0.003560 -0.002457 0.011958 0.000000 0.000000 0.000000
# 4 0.000000 0.000000 0.000000 0.036554 0.000000 0.000000
# 5 0.000000 0.000000 0.000000 0.000000 0.037320 0.000000
# 6 0.000000 0.000000 0.000000 0.000000 0.000000 0.024867
#
#
# Mechanical properties :
#
#
# Convention : Reuss Voigt Hill
#
# Bulk Modulus (GPa) = 55.95925 56.05762 56.00843
# Shear Modulus (GPa) = 30.42793 31.24742 30.83768
#
# Velocity S-wave (km/s) = 3.79372 3.84447 3.81918
# Velocity P-wave (km/s) = 6.75709 6.79865 6.77790
#
# Compressibility (1/GPa) = 0.01787015
#
# Stress axis : x y z
#
# Youngs Moduli (GPa) = 69.08980 81.20100 83.62258
#
# Poissons Ratio (x) = 0.35897 0.29773
# Poissons Ratio (y) = 0.30543 0.20550
# Poissons Ratio (z) = 0.24599 0.19955
#
# Static dielectric constant tensor:
#      x y z
#    x 3.803340 0.000000 0.000000 
#    y 0.000000 3.837110 0.000000 
#    z 0.000000 0.000000 3.718470 
# 
# 
# High freq. dielectric constant tensor:
#      x y z
#    x 1.832940 0.000000 0.000000 
#    y 0.000000 1.833200 0.000000 
#    z 0.000000 0.000000 1.825340 
# 
# From -- ./inp_files/18321.got.cif
#   From: 2010.03.12/outbox.cif.g09.slc.cpg/sg65_10_cif.got.tgz:18321.got - 2010.04.10 20:52:16.
