data_PCOD8274065
_publ_section_title
;
Structure prediction by ZEFSAII (Michael W. Deem and Ramdas Pophale) SiO2 
 PCOD8274065
Probable space group: C M M M
;
_chemical_formula_sum "Si O2"
_cell_formula_units_Z 88
_cell_length_a 8.844204
_cell_length_b 20.478617
_cell_length_c 24.399571
_cell_angle_alpha 90.000000
_cell_angle_beta 90.000000
_cell_angle_gamma 90.000000
_cell_volume 4419.178721
_symmetry_space_group_name_H-M "C M M M"
_symmetry_group_IT_number 65
_symmetry_cell_setting 'orthorhombic'
loop_
_space_group_symop_operation_xyz
x,y,z
-x,-y,z
x,-y,-z
-x,y,-z
-x,-y,-z
x,y,-z
-x,y,z
x,-y,z
1/2+x,1/2+y,z
1/2-x,1/2-y,z
1/2+x,1/2-y,-z
1/2-x,1/2+y,-z
1/2-x,1/2-y,-z
1/2+x,1/2+y,-z
1/2-x,1/2+y,z
1/2+x,1/2-y,z
loop_
_atom_site_type_symbol
_atom_site_label
_atom_site_fract_x
_atom_site_fract_y
_atom_site_fract_z
Si Si1 0.337610 0.500000 0.436014
Si Si2 0.680887 0.358986 0.437735
Si Si3 0.175625 0.425712 0.146755
Si Si4 0.678265 0.185551 0.667410
Si Si5 0.676161 0.424849 0.738453
Si Si6 0.678257 0.816863 0.937994
O O1 0.500000 0.500000 0.404955
O O2 0.371992 0.500000 0.500000
O O3 0.254383 0.568074 0.422376
O O4 0.724548 0.339527 0.500000
O O5 0.500000 0.356401 0.429902
O O6 0.766058 0.311964 0.395808
O O7 0.204428 0.500000 0.127198
O O8 0.271939 0.408894 0.200179
O O9 0.231748 0.377832 0.098685
O O10 0.000000 0.414478 0.160841
O O11 0.500000 0.190084 0.670767
O O12 0.750000 0.250000 0.696029
O O13 0.734022 0.120186 0.696534
O O14 0.500000 0.409442 0.733470
O O15 0.712814 0.500000 0.723479
O O16 0.500000 0.808892 0.935716
O O17 0.750000 0.750000 0.915022
O O18 0.734332 0.830136 0.000000
#
# Coordination Sequence:
#
# PCOD8274065 Si02
#       6
#     8  16  16  16  16  16
#     4   7  12  26  51  81 109 139 175 213 256 313
#     4   9  18  35  59  86 116 150 187 227 276 335
#     4   9  18  34  56  82 112 146 188 237 284 331
#     4  12  26  42  60  84 116 150 190 236 285 340
#     4  10  22  41  64  87 113 148 189 234 288 348
#     4   9  18  32  51  78 113 153 193 232 278 332
#
# _framework density 19.913202999999999
#
# number of rings (size 3 to 8) (size 9 to 14) (size 15 to 20)
#    0.000    2.455    0.000    3.273    1.273    3.636 
#    0.000    3.636    0.000    1.636    0.000    5.091 
#    0.000    0.000    0.000    0.000    0.000    0.000 
#
# Total GULP energy -545421.038885 kJ/mol
# GULP energy per Si atom -12395.932702 kJ/mol
# Density = 1.986788 g / cm^3
# Si number density = 19.913203 Si / 1000 Ang^3
#
#
#
# Elastic Constant Matrix: (Units=GPa)
#
#
# Indices 1 2 3 4 5 6 
#
# 1 91.8374 53.8784 47.9265 0.0000 0.0000 0.0000
# 2 53.8784 123.0060 70.1396 0.0000 0.0000 0.0000
# 3 47.9265 70.1396 96.5886 0.0000 0.0000 0.0000
# 4 0.0000 0.0000 0.0000 26.7704 0.0000 0.0000
# 5 0.0000 0.0000 0.0000 0.0000 28.8001 0.0000
# 6 0.0000 0.0000 0.0000 0.0000 0.0000 104.4926
#
#
#
# Elastic Compliance Matrix: (Units=1/GPa)
#
#
# Indices 1 2 3 4 5 6 
#
# 1 0.015871 -0.004201 -0.004825 0.000000 0.000000 0.000000
# 2 -0.004201 0.014987 -0.008799 0.000000 0.000000 0.000000
# 3 -0.004825 -0.008799 0.019136 0.000000 0.000000 0.000000
# 4 0.000000 0.000000 0.000000 0.037355 0.000000 0.000000
# 5 0.000000 0.000000 0.000000 0.000000 0.034722 0.000000
# 6 0.000000 0.000000 0.000000 0.000000 0.000000 0.009570
#
#
# Mechanical properties :
#
#
# Convention : Reuss Voigt Hill
#
# Bulk Modulus (GPa) = 69.70419 72.81346 71.25882
# Shear Modulus (GPa) = 29.05781 41.31178 35.18479
#
# Velocity S-wave (km/s) = 3.82412 4.55971 4.20802
# Velocity P-wave (km/s) = 7.38773 8.02285 7.71183
#
# Compressibility (1/GPa) = 0.01434634
#
# Stress axis : x y z
#
# Youngs Moduli (GPa) = 63.00780 66.72606 52.25643
#
# Poissons Ratio (x) = 0.28029 0.25212
# Poissons Ratio (y) = 0.26467 0.45978
# Poissons Ratio (z) = 0.30400 0.58709
#
# Static dielectric constant tensor:
#      x y z
#    x 3.378730 0.000000 0.000000 
#    y 0.000000 3.919080 0.000000 
#    z 0.000000 0.000000 3.624490 
# 
# 
# High freq. dielectric constant tensor:
#      x y z
#    x 1.756060 0.000000 0.000000 
#    y 0.000000 1.790190 0.000000 
#    z 0.000000 0.000000 1.768250 
# 
# From -- ./inp_files/67592.got.cif
#   From: 2010.03.12/outbox.cif.g09.slc.cpg/sg65_34_cif.got.tgz:67592.got - 2010.04.10 20:52:16.
