data_PCOD8274552
_publ_section_title
;
Structure prediction by ZEFSAII (Michael W. Deem and Ramdas Pophale) SiO2 
 PCOD8274552
Probable space group: C M M M
;
_chemical_formula_sum "Si O2"
_cell_formula_units_Z 88
_cell_length_a 9.185017
_cell_length_b 17.820589
_cell_length_c 28.739975
_cell_angle_alpha 90.000000
_cell_angle_beta 90.000000
_cell_angle_gamma 90.000000
_cell_volume 4704.228455
_symmetry_space_group_name_H-M "C M M M"
_symmetry_group_IT_number 65
_symmetry_cell_setting 'orthorhombic'
loop_
_space_group_symop_operation_xyz
x,y,z
-x,-y,z
x,-y,-z
-x,y,-z
-x,-y,-z
x,y,-z
-x,y,z
x,-y,z
1/2+x,1/2+y,z
1/2-x,1/2-y,z
1/2+x,1/2-y,-z
1/2-x,1/2+y,-z
1/2-x,1/2-y,-z
1/2+x,1/2+y,-z
1/2-x,1/2+y,z
1/2+x,1/2-y,z
loop_
_atom_site_type_symbol
_atom_site_label
_atom_site_fract_x
_atom_site_fract_y
_atom_site_fract_z
Si Si1 0.161959 0.910659 0.273505
Si Si2 0.833178 0.588607 0.000000
Si Si3 0.174665 0.170838 0.081546
Si Si4 0.336361 0.589218 0.551073
Si Si5 0.672675 0.416755 0.171996
Si Si6 0.337157 0.910314 0.638791
O O1 0.227226 0.887701 0.222752
O O2 0.260437 0.877935 0.314939
O O3 0.000000 0.877710 0.280275
O O4 0.156326 0.000000 0.275921
O O5 0.742965 0.614140 0.955213
O O6 0.837279 0.500000 0.000000
O O7 0.000000 0.620131 0.000000
O O8 0.250000 0.250000 0.073093
O O9 0.221226 0.141399 0.132478
O O10 0.000000 0.175921 0.075391
O O11 0.278061 0.614796 0.500000
O O12 0.500000 0.618834 0.558393
O O13 0.335009 0.500000 0.553710
O O14 0.237879 0.622709 0.592300
O O15 0.500000 0.423063 0.174096
O O16 0.736462 0.500000 0.161075
O O17 0.500000 0.879666 0.639097
O O18 0.331620 0.000000 0.638717
#
# Coordination Sequence:
#
# PCOD8274552 Si02
#       6
#    16   8  16  16  16  16
#     4   8  13  23  39  56  74  99 135 179 223 267
#     4  11  24  41  60  83 109 135 168 209 250 291
#     4  11  22  37  57  80 108 139 171 205 245 293
#     4   8  13  20  28  37  52  81 124 170 213 259
#     4   8  15  29  50  73  93 119 160 204 241 282
#     4   9  15  20  27  43  67  93 123 164 217 271
#
# _framework density 18.706575000000001
#
# number of rings (size 3 to 8) (size 9 to 14) (size 15 to 20)
#    0.000    3.000    0.000    3.818    0.000    4.000 
#    0.000    3.636    0.000    4.364    0.000    0.000 
#    0.000    0.000    0.000    0.000    0.000    0.909 
#
# Total GULP energy -545269.431406 kJ/mol
# GULP energy per Si atom -12392.487077 kJ/mol
# Density = 1.866400 g / cm^3
# Si number density = 18.706575 Si / 1000 Ang^3
#
#
#
# Elastic Constant Matrix: (Units=GPa)
#
#
# Indices 1 2 3 4 5 6 
#
# 1 109.0117 19.8433 76.4376 0.0000 0.0000 0.0000
# 2 19.8433 32.7794 23.7960 0.0000 0.0000 0.0000
# 3 76.4376 23.7960 180.3325 0.0000 0.0000 0.0000
# 4 0.0000 0.0000 0.0000 0.6953 0.0000 0.0000
# 5 0.0000 0.0000 0.0000 0.0000 -21.8194 0.0000
# 6 0.0000 0.0000 0.0000 0.0000 0.0000 10.3652
#
#
#
# Elastic Compliance Matrix: (Units=1/GPa)
#
#
# Indices 1 2 3 4 5 6 
#
# 1 0.013624 -0.004485 -0.005183 0.000000 0.000000 0.000000
# 2 -0.004485 0.035215 -0.002746 0.000000 0.000000 0.000000
# 3 -0.005183 -0.002746 0.008105 0.000000 0.000000 0.000000
# 4 0.000000 0.000000 0.000000 1.438191 0.000000 0.000000
# 5 0.000000 0.000000 0.000000 0.000000 -0.045831 0.000000
# 6 0.000000 0.000000 0.000000 0.000000 0.000000 0.096476
#
#
# Mechanical properties :
#
#
# Convention : Reuss Voigt Hill
#
# Bulk Modulus (GPa) = 31.13678 62.47527 46.80602
# Shear Modulus (GPa) = 3.16193 11.31801 7.23997
#
# Velocity S-wave (km/s) = 1.30152 2.46240 1.96944
# Velocity P-wave (km/s) = 4.35196 6.44628 5.49973
#
# Compressibility (1/GPa) = 0.03211636
#
# Stress axis : x y z
#
# Youngs Moduli (GPa) = 73.40024 28.39678 123.38730
#
# Poissons Ratio (x) = 0.12735 0.63951
# Poissons Ratio (y) = 0.32919 0.33881
# Poissons Ratio (z) = 0.38043 0.07797
#
# Static dielectric constant tensor:
#      x y z
#    x 3.446020 0.000000 0.000000 
#    y 0.000000 2.803500 0.000000 
#    z 0.000000 0.000000 4.008460 
# 
# 
# High freq. dielectric constant tensor:
#      x y z
#    x 1.711780 0.000000 0.000000 
#    y 0.000000 1.658000 0.000000 
#    z 0.000000 0.000000 1.751730 
# 
# From -- ./inp_files/76675.got.cif
#   From: 2010.03.12/outbox.cif.g09.slc.cpg/sg65_39_cif.got.tgz:76675.got - 2010.04.10 20:52:16.
