data_PCOD8274038
_publ_section_title
;
Structure prediction by ZEFSAII (Michael W. Deem and Ramdas Pophale) SiO2 
 PCOD8274038
Probable space group: C M M M
;
_chemical_formula_sum "Si O2"
_cell_formula_units_Z 64
_cell_length_a 11.119411
_cell_length_b 17.666562
_cell_length_c 14.626480
_cell_angle_alpha 90.000000
_cell_angle_beta 90.000000
_cell_angle_gamma 90.000000
_cell_volume 2873.251530
_symmetry_space_group_name_H-M "C M M M"
_symmetry_group_IT_number 65
_symmetry_cell_setting 'orthorhombic'
loop_
_space_group_symop_operation_xyz
x,y,z
-x,-y,z
x,-y,-z
-x,y,-z
-x,-y,-z
x,y,-z
-x,y,z
x,-y,z
1/2+x,1/2+y,z
1/2-x,1/2-y,z
1/2+x,1/2-y,-z
1/2-x,1/2+y,-z
1/2-x,1/2-y,-z
1/2+x,1/2+y,-z
1/2-x,1/2+y,z
1/2+x,1/2-y,z
loop_
_atom_site_type_symbol
_atom_site_label
_atom_site_fract_x
_atom_site_fract_y
_atom_site_fract_z
Si Si1 0.862547 0.304837 0.105235
Si Si2 0.000000 0.416662 0.606334
Si Si3 0.754968 0.660496 0.396941
Si Si4 0.777941 0.089332 0.781411
Si Si5 0.000000 0.910497 0.099917
O O1 0.750000 0.250000 0.129149
O O2 0.844107 0.375385 0.175348
O O3 0.000000 0.272334 0.122045
O O4 0.852260 0.331934 0.000000
O O5 0.886278 0.367133 0.633343
O O6 0.000000 0.500000 0.654606
O O7 0.000000 0.431294 0.500000
O O8 0.718269 0.634048 0.500000
O O9 0.750000 0.750000 0.390797
O O10 0.676676 0.621487 0.317762
O O11 0.881556 0.116606 0.849489
O O12 0.762655 0.000000 0.773004
O O13 0.000000 0.000000 0.091266
O O14 0.000000 0.871568 0.000000
#
# Coordination Sequence:
#
# PCOD8274038 Si02
#       5
#    16   8  16  16   8
#     4  10  23  42  65  96 132 172 219 276 341 406
#     4   9  18  35  60  88 122 165 210 266 336 405
#     4  10  22  40  62  91 127 169 218 274 335 402
#     4  11  23  39  64  95 129 172 222 276 336 399
#     4   9  20  39  61  89 127 172 213 253 320 403
#
# _framework density 22.274417
#
# number of rings (size 3 to 8) (size 9 to 14) (size 15 to 20)
#    0.000    2.000    0.000    2.250    3.500    4.500 
#    0.000    3.125    0.000    2.250    0.000    0.000 
#    0.000    0.000    0.000    0.000    0.000    0.000 
#
# Total GULP energy -396461.564006 kJ/mol
# GULP energy per Si atom -12389.423875 kJ/mol
# Density = 2.222372 g / cm^3
# Si number density = 22.274417 Si / 1000 Ang^3
#
#
#
# Elastic Constant Matrix: (Units=GPa)
#
#
# Indices 1 2 3 4 5 6 
#
# 1 118.5943 49.0465 55.2460 0.0000 0.0000 0.0000
# 2 49.0465 112.7959 49.6093 0.0000 0.0000 0.0000
# 3 55.2460 49.6093 176.4395 0.0000 0.0000 0.0000
# 4 0.0000 0.0000 0.0000 45.0124 0.0000 0.0000
# 5 0.0000 0.0000 0.0000 0.0000 -5.5631 0.0000
# 6 0.0000 0.0000 0.0000 0.0000 0.0000 47.8534
#
#
#
# Elastic Compliance Matrix: (Units=1/GPa)
#
#
# Indices 1 2 3 4 5 6 
#
# 1 0.011119 -0.003770 -0.002422 0.000000 0.000000 0.000000
# 2 -0.003770 0.011395 -0.002023 0.000000 0.000000 0.000000
# 3 -0.002422 -0.002023 0.006995 0.000000 0.000000 0.000000
# 4 0.000000 0.000000 0.000000 0.022216 0.000000 0.000000
# 5 0.000000 0.000000 0.000000 0.000000 -0.179756 0.000000
# 6 0.000000 0.000000 0.000000 0.000000 0.000000 0.020897
#
#
# Mechanical properties :
#
#
# Convention : Reuss Voigt Hill
#
# Bulk Modulus (GPa) = 76.45871 79.51482 77.98677
# Shear Modulus (GPa) = -57.90794 34.38906 -11.75944
#
# Velocity S-wave (km/s) = -5.10431 3.93349 -2.30018
# Velocity P-wave (km/s) = 0.58162 7.51033 5.29466
#
# Compressibility (1/GPa) = 0.01307895
#
# Stress axis : x y z
#
# Youngs Moduli (GPa) = 89.93365 87.75978 142.96222
#
# Poissons Ratio (x) = 0.33084 0.34621
# Poissons Ratio (y) = 0.33904 0.28927
# Poissons Ratio (z) = 0.21779 0.17758
#
# Static dielectric constant tensor:
#      x y z
#    x 4.031470 0.000000 0.000000 
#    y 0.000000 3.853320 0.000000 
#    z 0.000000 0.000000 4.367680 
# 
# 
# High freq. dielectric constant tensor:
#      x y z
#    x 1.861470 0.000000 0.000000 
#    y 0.000000 1.875140 0.000000 
#    z 0.000000 0.000000 1.895640 
# 
# From -- ./inp_files/37779.got.cif
#   From: 2010.03.12/outbox.cif.g09.slc.cpg/sg65_19_cif.got.tgz:37779.got - 2010.04.10 20:52:16.
