data_PCOD8274628
_publ_section_title
;
Structure prediction by ZEFSAII (Michael W. Deem and Ramdas Pophale) SiO2 
 PCOD8274628
Probable space group: C M M M
;
_chemical_formula_sum "Si O2"
_cell_formula_units_Z 56
_cell_length_a 15.253330
_cell_length_b 11.962068
_cell_length_c 16.830448
_cell_angle_alpha 90.000000
_cell_angle_beta 90.000000
_cell_angle_gamma 90.000000
_cell_volume 3070.906611
_symmetry_space_group_name_H-M "C M M M"
_symmetry_group_IT_number 65
_symmetry_cell_setting 'orthorhombic'
loop_
_space_group_symop_operation_xyz
x,y,z
-x,-y,z
x,-y,-z
-x,y,-z
-x,-y,-z
x,y,-z
-x,y,z
x,-y,z
1/2+x,1/2+y,z
1/2-x,1/2-y,z
1/2+x,1/2-y,-z
1/2-x,1/2+y,-z
1/2-x,1/2-y,-z
1/2+x,1/2+y,-z
1/2-x,1/2+y,z
1/2+x,1/2-y,z
loop_
_atom_site_type_symbol
_atom_site_label
_atom_site_fract_x
_atom_site_fract_y
_atom_site_fract_z
Si Si1 0.895106 0.126903 0.670977
Si Si2 0.650882 0.725593 0.830013
Si Si3 0.095746 0.867685 0.500000
Si Si4 0.397816 0.500000 0.913560
Si Si5 0.000000 0.367481 0.092818
O O1 0.858729 0.215572 0.734786
O O2 0.857546 0.165341 0.583690
O O3 0.000000 0.130306 0.670568
O O4 0.864005 0.000000 0.690706
O O5 0.750000 0.750000 0.854240
O O6 0.627797 0.607192 0.865093
O O7 0.587161 0.820192 0.865257
O O8 0.000000 0.810749 0.500000
O O9 0.084037 0.000000 0.500000
O O10 0.500000 0.500000 0.926170
O O11 0.351310 0.500000 0.000000
O O12 0.000000 0.500000 0.103280
O O13 0.000000 0.332612 0.000000
#
# Coordination Sequence:
#
# PCOD8274628 Si02
#       5
#    16  16   8   8   8
#     4   9  15  30  55  84 115 145 185 236 282 335
#     4  12  24  38  60  89 116 152 191 237 291 343
#     4   7  12  22  47  84 114 141 177 228 287 331
#     4  11  22  40  64  86 110 146 197 248 292 337
#     4  11  26  45  59  78 115 155 192 237 290 346
#
# _framework density 18.235657
#
# number of rings (size 3 to 8) (size 9 to 14) (size 15 to 20)
#    0.000    1.857    4.286    2.571    2.000    2.286 
#    0.000    0.714    0.000    0.000    0.000    2.000 
#    0.000    0.000    0.000    0.000    0.000    0.000 
#
# Total GULP energy -346948.521066 kJ/mol
# GULP energy per Si atom -12391.018609 kJ/mol
# Density = 1.819415 g / cm^3
# Si number density = 18.235657 Si / 1000 Ang^3
#
#
#
# Elastic Constant Matrix: (Units=GPa)
#
#
# Indices 1 2 3 4 5 6 
#
# 1 88.9683 29.4073 33.2674 0.0000 0.0000 0.0000
# 2 29.4073 78.5864 45.9586 0.0000 0.0000 0.0000
# 3 33.2674 45.9586 159.7915 0.0000 0.0000 0.0000
# 4 0.0000 0.0000 0.0000 24.2272 0.0000 0.0000
# 5 0.0000 0.0000 0.0000 0.0000 18.5208 0.0000
# 6 0.0000 0.0000 0.0000 0.0000 0.0000 -23.6693
#
#
#
# Elastic Compliance Matrix: (Units=1/GPa)
#
#
# Indices 1 2 3 4 5 6 
#
# 1 0.013154 -0.003992 -0.001590 0.000000 0.000000 0.000000
# 2 -0.003992 0.016510 -0.003917 0.000000 0.000000 0.000000
# 3 -0.001590 -0.003917 0.007716 0.000000 0.000000 0.000000
# 4 0.000000 0.000000 0.000000 0.041276 0.000000 0.000000
# 5 0.000000 0.000000 0.000000 0.000000 0.053993 0.000000
# 6 0.000000 0.000000 0.000000 0.000000 0.000000 -0.042249
#
#
# Mechanical properties :
#
#
# Convention : Reuss Voigt Hill
#
# Bulk Modulus (GPa) = 54.40705 60.51252 57.45979
# Shear Modulus (GPa) = 43.27992 18.39658 30.83825
#
# Velocity S-wave (km/s) = 4.87701 3.17965 4.11676
# Velocity P-wave (km/s) = 7.84945 6.83636 7.36036
#
# Compressibility (1/GPa) = 0.01837997
#
# Stress axis : x y z
#
# Youngs Moduli (GPa) = 76.02112 60.57057 129.60198
#
# Poissons Ratio (x) = 0.24181 0.20612
# Poissons Ratio (y) = 0.30350 0.50769
# Poissons Ratio (z) = 0.12090 0.23727
#
# Static dielectric constant tensor:
#      x y z
#    x 0.000000 0.000000 0.000000 
#    y 0.000000 0.000000 0.000000 
#    z 0.000000 0.000000 0.000000 
# 
# 
# High freq. dielectric constant tensor:
#      x y z
#    x 1.673770 0.000000 0.000000 
#    y 0.000000 1.678140 0.000000 
#    z 0.000000 0.000000 1.738510 
# 
# From -- ./inp_files/50793.got.cif
#   From: 2010.03.12/outbox.cif.g09.slc.cpg/sg65_26_cif.got.tgz:50793.got - 2010.04.10 20:52:16.
