data_PCOD8274360
_publ_section_title
;
Structure prediction by ZEFSAII (Michael W. Deem and Ramdas Pophale) SiO2 
 PCOD8274360
Probable space group: C M M M
;
_chemical_formula_sum "Si O2"
_cell_formula_units_Z 88
_cell_length_a 21.396880
_cell_length_b 17.956799
_cell_length_c 11.947121
_cell_angle_alpha 90.000000
_cell_angle_beta 90.000000
_cell_angle_gamma 90.000000
_cell_volume 4590.316539
_symmetry_space_group_name_H-M "C M M M"
_symmetry_group_IT_number 65
_symmetry_cell_setting 'orthorhombic'
loop_
_space_group_symop_operation_xyz
x,y,z
-x,-y,z
x,-y,-z
-x,y,-z
-x,-y,-z
x,y,-z
-x,y,z
x,-y,z
1/2+x,1/2+y,z
1/2-x,1/2-y,z
1/2+x,1/2-y,-z
1/2-x,1/2+y,-z
1/2-x,1/2-y,-z
1/2+x,1/2+y,-z
1/2-x,1/2+y,z
1/2+x,1/2-y,z
loop_
_atom_site_type_symbol
_atom_site_label
_atom_site_fract_x
_atom_site_fract_y
_atom_site_fract_z
Si Si1 0.574229 0.415916 0.500000
Si Si2 0.718808 0.912934 0.128183
Si Si3 0.887439 0.652227 0.728504
Si Si4 0.000000 0.412755 0.867753
Si Si5 0.070202 0.587391 0.500000
Si Si6 0.573276 0.682917 0.706417
Si Si7 0.861660 0.082318 0.130570
O O1 0.602287 0.500000 0.500000
O O2 0.500000 0.420791 0.500000
O O3 0.597982 0.370147 0.392751
O O4 0.678770 0.864995 0.214988
O O5 0.790488 0.895140 0.157483
O O6 0.703697 0.000000 0.143664
O O7 0.703763 0.889719 0.000000
O O8 0.892523 0.611361 0.609954
O O9 0.890783 0.739467 0.703430
O O10 0.939708 0.625284 0.815059
O O11 0.000000 0.500000 0.838575
O O12 0.000000 0.398734 0.000000
O O13 0.064293 0.500000 0.500000
O O14 0.000000 0.622786 0.500000
O O15 0.500000 0.698730 0.697654
O O16 0.589590 0.641077 0.820647
O O17 0.875553 0.000000 0.179592
O O18 0.873118 0.081581 0.000000
#
# Coordination Sequence:
#
# PCOD8274360 Si02
#       7
#     8  16  16   8   8  16  16
#     4   9  19  37  62  83 105 146 198 237 279 340
#     4   9  19  38  61  82 110 152 201 245 279 328
#     4  12  22  36  55  84 118 154 188 234 289 337
#     4  11  22  35  53  79 111 151 198 234 264 318
#     4  11  21  35  56  79 112 155 196 234 281 338
#     4  11  22  37  56  86 120 151 181 236 294 349
#     4   9  20  39  61  84 111 148 193 239 291 348
#
# _framework density 19.170791000000001
#
# number of rings (size 3 to 8) (size 9 to 14) (size 15 to 20)
#    0.000    1.727    1.818    4.364    0.000    5.818 
#    0.000    3.636    0.000    5.455    0.000    0.000 
#    0.000    0.000    0.000    0.000    0.000    0.000 
#
# Total GULP energy -545688.368650 kJ/mol
# GULP energy per Si atom -12402.008378 kJ/mol
# Density = 1.912716 g / cm^3
# Si number density = 19.170791 Si / 1000 Ang^3
#
#
#
# Elastic Constant Matrix: (Units=GPa)
#
#
# Indices 1 2 3 4 5 6 
#
# 1 16.4565 17.8589 21.1012 0.0000 0.0000 0.0000
# 2 17.8589 120.8595 46.1174 0.0000 0.0000 0.0000
# 3 21.1012 46.1174 90.8206 0.0000 0.0000 0.0000
# 4 0.0000 0.0000 0.0000 15.2728 0.0000 0.0000
# 5 0.0000 0.0000 0.0000 0.0000 15.7222 0.0000
# 6 0.0000 0.0000 0.0000 0.0000 0.0000 23.6300
#
#
#
# Elastic Compliance Matrix: (Units=1/GPa)
#
#
# Indices 1 2 3 4 5 6 
#
# 1 0.090661 -0.006647 -0.017689 0.000000 0.000000 0.000000
# 2 -0.006647 0.010750 -0.003914 0.000000 0.000000 0.000000
# 3 -0.017689 -0.003914 0.017108 0.000000 0.000000 0.000000
# 4 0.000000 0.000000 0.000000 0.065476 0.000000 0.000000
# 5 0.000000 0.000000 0.000000 0.000000 0.063604 0.000000
# 6 0.000000 0.000000 0.000000 0.000000 0.000000 0.042319
#
#
# Mechanical properties :
#
#
# Convention : Reuss Voigt Hill
#
# Bulk Modulus (GPa) = 16.12416 44.25464 30.18940
# Shear Modulus (GPa) = 13.62059 20.46227 17.04143
#
# Velocity S-wave (km/s) = 2.66839 3.27060 2.98472
# Velocity P-wave (km/s) = 4.23353 6.11531 5.25927
#
# Compressibility (1/GPa) = 0.06201872
#
# Stress axis : x y z
#
# Youngs Moduli (GPa) = 11.03012 93.02446 58.45154
#
# Poissons Ratio (x) = 0.61832 1.03395
# Poissons Ratio (y) = 0.07332 0.22880
# Poissons Ratio (z) = 0.19511 0.36413
#
# Static dielectric constant tensor:
#      x y z
#    x 3.376330 0.000000 0.000000 
#    y 0.000000 3.632410 0.000000 
#    z 0.000000 0.000000 3.545630 
# 
# 
# High freq. dielectric constant tensor:
#      x y z
#    x 1.726410 0.000000 0.000000 
#    y 0.000000 1.752500 0.000000 
#    z 0.000000 0.000000 1.752750 
# 
# From -- ./inp_files/30553.got.cif
#   From: 2010.03.12/outbox.cif.g09.slc.cpg/sg65_16_cif.got.tgz:30553.got - 2010.04.10 20:52:16.
