data_PCOD8274419
_publ_section_title
;
Structure prediction by ZEFSAII (Michael W. Deem and Ramdas Pophale) SiO2 
 PCOD8274419
Probable space group: C M M M
;
_chemical_formula_sum "Si O2"
_cell_formula_units_Z 88
_cell_length_a 31.246774
_cell_length_b 14.035338
_cell_length_c 12.519919
_cell_angle_alpha 90.000000
_cell_angle_beta 90.000000
_cell_angle_gamma 90.000000
_cell_volume 5490.723589
_symmetry_space_group_name_H-M "C M M M"
_symmetry_group_IT_number 65
_symmetry_cell_setting 'orthorhombic'
loop_
_space_group_symop_operation_xyz
x,y,z
-x,-y,z
x,-y,-z
-x,y,-z
-x,-y,-z
x,y,-z
-x,y,z
x,-y,z
1/2+x,1/2+y,z
1/2-x,1/2-y,z
1/2+x,1/2-y,-z
1/2-x,1/2+y,-z
1/2-x,1/2-y,-z
1/2+x,1/2+y,-z
1/2-x,1/2+y,z
1/2+x,1/2-y,z
loop_
_atom_site_type_symbol
_atom_site_label
_atom_site_fract_x
_atom_site_fract_y
_atom_site_fract_z
Si Si1 0.181699 0.390901 0.872812
Si Si2 0.133065 0.892457 0.127839
Si Si3 0.597642 0.794362 0.805810
Si Si4 0.950556 0.390971 0.623303
Si Si5 0.273759 0.387576 0.116653
Si Si6 0.449394 0.109053 0.000000
O O1 0.174809 0.500000 0.839428
O O2 0.146165 0.329857 0.813336
O O3 0.228596 0.351632 0.831769
O O4 0.177217 0.378440 0.000000
O O5 0.098759 0.820231 0.179267
O O6 0.180883 0.867145 0.174908
O O7 0.120034 0.000000 0.160268
O O8 0.133468 0.882087 0.000000
O O9 0.578655 0.819221 0.690572
O O10 0.567908 0.840922 0.894849
O O11 0.938904 0.375660 0.500000
O O12 0.941294 0.500000 0.657478
O O13 0.000000 0.366800 0.644497
O O14 0.267903 0.500000 0.103224
O O15 0.277127 0.340296 0.000000
O O16 0.500000 0.116380 0.000000
O O17 0.433608 0.000000 0.000000
#
# Coordination Sequence:
#
# PCOD8274419 Si02
#       6
#    16  16  16  16  16   8
#     4   9  15  23  37  64 100 126 149 185 229 277
#     4   9  17  30  44  63  96 134 169 195 218 258
#     4  12  19  28  47  72  93 123 156 190 230 274
#     4   9  19  36  55  72  91 117 149 187 233 287
#     4   7  12  23  38  56  88 132 163 186 218 259
#     4  11  22  32  43  66  99 123 136 166 231 307
#
# _framework density 16.027031999999998
#
# number of rings (size 3 to 8) (size 9 to 14) (size 15 to 20)
#    0.000    2.636    1.818    4.909    0.000    2.182 
#    0.000    2.727    0.000    3.273    0.000    3.818 
#    0.000    4.364    0.000    0.000    0.000    0.000 
#
# Total GULP energy -545149.926173 kJ/mol
# GULP energy per Si atom -12389.771049 kJ/mol
# Density = 1.599055 g / cm^3
# Si number density = 16.027032 Si / 1000 Ang^3
#
#
#
# Elastic Constant Matrix: (Units=GPa)
#
#
# Indices 1 2 3 4 5 6 
#
# 1 77.2676 55.9534 35.4523 0.0000 0.0000 0.0000
# 2 55.9534 94.8741 36.3133 0.0000 0.0000 0.0000
# 3 35.4523 36.3133 52.9645 0.0000 0.0000 0.0000
# 4 0.0000 0.0000 0.0000 16.7259 0.0000 0.0000
# 5 0.0000 0.0000 0.0000 0.0000 14.3193 0.0000
# 6 0.0000 0.0000 0.0000 0.0000 0.0000 23.3942
#
#
#
# Elastic Compliance Matrix: (Units=1/GPa)
#
#
# Indices 1 2 3 4 5 6 
#
# 1 0.025494 -0.011529 -0.009160 0.000000 0.000000 0.000000
# 2 -0.011529 0.019504 -0.005655 0.000000 0.000000 0.000000
# 3 -0.009160 -0.005655 0.028889 0.000000 0.000000 0.000000
# 4 0.000000 0.000000 0.000000 0.059787 0.000000 0.000000
# 5 0.000000 0.000000 0.000000 0.000000 0.069836 0.000000
# 6 0.000000 0.000000 0.000000 0.000000 0.000000 0.042746
#
#
# Mechanical properties :
#
#
# Convention : Reuss Voigt Hill
#
# Bulk Modulus (GPa) = 47.17318 53.39379 50.28348
# Shear Modulus (GPa) = 16.33926 17.38036 16.85981
#
# Velocity S-wave (km/s) = 3.19640 3.29666 3.24691
# Velocity P-wave (km/s) = 6.56658 6.91938 6.74529
#
# Compressibility (1/GPa) = 0.02119849
#
# Stress axis : x y z
#
# Youngs Moduli (GPa) = 39.22517 51.27026 34.61511
#
# Poissons Ratio (x) = 0.59112 0.31707
# Poissons Ratio (y) = 0.45224 0.19576
# Poissons Ratio (z) = 0.35930 0.28995
#
# Static dielectric constant tensor:
#      x y z
#    x 3.270910 0.000000 0.000000 
#    y 0.000000 3.111060 0.000000 
#    z 0.000000 0.000000 2.611080 
# 
# 
# High freq. dielectric constant tensor:
#      x y z
#    x 1.626780 0.000000 0.000000 
#    y 0.000000 1.617290 0.000000 
#    z 0.000000 0.000000 1.543580 
# 
# From -- ./inp_files/33777.got.cif
#   From: 2010.03.12/outbox.cif.g09.slc.cpg/sg65_17_cif.got.tgz:33777.got - 2010.04.10 20:52:16.
