data_PCOD8274213
_publ_section_title
;
Structure prediction by ZEFSAII (Michael W. Deem and Ramdas Pophale) SiO2 
 PCOD8274213
Probable space group: C M M M
;
_chemical_formula_sum "Si O2"
_cell_formula_units_Z 112
_cell_length_a 14.436955
_cell_length_b 33.192162
_cell_length_c 14.152606
_cell_angle_alpha 90.000000
_cell_angle_beta 90.000000
_cell_angle_gamma 90.000000
_cell_volume 6781.840329
_symmetry_space_group_name_H-M "C M M M"
_symmetry_group_IT_number 65
_symmetry_cell_setting 'orthorhombic'
loop_
_space_group_symop_operation_xyz
x,y,z
-x,-y,z
x,-y,-z
-x,y,-z
-x,-y,-z
x,y,-z
-x,y,z
x,-y,z
1/2+x,1/2+y,z
1/2-x,1/2-y,z
1/2+x,1/2-y,-z
1/2-x,1/2+y,-z
1/2-x,1/2-y,-z
1/2+x,1/2+y,-z
1/2-x,1/2+y,z
1/2+x,1/2-y,z
loop_
_atom_site_type_symbol
_atom_site_label
_atom_site_fract_x
_atom_site_fract_y
_atom_site_fract_z
Si Si1 0.390400 0.312612 0.896681
Si Si2 0.889803 0.722712 0.896003
Si Si3 0.643436 0.260858 0.391792
Si Si4 0.398048 0.183583 0.289050
Si Si5 0.896345 0.455269 0.387784
Si Si6 0.225767 0.618045 0.612582
Si Si7 0.106322 0.153866 0.702875
O O1 0.500000 0.308070 0.894845
O O2 0.348179 0.267726 0.880791
O O3 0.360562 0.342440 0.812337
O O4 0.358266 0.329211 0.000000
O O5 0.853668 0.691917 0.815269
O O6 0.000000 0.724818 0.887128
O O7 0.860379 0.706592 0.000000
O O8 0.612531 0.262741 0.500000
O O9 0.750000 0.250000 0.380122
O O10 0.585964 0.226326 0.339763
O O11 0.618913 0.303381 0.346535
O O12 0.500000 0.163125 0.282006
O O13 0.329996 0.156286 0.349549
O O14 0.896945 0.454053 0.500000
O O15 0.867265 0.500000 0.352722
O O16 0.822721 0.422743 0.349427
O O17 0.000000 0.444893 0.350977
O O18 0.227481 0.620329 0.500000
O O19 0.330121 0.620068 0.652610
O O20 0.000000 0.139458 0.694821
#
# Coordination Sequence:
#
# PCOD8274213 Si02
#       7
#    16  16  16  16  16  16  16
#     4   8  14  27  46  63  79 109 159 210 246 272
#     4   8  14  26  43  61  82 113 155 200 245 286
#     4  11  21  32  42  55  84 127 168 202 228 261
#     4  11  20  30  45  64  88 119 155 197 241 279
#     4   8  15  31  55  78  97 119 148 182 226 278
#     4  11  22  33  46  68  98 124 151 192 231 271
#     4  11  21  33  47  63  89 127 165 197 233 280
#
# _framework density 16.514690999999999
#
# number of rings (size 3 to 8) (size 9 to 14) (size 15 to 20)
#    0.000    2.286    2.857    3.000    0.000    3.429 
#    0.000    0.714    0.000    3.000    0.000    2.000 
#    0.000    2.286    0.000   13.714    0.000    0.571 
#
# Total GULP energy -694046.737499 kJ/mol
# GULP energy per Si atom -12393.691741 kJ/mol
# Density = 1.647710 g / cm^3
# Si number density = 16.514691 Si / 1000 Ang^3
#
#
#
# Elastic Constant Matrix: (Units=GPa)
#
#
# Indices 1 2 3 4 5 6 
#
# 1 75.1691 41.1156 31.0568 0.0000 0.0000 0.0000
# 2 41.1156 77.2783 30.8264 0.0000 0.0000 0.0000
# 3 31.0568 30.8264 109.0797 0.0000 0.0000 0.0000
# 4 0.0000 0.0000 0.0000 3.6906 0.0000 0.0000
# 5 0.0000 0.0000 0.0000 0.0000 5.5343 0.0000
# 6 0.0000 0.0000 0.0000 0.0000 0.0000 20.6366
#
#
#
# Elastic Compliance Matrix: (Units=1/GPa)
#
#
# Indices 1 2 3 4 5 6 
#
# 1 0.019579 -0.009234 -0.002965 0.000000 0.000000 0.000000
# 2 -0.009234 0.018940 -0.002723 0.000000 0.000000 0.000000
# 3 -0.002965 -0.002723 0.010781 0.000000 0.000000 0.000000
# 4 0.000000 0.000000 0.000000 0.270961 0.000000 0.000000
# 5 0.000000 0.000000 0.000000 0.000000 0.180692 0.000000
# 6 0.000000 0.000000 0.000000 0.000000 0.000000 0.048458
#
#
# Mechanical properties :
#
#
# Convention : Reuss Voigt Hill
#
# Bulk Modulus (GPa) = 51.39987 51.94718 51.67353
# Shear Modulus (GPa) = 8.53619 16.54083 12.53851
#
# Velocity S-wave (km/s) = 2.27598 3.16821 2.75841
# Velocity P-wave (km/s) = 6.17236 6.70126 6.44224
#
# Compressibility (1/GPa) = 0.01945530
#
# Stress axis : x y z
#
# Youngs Moduli (GPa) = 51.07439 52.79921 92.75274
#
# Poissons Ratio (x) = 0.48757 0.27500
# Poissons Ratio (y) = 0.47164 0.25259
# Poissons Ratio (z) = 0.15143 0.14379
#
# Static dielectric constant tensor:
#      x y z
#    x 3.226310 0.000000 0.000000 
#    y 0.000000 2.891210 0.000000 
#    z 0.000000 0.000000 3.431230 
# 
# 
# High freq. dielectric constant tensor:
#      x y z
#    x 1.641510 0.000000 0.000000 
#    y 0.000000 1.572830 0.000000 
#    z 0.000000 0.000000 1.636090 
# 
# From -- ./inp_files/41329.got.cif
#   From: 2010.03.12/outbox.cif.g09.slc.cpg/sg65_21_cif.got.tgz:41329.got - 2010.04.10 20:52:16.
