data_PCOD8274057
_publ_section_title
;
Structure prediction by ZEFSAII (Michael W. Deem and Ramdas Pophale) SiO2 
 PCOD8274057
Probable space group: C M M M
;
_chemical_formula_sum "Si O2"
_cell_formula_units_Z 80
_cell_length_a 26.210212
_cell_length_b 17.056869
_cell_length_c 9.942816
_cell_angle_alpha 90.000000
_cell_angle_beta 90.000000
_cell_angle_gamma 90.000000
_cell_volume 4445.076609
_symmetry_space_group_name_H-M "C M M M"
_symmetry_group_IT_number 65
_symmetry_cell_setting 'orthorhombic'
loop_
_space_group_symop_operation_xyz
x,y,z
-x,-y,z
x,-y,-z
-x,y,-z
-x,-y,-z
x,y,-z
-x,y,z
x,-y,z
1/2+x,1/2+y,z
1/2-x,1/2-y,z
1/2+x,1/2-y,-z
1/2-x,1/2+y,-z
1/2-x,1/2-y,-z
1/2+x,1/2+y,-z
1/2-x,1/2+y,z
1/2+x,1/2-y,z
loop_
_atom_site_type_symbol
_atom_site_label
_atom_site_fract_x
_atom_site_fract_y
_atom_site_fract_z
Si Si1 0.939814 0.412275 0.500000
Si Si2 0.939848 0.406537 0.000000
Si Si3 0.055829 0.162507 0.153326
Si Si4 0.692234 0.276382 0.344601
Si Si5 0.659479 0.589058 0.154432
Si Si6 0.401080 0.183212 0.747810
O O1 0.917612 0.500000 0.500000
O O2 0.919611 0.368293 0.372668
O O3 0.000000 0.414065 0.500000
O O4 0.908848 0.371500 0.875794
O O5 0.934932 0.500000 0.000000
O O6 0.000000 0.382355 0.000000
O O7 0.098487 0.096609 0.178486
O O8 0.065306 0.238050 0.245742
O O9 0.000000 0.126886 0.186889
O O10 0.058362 0.192664 0.000000
O O11 0.675097 0.290170 0.500000
O O12 0.750000 0.250000 0.338517
O O13 0.688937 0.356595 0.259804
O O14 0.657673 0.209431 0.274045
O O15 0.675599 0.500000 0.183122
O O16 0.672886 0.612717 0.000000
#
# Coordination Sequence:
#
# PCOD8274057 Si02
#       6
#     8   8  16  16  16  16
#     4  11  22  34  51  78 115 153 186 231 290 344
#     4  11  22  36  57  84 119 159 192 229 286 352
#     4   9  16  28  51  79 107 143 179 212 256 318
#     4  10  22  41  63  82 106 149 199 240 287 340
#     4   9  19  35  56  86 117 143 179 227 281 336
#     4  11  20  36  55  82 110 147 191 238 281 340
#
# _framework density 17.997440999999998
#
# number of rings (size 3 to 8) (size 9 to 14) (size 15 to 20)
#    0.000    2.000    2.000    2.400    1.400    2.800 
#    0.000    4.000    0.000    0.000    0.000    2.800 
#    0.000    0.000    0.000    0.000    0.000    0.000 
#
# Total GULP energy -495860.548893 kJ/mol
# GULP energy per Si atom -12396.513722 kJ/mol
# Density = 1.795648 g / cm^3
# Si number density = 17.997441 Si / 1000 Ang^3
#
#
#
# Elastic Constant Matrix: (Units=GPa)
#
#
# Indices 1 2 3 4 5 6 
#
# 1 86.1703 34.2245 46.4736 0.0000 0.0000 0.0000
# 2 34.2245 103.3232 65.7474 0.0000 0.0000 0.0000
# 3 46.4736 65.7474 134.6366 0.0000 0.0000 0.0000
# 4 0.0000 0.0000 0.0000 39.2227 0.0000 0.0000
# 5 0.0000 0.0000 0.0000 0.0000 24.2809 0.0000
# 6 0.0000 0.0000 0.0000 0.0000 0.0000 18.1838
#
#
#
# Elastic Compliance Matrix: (Units=1/GPa)
#
#
# Indices 1 2 3 4 5 6 
#
# 1 0.014649 -0.002372 -0.003898 0.000000 0.000000 0.000000
# 2 -0.002372 0.014426 -0.006226 0.000000 0.000000 0.000000
# 3 -0.003898 -0.006226 0.011813 0.000000 0.000000 0.000000
# 4 0.000000 0.000000 0.000000 0.025495 0.000000 0.000000
# 5 0.000000 0.000000 0.000000 0.000000 0.041185 0.000000
# 6 0.000000 0.000000 0.000000 0.000000 0.000000 0.054994
#
#
# Mechanical properties :
#
#
# Convention : Reuss Voigt Hill
#
# Bulk Modulus (GPa) = 62.90753 68.55789 65.73271
# Shear Modulus (GPa) = 25.92642 28.18311 27.05477
#
# Velocity S-wave (km/s) = 3.79959 3.96150 3.88139
# Velocity P-wave (km/s) = 7.36741 7.68769 7.52925
#
# Compressibility (1/GPa) = 0.01589635
#
# Stress axis : x y z
#
# Youngs Moduli (GPa) = 68.26192 69.32101 84.65003
#
# Poissons Ratio (x) = 0.16441 0.33001
# Poissons Ratio (y) = 0.16190 0.52702
# Poissons Ratio (z) = 0.26612 0.43158
#
# Static dielectric constant tensor:
#      x y z
#    x 3.293060 0.000000 0.000000 
#    y 0.000000 3.335560 0.000000 
#    z 0.000000 0.000000 3.400740 
# 
# 
# High freq. dielectric constant tensor:
#      x y z
#    x 1.687000 0.000000 0.000000 
#    y 0.000000 1.694920 0.000000 
#    z 0.000000 0.000000 1.701430 
# 
# From -- ./inp_files/16064.got.cif
#   From: 2010.03.12/outbox.cif.g09.slc.cpg/sg65_9_cif.got.tgz:16064.got - 2010.04.10 20:52:16.
