data_PCOD8274843
_publ_section_title
;
Structure prediction by ZEFSAII (Michael W. Deem and Ramdas Pophale) SiO2 
 PCOD8274843
Probable space group: C M M M
;
_chemical_formula_sum "Si O2"
_cell_formula_units_Z 88
_cell_length_a 18.900375
_cell_length_b 9.224887
_cell_length_c 28.283563
_cell_angle_alpha 90.000000
_cell_angle_beta 90.000000
_cell_angle_gamma 90.000000
_cell_volume 4931.347355
_symmetry_space_group_name_H-M "C M M M"
_symmetry_group_IT_number 65
_symmetry_cell_setting 'orthorhombic'
loop_
_space_group_symop_operation_xyz
x,y,z
-x,-y,z
x,-y,-z
-x,y,-z
-x,-y,-z
x,y,-z
-x,y,z
x,-y,z
1/2+x,1/2+y,z
1/2-x,1/2-y,z
1/2+x,1/2-y,-z
1/2-x,1/2+y,-z
1/2-x,1/2-y,-z
1/2+x,1/2+y,-z
1/2-x,1/2+y,z
1/2+x,1/2-y,z
loop_
_atom_site_type_symbol
_atom_site_label
_atom_site_fract_x
_atom_site_fract_y
_atom_site_fract_z
Si Si1 0.916227 0.340207 0.816253
Si Si2 0.173726 0.825464 0.000000
Si Si3 0.915539 0.837534 0.271478
Si Si4 0.821103 0.330643 0.553067
Si Si5 0.418852 0.168960 0.637661
Si Si6 0.082511 0.330183 0.077251
O O1 0.884483 0.500000 0.807061
O O2 0.884733 0.232849 0.776661
O O3 0.896866 0.288396 0.869016
O O4 0.000000 0.348200 0.811588
O O5 0.250000 0.750000 0.000000
O O6 0.130579 0.773278 0.954317
O O7 0.181158 0.000000 0.000000
O O8 0.886742 0.752164 0.317192
O O9 0.000000 0.832783 0.270680
O O10 0.886415 0.000000 0.274161
O O11 0.846059 0.288959 0.500000
O O12 0.806000 0.500000 0.557012
O O13 0.750000 0.250000 0.567148
O O14 0.880697 0.280453 0.589787
O O15 0.500000 0.210573 0.630117
O O16 0.408625 0.000000 0.647728
O O17 0.098125 0.500000 0.067195
O O18 0.000000 0.298063 0.067078
#
# Coordination Sequence:
#
# PCOD8274843 Si02
#       6
#    16   8  16  16  16  16
#     4   8  14  26  46  71  98 129 161 192 232 283
#     4  12  25  38  53  73 101 137 173 208 249 298
#     4   9  16  25  40  66  99 129 156 191 234 278
#     4   9  18  32  49  68  90 119 155 194 237 283
#     4   9  17  29  46  68  94 124 157 193 233 279
#     4   9  18  34  56  80 105 132 164 205 250 294
#
# _framework density 17.845020999999999
#
# number of rings (size 3 to 8) (size 9 to 14) (size 15 to 20)
#    0.000    2.909    0.000    2.727    0.000    5.455 
#    0.000    3.636    0.000    1.091    0.000   10.182 
#    0.000    0.000    0.000    0.000    0.000    0.000 
#
# Total GULP energy -545433.433532 kJ/mol
# GULP energy per Si atom -12396.214398 kJ/mol
# Density = 1.780440 g / cm^3
# Si number density = 17.845021 Si / 1000 Ang^3
#
#
#
# Elastic Constant Matrix: (Units=GPa)
#
#
# Indices 1 2 3 4 5 6 
#
# 1 56.7408 44.3408 59.0362 0.0000 0.0000 0.0000
# 2 44.3408 97.6674 80.6922 0.0000 0.0000 0.0000
# 3 59.0362 80.6922 168.5097 0.0000 0.0000 0.0000
# 4 0.0000 0.0000 0.0000 27.2403 0.0000 0.0000
# 5 0.0000 0.0000 0.0000 0.0000 0.1405 0.0000
# 6 0.0000 0.0000 0.0000 0.0000 0.0000 21.5731
#
#
#
# Elastic Compliance Matrix: (Units=1/GPa)
#
#
# Indices 1 2 3 4 5 6 
#
# 1 0.031563 -0.008593 -0.006943 0.000000 0.000000 0.000000
# 2 -0.008593 0.019281 -0.006222 0.000000 0.000000 0.000000
# 3 -0.006943 -0.006222 0.011346 0.000000 0.000000 0.000000
# 4 0.000000 0.000000 0.000000 0.036710 0.000000 0.000000
# 5 0.000000 0.000000 0.000000 0.000000 7.117424 0.000000
# 6 0.000000 0.000000 0.000000 0.000000 0.000000 0.046354
#
#
# Mechanical properties :
#
#
# Convention : Reuss Voigt Hill
#
# Bulk Modulus (GPa) = 53.55207 76.78403 65.16805
# Shear Modulus (GPa) = 0.68377 19.04737 9.86557
#
# Velocity S-wave (km/s) = 0.61968 3.27062 2.35382
# Velocity P-wave (km/s) = 5.53052 7.57524 6.63215
#
# Compressibility (1/GPa) = 0.01867342
#
# Stress axis : x y z
#
# Youngs Moduli (GPa) = 31.68241 51.86461 88.13429
#
# Poissons Ratio (x) = 0.44570 0.61191
# Poissons Ratio (y) = 0.27226 0.54839
# Poissons Ratio (z) = 0.21997 0.32271
#
# Static dielectric constant tensor:
#      x y z
#    x 2.955360 0.000000 0.000000 
#    y 0.000000 3.374750 0.000000 
#    z 0.000000 0.000000 3.628380 
# 
# 
# High freq. dielectric constant tensor:
#      x y z
#    x 1.640420 0.000000 0.000000 
#    y 0.000000 1.687420 0.000000 
#    z 0.000000 0.000000 1.709480 
# 
# From -- ./inp_files/76461.got.cif
#   From: 2010.03.12/outbox.cif.g09.slc.cpg/sg65_39_cif.got.tgz:76461.got - 2010.04.10 20:52:16.
