data_PCOD8274079
_publ_section_title
;
Structure prediction by ZEFSAII (Michael W. Deem and Ramdas Pophale) SiO2 
 PCOD8274079
Probable space group: C M M M
;
_chemical_formula_sum "Si O2"
_cell_formula_units_Z 56
_cell_length_a 10.689203
_cell_length_b 26.332118
_cell_length_c 10.244666
_cell_angle_alpha 90.000000
_cell_angle_beta 90.000000
_cell_angle_gamma 90.000000
_cell_volume 2883.559528
_symmetry_space_group_name_H-M "C M M M"
_symmetry_group_IT_number 65
_symmetry_cell_setting 'orthorhombic'
loop_
_space_group_symop_operation_xyz
x,y,z
-x,-y,z
x,-y,-z
-x,y,-z
-x,-y,-z
x,y,-z
-x,y,z
x,-y,z
1/2+x,1/2+y,z
1/2-x,1/2-y,z
1/2+x,1/2-y,-z
1/2-x,1/2+y,-z
1/2-x,1/2-y,-z
1/2+x,1/2+y,-z
1/2-x,1/2+y,z
1/2+x,1/2-y,z
loop_
_atom_site_type_symbol
_atom_site_label
_atom_site_fract_x
_atom_site_fract_y
_atom_site_fract_z
Si Si1 0.144464 0.557466 0.500000
Si Si2 0.737060 0.603621 0.747890
Si Si3 0.645746 0.292841 0.151000
Si Si4 0.852852 0.556938 0.000000
Si Si5 0.000000 0.057594 0.356447
O O1 0.207909 0.500000 0.500000
O O2 0.177625 0.592203 0.376757
O O3 0.000000 0.547127 0.500000
O O4 0.690517 0.661577 0.756168
O O5 0.812089 0.588358 0.875160
O O6 0.615967 0.569426 0.734594
O O7 0.500000 0.276843 0.184525
O O8 0.750000 0.250000 0.177780
O O9 0.650852 0.309757 0.000000
O O10 0.795585 0.500000 0.000000
O O11 0.000000 0.553230 0.000000
O O12 0.000000 0.086119 0.500000
O O13 0.000000 0.000000 0.392207
#
# Coordination Sequence:
#
# PCOD8274079 Si02
#       5
#     8  16  16   8   8
#     4  11  24  41  62  91 132 178 218 255 309 390
#     4  12  22  40  64  92 127 167 213 264 322 380
#     4  10  22  42  65  93 127 165 212 271 330 390
#     4  11  24  39  58  91 132 168 210 263 319 386
#     4  11  22  37  63  95 131 171 211 251 312 385
#
# _framework density 19.420442000000001
#
# number of rings (size 3 to 8) (size 9 to 14) (size 15 to 20)
#    0.000    1.000    4.286    3.429    0.000    5.143 
#    0.000    2.143    0.000    0.000    0.000    0.000 
#    0.000    0.000    0.000    0.000    0.000    0.000 
#
# Total GULP energy -346988.245589 kJ/mol
# GULP energy per Si atom -12392.437342 kJ/mol
# Density = 1.937624 g / cm^3
# Si number density = 19.420442 Si / 1000 Ang^3
#
#
#
# Elastic Constant Matrix: (Units=GPa)
#
#
# Indices 1 2 3 4 5 6 
#
# 1 125.2606 57.1443 44.0459 0.0000 0.0000 0.0000
# 2 57.1443 111.2232 45.6656 0.0000 0.0000 0.0000
# 3 44.0459 45.6656 124.1688 0.0000 0.0000 0.0000
# 4 0.0000 0.0000 0.0000 31.2022 0.0000 0.0000
# 5 0.0000 0.0000 0.0000 0.0000 32.2495 0.0000
# 6 0.0000 0.0000 0.0000 0.0000 0.0000 36.4562
#
#
#
# Elastic Compliance Matrix: (Units=1/GPa)
#
#
# Indices 1 2 3 4 5 6 
#
# 1 0.010884 -0.004719 -0.002125 0.000000 0.000000 0.000000
# 2 -0.004719 0.012636 -0.002973 0.000000 0.000000 0.000000
# 3 -0.002125 -0.002973 0.009901 0.000000 0.000000 0.000000
# 4 0.000000 0.000000 0.000000 0.032049 0.000000 0.000000
# 5 0.000000 0.000000 0.000000 0.000000 0.031008 0.000000
# 6 0.000000 0.000000 0.000000 0.000000 0.000000 0.027430
#
#
# Mechanical properties :
#
#
# Convention : Reuss Voigt Hill
#
# Bulk Modulus (GPa) = 72.53943 72.70713 72.62328
# Shear Modulus (GPa) = 33.75223 34.23472 33.99347
#
# Velocity S-wave (km/s) = 4.17342 4.20315 4.18831
# Velocity P-wave (km/s) = 7.78823 7.81505 7.80165
#
# Compressibility (1/GPa) = 0.01378561
#
# Stress axis : x y z
#
# Youngs Moduli (GPa) = 91.88182 79.13697 101.00162
#
# Poissons Ratio (x) = 0.37347 0.21464
# Poissons Ratio (y) = 0.43361 0.30030
# Poissons Ratio (z) = 0.19526 0.23529
#
# Static dielectric constant tensor:
#      x y z
#    x 3.829600 0.000000 0.000000 
#    y 0.000000 3.508100 0.000000 
#    z 0.000000 0.000000 3.620310 
# 
# 
# High freq. dielectric constant tensor:
#      x y z
#    x 1.777650 0.000000 0.000000 
#    y 0.000000 1.744390 0.000000 
#    z 0.000000 0.000000 1.753900 
# 
# From -- ./inp_files/4493.got.cif
#   From: 2010.03.12/outbox.cif.g09.slc.cpg/sg65_3_cif.got.tgz:4493.got - 2010.04.10 20:52:16.
