data_PCOD8274264
_publ_section_title
;
Structure prediction by ZEFSAII (Michael W. Deem and Ramdas Pophale) SiO2 
 PCOD8274264
Probable space group: C M M M
;
_chemical_formula_sum "Si O2"
_cell_formula_units_Z 80
_cell_length_a 27.376395
_cell_length_b 18.522256
_cell_length_c 8.928264
_cell_angle_alpha 90.000000
_cell_angle_beta 90.000000
_cell_angle_gamma 90.000000
_cell_volume 4527.278009
_symmetry_space_group_name_H-M "C M M M"
_symmetry_group_IT_number 65
_symmetry_cell_setting 'orthorhombic'
loop_
_space_group_symop_operation_xyz
x,y,z
-x,-y,z
x,-y,-z
-x,y,-z
-x,-y,-z
x,y,-z
-x,y,z
x,-y,z
1/2+x,1/2+y,z
1/2-x,1/2-y,z
1/2+x,1/2-y,-z
1/2-x,1/2+y,-z
1/2-x,1/2-y,-z
1/2+x,1/2+y,-z
1/2-x,1/2+y,z
1/2+x,1/2-y,z
loop_
_atom_site_type_symbol
_atom_site_label
_atom_site_fract_x
_atom_site_fract_y
_atom_site_fract_z
Si Si1 0.605802 0.709307 0.675842
Si Si2 0.851254 0.420891 0.823304
Si Si3 0.302560 0.776629 0.177866
Si Si4 0.556290 0.417373 0.828754
Si Si5 0.554804 0.162871 0.174424
O O1 0.611355 0.717156 0.500000
O O2 0.657858 0.723935 0.751083
O O3 0.589814 0.628830 0.718386
O O4 0.564566 0.764222 0.734342
O O5 0.839540 0.500000 0.751927
O O6 0.812951 0.359495 0.768611
O O7 0.906377 0.398236 0.776339
O O8 0.847917 0.427519 0.000000
O O9 0.250000 0.750000 0.235204
O O10 0.306982 0.770921 0.000000
O O11 0.500000 0.407131 0.783842
O O12 0.572221 0.500000 0.808270
O O13 0.564501 0.392707 0.000000
O O14 0.500000 0.135036 0.208636
O O15 0.561578 0.181676 0.000000
#
# Coordination Sequence:
#
# PCOD8274264 Si02
#       5
#    16  16  16  16  16
#     4  11  21  31  47  71  99 128 159 198 243 295
#     4   8  14  26  46  72  97 119 151 198 243 278
#     4   9  18  34  54  72  92 122 162 205 247 292
#     4   9  18  33  52  72  96 129 167 205 244 285
#     4   9  17  29  46  68  95 128 163 196 231 278
#
# _framework density 17.670662
#
# number of rings (size 3 to 8) (size 9 to 14) (size 15 to 20)
#    0.000    2.800    0.000    4.200    0.000    4.400 
#    0.000    4.000    0.000   13.200    0.000    5.600 
#    0.000    0.000    0.000    0.000    0.000    0.000 
#
# Total GULP energy -495856.320179 kJ/mol
# GULP energy per Si atom -12396.408004 kJ/mol
# Density = 1.763044 g / cm^3
# Si number density = 17.670662 Si / 1000 Ang^3
#
#
#
# Elastic Constant Matrix: (Units=GPa)
#
#
# Indices 1 2 3 4 5 6 
#
# 1 126.0750 68.3323 24.5363 0.0000 0.0000 0.0000
# 2 68.3323 124.5678 23.0739 0.0000 0.0000 0.0000
# 3 24.5363 23.0739 36.9926 0.0000 0.0000 0.0000
# 4 0.0000 0.0000 0.0000 7.9811 0.0000 0.0000
# 5 0.0000 0.0000 0.0000 0.0000 7.8036 0.0000
# 6 0.0000 0.0000 0.0000 0.0000 0.0000 20.5528
#
#
#
# Elastic Compliance Matrix: (Units=1/GPa)
#
#
# Indices 1 2 3 4 5 6 
#
# 1 0.011865 -0.005711 -0.004308 0.000000 0.000000 0.000000
# 2 -0.005711 0.011825 -0.003588 0.000000 0.000000 0.000000
# 3 -0.004308 -0.003588 0.032128 0.000000 0.000000 0.000000
# 4 0.000000 0.000000 0.000000 0.125297 0.000000 0.000000
# 5 0.000000 0.000000 0.000000 0.000000 0.128146 0.000000
# 6 0.000000 0.000000 0.000000 0.000000 0.000000 0.048655
#
#
# Mechanical properties :
#
#
# Convention : Reuss Voigt Hill
#
# Bulk Modulus (GPa) = 34.95922 57.72451 46.34187
# Shear Modulus (GPa) = 12.66898 18.71367 15.69132
#
# Velocity S-wave (km/s) = 2.68050 3.25780 2.98314
# Velocity P-wave (km/s) = 5.42280 6.84754 6.17639
#
# Compressibility (1/GPa) = 0.02860476
#
# Stress axis : x y z
#
# Youngs Moduli (GPa) = 84.27807 84.56589 31.12574
#
# Poissons Ratio (x) = 0.48295 0.13409
# Poissons Ratio (y) = 0.48130 0.11168
# Poissons Ratio (z) = 0.36307 0.30342
#
# Static dielectric constant tensor:
#      x y z
#    x 3.284890 0.000000 0.000000 
#    y 0.000000 3.501260 0.000000 
#    z 0.000000 0.000000 2.963140 
# 
# 
# High freq. dielectric constant tensor:
#      x y z
#    x 1.673470 0.000000 0.000000 
#    y 0.000000 1.684440 0.000000 
#    z 0.000000 0.000000 1.651380 
# 
# From -- ./inp_files/9644.got.cif
#   From: 2010.03.12/outbox.cif.g09.slc.cpg/sg65_5_cif.got.tgz:9644.got - 2010.04.10 20:52:16.
