data_PCOD8274242
_publ_section_title
;
Structure prediction by ZEFSAII (Michael W. Deem and Ramdas Pophale) SiO2 
 PCOD8274242
Probable space group: C M M M
;
_chemical_formula_sum "Si O2"
_cell_formula_units_Z 96
_cell_length_a 15.118245
_cell_length_b 24.875483
_cell_length_c 13.707916
_cell_angle_alpha 90.000000
_cell_angle_beta 90.000000
_cell_angle_gamma 90.000000
_cell_volume 5155.185956
_symmetry_space_group_name_H-M "C M M M"
_symmetry_group_IT_number 65
_symmetry_cell_setting 'orthorhombic'
loop_
_space_group_symop_operation_xyz
x,y,z
-x,-y,z
x,-y,-z
-x,y,-z
-x,-y,-z
x,y,-z
-x,y,z
x,-y,z
1/2+x,1/2+y,z
1/2-x,1/2-y,z
1/2+x,1/2-y,-z
1/2-x,1/2+y,-z
1/2-x,1/2-y,-z
1/2+x,1/2+y,-z
1/2-x,1/2+y,z
1/2+x,1/2-y,z
loop_
_atom_site_type_symbol
_atom_site_label
_atom_site_fract_x
_atom_site_fract_y
_atom_site_fract_z
Si Si1 0.148854 0.166955 0.734426
Si Si2 0.715807 0.060755 0.107943
Si Si3 0.896129 0.248698 0.110783
Si Si4 0.500000 0.157431 0.390261
Si Si5 0.000000 0.783820 0.607076
Si Si6 0.343642 0.847539 0.753146
Si Si7 0.597836 0.440230 0.815820
O O1 0.146084 0.195203 0.841340
O O2 0.090102 0.200487 0.660265
O O3 0.250969 0.167679 0.701012
O O4 0.110595 0.106280 0.735114
O O5 0.667674 0.098469 0.184719
O O6 0.822894 0.067142 0.107011
O O7 0.689143 0.000000 0.134910
O O8 0.682457 0.075678 0.000000
O O9 0.873965 0.300703 0.174483
O O10 0.000000 0.240176 0.110614
O O11 0.859906 0.254991 0.000000
O O12 0.500000 0.132307 0.500000
O O13 0.500000 0.220703 0.399112
O O14 0.413275 0.139044 0.331375
O O15 0.000000 0.810108 0.500000
O O16 0.500000 0.433659 0.864594
O O17 0.604511 0.500000 0.767426
#
# Coordination Sequence:
#
# PCOD8274242 Si02
#       7
#    16  16  16   8   8  16  16
#     4  11  20  35  55  81 115 147 182 224 274 331
#     4   9  19  34  53  83 118 152 189 225 264 319
#     4  11  21  34  54  80 113 150 184 222 271 328
#     4  11  24  42  61  82 108 137 184 242 291 339
#     4  11  22  38  57  83 116 142 177 232 286 338
#     4  11  21  37  60  80 111 146 184 228 281 330
#     4   9  17  30  52  77 111 157 193 222 259 310
#
# _framework density 18.622025000000001
#
# number of rings (size 3 to 8) (size 9 to 14) (size 15 to 20)
#    0.000    1.667    4.167    1.000    0.000    5.000 
#    0.000    3.750    0.000    3.000    0.000    4.667 
#    0.000    0.000    0.000    0.000    0.000    0.000 
#
# Total GULP energy -594941.958385 kJ/mol
# GULP energy per Si atom -12394.624133 kJ/mol
# Density = 1.857964 g / cm^3
# Si number density = 18.622025 Si / 1000 Ang^3
#
#
#
# Elastic Constant Matrix: (Units=GPa)
#
#
# Indices 1 2 3 4 5 6 
#
# 1 124.7529 29.7000 60.4189 0.0000 0.0000 0.0000
# 2 29.7000 76.8147 36.8079 0.0000 0.0000 0.0000
# 3 60.4189 36.8079 115.7146 0.0000 0.0000 0.0000
# 4 0.0000 0.0000 0.0000 17.3732 0.0000 0.0000
# 5 0.0000 0.0000 0.0000 0.0000 5.1374 0.0000
# 6 0.0000 0.0000 0.0000 0.0000 0.0000 25.7573
#
#
#
# Elastic Compliance Matrix: (Units=1/GPa)
#
#
# Indices 1 2 3 4 5 6 
#
# 1 0.010927 -0.001759 -0.005146 0.000000 0.000000 0.000000
# 2 -0.001759 0.015643 -0.004057 0.000000 0.000000 0.000000
# 3 -0.005146 -0.004057 0.012619 0.000000 0.000000 0.000000
# 4 0.000000 0.000000 0.000000 0.057560 0.000000 0.000000
# 5 0.000000 0.000000 0.000000 0.000000 0.194651 0.000000
# 6 0.000000 0.000000 0.000000 0.000000 0.000000 0.038824
#
#
# Mechanical properties :
#
#
# Convention : Reuss Voigt Hill
#
# Bulk Modulus (GPa) = 57.92229 63.45953 60.69091
# Shear Modulus (GPa) = 13.97029 22.34394 18.15711
#
# Velocity S-wave (km/s) = 2.74195 3.46767 3.12594
# Velocity P-wave (km/s) = 6.41842 7.08411 6.75946
#
# Compressibility (1/GPa) = 0.01726451
#
# Stress axis : x y z
#
# Youngs Moduli (GPa) = 91.51857 63.92773 79.24353
#
# Poissons Ratio (x) = 0.11245 0.40776
# Poissons Ratio (y) = 0.16099 0.32152
# Poissons Ratio (z) = 0.47093 0.25938
#
# Static dielectric constant tensor:
#      x y z
#    x 3.576670 0.000000 0.000000 
#    y 0.000000 3.583500 0.000000 
#    z 0.000000 0.000000 3.439680 
# 
# 
# High freq. dielectric constant tensor:
#      x y z
#    x 1.733220 0.000000 0.000000 
#    y 0.000000 1.727810 0.000000 
#    z 0.000000 0.000000 1.686050 
# 
# From -- ./inp_files/40690.got.cif
#   From: 2010.03.12/outbox.cif.g09.slc.cpg/sg65_21_cif.got.tgz:40690.got - 2010.04.10 20:52:16.
