data_PCOD8274104
_publ_section_title
;
Structure prediction by ZEFSAII (Michael W. Deem and Ramdas Pophale) SiO2 
 PCOD8274104
Probable space group: C M M M
;
_chemical_formula_sum "Si O2"
_cell_formula_units_Z 88
_cell_length_a 17.144598
_cell_length_b 14.872975
_cell_length_c 16.786063
_cell_angle_alpha 90.000000
_cell_angle_beta 90.000000
_cell_angle_gamma 90.000000
_cell_volume 4280.297969
_symmetry_space_group_name_H-M "C M M M"
_symmetry_group_IT_number 65
_symmetry_cell_setting 'orthorhombic'
loop_
_space_group_symop_operation_xyz
x,y,z
-x,-y,z
x,-y,-z
-x,y,-z
-x,-y,-z
x,y,-z
-x,y,z
x,-y,z
1/2+x,1/2+y,z
1/2-x,1/2-y,z
1/2+x,1/2-y,-z
1/2-x,1/2+y,-z
1/2-x,1/2-y,-z
1/2+x,1/2+y,-z
1/2-x,1/2+y,z
1/2+x,1/2-y,z
loop_
_atom_site_type_symbol
_atom_site_label
_atom_site_fract_x
_atom_site_fract_y
_atom_site_fract_z
Si Si1 0.650958 0.167761 0.734875
Si Si2 0.349141 0.648631 0.820842
Si Si3 0.089782 0.500000 0.827993
Si Si4 0.688989 0.401744 0.661293
Si Si5 0.500000 0.602258 0.093462
Si Si6 0.087238 0.763272 0.587322
Si Si7 0.752050 0.500000 0.092807
O O1 0.669494 0.247248 0.798447
O O2 0.603798 0.087840 0.775199
O O3 0.732724 0.138684 0.698027
O O4 0.598006 0.194853 0.659698
O O5 0.369100 0.597406 0.737874
O O6 0.424281 0.653165 0.875994
O O7 0.280787 0.591683 0.866010
O O8 0.153798 0.500000 0.899144
O O9 0.000000 0.500000 0.859981
O O10 0.703321 0.500000 0.625657
O O11 0.651615 0.342291 0.591993
O O12 0.500000 0.500000 0.123669
O O13 0.500000 0.607686 0.000000
O O14 0.099179 0.717281 0.500000
O O15 0.000000 0.803650 0.592871
O O16 0.728267 0.500000 0.000000
#
# Coordination Sequence:
#
# PCOD8274104 Si02
#       7
#    16  16   8  16   8  16   8
#     4  11  23  43  70  92 122 175 224 269 315 371
#     4  11  21  38  64  94 129 163 212 258 321 392
#     4  12  26  45  68  91 126 171 232 275 312 376
#     4  11  21  39  66  92 125 168 218 264 314 380
#     4  11  22  36  58  93 136 166 199 263 328 397
#     4  10  23  40  61  97 138 169 206 262 330 389
#     4  12  24  44  70  97 132 165 204 271 335 388
#
# _framework density 20.559317
#
# number of rings (size 3 to 8) (size 9 to 14) (size 15 to 20)
#    0.000    1.000    4.545    3.273    6.364    2.364 
#    0.000    4.091    0.000    1.636    0.000    0.000 
#    0.000    0.000    0.000    0.000    0.000    0.000 
#
# Total GULP energy -545172.466357 kJ/mol
# GULP energy per Si atom -12390.283326 kJ/mol
# Density = 2.051252 g / cm^3
# Si number density = 20.559317 Si / 1000 Ang^3
#
#
#
# Elastic Constant Matrix: (Units=GPa)
#
#
# Indices 1 2 3 4 5 6 
#
# 1 111.8305 22.0461 22.4462 0.0000 0.0000 0.0000
# 2 22.0461 121.3029 27.7901 0.0000 0.0000 0.0000
# 3 22.4462 27.7901 93.9185 0.0000 0.0000 0.0000
# 4 0.0000 0.0000 0.0000 20.8281 0.0000 0.0000
# 5 0.0000 0.0000 0.0000 0.0000 30.0127 0.0000
# 6 0.0000 0.0000 0.0000 0.0000 0.0000 -11.2324
#
#
#
# Elastic Compliance Matrix: (Units=1/GPa)
#
#
# Indices 1 2 3 4 5 6 
#
# 1 0.009582 -0.001305 -0.001904 0.000000 0.000000 0.000000
# 2 -0.001305 0.009021 -0.002357 0.000000 0.000000 0.000000
# 3 -0.001904 -0.002357 0.011800 0.000000 0.000000 0.000000
# 4 0.000000 0.000000 0.000000 0.048012 0.000000 0.000000
# 5 0.000000 0.000000 0.000000 0.000000 0.033319 0.000000
# 6 0.000000 0.000000 0.000000 0.000000 0.000000 -0.089028
#
#
# Mechanical properties :
#
#
# Convention : Reuss Voigt Hill
#
# Bulk Modulus (GPa) = 51.89414 52.40187 52.14800
# Shear Modulus (GPa) = 124.18724 24.90631 74.54677
#
# Velocity S-wave (km/s) = 7.78046 3.48435 6.02811
# Velocity P-wave (km/s) = 10.29611 6.45996 8.59479
#
# Compressibility (1/GPa) = 0.01927000
#
# Stress axis : x y z
#
# Youngs Moduli (GPa) = 104.36747 110.85112 84.74534
#
# Poissons Ratio (x) = 0.14469 0.16133
# Poissons Ratio (y) = 0.13623 0.19978
# Poissons Ratio (z) = 0.19869 0.26132
#
# Static dielectric constant tensor:
#      x y z
#    x 3.922010 0.000000 0.000000 
#    y 0.000000 3.819710 0.000000 
#    z 0.000000 0.000000 3.943340 
# 
# 
# High freq. dielectric constant tensor:
#      x y z
#    x 1.811490 0.000000 0.000000 
#    y 0.000000 1.797680 0.000000 
#    z 0.000000 0.000000 1.797230 
# 
# From -- ./inp_files/54393.got.cif
#   From: 2010.03.12/outbox.cif.g09.slc.cpg/sg65_28_cif.got.tgz:54393.got - 2010.04.10 20:52:16.
