data_PCOD8274315
_publ_section_title
;
Structure prediction by ZEFSAII (Michael W. Deem and Ramdas Pophale) SiO2 
 PCOD8274315
Probable space group: C M M M
;
_chemical_formula_sum "Si O2"
_cell_formula_units_Z 104
_cell_length_a 19.349052
_cell_length_b 8.946552
_cell_length_c 33.605174
_cell_angle_alpha 90.000000
_cell_angle_beta 90.000000
_cell_angle_gamma 90.000000
_cell_volume 5817.300933
_symmetry_space_group_name_H-M "C M M M"
_symmetry_group_IT_number 65
_symmetry_cell_setting 'orthorhombic'
loop_
_space_group_symop_operation_xyz
x,y,z
-x,-y,z
x,-y,-z
-x,y,-z
-x,-y,-z
x,y,-z
-x,y,z
x,-y,z
1/2+x,1/2+y,z
1/2-x,1/2-y,z
1/2+x,1/2-y,-z
1/2-x,1/2+y,-z
1/2-x,1/2-y,-z
1/2+x,1/2+y,-z
1/2-x,1/2+y,z
1/2+x,1/2-y,z
loop_
_atom_site_type_symbol
_atom_site_label
_atom_site_fract_x
_atom_site_fract_y
_atom_site_fract_z
Si Si1 0.082294 0.831575 0.921731
Si Si2 0.920404 0.329104 0.453825
Si Si3 0.421265 0.823419 0.842108
Si Si4 0.676402 0.825758 0.772211
Si Si5 0.082485 0.331471 0.000000
Si Si6 0.674901 0.676710 0.392315
Si Si7 0.324079 0.824883 0.684737
O O1 0.109338 0.749401 0.882159
O O2 0.111987 0.749858 0.960789
O O3 0.000000 0.826733 0.922737
O O4 0.110348 0.000000 0.921609
O O5 0.904679 0.301948 0.500000
O O6 0.903165 0.500000 0.442222
O O7 0.872845 0.216064 0.429527
O O8 0.000000 0.293442 0.444300
O O9 0.500000 0.772447 0.834752
O O10 0.377069 0.763835 0.804799
O O11 0.416300 0.000000 0.847034
O O12 0.750000 0.750000 0.778027
O O13 0.642506 0.796506 0.728346
O O14 0.689330 0.000000 0.778252
O O15 0.110184 0.500000 0.000000
O O16 0.000000 0.327319 0.000000
O O17 0.682888 0.500000 0.388811
O O18 0.750000 0.750000 0.398293
O O19 0.637693 0.742810 0.352152
O O20 0.250000 0.750000 0.686814
O O21 0.318424 0.000000 0.675217
#
# Coordination Sequence:
#
# PCOD8274315 Si02
#       7
#    16  16  16  16   8  16  16
#     4   9  16  25  38  59  87 117 149 187 231 275
#     4   9  19  37  58  77 100 132 167 202 243 292
#     4   9  17  30  46  65  92 123 154 189 231 279
#     4   9  18  31  49  71  93 122 160 199 237 280
#     4   9  15  23  37  57  82 115 152 187 226 273
#     4  11  21  33  52  77 104 132 164 204 247 290
#     4   9  16  29  48  70  96 125 160 200 243 287
#
# _framework density 17.877707000000001
#
# number of rings (size 3 to 8) (size 9 to 14) (size 15 to 20)
#    0.000    2.692    0.000    3.923    0.000    4.923 
#    0.000    1.538    0.000    2.769    0.000    0.538 
#    0.000    0.000    0.000    0.000    0.000    0.000 
#
# Total GULP energy -644528.004881 kJ/mol
# GULP energy per Si atom -12394.769325 kJ/mol
# Density = 1.783702 g / cm^3
# Si number density = 17.877707 Si / 1000 Ang^3
#
#
#
# Elastic Constant Matrix: (Units=GPa)
#
#
# Indices 1 2 3 4 5 6 
#
# 1 47.4688 32.5989 54.2772 0.0000 0.0000 0.0000
# 2 32.5989 105.5701 67.5417 0.0000 0.0000 0.0000
# 3 54.2772 67.5417 158.4518 0.0000 0.0000 0.0000
# 4 0.0000 0.0000 0.0000 31.1628 0.0000 0.0000
# 5 0.0000 0.0000 0.0000 0.0000 21.7135 0.0000
# 6 0.0000 0.0000 0.0000 0.0000 0.0000 18.8149
#
#
#
# Elastic Compliance Matrix: (Units=1/GPa)
#
#
# Indices 1 2 3 4 5 6 
#
# 1 0.036088 -0.004448 -0.010466 0.000000 0.000000 0.000000
# 2 -0.004448 0.013572 -0.004262 0.000000 0.000000 0.000000
# 3 -0.010466 -0.004262 0.011713 0.000000 0.000000 0.000000
# 4 0.000000 0.000000 0.000000 0.032090 0.000000 0.000000
# 5 0.000000 0.000000 0.000000 0.000000 0.046054 0.000000
# 6 0.000000 0.000000 0.000000 0.000000 0.000000 0.053149
#
#
# Mechanical properties :
#
#
# Convention : Reuss Voigt Hill
#
# Bulk Modulus (GPa) = 43.43624 68.92513 56.18068
# Shear Modulus (GPa) = 20.94755 24.80977 22.87866
#
# Velocity S-wave (km/s) = 3.42674 3.72929 3.58121
# Velocity P-wave (km/s) = 6.32502 7.56180 6.97089
#
# Compressibility (1/GPa) = 0.02302225
#
# Stress axis : x y z
#
# Youngs Moduli (GPa) = 27.71006 73.67883 85.37667
#
# Poissons Ratio (x) = 0.32770 0.89355
# Poissons Ratio (y) = 0.12325 0.36386
# Poissons Ratio (z) = 0.29001 0.31401
#
# Static dielectric constant tensor:
#      x y z
#    x 2.850940 0.000000 0.000000 
#    y 0.000000 3.347260 0.000000 
#    z 0.000000 0.000000 3.926300 
# 
# 
# High freq. dielectric constant tensor:
#      x y z
#    x 1.634330 0.000000 0.000000 
#    y 0.000000 1.697630 0.000000 
#    z 0.000000 0.000000 1.714130 
# 
# From -- ./inp_files/78362.got.cif
#   From: 2010.03.12/outbox.cif.g09.slc.cpg/sg65_40_cif.got.tgz:78362.got - 2010.04.10 20:52:16.
