data_PCOD8274696
_publ_section_title
;
Structure prediction by ZEFSAII (Michael W. Deem and Ramdas Pophale) SiO2 
 PCOD8274696
Probable space group: C M M M
;
_chemical_formula_sum "Si O2"
_cell_formula_units_Z 88
_cell_length_a 18.336306
_cell_length_b 8.056107
_cell_length_c 29.593055
_cell_angle_alpha 90.000000
_cell_angle_beta 90.000000
_cell_angle_gamma 90.000000
_cell_volume 4371.463686
_symmetry_space_group_name_H-M "C M M M"
_symmetry_group_IT_number 65
_symmetry_cell_setting 'orthorhombic'
loop_
_space_group_symop_operation_xyz
x,y,z
-x,-y,z
x,-y,-z
-x,y,-z
-x,-y,-z
x,y,-z
-x,y,z
x,-y,z
1/2+x,1/2+y,z
1/2-x,1/2-y,z
1/2+x,1/2-y,-z
1/2-x,1/2+y,-z
1/2-x,1/2-y,-z
1/2+x,1/2+y,-z
1/2-x,1/2+y,z
1/2+x,1/2-y,z
loop_
_atom_site_type_symbol
_atom_site_label
_atom_site_fract_x
_atom_site_fract_y
_atom_site_fract_z
Si Si1 0.831394 0.688506 0.800765
Si Si2 0.417785 0.309910 0.716919
Si Si3 0.668016 0.188837 0.365879
Si Si4 0.414131 0.193539 0.888194
Si Si5 0.416565 0.305945 0.448649
Si Si6 0.586306 0.500000 0.050408
O O1 0.826201 0.500000 0.813298
O O2 0.750000 0.750000 0.795080
O O3 0.873523 0.709278 0.753999
O O4 0.875000 0.764831 0.843074
O O5 0.500000 0.240117 0.713980
O O6 0.417633 0.500000 0.731977
O O7 0.380851 0.295606 0.668068
O O8 0.750000 0.250000 0.364850
O O9 0.636690 0.204225 0.416318
O O10 0.665239 0.000000 0.349782
O O11 0.500000 0.205355 0.879333
O O12 0.388452 0.326592 0.926089
O O13 0.394024 0.000000 0.900983
O O14 0.397412 0.256890 0.500000
O O15 0.500000 0.258698 0.437819
O O16 0.403806 0.500000 0.440746
O O17 0.500000 0.500000 0.048477
O O18 0.619779 0.500000 0.000000
#
# Coordination Sequence:
#
# PCOD8274696 Si02
#       6
#    16  16  16  16  16   8
#     4  11  23  38  58  86 117 154 193 239 289 346
#     4  11  24  41  62  86 115 151 190 234 287 347
#     4  12  25  40  59  83 116 154 191 238 287 342
#     4   9  19  35  56  84 117 154 196 246 298 352
#     4   9  19  38  63  88 115 148 188 235 288 346
#     4   9  18  32  56  88 118 152 195 247 300 352
#
# _framework density 20.130558000000001
#
# number of rings (size 3 to 8) (size 9 to 14) (size 15 to 20)
#    0.000    1.727    0.000    4.909    2.545    5.818 
#    0.000    2.727    0.000    0.545    0.000    0.000 
#    0.000    0.000    0.000    0.000    0.000    0.000 
#
# Total GULP energy -545556.980098 kJ/mol
# GULP energy per Si atom -12399.022275 kJ/mol
# Density = 2.008474 g / cm^3
# Si number density = 20.130558 Si / 1000 Ang^3
#
#
#
# Elastic Constant Matrix: (Units=GPa)
#
#
# Indices 1 2 3 4 5 6 
#
# 1 124.0296 29.3697 61.9023 0.0000 0.0000 0.0000
# 2 29.3697 75.6872 34.2003 0.0000 0.0000 0.0000
# 3 61.9023 34.2003 136.2442 0.0000 0.0000 0.0000
# 4 0.0000 0.0000 0.0000 34.6360 0.0000 0.0000
# 5 0.0000 0.0000 0.0000 0.0000 12.9932 0.0000
# 6 0.0000 0.0000 0.0000 0.0000 0.0000 19.1154
#
#
#
# Elastic Compliance Matrix: (Units=1/GPa)
#
#
# Indices 1 2 3 4 5 6 
#
# 1 0.010746 -0.002215 -0.004327 0.000000 0.000000 0.000000
# 2 -0.002215 0.015359 -0.002849 0.000000 0.000000 0.000000
# 3 -0.004327 -0.002849 0.010021 0.000000 0.000000 0.000000
# 4 0.000000 0.000000 0.000000 0.028872 0.000000 0.000000
# 5 0.000000 0.000000 0.000000 0.000000 0.076963 0.000000
# 6 0.000000 0.000000 0.000000 0.000000 0.000000 0.052314
#
#
# Mechanical properties :
#
#
# Convention : Reuss Voigt Hill
#
# Bulk Modulus (GPa) = 57.65378 65.21175 61.43276
# Shear Modulus (GPa) = 22.84791 27.38149 25.11470
#
# Velocity S-wave (km/s) = 3.37261 3.69208 3.53596
# Velocity P-wave (km/s) = 6.62330 7.11618 6.87416
#
# Compressibility (1/GPa) = 0.01734492
#
# Stress axis : x y z
#
# Youngs Moduli (GPa) = 93.05360 65.10750 99.79295
#
# Poissons Ratio (x) = 0.14422 0.43177
# Poissons Ratio (y) = 0.20612 0.28432
# Poissons Ratio (z) = 0.40261 0.18550
#
# Static dielectric constant tensor:
#      x y z
#    x 3.530720 0.000000 0.000000 
#    y 0.000000 3.733330 0.000000 
#    z 0.000000 0.000000 3.697320 
# 
# 
# High freq. dielectric constant tensor:
#      x y z
#    x 1.778470 0.000000 0.000000 
#    y 0.000000 1.791360 0.000000 
#    z 0.000000 0.000000 1.788410 
# 
# From -- ./inp_files/77894.got.cif
#   From: 2010.03.12/outbox.cif.g09.slc.cpg/sg65_39_cif.got.tgz:77894.got - 2010.04.10 20:52:16.
