data_PCOD8274509
_publ_section_title
;
Structure prediction by ZEFSAII (Michael W. Deem and Ramdas Pophale) SiO2 
 PCOD8274509
Probable space group: C M M M
;
_chemical_formula_sum "Si O2"
_cell_formula_units_Z 72
_cell_length_a 8.657529
_cell_length_b 17.905906
_cell_length_c 23.745898
_cell_angle_alpha 90.000000
_cell_angle_beta 90.000000
_cell_angle_gamma 90.000000
_cell_volume 3681.110490
_symmetry_space_group_name_H-M "C M M M"
_symmetry_group_IT_number 65
_symmetry_cell_setting 'orthorhombic'
loop_
_space_group_symop_operation_xyz
x,y,z
-x,-y,z
x,-y,-z
-x,y,-z
-x,-y,-z
x,y,-z
-x,y,z
x,-y,z
1/2+x,1/2+y,z
1/2-x,1/2-y,z
1/2+x,1/2-y,-z
1/2-x,1/2+y,-z
1/2-x,1/2-y,-z
1/2+x,1/2+y,-z
1/2-x,1/2+y,z
1/2+x,1/2-y,z
loop_
_atom_site_type_symbol
_atom_site_label
_atom_site_fract_x
_atom_site_fract_y
_atom_site_fract_z
Si Si1 0.184693 0.584085 0.819932
Si Si2 0.177354 0.912061 0.393452
Si Si3 0.317851 0.831864 0.500000
Si Si4 0.816817 0.668870 0.710672
Si Si5 0.673201 0.911248 0.940410
O O1 0.244975 0.500000 0.807493
O O2 0.243758 0.639092 0.771076
O O3 0.250498 0.614417 0.880885
O O4 0.000000 0.582990 0.822600
O O5 0.263894 0.874785 0.445011
O O6 0.257510 0.888275 0.335818
O O7 0.000000 0.885884 0.393338
O O8 0.192326 0.000000 0.400116
O O9 0.500000 0.826549 0.500000
O O10 0.250000 0.750000 0.500000
O O11 0.750000 0.750000 0.698560
O O12 0.000000 0.672057 0.708467
O O13 0.500000 0.879295 0.942879
O O14 0.667517 0.000000 0.937648
O O15 0.756841 0.886443 0.000000
#
# Coordination Sequence:
#
# PCOD8274509 Si02
#       5
#    16  16   8  16  16
#     4   8  14  25  43  68  96 128 169 217 267 319
#     4  11  24  42  63  87 115 144 178 222 269 316
#     4  12  25  42  65  91 121 153 185 218 257 308
#     4  11  22  36  54  76 106 143 183 225 270 321
#     4   7   9  15  31  58  91 123 157 204 262 317
#
# _framework density 19.559315999999999
#
# number of rings (size 3 to 8) (size 9 to 14) (size 15 to 20)
#    0.000    2.444    0.000    6.000    0.000    4.000 
#    0.000    0.000    0.000    0.667    0.000    0.000 
#    0.000    2.667    0.000   25.111    0.000   20.667 
#
# Total GULP energy -446018.212710 kJ/mol
# GULP energy per Si atom -12389.394798 kJ/mol
# Density = 1.951480 g / cm^3
# Si number density = 19.559316 Si / 1000 Ang^3
#
#
#
# Elastic Constant Matrix: (Units=GPa)
#
#
# Indices 1 2 3 4 5 6 
#
# 1 79.3301 30.9314 49.4744 0.0000 0.0000 0.0000
# 2 30.9314 65.1802 41.5608 0.0000 0.0000 0.0000
# 3 49.4744 41.5608 188.1315 0.0000 0.0000 0.0000
# 4 0.0000 0.0000 0.0000 -11.1335 0.0000 0.0000
# 5 0.0000 0.0000 0.0000 0.0000 39.1680 0.0000
# 6 0.0000 0.0000 0.0000 0.0000 0.0000 17.9747
#
#
#
# Elastic Compliance Matrix: (Units=1/GPa)
#
#
# Indices 1 2 3 4 5 6 
#
# 1 0.016899 -0.006036 -0.003111 0.000000 0.000000 0.000000
# 2 -0.006036 0.020013 -0.002834 0.000000 0.000000 0.000000
# 3 -0.003111 -0.002834 0.006760 0.000000 0.000000 0.000000
# 4 0.000000 0.000000 0.000000 -0.089819 0.000000 0.000000
# 5 0.000000 0.000000 0.000000 0.000000 0.025531 0.000000
# 6 0.000000 0.000000 0.000000 0.000000 0.000000 0.055634
#
#
# Mechanical properties :
#
#
# Convention : Reuss Voigt Hill
#
# Bulk Modulus (GPa) = 50.73346 64.06390 57.39868
# Shear Modulus (GPa) = 76.27909 23.24686 49.76297
#
# Velocity S-wave (km/s) = 6.25168 3.45125 5.04949
# Velocity P-wave (km/s) = 8.83776 6.97899 7.96279
#
# Compressibility (1/GPa) = 0.01971086
#
# Stress axis : x y z
#
# Youngs Moduli (GPa) = 59.17509 49.96635 147.93979
#
# Poissons Ratio (x) = 0.30160 0.46019
# Poissons Ratio (y) = 0.35718 0.41925
# Poissons Ratio (z) = 0.18407 0.14160
#
# Static dielectric constant tensor:
#      x y z
#    x 3.266300 0.000000 0.000000 
#    y 0.000000 3.356010 0.000000 
#    z 0.000000 0.000000 4.247910 
# 
# 
# High freq. dielectric constant tensor:
#      x y z
#    x 1.720630 0.000000 0.000000 
#    y 0.000000 1.736650 0.000000 
#    z 0.000000 0.000000 1.799060 
# 
# From -- ./inp_files/72557.got.cif
#   From: 2010.03.12/outbox.cif.g09.slc.cpg/sg65_37_cif.got.tgz:72557.got - 2010.04.10 20:52:16.
