data_PCOD8274535
_publ_section_title
;
Structure prediction by ZEFSAII (Michael W. Deem and Ramdas Pophale) SiO2 
 PCOD8274535
Probable space group: C M M M
;
_chemical_formula_sum "Si O2"
_cell_formula_units_Z 104
_cell_length_a 8.921721
_cell_length_b 28.760591
_cell_length_c 20.009144
_cell_angle_alpha 90.000000
_cell_angle_beta 90.000000
_cell_angle_gamma 90.000000
_cell_volume 5134.225669
_symmetry_space_group_name_H-M "C M M M"
_symmetry_group_IT_number 65
_symmetry_cell_setting 'orthorhombic'
loop_
_space_group_symop_operation_xyz
x,y,z
-x,-y,z
x,-y,-z
-x,y,-z
-x,-y,-z
x,y,-z
-x,y,z
x,-y,z
1/2+x,1/2+y,z
1/2-x,1/2-y,z
1/2+x,1/2-y,-z
1/2-x,1/2+y,-z
1/2-x,1/2-y,-z
1/2+x,1/2+y,-z
1/2-x,1/2+y,z
1/2+x,1/2-y,z
loop_
_atom_site_type_symbol
_atom_site_label
_atom_site_fract_x
_atom_site_fract_y
_atom_site_fract_z
Si Si1 0.828693 0.640685 0.797884
Si Si2 0.176699 0.799770 0.689798
Si Si3 0.173926 0.406933 0.074724
Si Si4 0.832693 0.050946 0.399833
Si Si5 0.326261 0.500000 0.078217
Si Si6 0.666863 0.448248 0.757841
Si Si7 0.671843 0.857718 0.425240
O O1 0.724354 0.677718 0.760560
O O2 0.799199 0.638684 0.878321
O O3 0.795840 0.588137 0.775430
O O4 0.000000 0.653310 0.780997
O O5 0.250000 0.750000 0.681387
O O6 0.223968 0.831362 0.627477
O O7 0.000000 0.794288 0.689524
O O8 0.258974 0.451629 0.107119
O O9 0.000000 0.420144 0.073199
O O10 0.232898 0.395106 0.000000
O O11 0.829119 0.047641 0.320900
O O12 0.714791 0.088142 0.427321
O O13 0.000000 0.065285 0.423500
O O14 0.790912 0.000000 0.428999
O O15 0.500000 0.500000 0.093322
O O16 0.285795 0.500000 0.000000
O O17 0.500000 0.431172 0.780157
O O18 0.697460 0.500000 0.789575
O O19 0.693502 0.836908 0.500000
O O20 0.500000 0.852525 0.402165
#
# Coordination Sequence:
#
# PCOD8274535 Si02
#       7
#    16  16  16  16   8  16  16
#     4  11  22  36  59  89 118 152 198 245 295 350
#     4  12  26  46  70  92 117 147 186 239 299 360
#     4   9  19  35  53  77 116 163 204 242 288 344
#     4   9  18  34  56  83 118 162 206 244 286 339
#     4   9  17  29  47  75 113 159 208 251 288 333
#     4   9  18  32  51  79 116 157 198 243 292 342
#     4  11  24  41  62  91 125 158 196 241 289 345
#
# _framework density 20.256219000000002
#
# number of rings (size 3 to 8) (size 9 to 14) (size 15 to 20)
#    0.000    1.923    1.538    3.462    1.077    4.615 
#    0.000    3.077    0.000    0.462    0.000    0.000 
#    0.000    0.000    0.000    0.000    0.000    0.000 
#
# Total GULP energy -644630.720326 kJ/mol
# GULP energy per Si atom -12396.744622 kJ/mol
# Density = 2.021012 g / cm^3
# Si number density = 20.256219 Si / 1000 Ang^3
#
#
#
# Elastic Constant Matrix: (Units=GPa)
#
#
# Indices 1 2 3 4 5 6 
#
# 1 114.3989 42.1894 35.9136 0.0000 0.0000 0.0000
# 2 42.1894 91.5820 36.9682 0.0000 0.0000 0.0000
# 3 35.9136 36.9682 78.1621 0.0000 0.0000 0.0000
# 4 0.0000 0.0000 0.0000 -11.0170 0.0000 0.0000
# 5 0.0000 0.0000 0.0000 0.0000 17.4880 0.0000
# 6 0.0000 0.0000 0.0000 0.0000 0.0000 35.7763
#
#
#
# Elastic Compliance Matrix: (Units=1/GPa)
#
#
# Indices 1 2 3 4 5 6 
#
# 1 0.011195 -0.003808 -0.003343 0.000000 0.000000 0.000000
# 2 -0.003808 0.014791 -0.005246 0.000000 0.000000 0.000000
# 3 -0.003343 -0.005246 0.016811 0.000000 0.000000 0.000000
# 4 0.000000 0.000000 0.000000 -0.090769 0.000000 0.000000
# 5 0.000000 0.000000 0.000000 0.000000 0.057182 0.000000
# 6 0.000000 0.000000 0.000000 0.000000 0.000000 0.027951
#
#
# Mechanical properties :
#
#
# Convention : Reuss Voigt Hill
#
# Bulk Modulus (GPa) = 55.54445 57.14283 56.34364
# Shear Modulus (GPa) = 73.57640 19.72091 46.64865
#
# Velocity S-wave (km/s) = 6.03338 3.12360 4.80409
# Velocity P-wave (km/s) = 8.71872 6.42498 7.65821
#
# Compressibility (1/GPa) = 0.01800360
#
# Stress axis : x y z
#
# Youngs Moduli (GPa) = 89.32482 67.60866 59.48453
#
# Poissons Ratio (x) = 0.25745 0.19885
# Poissons Ratio (y) = 0.34014 0.31206
# Poissons Ratio (z) = 0.29860 0.35468
#
# Static dielectric constant tensor:
#      x y z
#    x 3.680410 0.000000 0.000000 
#    y 0.000000 3.561260 0.000000 
#    z 0.000000 0.000000 4.055580 
# 
# 
# High freq. dielectric constant tensor:
#      x y z
#    x 1.789640 0.000000 0.000000 
#    y 0.000000 1.759220 0.000000 
#    z 0.000000 0.000000 1.813510 
# 
# From -- ./inp_files/60367.got.cif
#   From: 2010.03.12/outbox.cif.g09.slc.cpg/sg65_31_cif.got.tgz:60367.got - 2010.04.10 20:52:16.
