data_PCOD8274834
_publ_section_title
;
Structure prediction by ZEFSAII (Michael W. Deem and Ramdas Pophale) SiO2 
 PCOD8274834
Probable space group: C M M M
;
_chemical_formula_sum "Si O2"
_cell_formula_units_Z 56
_cell_length_a 8.951769
_cell_length_b 18.772797
_cell_length_c 19.497042
_cell_angle_alpha 90.000000
_cell_angle_beta 90.000000
_cell_angle_gamma 90.000000
_cell_volume 3276.472882
_symmetry_space_group_name_H-M "C M M M"
_symmetry_group_IT_number 65
_symmetry_cell_setting 'orthorhombic'
loop_
_space_group_symop_operation_xyz
x,y,z
-x,-y,z
x,-y,-z
-x,y,-z
-x,-y,-z
x,y,-z
-x,y,z
x,-y,z
1/2+x,1/2+y,z
1/2-x,1/2-y,z
1/2+x,1/2-y,-z
1/2-x,1/2+y,-z
1/2-x,1/2-y,-z
1/2+x,1/2+y,-z
1/2-x,1/2+y,z
1/2+x,1/2-y,z
loop_
_atom_site_type_symbol
_atom_site_label
_atom_site_fract_x
_atom_site_fract_y
_atom_site_fract_z
Si Si1 0.171151 0.417735 0.078606
Si Si2 0.000000 0.583943 0.575060
Si Si3 0.666658 0.919632 0.701836
Si Si4 0.324689 0.326188 0.808644
O O1 0.192391 0.500000 0.098670
O O2 0.279312 0.371376 0.125190
O O3 0.000000 0.394561 0.090214
O O4 0.217429 0.404905 0.000000
O O5 0.147364 0.603100 0.621034
O O6 0.000000 0.500000 0.564613
O O7 0.000000 0.621939 0.500000
O O8 0.500000 0.917028 0.736103
O O9 0.777101 0.865703 0.738922
O O10 0.730608 0.000000 0.708060
O O11 0.500000 0.315620 0.807815
O O12 0.250000 0.250000 0.812285
#
# Coordination Sequence:
#
# PCOD8274834 Si02
#       4
#    16   8  16  16
#     4   9  19  37  59  79 102 133 169 212 261 313
#     4   7  12  26  54  86 107 131 166 203 247 303
#     4   8  16  31  53  79 105 133 165 207 252 305
#     4  12  24  35  50  73 103 141 178 218 260 303
#
# _framework density 17.091550000000002
#
# number of rings (size 3 to 8) (size 9 to 14) (size 15 to 20)
#    0.857    1.857    0.000    4.286    0.000    5.714 
#    0.000    1.429    0.000    1.714    0.000    4.000 
#    0.000    0.000    0.000    0.000    0.000    0.000 
#
# Total GULP energy -346908.247780 kJ/mol
# GULP energy per Si atom -12389.580278 kJ/mol
# Density = 1.705265 g / cm^3
# Si number density = 17.091550 Si / 1000 Ang^3
#
#
#
# Elastic Constant Matrix: (Units=GPa)
#
#
# Indices 1 2 3 4 5 6 
#
# 1 107.8053 52.0308 53.5070 0.0000 0.0000 0.0000
# 2 52.0308 85.4851 57.0620 0.0000 0.0000 0.0000
# 3 53.5070 57.0620 131.2849 0.0000 0.0000 0.0000
# 4 0.0000 0.0000 0.0000 -0.6777 0.0000 0.0000
# 5 0.0000 0.0000 0.0000 0.0000 18.5548 0.0000
# 6 0.0000 0.0000 0.0000 0.0000 0.0000 29.4248
#
#
#
# Elastic Compliance Matrix: (Units=1/GPa)
#
#
# Indices 1 2 3 4 5 6 
#
# 1 0.013821 -0.006553 -0.002785 0.000000 0.000000 0.000000
# 2 -0.006553 0.019586 -0.005842 0.000000 0.000000 0.000000
# 3 -0.002785 -0.005842 0.011291 0.000000 0.000000 0.000000
# 4 0.000000 0.000000 0.000000 -1.475576 0.000000 0.000000
# 5 0.000000 0.000000 0.000000 0.000000 0.053895 0.000000
# 6 0.000000 0.000000 0.000000 0.000000 0.000000 0.033985
#
#
# Mechanical properties :
#
#
# Convention : Reuss Voigt Hill
#
# Bulk Modulus (GPa) = 69.74343 72.19720 70.97032
# Shear Modulus (GPa) = -3.82304 20.25875 8.21785
#
# Velocity S-wave (km/s) = -1.49722 3.44656 2.19513
# Velocity P-wave (km/s) = 6.15674 7.62703 6.93098
#
# Compressibility (1/GPa) = 0.01433827
#
# Stress axis : x y z
#
# Youngs Moduli (GPa) = 72.35385 51.05581 88.56525
#
# Poissons Ratio (x) = 0.33459 0.24661
# Poissons Ratio (y) = 0.47417 0.51741
# Poissons Ratio (z) = 0.20147 0.29827
#
# Static dielectric constant tensor:
#      x y z
#    x 2.921340 0.000000 0.000000 
#    y 0.000000 3.048260 0.000000 
#    z 0.000000 0.000000 3.506120 
# 
# 
# High freq. dielectric constant tensor:
#      x y z
#    x 1.632450 0.000000 0.000000 
#    y 0.000000 1.646870 0.000000 
#    z 0.000000 0.000000 1.663000 
# 
# From -- ./inp_files/66666.got.cif
#   From: 2010.03.12/outbox.cif.g09.slc.cpg/sg65_34_cif.got.tgz:66666.got - 2010.04.10 20:52:16.
