data_PCOD8274169
_publ_section_title
;
Structure prediction by ZEFSAII (Michael W. Deem and Ramdas Pophale) SiO2 
 PCOD8274169
Probable space group: C M M M
;
_chemical_formula_sum "Si O2"
_cell_formula_units_Z 72
_cell_length_a 14.075641
_cell_length_b 23.623293
_cell_length_c 12.894618
_cell_angle_alpha 90.000000
_cell_angle_beta 90.000000
_cell_angle_gamma 90.000000
_cell_volume 4287.628006
_symmetry_space_group_name_H-M "C M M M"
_symmetry_group_IT_number 65
_symmetry_cell_setting 'orthorhombic'
loop_
_space_group_symop_operation_xyz
x,y,z
-x,-y,z
x,-y,-z
-x,y,-z
-x,-y,-z
x,y,-z
-x,y,z
x,-y,z
1/2+x,1/2+y,z
1/2-x,1/2-y,z
1/2+x,1/2-y,-z
1/2-x,1/2+y,-z
1/2-x,1/2-y,-z
1/2+x,1/2+y,-z
1/2-x,1/2+y,z
1/2+x,1/2-y,z
loop_
_atom_site_type_symbol
_atom_site_label
_atom_site_fract_x
_atom_site_fract_y
_atom_site_fract_z
Si Si1 0.108114 0.565620 0.118425
Si Si2 0.394433 0.125585 0.500000
Si Si3 0.219669 0.372954 0.706362
Si Si4 0.608559 0.434400 0.380821
Si Si5 0.395237 0.258923 0.500000
Si Si6 0.750000 0.250000 0.668100
O O1 0.119527 0.500000 0.145228
O O2 0.176444 0.600811 0.191211
O O3 0.000000 0.584969 0.137475
O O4 0.137661 0.577445 0.000000
O O5 0.500000 0.097679 0.500000
O O6 0.338916 0.107637 0.604075
O O7 0.405200 0.192189 0.500000
O O8 0.326348 0.395958 0.693062
O O9 0.215650 0.305132 0.730775
O O10 0.621917 0.415221 0.500000
O O11 0.500000 0.425078 0.345945
O O12 0.637167 0.500000 0.368413
O O13 0.500000 0.287657 0.500000
O O14 0.335403 0.277277 0.399859
#
# Coordination Sequence:
#
# PCOD8274169 Si02
#       6
#    16   8  16  16   8   8
#     4   9  19  36  57  77  94 121 164 205 246 301
#     4   9  17  27  43  70 101 131 161 192 239 298
#     4  11  18  32  49  72 103 134 157 202 247 287
#     4   9  18  31  46  67  95 129 169 204 236 281
#     4   8  15  29  42  57  95 141 170 195 221 267
#     4   9  20  28  41  74 100 126 171 195 230 298
#
# _framework density 16.792501000000001
#
# number of rings (size 3 to 8) (size 9 to 14) (size 15 to 20)
#    0.000    2.667    1.111    3.333    0.000    1.778 
#    0.000    0.556    0.000    3.333    0.000    3.111 
#    0.000    0.000    0.000    0.000    0.000    0.000 
#
# Total GULP energy -446248.163041 kJ/mol
# GULP energy per Si atom -12395.782307 kJ/mol
# Density = 1.675428 g / cm^3
# Si number density = 16.792501 Si / 1000 Ang^3
#
#
#
# Elastic Constant Matrix: (Units=GPa)
#
#
# Indices 1 2 3 4 5 6 
#
# 1 102.3321 38.1577 42.2646 0.0000 0.0000 0.0000
# 2 38.1577 69.2094 45.3596 0.0000 0.0000 0.0000
# 3 42.2646 45.3596 76.8931 0.0000 0.0000 0.0000
# 4 0.0000 0.0000 0.0000 21.6263 0.0000 0.0000
# 5 0.0000 0.0000 0.0000 0.0000 24.4263 0.0000
# 6 0.0000 0.0000 0.0000 0.0000 0.0000 20.1396
#
#
#
# Elastic Compliance Matrix: (Units=1/GPa)
#
#
# Indices 1 2 3 4 5 6 
#
# 1 0.013337 -0.004155 -0.004880 0.000000 0.000000 0.000000
# 2 -0.004155 0.024851 -0.012376 0.000000 0.000000 0.000000
# 3 -0.004880 -0.012376 0.022988 0.000000 0.000000 0.000000
# 4 0.000000 0.000000 0.000000 0.046240 0.000000 0.000000
# 5 0.000000 0.000000 0.000000 0.000000 0.040939 0.000000
# 6 0.000000 0.000000 0.000000 0.000000 0.000000 0.049654
#
#
# Mechanical properties :
#
#
# Convention : Reuss Voigt Hill
#
# Bulk Modulus (GPa) = 54.48245 55.55537 55.01891
# Shear Modulus (GPa) = 20.24727 21.41528 20.83128
#
# Velocity S-wave (km/s) = 3.47613 3.57499 3.52591
# Velocity P-wave (km/s) = 6.97326 7.08492 7.02931
#
# Compressibility (1/GPa) = 0.01835454
#
# Stress axis : x y z
#
# Youngs Moduli (GPa) = 74.98079 40.24026 43.50165
#
# Poissons Ratio (x) = 0.16720 0.21227
# Poissons Ratio (y) = 0.31155 0.53836
# Poissons Ratio (z) = 0.36587 0.49800
#
# Static dielectric constant tensor:
#      x y z
#    x 3.467380 0.000000 0.000000 
#    y 0.000000 3.020410 0.000000 
#    z 0.000000 0.000000 2.787900 
# 
# 
# High freq. dielectric constant tensor:
#      x y z
#    x 1.656820 0.000000 0.000000 
#    y 0.000000 1.645240 0.000000 
#    z 0.000000 0.000000 1.602050 
# 
# From -- ./inp_files/24555.got.cif
#   From: 2010.03.12/outbox.cif.g09.slc.cpg/sg65_13_cif.got.tgz:24555.got - 2010.04.10 20:52:16.
