data_PCOD8274113
_publ_section_title
;
Structure prediction by ZEFSAII (Michael W. Deem and Ramdas Pophale) SiO2 
 PCOD8274113
Probable space group: C M M M
;
_chemical_formula_sum "Si O2"
_cell_formula_units_Z 56
_cell_length_a 9.826567
_cell_length_b 25.693615
_cell_length_c 12.111886
_cell_angle_alpha 90.000000
_cell_angle_beta 90.000000
_cell_angle_gamma 90.000000
_cell_volume 3058.009332
_symmetry_space_group_name_H-M "C M M M"
_symmetry_group_IT_number 65
_symmetry_cell_setting 'orthorhombic'
loop_
_space_group_symop_operation_xyz
x,y,z
-x,-y,z
x,-y,-z
-x,y,-z
-x,-y,-z
x,y,-z
-x,y,z
x,-y,z
1/2+x,1/2+y,z
1/2-x,1/2-y,z
1/2+x,1/2-y,-z
1/2-x,1/2+y,-z
1/2-x,1/2-y,-z
1/2+x,1/2+y,-z
1/2-x,1/2+y,z
1/2+x,1/2-y,z
loop_
_atom_site_type_symbol
_atom_site_label
_atom_site_fract_x
_atom_site_fract_y
_atom_site_fract_z
Si Si1 0.754075 0.624007 0.693713
Si Si2 0.500000 0.557095 0.372553
Si Si3 0.838922 0.698759 0.500000
Si Si4 0.657893 0.700656 0.871085
Si Si5 0.500000 0.061547 0.371406
O O1 0.627437 0.591231 0.656484
O O2 0.796347 0.668312 0.608773
O O3 0.720389 0.650452 0.810630
O O4 0.873841 0.582043 0.699372
O O5 0.500000 0.500000 0.312813
O O6 0.500000 0.545454 0.500000
O O7 0.750000 0.750000 0.500000
O O8 0.000000 0.711515 0.500000
O O9 0.500000 0.710774 0.836302
O O10 0.750000 0.750000 0.838382
O O11 0.668179 0.688568 0.000000
O O12 0.500000 0.082427 0.500000
O O13 0.500000 0.000000 0.373202
#
# Coordination Sequence:
#
# PCOD8274113 Si02
#       5
#    16   8   8  16   8
#     4  12  21  39  60  87 121 154 193 243 299 348
#     4  11  22  36  59  90 119 153 200 242 286 354
#     4  12  26  38  55  86 124 158 189 236 299 358
#     4  10  23  41  62  88 118 157 201 243 292 353
#     4  11  22  40  63  88 121 159 200 244 292 352
#
# _framework density 18.312567000000001
#
# number of rings (size 3 to 8) (size 9 to 14) (size 15 to 20)
#    0.000    0.857    5.714    1.714    4.000    4.571 
#    0.000    0.000    0.000    5.143    0.000    0.000 
#    0.000    0.000    0.000    0.000    0.000    0.000 
#
# Total GULP energy -347138.352739 kJ/mol
# GULP energy per Si atom -12397.798312 kJ/mol
# Density = 1.827089 g / cm^3
# Si number density = 18.312567 Si / 1000 Ang^3
#
#
#
# Elastic Constant Matrix: (Units=GPa)
#
#
# Indices 1 2 3 4 5 6 
#
# 1 184.2502 77.8421 41.9830 0.0000 0.0000 0.0000
# 2 77.8421 118.8336 43.2793 0.0000 0.0000 0.0000
# 3 41.9830 43.2793 64.2996 0.0000 0.0000 0.0000
# 4 0.0000 0.0000 0.0000 31.8535 0.0000 0.0000
# 5 0.0000 0.0000 0.0000 0.0000 28.1570 0.0000
# 6 0.0000 0.0000 0.0000 0.0000 0.0000 59.7817
#
#
#
# Elastic Compliance Matrix: (Units=1/GPa)
#
#
# Indices 1 2 3 4 5 6 
#
# 1 0.007726 -0.004271 -0.002170 0.000000 0.000000 0.000000
# 2 -0.004271 0.013509 -0.006304 0.000000 0.000000 0.000000
# 3 -0.002170 -0.006304 0.021212 0.000000 0.000000 0.000000
# 4 0.000000 0.000000 0.000000 0.031394 0.000000 0.000000
# 5 0.000000 0.000000 0.000000 0.000000 0.035515 0.000000
# 6 0.000000 0.000000 0.000000 0.000000 0.000000 0.016728
#
#
# Mechanical properties :
#
#
# Convention : Reuss Voigt Hill
#
# Bulk Modulus (GPa) = 58.97116 77.06581 68.01849
# Shear Modulus (GPa) = 31.80148 37.57705 34.68926
#
# Velocity S-wave (km/s) = 4.17177 4.53479 4.35706
# Velocity P-wave (km/s) = 7.44831 8.34231 7.90795
#
# Compressibility (1/GPa) = 0.01695744
#
# Stress axis : x y z
#
# Youngs Moduli (GPa) = 129.43056 74.02705 47.14252
#
# Poissons Ratio (x) = 0.31615 0.10230
# Poissons Ratio (y) = 0.55276 0.29719
# Poissons Ratio (z) = 0.28087 0.46667
#
# Static dielectric constant tensor:
#      x y z
#    x 3.676970 0.000000 0.000000 
#    y 0.000000 3.464300 0.000000 
#    z 0.000000 0.000000 3.416420 
# 
# 
# High freq. dielectric constant tensor:
#      x y z
#    x 1.735890 0.000000 0.000000 
#    y 0.000000 1.722430 0.000000 
#    z 0.000000 0.000000 1.686330 
# 
# From -- ./inp_files/20516.got.cif
#   From: 2010.03.12/outbox.cif.g09.slc.cpg/sg65_11_cif.got.tgz:20516.got - 2010.04.10 20:52:16.
