data_PCOD8274395
_publ_section_title
;
Structure prediction by ZEFSAII (Michael W. Deem and Ramdas Pophale) SiO2 
 PCOD8274395
Probable space group: C M M M
;
_chemical_formula_sum "Si O2"
_cell_formula_units_Z 72
_cell_length_a 17.934521
_cell_length_b 16.671927
_cell_length_c 10.908916
_cell_angle_alpha 90.000000
_cell_angle_beta 90.000000
_cell_angle_gamma 90.000000
_cell_volume 3261.798882
_symmetry_space_group_name_H-M "C M M M"
_symmetry_group_IT_number 65
_symmetry_cell_setting 'orthorhombic'
loop_
_space_group_symop_operation_xyz
x,y,z
-x,-y,z
x,-y,-z
-x,y,-z
-x,-y,-z
x,y,-z
-x,y,z
x,-y,z
1/2+x,1/2+y,z
1/2-x,1/2-y,z
1/2+x,1/2-y,-z
1/2-x,1/2+y,-z
1/2-x,1/2-y,-z
1/2+x,1/2+y,-z
1/2-x,1/2+y,z
1/2+x,1/2-y,z
loop_
_atom_site_type_symbol
_atom_site_label
_atom_site_fract_x
_atom_site_fract_y
_atom_site_fract_z
Si Si1 0.912898 0.908767 0.500000
Si Si2 0.664637 0.854961 0.000000
Si Si3 0.280640 0.836612 0.640369
Si Si4 0.850154 0.908534 0.249002
Si Si5 0.663653 0.665492 0.000000
Si Si6 0.414167 0.907058 0.243473
O O1 0.885218 0.867463 0.372793
O O2 0.000000 0.904934 0.500000
O O3 0.882475 0.000000 0.500000
O O4 0.623200 0.895175 0.112686
O O5 0.655993 0.759882 0.000000
O O6 0.753044 0.871782 0.000000
O O7 0.259259 0.852406 0.500000
O O8 0.250000 0.750000 0.683457
O O9 0.238872 0.899809 0.729809
O O10 0.368862 0.850633 0.660447
O O11 0.875485 0.000000 0.237005
O O12 0.876906 0.865396 0.124088
O O13 0.500000 0.878397 0.242490
O O14 0.409172 0.000000 0.283050
#
# Coordination Sequence:
#
# PCOD8274395 Si02
#       6
#     8   8  16  16   8  16
#     4   9  20  40  63  88 123 161 201 258 322 384
#     4  11  22  40  63  87 132 172 212 261 335 403
#     4  11  23  40  63  90 131 173 218 272 328 394
#     4  11  21  37  64  96 124 162 218 267 324 392
#     4  11  23  37  63  98 128 167 212 281 331 378
#     4  11  24  41  65  97 132 173 220 273 335 401
#
# _framework density 22.073709999999998
#
# number of rings (size 3 to 8) (size 9 to 14) (size 15 to 20)
#    0.000    1.222    3.333    3.000    0.000    3.556 
#    0.000    7.222    0.000    2.667    0.000    0.000 
#    0.000    0.000    0.000    0.000    0.000    0.000 
#
# Total GULP energy -446244.145859 kJ/mol
# GULP energy per Si atom -12395.670718 kJ/mol
# Density = 2.202347 g / cm^3
# Si number density = 22.073710 Si / 1000 Ang^3
#
#
#
# Elastic Constant Matrix: (Units=GPa)
#
#
# Indices 1 2 3 4 5 6 
#
# 1 83.0323 31.7069 24.8857 0.0000 0.0000 0.0000
# 2 31.7069 70.4714 31.5228 0.0000 0.0000 0.0000
# 3 24.8857 31.5228 161.3976 0.0000 0.0000 0.0000
# 4 0.0000 0.0000 0.0000 -3.6590 0.0000 0.0000
# 5 0.0000 0.0000 0.0000 0.0000 19.2854 0.0000
# 6 0.0000 0.0000 0.0000 0.0000 0.0000 28.5991
#
#
#
# Elastic Compliance Matrix: (Units=1/GPa)
#
#
# Indices 1 2 3 4 5 6 
#
# 1 0.014708 -0.006140 -0.001069 0.000000 0.000000 0.000000
# 2 -0.006140 0.018111 -0.002591 0.000000 0.000000 0.000000
# 3 -0.001069 -0.002591 0.006867 0.000000 0.000000 0.000000
# 4 0.000000 0.000000 0.000000 -0.273299 0.000000 0.000000
# 5 0.000000 0.000000 0.000000 0.000000 0.051853 0.000000
# 6 0.000000 0.000000 0.000000 0.000000 0.000000 0.034966
#
#
# Mechanical properties :
#
#
# Convention : Reuss Voigt Hill
#
# Bulk Modulus (GPa) = 49.78022 54.57024 52.17523
# Shear Modulus (GPa) = -41.49380 23.96417 -8.76482
#
# Velocity S-wave (km/s) = -4.34035 3.29848 -1.99482
# Velocity P-wave (km/s) = 1.58664 6.26755 4.28747
#
# Compressibility (1/GPa) = 0.02008830
#
# Stress axis : x y z
#
# Youngs Moduli (GPa) = 67.98891 55.21395 145.63127
#
# Poissons Ratio (x) = 0.33899 0.15564
# Poissons Ratio (y) = 0.41742 0.37729
# Poissons Ratio (z) = 0.07266 0.14304
#
# Static dielectric constant tensor:
#      x y z
#    x 3.910860 0.000000 0.000000 
#    y 0.000000 3.821750 0.000000 
#    z 0.000000 0.000000 4.259790 
# 
# 
# High freq. dielectric constant tensor:
#      x y z
#    x 1.850740 0.000000 0.000000 
#    y 0.000000 1.851960 0.000000 
#    z 0.000000 0.000000 1.887300 
# 
# From -- ./inp_files/26373.got.cif
#   From: 2010.03.12/outbox.cif.g09.slc.cpg/sg65_14_cif.got.tgz:26373.got - 2010.04.10 20:52:16.
