data_PCOD8274669
_publ_section_title
;
Structure prediction by ZEFSAII (Michael W. Deem and Ramdas Pophale) SiO2 
 PCOD8274669
Probable space group: C M M M
;
_chemical_formula_sum "Si O2"
_cell_formula_units_Z 88
_cell_length_a 18.187728
_cell_length_b 9.432979
_cell_length_c 28.345859
_cell_angle_alpha 90.000000
_cell_angle_beta 90.000000
_cell_angle_gamma 90.000000
_cell_volume 4863.141887
_symmetry_space_group_name_H-M "C M M M"
_symmetry_group_IT_number 65
_symmetry_cell_setting 'orthorhombic'
loop_
_space_group_symop_operation_xyz
x,y,z
-x,-y,z
x,-y,-z
-x,y,-z
-x,-y,-z
x,y,-z
-x,y,z
x,-y,z
1/2+x,1/2+y,z
1/2-x,1/2-y,z
1/2+x,1/2-y,-z
1/2-x,1/2+y,-z
1/2-x,1/2-y,-z
1/2+x,1/2+y,-z
1/2-x,1/2+y,z
1/2+x,1/2-y,z
loop_
_atom_site_type_symbol
_atom_site_label
_atom_site_fract_x
_atom_site_fract_y
_atom_site_fract_z
Si Si1 0.912611 0.159836 0.051751
Si Si2 0.584136 0.164474 0.138989
Si Si3 0.174072 0.331734 0.231804
Si Si4 0.587906 0.158656 0.500000
Si Si5 0.587321 0.656718 0.585591
Si Si6 0.586243 0.663709 0.691673
O O1 0.880859 0.256995 0.093580
O O2 0.000000 0.168049 0.052170
O O3 0.885845 0.000000 0.061024
O O4 0.884330 0.211129 0.000000
O O5 0.500000 0.211297 0.148069
O O6 0.629816 0.206724 0.184754
O O7 0.589416 0.000000 0.127656
O O8 0.186089 0.500000 0.237561
O O9 0.250000 0.250000 0.228921
O O10 0.128817 0.273789 0.275911
O O11 0.500000 0.160889 0.500000
O O12 0.619166 0.234901 0.453101
O O13 0.618800 0.000000 0.500000
O O14 0.500000 0.653991 0.583246
O O15 0.617558 0.500000 0.573621
O O16 0.611289 0.700540 0.638308
O O17 0.500000 0.689596 0.698462
O O18 0.605780 0.500000 0.703725
#
# Coordination Sequence:
#
# PCOD8274669 Si02
#       6
#    16  16  16   8  16  16
#     4   8  14  25  43  70 101 128 155 190 233 281
#     4   9  18  32  50  73  99 127 160 198 242 290
#     4  11  23  37  52  71  98 131 167 208 252 298
#     4   9  15  21  33  59  94 127 158 193 234 279
#     4   8  14  25  41  62  91 126 159 192 234 285
#     4   9  18  33  53  76 100 128 165 206 248 296
#
# _framework density 18.095296999999999
#
# number of rings (size 3 to 8) (size 9 to 14) (size 15 to 20)
#    0.000    3.000    0.000    3.000    0.000    4.727 
#    0.000    5.455    0.000    0.545    0.000    0.636 
#    0.000    0.000    0.000    0.000    0.000    0.000 
#
# Total GULP energy -545389.712516 kJ/mol
# GULP energy per Si atom -12395.220739 kJ/mol
# Density = 1.805411 g / cm^3
# Si number density = 18.095297 Si / 1000 Ang^3
#
#
#
# Elastic Constant Matrix: (Units=GPa)
#
#
# Indices 1 2 3 4 5 6 
#
# 1 44.7767 39.7442 44.0417 0.0000 0.0000 0.0000
# 2 39.7442 115.3735 100.6060 0.0000 0.0000 0.0000
# 3 44.0417 100.6060 178.2093 0.0000 0.0000 0.0000
# 4 0.0000 0.0000 0.0000 38.8920 0.0000 0.0000
# 5 0.0000 0.0000 0.0000 0.0000 -2.4984 0.0000
# 6 0.0000 0.0000 0.0000 0.0000 0.0000 17.9691
#
#
#
# Elastic Compliance Matrix: (Units=1/GPa)
#
#
# Indices 1 2 3 4 5 6 
#
# 1 0.033209 -0.008436 -0.003444 0.000000 0.000000 0.000000
# 2 -0.008436 0.019215 -0.008762 0.000000 0.000000 0.000000
# 3 -0.003444 -0.008762 0.011409 0.000000 0.000000 0.000000
# 4 0.000000 0.000000 0.000000 0.025712 0.000000 0.000000
# 5 0.000000 0.000000 0.000000 0.000000 -0.400257 0.000000
# 6 0.000000 0.000000 0.000000 0.000000 0.000000 0.055651
#
#
# Mechanical properties :
#
#
# Convention : Reuss Voigt Hill
#
# Bulk Modulus (GPa) = 44.35278 78.57147 61.46213
# Shear Modulus (GPa) = -24.24141 21.13706 -1.55218
#
# Velocity S-wave (km/s) = -3.66410 3.42145 -0.92717
# Velocity P-wave (km/s) = 2.58129 7.68919 5.73527
#
# Compressibility (1/GPa) = 0.02254650
#
# Stress axis : x y z
#
# Youngs Moduli (GPa) = 30.11214 52.04394 87.64743
#
# Poissons Ratio (x) = 0.43906 0.30190
# Poissons Ratio (y) = 0.25404 0.76800
# Poissons Ratio (z) = 0.10372 0.45603
#
# Static dielectric constant tensor:
#      x y z
#    x 2.870190 0.000000 0.000000 
#    y 0.000000 3.462120 0.000000 
#    z 0.000000 0.000000 3.713620 
# 
# 
# High freq. dielectric constant tensor:
#      x y z
#    x 1.644170 0.000000 0.000000 
#    y 0.000000 1.702610 0.000000 
#    z 0.000000 0.000000 1.719040 
# 
# From -- ./inp_files/77919.got.cif
#   From: 2010.03.12/outbox.cif.g09.slc.cpg/sg65_39_cif.got.tgz:77919.got - 2010.04.10 20:52:16.
