data_PCOD8274484
_publ_section_title
;
Structure prediction by ZEFSAII (Michael W. Deem and Ramdas Pophale) SiO2 
 PCOD8274484
Probable space group: C M M M
;
_chemical_formula_sum "Si O2"
_cell_formula_units_Z 72
_cell_length_a 27.547769
_cell_length_b 16.362958
_cell_length_c 8.570498
_cell_angle_alpha 90.000000
_cell_angle_beta 90.000000
_cell_angle_gamma 90.000000
_cell_volume 3863.263280
_symmetry_space_group_name_H-M "C M M M"
_symmetry_group_IT_number 65
_symmetry_cell_setting 'orthorhombic'
loop_
_space_group_symop_operation_xyz
x,y,z
-x,-y,z
x,-y,-z
-x,y,-z
-x,-y,-z
x,y,-z
-x,y,z
x,-y,z
1/2+x,1/2+y,z
1/2-x,1/2-y,z
1/2+x,1/2-y,-z
1/2-x,1/2+y,-z
1/2-x,1/2-y,-z
1/2+x,1/2+y,-z
1/2-x,1/2+y,z
1/2+x,1/2-y,z
loop_
_atom_site_type_symbol
_atom_site_label
_atom_site_fract_x
_atom_site_fract_y
_atom_site_fract_z
Si Si1 0.858419 0.411305 0.818500
Si Si2 0.444213 0.500000 0.184219
Si Si3 0.891291 0.157148 0.681519
Si Si4 0.805113 0.253196 0.185807
Si Si5 0.945348 0.695295 0.820567
O O1 0.848857 0.500000 0.738660
O O2 0.824764 0.339880 0.748080
O O3 0.914400 0.386503 0.790983
O O4 0.846681 0.418979 0.000000
O O5 0.500000 0.500000 0.250576
O O6 0.414060 0.421630 0.237782
O O7 0.446850 0.500000 0.000000
O O8 0.886497 0.139024 0.500000
O O9 0.837523 0.178844 0.747346
O O10 0.927563 0.232024 0.710730
O O11 0.750000 0.250000 0.245110
O O12 0.808902 0.248510 0.000000
O O13 0.000000 0.672701 0.777775
O O14 0.939511 0.724638 0.000000
#
# Coordination Sequence:
#
# PCOD8274484 Si02
#       5
#    16   8  16  16  16
#     4   8  14  26  46  73 102 128 165 216 260 301
#     4  11  23  39  59  81 109 145 185 231 278 325
#     4  11  22  35  53  78 109 141 177 219 270 330
#     4   9  18  35  56  77 103 138 181 225 270 318
#     4   9  17  30  49  72 100 136 175 213 258 312
#
# _framework density 18.637093
#
# number of rings (size 3 to 8) (size 9 to 14) (size 15 to 20)
#    0.000    2.556    0.000    4.333    0.000    4.889 
#    2.000    2.222    0.000   10.667    0.000    6.222 
#    0.000    0.000    0.000    0.000    0.000    0.000 
#
# Total GULP energy -446191.355065 kJ/mol
# GULP energy per Si atom -12394.204307 kJ/mol
# Density = 1.859467 g / cm^3
# Si number density = 18.637093 Si / 1000 Ang^3
#
#
#
# Elastic Constant Matrix: (Units=GPa)
#
#
# Indices 1 2 3 4 5 6 
#
# 1 176.4437 66.8685 27.3352 0.0000 0.0000 0.0000
# 2 66.8685 129.3886 23.6187 0.0000 0.0000 0.0000
# 3 27.3352 23.6187 51.4190 0.0000 0.0000 0.0000
# 4 0.0000 0.0000 0.0000 0.0690 0.0000 0.0000
# 5 0.0000 0.0000 0.0000 0.0000 14.0709 0.0000
# 6 0.0000 0.0000 0.0000 0.0000 0.0000 18.1790
#
#
#
# Elastic Compliance Matrix: (Units=1/GPa)
#
#
# Indices 1 2 3 4 5 6 
#
# 1 0.007298 -0.003344 -0.002344 0.000000 0.000000 0.000000
# 2 -0.003344 0.009968 -0.002801 0.000000 0.000000 0.000000
# 3 -0.002344 -0.002801 0.021981 0.000000 0.000000 0.000000
# 4 0.000000 0.000000 0.000000 14.495684 0.000000 0.000000
# 5 0.000000 0.000000 0.000000 0.000000 0.071069 0.000000
# 6 0.000000 0.000000 0.000000 0.000000 0.000000 0.055009
#
#
# Mechanical properties :
#
#
# Convention : Reuss Voigt Hill
#
# Bulk Modulus (GPa) = 44.90471 65.87737 55.39104
# Shear Modulus (GPa) = 0.34047 22.42569 11.38308
#
# Velocity S-wave (km/s) = 0.42788 3.47260 2.47407
# Velocity P-wave (km/s) = 4.93869 7.17654 6.16009
#
# Compressibility (1/GPa) = 0.02226938
#
# Stress axis : x y z
#
# Youngs Moduli (GPa) = 137.02699 100.32078 45.49442
#
# Poissons Ratio (x) = 0.33544 0.10663
# Poissons Ratio (y) = 0.45818 0.12744
# Poissons Ratio (z) = 0.32116 0.28101
#
# Static dielectric constant tensor:
#      x y z
#    x 3.634280 0.000000 0.000000 
#    y 0.000000 3.685210 0.000000 
#    z 0.000000 0.000000 3.107920 
# 
# 
# High freq. dielectric constant tensor:
#      x y z
#    x 1.727910 0.000000 0.000000 
#    y 0.000000 1.722640 0.000000 
#    z 0.000000 0.000000 1.691870 
# 
# From -- ./inp_files/18036.got.cif
#   From: 2010.03.12/outbox.cif.g09.slc.cpg/sg65_10_cif.got.tgz:18036.got - 2010.04.10 20:52:16.
