data_PCOD8274325
_publ_section_title
;
Structure prediction by ZEFSAII (Michael W. Deem and Ramdas Pophale) SiO2 
 PCOD8274325
Probable space group: C M M M
;
_chemical_formula_sum "Si O2"
_cell_formula_units_Z 104
_cell_length_a 14.257703
_cell_length_b 17.924034
_cell_length_c 20.449868
_cell_angle_alpha 90.000000
_cell_angle_beta 90.000000
_cell_angle_gamma 90.000000
_cell_volume 5226.077332
_symmetry_space_group_name_H-M "C M M M"
_symmetry_group_IT_number 65
_symmetry_cell_setting 'orthorhombic'
loop_
_space_group_symop_operation_xyz
x,y,z
-x,-y,z
x,-y,-z
-x,y,-z
-x,-y,-z
x,y,-z
-x,y,z
x,-y,z
1/2+x,1/2+y,z
1/2-x,1/2-y,z
1/2+x,1/2-y,-z
1/2-x,1/2+y,-z
1/2-x,1/2-y,-z
1/2+x,1/2+y,-z
1/2-x,1/2+y,z
1/2+x,1/2-y,z
loop_
_atom_site_type_symbol
_atom_site_label
_atom_site_fract_x
_atom_site_fract_y
_atom_site_fract_z
Si Si1 0.250702 0.582874 0.073035
Si Si2 0.893567 0.187731 0.864130
Si Si3 0.608678 0.145672 0.167709
Si Si4 0.765719 0.085903 0.379362
Si Si5 0.892329 0.911469 0.500000
Si Si6 0.105831 0.156483 0.716186
Si Si7 0.391183 0.174690 0.684513
O O1 0.294215 0.500000 0.078741
O O2 0.331078 0.643663 0.084524
O O3 0.167573 0.587075 0.125985
O O4 0.210452 0.596358 0.000000
O O5 0.860897 0.273070 0.858317
O O6 0.882780 0.150124 0.793489
O O7 0.000000 0.183677 0.888846
O O8 0.500000 0.130730 0.154895
O O9 0.630374 0.137684 0.244858
O O10 0.832223 0.116273 0.437688
O O11 0.826400 0.094324 0.313664
O O12 0.670955 0.134868 0.371629
O O13 0.736949 0.000000 0.390298
O O14 0.000000 0.878947 0.500000
O O15 0.899617 0.000000 0.500000
O O16 0.134464 0.238101 0.689226
O O17 0.000000 0.138398 0.695143
O O18 0.500000 0.163834 0.665953
#
# Coordination Sequence:
#
# PCOD8274325 Si02
#       7
#    16  16  16  16   8  16  16
#     4  11  24  37  49  72 107 142 174 215 269 320
#     4   9  19  36  57  79 102 133 174 216 261 317
#     4   9  19  37  59  79 101 135 177 218 261 312
#     4  11  21  33  54  81 107 140 181 219 256 303
#     4   9  20  38  54  73 109 151 185 218 258 304
#     4   9  18  34  56  81 108 135 167 215 270 317
#     4   9  19  36  56  80 111 140 167 210 269 323
#
# _framework density 19.900202
#
# number of rings (size 3 to 8) (size 9 to 14) (size 15 to 20)
#    0.000    2.385    0.000    4.154    0.000    8.615 
#    0.000    8.077    0.000    3.231    0.000    0.000 
#    0.000    0.000    0.000    0.000    0.000    0.000 
#
# Total GULP energy -644705.537824 kJ/mol
# GULP energy per Si atom -12398.183420 kJ/mol
# Density = 1.985491 g / cm^3
# Si number density = 19.900202 Si / 1000 Ang^3
#
#
#
# Elastic Constant Matrix: (Units=GPa)
#
#
# Indices 1 2 3 4 5 6 
#
# 1 93.3002 26.6935 42.1567 0.0000 0.0000 0.0000
# 2 26.6935 47.1062 22.9809 0.0000 0.0000 0.0000
# 3 42.1567 22.9809 70.2363 0.0000 0.0000 0.0000
# 4 0.0000 0.0000 0.0000 27.2249 0.0000 0.0000
# 5 0.0000 0.0000 0.0000 0.0000 33.2288 0.0000
# 6 0.0000 0.0000 0.0000 0.0000 0.0000 28.2895
#
#
#
# Elastic Compliance Matrix: (Units=1/GPa)
#
#
# Indices 1 2 3 4 5 6 
#
# 1 0.015676 -0.005108 -0.007737 0.000000 0.000000 0.000000
# 2 -0.005108 0.026925 -0.005744 0.000000 0.000000 0.000000
# 3 -0.007737 -0.005744 0.020761 0.000000 0.000000 0.000000
# 4 0.000000 0.000000 0.000000 0.036731 0.000000 0.000000
# 5 0.000000 0.000000 0.000000 0.000000 0.030094 0.000000
# 6 0.000000 0.000000 0.000000 0.000000 0.000000 0.035349
#
#
# Mechanical properties :
#
#
# Convention : Reuss Voigt Hill
#
# Bulk Modulus (GPa) = 38.19218 43.81163 41.00190
# Shear Modulus (GPa) = 23.64709 25.66943 24.65826
#
# Velocity S-wave (km/s) = 3.45089 3.59543 3.52390
# Velocity P-wave (km/s) = 5.92551 6.26894 6.09964
#
# Compressibility (1/GPa) = 0.02618337
#
# Stress axis : x y z
#
# Youngs Moduli (GPa) = 63.79355 37.13972 48.16714
#
# Poissons Ratio (x) = 0.18971 0.37268
# Poissons Ratio (y) = 0.32587 0.27666
# Poissons Ratio (z) = 0.49359 0.21332
#
# Static dielectric constant tensor:
#      x y z
#    x 3.680000 0.000000 0.000000 
#    y 0.000000 3.366600 0.000000 
#    z 0.000000 0.000000 3.483050 
# 
# 
# High freq. dielectric constant tensor:
#      x y z
#    x 1.784850 0.000000 0.000000 
#    y 0.000000 1.756510 0.000000 
#    z 0.000000 0.000000 1.761010 
# 
# From -- ./inp_files/62814.got.cif
#   From: 2010.03.12/outbox.cif.g09.slc.cpg/sg65_32_cif.got.tgz:62814.got - 2010.04.10 20:52:16.
