data_PCOD8274732
_publ_section_title
;
Structure prediction by ZEFSAII (Michael W. Deem and Ramdas Pophale) SiO2 
 PCOD8274732
Probable space group: C M M M
;
_chemical_formula_sum "Si O2"
_cell_formula_units_Z 72
_cell_length_a 9.083748
_cell_length_b 14.893394
_cell_length_c 26.658336
_cell_angle_alpha 90.000000
_cell_angle_beta 90.000000
_cell_angle_gamma 90.000000
_cell_volume 3606.548641
_symmetry_space_group_name_H-M "C M M M"
_symmetry_group_IT_number 65
_symmetry_cell_setting 'orthorhombic'
loop_
_space_group_symop_operation_xyz
x,y,z
-x,-y,z
x,-y,-z
-x,y,-z
-x,-y,-z
x,y,-z
-x,y,z
x,-y,z
1/2+x,1/2+y,z
1/2-x,1/2-y,z
1/2+x,1/2-y,-z
1/2-x,1/2+y,-z
1/2-x,1/2-y,-z
1/2+x,1/2+y,-z
1/2-x,1/2+y,z
1/2+x,1/2-y,z
loop_
_atom_site_type_symbol
_atom_site_label
_atom_site_fract_x
_atom_site_fract_y
_atom_site_fract_z
Si Si1 0.329081 0.101593 0.849985
Si Si2 0.167072 0.106717 0.945540
Si Si3 0.670703 0.153131 0.500000
Si Si4 0.825351 0.339334 0.259453
Si Si5 0.175737 0.000000 0.316845
Si Si6 0.172550 0.500000 0.578258
O O1 0.500000 0.102372 0.860804
O O2 0.254787 0.148560 0.898516
O O3 0.288814 0.154143 0.799567
O O4 0.271583 0.000000 0.842720
O O5 0.000000 0.137943 0.939706
O O6 0.180886 0.000000 0.943838
O O7 0.228316 0.140156 0.000000
O O8 0.500000 0.176555 0.500000
O O9 0.750000 0.250000 0.500000
O O10 0.710215 0.091352 0.547975
O O11 0.750000 0.250000 0.280147
O O12 0.746071 0.415599 0.290101
O O13 0.000000 0.341714 0.269507
O O14 0.220649 0.000000 0.374601
O O15 0.000000 0.000000 0.311440
O O16 0.000000 0.500000 0.593202
#
# Coordination Sequence:
#
# PCOD8274732 Si02
#       6
#    16  16   8  16   8   8
#     4   9  17  31  51  74 103 140 180 229 291 350
#     4   8  14  24  40  67 101 134 172 221 277 340
#     4   9  19  37  64  94 126 167 209 247 297 348
#     4  11  23  41  61  85 117 154 198 251 304 361
#     4  12  25  41  63  92 123 163 208 251 304 358
#     4   9  20  40  62  88 126 169 205 247 300 351
#
# _framework density 19.963684000000001
#
# number of rings (size 3 to 8) (size 9 to 14) (size 15 to 20)
#    0.000    2.444    1.111    3.000    0.000    4.000 
#    0.000    5.556    0.000    0.667    0.000    0.000 
#    0.000    0.000    0.000    0.000    0.000    0.000 
#
# Total GULP energy -446177.757293 kJ/mol
# GULP energy per Si atom -12393.826591 kJ/mol
# Density = 1.991825 g / cm^3
# Si number density = 19.963684 Si / 1000 Ang^3
#
#
#
# Elastic Constant Matrix: (Units=GPa)
#
#
# Indices 1 2 3 4 5 6 
#
# 1 105.9365 62.6174 82.0053 0.0000 0.0000 0.0000
# 2 62.6174 127.6830 57.1974 0.0000 0.0000 0.0000
# 3 82.0053 57.1974 138.4869 0.0000 0.0000 0.0000
# 4 0.0000 0.0000 0.0000 21.9476 0.0000 0.0000
# 5 0.0000 0.0000 0.0000 0.0000 36.0760 0.0000
# 6 0.0000 0.0000 0.0000 0.0000 0.0000 29.4286
#
#
#
# Elastic Compliance Matrix: (Units=1/GPa)
#
#
# Indices 1 2 3 4 5 6 
#
# 1 0.020229 -0.005588 -0.009670 0.000000 0.000000 0.000000
# 2 -0.005588 0.011154 -0.001297 0.000000 0.000000 0.000000
# 3 -0.009670 -0.001297 0.013483 0.000000 0.000000 0.000000
# 4 0.000000 0.000000 0.000000 0.045563 0.000000 0.000000
# 5 0.000000 0.000000 0.000000 0.000000 0.027719 0.000000
# 6 0.000000 0.000000 0.000000 0.000000 0.000000 0.033981
#
#
# Mechanical properties :
#
#
# Convention : Reuss Voigt Hill
#
# Bulk Modulus (GPa) = 85.08456 86.19405 85.63930
# Shear Modulus (GPa) = 26.43288 28.84287 27.63787
#
# Velocity S-wave (km/s) = 3.64269 3.80513 3.72480
# Velocity P-wave (km/s) = 7.77203 7.91041 7.84152
#
# Compressibility (1/GPa) = 0.01175301
#
# Stress axis : x y z
#
# Youngs Moduli (GPa) = 49.43494 89.65583 74.16711
#
# Poissons Ratio (x) = 0.50104 0.71722
# Poissons Ratio (y) = 0.27626 0.09623
# Poissons Ratio (z) = 0.47805 0.11633
#
# Static dielectric constant tensor:
#      x y z
#    x 3.562630 0.000000 0.000000 
#    y 0.000000 3.421150 0.000000 
#    z 0.000000 0.000000 3.899250 
# 
# 
# High freq. dielectric constant tensor:
#      x y z
#    x 1.771630 0.000000 0.000000 
#    y 0.000000 1.769030 0.000000 
#    z 0.000000 0.000000 1.785740 
# 
# From -- ./inp_files/72617.got.cif
#   From: 2010.03.12/outbox.cif.g09.slc.cpg/sg65_37_cif.got.tgz:72617.got - 2010.04.10 20:52:16.
