data_PCOD8274611
_publ_section_title
;
Structure prediction by ZEFSAII (Michael W. Deem and Ramdas Pophale) SiO2 
 PCOD8274611
Probable space group: C M M M
;
_chemical_formula_sum "Si O2"
_cell_formula_units_Z 72
_cell_length_a 14.114918
_cell_length_b 26.779191
_cell_length_c 8.762707
_cell_angle_alpha 90.000000
_cell_angle_beta 90.000000
_cell_angle_gamma 90.000000
_cell_volume 3312.181314
_symmetry_space_group_name_H-M "C M M M"
_symmetry_group_IT_number 65
_symmetry_cell_setting 'orthorhombic'
loop_
_space_group_symop_operation_xyz
x,y,z
-x,-y,z
x,-y,-z
-x,y,-z
-x,-y,-z
x,y,-z
-x,y,z
x,-y,z
1/2+x,1/2+y,z
1/2-x,1/2-y,z
1/2+x,1/2-y,-z
1/2-x,1/2+y,-z
1/2-x,1/2-y,-z
1/2+x,1/2+y,-z
1/2-x,1/2+y,z
1/2+x,1/2-y,z
loop_
_atom_site_type_symbol
_atom_site_label
_atom_site_fract_x
_atom_site_fract_y
_atom_site_fract_z
Si Si1 0.317985 0.620432 0.322021
Si Si2 0.500000 0.888263 0.331413
Si Si3 0.173633 0.557204 0.178251
Si Si4 0.794234 0.300168 0.165925
Si Si5 0.500000 0.670464 0.182063
Si Si6 0.000000 0.717153 0.772372
O O1 0.342431 0.616914 0.500000
O O2 0.275345 0.568091 0.259996
O O3 0.231115 0.658311 0.290243
O O4 0.409583 0.637783 0.228811
O O5 0.500000 0.911969 0.500000
O O6 0.408161 0.907101 0.241233
O O7 0.500000 0.827481 0.353569
O O8 0.145873 0.500000 0.208706
O O9 0.184994 0.568871 0.000000
O O10 0.750000 0.250000 0.234336
O O11 0.905148 0.292832 0.133358
O O12 0.748139 0.312697 0.000000
O O13 0.500000 0.723680 0.274944
O O14 0.500000 0.680844 0.000000
#
# Coordination Sequence:
#
# PCOD8274611 Si02
#       6
#    16   8  16  16   8   8
#     4  12  26  43  65  97 134 171 214 272 338 394
#     4  12  26  41  64 101 142 179 215 269 337 396
#     4  11  25  46  72  98 127 171 226 278 328 392
#     4  11  22  39  63  92 129 178 230 271 319 384
#     4  12  25  46  71  96 131 178 226 271 321 387
#     4  12  24  37  65 100 137 179 229 266 318 381
#
# _framework density 21.737940999999999
#
# number of rings (size 3 to 8) (size 9 to 14) (size 15 to 20)
#    0.000    0.444    4.444    4.667    0.000    6.222 
#    0.000    0.556    0.000    3.333    0.000    0.000 
#    0.000    0.000    0.000    0.000    0.000    0.000 
#
# Total GULP energy -446057.972378 kJ/mol
# GULP energy per Si atom -12390.499233 kJ/mol
# Density = 2.168846 g / cm^3
# Si number density = 21.737941 Si / 1000 Ang^3
#
#
#
# Elastic Constant Matrix: (Units=GPa)
#
#
# Indices 1 2 3 4 5 6 
#
# 1 145.2215 46.1136 33.4702 0.0000 0.0000 0.0000
# 2 46.1136 96.3073 32.7199 0.0000 0.0000 0.0000
# 3 33.4702 32.7199 115.0173 0.0000 0.0000 0.0000
# 4 0.0000 0.0000 0.0000 32.7044 0.0000 0.0000
# 5 0.0000 0.0000 0.0000 0.0000 8.8586 0.0000
# 6 0.0000 0.0000 0.0000 0.0000 0.0000 33.1074
#
#
#
# Elastic Compliance Matrix: (Units=1/GPa)
#
#
# Indices 1 2 3 4 5 6 
#
# 1 0.008327 -0.003502 -0.001427 0.000000 0.000000 0.000000
# 2 -0.003502 0.012967 -0.002670 0.000000 0.000000 0.000000
# 3 -0.001427 -0.002670 0.009869 0.000000 0.000000 0.000000
# 4 0.000000 0.000000 0.000000 0.030577 0.000000 0.000000
# 5 0.000000 0.000000 0.000000 0.000000 0.112884 0.000000
# 6 0.000000 0.000000 0.000000 0.000000 0.000000 0.030205
#
#
# Mechanical properties :
#
#
# Convention : Reuss Voigt Hill
#
# Bulk Modulus (GPa) = 62.63462 64.57260 63.60361
# Shear Modulus (GPa) = 22.18779 31.21690 26.70235
#
# Velocity S-wave (km/s) = 3.19830 3.79364 3.50862
# Velocity P-wave (km/s) = 6.52034 6.99703 6.76289
#
# Compressibility (1/GPa) = 0.01596561
#
# Stress axis : x y z
#
# Youngs Moduli (GPa) = 120.09093 77.11614 101.32694
#
# Poissons Ratio (x) = 0.27009 0.14458
# Poissons Ratio (y) = 0.42060 0.27052
# Poissons Ratio (z) = 0.17135 0.20588
#
# Static dielectric constant tensor:
#      x y z
#    x 4.074020 0.000000 0.000000 
#    y 0.000000 4.045480 0.000000 
#    z 0.000000 0.000000 3.663360 
# 
# 
# High freq. dielectric constant tensor:
#      x y z
#    x 1.865400 0.000000 0.000000 
#    y 0.000000 1.850270 0.000000 
#    z 0.000000 0.000000 1.841350 
# 
# From -- ./inp_files/7420.got.cif
#   From: 2010.03.12/outbox.cif.g09.slc.cpg/sg65_4_cif.got.tgz:7420.got - 2010.04.10 20:52:16.
