data_PCOD8274201
_publ_section_title
;
Structure prediction by ZEFSAII (Michael W. Deem and Ramdas Pophale) SiO2 
 PCOD8274201
Probable space group: C M M M
;
_chemical_formula_sum "Si O2"
_cell_formula_units_Z 72
_cell_length_a 17.017818
_cell_length_b 15.302591
_cell_length_c 15.215807
_cell_angle_alpha 90.000000
_cell_angle_beta 90.000000
_cell_angle_gamma 90.000000
_cell_volume 3962.450377
_symmetry_space_group_name_H-M "C M M M"
_symmetry_group_IT_number 65
_symmetry_cell_setting 'orthorhombic'
loop_
_space_group_symop_operation_xyz
x,y,z
-x,-y,z
x,-y,-z
-x,y,-z
-x,-y,-z
x,y,-z
-x,y,z
x,-y,z
1/2+x,1/2+y,z
1/2-x,1/2-y,z
1/2+x,1/2-y,-z
1/2-x,1/2+y,-z
1/2-x,1/2-y,-z
1/2+x,1/2+y,-z
1/2-x,1/2+y,z
1/2+x,1/2-y,z
loop_
_atom_site_type_symbol
_atom_site_label
_atom_site_fract_x
_atom_site_fract_y
_atom_site_fract_z
Si Si1 0.500000 0.899333 0.098233
Si Si2 0.829543 0.101670 0.604494
Si Si3 0.146041 0.695356 0.138434
Si Si4 0.500000 0.600157 0.397250
Si Si5 0.250000 0.250000 0.291912
Si Si6 0.410441 0.329260 0.000000
Si Si7 0.751014 0.400905 0.000000
O O1 0.422352 0.875418 0.152873
O O2 0.500000 0.000000 0.081619
O O3 0.500000 0.853693 0.000000
O O4 0.821773 0.109900 0.500000
O O5 0.765902 0.164497 0.649121
O O6 0.916186 0.136777 0.637513
O O7 0.815848 0.000000 0.632079
O O8 0.174996 0.727935 0.232359
O O9 0.104718 0.774196 0.087552
O O10 0.218522 0.651926 0.085246
O O11 0.500000 0.500000 0.371771
O O12 0.500000 0.613655 0.500000
O O13 0.343982 0.405219 0.000000
O O14 0.500000 0.366735 0.000000
O O15 0.783853 0.500000 0.000000
#
# Coordination Sequence:
#
# PCOD8274201 Si02
#       7
#     8  16  16   8   8   8   8
#     4  11  20  33  58  80  99 143 197 236 269 315
#     4   9  19  37  59  83 110 143 184 224 270 336
#     4  11  20  36  52  78 108 139 183 234 272 321
#     4   7  12  29  56  78  99 131 175 221 256 308
#     4  12  23  33  56  82 118 148 174 225 295 330
#     4  11  19  38  58  70 106 150 185 220 268 325
#     4  11  21  35  55  75 105 144 183 223 278 336
#
# _framework density 18.170573999999998
#
# number of rings (size 3 to 8) (size 9 to 14) (size 15 to 20)
#    0.000    1.778    5.556    3.000    0.000    2.889 
#    0.000    0.000    0.000    0.000    0.000    0.000 
#    0.000    8.000    0.000    0.000    0.000    0.000 
#
# Total GULP energy -446054.137624 kJ/mol
# GULP energy per Si atom -12390.392712 kJ/mol
# Density = 1.812922 g / cm^3
# Si number density = 18.170574 Si / 1000 Ang^3
#
#
#
# Elastic Constant Matrix: (Units=GPa)
#
#
# Indices 1 2 3 4 5 6 
#
# 1 122.7810 31.3553 33.7018 0.0000 0.0000 0.0000
# 2 31.3553 76.4371 36.8902 0.0000 0.0000 0.0000
# 3 33.7018 36.8902 66.2955 0.0000 0.0000 0.0000
# 4 0.0000 0.0000 0.0000 15.8511 0.0000 0.0000
# 5 0.0000 0.0000 0.0000 0.0000 20.3717 0.0000
# 6 0.0000 0.0000 0.0000 0.0000 0.0000 23.6119
#
#
#
# Elastic Compliance Matrix: (Units=1/GPa)
#
#
# Indices 1 2 3 4 5 6 
#
# 1 0.009727 -0.002192 -0.003725 0.000000 0.000000 0.000000
# 2 -0.002192 0.018380 -0.009113 0.000000 0.000000 0.000000
# 3 -0.003725 -0.009113 0.022049 0.000000 0.000000 0.000000
# 4 0.000000 0.000000 0.000000 0.063087 0.000000 0.000000
# 5 0.000000 0.000000 0.000000 0.000000 0.049088 0.000000
# 6 0.000000 0.000000 0.000000 0.000000 0.000000 0.042352
#
#
# Mechanical properties :
#
#
# Convention : Reuss Voigt Hill
#
# Bulk Modulus (GPa) = 49.76379 52.15649 50.96014
# Shear Modulus (GPa) = 20.70899 22.87136 21.79018
#
# Velocity S-wave (km/s) = 3.37961 3.55167 3.46671
# Velocity P-wave (km/s) = 6.53265 6.75169 6.64307
#
# Compressibility (1/GPa) = 0.02009493
#
# Stress axis : x y z
#
# Youngs Moduli (GPa) = 102.80806 54.40630 45.35451
#
# Poissons Ratio (x) = 0.11928 0.16893
# Poissons Ratio (y) = 0.22540 0.41332
# Poissons Ratio (z) = 0.38293 0.49581
#
# Static dielectric constant tensor:
#      x y z
#    x 3.717370 0.000000 0.000000 
#    y 0.000000 3.190860 0.000000 
#    z 0.000000 0.000000 3.001040 
# 
# 
# High freq. dielectric constant tensor:
#      x y z
#    x 1.717570 0.000000 0.000000 
#    y 0.000000 1.688390 0.000000 
#    z 0.000000 0.000000 1.668080 
# 
# From -- ./inp_files/42234.got.cif
#   From: 2010.03.12/outbox.cif.g09.slc.cpg/sg65_22_cif.got.tgz:42234.got - 2010.04.10 20:52:16.
