data_PCOD8274092
_publ_section_title
;
Structure prediction by ZEFSAII (Michael W. Deem and Ramdas Pophale) SiO2 
 PCOD8274092
Probable space group: C M M M
;
_chemical_formula_sum "Si O2"
_cell_formula_units_Z 64
_cell_length_a 10.183585
_cell_length_b 14.587146
_cell_length_c 22.839178
_cell_angle_alpha 90.000000
_cell_angle_beta 90.000000
_cell_angle_gamma 90.000000
_cell_volume 3392.747129
_symmetry_space_group_name_H-M "C M M M"
_symmetry_group_IT_number 65
_symmetry_cell_setting 'orthorhombic'
loop_
_space_group_symop_operation_xyz
x,y,z
-x,-y,z
x,-y,-z
-x,y,-z
-x,-y,-z
x,y,-z
-x,y,z
x,-y,z
1/2+x,1/2+y,z
1/2-x,1/2-y,z
1/2+x,1/2-y,-z
1/2-x,1/2+y,-z
1/2-x,1/2-y,-z
1/2+x,1/2+y,-z
1/2-x,1/2+y,z
1/2+x,1/2-y,z
loop_
_atom_site_type_symbol
_atom_site_label
_atom_site_fract_x
_atom_site_fract_y
_atom_site_fract_z
Si Si1 0.500000 0.100876 0.223420
Si Si2 0.500000 0.393327 0.759666
Si Si3 0.000000 0.741089 0.328872
Si Si4 0.844625 0.000000 0.933380
Si Si5 0.250000 0.750000 0.406600
Si Si6 0.739951 0.645864 0.843761
Si Si7 0.343815 0.392025 0.500000
O O1 0.500000 0.174007 0.274309
O O2 0.625212 0.111026 0.182562
O O3 0.500000 0.000000 0.251973
O O4 0.500000 0.500000 0.745991
O O5 0.500000 0.344180 0.696505
O O6 0.371649 0.365147 0.795129
O O7 0.872303 0.721740 0.367099
O O8 0.790947 0.909744 0.902162
O O9 0.000000 0.000000 0.928723
O O10 0.795124 0.000000 0.000000
O O11 0.284266 0.659318 0.443780
O O12 0.750000 0.750000 0.863855
O O13 0.304289 0.500000 0.500000
O O14 0.500000 0.380408 0.500000
#
# Coordination Sequence:
#
# PCOD8274092 Si02
#       7
#     8   8   8   8   8  16   8
#     4  12  24  38  61  93 128 170 200 252 320 382
#     4  12  22  40  65  91 122 180 218 244 308 392
#     4  12  24  39  62 100 137 162 214 266 318 372
#     4  11  24  43  67  93 121 163 223 278 311 372
#     4  11  24  42  66 100 134 162 211 280 314 364
#     4  12  21  40  65  89 123 165 212 256 318 388
#     4  10  22  45  74  93 124 179 223 254 324 380
#
# _framework density 18.863769000000001
#
# number of rings (size 3 to 8) (size 9 to 14) (size 15 to 20)
#    0.000    0.500    7.500    1.500    0.000    2.500 
#    0.000    1.875    0.000    0.000    0.000    0.000 
#    0.000    0.000    0.000    0.000    0.000    0.000 
#
# Total GULP energy -396943.126847 kJ/mol
# GULP energy per Si atom -12404.472714 kJ/mol
# Density = 1.882083 g / cm^3
# Si number density = 18.863769 Si / 1000 Ang^3
#
#
#
# Elastic Constant Matrix: (Units=GPa)
#
#
# Indices 1 2 3 4 5 6 
#
# 1 146.3644 35.9825 62.2756 0.0000 0.0000 0.0000
# 2 35.9825 172.8854 58.4633 0.0000 0.0000 0.0000
# 3 62.2756 58.4633 130.5708 0.0000 0.0000 0.0000
# 4 0.0000 0.0000 0.0000 38.6503 0.0000 0.0000
# 5 0.0000 0.0000 0.0000 0.0000 39.5755 0.0000
# 6 0.0000 0.0000 0.0000 0.0000 0.0000 27.9673
#
#
#
# Elastic Compliance Matrix: (Units=1/GPa)
#
#
# Indices 1 2 3 4 5 6 
#
# 1 0.008605 -0.000475 -0.003891 0.000000 0.000000 0.000000
# 2 -0.000475 0.006842 -0.002837 0.000000 0.000000 0.000000
# 3 -0.003891 -0.002837 0.010785 0.000000 0.000000 0.000000
# 4 0.000000 0.000000 0.000000 0.025873 0.000000 0.000000
# 5 0.000000 0.000000 0.000000 0.000000 0.025268 0.000000
# 6 0.000000 0.000000 0.000000 0.000000 0.000000 0.035756
#
#
# Mechanical properties :
#
#
# Convention : Reuss Voigt Hill
#
# Bulk Modulus (GPa) = 84.56532 84.80705 84.68619
# Shear Modulus (GPa) = 38.02913 40.77857 39.40385
#
# Velocity S-wave (km/s) = 4.49485 4.65450 4.57537
# Velocity P-wave (km/s) = 8.47732 8.59890 8.53833
#
# Compressibility (1/GPa) = 0.01182518
#
# Stress axis : x y z
#
# Youngs Moduli (GPa) = 116.21507 146.14613 92.72132
#
# Poissons Ratio (x) = 0.06942 0.36081
# Poissons Ratio (y) = 0.05520 0.26307
# Poissons Ratio (z) = 0.45223 0.41464
#
# Static dielectric constant tensor:
#      x y z
#    x 3.681150 0.000000 0.000000 
#    y 0.000000 5.108960 0.000000 
#    z 0.000000 0.000000 3.525770 
# 
# 
# High freq. dielectric constant tensor:
#      x y z
#    x 1.751960 0.000000 0.000000 
#    y 0.000000 1.749080 0.000000 
#    z 0.000000 0.000000 1.728970 
# 
# From -- ./inp_files/66941.got.cif
#   From: 2010.03.12/outbox.cif.g09.slc.cpg/sg65_34_cif.got.tgz:66941.got - 2010.04.10 20:52:16.
