data_PCOD8274349
_publ_section_title
;
Structure prediction by ZEFSAII (Michael W. Deem and Ramdas Pophale) SiO2 
 PCOD8274349
Probable space group: C M M M
;
_chemical_formula_sum "Si O2"
_cell_formula_units_Z 80
_cell_length_a 14.254868
_cell_length_b 18.360549
_cell_length_c 16.566891
_cell_angle_alpha 90.000000
_cell_angle_beta 90.000000
_cell_angle_gamma 90.000000
_cell_volume 4336.006034
_symmetry_space_group_name_H-M "C M M M"
_symmetry_group_IT_number 65
_symmetry_cell_setting 'orthorhombic'
loop_
_space_group_symop_operation_xyz
x,y,z
-x,-y,z
x,-y,-z
-x,y,-z
-x,-y,-z
x,y,-z
-x,y,z
x,-y,z
1/2+x,1/2+y,z
1/2-x,1/2-y,z
1/2+x,1/2-y,-z
1/2-x,1/2+y,-z
1/2-x,1/2-y,-z
1/2+x,1/2+y,-z
1/2-x,1/2+y,z
1/2+x,1/2-y,z
loop_
_atom_site_type_symbol
_atom_site_label
_atom_site_fract_x
_atom_site_fract_y
_atom_site_fract_z
Si Si1 0.894962 0.913930 0.588993
Si Si2 0.328611 0.913782 0.000000
Si Si3 0.607975 0.135156 0.175839
Si Si4 0.719220 0.416747 0.258877
Si Si5 0.830635 0.189305 0.000000
Si Si6 0.103309 0.200382 0.170003
O O1 0.870144 0.882014 0.500000
O O2 0.814454 0.889156 0.652406
O O3 0.000000 0.887145 0.615025
O O4 0.895856 0.000000 0.583577
O O5 0.377221 0.883781 0.081536
O O6 0.220215 0.889460 0.000000
O O7 0.335039 0.000000 0.000000
O O8 0.500000 0.119934 0.197158
O O9 0.669750 0.087868 0.239499
O O10 0.636260 0.218792 0.195011
O O11 0.685613 0.500000 0.245838
O O12 0.673059 0.362964 0.195230
O O13 0.750000 0.250000 0.000000
O O14 0.900188 0.198358 0.074020
O O15 0.000000 0.184297 0.204804
#
# Coordination Sequence:
#
# PCOD8274349 Si02
#       6
#    16   8  16  16   8  16
#     4   8  15  30  53  81 111 141 173 211 261 323
#     4  12  23  36  55  77 101 136 187 240 274 297
#     4  11  23  38  55  75 104 147 191 228 266 313
#     4  11  21  34  55  83 112 137 171 224 275 318
#     4  12  19  35  55  72 102 141 180 221 264 324
#     4  11  22  36  55  77 105 144 183 218 267 328
#
# _framework density 18.450158999999999
#
# number of rings (size 3 to 8) (size 9 to 14) (size 15 to 20)
#    0.000    1.400    4.000    3.000    0.000    4.800 
#    0.000    0.000    0.000    4.800    0.000    5.600 
#    0.000    0.000    0.000    0.000    0.000    0.000 
#
# Total GULP energy -495662.090919 kJ/mol
# GULP energy per Si atom -12391.552273 kJ/mol
# Density = 1.840817 g / cm^3
# Si number density = 18.450159 Si / 1000 Ang^3
#
#
#
# Elastic Constant Matrix: (Units=GPa)
#
#
# Indices 1 2 3 4 5 6 
#
# 1 89.6071 33.3939 51.4572 0.0000 0.0000 0.0000
# 2 33.3939 85.3479 14.9988 0.0000 0.0000 0.0000
# 3 51.4572 14.9988 111.6425 0.0000 0.0000 0.0000
# 4 0.0000 0.0000 0.0000 11.1076 0.0000 0.0000
# 5 0.0000 0.0000 0.0000 0.0000 20.5146 0.0000
# 6 0.0000 0.0000 0.0000 0.0000 0.0000 22.6792
#
#
#
# Elastic Compliance Matrix: (Units=1/GPa)
#
#
# Indices 1 2 3 4 5 6 
#
# 1 0.017399 -0.005529 -0.007277 0.000000 0.000000 0.000000
# 2 -0.005529 0.013757 0.000700 0.000000 0.000000 0.000000
# 3 -0.007277 0.000700 0.012217 0.000000 0.000000 0.000000
# 4 0.000000 0.000000 0.000000 0.090029 0.000000 0.000000
# 5 0.000000 0.000000 0.000000 0.000000 0.048746 0.000000
# 6 0.000000 0.000000 0.000000 0.000000 0.000000 0.044093
#
#
# Mechanical properties :
#
#
# Convention : Reuss Voigt Hill
#
# Bulk Modulus (GPa) = 52.18605 54.03301 53.10953
# Shear Modulus (GPa) = 19.46751 23.31014 21.38883
#
# Velocity S-wave (km/s) = 3.25182 3.55831 3.40851
# Velocity P-wave (km/s) = 6.51501 6.79938 6.65871
#
# Compressibility (1/GPa) = 0.01916221
#
# Stress axis : x y z
#
# Youngs Moduli (GPa) = 57.47518 72.69044 81.85363
#
# Poissons Ratio (x) = 0.40189 0.59561
# Poissons Ratio (y) = 0.31777 -0.05731
# Poissons Ratio (z) = 0.41822 -0.05089
#
# Static dielectric constant tensor:
#      x y z
#    x 3.507290 0.000000 0.000000 
#    y 0.000000 3.339360 0.000000 
#    z 0.000000 0.000000 3.549780 
# 
# 
# High freq. dielectric constant tensor:
#      x y z
#    x 1.714740 0.000000 0.000000 
#    y 0.000000 1.703620 0.000000 
#    z 0.000000 0.000000 1.696300 
# 
# From -- ./inp_files/52894.got.cif
#   From: 2010.03.12/outbox.cif.g09.slc.cpg/sg65_27_cif.got.tgz:52894.got - 2010.04.10 20:52:16.
