data_PCOD8274346
_publ_section_title
;
Structure prediction by ZEFSAII (Michael W. Deem and Ramdas Pophale) SiO2 
 PCOD8274346
Probable space group: C M M M
;
_chemical_formula_sum "Si O2"
_cell_formula_units_Z 56
_cell_length_a 17.910892
_cell_length_b 8.653975
_cell_length_c 18.318302
_cell_angle_alpha 90.000000
_cell_angle_beta 90.000000
_cell_angle_gamma 90.000000
_cell_volume 2839.344350
_symmetry_space_group_name_H-M "C M M M"
_symmetry_group_IT_number 65
_symmetry_cell_setting 'orthorhombic'
loop_
_space_group_symop_operation_xyz
x,y,z
-x,-y,z
x,-y,-z
-x,y,-z
-x,-y,-z
x,y,-z
-x,y,z
x,-y,z
1/2+x,1/2+y,z
1/2-x,1/2-y,z
1/2+x,1/2-y,-z
1/2-x,1/2+y,-z
1/2-x,1/2-y,-z
1/2+x,1/2+y,-z
1/2-x,1/2+y,z
1/2+x,1/2-y,z
loop_
_atom_site_type_symbol
_atom_site_label
_atom_site_fract_x
_atom_site_fract_y
_atom_site_fract_z
Si Si1 0.831817 0.318096 0.000000
Si Si2 0.412055 0.322297 0.862009
Si Si3 0.331636 0.680770 0.420991
Si Si4 0.667019 0.817572 0.274955
O O1 0.750000 0.250000 0.000000
O O2 0.875063 0.265216 0.928711
O O3 0.825736 0.500000 0.000000
O O4 0.500000 0.304601 0.869256
O O5 0.386835 0.500000 0.863684
O O6 0.386410 0.246126 0.787131
O O7 0.372396 0.708301 0.500000
O O8 0.326578 0.500000 0.403299
O O9 0.250000 0.750000 0.427353
O O10 0.370632 0.765772 0.352430
O O11 0.750000 0.750000 0.266127
O O12 0.671283 0.000000 0.269883
#
# Coordination Sequence:
#
# PCOD8274346 Si02
#       4
#     8  16  16  16
#     4  12  25  42  65  91 119 147 183 228 273 326
#     4  11  24  42  62  84 114 150 187 228 278 334
#     4   9  16  27  46  74 108 144 184 231 282 333
#     4  11  21  34  55  82 114 149 189 235 281 332
#
# _framework density 19.722863
#
# number of rings (size 3 to 8) (size 9 to 14) (size 15 to 20)
#    0.000    1.429    0.000    8.571    0.000    5.714 
#    0.000    0.000    0.000    0.857    0.000    6.000 
#    0.000    0.000    0.000    0.000    0.000    0.000 
#
# Total GULP energy -347104.382801 kJ/mol
# GULP energy per Si atom -12396.585100 kJ/mol
# Density = 1.967797 g / cm^3
# Si number density = 19.722863 Si / 1000 Ang^3
#
#
#
# Elastic Constant Matrix: (Units=GPa)
#
#
# Indices 1 2 3 4 5 6 
#
# 1 53.8080 55.1626 49.0764 0.0000 0.0000 0.0000
# 2 55.1626 191.3738 79.3302 0.0000 0.0000 0.0000
# 3 49.0764 79.3302 189.9625 0.0000 0.0000 0.0000
# 4 0.0000 0.0000 0.0000 58.2371 0.0000 0.0000
# 5 0.0000 0.0000 0.0000 0.0000 -48.0894 0.0000
# 6 0.0000 0.0000 0.0000 0.0000 0.0000 24.8636
#
#
#
# Elastic Compliance Matrix: (Units=1/GPa)
#
#
# Indices 1 2 3 4 5 6 
#
# 1 0.029820 -0.006533 -0.004976 0.000000 0.000000 0.000000
# 2 -0.006533 0.007751 -0.001549 0.000000 0.000000 0.000000
# 3 -0.004976 -0.001549 0.007197 0.000000 0.000000 0.000000
# 4 0.000000 0.000000 0.000000 0.017171 0.000000 0.000000
# 5 0.000000 0.000000 0.000000 0.000000 -0.020795 0.000000
# 6 0.000000 0.000000 0.000000 0.000000 0.000000 0.040219
#
#
# Mechanical properties :
#
#
# Convention : Reuss Voigt Hill
#
# Bulk Modulus (GPa) = 53.61347 89.14252 71.37799
# Shear Modulus (GPa) = 43.97690 23.77392 33.87541
#
# Velocity S-wave (km/s) = 4.72714 3.47565 4.14885
# Velocity P-wave (km/s) = 7.55228 7.83598 7.69543
#
# Compressibility (1/GPa) = 0.01865203
#
# Stress axis : x y z
#
# Youngs Moduli (GPa) = 33.53422 129.02313 138.95590
#
# Poissons Ratio (x) = 0.84290 0.69141
# Poissons Ratio (y) = 0.21908 0.21523
# Poissons Ratio (z) = 0.16686 0.19985
#
# Static dielectric constant tensor:
#      x y z
#    x 3.231900 0.000000 0.000000 
#    y 0.000000 3.865500 0.000000 
#    z 0.000000 0.000000 4.356100 
# 
# 
# High freq. dielectric constant tensor:
#      x y z
#    x 1.724670 0.000000 0.000000 
#    y 0.000000 1.791740 0.000000 
#    z 0.000000 0.000000 1.803370 
# 
# From -- ./inp_files/53897.got.cif
#   From: 2010.03.12/outbox.cif.g09.slc.cpg/sg65_27_cif.got.tgz:53897.got - 2010.04.10 20:52:16.
