data_PCOD8274372
_publ_section_title
;
Structure prediction by ZEFSAII (Michael W. Deem and Ramdas Pophale) SiO2 
 PCOD8274372
Probable space group: C M M M
;
_chemical_formula_sum "Si O2"
_cell_formula_units_Z 88
_cell_length_a 22.627951
_cell_length_b 22.360796
_cell_length_c 8.827096
_cell_angle_alpha 90.000000
_cell_angle_beta 90.000000
_cell_angle_gamma 90.000000
_cell_volume 4466.325174
_symmetry_space_group_name_H-M "C M M M"
_symmetry_group_IT_number 65
_symmetry_cell_setting 'orthorhombic'
loop_
_space_group_symop_operation_xyz
x,y,z
-x,-y,z
x,-y,-z
-x,y,-z
-x,-y,-z
x,y,-z
-x,y,z
x,-y,z
1/2+x,1/2+y,z
1/2-x,1/2-y,z
1/2+x,1/2-y,-z
1/2-x,1/2+y,-z
1/2-x,1/2-y,-z
1/2+x,1/2+y,-z
1/2-x,1/2+y,z
1/2+x,1/2-y,z
loop_
_atom_site_type_symbol
_atom_site_label
_atom_site_fract_x
_atom_site_fract_y
_atom_site_fract_z
Si Si1 0.566477 0.772128 0.673885
Si Si2 0.367858 0.332690 0.828570
Si Si3 0.431044 0.000000 0.680080
Si Si4 0.621193 0.880629 0.179354
Si Si5 0.738223 0.815683 0.174460
Si Si6 0.569336 0.433536 0.668183
O O1 0.578511 0.789337 0.500000
O O2 0.500000 0.747136 0.695645
O O3 0.612841 0.721659 0.722084
O O4 0.572765 0.831203 0.775924
O O5 0.299525 0.350941 0.803638
O O6 0.403991 0.392086 0.796276
O O7 0.379419 0.311774 0.000000
O O8 0.396132 0.942498 0.741738
O O9 0.500000 0.000000 0.733602
O O10 0.427900 0.000000 0.500000
O O11 0.684485 0.855073 0.243446
O O12 0.622236 0.891343 0.000000
O O13 0.750000 0.750000 0.249004
O O14 0.720914 0.805082 0.000000
O O15 0.585571 0.409456 0.500000
O O16 0.500000 0.434573 0.689728
O O17 0.595039 0.500000 0.689728
#
# Coordination Sequence:
#
# PCOD8274372 Si02
#       6
#    16  16   8  16  16  16
#     4  11  23  37  55  84 122 156 187 235 300 356
#     4  11  21  35  58  85 113 148 194 241 287 347
#     4  11  25  45  65  89 127 165 198 249 314 367
#     4  11  22  40  66  90 116 155 204 249 293 355
#     4   9  18  37  60  84 117 151 184 233 295 344
#     4   9  19  37  57  77 110 153 189 228 286 348
#
# _framework density 19.702998000000001
#
# number of rings (size 3 to 8) (size 9 to 14) (size 15 to 20)
#    0.000    1.727    1.818    3.545    0.000    7.273 
#    1.636    5.455    0.000    0.000    0.000    0.000 
#    0.000    0.000    0.000    0.000    0.000    0.000 
#
# Total GULP energy -545484.686873 kJ/mol
# GULP energy per Si atom -12397.379247 kJ/mol
# Density = 1.965815 g / cm^3
# Si number density = 19.702998 Si / 1000 Ang^3
#
#
#
# Elastic Constant Matrix: (Units=GPa)
#
#
# Indices 1 2 3 4 5 6 
#
# 1 97.4011 61.7001 42.7944 0.0000 0.0000 0.0000
# 2 61.7001 123.2780 34.3445 0.0000 0.0000 0.0000
# 3 42.7944 34.3445 64.0052 0.0000 0.0000 0.0000
# 4 0.0000 0.0000 0.0000 33.7099 0.0000 0.0000
# 5 0.0000 0.0000 0.0000 0.0000 5.3753 0.0000
# 6 0.0000 0.0000 0.0000 0.0000 0.0000 33.9564
#
#
#
# Elastic Compliance Matrix: (Units=1/GPa)
#
#
# Indices 1 2 3 4 5 6 
#
# 1 0.018356 -0.006782 -0.008634 0.000000 0.000000 0.000000
# 2 -0.006782 0.012043 -0.001928 0.000000 0.000000 0.000000
# 3 -0.008634 -0.001928 0.022431 0.000000 0.000000 0.000000
# 4 0.000000 0.000000 0.000000 0.029665 0.000000 0.000000
# 5 0.000000 0.000000 0.000000 0.000000 0.186037 0.000000
# 6 0.000000 0.000000 0.000000 0.000000 0.000000 0.029450
#
#
# Mechanical properties :
#
#
# Convention : Reuss Voigt Hill
#
# Bulk Modulus (GPa) = 55.11795 62.48468 58.80132
# Shear Modulus (GPa) = 14.76155 24.33132 19.54644
#
# Velocity S-wave (km/s) = 2.74013 3.51793 3.15311
# Velocity P-wave (km/s) = 6.16816 6.94862 6.56999
#
# Compressibility (1/GPa) = 0.01814291
#
# Stress axis : x y z
#
# Youngs Moduli (GPa) = 54.47676 83.03491 44.58109
#
# Poissons Ratio (x) = 0.56313 0.38492
# Poissons Ratio (y) = 0.36946 0.08594
# Poissons Ratio (z) = 0.47036 0.16007
#
# Static dielectric constant tensor:
#      x y z
#    x 3.736850 0.000000 0.000000 
#    y 0.000000 3.644900 0.000000 
#    z 0.000000 0.000000 3.480600 
# 
# 
# High freq. dielectric constant tensor:
#      x y z
#    x 1.772970 0.000000 0.000000 
#    y 0.000000 1.766200 0.000000 
#    z 0.000000 0.000000 1.754850 
# 
# From -- ./inp_files/11770.got.cif
#   From: 2010.03.12/outbox.cif.g09.slc.cpg/sg65_6_cif.got.tgz:11770.got - 2010.04.10 20:52:16.
