data_PCOD8274273
_publ_section_title
;
Structure prediction by ZEFSAII (Michael W. Deem and Ramdas Pophale) SiO2 
 PCOD8274273
Probable space group: C M M M
;
_chemical_formula_sum "Si O2"
_cell_formula_units_Z 104
_cell_length_a 8.723001
_cell_length_b 27.730140
_cell_length_c 26.910658
_cell_angle_alpha 90.000000
_cell_angle_beta 90.000000
_cell_angle_gamma 90.000000
_cell_volume 6509.420112
_symmetry_space_group_name_H-M "C M M M"
_symmetry_group_IT_number 65
_symmetry_cell_setting 'orthorhombic'
loop_
_space_group_symop_operation_xyz
x,y,z
-x,-y,z
x,-y,-z
-x,y,-z
-x,-y,-z
x,y,-z
-x,y,z
x,-y,z
1/2+x,1/2+y,z
1/2-x,1/2-y,z
1/2+x,1/2-y,-z
1/2-x,1/2+y,-z
1/2-x,1/2-y,-z
1/2+x,1/2+y,-z
1/2-x,1/2+y,z
1/2+x,1/2-y,z
loop_
_atom_site_type_symbol
_atom_site_label
_atom_site_fract_x
_atom_site_fract_y
_atom_site_fract_z
Si Si1 0.667750 0.942816 0.000000
Si Si2 0.319409 0.947271 0.703469
Si Si3 0.318422 0.146324 0.651658
Si Si4 0.319479 0.800878 0.555079
Si Si5 0.181310 0.388394 0.798729
Si Si6 0.816414 0.445823 0.106589
Si Si7 0.818783 0.198493 0.255838
O O1 0.750134 0.928458 0.052332
O O2 0.500000 0.918452 0.000000
O O3 0.649281 0.000000 0.000000
O O4 0.500000 0.952820 0.700241
O O5 0.263685 0.908637 0.662064
O O6 0.272529 0.928082 0.757669
O O7 0.243237 0.000000 0.694243
O O8 0.500000 0.151364 0.659786
O O9 0.268239 0.159400 0.595516
O O10 0.239692 0.182615 0.689992
O O11 0.261653 0.816611 0.500000
O O12 0.500000 0.794674 0.555204
O O13 0.250000 0.750000 0.570960
O O14 0.240763 0.408646 0.851508
O O15 0.265789 0.338479 0.786972
O O16 0.000000 0.379052 0.798283
O O17 0.758261 0.500000 0.119144
O O18 0.000000 0.446406 0.104497
O O19 0.750000 0.250000 0.241831
O O20 0.000000 0.201711 0.256874
#
# Coordination Sequence:
#
# PCOD8274273 Si02
#       7
#     8  16  16  16  16  16  16
#     4   7  10  16  28  54  90 119 142 171 206 239
#     4   8  13  22  38  59  81 107 140 171 196 230
#     4   9  17  29  45  64  85 110 139 169 202 242
#     4   9  17  28  42  61  84 108 134 167 207 248
#     4   9  16  26  41  62  85 111 143 173 204 242
#     4   8  12  19  35  60  90 120 146 173 204 241
#     4  11  21  32  45  61  83 108 135 169 210 253
#
# _framework density 15.976846
#
# number of rings (size 3 to 8) (size 9 to 14) (size 15 to 20)
#    0.000    3.154    0.000    4.154    0.000    3.692 
#    0.000    0.000    0.000   12.000    0.000    4.308 
#    0.000    1.846    0.000    9.385    0.000   10.154 
#
# Total GULP energy -644280.867700 kJ/mol
# GULP energy per Si atom -12390.016687 kJ/mol
# Density = 1.594048 g / cm^3
# Si number density = 15.976846 Si / 1000 Ang^3
#
#
#
# Elastic Constant Matrix: (Units=GPa)
#
#
# Indices 1 2 3 4 5 6 
#
# 1 33.9287 25.3278 24.0226 0.0000 0.0000 0.0000
# 2 25.3278 124.8122 78.9027 0.0000 0.0000 0.0000
# 3 24.0226 78.9027 149.2276 0.0000 0.0000 0.0000
# 4 0.0000 0.0000 0.0000 25.5944 0.0000 0.0000
# 5 0.0000 0.0000 0.0000 0.0000 10.8868 0.0000
# 6 0.0000 0.0000 0.0000 0.0000 0.0000 15.5011
#
#
#
# Elastic Compliance Matrix: (Units=1/GPa)
#
#
# Indices 1 2 3 4 5 6 
#
# 1 0.035533 -0.005399 -0.002865 0.000000 0.000000 0.000000
# 2 -0.005399 0.012855 -0.005928 0.000000 0.000000 0.000000
# 3 -0.002865 -0.005928 0.010297 0.000000 0.000000 0.000000
# 4 0.000000 0.000000 0.000000 0.039071 0.000000 0.000000
# 5 0.000000 0.000000 0.000000 0.000000 0.091854 0.000000
# 6 0.000000 0.000000 0.000000 0.000000 0.000000 0.064511
#
#
# Mechanical properties :
#
#
# Convention : Reuss Voigt Hill
#
# Bulk Modulus (GPa) = 33.00336 62.71940 47.86138
# Shear Modulus (GPa) = 17.08781 22.37749 19.73265
#
# Velocity S-wave (km/s) = 3.27392 3.74655 3.51818
# Velocity P-wave (km/s) = 5.91551 7.61952 6.82094
#
# Compressibility (1/GPa) = 0.03029994
#
# Stress axis : x y z
#
# Youngs Moduli (GPa) = 28.14301 77.79013 97.11829
#
# Poissons Ratio (x) = 0.42001 0.27827
# Poissons Ratio (y) = 0.15195 0.57570
# Poissons Ratio (z) = 0.08064 0.46113
#
# Static dielectric constant tensor:
#      x y z
#    x 2.676530 0.000000 0.000000 
#    y 0.000000 3.185720 0.000000 
#    z 0.000000 0.000000 3.401610 
# 
# 
# High freq. dielectric constant tensor:
#      x y z
#    x 1.576380 0.000000 0.000000 
#    y 0.000000 1.596470 0.000000 
#    z 0.000000 0.000000 1.614580 
# 
# From -- ./inp_files/77111.got.cif
#   From: 2010.03.12/outbox.cif.g09.slc.cpg/sg65_39_cif.got.tgz:77111.got - 2010.04.10 20:52:16.
