data_PCOD8274932
_publ_section_title
;
Structure prediction by ZEFSAII (Michael W. Deem and Ramdas Pophale) SiO2 
 PCOD8274932
Probable space group: C M M M
;
_chemical_formula_sum "Si O2"
_cell_formula_units_Z 88
_cell_length_a 36.358885
_cell_length_b 9.951749
_cell_length_c 19.536106
_cell_angle_alpha 90.000000
_cell_angle_beta 90.000000
_cell_angle_gamma 90.000000
_cell_volume 7068.837096
_symmetry_space_group_name_H-M "C M M M"
_symmetry_group_IT_number 65
_symmetry_cell_setting 'orthorhombic'
loop_
_space_group_symop_operation_xyz
x,y,z
-x,-y,z
x,-y,-z
-x,y,-z
-x,-y,-z
x,y,-z
-x,y,z
x,-y,z
1/2+x,1/2+y,z
1/2-x,1/2-y,z
1/2+x,1/2-y,-z
1/2-x,1/2+y,-z
1/2-x,1/2-y,-z
1/2+x,1/2+y,-z
1/2-x,1/2+y,z
1/2+x,1/2-y,z
loop_
_atom_site_type_symbol
_atom_site_label
_atom_site_fract_x
_atom_site_fract_y
_atom_site_fract_z
Si Si1 0.861826 0.840064 0.076492
Si Si2 0.780576 0.149857 0.081490
Si Si3 0.500000 0.339579 0.077164
Si Si4 0.043314 0.154870 0.306285
Si Si5 0.430495 0.340303 0.160065
Si Si6 0.456323 0.150498 0.424007
O O1 0.821205 0.796685 0.102356
O O2 0.892303 0.783134 0.129149
O O3 0.863401 0.000000 0.073413
O O4 0.869704 0.783475 0.000000
O O5 0.750000 0.250000 0.112613
O O6 0.773544 0.000000 0.110894
O O7 0.778110 0.145232 0.000000
O O8 0.500000 0.500000 0.078402
O O9 0.464020 0.282363 0.115168
O O10 0.500000 0.284754 0.000000
O O11 0.064868 0.204399 0.238726
O O12 0.058941 0.243440 0.368909
O O13 0.000000 0.176155 0.293578
O O14 0.051739 0.000000 0.323406
O O15 0.431332 0.500000 0.155937
O O16 0.441724 0.188658 0.500000
O O17 0.500000 0.156614 0.424268
O O18 0.443207 0.000000 0.404510
#
# Coordination Sequence:
#
# PCOD8274932 Si02
#       6
#    16  16   8  16  16  16
#     4   8  13  20  30  44  62  85 112 139 166 198
#     4   8  13  21  33  48  63  79 101 130 165 202
#     4   9  14  18  26  40  60  87 114 140 171 199
#     4   9  15  22  32  47  67  86 104 131 166 198
#     4   9  14  20  28  42  65  89 111 137 168 198
#     4   8  14  24  36  48  61  78 103 134 163 193
#
# _framework density 12.449006000000001
#
# number of rings (size 3 to 8) (size 9 to 14) (size 15 to 20)
#    0.000    3.545    0.909    2.182    0.000    2.545 
#    0.000    1.818    0.000    1.091    0.000    0.000 
#    0.000    2.909    0.000    0.000    0.000    1.273 
#
# Total GULP energy -545214.422335 kJ/mol
# GULP energy per Si atom -12391.236871 kJ/mol
# Density = 1.242067 g / cm^3
# Si number density = 12.449006 Si / 1000 Ang^3
#
#
#
# Elastic Constant Matrix: (Units=GPa)
#
#
# Indices 1 2 3 4 5 6 
#
# 1 80.5126 27.3155 41.6249 0.0000 0.0000 0.0000
# 2 27.3155 38.4055 38.6441 0.0000 0.0000 0.0000
# 3 41.6249 38.6441 93.7682 0.0000 0.0000 0.0000
# 4 0.0000 0.0000 0.0000 7.1040 0.0000 0.0000
# 5 0.0000 0.0000 0.0000 0.0000 6.0009 0.0000
# 6 0.0000 0.0000 0.0000 0.0000 0.0000 9.9093
#
#
#
# Elastic Compliance Matrix: (Units=1/GPa)
#
#
# Indices 1 2 3 4 5 6 
#
# 1 0.017409 -0.007869 -0.004485 0.000000 0.000000 0.000000
# 2 -0.007869 0.048042 -0.016306 0.000000 0.000000 0.000000
# 3 -0.004485 -0.016306 0.019376 0.000000 0.000000 0.000000
# 4 0.000000 0.000000 0.000000 0.140765 0.000000 0.000000
# 5 0.000000 0.000000 0.000000 0.000000 0.166640 0.000000
# 6 0.000000 0.000000 0.000000 0.000000 0.000000 0.100915
#
#
# Mechanical properties :
#
#
# Convention : Reuss Voigt Hill
#
# Bulk Modulus (GPa) = 36.35516 47.53946 41.94731
# Shear Modulus (GPa) = 8.93437 11.60964 10.27201
#
# Velocity S-wave (km/s) = 2.68186 3.05712 2.87562
# Velocity P-wave (km/s) = 6.23350 7.12261 6.69283
#
# Compressibility (1/GPa) = 0.02750641
#
# Stress axis : x y z
#
# Youngs Moduli (GPa) = 57.44202 20.81501 51.61089
#
# Poissons Ratio (x) = 0.16379 0.23148
# Poissons Ratio (y) = 0.45201 0.84158
# Poissons Ratio (z) = 0.25763 0.33941
#
# Static dielectric constant tensor:
#      x y z
#    x 2.583550 0.000000 0.000000 
#    y 0.000000 2.366240 0.000000 
#    z 0.000000 0.000000 2.593070 
# 
# 
# High freq. dielectric constant tensor:
#      x y z
#    x 1.445290 0.000000 0.000000 
#    y 0.000000 1.438530 0.000000 
#    z 0.000000 0.000000 1.453570 
# 
# From -- ./inp_files/58169.got.cif
#   From: 2010.03.12/outbox.cif.g09.slc.cpg/sg65_30_cif.got.tgz:58169.got - 2010.04.10 20:52:16.
