data_PCOD8274123
_publ_section_title
;
Structure prediction by ZEFSAII (Michael W. Deem and Ramdas Pophale) SiO2 
 PCOD8274123
Probable space group: C M M M
;
_chemical_formula_sum "Si O2"
_cell_formula_units_Z 112
_cell_length_a 14.509553
_cell_length_b 13.961291
_cell_length_c 27.292942
_cell_angle_alpha 90.000000
_cell_angle_beta 90.000000
_cell_angle_gamma 90.000000
_cell_volume 5528.788350
_symmetry_space_group_name_H-M "C M M M"
_symmetry_group_IT_number 65
_symmetry_cell_setting 'orthorhombic'
loop_
_space_group_symop_operation_xyz
x,y,z
-x,-y,z
x,-y,-z
-x,y,-z
-x,-y,-z
x,y,-z
-x,y,z
x,-y,z
1/2+x,1/2+y,z
1/2-x,1/2-y,z
1/2+x,1/2-y,-z
1/2-x,1/2+y,-z
1/2-x,1/2-y,-z
1/2+x,1/2+y,-z
1/2-x,1/2+y,z
1/2+x,1/2-y,z
loop_
_atom_site_type_symbol
_atom_site_label
_atom_site_fract_x
_atom_site_fract_y
_atom_site_fract_z
Si Si1 0.104494 0.397152 0.764239
Si Si2 0.109196 0.107869 0.208602
Si Si3 0.773878 0.609612 0.557176
Si Si4 0.609661 0.108057 0.054226
Si Si5 0.104010 0.777036 0.592588
Si Si6 0.890322 0.280565 0.146372
Si Si7 0.648476 0.271281 0.301391
O O1 0.152147 0.500000 0.752674
O O2 0.153118 0.349123 0.811553
O O3 0.106108 0.327415 0.718111
O O4 0.000000 0.415504 0.778955
O O5 0.139326 0.172284 0.161387
O O6 0.151274 0.147268 0.259401
O O7 0.000000 0.113457 0.215233
O O8 0.143643 0.000000 0.199297
O O9 0.795091 0.619869 0.500000
O O10 0.782671 0.500000 0.574912
O O11 0.850288 0.671931 0.585859
O O12 0.669255 0.645005 0.566581
O O13 0.500000 0.111215 0.054282
O O14 0.649296 0.184636 0.093818
O O15 0.641950 0.000000 0.067659
O O16 0.646392 0.136233 0.000000
O O17 0.093606 0.802813 0.650316
O O18 0.000000 0.779839 0.570366
O O19 0.000000 0.287959 0.145918
O O20 0.750000 0.250000 0.320165
#
# Coordination Sequence:
#
# PCOD8274123 Si02
#       7
#    16  16  16  16  16  16  16
#     4   9  17  29  46  68  94 127 166 205 251 313
#     4   9  18  32  49  68  92 129 176 217 254 307
#     4  10  23  43  64  91 124 154 192 241 287 335
#     4   8  12  17  29  54  87 121 157 200 255 317
#     4  11  22  40  64  89 119 156 194 235 286 343
#     4   8  13  23  39  58  85 122 163 206 253 308
#     4  11  21  35  51  74 108 138 170 216 269 320
#
# _framework density 20.257603
#
# number of rings (size 3 to 8) (size 9 to 14) (size 15 to 20)
#    0.000    2.571    1.429    3.857    0.000    5.143 
#    0.000    1.429    0.000    0.429    0.000    3.000 
#    0.000    9.143    0.000   11.429    0.000   11.429 
#
# Total GULP energy -693924.329613 kJ/mol
# GULP energy per Si atom -12391.505886 kJ/mol
# Density = 2.021150 g / cm^3
# Si number density = 20.257603 Si / 1000 Ang^3
#
#
#
# Elastic Constant Matrix: (Units=GPa)
#
#
# Indices 1 2 3 4 5 6 
#
# 1 60.4479 5.0919 1.8528 0.0000 0.0000 0.0000
# 2 5.0919 139.7497 46.5988 0.0000 0.0000 0.0000
# 3 1.8528 46.5988 107.5379 0.0000 0.0000 0.0000
# 4 0.0000 0.0000 0.0000 24.0296 0.0000 0.0000
# 5 0.0000 0.0000 0.0000 0.0000 17.7176 0.0000
# 6 0.0000 0.0000 0.0000 0.0000 0.0000 7.3145
#
#
#
# Elastic Compliance Matrix: (Units=1/GPa)
#
#
# Indices 1 2 3 4 5 6 
#
# 1 0.016594 -0.000595 -0.000028 0.000000 0.000000 0.000000
# 2 -0.000595 0.008386 -0.003623 0.000000 0.000000 0.000000
# 3 -0.000028 -0.003623 0.010870 0.000000 0.000000 0.000000
# 4 0.000000 0.000000 0.000000 0.041615 0.000000 0.000000
# 5 0.000000 0.000000 0.000000 0.000000 0.056441 0.000000
# 6 0.000000 0.000000 0.000000 0.000000 0.000000 0.136715
#
#
# Mechanical properties :
#
#
# Convention : Reuss Voigt Hill
#
# Bulk Modulus (GPa) = 36.55501 46.09141 41.32321
# Shear Modulus (GPa) = 17.34708 26.75846 22.05277
#
# Velocity S-wave (km/s) = 2.92948 3.63837 3.30300
# Velocity P-wave (km/s) = 5.43385 6.36022 5.91520
#
# Compressibility (1/GPa) = 0.02735603
#
# Stress axis : x y z
#
# Youngs Moduli (GPa) = 60.26214 119.25278 91.99932
#
# Poissons Ratio (x) = 0.07099 0.00257
# Poissons Ratio (y) = 0.03587 0.33335
# Poissons Ratio (z) = 0.00168 0.43210
#
# Static dielectric constant tensor:
#      x y z
#    x 2.803990 0.000000 0.000000 
#    y 0.000000 3.898590 0.000000 
#    z 0.000000 0.000000 3.754230 
# 
# 
# High freq. dielectric constant tensor:
#      x y z
#    x 1.766200 0.000000 0.000000 
#    y 0.000000 1.786650 0.000000 
#    z 0.000000 0.000000 1.784470 
# 
# From -- ./inp_files/77721.got.cif
#   From: 2010.03.12/outbox.cif.g09.slc.cpg/sg65_39_cif.got.tgz:77721.got - 2010.04.10 20:52:16.
