data_PCOD8274413
_publ_section_title
;
Structure prediction by ZEFSAII (Michael W. Deem and Ramdas Pophale) SiO2 
 PCOD8274413
Probable space group: C M M M
;
_chemical_formula_sum "Si O2"
_cell_formula_units_Z 88
_cell_length_a 25.134458
_cell_length_b 14.008856
_cell_length_c 18.473806
_cell_angle_alpha 90.000000
_cell_angle_beta 90.000000
_cell_angle_gamma 90.000000
_cell_volume 6504.719513
_symmetry_space_group_name_H-M "C M M M"
_symmetry_group_IT_number 65
_symmetry_cell_setting 'orthorhombic'
loop_
_space_group_symop_operation_xyz
x,y,z
-x,-y,z
x,-y,-z
-x,y,-z
-x,-y,-z
x,y,-z
-x,y,z
x,-y,z
1/2+x,1/2+y,z
1/2-x,1/2-y,z
1/2+x,1/2-y,-z
1/2-x,1/2+y,-z
1/2-x,1/2-y,-z
1/2+x,1/2+y,-z
1/2-x,1/2+y,z
1/2+x,1/2-y,z
loop_
_atom_site_type_symbol
_atom_site_label
_atom_site_fract_x
_atom_site_fract_y
_atom_site_fract_z
Si Si1 0.563465 0.109971 0.766876
Si Si2 0.881666 0.295405 0.635232
Si Si3 0.559376 0.113099 0.076512
Si Si4 0.937113 0.390727 0.500000
Si Si5 0.219008 0.388251 0.581885
Si Si6 0.340064 0.607470 0.414581
O O1 0.500000 0.121216 0.763037
O O2 0.591019 0.180744 0.710877
O O3 0.585521 0.143469 0.846657
O O4 0.579083 0.000000 0.749900
O O5 0.915878 0.340728 0.571440
O O6 0.821558 0.335330 0.635074
O O7 0.879359 0.180567 0.626130
O O8 0.500000 0.155503 0.074152
O O9 0.555807 0.000000 0.078817
O O10 0.588371 0.145025 0.000000
O O11 0.917535 0.500000 0.500000
O O12 0.000000 0.383650 0.500000
O O13 0.206898 0.353539 0.500000
O O14 0.209621 0.500000 0.588072
O O15 0.279324 0.362927 0.603276
O O16 0.349585 0.613712 0.500000
O O17 0.352095 0.500000 0.387225
#
# Coordination Sequence:
#
# PCOD8274413 Si02
#       6
#    16  16  16   8  16  16
#     4   9  17  26  36  55  82 106 127 152 181 219
#     4  12  18  26  41  55  75 104 128 152 187 227
#     4   7  10  19  35  52  72 100 127 147 174 215
#     4  11  22  30  36  51  75 103 130 150 174 221
#     4   9  16  26  41  59  75  91 119 158 198 235
#     4   9  18  31  43  55  69  90 128 174 206 224
#
# _framework density 13.528638000000001
#
# number of rings (size 3 to 8) (size 9 to 14) (size 15 to 20)
#    0.000    2.636    1.818    5.455    0.000    2.909 
#    0.000    0.000    0.000    2.727    0.000    0.000 
#    0.000    3.636    0.000    8.909    0.000    0.364 
#
# Total GULP energy -545092.357798 kJ/mol
# GULP energy per Si atom -12388.462677 kJ/mol
# Density = 1.349785 g / cm^3
# Si number density = 13.528638 Si / 1000 Ang^3
#
#
#
# Elastic Constant Matrix: (Units=GPa)
#
#
# Indices 1 2 3 4 5 6 
#
# 1 34.9381 31.4354 32.1333 0.0000 0.0000 0.0000
# 2 31.4354 42.6079 39.3059 0.0000 0.0000 0.0000
# 3 32.1333 39.3059 112.5193 0.0000 0.0000 0.0000
# 4 0.0000 0.0000 0.0000 6.6855 0.0000 0.0000
# 5 0.0000 0.0000 0.0000 0.0000 2.1933 0.0000
# 6 0.0000 0.0000 0.0000 0.0000 0.0000 18.5039
#
#
#
# Elastic Compliance Matrix: (Units=1/GPa)
#
#
# Indices 1 2 3 4 5 6 
#
# 1 0.086083 -0.060247 -0.003538 0.000000 0.000000 0.000000
# 2 -0.060247 0.076794 -0.009621 0.000000 0.000000 0.000000
# 3 -0.003538 -0.009621 0.013259 0.000000 0.000000 0.000000
# 4 0.000000 0.000000 0.000000 0.149578 0.000000 0.000000
# 5 0.000000 0.000000 0.000000 0.000000 0.455928 0.000000
# 6 0.000000 0.000000 0.000000 0.000000 0.000000 0.054043
#
#
# Mechanical properties :
#
#
# Convention : Reuss Voigt Hill
#
# Bulk Modulus (GPa) = 34.10117 43.97937 39.04027
# Shear Modulus (GPa) = 5.03896 11.28925 8.16410
#
# Velocity S-wave (km/s) = 1.93203 2.89185 2.45922
# Velocity P-wave (km/s) = 5.49894 6.61282 6.08144
#
# Compressibility (1/GPa) = 0.02932451
#
# Stress axis : x y z
#
# Youngs Moduli (GPa) = 11.61675 13.02184 75.42323
#
# Poissons Ratio (x) = 0.78452 0.26683
# Poissons Ratio (y) = 0.69987 0.72564
# Poissons Ratio (z) = 0.04110 0.12528
#
# Static dielectric constant tensor:
#      x y z
#    x 2.535920 0.000000 0.000000 
#    y 0.000000 2.623770 0.000000 
#    z 0.000000 0.000000 2.880840 
# 
# 
# High freq. dielectric constant tensor:
#      x y z
#    x 1.491460 0.000000 0.000000 
#    y 0.000000 1.496380 0.000000 
#    z 0.000000 0.000000 1.495620 
# 
# From -- ./inp_files/53590.got.cif
#   From: 2010.03.12/outbox.cif.g09.slc.cpg/sg65_27_cif.got.tgz:53590.got - 2010.04.10 20:52:16.
