data_PCOD8274953
_publ_section_title
;
Structure prediction by ZEFSAII (Michael W. Deem and Ramdas Pophale) SiO2 
 PCOD8274953
Probable space group: C M M M
;
_chemical_formula_sum "Si O2"
_cell_formula_units_Z 88
_cell_length_a 18.006072
_cell_length_b 27.684937
_cell_length_c 13.746801
_cell_angle_alpha 90.000000
_cell_angle_beta 90.000000
_cell_angle_gamma 90.000000
_cell_volume 6852.738631
_symmetry_space_group_name_H-M "C M M M"
_symmetry_group_IT_number 65
_symmetry_cell_setting 'orthorhombic'
loop_
_space_group_symop_operation_xyz
x,y,z
-x,-y,z
x,-y,-z
-x,y,-z
-x,-y,-z
x,y,-z
-x,y,z
x,-y,z
1/2+x,1/2+y,z
1/2-x,1/2-y,z
1/2+x,1/2-y,-z
1/2-x,1/2+y,-z
1/2-x,1/2-y,-z
1/2+x,1/2+y,-z
1/2-x,1/2+y,z
1/2+x,1/2-y,z
loop_
_atom_site_type_symbol
_atom_site_label
_atom_site_fract_x
_atom_site_fract_y
_atom_site_fract_z
Si Si1 0.913927 0.245146 0.791452
Si Si2 0.911590 0.000000 0.610777
Si Si3 0.649997 0.348670 0.885825
Si Si4 0.204428 0.700895 0.106869
Si Si5 0.087730 0.809985 0.606446
Si Si6 0.588230 0.596073 0.283134
O O1 0.898734 0.198610 0.859314
O O2 0.865663 0.292101 0.821557
O O3 0.890371 0.232647 0.680614
O O4 0.000000 0.259145 0.799793
O O5 0.882333 0.953502 0.669852
O O6 0.880469 0.000000 0.500000
O O7 0.000000 0.000000 0.606385
O O8 0.737281 0.340196 0.859607
O O9 0.622755 0.395019 0.824151
O O10 0.639514 0.359458 0.000000
O O11 0.250000 0.750000 0.102355
O O12 0.172880 0.688419 0.000000
O O13 0.122813 0.799769 0.500000
O O14 0.116692 0.861192 0.646528
O O15 0.000000 0.813357 0.598418
O O16 0.500000 0.595736 0.272215
#
# Coordination Sequence:
#
# PCOD8274953 Si02
#       6
#    16   8  16  16  16  16
#     4   9  15  21  33  51  66  85 116 149 173 193
#     4   9  16  26  39  53  69  87 109 140 174 202
#     4   9  16  25  35  46  65  93 117 138 168 202
#     4   8  14  23  33  45  63  88 114 139 169 201
#     4   8  13  21  32  46  64  85 110 139 168 197
#     4   9  16  24  36  52  65  83 113 142 166 194
#
# _framework density 12.841581
#
# number of rings (size 3 to 8) (size 9 to 14) (size 15 to 20)
#    0.000    3.364    0.000    3.818    0.000    4.727 
#    0.000    0.455    0.000   16.364    0.000    0.000 
#    0.000    0.000    0.000    0.818    0.000    7.455 
#
# Total GULP energy -545175.272512 kJ/mol
# GULP energy per Si atom -12390.347103 kJ/mol
# Density = 1.281235 g / cm^3
# Si number density = 12.841581 Si / 1000 Ang^3
#
#
#
# Elastic Constant Matrix: (Units=GPa)
#
#
# Indices 1 2 3 4 5 6 
#
# 1 47.9867 22.5660 36.1774 0.0000 0.0000 0.0000
# 2 22.5660 34.8267 34.4982 0.0000 0.0000 0.0000
# 3 36.1774 34.4982 111.6355 0.0000 0.0000 0.0000
# 4 0.0000 0.0000 0.0000 16.7752 0.0000 0.0000
# 5 0.0000 0.0000 0.0000 0.0000 8.2247 0.0000
# 6 0.0000 0.0000 0.0000 0.0000 0.0000 12.1031
#
#
#
# Elastic Compliance Matrix: (Units=1/GPa)
#
#
# Indices 1 2 3 4 5 6 
#
# 1 0.032365 -0.015249 -0.005776 0.000000 0.000000 0.000000
# 2 -0.015249 0.048566 -0.010066 0.000000 0.000000 0.000000
# 3 -0.005776 -0.010066 0.013940 0.000000 0.000000 0.000000
# 4 0.000000 0.000000 0.000000 0.059612 0.000000 0.000000
# 5 0.000000 0.000000 0.000000 0.000000 0.121585 0.000000
# 6 0.000000 0.000000 0.000000 0.000000 0.000000 0.082623
#
#
# Mechanical properties :
#
#
# Convention : Reuss Voigt Hill
#
# Bulk Modulus (GPa) = 30.59256 42.32579 36.45917
# Shear Modulus (GPa) = 11.58025 14.16775 12.87400
#
# Velocity S-wave (km/s) = 3.00622 3.32516 3.16970
# Velocity P-wave (km/s) = 5.99371 6.91185 6.46909
#
# Compressibility (1/GPa) = 0.03268769
#
# Stress axis : x y z
#
# Youngs Moduli (GPa) = 30.89796 20.59071 71.73481
#
# Poissons Ratio (x) = 0.31399 0.41433
# Poissons Ratio (y) = 0.47117 0.72210
# Poissons Ratio (z) = 0.17846 0.20727
#
# Static dielectric constant tensor:
#      x y z
#    x 2.492130 0.000000 0.000000 
#    y 0.000000 2.382790 0.000000 
#    z 0.000000 0.000000 2.901790 
# 
# 
# High freq. dielectric constant tensor:
#      x y z
#    x 1.453470 0.000000 0.000000 
#    y 0.000000 1.441220 0.000000 
#    z 0.000000 0.000000 1.500210 
# 
# From -- ./inp_files/43194.got.cif
#   From: 2010.03.12/outbox.cif.g09.slc.cpg/sg65_22_cif.got.tgz:43194.got - 2010.04.10 20:52:16.
