data_PCOD8274146
_publ_section_title
;
Structure prediction by ZEFSAII (Michael W. Deem and Ramdas Pophale) SiO2 
 PCOD8274146
Probable space group: C M M M
;
_chemical_formula_sum "Si O2"
_cell_formula_units_Z 64
_cell_length_a 8.658344
_cell_length_b 15.477956
_cell_length_c 23.670515
_cell_angle_alpha 90.000000
_cell_angle_beta 90.000000
_cell_angle_gamma 90.000000
_cell_volume 3172.167792
_symmetry_space_group_name_H-M "C M M M"
_symmetry_group_IT_number 65
_symmetry_cell_setting 'orthorhombic'
loop_
_space_group_symop_operation_xyz
x,y,z
-x,-y,z
x,-y,-z
-x,y,-z
-x,-y,-z
x,y,-z
-x,y,z
x,-y,z
1/2+x,1/2+y,z
1/2-x,1/2-y,z
1/2+x,1/2-y,-z
1/2-x,1/2+y,-z
1/2-x,1/2-y,-z
1/2+x,1/2+y,-z
1/2-x,1/2+y,z
1/2+x,1/2-y,z
loop_
_atom_site_type_symbol
_atom_site_label
_atom_site_fract_x
_atom_site_fract_y
_atom_site_fract_z
Si Si1 0.318388 0.161497 0.384835
Si Si2 0.316795 0.840295 0.879873
Si Si3 0.181048 0.000000 0.186440
Si Si4 0.817153 0.901988 0.500000
Si Si5 0.680522 0.000000 0.692445
Si Si6 0.816716 0.596663 0.000000
O O1 0.500000 0.169117 0.392168
O O2 0.250000 0.250000 0.358929
O O3 0.244102 0.147149 0.445602
O O4 0.273598 0.084056 0.343226
O O5 0.500000 0.839392 0.876373
O O6 0.250000 0.750000 0.857494
O O7 0.255563 0.915357 0.840240
O O8 0.257391 0.854582 0.944107
O O9 0.214525 0.000000 0.252550
O O10 0.000000 0.000000 0.174879
O O11 0.000000 0.899677 0.500000
O O12 0.754021 0.000000 0.500000
O O13 0.500000 0.000000 0.708789
O O14 0.747629 0.500000 0.000000
O O15 0.000000 0.591641 0.000000
#
# Coordination Sequence:
#
# PCOD8274146 Si02
#       6
#    16  16   8   8   8   8
#     4  11  23  41  65  93 125 161 203 250 305 365
#     4  11  22  40  65  93 128 164 206 255 309 371
#     4  12  26  43  64  91 123 164 212 260 311 368
#     4  11  22  37  62  94 128 164 202 247 301 363
#     4  10  24  45  66  87 119 164 208 258 313 364
#     4   9  17  34  62  93 124 164 202 247 310 369
#
# _framework density 20.175477000000001
#
# number of rings (size 3 to 8) (size 9 to 14) (size 15 to 20)
#    0.000    1.250    2.500    3.750    0.000    3.500 
#    0.000    5.000    0.000    0.000    0.000    0.000 
#    0.000    0.000    0.000    0.000    0.000    0.000 
#
# Total GULP energy -396973.863156 kJ/mol
# GULP energy per Si atom -12405.433224 kJ/mol
# Density = 2.012956 g / cm^3
# Si number density = 20.175477 Si / 1000 Ang^3
#
#
#
# Elastic Constant Matrix: (Units=GPa)
#
#
# Indices 1 2 3 4 5 6 
#
# 1 91.2505 54.1714 44.3803 0.0000 0.0000 0.0000
# 2 54.1714 191.2654 63.2066 0.0000 0.0000 0.0000
# 3 44.3803 63.2066 120.9767 0.0000 0.0000 0.0000
# 4 0.0000 0.0000 0.0000 3.4951 0.0000 0.0000
# 5 0.0000 0.0000 0.0000 0.0000 19.5569 0.0000
# 6 0.0000 0.0000 0.0000 0.0000 0.0000 33.1691
#
#
#
# Elastic Compliance Matrix: (Units=1/GPa)
#
#
# Indices 1 2 3 4 5 6 
#
# 1 0.014513 -0.002842 -0.003839 0.000000 0.000000 0.000000
# 2 -0.002842 0.006876 -0.002550 0.000000 0.000000 0.000000
# 3 -0.003839 -0.002550 0.011007 0.000000 0.000000 0.000000
# 4 0.000000 0.000000 0.000000 0.286112 0.000000 0.000000
# 5 0.000000 0.000000 0.000000 0.000000 0.051133 0.000000
# 6 0.000000 0.000000 0.000000 0.000000 0.000000 0.030149
#
#
# Mechanical properties :
#
#
# Convention : Reuss Voigt Hill
#
# Bulk Modulus (GPa) = 71.76870 80.77878 76.27374
# Shear Modulus (GPa) = 11.82324 27.35986 19.59155
#
# Velocity S-wave (km/s) = 2.42341 3.68651 3.11956
# Velocity P-wave (km/s) = 6.59394 7.63188 7.13182
#
# Compressibility (1/GPa) = 0.01393365
#
# Stress axis : x y z
#
# Youngs Moduli (GPa) = 68.90288 145.43655 90.85272
#
# Poissons Ratio (x) = 0.41329 0.34883
# Poissons Ratio (y) = 0.19580 0.23167
# Poissons Ratio (z) = 0.26455 0.37085
#
# Static dielectric constant tensor:
#      x y z
#    x 3.568370 0.000000 0.000000 
#    y 0.000000 3.988070 0.000000 
#    z 0.000000 0.000000 3.669040 
# 
# 
# High freq. dielectric constant tensor:
#      x y z
#    x 1.784870 0.000000 0.000000 
#    y 0.000000 1.809050 0.000000 
#    z 0.000000 0.000000 1.785490 
# 
# From -- ./inp_files/66897.got.cif
#   From: 2010.03.12/outbox.cif.g09.slc.cpg/sg65_34_cif.got.tgz:66897.got - 2010.04.10 20:52:16.
