data_PCOD8274417
_publ_section_title
;
Structure prediction by ZEFSAII (Michael W. Deem and Ramdas Pophale) SiO2 
 PCOD8274417
Probable space group: C M M M
;
_chemical_formula_sum "Si O2"
_cell_formula_units_Z 96
_cell_length_a 28.498546
_cell_length_b 9.456363
_cell_length_c 23.079552
_cell_angle_alpha 90.000000
_cell_angle_beta 90.000000
_cell_angle_gamma 90.000000
_cell_volume 6219.768382
_symmetry_space_group_name_H-M "C M M M"
_symmetry_group_IT_number 65
_symmetry_cell_setting 'orthorhombic'
loop_
_space_group_symop_operation_xyz
x,y,z
-x,-y,z
x,-y,-z
-x,y,-z
-x,-y,-z
x,y,-z
-x,y,z
x,-y,z
1/2+x,1/2+y,z
1/2-x,1/2-y,z
1/2+x,1/2-y,-z
1/2-x,1/2+y,-z
1/2-x,1/2-y,-z
1/2+x,1/2+y,-z
1/2-x,1/2+y,z
1/2+x,1/2-y,z
loop_
_atom_site_type_symbol
_atom_site_label
_atom_site_fract_x
_atom_site_fract_y
_atom_site_fract_z
Si Si1 0.555111 0.838043 0.566194
Si Si2 0.704616 0.340171 0.500000
Si Si3 0.104345 0.166918 0.334115
Si Si4 0.203010 0.162356 0.374404
Si Si5 0.556076 0.658433 0.000000
Si Si6 0.445265 0.836050 0.235137
Si Si7 0.444292 0.156554 0.105070
O O1 0.568793 0.800586 0.500000
O O2 0.500000 0.817354 0.575845
O O3 0.581896 0.733425 0.608653
O O4 0.569093 0.000000 0.580147
O O5 0.721647 0.500000 0.500000
O O6 0.750000 0.250000 0.500000
O O7 0.679547 0.307130 0.561418
O O8 0.160337 0.198359 0.331333
O O9 0.083509 0.234694 0.276651
O O10 0.094145 0.000000 0.335241
O O11 0.250000 0.250000 0.360564
O O12 0.218355 0.000000 0.368678
O O13 0.575924 0.735416 0.057444
O O14 0.575890 0.500000 0.000000
O O15 0.500000 0.659607 0.000000
O O16 0.500000 0.805738 0.244530
O O17 0.429555 0.796973 0.169731
O O18 0.434297 0.000000 0.248654
O O19 0.500000 0.151670 0.101598
O O20 0.424520 0.000000 0.091349
#
# Coordination Sequence:
#
# PCOD8274417 Si02
#       7
#    16   8  16  16   8  16  16
#     4   9  19  35  50  63  82 110 145 181 213 252
#     4   8  14  28  46  60  77  98 121 155 200 251
#     4  11  22  31  45  68  90 111 138 176 224 269
#     4   9  19  33  48  65  85 108 134 169 214 265
#     4   9  15  21  33  57  85 111 140 177 220 257
#     4   9  18  32  47  62  84 118 157 189 214 248
#     4   8  14  25  40  56  77 110 150 185 212 242
#
# _framework density 15.434658000000001
#
# number of rings (size 3 to 8) (size 9 to 14) (size 15 to 20)
#    0.000    2.917    0.000    2.750    1.167    6.000 
#    0.000    2.500    0.000    0.000    0.000    0.000 
#    0.000    0.000    0.000    0.750    0.000    9.917 
#
# Total GULP energy -594738.009755 kJ/mol
# GULP energy per Si atom -12390.375203 kJ/mol
# Density = 1.539953 g / cm^3
# Si number density = 15.434658 Si / 1000 Ang^3
#
#
#
# Elastic Constant Matrix: (Units=GPa)
#
#
# Indices 1 2 3 4 5 6 
#
# 1 53.4973 45.9265 46.4354 0.0000 0.0000 0.0000
# 2 45.9265 105.0629 77.7388 0.0000 0.0000 0.0000
# 3 46.4354 77.7388 116.3517 0.0000 0.0000 0.0000
# 4 0.0000 0.0000 0.0000 24.6645 0.0000 0.0000
# 5 0.0000 0.0000 0.0000 0.0000 3.8853 0.0000
# 6 0.0000 0.0000 0.0000 0.0000 0.0000 19.5824
#
#
#
# Elastic Compliance Matrix: (Units=1/GPa)
#
#
# Indices 1 2 3 4 5 6 
#
# 1 0.032483 -0.009112 -0.006876 0.000000 0.000000 0.000000
# 2 -0.009112 0.021380 -0.010648 0.000000 0.000000 0.000000
# 3 -0.006876 -0.010648 0.018453 0.000000 0.000000 0.000000
# 4 0.000000 0.000000 0.000000 0.040544 0.000000 0.000000
# 5 0.000000 0.000000 0.000000 0.000000 0.257377 0.000000
# 6 0.000000 0.000000 0.000000 0.000000 0.000000 0.051066
#
#
# Mechanical properties :
#
#
# Convention : Reuss Voigt Hill
#
# Bulk Modulus (GPa) = 52.50880 68.34592 60.42736
# Shear Modulus (GPa) = 10.39663 16.61387 13.50525
#
# Velocity S-wave (km/s) = 2.59818 3.28441 2.96124
# Velocity P-wave (km/s) = 6.56465 7.66551 7.13634
#
# Compressibility (1/GPa) = 0.01904443
#
# Stress axis : x y z
#
# Youngs Moduli (GPa) = 30.78526 46.77210 54.19051
#
# Poissons Ratio (x) = 0.42618 0.37261
# Poissons Ratio (y) = 0.28051 0.57705
# Poissons Ratio (z) = 0.21168 0.49805
#
# Static dielectric constant tensor:
#      x y z
#    x 2.547530 0.000000 0.000000 
#    y 0.000000 3.060730 0.000000 
#    z 0.000000 0.000000 2.954140 
# 
# 
# High freq. dielectric constant tensor:
#      x y z
#    x 1.542680 0.000000 0.000000 
#    y 0.000000 1.600440 0.000000 
#    z 0.000000 0.000000 1.588600 
# 
# From -- ./inp_files/71741.got.cif
#   From: 2010.03.12/outbox.cif.g09.slc.cpg/sg65_36_cif.got.tgz:71741.got - 2010.04.10 20:52:16.
