data_PCOD8274108
_publ_section_title
;
Structure prediction by ZEFSAII (Michael W. Deem and Ramdas Pophale) SiO2 
 PCOD8274108
Probable space group: C M M M
;
_chemical_formula_sum "Si O2"
_cell_formula_units_Z 72
_cell_length_a 17.828057
_cell_length_b 23.217934
_cell_length_c 9.111496
_cell_angle_alpha 90.000000
_cell_angle_beta 90.000000
_cell_angle_gamma 90.000000
_cell_volume 3771.527469
_symmetry_space_group_name_H-M "C M M M"
_symmetry_group_IT_number 65
_symmetry_cell_setting 'orthorhombic'
loop_
_space_group_symop_operation_xyz
x,y,z
-x,-y,z
x,-y,-z
-x,y,-z
-x,-y,-z
x,y,-z
-x,y,z
x,-y,z
1/2+x,1/2+y,z
1/2-x,1/2-y,z
1/2+x,1/2-y,-z
1/2-x,1/2+y,-z
1/2-x,1/2-y,-z
1/2+x,1/2+y,-z
1/2-x,1/2+y,z
1/2+x,1/2-y,z
loop_
_atom_site_type_symbol
_atom_site_label
_atom_site_fract_x
_atom_site_fract_y
_atom_site_fract_z
Si Si1 0.087771 0.262913 0.331904
Si Si2 0.136192 0.628888 0.173244
Si Si3 0.500000 0.068031 0.330910
Si Si4 0.287417 0.565777 0.171110
Si Si5 0.415427 0.632714 0.326962
O O1 0.112812 0.272199 0.500000
O O2 0.134484 0.305126 0.227001
O O3 0.105275 0.197963 0.280517
O O4 0.000000 0.276922 0.315060
O O5 0.216089 0.603119 0.219324
O O6 0.073495 0.591863 0.253445
O O7 0.122436 0.625705 0.000000
O O8 0.500000 0.088097 0.500000
O O9 0.500000 0.000000 0.315543
O O10 0.272053 0.500000 0.216263
O O11 0.360965 0.587524 0.252518
O O12 0.302797 0.571907 0.000000
O O13 0.408610 0.626527 0.500000
O O14 0.500000 0.618498 0.276031
#
# Coordination Sequence:
#
# PCOD8274108 Si02
#       5
#    16  16   8  16  16
#     4   9  18  35  58  84 117 150 185 231 283 341
#     4  11  22  36  57  84 115 152 193 236 281 334
#     4  11  23  37  55  81 113 153 198 237 280 335
#     4  10  23  41  57  79 115 154 191 236 288 339
#     4   9  20  39  62  87 113 146 187 234 289 344
#
# _framework density 19.090406999999999
#
# number of rings (size 3 to 8) (size 9 to 14) (size 15 to 20)
#    0.000    2.111    1.111    3.000    0.000    6.667 
#    0.000    8.889    0.000    0.000    0.000    0.000 
#    0.000    0.000    0.000    0.000    0.000    0.000 
#
# Total GULP energy -446509.910735 kJ/mol
# GULP energy per Si atom -12403.053076 kJ/mol
# Density = 1.904696 g / cm^3
# Si number density = 19.090407 Si / 1000 Ang^3
#
#
#
# Elastic Constant Matrix: (Units=GPa)
#
#
# Indices 1 2 3 4 5 6 
#
# 1 105.6310 37.6177 43.8341 0.0000 0.0000 0.0000
# 2 37.6177 60.8316 29.4881 0.0000 0.0000 0.0000
# 3 43.8341 29.4881 65.0468 0.0000 0.0000 0.0000
# 4 0.0000 0.0000 0.0000 34.8348 0.0000 0.0000
# 5 0.0000 0.0000 0.0000 0.0000 55.3464 0.0000
# 6 0.0000 0.0000 0.0000 0.0000 0.0000 28.6605
#
#
#
# Elastic Compliance Matrix: (Units=1/GPa)
#
#
# Indices 1 2 3 4 5 6 
#
# 1 0.014397 -0.005383 -0.007262 0.000000 0.000000 0.000000
# 2 -0.005383 0.023081 -0.006836 0.000000 0.000000 0.000000
# 3 -0.007262 -0.006836 0.023366 0.000000 0.000000 0.000000
# 4 0.000000 0.000000 0.000000 0.028707 0.000000 0.000000
# 5 0.000000 0.000000 0.000000 0.000000 0.018068 0.000000
# 6 0.000000 0.000000 0.000000 0.000000 0.000000 0.034891
#
#
# Mechanical properties :
#
#
# Convention : Reuss Voigt Hill
#
# Bulk Modulus (GPa) = 45.69743 50.37657 48.03700
# Shear Modulus (GPa) = 26.48758 31.80632 29.14695
#
# Velocity S-wave (km/s) = 3.72893 4.08620 3.91165
# Velocity P-wave (km/s) = 6.52145 6.97914 6.75417
#
# Compressibility (1/GPa) = 0.02188307
#
# Stress axis : x y z
#
# Youngs Moduli (GPa) = 69.45682 43.32484 42.79672
#
# Poissons Ratio (x) = 0.23322 0.31078
# Poissons Ratio (y) = 0.37389 0.29256
# Poissons Ratio (z) = 0.50439 0.29617
#
# Static dielectric constant tensor:
#      x y z
#    x 3.484130 0.000000 0.000000 
#    y 0.000000 3.659600 0.000000 
#    z 0.000000 0.000000 3.414510 
# 
# 
# High freq. dielectric constant tensor:
#      x y z
#    x 1.739370 0.000000 0.000000 
#    y 0.000000 1.754910 0.000000 
#    z 0.000000 0.000000 1.738390 
# 
# From -- ./inp_files/9215.got.cif
#   From: 2010.03.12/outbox.cif.g09.slc.cpg/sg65_5_cif.got.tgz:9215.got - 2010.04.10 20:52:16.
