data_PCOD8274248
_publ_section_title
;
Structure prediction by ZEFSAII (Michael W. Deem and Ramdas Pophale) SiO2 
 PCOD8274248
Probable space group: C M M M
;
_chemical_formula_sum "Si O2"
_cell_formula_units_Z 88
_cell_length_a 23.844249
_cell_length_b 10.155746
_cell_length_c 18.373198
_cell_angle_alpha 90.000000
_cell_angle_beta 90.000000
_cell_angle_gamma 90.000000
_cell_volume 4449.182641
_symmetry_space_group_name_H-M "C M M M"
_symmetry_group_IT_number 65
_symmetry_cell_setting 'orthorhombic'
loop_
_space_group_symop_operation_xyz
x,y,z
-x,-y,z
x,-y,-z
-x,y,-z
-x,-y,-z
x,y,-z
-x,y,z
x,-y,z
1/2+x,1/2+y,z
1/2-x,1/2-y,z
1/2+x,1/2-y,-z
1/2-x,1/2+y,-z
1/2-x,1/2-y,-z
1/2+x,1/2+y,-z
1/2-x,1/2+y,z
1/2+x,1/2-y,z
loop_
_atom_site_type_symbol
_atom_site_label
_atom_site_fract_x
_atom_site_fract_y
_atom_site_fract_z
Si Si1 0.134349 0.228455 0.085634
Si Si2 0.500000 0.652005 0.414304
Si Si3 0.116287 0.763784 0.342720
Si Si4 0.938193 0.151674 0.205761
Si Si5 0.826626 0.500000 0.325164
Si Si6 0.306955 0.500000 0.320068
Si Si7 0.833819 0.500000 0.844990
Si Si8 0.203908 0.000000 0.149041
O O1 0.078361 0.167383 0.121460
O O2 0.140256 0.374193 0.116197
O O3 0.184853 0.133059 0.109024
O O4 0.127160 0.230656 0.000000
O O5 0.500000 0.500000 0.390118
O O6 0.500000 0.669533 0.500000
O O7 0.442659 0.717435 0.384807
O O8 0.103522 0.764965 0.256476
O O9 0.145422 0.626337 0.363934
O O10 0.163167 0.875180 0.358092
O O11 0.000000 0.208187 0.217578
O O12 0.935346 0.000000 0.229878
O O13 0.759470 0.500000 0.336861
O O14 0.844029 0.500000 0.240943
O O15 0.316849 0.500000 0.232737
O O16 0.768960 0.500000 0.860189
#
# Coordination Sequence:
#
# PCOD8274248 Si02
#       8
#    16   8  16  16   8   8   8   8
#     4  12  23  37  53  78 114 154 203 256 317 379
#     4  11  24  43  75 109 132 165 204 248 302 366
#     4  12  20  40  66  96 130 165 208 255 308 367
#     4  11  21  37  61  85 109 149 205 261 313 365
#     4  11  24  36  63  98 128 166 215 263 314 363
#     4  11  20  38  65  92 128 168 217 267 302 369
#     4  11  23  38  53  80 117 156 200 256 310 368
#     4  11  21  36  57  80 111 154 208 260 306 356
#
# _framework density 19.778912999999999
#
# number of rings (size 3 to 8) (size 9 to 14) (size 15 to 20)
#    0.000    0.636    7.273    1.636    0.000    5.818 
#    0.000    3.182    0.000    4.364    0.000    0.000 
#    0.000    0.000    0.000    0.000    0.000    0.000 
#
# Total GULP energy -545474.714939 kJ/mol
# GULP energy per Si atom -12397.152612 kJ/mol
# Density = 1.973390 g / cm^3
# Si number density = 19.778913 Si / 1000 Ang^3
#
#
#
# Elastic Constant Matrix: (Units=GPa)
#
#
# Indices 1 2 3 4 5 6 
#
# 1 121.7574 51.1609 37.7958 0.0000 0.0000 0.0000
# 2 51.1609 128.8931 32.4474 0.0000 0.0000 0.0000
# 3 37.7958 32.4474 63.9774 0.0000 0.0000 0.0000
# 4 0.0000 0.0000 0.0000 20.1787 0.0000 0.0000
# 5 0.0000 0.0000 0.0000 0.0000 20.6427 0.0000
# 6 0.0000 0.0000 0.0000 0.0000 0.0000 21.1800
#
#
#
# Elastic Compliance Matrix: (Units=1/GPa)
#
#
# Indices 1 2 3 4 5 6 
#
# 1 0.011071 -0.003150 -0.004943 0.000000 0.000000 0.000000
# 2 -0.003150 0.009790 -0.003104 0.000000 0.000000 0.000000
# 3 -0.004943 -0.003104 0.020125 0.000000 0.000000 0.000000
# 4 0.000000 0.000000 0.000000 0.049557 0.000000 0.000000
# 5 0.000000 0.000000 0.000000 0.000000 0.048443 0.000000
# 6 0.000000 0.000000 0.000000 0.000000 0.000000 0.047214
#
#
# Mechanical properties :
#
#
# Convention : Reuss Voigt Hill
#
# Bulk Modulus (GPa) = 53.78707 61.93732 57.86220
# Shear Modulus (GPa) = 23.27827 25.28187 24.28007
#
# Velocity S-wave (km/s) = 3.43435 3.57910 3.50748
# Velocity P-wave (km/s) = 6.55588 6.96152 6.76174
#
# Compressibility (1/GPa) = 0.01859183
#
# Stress axis : x y z
#
# Youngs Moduli (GPa) = 90.32604 102.14307 49.68953
#
# Poissons Ratio (x) = 0.32176 0.24560
# Poissons Ratio (y) = 0.28453 0.15425
# Poissons Ratio (z) = 0.44646 0.31708
#
# Static dielectric constant tensor:
#      x y z
#    x 3.787840 0.000000 0.000000 
#    y 0.000000 3.616850 0.000000 
#    z 0.000000 0.000000 3.385430 
# 
# 
# High freq. dielectric constant tensor:
#      x y z
#    x 1.782400 0.000000 0.000000 
#    y 0.000000 1.774990 0.000000 
#    z 0.000000 0.000000 1.743740 
# 
# From -- ./inp_files/65296.got.cif
#   From: 2010.03.12/outbox.cif.g09.slc.cpg/sg65_33_cif.got.tgz:65296.got - 2010.04.10 20:52:16.
