data_PCOD8274931
_publ_section_title
;
Structure prediction by ZEFSAII (Michael W. Deem and Ramdas Pophale) SiO2 
 PCOD8274931
Probable space group: C M M M
;
_chemical_formula_sum "Si O2"
_cell_formula_units_Z 88
_cell_length_a 9.791486
_cell_length_b 19.446081
_cell_length_c 28.169680
_cell_angle_alpha 90.000000
_cell_angle_beta 90.000000
_cell_angle_gamma 90.000000
_cell_volume 5363.676931
_symmetry_space_group_name_H-M "C M M M"
_symmetry_group_IT_number 65
_symmetry_cell_setting 'orthorhombic'
loop_
_space_group_symop_operation_xyz
x,y,z
-x,-y,z
x,-y,-z
-x,y,-z
-x,-y,-z
x,y,-z
-x,y,z
x,-y,z
1/2+x,1/2+y,z
1/2-x,1/2-y,z
1/2+x,1/2-y,-z
1/2-x,1/2+y,-z
1/2-x,1/2-y,-z
1/2+x,1/2+y,-z
1/2-x,1/2+y,z
1/2+x,1/2-y,z
loop_
_atom_site_type_symbol
_atom_site_label
_atom_site_fract_x
_atom_site_fract_y
_atom_site_fract_z
Si Si1 0.152940 0.581792 0.552613
Si Si2 0.658265 0.314645 0.813277
Si Si3 0.652077 0.582056 0.366388
Si Si4 0.338975 0.423020 0.000000
Si Si5 0.337779 0.424230 0.737749
Si Si6 0.158317 0.184326 0.077924
O O1 0.202336 0.604833 0.500000
O O2 0.154835 0.500000 0.555760
O O3 0.251379 0.613756 0.592744
O O4 0.000000 0.608999 0.561979
O O5 0.500000 0.296872 0.803294
O O6 0.750000 0.250000 0.800484
O O7 0.713615 0.375209 0.779689
O O8 0.679809 0.337562 0.867590
O O9 0.500000 0.611259 0.375109
O O10 0.649109 0.500000 0.368606
O O11 0.707798 0.603991 0.314198
O O12 0.292914 0.380543 0.953406
O O13 0.272876 0.500000 0.000000
O O14 0.500000 0.431432 0.000000
O O15 0.500000 0.429392 0.737880
O O16 0.275212 0.500000 0.747017
O O17 0.250000 0.250000 0.064471
O O18 0.000000 0.203115 0.067585
#
# Coordination Sequence:
#
# PCOD8274931 Si02
#       6
#    16  16  16   8  16  16
#     4   8  13  20  29  43  67  99 130 158 191 234
#     4   9  17  29  45  64  85 110 141 175 210 249
#     4   8  13  21  33  49  69  94 126 163 199 235
#     4   9  17  28  43  67  94 113 138 180 218 245
#     4   8  14  25  41  60  81 106 137 172 208 247
#     4   9  17  29  46  65  85 113 144 174 210 250
#
# _framework density 16.406656000000002
#
# number of rings (size 3 to 8) (size 9 to 14) (size 15 to 20)
#    0.000    3.545    0.000    1.909    0.000    1.091 
#    0.000    6.364    0.000    2.727    0.000    5.091 
#    0.000    0.727    0.000    1.636    0.000    4.364 
#
# Total GULP energy -545257.162110 kJ/mol
# GULP energy per Si atom -12392.208230 kJ/mol
# Density = 1.636931 g / cm^3
# Si number density = 16.406656 Si / 1000 Ang^3
#
#
#
# Elastic Constant Matrix: (Units=GPa)
#
#
# Indices 1 2 3 4 5 6 
#
# 1 52.0964 35.5485 51.7927 0.0000 0.0000 0.0000
# 2 35.5485 79.5048 71.4531 0.0000 0.0000 0.0000
# 3 51.7927 71.4531 145.5527 0.0000 0.0000 0.0000
# 4 0.0000 0.0000 0.0000 4.8417 0.0000 0.0000
# 5 0.0000 0.0000 0.0000 0.0000 18.4722 0.0000
# 6 0.0000 0.0000 0.0000 0.0000 0.0000 14.8206
#
#
#
# Elastic Compliance Matrix: (Units=1/GPa)
#
#
# Indices 1 2 3 4 5 6 
#
# 1 0.031888 -0.007266 -0.007780 0.000000 0.000000 0.000000
# 2 -0.007266 0.024164 -0.009277 0.000000 0.000000 0.000000
# 3 -0.007780 -0.009277 0.014193 0.000000 0.000000 0.000000
# 4 0.000000 0.000000 0.000000 0.206540 0.000000 0.000000
# 5 0.000000 0.000000 0.000000 0.000000 0.054135 0.000000
# 6 0.000000 0.000000 0.000000 0.000000 0.000000 0.067474
#
#
# Mechanical properties :
#
#
# Convention : Reuss Voigt Hill
#
# Bulk Modulus (GPa) = 46.29771 66.08250 56.19011
# Shear Modulus (GPa) = 11.00745 15.51754 13.26250
#
# Velocity S-wave (km/s) = 2.59301 3.07873 2.84625
# Velocity P-wave (km/s) = 6.10287 7.28035 6.71746
#
# Compressibility (1/GPa) = 0.02159934
#
# Stress axis : x y z
#
# Youngs Moduli (GPa) = 31.36014 41.38394 70.45798
#
# Poissons Ratio (x) = 0.30068 0.54816
# Poissons Ratio (y) = 0.22785 0.65363
# Poissons Ratio (z) = 0.24398 0.38392
#
# Static dielectric constant tensor:
#      x y z
#    x 3.004210 0.000000 0.000000 
#    y 0.000000 2.901340 0.000000 
#    z 0.000000 0.000000 3.446290 
# 
# 
# High freq. dielectric constant tensor:
#      x y z
#    x 1.603730 0.000000 0.000000 
#    y 0.000000 1.583890 0.000000 
#    z 0.000000 0.000000 1.649060 
# 
# From -- ./inp_files/76774.got.cif
#   From: 2010.03.12/outbox.cif.g09.slc.cpg/sg65_39_cif.got.tgz:76774.got - 2010.04.10 20:52:16.
