data_PCOD8274422
_publ_section_title
;
Structure prediction by ZEFSAII (Michael W. Deem and Ramdas Pophale) SiO2 
 PCOD8274422
Probable space group: C M M M
;
_chemical_formula_sum "Si O2"
_cell_formula_units_Z 72
_cell_length_a 28.439457
_cell_length_b 15.247671
_cell_length_c 9.374559
_cell_angle_alpha 90.000000
_cell_angle_beta 90.000000
_cell_angle_gamma 90.000000
_cell_volume 4065.141427
_symmetry_space_group_name_H-M "C M M M"
_symmetry_group_IT_number 65
_symmetry_cell_setting 'orthorhombic'
loop_
_space_group_symop_operation_xyz
x,y,z
-x,-y,z
x,-y,-z
-x,y,-z
-x,-y,-z
x,y,-z
-x,y,z
x,-y,z
1/2+x,1/2+y,z
1/2-x,1/2-y,z
1/2+x,1/2-y,-z
1/2-x,1/2+y,-z
1/2-x,1/2-y,-z
1/2+x,1/2+y,-z
1/2-x,1/2+y,z
1/2+x,1/2-y,z
loop_
_atom_site_type_symbol
_atom_site_label
_atom_site_fract_x
_atom_site_fract_y
_atom_site_fract_z
Si Si1 0.947219 0.335166 0.162359
Si Si2 0.302721 0.899483 0.664642
Si Si3 0.555705 0.000000 0.341319
Si Si4 0.306506 0.399962 0.336615
Si Si5 0.853830 0.750373 0.164218
O O1 0.927405 0.413441 0.260076
O O2 0.910646 0.255167 0.179643
O O3 0.000000 0.304885 0.207584
O O4 0.947743 0.369594 0.000000
O O5 0.312625 0.876103 0.500000
O O6 0.247978 0.885846 0.699309
O O7 0.331176 0.835148 0.765470
O O8 0.317748 0.000000 0.695954
O O9 0.500000 0.000000 0.347143
O O10 0.577800 0.000000 0.500000
O O11 0.316277 0.374407 0.500000
O O12 0.321160 0.500000 0.307347
O O13 0.338120 0.339748 0.237076
O O14 0.838275 0.752432 0.000000
#
# Coordination Sequence:
#
# PCOD8274422 Si02
#       5
#    16  16   8  16  16
#     4   9  19  35  50  66  98 140 171 199 245 304
#     4   9  19  35  53  74 103 139 171 199 241 302
#     4   9  17  29  47  71  95 123 165 211 247 283
#     4   9  19  37  57  74  97 133 172 205 248 308
#     4  11  22  32  50  79 104 130 169 213 254 295
#
# _framework density 17.711559999999999
#
# number of rings (size 3 to 8) (size 9 to 14) (size 15 to 20)
#    0.000    2.556    0.000    3.000    1.556    7.556 
#    0.000    2.222    0.000    0.667    0.000    4.667 
#    0.000    0.000    0.000    0.000    0.000    0.000 
#
# Total GULP energy -446351.236612 kJ/mol
# GULP energy per Si atom -12398.645461 kJ/mol
# Density = 1.767125 g / cm^3
# Si number density = 17.711560 Si / 1000 Ang^3
#
#
#
# Elastic Constant Matrix: (Units=GPa)
#
#
# Indices 1 2 3 4 5 6 
#
# 1 77.8917 55.0113 52.5064 0.0000 0.0000 0.0000
# 2 55.0113 94.2494 57.4682 0.0000 0.0000 0.0000
# 3 52.5064 57.4682 103.1265 0.0000 0.0000 0.0000
# 4 0.0000 0.0000 0.0000 26.9043 0.0000 0.0000
# 5 0.0000 0.0000 0.0000 0.0000 18.4441 0.0000
# 6 0.0000 0.0000 0.0000 0.0000 0.0000 26.2458
#
#
#
# Elastic Compliance Matrix: (Units=1/GPa)
#
#
# Indices 1 2 3 4 5 6 
#
# 1 0.024691 -0.010218 -0.006877 0.000000 0.000000 0.000000
# 2 -0.010218 0.020300 -0.006110 0.000000 0.000000 0.000000
# 3 -0.006877 -0.006110 0.016603 0.000000 0.000000 0.000000
# 4 0.000000 0.000000 0.000000 0.037169 0.000000 0.000000
# 5 0.000000 0.000000 0.000000 0.000000 0.054218 0.000000
# 6 0.000000 0.000000 0.000000 0.000000 0.000000 0.038101
#
#
# Mechanical properties :
#
#
# Convention : Reuss Voigt Hill
#
# Bulk Modulus (GPa) = 65.86053 67.24882 66.55468
# Shear Modulus (GPa) = 20.61417 21.67097 21.14257
#
# Velocity S-wave (km/s) = 3.41527 3.50172 3.45877
# Velocity P-wave (km/s) = 7.26759 7.37568 7.32184
#
# Compressibility (1/GPa) = 0.01518360
#
# Stress axis : x y z
#
# Youngs Moduli (GPa) = 40.50105 49.26211 60.23069
#
# Poissons Ratio (x) = 0.50337 0.41421
# Poissons Ratio (y) = 0.41385 0.36798
# Poissons Ratio (z) = 0.27852 0.30097
#
# Static dielectric constant tensor:
#      x y z
#    x 3.323130 0.000000 0.000000 
#    y 0.000000 3.113660 0.000000 
#    z 0.000000 0.000000 3.367180 
# 
# 
# High freq. dielectric constant tensor:
#      x y z
#    x 1.683770 0.000000 0.000000 
#    y 0.000000 1.665540 0.000000 
#    z 0.000000 0.000000 1.689790 
# 
# From -- ./inp_files/7246.got.cif
#   From: 2010.03.12/outbox.cif.g09.slc.cpg/sg65_4_cif.got.tgz:7246.got - 2010.04.10 20:52:16.
