data_PCOD8274923
_publ_section_title
;
Structure prediction by ZEFSAII (Michael W. Deem and Ramdas Pophale) SiO2 
 PCOD8274923
Probable space group: C M M M
;
_chemical_formula_sum "Si O2"
_cell_formula_units_Z 96
_cell_length_a 30.179900
_cell_length_b 9.288175
_cell_length_c 25.582417
_cell_angle_alpha 90.000000
_cell_angle_beta 90.000000
_cell_angle_gamma 90.000000
_cell_volume 7171.165733
_symmetry_space_group_name_H-M "C M M M"
_symmetry_group_IT_number 65
_symmetry_cell_setting 'orthorhombic'
loop_
_space_group_symop_operation_xyz
x,y,z
-x,-y,z
x,-y,-z
-x,y,-z
-x,-y,-z
x,y,-z
-x,y,z
x,-y,z
1/2+x,1/2+y,z
1/2-x,1/2-y,z
1/2+x,1/2-y,-z
1/2-x,1/2+y,-z
1/2-x,1/2-y,-z
1/2+x,1/2+y,-z
1/2-x,1/2+y,z
1/2+x,1/2-y,z
loop_
_atom_site_type_symbol
_atom_site_label
_atom_site_fract_x
_atom_site_fract_y
_atom_site_fract_z
Si Si1 0.052680 0.661696 0.557757
Si Si2 0.447275 0.837484 0.754680
Si Si3 0.622375 0.666564 0.059825
Si Si4 0.949317 0.166647 0.144434
Si Si5 0.791949 0.662668 0.937774
Si Si6 0.947087 0.162191 0.344565
O O1 0.068441 0.713030 0.500000
O O2 0.069890 0.500000 0.568814
O O3 0.071787 0.767778 0.602010
O O4 0.000000 0.662213 0.560014
O O5 0.500000 0.836685 0.752958
O O6 0.430848 0.759113 0.807185
O O7 0.428532 0.752598 0.704471
O O8 0.428768 0.000000 0.753757
O O9 0.635941 0.500000 0.065220
O O10 0.579125 0.704476 0.093402
O O11 0.663213 0.760299 0.081253
O O12 0.610914 0.705313 0.000000
O O13 0.000000 0.206636 0.131144
O O14 0.945056 0.000000 0.160258
O O15 0.790824 0.500000 0.915969
O O16 0.750000 0.750000 0.915016
O O17 0.790044 0.663143 0.000000
O O18 0.000000 0.163397 0.344532
O O19 0.928922 0.000000 0.340667
#
# Coordination Sequence:
#
# PCOD8274923 Si02
#       6
#    16  16  16  16  16  16
#     4   8  13  20  28  38  54  75  96 119 152 196
#     4   9  16  25  36  47  59  78 106 139 173 207
#     4   9  17  28  41  57  76  96 117 141 172 212
#     4   9  17  28  40  53  70  92 118 148 179 210
#     4   9  16  26  41  59  77  95 114 137 166 202
#     4   9  15  21  30  43  57  73  96 128 164 201
#
# _framework density 13.386944
#
# number of rings (size 3 to 8) (size 9 to 14) (size 15 to 20)
#    0.000    3.167    0.000    2.000    0.000    7.333 
#    0.000    3.333    0.000    0.000    0.000    4.667 
#    0.000    0.000    0.000    0.000    0.000    0.000 
#
# Total GULP energy -595018.592419 kJ/mol
# GULP energy per Si atom -12396.220675 kJ/mol
# Density = 1.335648 g / cm^3
# Si number density = 13.386944 Si / 1000 Ang^3
#
#
#
# Elastic Constant Matrix: (Units=GPa)
#
#
# Indices 1 2 3 4 5 6 
#
# 1 42.1368 32.5068 31.1992 0.0000 0.0000 0.0000
# 2 32.5068 101.9145 57.4033 0.0000 0.0000 0.0000
# 3 31.1992 57.4033 92.7881 0.0000 0.0000 0.0000
# 4 0.0000 0.0000 0.0000 23.6258 0.0000 0.0000
# 5 0.0000 0.0000 0.0000 0.0000 0.6177 0.0000
# 6 0.0000 0.0000 0.0000 0.0000 0.0000 13.2543
#
#
#
# Elastic Compliance Matrix: (Units=1/GPa)
#
#
# Indices 1 2 3 4 5 6 
#
# 1 0.034459 -0.006853 -0.007347 0.000000 0.000000 0.000000
# 2 -0.006853 0.016423 -0.007856 0.000000 0.000000 0.000000
# 3 -0.007347 -0.007856 0.018107 0.000000 0.000000 0.000000
# 4 0.000000 0.000000 0.000000 0.042327 0.000000 0.000000
# 5 0.000000 0.000000 0.000000 0.000000 1.618934 0.000000
# 6 0.000000 0.000000 0.000000 0.000000 0.000000 0.075447
#
#
# Mechanical properties :
#
#
# Convention : Reuss Voigt Hill
#
# Bulk Modulus (GPa) = 40.19612 53.22867 46.71239
# Shear Modulus (GPa) = 2.69092 15.21490 8.95291
#
# Velocity S-wave (km/s) = 1.41932 3.37493 2.58888
# Velocity P-wave (km/s) = 5.72516 7.41855 6.62617
#
# Compressibility (1/GPa) = 0.02487802
#
# Stress axis : x y z
#
# Youngs Moduli (GPa) = 29.02011 60.89168 55.22581
#
# Poissons Ratio (x) = 0.41728 0.40574
# Poissons Ratio (y) = 0.19887 0.43383
# Poissons Ratio (z) = 0.21321 0.47834
#
# Static dielectric constant tensor:
#      x y z
#    x 2.219040 0.000000 0.000000 
#    y 0.000000 2.874810 0.000000 
#    z 0.000000 0.000000 2.711450 
# 
# 
# High freq. dielectric constant tensor:
#      x y z
#    x 1.439360 0.000000 0.000000 
#    y 0.000000 1.523710 0.000000 
#    z 0.000000 0.000000 1.500330 
# 
# From -- ./inp_files/73704.got.cif
#   From: 2010.03.12/outbox.cif.g09.slc.cpg/sg65_37_cif.got.tgz:73704.got - 2010.04.10 20:52:16.
