data_PCOD8274650
_publ_section_title
;
Structure prediction by ZEFSAII (Michael W. Deem and Ramdas Pophale) SiO2 
 PCOD8274650
Probable space group: C M M M
;
_chemical_formula_sum "Si O2"
_cell_formula_units_Z 80
_cell_length_a 23.164235
_cell_length_b 24.836232
_cell_length_c 9.143381
_cell_angle_alpha 90.000000
_cell_angle_beta 90.000000
_cell_angle_gamma 90.000000
_cell_volume 5260.299686
_symmetry_space_group_name_H-M "C M M M"
_symmetry_group_IT_number 65
_symmetry_cell_setting 'orthorhombic'
loop_
_space_group_symop_operation_xyz
x,y,z
-x,-y,z
x,-y,-z
-x,y,-z
-x,-y,-z
x,y,-z
-x,y,z
x,-y,z
1/2+x,1/2+y,z
1/2-x,1/2-y,z
1/2+x,1/2-y,-z
1/2-x,1/2+y,-z
1/2-x,1/2-y,-z
1/2+x,1/2+y,-z
1/2-x,1/2+y,z
1/2+x,1/2-y,z
loop_
_atom_site_type_symbol
_atom_site_label
_atom_site_fract_x
_atom_site_fract_y
_atom_site_fract_z
Si Si1 0.275808 0.829173 0.826685
Si Si2 0.753293 0.057889 0.826185
Si Si3 0.614700 0.560844 0.169362
Si Si4 0.566467 0.339960 0.668099
Si Si5 0.340962 0.727815 0.173205
O O1 0.283847 0.890776 0.767664
O O2 0.327270 0.789521 0.775037
O O3 0.213273 0.808130 0.775658
O O4 0.275428 0.828438 0.000000
O O5 0.819335 0.065609 0.777253
O O6 0.729784 0.000000 0.765298
O O7 0.751123 0.056137 0.000000
O O8 0.591994 0.500000 0.194103
O O9 0.576167 0.601470 0.262067
O O10 0.609668 0.577307 0.000000
O O11 0.585183 0.342719 0.500000
O O12 0.500000 0.324029 0.686123
O O13 0.602248 0.292925 0.746851
O O14 0.350930 0.724251 0.000000
#
# Coordination Sequence:
#
# PCOD8274650 Si02
#       5
#    16  16  16  16  16
#     4   8  13  23  43  67  87 106 132 172 216 253
#     4   8  12  20  39  66  90 108 130 164 205 249
#     4   9  17  30  48  65  80 106 147 185 212 245
#     4  11  23  34  42  56  83 116 147 181 220 255
#     4   9  16  28  46  64  82 107 141 177 211 250
#
# _framework density 15.208258000000001
#
# number of rings (size 3 to 8) (size 9 to 14) (size 15 to 20)
#    0.000    3.000    2.000    3.000    0.000    2.400 
#    0.000    4.000    0.000    0.000    0.000    0.000 
#    0.000    0.800    0.000   10.000    0.000    1.600 
#
# Total GULP energy -495552.225691 kJ/mol
# GULP energy per Si atom -12388.805642 kJ/mol
# Density = 1.517364 g / cm^3
# Si number density = 15.208258 Si / 1000 Ang^3
#
#
#
# Elastic Constant Matrix: (Units=GPa)
#
#
# Indices 1 2 3 4 5 6 
#
# 1 56.0691 53.6768 30.5775 0.0000 0.0000 0.0000
# 2 53.6768 147.9896 34.6193 0.0000 0.0000 0.0000
# 3 30.5775 34.6193 46.7153 0.0000 0.0000 0.0000
# 4 0.0000 0.0000 0.0000 7.5666 0.0000 0.0000
# 5 0.0000 0.0000 0.0000 0.0000 -2.1155 0.0000
# 6 0.0000 0.0000 0.0000 0.0000 0.0000 21.6614
#
#
#
# Elastic Compliance Matrix: (Units=1/GPa)
#
#
# Indices 1 2 3 4 5 6 
#
# 1 0.035473 -0.008994 -0.016554 0.000000 0.000000 0.000000
# 2 -0.008994 0.010455 -0.001861 0.000000 0.000000 0.000000
# 3 -0.016554 -0.001861 0.033620 0.000000 0.000000 0.000000
# 4 0.000000 0.000000 0.000000 0.132160 0.000000 0.000000
# 5 0.000000 0.000000 0.000000 0.000000 -0.472692 0.000000
# 6 0.000000 0.000000 0.000000 0.000000 0.000000 0.046165
#
#
# Mechanical properties :
#
#
# Convention : Reuss Voigt Hill
#
# Bulk Modulus (GPa) = 40.43437 54.28014 47.35725
# Shear Modulus (GPa) = -32.94714 14.21584 -9.36565
#
# Velocity S-wave (km/s) = -4.65951 3.06068 -2.48428
# Velocity P-wave (km/s) = 1.51762 6.94687 4.79353
#
# Compressibility (1/GPa) = 0.02473143
#
# Stress axis : x y z
#
# Youngs Moduli (GPa) = 28.19062 95.65136 29.74388
#
# Poissons Ratio (x) = 0.86027 0.49237
# Poissons Ratio (y) = 0.25354 0.05535
# Poissons Ratio (z) = 0.46666 0.17798
#
# Static dielectric constant tensor:
#      x y z
#    x 2.619840 0.000000 0.000000 
#    y 0.000000 3.524390 0.000000 
#    z 0.000000 0.000000 2.579390 
# 
# 
# High freq. dielectric constant tensor:
#      x y z
#    x 1.536520 0.000000 0.000000 
#    y 0.000000 1.597590 0.000000 
#    z 0.000000 0.000000 1.546570 
# 
# From -- ./inp_files/12533.got.cif
#   From: 2010.03.12/outbox.cif.g09.slc.cpg/sg65_7_cif.got.tgz:12533.got - 2010.04.10 20:52:16.
