data_PCOD8274646
_publ_section_title
;
Structure prediction by ZEFSAII (Michael W. Deem and Ramdas Pophale) SiO2 
 PCOD8274646
Probable space group: C M M M
;
_chemical_formula_sum "Si O2"
_cell_formula_units_Z 88
_cell_length_a 24.566959
_cell_length_b 27.917167
_cell_length_c 9.330050
_cell_angle_alpha 90.000000
_cell_angle_beta 90.000000
_cell_angle_gamma 90.000000
_cell_volume 6398.920532
_symmetry_space_group_name_H-M "C M M M"
_symmetry_group_IT_number 65
_symmetry_cell_setting 'orthorhombic'
loop_
_space_group_symop_operation_xyz
x,y,z
-x,-y,z
x,-y,-z
-x,y,-z
-x,-y,-z
x,y,-z
-x,y,z
x,-y,z
1/2+x,1/2+y,z
1/2-x,1/2-y,z
1/2+x,1/2-y,-z
1/2-x,1/2+y,-z
1/2-x,1/2-y,-z
1/2+x,1/2+y,-z
1/2-x,1/2+y,z
1/2+x,1/2-y,z
loop_
_atom_site_type_symbol
_atom_site_label
_atom_site_fract_x
_atom_site_fract_y
_atom_site_fract_z
Si Si1 0.189014 0.270359 0.159547
Si Si2 0.783417 0.945027 0.666376
Si Si3 0.658595 0.311336 0.336209
Si Si4 0.000000 0.055117 0.830804
Si Si5 0.254478 0.138242 0.831767
Si Si6 0.400877 0.403503 0.661931
O O1 0.250000 0.250000 0.170112
O O2 0.149383 0.241991 0.269974
O O3 0.192585 0.327553 0.194328
O O4 0.165640 0.262548 0.000000
O O5 0.772036 0.934967 0.500000
O O6 0.739809 0.913997 0.758523
O O7 0.845104 0.930301 0.704590
O O8 0.774200 0.000000 0.707568
O O9 0.678429 0.306150 0.500000
O O10 0.703544 0.336872 0.241687
O O11 0.605586 0.345522 0.328109
O O12 0.946708 0.080686 0.771240
O O13 0.000000 0.000000 0.782681
O O14 0.000000 0.060749 0.000000
O O15 0.243043 0.132441 0.000000
O O16 0.417609 0.417895 0.500000
#
# Coordination Sequence:
#
# PCOD8274646 Si02
#       6
#    16  16  16   8  16  16
#     4   8  14  23  34  50  71  91 108 129 162 202
#     4   9  17  28  40  53  68  88 117 149 178 209
#     4   9  16  25  38  54  68  84 108 136 168 207
#     4  11  23  33  41  55  69  83 111 149 184 219
#     4   9  16  24  34  50  71  92 112 134 165 204
#     4   9  18  31  43  53  66  86 111 141 181 223
#
# _framework density 13.752319999999999
#
# number of rings (size 3 to 8) (size 9 to 14) (size 15 to 20)
#    0.000    3.000    0.000    4.091    0.000    9.455 
#    0.000    0.000    0.000    0.000    0.000    0.000 
#    0.000    0.000    0.000    0.000    0.000    0.000 
#
# Total GULP energy -545129.899666 kJ/mol
# GULP energy per Si atom -12389.315901 kJ/mol
# Density = 1.372102 g / cm^3
# Si number density = 13.752320 Si / 1000 Ang^3
#
#
#
# Elastic Constant Matrix: (Units=GPa)
#
#
# Indices 1 2 3 4 5 6 
#
# 1 19.1360 32.5865 24.2537 0.0000 0.0000 0.0000
# 2 32.5865 116.2511 64.3259 0.0000 0.0000 0.0000
# 3 24.2537 64.3259 84.3329 0.0000 0.0000 0.0000
# 4 0.0000 0.0000 0.0000 26.1967 0.0000 0.0000
# 5 0.0000 0.0000 0.0000 0.0000 12.2432 0.0000
# 6 0.0000 0.0000 0.0000 0.0000 0.0000 15.2103
#
#
#
# Elastic Compliance Matrix: (Units=1/GPa)
#
#
# Indices 1 2 3 4 5 6 
#
# 1 0.108610 -0.022772 -0.013866 0.000000 0.000000 0.000000
# 2 -0.022772 0.019659 -0.008446 0.000000 0.000000 0.000000
# 3 -0.013866 -0.008446 0.022288 0.000000 0.000000 0.000000
# 4 0.000000 0.000000 0.000000 0.038173 0.000000 0.000000
# 5 0.000000 0.000000 0.000000 0.000000 0.081678 0.000000
# 6 0.000000 0.000000 0.000000 0.000000 0.000000 0.065745
#
#
# Mechanical properties :
#
#
# Convention : Reuss Voigt Hill
#
# Bulk Modulus (GPa) = 16.55944 51.33914 33.94929
# Shear Modulus (GPa) = 11.19950 17.30031 14.24991
#
# Velocity S-wave (km/s) = 2.85682 3.55067 3.22247
# Velocity P-wave (km/s) = 4.79053 7.36355 6.21173
#
# Compressibility (1/GPa) = 0.06038853
#
# Stress axis : x y z
#
# Youngs Moduli (GPa) = 9.20728 50.86823 44.86781
#
# Poissons Ratio (x) = 1.15837 0.62214
# Poissons Ratio (y) = 0.20967 0.37894
# Poissons Ratio (z) = 0.12767 0.42962
#
# Static dielectric constant tensor:
#      x y z
#    x 2.313700 0.000000 0.000000 
#    y 0.000000 3.486180 0.000000 
#    z 0.000000 0.000000 2.899740 
# 
# 
# High freq. dielectric constant tensor:
#      x y z
#    x 1.445350 0.000000 0.000000 
#    y 0.000000 1.532150 0.000000 
#    z 0.000000 0.000000 1.539220 
# 
# From -- ./inp_files/12615.got.cif
#   From: 2010.03.12/outbox.cif.g09.slc.cpg/sg65_7_cif.got.tgz:12615.got - 2010.04.10 20:52:16.
