data_PCOD8274001
_publ_section_title
;
Structure prediction by ZEFSAII (Michael W. Deem and Ramdas Pophale) SiO2 
 PCOD8274001
Probable space group: C M M M
;
_chemical_formula_sum "Si O2"
_cell_formula_units_Z 104
_cell_length_a 8.701369
_cell_length_b 23.244905
_cell_length_c 28.092150
_cell_angle_alpha 90.000000
_cell_angle_beta 90.000000
_cell_angle_gamma 90.000000
_cell_volume 5681.988371
_symmetry_space_group_name_H-M "C M M M"
_symmetry_group_IT_number 65
_symmetry_cell_setting 'orthorhombic'
loop_
_space_group_symop_operation_xyz
x,y,z
-x,-y,z
x,-y,-z
-x,y,-z
-x,-y,-z
x,y,-z
-x,y,z
x,-y,z
1/2+x,1/2+y,z
1/2-x,1/2-y,z
1/2+x,1/2-y,-z
1/2-x,1/2+y,-z
1/2-x,1/2-y,-z
1/2+x,1/2+y,-z
1/2-x,1/2+y,z
1/2+x,1/2-y,z
loop_
_atom_site_type_symbol
_atom_site_label
_atom_site_fract_x
_atom_site_fract_y
_atom_site_fract_z
Si Si1 0.325430 0.431734 0.448452
Si Si2 0.817507 0.187544 0.821911
Si Si3 0.172292 0.500000 0.885947
Si Si4 0.179115 0.000000 0.210298
Si Si5 0.823079 0.374332 0.089234
Si Si6 0.680397 0.064670 0.353290
Si Si7 0.681584 0.112561 0.745056
Si Si8 0.680548 0.687398 0.000000
O O1 0.261436 0.409532 0.500000
O O2 0.500000 0.411504 0.442852
O O3 0.312390 0.500000 0.447867
O O4 0.232620 0.406911 0.403357
O O5 0.750000 0.250000 0.832422
O O6 0.749772 0.143373 0.860357
O O7 0.767191 0.166591 0.769218
O O8 0.000000 0.189099 0.825652
O O9 0.304105 0.500000 0.846332
O O10 0.192157 0.443017 0.917922
O O11 0.000000 0.500000 0.863050
O O12 0.266429 0.054902 0.229648
O O13 0.000000 0.000000 0.224437
O O14 0.000000 0.354298 0.087849
O O15 0.731835 0.345449 0.046876
O O16 0.500000 0.058787 0.353700
O O17 0.731292 0.106898 0.310427
O O18 0.750802 0.000000 0.346139
O O19 0.500000 0.121000 0.750985
O O20 0.750000 0.750000 0.000000
O O21 0.500000 0.692904 0.000000
#
# Coordination Sequence:
#
# PCOD8274001 Si02
#       8
#    16  16   8   8  16  16  16   8
#     4   8  14  24  37  56  87 128 171 216 264 312
#     4  12  25  41  60  85 111 144 185 226 273 326
#     4  10  22  39  63  88 119 153 183 219 272 326
#     4  12  22  32  53  83 113 145 185 225 266 323
#     4  11  23  42  66  91 118 151 185 224 273 328
#     4   9  17  28  43  66  96 134 176 217 263 317
#     4  11  21  36  54  76 110 146 181 226 275 323
#     4  12  26  45  66  89 117 150 190 238 279 323
#
# _framework density 18.303452
#
# number of rings (size 3 to 8) (size 9 to 14) (size 15 to 20)
#    0.000    1.538    2.308    4.615    0.000    2.462 
#    0.000    3.077    0.000    0.000    0.000    0.000 
#    0.000    0.615    0.000    2.000    0.000    2.923 
#
# Total GULP energy -644672.797936 kJ/mol
# GULP energy per Si atom -12397.553806 kJ/mol
# Density = 1.826179 g / cm^3
# Si number density = 18.303452 Si / 1000 Ang^3
#
#
#
# Elastic Constant Matrix: (Units=GPa)
#
#
# Indices 1 2 3 4 5 6 
#
# 1 98.5481 34.8571 45.7242 0.0000 0.0000 0.0000
# 2 34.8571 88.0622 38.5485 0.0000 0.0000 0.0000
# 3 45.7242 38.5485 136.4594 0.0000 0.0000 0.0000
# 4 0.0000 0.0000 0.0000 14.0488 0.0000 0.0000
# 5 0.0000 0.0000 0.0000 0.0000 32.6593 0.0000
# 6 0.0000 0.0000 0.0000 0.0000 0.0000 21.2852
#
#
#
# Elastic Compliance Matrix: (Units=1/GPa)
#
#
# Indices 1 2 3 4 5 6 
#
# 1 0.012989 -0.003693 -0.003309 0.000000 0.000000 0.000000
# 2 -0.003693 0.014008 -0.002720 0.000000 0.000000 0.000000
# 3 -0.003309 -0.002720 0.009205 0.000000 0.000000 0.000000
# 4 0.000000 0.000000 0.000000 0.071181 0.000000 0.000000
# 5 0.000000 0.000000 0.000000 0.000000 0.030619 0.000000
# 6 0.000000 0.000000 0.000000 0.000000 0.000000 0.046981
#
#
# Mechanical properties :
#
#
# Convention : Reuss Voigt Hill
#
# Bulk Modulus (GPa) = 59.67012 62.36994 61.02003
# Shear Modulus (GPa) = 23.80816 27.19465 25.50140
#
# Velocity S-wave (km/s) = 3.61050 3.85875 3.73668
# Velocity P-wave (km/s) = 7.07476 7.34865 7.21301
#
# Compressibility (1/GPa) = 0.01675881
#
# Stress axis : x y z
#
# Youngs Moduli (GPa) = 76.98935 71.38865 108.63343
#
# Poissons Ratio (x) = 0.26362 0.35947
# Poissons Ratio (y) = 0.28430 0.29545
# Poissons Ratio (z) = 0.25476 0.19416
#
# Static dielectric constant tensor:
#      x y z
#    x 3.433070 0.000000 0.000000 
#    y 0.000000 3.302350 0.000000 
#    z 0.000000 0.000000 3.901090 
# 
# 
# High freq. dielectric constant tensor:
#      x y z
#    x 1.715680 0.000000 0.000000 
#    y 0.000000 1.673040 0.000000 
#    z 0.000000 0.000000 1.716950 
# 
# From -- ./inp_files/73657.got.cif
#   From: 2010.03.12/outbox.cif.g09.slc.cpg/sg65_37_cif.got.tgz:73657.got - 2010.04.10 20:52:16.
