data_PCOD8274225
_publ_section_title
;
Structure prediction by ZEFSAII (Michael W. Deem and Ramdas Pophale) SiO2 
 PCOD8274225
Probable space group: C M M M
;
_chemical_formula_sum "Si O2"
_cell_formula_units_Z 72
_cell_length_a 19.068893
_cell_length_b 27.806479
_cell_length_c 8.807384
_cell_angle_alpha 90.000000
_cell_angle_beta 90.000000
_cell_angle_gamma 90.000000
_cell_volume 4670.016483
_symmetry_space_group_name_H-M "C M M M"
_symmetry_group_IT_number 65
_symmetry_cell_setting 'orthorhombic'
loop_
_space_group_symop_operation_xyz
x,y,z
-x,-y,z
x,-y,-z
-x,y,-z
-x,-y,-z
x,y,-z
-x,y,z
x,-y,z
1/2+x,1/2+y,z
1/2-x,1/2-y,z
1/2+x,1/2-y,-z
1/2-x,1/2+y,-z
1/2-x,1/2-y,-z
1/2+x,1/2+y,-z
1/2-x,1/2+y,z
1/2+x,1/2-y,z
loop_
_atom_site_type_symbol
_atom_site_label
_atom_site_fract_x
_atom_site_fract_y
_atom_site_fract_z
Si Si1 0.280835 0.675100 0.678135
Si Si2 0.000000 0.261541 0.822119
Si Si3 0.858053 0.727617 0.677557
Si Si4 0.625717 0.397037 0.178450
Si Si5 0.578680 0.500000 0.177961
Si Si6 0.500000 0.658374 0.322219
O O1 0.284544 0.663926 0.500000
O O2 0.202400 0.690219 0.726113
O O3 0.334329 0.718233 0.720345
O O4 0.300610 0.627374 0.773922
O O5 0.070395 0.287209 0.761322
O O6 0.000000 0.206895 0.771179
O O7 0.000000 0.265567 0.000000
O O8 0.871710 0.724598 0.500000
O O9 0.623778 0.453216 0.225190
O O10 0.567637 0.371749 0.279731
O O11 0.611004 0.389918 0.000000
O O12 0.500000 0.500000 0.251896
O O13 0.567336 0.500000 0.000000
O O14 0.500000 0.670657 0.500000
#
# Coordination Sequence:
#
# PCOD8274225 Si02
#       6
#    16   8  16  16   8   8
#     4   9  18  32  48  66  90 122 154 187 227 274
#     4  12  22  30  45  71  94 117 156 196 226 265
#     4   9  18  32  48  65  91 124 152 182 229 277
#     4  11  20  32  49  66  88 121 159 197 232 268
#     4   9  18  32  46  64  94 123 152 191 236 272
#     4  12  22  31  43  62  91 124 157 193 232 273
#
# _framework density 15.417503999999999
#
# number of rings (size 3 to 8) (size 9 to 14) (size 15 to 20)
#    0.000    1.889    3.333    4.000    0.000    0.889 
#    0.000    5.000    0.000    0.000    0.000    0.000 
#    0.000    0.889    0.000   10.000    0.000    4.444 
#
# Total GULP energy -446305.951961 kJ/mol
# GULP energy per Si atom -12397.387554 kJ/mol
# Density = 1.538241 g / cm^3
# Si number density = 15.417504 Si / 1000 Ang^3
#
#
#
# Elastic Constant Matrix: (Units=GPa)
#
#
# Indices 1 2 3 4 5 6 
#
# 1 119.0319 50.5939 43.5492 0.0000 0.0000 0.0000
# 2 50.5939 90.5528 22.3118 0.0000 0.0000 0.0000
# 3 43.5492 22.3118 45.4264 0.0000 0.0000 0.0000
# 4 0.0000 0.0000 0.0000 15.5511 0.0000 0.0000
# 5 0.0000 0.0000 0.0000 0.0000 21.5131 0.0000
# 6 0.0000 0.0000 0.0000 0.0000 0.0000 140.2482
#
#
#
# Elastic Compliance Matrix: (Units=1/GPa)
#
#
# Indices 1 2 3 4 5 6 
#
# 1 0.015022 -0.005512 -0.011694 0.000000 0.000000 0.000000
# 2 -0.005512 0.014586 -0.001880 0.000000 0.000000 0.000000
# 3 -0.011694 -0.001880 0.034148 0.000000 0.000000 0.000000
# 4 0.000000 0.000000 0.000000 0.064304 0.000000 0.000000
# 5 0.000000 0.000000 0.000000 0.000000 0.046483 0.000000
# 6 0.000000 0.000000 0.000000 0.000000 0.000000 0.007130
#
#
# Mechanical properties :
#
#
# Convention : Reuss Voigt Hill
#
# Bulk Modulus (GPa) = 39.08685 54.21342 46.65013
# Shear Modulus (GPa) = 21.89381 44.69957 33.29669
#
# Velocity S-wave (km/s) = 3.77246 5.39033 4.65226
# Velocity P-wave (km/s) = 6.66202 8.60121 7.69296
#
# Compressibility (1/GPa) = 0.02558405
#
# Stress axis : x y z
#
# Youngs Moduli (GPa) = 66.56694 68.55817 29.28410
#
# Poissons Ratio (x) = 0.37789 0.34246
# Poissons Ratio (y) = 0.36691 0.05506
# Poissons Ratio (z) = 0.77846 0.12889
#
# Static dielectric constant tensor:
#      x y z
#    x 3.335980 0.000000 0.000000 
#    y 0.000000 2.945490 0.000000 
#    z 0.000000 0.000000 2.853870 
# 
# 
# High freq. dielectric constant tensor:
#      x y z
#    x 1.583750 0.000000 0.000000 
#    y 0.000000 1.559240 0.000000 
#    z 0.000000 0.000000 1.589310 
# 
# From -- ./inp_files/12044.got.cif
#   From: 2010.03.12/outbox.cif.g09.slc.cpg/sg65_7_cif.got.tgz:12044.got - 2010.04.10 20:52:16.
