data_PCOD8274014
_publ_section_title
;
Structure prediction by ZEFSAII (Michael W. Deem and Ramdas Pophale) SiO2 
 PCOD8274014
Probable space group: C M M M
;
_chemical_formula_sum "Si O2"
_cell_formula_units_Z 88
_cell_length_a 8.476942
_cell_length_b 23.769181
_cell_length_c 23.478854
_cell_angle_alpha 90.000000
_cell_angle_beta 90.000000
_cell_angle_gamma 90.000000
_cell_volume 4730.753558
_symmetry_space_group_name_H-M "C M M M"
_symmetry_group_IT_number 65
_symmetry_cell_setting 'orthorhombic'
loop_
_space_group_symop_operation_xyz
x,y,z
-x,-y,z
x,-y,-z
-x,y,-z
-x,-y,-z
x,y,-z
-x,y,z
x,-y,z
1/2+x,1/2+y,z
1/2-x,1/2-y,z
1/2+x,1/2-y,-z
1/2-x,1/2+y,-z
1/2-x,1/2-y,-z
1/2+x,1/2+y,-z
1/2-x,1/2+y,z
1/2+x,1/2-y,z
loop_
_atom_site_type_symbol
_atom_site_label
_atom_site_fract_x
_atom_site_fract_y
_atom_site_fract_z
Si Si1 0.688026 0.187637 0.829454
Si Si2 0.313523 0.437029 0.378787
Si Si3 0.673189 0.566912 0.500000
Si Si4 0.185293 0.106333 0.260855
Si Si5 0.319838 0.000000 0.202918
Si Si6 0.315393 0.881004 0.938120
Si Si7 0.819823 0.000000 0.915541
O O1 0.500000 0.186457 0.825937
O O2 0.750000 0.250000 0.836559
O O3 0.760515 0.162809 0.771063
O O4 0.755536 0.153342 0.884455
O O5 0.500000 0.441482 0.387418
O O6 0.250430 0.500000 0.362841
O O7 0.240357 0.415937 0.440010
O O8 0.275034 0.392195 0.328605
O O9 0.659061 0.500000 0.500000
O O10 0.500000 0.594953 0.500000
O O11 0.000000 0.095354 0.250741
O O12 0.290105 0.055584 0.238376
O O13 0.197023 0.000000 0.151872
O O14 0.500000 0.000000 0.180564
O O15 0.500000 0.881641 0.928968
O O16 0.258160 0.944673 0.940984
O O17 0.272044 0.853285 0.000000
O O18 0.000000 0.000000 0.933701
#
# Coordination Sequence:
#
# PCOD8274014 Si02
#       7
#    16  16   8  16   8  16   8
#     4  11  24  41  59  78 103 137 178 222 270 318
#     4   8  13  22  40  71 108 143 175 210 252 303
#     4   7  10  18  34  62 105 146 175 204 245 299
#     4  11  20  33  54  81 109 138 177 223 267 313
#     4  12  22  33  51  77 109 145 178 214 265 322
#     4  10  22  40  60  81 109 143 174 209 260 319
#     4  12  23  35  56  85 113 141 175 216 258 307
#
# _framework density 18.601687999999999
#
# number of rings (size 3 to 8) (size 9 to 14) (size 15 to 20)
#    0.000    1.909    2.727    4.091    0.000    2.545 
#    0.000    0.000    0.000    0.000    0.000    3.818 
#    0.000    0.000    0.000    0.000    0.000    0.000 
#
# Total GULP energy -545110.648669 kJ/mol
# GULP energy per Si atom -12388.878379 kJ/mol
# Density = 1.855935 g / cm^3
# Si number density = 18.601688 Si / 1000 Ang^3
#
#
#
# Elastic Constant Matrix: (Units=GPa)
#
#
# Indices 1 2 3 4 5 6 
#
# 1 15.7819 9.4092 29.8530 0.0000 0.0000 0.0000
# 2 9.4092 92.2731 57.2104 0.0000 0.0000 0.0000
# 3 29.8530 57.2104 183.2266 0.0000 0.0000 0.0000
# 4 0.0000 0.0000 0.0000 13.9045 0.0000 0.0000
# 5 0.0000 0.0000 0.0000 0.0000 14.2851 0.0000
# 6 0.0000 0.0000 0.0000 0.0000 0.0000 48.1004
#
#
#
# Elastic Compliance Matrix: (Units=1/GPa)
#
#
# Indices 1 2 3 4 5 6 
#
# 1 0.091593 -0.000108 -0.014889 0.000000 0.000000 0.000000
# 2 -0.000108 0.013439 -0.004179 0.000000 0.000000 0.000000
# 3 -0.014889 -0.004179 0.009188 0.000000 0.000000 0.000000
# 4 0.000000 0.000000 0.000000 0.071919 0.000000 0.000000
# 5 0.000000 0.000000 0.000000 0.000000 0.070003 0.000000
# 6 0.000000 0.000000 0.000000 0.000000 0.000000 0.020790
#
#
# Mechanical properties :
#
#
# Convention : Reuss Voigt Hill
#
# Bulk Modulus (GPa) = 13.18082 53.80300 33.49191
# Shear Modulus (GPa) = 14.68108 28.24526 21.46317
#
# Velocity S-wave (km/s) = 2.81238 3.90092 3.40049
# Velocity P-wave (km/s) = 4.20085 7.01970 5.78460
#
# Compressibility (1/GPa) = 0.07586784
#
# Stress axis : x y z
#
# Youngs Moduli (GPa) = 10.91790 74.40914 108.83353
#
# Poissons Ratio (x) = 0.00806 1.62046
# Poissons Ratio (y) = 0.00118 0.45477
# Poissons Ratio (z) = 0.16256 0.31093
#
# Static dielectric constant tensor:
#      x y z
#    x 3.172510 0.000000 0.000000 
#    y 0.000000 3.242410 0.000000 
#    z 0.000000 0.000000 4.128550 
# 
# 
# High freq. dielectric constant tensor:
#      x y z
#    x 1.698130 0.000000 0.000000 
#    y 0.000000 1.674910 0.000000 
#    z 0.000000 0.000000 1.747560 
# 
# From -- ./inp_files/67686.got.cif
#   From: 2010.03.12/outbox.cif.g09.slc.cpg/sg65_34_cif.got.tgz:67686.got - 2010.04.10 20:52:16.
