data_PCOD8274936
_publ_section_title
;
Structure prediction by ZEFSAII (Michael W. Deem and Ramdas Pophale) SiO2 
 PCOD8274936
Probable space group: C M M M
;
_chemical_formula_sum "Si O2"
_cell_formula_units_Z 64
_cell_length_a 9.932347
_cell_length_b 41.163586
_cell_length_c 9.736283
_cell_angle_alpha 90.000000
_cell_angle_beta 90.000000
_cell_angle_gamma 90.000000
_cell_volume 3980.689235
_symmetry_space_group_name_H-M "C M M M"
_symmetry_group_IT_number 65
_symmetry_cell_setting 'orthorhombic'
loop_
_space_group_symop_operation_xyz
x,y,z
-x,-y,z
x,-y,-z
-x,y,-z
-x,-y,-z
x,y,-z
-x,y,z
x,-y,z
1/2+x,1/2+y,z
1/2-x,1/2-y,z
1/2+x,1/2-y,-z
1/2-x,1/2+y,-z
1/2-x,1/2-y,-z
1/2+x,1/2+y,-z
1/2-x,1/2+y,z
1/2+x,1/2-y,z
loop_
_atom_site_type_symbol
_atom_site_label
_atom_site_fract_x
_atom_site_fract_y
_atom_site_fract_z
Si Si1 0.349323 0.849113 0.336879
Si Si2 0.340205 0.464088 0.153767
Si Si3 0.156482 0.905651 0.660701
Si Si4 0.349103 0.223018 0.336600
O O1 0.347960 0.849088 0.500000
O O2 0.500000 0.858028 0.284896
O O3 0.241068 0.875062 0.282038
O O4 0.308610 0.813067 0.284102
O O5 0.500000 0.464603 0.157550
O O6 0.286079 0.500000 0.195395
O O7 0.287154 0.437399 0.261096
O O8 0.290533 0.455269 0.000000
O O9 0.180453 0.911607 0.500000
O O10 0.000000 0.898861 0.692894
O O11 0.340573 0.223819 0.500000
O O12 0.500000 0.231404 0.288084
O O13 0.250000 0.250000 0.271724
#
# Coordination Sequence:
#
# PCOD8274936 Si02
#       4
#    16  16  16  16
#     4   8  14  24  35  48  72 105 132 153 187 234
#     4   8  14  25  40  57  78 103 127 153 191 235
#     4   9  16  24  37  59  80  97 125 164 195 219
#     4   8  13  20  30  45  66  95 129 158 184 219
#
# _framework density 16.077618000000001
#
# number of rings (size 3 to 8) (size 9 to 14) (size 15 to 20)
#    0.000    3.750    0.000    2.250    0.000    1.500 
#    0.000    7.500    0.000    1.500    0.000    5.250 
#    0.000    1.000    0.000    2.250    0.000    4.500 
#
# Total GULP energy -396483.050403 kJ/mol
# GULP energy per Si atom -12390.095325 kJ/mol
# Density = 1.604102 g / cm^3
# Si number density = 16.077618 Si / 1000 Ang^3
#
#
#
# Elastic Constant Matrix: (Units=GPa)
#
#
# Indices 1 2 3 4 5 6 
#
# 1 70.5919 79.9158 23.2919 0.0000 0.0000 0.0000
# 2 79.9158 169.6522 43.3540 0.0000 0.0000 0.0000
# 3 23.2919 43.3540 28.6307 0.0000 0.0000 0.0000
# 4 0.0000 0.0000 0.0000 2.8556 0.0000 0.0000
# 5 0.0000 0.0000 0.0000 0.0000 5.0839 0.0000
# 6 0.0000 0.0000 0.0000 0.0000 0.0000 25.1768
#
#
#
# Elastic Compliance Matrix: (Units=1/GPa)
#
#
# Indices 1 2 3 4 5 6 
#
# 1 0.030790 -0.013217 -0.005034 0.000000 0.000000 0.000000
# 2 -0.013217 0.015289 -0.012399 0.000000 0.000000 0.000000
# 3 -0.005034 -0.012399 0.057798 0.000000 0.000000 0.000000
# 4 0.000000 0.000000 0.000000 0.350191 0.000000 0.000000
# 5 0.000000 0.000000 0.000000 0.000000 0.196700 0.000000
# 6 0.000000 0.000000 0.000000 0.000000 0.000000 0.039719
#
#
# Mechanical properties :
#
#
# Convention : Reuss Voigt Hill
#
# Bulk Modulus (GPa) = 23.48725 62.44425 42.96575
# Shear Modulus (GPa) = 6.52759 14.77747 10.65253
#
# Velocity S-wave (km/s) = 2.01714 3.03501 2.57683
# Velocity P-wave (km/s) = 4.47946 7.15579 5.96954
#
# Compressibility (1/GPa) = 0.04257630
#
# Stress axis : x y z
#
# Youngs Moduli (GPa) = 32.47784 65.40645 17.30178
#
# Poissons Ratio (x) = 0.86451 0.08710
# Poissons Ratio (y) = 0.42928 0.21452
# Poissons Ratio (z) = 0.16350 0.81095
#
# Static dielectric constant tensor:
#      x y z
#    x 2.990050 0.000000 0.000000 
#    y 0.000000 3.572450 0.000000 
#    z 0.000000 0.000000 2.615990 
# 
# 
# High freq. dielectric constant tensor:
#      x y z
#    x 1.593100 0.000000 0.000000 
#    y 0.000000 1.632010 0.000000 
#    z 0.000000 0.000000 1.559430 
# 
# From -- ./inp_files/4878.got.cif
#   From: 2010.03.12/outbox.cif.g09.slc.cpg/sg65_3_cif.got.tgz:4878.got - 2010.04.10 20:52:16.
