data_PCOD8274064
_publ_section_title
;
Structure prediction by ZEFSAII (Michael W. Deem and Ramdas Pophale) SiO2 
 PCOD8274064
Probable space group: C M M M
;
_chemical_formula_sum "Si O2"
_cell_formula_units_Z 72
_cell_length_a 14.786067
_cell_length_b 18.761071
_cell_length_c 12.684125
_cell_angle_alpha 90.000000
_cell_angle_beta 90.000000
_cell_angle_gamma 90.000000
_cell_volume 3518.607387
_symmetry_space_group_name_H-M "C M M M"
_symmetry_group_IT_number 65
_symmetry_cell_setting 'orthorhombic'
loop_
_space_group_symop_operation_xyz
x,y,z
-x,-y,z
x,-y,-z
-x,y,-z
-x,-y,-z
x,y,-z
-x,y,z
x,-y,z
1/2+x,1/2+y,z
1/2-x,1/2-y,z
1/2+x,1/2-y,-z
1/2-x,1/2+y,-z
1/2-x,1/2-y,-z
1/2+x,1/2+y,-z
1/2-x,1/2+y,z
1/2+x,1/2-y,z
loop_
_atom_site_type_symbol
_atom_site_label
_atom_site_fract_x
_atom_site_fract_y
_atom_site_fract_z
Si Si1 0.107437 0.079770 0.000000
Si Si2 0.231512 0.081706 0.380021
Si Si3 0.604059 0.080792 0.761628
Si Si4 0.150668 0.717824 0.880964
Si Si5 0.399699 0.648193 0.785177
O O1 0.144036 0.117045 0.893751
O O2 0.000000 0.083405 0.000000
O O3 0.144812 0.000000 0.000000
O O4 0.225822 0.108159 0.500000
O O5 0.335144 0.090564 0.342822
O O6 0.164277 0.130139 0.312175
O O7 0.199817 0.000000 0.368994
O O8 0.500000 0.096752 0.732010
O O9 0.641335 0.135232 0.849385
O O10 0.614377 0.000000 0.805974
O O11 0.250000 0.750000 0.869372
O O12 0.091126 0.766600 0.802076
O O13 0.114620 0.725075 0.000000
O O14 0.500000 0.616747 0.763331
#
# Coordination Sequence:
#
# PCOD8274064 Si02
#       5
#     8  16  16  16  16
#     4   9  18  32  53  84 120 158 199 244 291 352
#     4  10  22  41  63  89 125 166 209 260 312 366
#     4  10  22  41  65  92 122 162 214 266 315 370
#     4  11  22  39  63  92 127 168 206 251 316 382
#     4  11  21  36  59  90 125 163 205 249 307 378
#
# _framework density 20.462641999999999
#
# number of rings (size 3 to 8) (size 9 to 14) (size 15 to 20)
#    0.000    1.667    3.333    1.333    0.000    4.000 
#    0.000    6.667    0.000    2.667    0.000    0.000 
#    0.000    0.000    0.000    0.000    0.000    0.000 
#
# Total GULP energy -446321.204458 kJ/mol
# GULP energy per Si atom -12397.811235 kJ/mol
# Density = 2.041607 g / cm^3
# Si number density = 20.462642 Si / 1000 Ang^3
#
#
#
# Elastic Constant Matrix: (Units=GPa)
#
#
# Indices 1 2 3 4 5 6 
#
# 1 114.4173 44.4455 63.4542 0.0000 0.0000 0.0000
# 2 44.4455 129.4554 68.1246 0.0000 0.0000 0.0000
# 3 63.4542 68.1246 150.5052 0.0000 0.0000 0.0000
# 4 0.0000 0.0000 0.0000 28.6860 0.0000 0.0000
# 5 0.0000 0.0000 0.0000 0.0000 17.2311 0.0000
# 6 0.0000 0.0000 0.0000 0.0000 0.0000 28.5903
#
#
#
# Elastic Compliance Matrix: (Units=1/GPa)
#
#
# Indices 1 2 3 4 5 6 
#
# 1 0.011743 -0.001872 -0.004103 0.000000 0.000000 0.000000
# 2 -0.001872 0.010438 -0.003936 0.000000 0.000000 0.000000
# 3 -0.004103 -0.003936 0.010156 0.000000 0.000000 0.000000
# 4 0.000000 0.000000 0.000000 0.034860 0.000000 0.000000
# 5 0.000000 0.000000 0.000000 0.000000 0.058035 0.000000
# 6 0.000000 0.000000 0.000000 0.000000 0.000000 0.034977
#
#
# Mechanical properties :
#
#
# Convention : Reuss Voigt Hill
#
# Bulk Modulus (GPa) = 79.90621 82.93629 81.42125
# Shear Modulus (GPa) = 27.14399 29.45839 28.30119
#
# Velocity S-wave (km/s) = 3.64609 3.79835 3.72299
# Velocity P-wave (km/s) = 7.54055 7.73661 7.63921
#
# Compressibility (1/GPa) = 0.01251467
#
# Stress axis : x y z
#
# Youngs Moduli (GPa) = 85.15754 95.79927 98.46681
#
# Poissons Ratio (x) = 0.17936 0.40405
# Poissons Ratio (y) = 0.15944 0.38752
# Poissons Ratio (z) = 0.34944 0.37702
#
# Static dielectric constant tensor:
#      x y z
#    x 3.684350 0.000000 0.000000 
#    y 0.000000 3.909760 0.000000 
#    z 0.000000 0.000000 3.504880 
# 
# 
# High freq. dielectric constant tensor:
#      x y z
#    x 1.803710 0.000000 0.000000 
#    y 0.000000 1.806460 0.000000 
#    z 0.000000 0.000000 1.773950 
# 
# From -- ./inp_files/26321.got.cif
#   From: 2010.03.12/outbox.cif.g09.slc.cpg/sg65_14_cif.got.tgz:26321.got - 2010.04.10 20:52:16.
