data_PCOD8274655
_publ_section_title
;
Structure prediction by ZEFSAII (Michael W. Deem and Ramdas Pophale) SiO2 
 PCOD8274655
Probable space group: C M M M
;
_chemical_formula_sum "Si O2"
_cell_formula_units_Z 72
_cell_length_a 27.169319
_cell_length_b 9.205214
_cell_length_c 16.055097
_cell_angle_alpha 90.000000
_cell_angle_beta 90.000000
_cell_angle_gamma 90.000000
_cell_volume 4015.370056
_symmetry_space_group_name_H-M "C M M M"
_symmetry_group_IT_number 65
_symmetry_cell_setting 'orthorhombic'
loop_
_space_group_symop_operation_xyz
x,y,z
-x,-y,z
x,-y,-z
-x,y,-z
-x,-y,-z
x,y,-z
-x,y,z
x,-y,z
1/2+x,1/2+y,z
1/2-x,1/2-y,z
1/2+x,1/2-y,-z
1/2-x,1/2+y,-z
1/2-x,1/2-y,-z
1/2+x,1/2+y,-z
1/2-x,1/2+y,z
1/2+x,1/2-y,z
loop_
_atom_site_type_symbol
_atom_site_label
_atom_site_fract_x
_atom_site_fract_y
_atom_site_fract_z
Si Si1 0.798417 0.169188 0.243526
Si Si2 0.399143 0.331608 0.155416
Si Si3 0.056729 0.327814 0.000000
Si Si4 0.053611 0.828190 0.672387
Si Si5 0.349240 0.326757 0.408330
O O1 0.750000 0.250000 0.211063
O O2 0.842413 0.200056 0.179101
O O3 0.812430 0.228599 0.336299
O O4 0.786657 0.000000 0.247999
O O5 0.406032 0.500000 0.131009
O O6 0.433446 0.288419 0.232813
O O7 0.414821 0.231245 0.079848
O O8 0.059965 0.500000 0.000000
O O9 0.000000 0.274877 0.000000
O O10 0.095617 0.766665 0.610594
O O11 0.000000 0.761210 0.649978
O O12 0.051909 0.000000 0.663190
O O13 0.332612 0.271146 0.500000
O O14 0.350763 0.500000 0.404868
#
# Coordination Sequence:
#
# PCOD8274655 Si02
#       5
#    16  16   8  16  16
#     4   9  18  32  50  71  94 124 162 200 239 283
#     4   9  18  33  51  70  94 126 163 197 231 279
#     4  11  23  35  50  77 106 125 148 187 232 277
#     4   8  13  22  39  63  89 120 158 194 229 274
#     4   8  14  24  38  61  94 125 154 193 236 277
#
# _framework density 17.931099
#
# number of rings (size 3 to 8) (size 9 to 14) (size 15 to 20)
#    0.000    3.222    0.000    3.667    0.000    3.556 
#    0.000    2.778    0.000    0.000    0.000    0.000 
#    0.000    0.000    0.000   23.556    0.000   17.778 
#
# Total GULP energy -446130.996143 kJ/mol
# GULP energy per Si atom -12392.527671 kJ/mol
# Density = 1.789029 g / cm^3
# Si number density = 17.931099 Si / 1000 Ang^3
#
#
#
# Elastic Constant Matrix: (Units=GPa)
#
#
# Indices 1 2 3 4 5 6 
#
# 1 110.0302 32.5556 31.8448 0.0000 0.0000 0.0000
# 2 32.5556 35.4597 31.4970 0.0000 0.0000 0.0000
# 3 31.8448 31.4970 88.5068 0.0000 0.0000 0.0000
# 4 0.0000 0.0000 0.0000 9.5649 0.0000 0.0000
# 5 0.0000 0.0000 0.0000 0.0000 15.1919 0.0000
# 6 0.0000 0.0000 0.0000 0.0000 0.0000 22.9920
#
#
#
# Elastic Compliance Matrix: (Units=1/GPa)
#
#
# Indices 1 2 3 4 5 6 
#
# 1 0.012500 -0.010939 -0.000605 0.000000 0.000000 0.000000
# 2 -0.010939 0.050809 -0.014145 0.000000 0.000000 0.000000
# 3 -0.000605 -0.014145 0.016550 0.000000 0.000000 0.000000
# 4 0.000000 0.000000 0.000000 0.104549 0.000000 0.000000
# 5 0.000000 0.000000 0.000000 0.000000 0.065825 0.000000
# 6 0.000000 0.000000 0.000000 0.000000 0.000000 0.043493
#
#
# Mechanical properties :
#
#
# Convention : Reuss Voigt Hill
#
# Bulk Modulus (GPa) = 35.11175 47.31017 41.21096
# Shear Modulus (GPa) = 14.10046 18.75639 16.42842
#
# Velocity S-wave (km/s) = 2.80727 3.23774 3.03016
# Velocity P-wave (km/s) = 5.48923 6.35759 5.93930
#
# Compressibility (1/GPa) = 0.02848049
#
# Stress axis : x y z
#
# Youngs Moduli (GPa) = 79.99928 19.68149 60.42284
#
# Poissons Ratio (x) = 0.21530 0.03653
# Poissons Ratio (y) = 0.87514 0.85471
# Poissons Ratio (z) = 0.04836 0.27840
#
# Static dielectric constant tensor:
#      x y z
#    x 3.563560 0.000000 0.000000 
#    y 0.000000 2.769710 0.000000 
#    z 0.000000 0.000000 3.350520 
# 
# 
# High freq. dielectric constant tensor:
#      x y z
#    x 1.702780 0.000000 0.000000 
#    y 0.000000 1.638160 0.000000 
#    z 0.000000 0.000000 1.690120 
# 
# From -- ./inp_files/37013.got.cif
#   From: 2010.03.12/outbox.cif.g09.slc.cpg/sg65_19_cif.got.tgz:37013.got - 2010.04.10 20:52:16.
