data_PCOD8274351
_publ_section_title
;
Structure prediction by ZEFSAII (Michael W. Deem and Ramdas Pophale) SiO2 
 PCOD8274351
Probable space group: C M M M
;
_chemical_formula_sum "Si O2"
_cell_formula_units_Z 80
_cell_length_a 14.487771
_cell_length_b 17.345773
_cell_length_c 16.471482
_cell_angle_alpha 90.000000
_cell_angle_beta 90.000000
_cell_angle_gamma 90.000000
_cell_volume 4139.309568
_symmetry_space_group_name_H-M "C M M M"
_symmetry_group_IT_number 65
_symmetry_cell_setting 'orthorhombic'
loop_
_space_group_symop_operation_xyz
x,y,z
-x,-y,z
x,-y,-z
-x,y,-z
-x,-y,-z
x,y,-z
-x,y,z
x,-y,z
1/2+x,1/2+y,z
1/2-x,1/2-y,z
1/2+x,1/2-y,-z
1/2-x,1/2+y,-z
1/2-x,1/2-y,-z
1/2+x,1/2+y,-z
1/2-x,1/2+y,z
1/2+x,1/2-y,z
loop_
_atom_site_type_symbol
_atom_site_label
_atom_site_fract_x
_atom_site_fract_y
_atom_site_fract_z
Si Si1 0.896159 0.908360 0.591682
Si Si2 0.128838 0.912267 0.000000
Si Si3 0.606498 0.166575 0.171017
Si Si4 0.741647 0.588383 0.273199
Si Si5 0.846358 0.411691 0.000000
Si Si6 0.099660 0.158544 0.164083
O O1 0.873131 0.882499 0.500000
O O2 0.813703 0.874872 0.649145
O O3 0.000000 0.878802 0.615216
O O4 0.895702 0.000000 0.599691
O O5 0.237897 0.906684 0.000000
O O6 0.084437 0.866149 0.072904
O O7 0.094669 0.000000 0.000000
O O8 0.500000 0.159356 0.196124
O O9 0.664100 0.129555 0.245696
O O10 0.618411 0.128277 0.082504
O O11 0.639627 0.254969 0.167124
O O12 0.766700 0.500000 0.289169
O O13 0.669939 0.596349 0.199930
O O14 0.881425 0.500000 0.000000
O O15 0.000000 0.154583 0.208699
#
# Coordination Sequence:
#
# PCOD8274351 Si02
#       6
#    16   8  16  16   8  16
#     4   8  15  30  54  85 117 143 169 209 266 331
#     4  11  22  35  54  81 108 137 176 233 291 333
#     4  11  24  39  55  75 104 148 194 231 270 316
#     4  11  21  34  56  84 110 138 176 224 273 317
#     4  11  22  37  56  77 100 137 190 241 279 309
#     4  11  23  37  54  77 108 145 179 217 275 338
#
# _framework density 19.326893999999999
#
# number of rings (size 3 to 8) (size 9 to 14) (size 15 to 20)
#    0.000    1.600    2.000    4.200    0.000    7.200 
#    0.000    0.000    0.000    3.000    0.000    5.600 
#    0.000    0.000    0.000    0.000    0.000    0.000 
#
# Total GULP energy -495650.471613 kJ/mol
# GULP energy per Si atom -12391.261790 kJ/mol
# Density = 1.928291 g / cm^3
# Si number density = 19.326894 Si / 1000 Ang^3
#
#
#
# Elastic Constant Matrix: (Units=GPa)
#
#
# Indices 1 2 3 4 5 6 
#
# 1 117.8914 28.8992 48.6414 0.0000 0.0000 0.0000
# 2 28.8992 74.2012 19.4136 0.0000 0.0000 0.0000
# 3 48.6414 19.4136 113.4175 0.0000 0.0000 0.0000
# 4 0.0000 0.0000 0.0000 4.1074 0.0000 0.0000
# 5 0.0000 0.0000 0.0000 0.0000 24.8277 0.0000
# 6 0.0000 0.0000 0.0000 0.0000 0.0000 35.3864
#
#
#
# Elastic Compliance Matrix: (Units=1/GPa)
#
#
# Indices 1 2 3 4 5 6 
#
# 1 0.010982 -0.003188 -0.004164 0.000000 0.000000 0.000000
# 2 -0.003188 0.015034 -0.001206 0.000000 0.000000 0.000000
# 3 -0.004164 -0.001206 0.010809 0.000000 0.000000 0.000000
# 4 0.000000 0.000000 0.000000 0.243464 0.000000 0.000000
# 5 0.000000 0.000000 0.000000 0.000000 0.040278 0.000000
# 6 0.000000 0.000000 0.000000 0.000000 0.000000 0.028259
#
#
# Mechanical properties :
#
#
# Convention : Reuss Voigt Hill
#
# Bulk Modulus (GPa) = 50.73816 55.49094 53.11455
# Shear Modulus (GPa) = 13.42237 26.76801 20.09519
#
# Velocity S-wave (km/s) = 2.63818 3.72561 3.22802
# Velocity P-wave (km/s) = 5.96570 6.87612 6.43703
#
# Compressibility (1/GPa) = 0.01970903
#
# Stress axis : x y z
#
# Youngs Moduli (GPa) = 91.05891 66.51609 92.51245
#
# Poissons Ratio (x) = 0.21203 0.38524
# Poissons Ratio (y) = 0.29026 0.11160
# Poissons Ratio (z) = 0.37919 0.08024
#
# Static dielectric constant tensor:
#      x y z
#    x 3.669760 0.000000 0.000000 
#    y 0.000000 3.402320 0.000000 
#    z 0.000000 0.000000 3.672450 
# 
# 
# High freq. dielectric constant tensor:
#      x y z
#    x 1.764720 0.000000 0.000000 
#    y 0.000000 1.733030 0.000000 
#    z 0.000000 0.000000 1.736140 
# 
# From -- ./inp_files/52901.got.cif
#   From: 2010.03.12/outbox.cif.g09.slc.cpg/sg65_27_cif.got.tgz:52901.got - 2010.04.10 20:52:16.
