data_PCOD8274313
_publ_section_title
;
Structure prediction by ZEFSAII (Michael W. Deem and Ramdas Pophale) SiO2 
 PCOD8274313
Probable space group: C M M M
;
_chemical_formula_sum "Si O2"
_cell_formula_units_Z 104
_cell_length_a 19.706793
_cell_length_b 8.236489
_cell_length_c 35.120892
_cell_angle_alpha 90.000000
_cell_angle_beta 90.000000
_cell_angle_gamma 90.000000
_cell_volume 5700.639991
_symmetry_space_group_name_H-M "C M M M"
_symmetry_group_IT_number 65
_symmetry_cell_setting 'orthorhombic'
loop_
_space_group_symop_operation_xyz
x,y,z
-x,-y,z
x,-y,-z
-x,y,-z
-x,-y,-z
x,y,-z
-x,y,z
x,-y,z
1/2+x,1/2+y,z
1/2-x,1/2-y,z
1/2+x,1/2-y,-z
1/2-x,1/2+y,-z
1/2-x,1/2-y,-z
1/2+x,1/2+y,-z
1/2-x,1/2+y,z
1/2+x,1/2-y,z
loop_
_atom_site_type_symbol
_atom_site_label
_atom_site_fract_x
_atom_site_fract_y
_atom_site_fract_z
Si Si1 0.080242 0.818317 0.912755
Si Si2 0.922522 0.311429 0.456337
Si Si3 0.422051 0.809877 0.831508
Si Si4 0.674498 0.807394 0.765156
Si Si5 0.080670 0.500000 0.043632
Si Si6 0.675440 0.684752 0.394418
Si Si7 0.324932 0.810860 0.682260
O O1 0.100097 0.788073 0.868957
O O2 0.110127 0.667519 0.937676
O O3 0.000000 0.816964 0.917711
O O4 0.107479 0.000000 0.924766
O O5 0.905522 0.270602 0.500000
O O6 0.910192 0.500000 0.447926
O O7 0.872957 0.207388 0.430353
O O8 0.000000 0.263830 0.447257
O O9 0.500000 0.776486 0.820953
O O10 0.377214 0.740747 0.796784
O O11 0.409871 0.000000 0.839370
O O12 0.750000 0.750000 0.775070
O O13 0.650796 0.739199 0.723301
O O14 0.672879 0.000000 0.765584
O O15 0.000000 0.500000 0.048499
O O16 0.103600 0.500000 0.000000
O O17 0.685273 0.500000 0.384689
O O18 0.750000 0.750000 0.404448
O O19 0.637167 0.759627 0.356691
O O20 0.250000 0.750000 0.673888
O O21 0.328058 0.000000 0.686954
#
# Coordination Sequence:
#
# PCOD8274313 Si02
#       7
#    16  16  16  16   8  16  16
#     4   9  16  26  41  62  88 123 162 197 243 297
#     4   9  19  37  58  77  99 128 160 196 243 296
#     4   9  16  29  47  65  91 128 164 198 241 294
#     4   9  18  30  47  70  95 126 161 204 248 289
#     4   9  16  26  40  60  90 126 160 200 247 293
#     4  11  21  33  52  76 101 130 164 203 243 289
#     4   9  16  29  47  68  95 127 164 199 244 294
#
# _framework density 18.243566000000001
#
# number of rings (size 3 to 8) (size 9 to 14) (size 15 to 20)
#    0.000    2.692    0.769    3.231    0.000    2.462 
#    0.000    3.077    0.000    2.769    0.000    0.000 
#    0.000    0.615    0.308    0.000    0.000    0.000 
#
# Total GULP energy -644238.962917 kJ/mol
# GULP energy per Si atom -12389.210825 kJ/mol
# Density = 1.820204 g / cm^3
# Si number density = 18.243566 Si / 1000 Ang^3
#
#
#
# Elastic Constant Matrix: (Units=GPa)
#
#
# Indices 1 2 3 4 5 6 
#
# 1 48.3480 19.8743 47.6406 0.0000 0.0000 0.0000
# 2 19.8743 78.4695 49.7628 0.0000 0.0000 0.0000
# 3 47.6406 49.7628 133.0053 0.0000 0.0000 0.0000
# 4 0.0000 0.0000 0.0000 22.5394 0.0000 0.0000
# 5 0.0000 0.0000 0.0000 0.0000 19.1838 0.0000
# 6 0.0000 0.0000 0.0000 0.0000 0.0000 17.6561
#
#
#
# Elastic Compliance Matrix: (Units=1/GPa)
#
#
# Indices 1 2 3 4 5 6 
#
# 1 0.032037 -0.001097 -0.011065 0.000000 0.000000 0.000000
# 2 -0.001097 0.016746 -0.005872 0.000000 0.000000 0.000000
# 3 -0.011065 -0.005872 0.013679 0.000000 0.000000 0.000000
# 4 0.000000 0.000000 0.000000 0.044367 0.000000 0.000000
# 5 0.000000 0.000000 0.000000 0.000000 0.052127 0.000000
# 6 0.000000 0.000000 0.000000 0.000000 0.000000 0.056638
#
#
# Mechanical properties :
#
#
# Convention : Reuss Voigt Hill
#
# Bulk Modulus (GPa) = 37.88856 54.93093 46.40974
# Shear Modulus (GPa) = 19.19683 21.37888 20.28785
#
# Velocity S-wave (km/s) = 3.24736 3.42696 3.33837
# Velocity P-wave (km/s) = 5.90540 6.77007 6.35246
#
# Compressibility (1/GPa) = 0.02639319
#
# Stress axis : x y z
#
# Youngs Moduli (GPa) = 31.21362 59.71683 73.10594
#
# Poissons Ratio (x) = 0.06553 0.80890
# Poissons Ratio (y) = 0.03425 0.42929
# Poissons Ratio (z) = 0.34537 0.35067
#
# Static dielectric constant tensor:
#      x y z
#    x 2.590170 0.000000 0.000000 
#    y 0.000000 3.464330 0.000000 
#    z 0.000000 0.000000 3.699200 
# 
# 
# High freq. dielectric constant tensor:
#      x y z
#    x 1.647470 0.000000 0.000000 
#    y 0.000000 1.711480 0.000000 
#    z 0.000000 0.000000 1.722100 
# 
# From -- ./inp_files/78363.got.cif
#   From: 2010.03.12/outbox.cif.g09.slc.cpg/sg65_40_cif.got.tgz:78363.got - 2010.04.10 20:52:16.
