data_PCOD8274637
_publ_section_title
;
Structure prediction by ZEFSAII (Michael W. Deem and Ramdas Pophale) SiO2 
 PCOD8274637
Probable space group: C M M M
;
_chemical_formula_sum "Si O2"
_cell_formula_units_Z 88
_cell_length_a 7.902886
_cell_length_b 18.356275
_cell_length_c 29.803856
_cell_angle_alpha 90.000000
_cell_angle_beta 90.000000
_cell_angle_gamma 90.000000
_cell_volume 4323.572332
_symmetry_space_group_name_H-M "C M M M"
_symmetry_group_IT_number 65
_symmetry_cell_setting 'orthorhombic'
loop_
_space_group_symop_operation_xyz
x,y,z
-x,-y,z
x,-y,-z
-x,y,-z
-x,-y,-z
x,y,-z
-x,y,z
x,-y,z
1/2+x,1/2+y,z
1/2-x,1/2-y,z
1/2+x,1/2-y,-z
1/2-x,1/2+y,-z
1/2-x,1/2-y,-z
1/2+x,1/2+y,-z
1/2-x,1/2+y,z
1/2+x,1/2-y,z
loop_
_atom_site_type_symbol
_atom_site_label
_atom_site_fract_x
_atom_site_fract_y
_atom_site_fract_z
Si Si1 0.300540 0.419611 0.810309
Si Si2 0.701862 0.665978 0.102289
Si Si3 0.308439 0.585862 0.711824
Si Si4 0.804762 0.920624 0.451361
Si Si5 0.188198 0.670659 0.370573
Si Si6 0.500000 0.915793 0.947082
O O1 0.500000 0.427169 0.806209
O O2 0.226930 0.500000 0.822922
O O3 0.250299 0.360785 0.847723
O O4 0.234027 0.394191 0.761341
O O5 0.500000 0.653398 0.091541
O O6 0.750000 0.750000 0.098112
O O7 0.824779 0.621421 0.069254
O O8 0.500000 0.614691 0.706250
O O9 0.301851 0.500000 0.704987
O O10 0.195264 0.622605 0.674169
O O11 0.728724 0.894796 0.500000
O O12 0.787653 0.862097 0.412280
O O13 0.000000 0.932544 0.458274
O O14 0.724722 0.000000 0.438190
O O15 0.250000 0.750000 0.357509
O O16 0.000000 0.674404 0.388197
O O17 0.500000 0.000000 0.931855
O O18 0.500000 0.908007 0.000000
#
# Coordination Sequence:
#
# PCOD8274637 Si02
#       6
#    16  16  16  16  16   8
#     4   8  16  33  60  89 119 158 203 249 300 363
#     4  11  22  41  65  97 134 173 216 266 327 387
#     4   9  18  36  60  85 115 153 193 237 292 350
#     4   9  19  38  63  86 107 137 177 222 278 345
#     4  12  25  38  53  77 112 149 190 235 286 342
#     4  11  26  46  68  98 131 169 223 275 325 389
#
# _framework density 20.353539999999999
#
# number of rings (size 3 to 8) (size 9 to 14) (size 15 to 20)
#    0.000    2.091    0.909    4.364    0.000    6.182 
#    1.636    3.636    0.000    0.000    0.000    0.000 
#    0.000    0.000    0.000    0.000    0.000    0.000 
#
# Total GULP energy -545231.539809 kJ/mol
# GULP energy per Si atom -12391.625905 kJ/mol
# Density = 2.030721 g / cm^3
# Si number density = 20.353540 Si / 1000 Ang^3
#
#
#
# Elastic Constant Matrix: (Units=GPa)
#
#
# Indices 1 2 3 4 5 6 
#
# 1 80.3917 34.5661 33.9829 0.0000 0.0000 0.0000
# 2 34.5661 108.3668 65.8324 0.0000 0.0000 0.0000
# 3 33.9829 65.8324 133.5494 0.0000 0.0000 0.0000
# 4 0.0000 0.0000 0.0000 11.9932 0.0000 0.0000
# 5 0.0000 0.0000 0.0000 0.0000 -41.9300 0.0000
# 6 0.0000 0.0000 0.0000 0.0000 0.0000 18.8021
#
#
#
# Elastic Compliance Matrix: (Units=1/GPa)
#
#
# Indices 1 2 3 4 5 6 
#
# 1 0.014801 -0.003473 -0.002054 0.000000 0.000000 0.000000
# 2 -0.003473 0.013988 -0.006011 0.000000 0.000000 0.000000
# 3 -0.002054 -0.006011 0.010974 0.000000 0.000000 0.000000
# 4 0.000000 0.000000 0.000000 0.083381 0.000000 0.000000
# 5 0.000000 0.000000 0.000000 0.000000 -0.023849 0.000000
# 6 0.000000 0.000000 0.000000 0.000000 0.000000 0.053185
#
#
# Mechanical properties :
#
#
# Convention : Reuss Voigt Hill
#
# Bulk Modulus (GPa) = 59.93424 65.67450 62.80437
# Shear Modulus (GPa) = 27.60632 10.30149 18.95390
#
# Velocity S-wave (km/s) = 3.68685 2.25217 3.05492
# Velocity P-wave (km/s) = 6.90176 6.25299 6.58537
#
# Compressibility (1/GPa) = 0.01668495
#
# Stress axis : x y z
#
# Youngs Moduli (GPa) = 67.56402 71.49176 91.12608
#
# Poissons Ratio (x) = 0.24830 0.18718
# Poissons Ratio (y) = 0.23466 0.54779
# Poissons Ratio (z) = 0.13878 0.42976
#
# Static dielectric constant tensor:
#      x y z
#    x 3.613070 0.000000 0.000000 
#    y 0.000000 3.615290 0.000000 
#    z 0.000000 0.000000 3.824140 
# 
# 
# High freq. dielectric constant tensor:
#      x y z
#    x 1.782310 0.000000 0.000000 
#    y 0.000000 1.790490 0.000000 
#    z 0.000000 0.000000 1.803490 
# 
# From -- ./inp_files/76682.got.cif
#   From: 2010.03.12/outbox.cif.g09.slc.cpg/sg65_39_cif.got.tgz:76682.got - 2010.04.10 20:52:16.
