data_PCOD8274734
_publ_section_title
;
Structure prediction by ZEFSAII (Michael W. Deem and Ramdas Pophale) SiO2 
 PCOD8274734
Probable space group: C M M M
;
_chemical_formula_sum "Si O2"
_cell_formula_units_Z 64
_cell_length_a 9.011740
_cell_length_b 14.923204
_cell_length_c 23.923099
_cell_angle_alpha 90.000000
_cell_angle_beta 90.000000
_cell_angle_gamma 90.000000
_cell_volume 3217.274869
_symmetry_space_group_name_H-M "C M M M"
_symmetry_group_IT_number 65
_symmetry_cell_setting 'orthorhombic'
loop_
_space_group_symop_operation_xyz
x,y,z
-x,-y,z
x,-y,-z
-x,y,-z
-x,-y,-z
x,y,-z
-x,y,z
x,-y,z
1/2+x,1/2+y,z
1/2-x,1/2-y,z
1/2+x,1/2-y,-z
1/2-x,1/2+y,-z
1/2-x,1/2-y,-z
1/2+x,1/2+y,-z
1/2-x,1/2+y,z
1/2+x,1/2-y,z
loop_
_atom_site_type_symbol
_atom_site_label
_atom_site_fract_x
_atom_site_fract_y
_atom_site_fract_z
Si Si1 0.332028 0.106633 0.000000
Si Si2 0.325823 0.500000 0.587044
Si Si3 0.827564 0.152610 0.500000
Si Si4 0.328445 0.602356 0.108379
Si Si5 0.675397 0.660436 0.230761
Si Si6 0.676418 0.000000 0.704749
O O1 0.258244 0.146261 0.943822
O O2 0.500000 0.138204 0.000000
O O3 0.311721 0.000000 0.000000
O O4 0.500000 0.500000 0.602781
O O5 0.286420 0.591180 0.553463
O O6 0.221470 0.500000 0.640422
O O7 0.750000 0.250000 0.500000
O O8 0.000000 0.174441 0.500000
O O9 0.500000 0.608656 0.093458
O O10 0.279056 0.500000 0.117707
O O11 0.288731 0.653826 0.164972
O O12 0.500000 0.657659 0.242174
O O13 0.750000 0.750000 0.253724
O O14 0.754617 0.584490 0.265199
O O15 0.500000 0.000000 0.710687
#
# Coordination Sequence:
#
# PCOD8274734 Si02
#       6
#     8   8   8  16  16   8
#     4   9  17  27  46  79 110 138 180 236 292 352
#     4   9  20  40  62  88 125 167 205 244 295 353
#     4   9  19  37  64  94 126 165 203 245 297 344
#     4   9  17  33  55  77 106 146 188 234 296 363
#     4  11  23  41  62  87 117 155 201 252 307 363
#     4  12  25  41  63  91 123 164 207 252 302 354
#
# _framework density 19.892610999999999
#
# number of rings (size 3 to 8) (size 9 to 14) (size 15 to 20)
#    0.000    2.125    1.250    3.000    0.000    5.500 
#    0.000    4.375    0.000    0.000    0.000    0.000 
#    0.000    0.000    0.000    0.000    0.000    0.000 
#
# Total GULP energy -396749.815704 kJ/mol
# GULP energy per Si atom -12398.431741 kJ/mol
# Density = 1.984733 g / cm^3
# Si number density = 19.892611 Si / 1000 Ang^3
#
#
#
# Elastic Constant Matrix: (Units=GPa)
#
#
# Indices 1 2 3 4 5 6 
#
# 1 127.3077 70.9746 86.6452 0.0000 0.0000 0.0000
# 2 70.9746 144.3141 62.1108 0.0000 0.0000 0.0000
# 3 86.6452 62.1108 127.4275 0.0000 0.0000 0.0000
# 4 0.0000 0.0000 0.0000 24.9806 0.0000 0.0000
# 5 0.0000 0.0000 0.0000 0.0000 30.1681 0.0000
# 6 0.0000 0.0000 0.0000 0.0000 0.0000 32.4507
#
#
#
# Elastic Compliance Matrix: (Units=1/GPa)
#
#
# Indices 1 2 3 4 5 6 
#
# 1 0.016354 -0.004122 -0.009111 0.000000 0.000000 0.000000
# 2 -0.004122 0.009808 -0.001978 0.000000 0.000000 0.000000
# 3 -0.009111 -0.001978 0.015007 0.000000 0.000000 0.000000
# 4 0.000000 0.000000 0.000000 0.040031 0.000000 0.000000
# 5 0.000000 0.000000 0.000000 0.000000 0.033148 0.000000
# 6 0.000000 0.000000 0.000000 0.000000 0.000000 0.030816
#
#
# Mechanical properties :
#
#
# Convention : Reuss Voigt Hill
#
# Bulk Modulus (GPa) = 93.04749 93.16783 93.10766
# Shear Modulus (GPa) = 27.90717 29.47446 28.69082
#
# Velocity S-wave (km/s) = 3.74958 3.85343 3.80186
# Velocity P-wave (km/s) = 8.10076 8.16919 8.13505
#
# Compressibility (1/GPa) = 0.01074720
#
# Stress axis : x y z
#
# Youngs Moduli (GPa) = 61.14881 101.96126 66.63750
#
# Poissons Ratio (x) = 0.42025 0.60712
# Poissons Ratio (y) = 0.25203 0.13180
# Poissons Ratio (z) = 0.55711 0.20167
#
# Static dielectric constant tensor:
#      x y z
#    x 3.563040 0.000000 0.000000 
#    y 0.000000 3.504420 0.000000 
#    z 0.000000 0.000000 3.698700 
# 
# 
# High freq. dielectric constant tensor:
#      x y z
#    x 1.775130 0.000000 0.000000 
#    y 0.000000 1.774720 0.000000 
#    z 0.000000 0.000000 1.778080 
# 
# From -- ./inp_files/66883.got.cif
#   From: 2010.03.12/outbox.cif.g09.slc.cpg/sg65_34_cif.got.tgz:66883.got - 2010.04.10 20:52:16.
