data_PCOD8274872
_publ_section_title
;
Structure prediction by ZEFSAII (Michael W. Deem and Ramdas Pophale) SiO2 
 PCOD8274872
Probable space group: C M M M
;
_chemical_formula_sum "Si O2"
_cell_formula_units_Z 72
_cell_length_a 30.067982
_cell_length_b 9.406646
_cell_length_c 18.076527
_cell_angle_alpha 90.000000
_cell_angle_beta 90.000000
_cell_angle_gamma 90.000000
_cell_volume 5112.744337
_symmetry_space_group_name_H-M "C M M M"
_symmetry_group_IT_number 65
_symmetry_cell_setting 'orthorhombic'
loop_
_space_group_symop_operation_xyz
x,y,z
-x,-y,z
x,-y,-z
-x,y,-z
-x,-y,-z
x,y,-z
-x,y,z
x,-y,z
1/2+x,1/2+y,z
1/2-x,1/2-y,z
1/2+x,1/2-y,-z
1/2-x,1/2+y,-z
1/2-x,1/2-y,-z
1/2+x,1/2+y,-z
1/2-x,1/2+y,z
1/2+x,1/2-y,z
loop_
_atom_site_type_symbol
_atom_site_label
_atom_site_fract_x
_atom_site_fract_y
_atom_site_fract_z
Si Si1 0.053164 0.840520 0.341734
Si Si2 0.550442 0.165579 0.203200
Si Si3 0.622955 0.835407 0.914859
Si Si4 0.708365 0.661068 0.912023
Si Si5 0.951172 0.830878 0.500000
O O1 0.070608 0.741413 0.275741
O O2 0.072704 0.787155 0.422113
O O3 0.000000 0.835616 0.346715
O O4 0.069608 0.000000 0.324716
O O5 0.500000 0.216055 0.186815
O O6 0.579548 0.205980 0.131984
O O7 0.552161 0.000000 0.220092
O O8 0.663481 0.739131 0.886151
O O9 0.636394 0.000000 0.904199
O O10 0.611380 0.803057 0.000000
O O11 0.709341 0.500000 0.880791
O O12 0.750000 0.750000 0.879897
O O13 0.710888 0.658785 0.000000
O O14 0.000000 0.760438 0.500000
O O15 0.956039 0.000000 0.500000
#
# Coordination Sequence:
#
# PCOD8274872 Si02
#       5
#    16  16  16  16   8
#     4   8  13  22  36  51  67  90 120 152 186 224
#     4   9  17  27  37  51  73 100 130 163 194 220
#     4   9  17  28  40  53  71  98 131 162 190 221
#     4   9  16  26  41  59  76  92 113 146 189 234
#     4   7  10  18  33  51  67  85 114 149 182 221
#
# _framework density 14.082457
#
# number of rings (size 3 to 8) (size 9 to 14) (size 15 to 20)
#    0.000    3.444    0.000    2.000    0.000    4.000 
#    0.000    2.778    0.000    3.333    0.000    6.222 
#    0.000    0.000    0.000    1.000    0.000   13.000 
#
# Total GULP energy -446042.488661 kJ/mol
# GULP energy per Si atom -12390.069129 kJ/mol
# Density = 1.405041 g / cm^3
# Si number density = 14.082457 Si / 1000 Ang^3
#
#
#
# Elastic Constant Matrix: (Units=GPa)
#
#
# Indices 1 2 3 4 5 6 
#
# 1 65.0286 40.5934 43.6483 0.0000 0.0000 0.0000
# 2 40.5934 64.2141 40.5687 0.0000 0.0000 0.0000
# 3 43.6483 40.5687 89.4604 0.0000 0.0000 0.0000
# 4 0.0000 0.0000 0.0000 20.2120 0.0000 0.0000
# 5 0.0000 0.0000 0.0000 0.0000 1.2051 0.0000
# 6 0.0000 0.0000 0.0000 0.0000 0.0000 18.2327
#
#
#
# Elastic Compliance Matrix: (Units=1/GPa)
#
#
# Indices 1 2 3 4 5 6 
#
# 1 0.029163 -0.013239 -0.008225 0.000000 0.000000 0.000000
# 2 -0.013239 0.027836 -0.006164 0.000000 0.000000 0.000000
# 3 -0.008225 -0.006164 0.017986 0.000000 0.000000 0.000000
# 4 0.000000 0.000000 0.000000 0.049475 0.000000 0.000000
# 5 0.000000 0.000000 0.000000 0.000000 0.829778 0.000000
# 6 0.000000 0.000000 0.000000 0.000000 0.000000 0.054847
#
#
# Mechanical properties :
#
#
# Convention : Reuss Voigt Hill
#
# Bulk Modulus (GPa) = 50.68539 52.03597 51.36068
# Shear Modulus (GPa) = 4.66889 14.18948 9.42919
#
# Velocity S-wave (km/s) = 1.82280 3.17772 2.59041
# Velocity P-wave (km/s) = 6.36397 7.10598 6.74519
#
# Compressibility (1/GPa) = 0.01972955
#
# Stress axis : x y z
#
# Youngs Moduli (GPa) = 34.28984 35.92434 55.59773
#
# Poissons Ratio (x) = 0.47561 0.45730
# Poissons Ratio (y) = 0.45397 0.34269
# Poissons Ratio (z) = 0.28204 0.22143
#
# Static dielectric constant tensor:
#      x y z
#    x 2.525410 0.000000 0.000000 
#    y 0.000000 2.807840 0.000000 
#    z 0.000000 0.000000 2.878300 
# 
# 
# High freq. dielectric constant tensor:
#      x y z
#    x 1.493970 0.000000 0.000000 
#    y 0.000000 1.534970 0.000000 
#    z 0.000000 0.000000 1.521150 
# 
# From -- ./inp_files/49753.got.cif
#   From: 2010.03.12/outbox.cif.g09.slc.cpg/sg65_25_cif.got.tgz:49753.got - 2010.04.10 20:52:16.
