data_PCOD8274500
_publ_section_title
;
Structure prediction by ZEFSAII (Michael W. Deem and Ramdas Pophale) SiO2 
 PCOD8274500
Probable space group: C M M M
;
_chemical_formula_sum "Si O2"
_cell_formula_units_Z 96
_cell_length_a 27.301556
_cell_length_b 8.904110
_cell_length_c 24.223335
_cell_angle_alpha 90.000000
_cell_angle_beta 90.000000
_cell_angle_gamma 90.000000
_cell_volume 5888.597245
_symmetry_space_group_name_H-M "C M M M"
_symmetry_group_IT_number 65
_symmetry_cell_setting 'orthorhombic'
loop_
_space_group_symop_operation_xyz
x,y,z
-x,-y,z
x,-y,-z
-x,y,-z
-x,-y,-z
x,y,-z
-x,y,z
x,-y,z
1/2+x,1/2+y,z
1/2-x,1/2-y,z
1/2+x,1/2-y,-z
1/2-x,1/2+y,-z
1/2-x,1/2-y,-z
1/2+x,1/2+y,-z
1/2-x,1/2+y,z
1/2+x,1/2-y,z
loop_
_atom_site_type_symbol
_atom_site_label
_atom_site_fract_x
_atom_site_fract_y
_atom_site_fract_z
Si Si1 0.058144 0.330063 0.939909
Si Si2 0.053202 0.174834 0.615629
Si Si3 0.610726 0.675593 0.723543
Si Si4 0.055288 0.177297 0.831139
Si Si5 0.650838 0.677308 0.437260
Si Si6 0.699262 0.821822 0.664525
O O1 0.075820 0.500000 0.930733
O O2 0.078599 0.231164 0.889306
O O3 0.000000 0.320573 0.940293
O O4 0.077467 0.271896 0.000000
O O5 0.068560 0.205707 0.678619
O O6 0.095362 0.235758 0.574499
O O7 0.000000 0.252195 0.604537
O O8 0.047296 0.000000 0.604771
O O9 0.624842 0.500000 0.725120
O O10 0.589887 0.734882 0.781777
O O11 0.658612 0.770412 0.708437
O O12 0.000000 0.240986 0.823260
O O13 0.053657 0.000000 0.830747
O O14 0.665111 0.714699 0.500000
O O15 0.654539 0.500000 0.424386
O O16 0.687787 0.763730 0.397271
O O17 0.750000 0.750000 0.684312
O O18 0.703157 0.000000 0.663769
#
# Coordination Sequence:
#
# PCOD8274500 Si02
#       6
#    16  16  16  16  16  16
#     4   8  14  24  36  52  81 123 164 196 225 257
#     4   8  13  23  42  66  90 117 147 177 208 245
#     4   9  17  30  46  66  92 117 145 182 221 263
#     4   9  16  25  41  66  93 122 155 190 224 255
#     4   9  18  32  49  70  94 117 144 178 214 256
#     4  11  22  36  53  69  86 110 140 177 224 272
#
# _framework density 16.302695
#
# number of rings (size 3 to 8) (size 9 to 14) (size 15 to 20)
#    0.000    3.000    0.000    3.500    0.000    4.000 
#    0.000    3.333    0.000   12.000    0.000    4.667 
#    0.000    0.667    0.000    2.167    0.000    3.167 
#
# Total GULP energy -594873.480781 kJ/mol
# GULP energy per Si atom -12393.197516 kJ/mol
# Density = 1.626559 g / cm^3
# Si number density = 16.302695 Si / 1000 Ang^3
#
#
#
# Elastic Constant Matrix: (Units=GPa)
#
#
# Indices 1 2 3 4 5 6 
#
# 1 74.9003 29.4616 30.2353 0.0000 0.0000 0.0000
# 2 29.4616 54.2199 34.8810 0.0000 0.0000 0.0000
# 3 30.2353 34.8810 120.7500 0.0000 0.0000 0.0000
# 4 0.0000 0.0000 0.0000 24.0941 0.0000 0.0000
# 5 0.0000 0.0000 0.0000 0.0000 29.0302 0.0000
# 6 0.0000 0.0000 0.0000 0.0000 0.0000 17.5784
#
#
#
# Elastic Compliance Matrix: (Units=1/GPa)
#
#
# Indices 1 2 3 4 5 6 
#
# 1 0.017362 -0.008152 -0.001992 0.000000 0.000000 0.000000
# 2 -0.008152 0.026481 -0.005608 0.000000 0.000000 0.000000
# 3 -0.001992 -0.005608 0.010401 0.000000 0.000000 0.000000
# 4 0.000000 0.000000 0.000000 0.041504 0.000000 0.000000
# 5 0.000000 0.000000 0.000000 0.000000 0.034447 0.000000
# 6 0.000000 0.000000 0.000000 0.000000 0.000000 0.056888
#
#
# Mechanical properties :
#
#
# Convention : Reuss Voigt Hill
#
# Bulk Modulus (GPa) = 43.97989 48.78067 46.38028
# Shear Modulus (GPa) = 22.10751 24.49337 23.30044
#
# Velocity S-wave (km/s) = 3.68647 3.88030 3.78463
# Velocity P-wave (km/s) = 6.71980 7.07548 6.89993
#
# Compressibility (1/GPa) = 0.02273767
#
# Stress axis : x y z
#
# Youngs Moduli (GPa) = 57.59695 37.76280 96.14891
#
# Poissons Ratio (x) = 0.30785 0.19157
# Poissons Ratio (y) = 0.46955 0.53923
# Poissons Ratio (z) = 0.11476 0.21178
#
# Static dielectric constant tensor:
#      x y z
#    x 4.823160 0.000000 0.000000 
#    y 0.000000 2.861060 0.000000 
#    z 0.000000 0.000000 3.343830 
# 
# 
# High freq. dielectric constant tensor:
#      x y z
#    x 1.597670 0.000000 0.000000 
#    y 0.000000 1.604230 0.000000 
#    z 0.000000 0.000000 1.626790 
# 
# From -- ./inp_files/68021.got.cif
#   From: 2010.03.12/outbox.cif.g09.slc.cpg/sg65_35_cif.got.tgz:68021.got - 2010.04.10 20:52:16.
