data_PCOD8274754
_publ_section_title
;
Structure prediction by ZEFSAII (Michael W. Deem and Ramdas Pophale) SiO2 
 PCOD8274754
Probable space group: C M M M
;
_chemical_formula_sum "Si O2"
_cell_formula_units_Z 90
_cell_length_a 22.391431
_cell_length_b 18.216670
_cell_length_c 11.287235
_cell_angle_alpha 90.000000
_cell_angle_beta 90.000000
_cell_angle_gamma 90.000000
_cell_volume 4604.032787
_symmetry_space_group_name_H-M "C M M M"
_symmetry_group_IT_number 65
_symmetry_cell_setting 'orthorhombic'
loop_
_space_group_symop_operation_xyz
x,y,z
-x,-y,z
x,-y,-z
-x,y,-z
-x,-y,-z
x,y,-z
-x,y,z
x,-y,z
1/2+x,1/2+y,z
1/2-x,1/2-y,z
1/2+x,1/2-y,-z
1/2-x,1/2+y,-z
1/2-x,1/2-y,-z
1/2+x,1/2+y,-z
1/2-x,1/2+y,z
1/2+x,1/2-y,z
loop_
_atom_site_type_symbol
_atom_site_label
_atom_site_fract_x
_atom_site_fract_y
_atom_site_fract_z
Si Si1 0.500000 0.000000 0.500000
Si Si2 0.068640 0.327735 0.753107
Si Si3 0.592726 0.868250 0.500000
Si Si4 0.269757 0.086717 0.500000
Si Si5 0.611369 0.321844 0.140081
Si Si6 0.265181 0.333757 0.733013
Si Si7 0.500000 0.582295 0.140527
Si Si8 0.834781 0.417399 0.137138
O O1 0.448332 0.060778 0.500000
O O2 0.079008 0.316513 0.613151
O O3 0.093114 0.260450 0.828651
O O4 0.104486 0.400486 0.791785
O O5 0.000000 0.341775 0.783427
O O6 0.661458 0.891126 0.500000
O O7 0.236737 0.118934 0.614318
O O8 0.262191 0.000000 0.500000
O O9 0.670442 0.344750 0.209105
O O10 0.559002 0.375727 0.184793
O O11 0.622525 0.327918 0.000000
O O12 0.250000 0.250000 0.702188
O O13 0.217159 0.361763 0.827680
O O14 0.500000 0.500000 0.193059
O O15 0.500000 0.580599 0.000000
O O16 0.815058 0.500000 0.169444
O O17 0.848657 0.407902 0.000000
#
# Coordination Sequence:
#
# PCOD8274754 Si02
#       8
#     2  16   8   8  16  16   8  16
#     4  12  24  36  68  92 126 184 234 270 320 390
#     4  12  24  40  66  96 131 173 222 271 326 388
#     4  12  24  41  62  96 130 175 228 273 318 380
#     4  12  25  43  67  93 133 177 218 280 336 383
#     4  11  23  41  68  98 131 171 215 271 333 395
#     4  12  24  41  67  95 128 172 226 274 326 392
#     4   9  20  39  64  94 126 163 213 267 322 386
#     4  11  25  41  61  95 136 174 214 268 335 399
#
# _framework density 19.548079000000001
#
# number of rings (size 3 to 8) (size 9 to 14) (size 15 to 20)
#    0.000    0.622    5.778    1.867    1.244    4.267 
#    0.000    2.667    0.000    0.000    0.000    1.867 
#    0.000    0.000    0.000    0.000    0.000    0.000 
#
# Total GULP energy -557698.022691 kJ/mol
# GULP energy per Si atom -12393.289393 kJ/mol
# Density = 1.950359 g / cm^3
# Si number density = 19.548079 Si / 1000 Ang^3
#
#
#
# Elastic Constant Matrix: (Units=GPa)
#
#
# Indices 1 2 3 4 5 6 
#
# 1 171.6489 48.4831 55.4307 0.0000 0.0000 0.0000
# 2 48.4831 90.0471 18.8917 0.0000 0.0000 0.0000
# 3 55.4307 18.8917 84.6797 0.0000 0.0000 0.0000
# 4 0.0000 0.0000 0.0000 27.1737 0.0000 0.0000
# 5 0.0000 0.0000 0.0000 0.0000 19.8543 0.0000
# 6 0.0000 0.0000 0.0000 0.0000 0.0000 35.6981
#
#
#
# Elastic Compliance Matrix: (Units=1/GPa)
#
#
# Indices 1 2 3 4 5 6 
#
# 1 0.008322 -0.003502 -0.004666 0.000000 0.000000 0.000000
# 2 -0.003502 0.013124 -0.000636 0.000000 0.000000 0.000000
# 3 -0.004666 -0.000636 0.015005 0.000000 0.000000 0.000000
# 4 0.000000 0.000000 0.000000 0.036800 0.000000 0.000000
# 5 0.000000 0.000000 0.000000 0.000000 0.050367 0.000000
# 6 0.000000 0.000000 0.000000 0.000000 0.000000 0.028013
#
#
# Mechanical properties :
#
#
# Convention : Reuss Voigt Hill
#
# Bulk Modulus (GPa) = 53.06695 65.77632 59.42163
# Shear Modulus (GPa) = 28.48682 31.44989 29.96836
#
# Velocity S-wave (km/s) = 3.82156 4.01540 3.91968
# Velocity P-wave (km/s) = 6.83215 7.43098 7.13785
#
# Compressibility (1/GPa) = 0.01884412
#
# Stress axis : x y z
#
# Youngs Moduli (GPa) = 120.16714 76.19611 66.64234
#
# Poissons Ratio (x) = 0.26681 0.31096
# Poissons Ratio (y) = 0.42078 0.04237
# Poissons Ratio (z) = 0.56072 0.04844
#
# Static dielectric constant tensor:
#      x y z
#    x 3.832020 0.000000 0.000000 
#    y 0.000000 3.694190 0.000000 
#    z 0.000000 0.000000 3.647220 
# 
# 
# High freq. dielectric constant tensor:
#      x y z
#    x 1.777710 0.000000 0.000000 
#    y 0.000000 1.765400 0.000000 
#    z 0.000000 0.000000 1.758050 
# 
# From -- ./inp_files/28814.got.cif
#   From: 2010.03.12/outbox.cif.g09.slc.cpg/sg65_15_cif.got.tgz:28814.got - 2010.04.10 20:52:16.
