data_PCOD8274982
_publ_section_title
;
Structure prediction by ZEFSAII (Michael W. Deem and Ramdas Pophale) SiO2 
 PCOD8274982
Probable space group: C M M M
;
_chemical_formula_sum "Si O2"
_cell_formula_units_Z 80
_cell_length_a 27.334514
_cell_length_b 9.634904
_cell_length_c 18.563692
_cell_angle_alpha 90.000000
_cell_angle_beta 90.000000
_cell_angle_gamma 90.000000
_cell_volume 4889.034508
_symmetry_space_group_name_H-M "C M M M"
_symmetry_group_IT_number 65
_symmetry_cell_setting 'orthorhombic'
loop_
_space_group_symop_operation_xyz
x,y,z
-x,-y,z
x,-y,-z
-x,y,-z
-x,-y,-z
x,y,-z
-x,y,z
x,-y,z
1/2+x,1/2+y,z
1/2-x,1/2-y,z
1/2+x,1/2-y,-z
1/2-x,1/2+y,-z
1/2-x,1/2-y,-z
1/2+x,1/2+y,-z
1/2-x,1/2+y,z
1/2+x,1/2-y,z
loop_
_atom_site_type_symbol
_atom_site_label
_atom_site_fract_x
_atom_site_fract_y
_atom_site_fract_z
Si Si1 0.394581 0.660335 0.698874
Si Si2 0.555760 0.160384 0.583256
Si Si3 0.147744 0.834728 0.079496
Si Si4 0.296176 0.339043 0.218575
Si Si5 0.946241 0.164984 0.842641
O O1 0.403473 0.500000 0.679990
O O2 0.405978 0.749930 0.628677
O O3 0.338773 0.684694 0.723257
O O4 0.430581 0.710122 0.762528
O O5 0.567913 0.186603 0.500000
O O6 0.500000 0.205878 0.599911
O O7 0.563061 0.000000 0.603126
O O8 0.186589 0.785298 0.139406
O O9 0.093477 0.778459 0.099960
O O10 0.146200 0.000000 0.080475
O O11 0.162084 0.778238 0.000000
O O12 0.281313 0.500000 0.215089
O O13 0.250000 0.250000 0.243699
O O14 0.000000 0.226607 0.860372
O O15 0.947152 0.000000 0.846228
#
# Coordination Sequence:
#
# PCOD8274982 Si02
#       5
#    16  16  16  16  16
#     4   9  17  29  45  65  89 116 148 186 222 257
#     4   9  18  31  46  68  98 125 146 171 206 250
#     4   8  14  24  37  56  84 114 143 178 219 261
#     4   9  18  31  46  65  87 112 146 188 230 268
#     4   8  13  21  35  57  84 113 144 177 213 254
#
# _framework density 16.363149
#
# number of rings (size 3 to 8) (size 9 to 14) (size 15 to 20)
#    0.000    3.400    0.000    3.600    0.000    3.200 
#    0.000    3.000    0.000    0.600    0.000    0.000 
#    0.000    0.000    0.000   21.200    0.000   16.000 
#
# Total GULP energy -495748.531301 kJ/mol
# GULP energy per Si atom -12393.713283 kJ/mol
# Density = 1.632591 g / cm^3
# Si number density = 16.363149 Si / 1000 Ang^3
#
#
#
# Elastic Constant Matrix: (Units=GPa)
#
#
# Indices 1 2 3 4 5 6 
#
# 1 88.0675 37.4476 35.5374 0.0000 0.0000 0.0000
# 2 37.4476 43.9662 41.0489 0.0000 0.0000 0.0000
# 3 35.5374 41.0489 90.2188 0.0000 0.0000 0.0000
# 4 0.0000 0.0000 0.0000 14.1373 0.0000 0.0000
# 5 0.0000 0.0000 0.0000 0.0000 17.5017 0.0000
# 6 0.0000 0.0000 0.0000 0.0000 0.0000 24.0145
#
#
#
# Elastic Compliance Matrix: (Units=1/GPa)
#
#
# Indices 1 2 3 4 5 6 
#
# 1 0.017804 -0.014981 -0.000197 0.000000 0.000000 0.000000
# 2 -0.014981 0.052147 -0.017826 0.000000 0.000000 0.000000
# 3 -0.000197 -0.017826 0.019272 0.000000 0.000000 0.000000
# 4 0.000000 0.000000 0.000000 0.070735 0.000000 0.000000
# 5 0.000000 0.000000 0.000000 0.000000 0.057137 0.000000
# 6 0.000000 0.000000 0.000000 0.000000 0.000000 0.041642
#
#
# Mechanical properties :
#
#
# Convention : Reuss Voigt Hill
#
# Bulk Modulus (GPa) = 43.07168 50.03558 46.55363
# Shear Modulus (GPa) = 15.03832 18.34527 16.69180
#
# Velocity S-wave (km/s) = 3.03485 3.35197 3.19734
# Velocity P-wave (km/s) = 6.21771 6.75466 6.49174
#
# Compressibility (1/GPa) = 0.02321711
#
# Stress axis : x y z
#
# Youngs Moduli (GPa) = 56.16559 19.17643 51.88770
#
# Poissons Ratio (x) = 0.28728 0.01023
# Poissons Ratio (y) = 0.84140 0.92494
# Poissons Ratio (z) = 0.01107 0.34183
#
# Static dielectric constant tensor:
#      x y z
#    x 3.098640 0.000000 0.000000 
#    y 0.000000 2.635260 0.000000 
#    z 0.000000 0.000000 3.078880 
# 
# 
# High freq. dielectric constant tensor:
#      x y z
#    x 1.626520 0.000000 0.000000 
#    y 0.000000 1.585590 0.000000 
#    z 0.000000 0.000000 1.623570 
# 
# From -- ./inp_files/49858.got.cif
#   From: 2010.03.12/outbox.cif.g09.slc.cpg/sg65_25_cif.got.tgz:49858.got - 2010.04.10 20:52:16.
