data_PCOD8274766
_publ_section_title
;
Structure prediction by ZEFSAII (Michael W. Deem and Ramdas Pophale) SiO2 
 PCOD8274766
Probable space group: C M M M
;
_chemical_formula_sum "Si O2"
_cell_formula_units_Z 120
_cell_length_a 14.186429
_cell_length_b 25.423948
_cell_length_c 21.739896
_cell_angle_alpha 90.000000
_cell_angle_beta 90.000000
_cell_angle_gamma 90.000000
_cell_volume 7841.037712
_symmetry_space_group_name_H-M "C M M M"
_symmetry_group_IT_number 65
_symmetry_cell_setting 'orthorhombic'
loop_
_space_group_symop_operation_xyz
x,y,z
-x,-y,z
x,-y,-z
-x,y,-z
-x,-y,-z
x,y,-z
-x,y,z
x,-y,z
1/2+x,1/2+y,z
1/2-x,1/2-y,z
1/2+x,1/2-y,-z
1/2-x,1/2+y,-z
1/2-x,1/2-y,-z
1/2+x,1/2+y,-z
1/2-x,1/2+y,z
1/2+x,1/2-y,z
loop_
_atom_site_type_symbol
_atom_site_label
_atom_site_fract_x
_atom_site_fract_y
_atom_site_fract_z
Si Si1 0.104746 0.562542 0.681651
Si Si2 0.390834 0.437848 0.000000
Si Si3 0.277464 0.438241 0.761754
Si Si4 0.209290 0.118696 0.887902
Si Si5 0.104657 0.663941 0.927157
Si Si6 0.110227 0.217368 0.929843
Si Si7 0.776668 0.562760 0.568321
Si Si8 0.603837 0.437858 0.355267
O O1 0.102297 0.500000 0.679824
O O2 0.175018 0.580289 0.736253
O O3 0.142920 0.582916 0.615417
O O4 0.000000 0.585750 0.693133
O O5 0.340820 0.416070 0.060530
O O6 0.380866 0.500000 0.000000
O O7 0.500000 0.420042 0.000000
O O8 0.276365 0.500000 0.776288
O O9 0.306507 0.407596 0.822495
O O10 0.356291 0.423442 0.711761
O O11 0.321475 0.122492 0.899758
O O12 0.165547 0.177067 0.886376
O O13 0.133766 0.723401 0.908608
O O14 0.000000 0.650422 0.901771
O O15 0.104096 0.659777 0.000000
O O16 0.000000 0.206464 0.924532
O O17 0.144262 0.207720 0.000000
O O18 0.796043 0.585405 0.500000
O O19 0.776395 0.500000 0.567377
O O20 0.674653 0.583273 0.592038
O O21 0.500000 0.412412 0.363826
O O22 0.596924 0.500000 0.361053
#
# Coordination Sequence:
#
# PCOD8274766 Si02
#       8
#    16   8  16  16  16  16  16  16
#     4   8  14  26  40  51  70 102 137 172 206 237
#     4  11  24  36  44  61  87 109 134 174 218 255
#     4   9  19  30  39  55  77 106 146 181 201 230
#     4  12  19  30  49  64  81 110 139 169 213 259
#     4   9  18  32  49  69  87 101 123 162 211 265
#     4   9  17  30  48  69  88 102 124 161 209 265
#     4   8  13  20  32  54  77  93 121 168 214 250
#     4   8  14  25  37  48  69 103 138 169 200 233
#
# _framework density 15.304097000000001
#
# number of rings (size 3 to 8) (size 9 to 14) (size 15 to 20)
#    0.000    2.867    1.333    3.600    0.000    3.200 
#    0.000    4.000    0.000    1.600    0.000    0.000 
#    0.000    0.000    0.000    0.000    0.000   42.667 
#
# Total GULP energy -743640.474345 kJ/mol
# GULP energy per Si atom -12394.007906 kJ/mol
# Density = 1.526926 g / cm^3
# Si number density = 15.304097 Si / 1000 Ang^3
#
#
#
# Elastic Constant Matrix: (Units=GPa)
#
#
# Indices 1 2 3 4 5 6 
#
# 1 86.2105 15.8049 26.9499 0.0000 0.0000 0.0000
# 2 15.8049 25.7749 14.5002 0.0000 0.0000 0.0000
# 3 26.9499 14.5002 80.7257 0.0000 0.0000 0.0000
# 4 0.0000 0.0000 0.0000 2.2498 0.0000 0.0000
# 5 0.0000 0.0000 0.0000 0.0000 11.0515 0.0000
# 6 0.0000 0.0000 0.0000 0.0000 0.0000 15.8280
#
#
#
# Elastic Compliance Matrix: (Units=1/GPa)
#
#
# Indices 1 2 3 4 5 6 
#
# 1 0.013884 -0.006570 -0.003455 0.000000 0.000000 0.000000
# 2 -0.006570 0.046268 -0.006117 0.000000 0.000000 0.000000
# 3 -0.003455 -0.006117 0.014640 0.000000 0.000000 0.000000
# 4 0.000000 0.000000 0.000000 0.444484 0.000000 0.000000
# 5 0.000000 0.000000 0.000000 0.000000 0.090485 0.000000
# 6 0.000000 0.000000 0.000000 0.000000 0.000000 0.063179
#
#
# Mechanical properties :
#
#
# Convention : Reuss Voigt Hill
#
# Bulk Modulus (GPa) = 23.52559 34.13567 28.83063
# Shear Modulus (GPa) = 6.95029 14.85626 10.90328
#
# Velocity S-wave (km/s) = 2.13338 3.11905 2.67206
# Velocity P-wave (km/s) = 4.63399 5.94345 5.32909
#
# Compressibility (1/GPa) = 0.04250691
#
# Stress axis : x y z
#
# Youngs Moduli (GPa) = 72.02524 21.61342 68.30650
#
# Poissons Ratio (x) = 0.14200 0.23600
# Poissons Ratio (y) = 0.47320 0.41786
# Poissons Ratio (z) = 0.24885 0.13222
#
# Static dielectric constant tensor:
#      x y z
#    x 3.501950 0.000000 0.000000 
#    y 0.000000 2.517640 0.000000 
#    z 0.000000 0.000000 2.845460 
# 
# 
# High freq. dielectric constant tensor:
#      x y z
#    x 1.606740 0.000000 0.000000 
#    y 0.000000 1.527050 0.000000 
#    z 0.000000 0.000000 1.570060 
# 
# From -- ./inp_files/63132.got.cif
#   From: 2010.03.12/outbox.cif.g09.slc.cpg/sg65_32_cif.got.tgz:63132.got - 2010.04.10 20:52:16.
