data_PCOD8274194
_publ_section_title
;
Structure prediction by ZEFSAII (Michael W. Deem and Ramdas Pophale) SiO2 
 PCOD8274194
Probable space group: C M M M
;
_chemical_formula_sum "Si O2"
_cell_formula_units_Z 52
_cell_length_a 20.299289
_cell_length_b 13.072653
_cell_length_c 11.034743
_cell_angle_alpha 90.000000
_cell_angle_beta 90.000000
_cell_angle_gamma 90.000000
_cell_volume 2928.240769
_symmetry_space_group_name_H-M "C M M M"
_symmetry_group_IT_number 65
_symmetry_cell_setting 'orthorhombic'
loop_
_space_group_symop_operation_xyz
x,y,z
-x,-y,z
x,-y,-z
-x,y,-z
-x,-y,-z
x,y,-z
-x,y,z
x,-y,z
1/2+x,1/2+y,z
1/2-x,1/2-y,z
1/2+x,1/2-y,-z
1/2-x,1/2+y,-z
1/2-x,1/2-y,-z
1/2+x,1/2+y,-z
1/2-x,1/2+y,z
1/2+x,1/2-y,z
loop_
_atom_site_type_symbol
_atom_site_label
_atom_site_fract_x
_atom_site_fract_y
_atom_site_fract_z
Si Si1 0.162270 0.179232 0.356941
Si Si2 0.738130 0.134097 0.000000
Si Si3 0.803371 0.388115 0.737899
Si Si4 0.423043 0.500000 0.742401
Si Si5 0.138828 0.000000 0.000000
O O1 0.167060 0.187167 0.500000
O O2 0.149779 0.294796 0.305348
O O3 0.229571 0.133794 0.305682
O O4 0.104249 0.103318 0.318961
O O5 0.750000 0.250000 0.000000
O O6 0.696837 0.100579 0.883097
O O7 0.813064 0.096162 0.000000
O O8 0.826288 0.500000 0.686579
O O9 0.500000 0.500000 0.719078
O O10 0.408289 0.500000 0.884399
#
# Coordination Sequence:
#
# PCOD8274194 Si02
#       5
#    16   8  16   8   4
#     4  11  22  34  51  79 111 149 188 227 279 335
#     4  12  16  29  55  79 117 146 173 227 285 339
#     4  11  19  32  53  83 114 146 177 228 288 343
#     4  12  24  40  59  79 110 150 196 241 279 330
#     4  12  19  38  52  84 114 138 185 224 282 338
#
# _framework density 17.758102000000001
#
# number of rings (size 3 to 8) (size 9 to 14) (size 15 to 20)
#    0.000    0.615    9.231    2.538    0.000    3.077 
#    0.000    0.000    0.000    0.923    0.000    2.154 
#    0.000    7.385    0.000    0.000    0.000    0.000 
#
# Total GULP energy -322237.814191 kJ/mol
# GULP energy per Si atom -12393.762084 kJ/mol
# Density = 1.771768 g / cm^3
# Si number density = 17.758102 Si / 1000 Ang^3
#
#
#
# Elastic Constant Matrix: (Units=GPa)
#
#
# Indices 1 2 3 4 5 6 
#
# 1 66.5805 39.2969 19.3901 0.0000 0.0000 0.0000
# 2 39.2969 200.3657 34.3891 0.0000 0.0000 0.0000
# 3 19.3901 34.3891 136.6385 0.0000 0.0000 0.0000
# 4 0.0000 0.0000 0.0000 19.5636 0.0000 0.0000
# 5 0.0000 0.0000 0.0000 0.0000 4.0817 0.0000
# 6 0.0000 0.0000 0.0000 0.0000 0.0000 19.7248
#
#
#
# Elastic Compliance Matrix: (Units=1/GPa)
#
#
# Indices 1 2 3 4 5 6 
#
# 1 0.017346 -0.003114 -0.001678 0.000000 0.000000 0.000000
# 2 -0.003114 0.005775 -0.001012 0.000000 0.000000 0.000000
# 3 -0.001678 -0.001012 0.007811 0.000000 0.000000 0.000000
# 4 0.000000 0.000000 0.000000 0.051115 0.000000 0.000000
# 5 0.000000 0.000000 0.000000 0.000000 0.244996 0.000000
# 6 0.000000 0.000000 0.000000 0.000000 0.000000 0.050697
#
#
# Mechanical properties :
#
#
# Convention : Reuss Voigt Hill
#
# Bulk Modulus (GPa) = 51.74475 65.52632 58.63554
# Shear Modulus (GPa) = 12.63294 29.37459 21.00376
#
# Velocity S-wave (km/s) = 2.67008 4.07154 3.44287
# Velocity P-wave (km/s) = 6.22155 7.68653 6.99251
#
# Compressibility (1/GPa) = 0.01932563
#
# Stress axis : x y z
#
# Youngs Moduli (GPa) = 57.65023 173.15294 128.02006
#
# Poissons Ratio (x) = 0.53920 0.21479
# Poissons Ratio (y) = 0.17952 0.12951
# Poissons Ratio (z) = 0.09673 0.17516
#
# Static dielectric constant tensor:
#      x y z
#    x 2.772440 0.000000 0.000000 
#    y 0.000000 3.892020 0.000000 
#    z 0.000000 0.000000 3.472750 
# 
# 
# High freq. dielectric constant tensor:
#      x y z
#    x 1.612280 0.000000 0.000000 
#    y 0.000000 1.718650 0.000000 
#    z 0.000000 0.000000 1.709850 
# 
# From -- ./inp_files/28232.got.cif
#   From: 2010.03.12/outbox.cif.g09.slc.cpg/sg65_15_cif.got.tgz:28232.got - 2010.04.10 20:52:16.
