data_PCOD8274258
_publ_section_title
;
Structure prediction by ZEFSAII (Michael W. Deem and Ramdas Pophale) SiO2 
 PCOD8274258
Probable space group: C M M M
;
_chemical_formula_sum "Si O2"
_cell_formula_units_Z 80
_cell_length_a 14.102560
_cell_length_b 17.730805
_cell_length_c 19.331046
_cell_angle_alpha 90.000000
_cell_angle_beta 90.000000
_cell_angle_gamma 90.000000
_cell_volume 4833.723053
_symmetry_space_group_name_H-M "C M M M"
_symmetry_group_IT_number 65
_symmetry_cell_setting 'orthorhombic'
loop_
_space_group_symop_operation_xyz
x,y,z
-x,-y,z
x,-y,-z
-x,y,-z
-x,-y,-z
x,y,-z
-x,y,z
x,-y,z
1/2+x,1/2+y,z
1/2-x,1/2-y,z
1/2+x,1/2-y,-z
1/2-x,1/2+y,-z
1/2-x,1/2-y,-z
1/2+x,1/2+y,-z
1/2-x,1/2+y,z
1/2+x,1/2-y,z
loop_
_atom_site_type_symbol
_atom_site_label
_atom_site_fract_x
_atom_site_fract_y
_atom_site_fract_z
Si Si1 0.112541 0.915145 0.575947
Si Si2 0.111688 0.159154 0.286952
Si Si3 0.230808 0.913862 0.175448
Si Si4 0.891910 0.702872 0.804421
Si Si5 0.108170 0.822306 0.078983
O O1 0.150540 0.889630 0.500000
O O2 0.147783 0.855993 0.634505
O O3 0.000000 0.915999 0.574727
O O4 0.149151 0.000000 0.592526
O O5 0.157757 0.096055 0.238251
O O6 0.138806 0.242888 0.259850
O O7 0.000000 0.147374 0.280380
O O8 0.326839 0.870007 0.194127
O O9 0.180818 0.886068 0.104864
O O10 0.259460 0.000000 0.165774
O O11 0.876727 0.747300 0.875983
O O12 0.000000 0.676050 0.795634
O O13 0.000000 0.851551 0.087307
O O14 0.131618 0.802058 0.000000
#
# Coordination Sequence:
#
# PCOD8274258 Si02
#       5
#    16  16  16  16  16
#     4   8  13  21  36  63  98 127 144 166 213 274
#     4   9  16  28  47  68  91 118 148 181 217 265
#     4  11  21  30  45  68  92 119 148 183 228 267
#     4   9  19  34  49  64  84 117 158 192 220 254
#     4   9  18  33  52  71  91 116 144 176 218 270
#
# _framework density 16.550388999999999
#
# number of rings (size 3 to 8) (size 9 to 14) (size 15 to 20)
#    0.000    2.800    0.000    5.400    0.000    4.800 
#    0.000    1.000    0.000    2.400    0.000    4.200 
#    0.000    0.000    0.000   12.000    0.000    0.200 
#
# Total GULP energy -495775.434666 kJ/mol
# GULP energy per Si atom -12394.385867 kJ/mol
# Density = 1.651272 g / cm^3
# Si number density = 16.550389 Si / 1000 Ang^3
#
#
#
# Elastic Constant Matrix: (Units=GPa)
#
#
# Indices 1 2 3 4 5 6 
#
# 1 55.0150 44.2243 27.2923 0.0000 0.0000 0.0000
# 2 44.2243 101.2994 42.7565 0.0000 0.0000 0.0000
# 3 27.2923 42.7565 125.0063 0.0000 0.0000 0.0000
# 4 0.0000 0.0000 0.0000 10.8535 0.0000 0.0000
# 5 0.0000 0.0000 0.0000 0.0000 6.8717 0.0000
# 6 0.0000 0.0000 0.0000 0.0000 0.0000 17.8917
#
#
#
# Elastic Compliance Matrix: (Units=1/GPa)
#
#
# Indices 1 2 3 4 5 6 
#
# 1 0.028561 -0.011497 -0.002303 0.000000 0.000000 0.000000
# 2 -0.011497 0.016165 -0.003019 0.000000 0.000000 0.000000
# 3 -0.002303 -0.003019 0.009535 0.000000 0.000000 0.000000
# 4 0.000000 0.000000 0.000000 0.092137 0.000000 0.000000
# 5 0.000000 0.000000 0.000000 0.000000 0.145524 0.000000
# 6 0.000000 0.000000 0.000000 0.000000 0.000000 0.055892
#
#
# Mechanical properties :
#
#
# Convention : Reuss Voigt Hill
#
# Bulk Modulus (GPa) = 48.48911 56.65188 52.57050
# Shear Modulus (GPa) = 12.87574 18.25989 15.56781
#
# Velocity S-wave (km/s) = 2.79224 3.32519 3.07030
# Velocity P-wave (km/s) = 6.30531 7.00334 6.66347
#
# Compressibility (1/GPa) = 0.02062319
#
# Stress axis : x y z
#
# Youngs Moduli (GPa) = 35.01233 61.86153 104.87575
#
# Poissons Ratio (x) = 0.71121 0.24157
# Poissons Ratio (y) = 0.40253 0.31662
# Poissons Ratio (z) = 0.08065 0.18676
#
# Static dielectric constant tensor:
#      x y z
#    x 2.957400 0.000000 0.000000 
#    y 0.000000 2.891010 0.000000 
#    z 0.000000 0.000000 3.533070 
# 
# 
# High freq. dielectric constant tensor:
#      x y z
#    x 1.618500 0.000000 0.000000 
#    y 0.000000 1.608930 0.000000 
#    z 0.000000 0.000000 1.641170 
# 
# From -- ./inp_files/52865.got.cif
#   From: 2010.03.12/outbox.cif.g09.slc.cpg/sg65_27_cif.got.tgz:52865.got - 2010.04.10 20:52:16.
