data_PCOD8274517
_publ_section_title
;
Structure prediction by ZEFSAII (Michael W. Deem and Ramdas Pophale) SiO2 
 PCOD8274517
Probable space group: C M M M
;
_chemical_formula_sum "Si O2"
_cell_formula_units_Z 64
_cell_length_a 9.231569
_cell_length_b 18.133539
_cell_length_c 20.647379
_cell_angle_alpha 90.000000
_cell_angle_beta 90.000000
_cell_angle_gamma 90.000000
_cell_volume 3456.392233
_symmetry_space_group_name_H-M "C M M M"
_symmetry_group_IT_number 65
_symmetry_cell_setting 'orthorhombic'
loop_
_space_group_symop_operation_xyz
x,y,z
-x,-y,z
x,-y,-z
-x,y,-z
-x,-y,-z
x,y,-z
-x,y,z
x,-y,z
1/2+x,1/2+y,z
1/2-x,1/2-y,z
1/2+x,1/2-y,-z
1/2-x,1/2+y,-z
1/2-x,1/2-y,-z
1/2+x,1/2+y,-z
1/2-x,1/2+y,z
1/2+x,1/2-y,z
loop_
_atom_site_type_symbol
_atom_site_label
_atom_site_fract_x
_atom_site_fract_y
_atom_site_fract_z
Si Si1 0.840085 0.087505 0.120316
Si Si2 0.831312 0.913933 0.734582
Si Si3 0.328626 0.917807 0.500000
Si Si4 0.327368 0.827606 0.375050
Si Si5 0.161357 0.411828 0.000000
O O1 0.787762 0.109413 0.192273
O O2 0.736196 0.119971 0.064853
O O3 0.000000 0.119694 0.107640
O O4 0.845853 0.000000 0.115653
O O5 0.725769 0.867742 0.689386
O O6 0.000000 0.895574 0.721254
O O7 0.801786 0.000000 0.722798
O O8 0.500000 0.922996 0.500000
O O9 0.275305 0.875473 0.436278
O O10 0.260862 0.000000 0.500000
O O11 0.500000 0.817382 0.372548
O O12 0.250000 0.750000 0.381671
O O13 0.165413 0.500000 0.000000
O O14 0.000000 0.380932 0.000000
#
# Coordination Sequence:
#
# PCOD8274517 Si02
#       5
#    16  16   8  16   8
#     4   8  14  25  41  61  90 129 166 202 250 305
#     4   9  18  33  52  75 103 134 172 217 261 308
#     4   9  19  36  57  81 106 133 168 209 254 304
#     4  11  22  36  55  77 105 139 173 211 254 303
#     4   9  15  21  33  59  94 127 162 207 252 295
#
# _framework density 18.516417000000001
#
# number of rings (size 3 to 8) (size 9 to 14) (size 15 to 20)
#    0.000    2.750    0.000    3.750    0.000    4.000 
#    0.000    4.375    0.000    4.500    0.000    0.875 
#    0.000    0.000    0.000    0.000    0.000    0.000 
#
# Total GULP energy -396698.217874 kJ/mol
# GULP energy per Si atom -12396.819309 kJ/mol
# Density = 1.847427 g / cm^3
# Si number density = 18.516417 Si / 1000 Ang^3
#
#
#
# Elastic Constant Matrix: (Units=GPa)
#
#
# Indices 1 2 3 4 5 6 
#
# 1 101.7555 48.1529 79.9794 0.0000 0.0000 0.0000
# 2 48.1529 81.9401 61.1923 0.0000 0.0000 0.0000
# 3 79.9794 61.1923 176.0366 0.0000 0.0000 0.0000
# 4 0.0000 0.0000 0.0000 -0.0165 0.0000 0.0000
# 5 0.0000 0.0000 0.0000 0.0000 27.9104 0.0000
# 6 0.0000 0.0000 0.0000 0.0000 0.0000 12.3055
#
#
#
# Elastic Compliance Matrix: (Units=1/GPa)
#
#
# Indices 1 2 3 4 5 6 
#
# 1 0.017067 -0.005725 -0.005764 0.000000 0.000000 0.000000
# 2 -0.005725 0.018403 -0.003796 0.000000 0.000000 0.000000
# 3 -0.005764 -0.003796 0.009619 0.000000 0.000000 0.000000
# 4 0.000000 0.000000 0.000000-60.710862 0.000000 0.000000
# 5 0.000000 0.000000 0.000000 0.000000 0.035829 0.000000
# 6 0.000000 0.000000 0.000000 0.000000 0.000000 0.081264
#
#
# Mechanical properties :
#
#
# Convention : Reuss Voigt Hill
#
# Bulk Modulus (GPa) = 68.87538 82.04238 75.45888
# Shear Modulus (GPa) = -0.08263 19.40039 9.65888
#
# Velocity S-wave (km/s) = -0.21147 3.24039 2.28642
# Velocity P-wave (km/s) = 6.10066 7.64227 6.91456
#
# Compressibility (1/GPa) = 0.01451898
#
# Stress axis : x y z
#
# Youngs Moduli (GPa) = 58.59144 54.33788 103.96040
#
# Poissons Ratio (x) = 0.31109 0.59924
# Poissons Ratio (y) = 0.33545 0.39464
# Poissons Ratio (z) = 0.33773 0.20627
#
# Static dielectric constant tensor:
#      x y z
#    x 3.401760 0.000000 0.000000 
#    y 0.000000 3.069150 0.000000 
#    z 0.000000 0.000000 3.690290 
# 
# 
# High freq. dielectric constant tensor:
#      x y z
#    x 1.709760 0.000000 0.000000 
#    y 0.000000 1.677190 0.000000 
#    z 0.000000 0.000000 1.737640 
# 
# From -- ./inp_files/49431.got.cif
#   From: 2010.03.12/outbox.cif.g09.slc.cpg/sg65_25_cif.got.tgz:49431.got - 2010.04.10 20:52:16.
