data_PCOD8274453
_publ_section_title
;
Structure prediction by ZEFSAII (Michael W. Deem and Ramdas Pophale) SiO2 
 PCOD8274453
Probable space group: C M M M
;
_chemical_formula_sum "Si O2"
_cell_formula_units_Z 72
_cell_length_a 26.665005
_cell_length_b 14.608797
_cell_length_c 10.063635
_cell_angle_alpha 90.000000
_cell_angle_beta 90.000000
_cell_angle_gamma 90.000000
_cell_volume 3920.225060
_symmetry_space_group_name_H-M "C M M M"
_symmetry_group_IT_number 65
_symmetry_cell_setting 'orthorhombic'
loop_
_space_group_symop_operation_xyz
x,y,z
-x,-y,z
x,-y,-z
-x,y,-z
-x,-y,-z
x,y,-z
-x,y,z
x,-y,z
1/2+x,1/2+y,z
1/2-x,1/2-y,z
1/2+x,1/2-y,-z
1/2-x,1/2+y,-z
1/2-x,1/2-y,-z
1/2+x,1/2+y,-z
1/2-x,1/2+y,z
1/2+x,1/2-y,z
loop_
_atom_site_type_symbol
_atom_site_label
_atom_site_fract_x
_atom_site_fract_y
_atom_site_fract_z
Si Si1 0.444122 0.607025 0.000000
Si Si2 0.782171 0.500000 0.150293
Si Si3 0.941263 0.103306 0.500000
Si Si4 0.443631 0.000000 0.841904
Si Si5 0.383285 0.339375 0.742560
Si Si6 0.811109 0.000000 0.340876
Si Si7 0.865876 0.351614 0.153190
O O1 0.412698 0.635702 0.873891
O O2 0.451374 0.500000 0.000000
O O3 0.500000 0.652542 0.000000
O O4 0.741524 0.500000 0.265552
O O5 0.815569 0.409848 0.168903
O O6 0.758997 0.500000 0.000000
O O7 0.924215 0.159874 0.372990
O O8 0.000000 0.093790 0.500000
O O9 0.917216 0.000000 0.500000
O O10 0.413879 0.090531 0.794684
O O11 0.500000 0.000000 0.782722
O O12 0.444265 0.000000 0.000000
O O13 0.339242 0.409283 0.707702
O O14 0.359898 0.238464 0.756798
O O15 0.802995 0.000000 0.500000
O O16 0.873993 0.323223 0.000000
#
# Coordination Sequence:
#
# PCOD8274453 Si02
#       7
#     8   8   8   8  16   8  16
#     4  11  22  34  54  88 124 154 194 239 290 343
#     4   9  22  43  66  86 113 156 191 244 306 353
#     4  11  22  40  58  78 120 170 202 227 284 355
#     4   8  15  30  54  83 119 156 187 230 283 342
#     4  12  21  38  59  87 120 156 193 247 291 345
#     4  12  25  43  60  85 117 153 205 244 295 358
#     4   9  19  37  59  89 121 148 191 241 296 351
#
# _framework density 18.366291
#
# number of rings (size 3 to 8) (size 9 to 14) (size 15 to 20)
#    0.000    1.667    4.444    2.000    1.556    4.444 
#    2.000    3.333    0.000    0.000    0.000    2.333 
#    0.000    0.000    0.000    0.000    0.000    0.000 
#
# Total GULP energy -446353.513990 kJ/mol
# GULP energy per Si atom -12398.708722 kJ/mol
# Density = 1.832449 g / cm^3
# Si number density = 18.366291 Si / 1000 Ang^3
#
#
#
# Elastic Constant Matrix: (Units=GPa)
#
#
# Indices 1 2 3 4 5 6 
#
# 1 114.8995 50.5880 62.5263 0.0000 0.0000 0.0000
# 2 50.5880 144.7883 54.7661 0.0000 0.0000 0.0000
# 3 62.5263 54.7661 136.3429 0.0000 0.0000 0.0000
# 4 0.0000 0.0000 0.0000 14.9601 0.0000 0.0000
# 5 0.0000 0.0000 0.0000 0.0000 38.2234 0.0000
# 6 0.0000 0.0000 0.0000 0.0000 0.0000 34.3242
#
#
#
# Elastic Compliance Matrix: (Units=1/GPa)
#
#
# Indices 1 2 3 4 5 6 
#
# 1 0.012355 -0.002563 -0.004636 0.000000 0.000000 0.000000
# 2 -0.002563 0.008676 -0.002309 0.000000 0.000000 0.000000
# 3 -0.004636 -0.002309 0.010388 0.000000 0.000000 0.000000
# 4 0.000000 0.000000 0.000000 0.066844 0.000000 0.000000
# 5 0.000000 0.000000 0.000000 0.000000 0.026162 0.000000
# 6 0.000000 0.000000 0.000000 0.000000 0.000000 0.029134
#
#
# Mechanical properties :
#
#
# Convention : Reuss Voigt Hill
#
# Bulk Modulus (GPa) = 80.63756 81.31015 80.97386
# Shear Modulus (GPa) = 28.29492 32.71156 30.50324
#
# Velocity S-wave (km/s) = 3.92929 4.22485 4.07975
# Velocity P-wave (km/s) = 8.03656 8.25631 8.14717
#
# Compressibility (1/GPa) = 0.01240117
#
# Stress axis : x y z
#
# Youngs Moduli (GPa) = 80.94100 115.26488 96.26198
#
# Poissons Ratio (x) = 0.29542 0.44630
# Poissons Ratio (y) = 0.20745 0.22231
# Poissons Ratio (z) = 0.37527 0.26620
#
# Static dielectric constant tensor:
#      x y z
#    x 3.436170 0.000000 0.000000 
#    y 0.000000 3.528160 0.000000 
#    z 0.000000 0.000000 3.330500 
# 
# 
# High freq. dielectric constant tensor:
#      x y z
#    x 1.715000 0.000000 0.000000 
#    y 0.000000 1.715150 0.000000 
#    z 0.000000 0.000000 1.698600 
# 
# From -- ./inp_files/15858.got.cif
#   From: 2010.03.12/outbox.cif.g09.slc.cpg/sg65_8_cif.got.tgz:15858.got - 2010.04.10 20:52:16.
