data_PCOD8274008
_publ_section_title
;
Structure prediction by ZEFSAII (Michael W. Deem and Ramdas Pophale) SiO2 
 PCOD8274008
Probable space group: C M M M
;
_chemical_formula_sum "Si O2"
_cell_formula_units_Z 88
_cell_length_a 8.049222
_cell_length_b 23.976099
_cell_length_c 24.469959
_cell_angle_alpha 90.000000
_cell_angle_beta 90.000000
_cell_angle_gamma 90.000000
_cell_volume 4722.431536
_symmetry_space_group_name_H-M "C M M M"
_symmetry_group_IT_number 65
_symmetry_cell_setting 'orthorhombic'
loop_
_space_group_symop_operation_xyz
x,y,z
-x,-y,z
x,-y,-z
-x,y,-z
-x,-y,-z
x,y,-z
-x,y,z
x,-y,z
1/2+x,1/2+y,z
1/2-x,1/2-y,z
1/2+x,1/2-y,-z
1/2-x,1/2+y,-z
1/2-x,1/2-y,-z
1/2+x,1/2+y,-z
1/2-x,1/2+y,z
1/2+x,1/2-y,z
loop_
_atom_site_type_symbol
_atom_site_label
_atom_site_fract_x
_atom_site_fract_y
_atom_site_fract_z
Si Si1 0.688304 0.187778 0.841386
Si Si2 0.307716 0.434784 0.365009
Si Si3 0.000000 0.434240 0.439363
Si Si4 0.187649 0.112487 0.249894
Si Si5 0.312434 0.000000 0.204747
Si Si6 0.306538 0.884687 0.940218
Si Si7 0.812502 0.000000 0.909291
O O1 0.500000 0.191461 0.858293
O O2 0.750000 0.250000 0.836548
O O3 0.704108 0.158102 0.782194
O O4 0.774024 0.153077 0.891288
O O5 0.500000 0.426097 0.385044
O O6 0.282026 0.500000 0.348926
O O7 0.171932 0.415805 0.409880
O O8 0.267329 0.394624 0.313746
O O9 0.000000 0.500000 0.443993
O O10 0.000000 0.407427 0.500000
O O11 0.000000 0.132667 0.243123
O O12 0.209861 0.052965 0.223036
O O13 0.320011 0.000000 0.139721
O O14 0.500000 0.000000 0.228579
O O15 0.500000 0.894892 0.928457
O O16 0.216905 0.944373 0.944137
O O17 0.279756 0.855982 0.000000
O O18 0.000000 0.000000 0.886747
#
# Coordination Sequence:
#
# PCOD8274008 Si02
#       7
#    16  16   8  16   8  16   8
#     4  11  24  40  58  78 104 142 180 224 281 336
#     4   9  18  30  48  76 110 149 190 229 273 321
#     4   9  18  30  46  72 112 158 197 229 263 312
#     4  11  21  35  55  81 111 141 179 230 278 330
#     4  12  22  31  53  82 108 142 177 216 276 341
#     4  10  22  40  59  78 104 139 179 222 272 332
#     4  12  23  35  54  83 112 136 173 219 273 328
#
# _framework density 18.634467999999998
#
# number of rings (size 3 to 8) (size 9 to 14) (size 15 to 20)
#    0.000    1.545    2.727    3.000    2.545    2.909 
#    0.000    1.818    0.000    0.000    0.000    0.000 
#    0.000    0.727    0.364    0.000    0.000    0.000 
#
# Total GULP energy -545313.631995 kJ/mol
# GULP energy per Si atom -12393.491636 kJ/mol
# Density = 1.859205 g / cm^3
# Si number density = 18.634468 Si / 1000 Ang^3
#
#
#
# Elastic Constant Matrix: (Units=GPa)
#
#
# Indices 1 2 3 4 5 6 
#
# 1 75.6556 22.4511 48.7434 0.0000 0.0000 0.0000
# 2 22.4511 101.8836 44.6667 0.0000 0.0000 0.0000
# 3 48.7434 44.6667 130.3713 0.0000 0.0000 0.0000
# 4 0.0000 0.0000 0.0000 -31.9193 0.0000 0.0000
# 5 0.0000 0.0000 0.0000 0.0000 24.4435 0.0000
# 6 0.0000 0.0000 0.0000 0.0000 0.0000 17.6243
#
#
#
# Elastic Compliance Matrix: (Units=1/GPa)
#
#
# Indices 1 2 3 4 5 6 
#
# 1 0.017529 -0.001164 -0.006155 0.000000 0.000000 0.000000
# 2 -0.001164 0.011627 -0.003548 0.000000 0.000000 0.000000
# 3 -0.006155 -0.003548 0.011187 0.000000 0.000000 0.000000
# 4 0.000000 0.000000 0.000000 -0.031329 0.000000 0.000000
# 5 0.000000 0.000000 0.000000 0.000000 0.040911 0.000000
# 6 0.000000 0.000000 0.000000 0.000000 0.000000 0.056740
#
#
# Mechanical properties :
#
#
# Convention : Reuss Voigt Hill
#
# Bulk Modulus (GPa) = 53.73903 59.95921 56.84912
# Shear Modulus (GPa) = 37.14639 14.83296 25.98967
#
# Velocity S-wave (km/s) = 4.46962 2.82440 3.73863
# Velocity P-wave (km/s) = 7.45237 6.54849 7.01500
#
# Compressibility (1/GPa) = 0.01860845
#
# Stress axis : x y z
#
# Youngs Moduli (GPa) = 57.04930 86.00434 89.38747
#
# Poissons Ratio (x) = 0.10014 0.55016
# Poissons Ratio (y) = 0.06642 0.31718
# Poissons Ratio (z) = 0.35112 0.30517
#
# Static dielectric constant tensor:
#      x y z
#    x 3.442490 0.000000 0.000000 
#    y 0.000000 3.353350 0.000000 
#    z 0.000000 0.000000 3.556750 
# 
# 
# High freq. dielectric constant tensor:
#      x y z
#    x 1.731200 0.000000 0.000000 
#    y 0.000000 1.680520 0.000000 
#    z 0.000000 0.000000 1.716000 
# 
# From -- ./inp_files/67622.got.cif
#   From: 2010.03.12/outbox.cif.g09.slc.cpg/sg65_34_cif.got.tgz:67622.got - 2010.04.10 20:52:16.
