data_PCOD8274603
_publ_section_title
;
Structure prediction by ZEFSAII (Michael W. Deem and Ramdas Pophale) SiO2 
 PCOD8274603
Probable space group: C M M M
;
_chemical_formula_sum "Si O2"
_cell_formula_units_Z 72
_cell_length_a 15.705459
_cell_length_b 8.725329
_cell_length_c 26.194094
_cell_angle_alpha 90.000000
_cell_angle_beta 90.000000
_cell_angle_gamma 90.000000
_cell_volume 3589.515448
_symmetry_space_group_name_H-M "C M M M"
_symmetry_group_IT_number 65
_symmetry_cell_setting 'orthorhombic'
loop_
_space_group_symop_operation_xyz
x,y,z
-x,-y,z
x,-y,-z
-x,y,-z
-x,-y,-z
x,y,-z
-x,y,z
x,-y,z
1/2+x,1/2+y,z
1/2-x,1/2-y,z
1/2+x,1/2-y,-z
1/2-x,1/2+y,-z
1/2-x,1/2-y,-z
1/2+x,1/2+y,-z
1/2-x,1/2+y,z
1/2+x,1/2-y,z
loop_
_atom_site_type_symbol
_atom_site_label
_atom_site_fract_x
_atom_site_fract_y
_atom_site_fract_z
Si Si1 0.343211 0.318614 0.000000
Si Si2 0.500000 0.682237 0.264474
Si Si3 0.838003 0.818842 0.441745
Si Si4 0.162922 0.181852 0.797917
Si Si5 0.000000 0.182780 0.379692
Si Si6 0.597409 0.175090 0.897658
O O1 0.250000 0.250000 0.000000
O O2 0.394018 0.262065 0.049166
O O3 0.338529 0.500000 0.000000
O O4 0.500000 0.500000 0.264182
O O5 0.415588 0.743292 0.236082
O O6 0.500000 0.746037 0.322058
O O7 0.853129 0.765882 0.500000
O O8 0.750000 0.750000 0.420274
O O9 0.915992 0.754412 0.408173
O O10 0.832381 0.000000 0.437664
O O11 0.250000 0.250000 0.774416
O O12 0.154535 0.241721 0.855571
O O13 0.167003 0.000000 0.798043
O O14 0.000000 0.000000 0.380940
O O15 0.500000 0.183364 0.879810
O O16 0.628379 0.000000 0.903743
#
# Coordination Sequence:
#
# PCOD8274603 Si02
#       6
#     8   8  16  16   8  16
#     4  12  25  40  59  85 119 153 189 229 278 337
#     4   9  20  37  57  81 111 146 188 239 287 340
#     4   9  17  30  51  79 111 147 188 232 279 335
#     4  11  22  39  61  85 112 147 191 235 287 343
#     4   9  17  32  54  78 107 147 192 233 280 336
#     4  11  23  40  62  87 116 148 186 232 283 338
#
# _framework density 20.058416999999999
#
# number of rings (size 3 to 8) (size 9 to 14) (size 15 to 20)
#    0.000    1.778    1.111    3.667    0.000    4.889 
#    0.000    0.556    0.000    6.667    0.000    0.000 
#    0.000    0.000    0.000    0.000    0.000    0.000 
#
# Total GULP energy -446531.108399 kJ/mol
# GULP energy per Si atom -12403.641900 kJ/mol
# Density = 2.001276 g / cm^3
# Si number density = 20.058417 Si / 1000 Ang^3
#
#
#
# Elastic Constant Matrix: (Units=GPa)
#
#
# Indices 1 2 3 4 5 6 
#
# 1 172.8488 40.2696 77.6742 0.0000 0.0000 0.0000
# 2 40.2696 82.2373 29.4191 0.0000 0.0000 0.0000
# 3 77.6742 29.4191 132.3034 0.0000 0.0000 0.0000
# 4 0.0000 0.0000 0.0000 15.9534 0.0000 0.0000
# 5 0.0000 0.0000 0.0000 0.0000 23.2909 0.0000
# 6 0.0000 0.0000 0.0000 0.0000 0.0000 33.3945
#
#
#
# Elastic Compliance Matrix: (Units=1/GPa)
#
#
# Indices 1 2 3 4 5 6 
#
# 1 0.008315 -0.002526 -0.004320 0.000000 0.000000 0.000000
# 2 -0.002526 0.013978 -0.001625 0.000000 0.000000 0.000000
# 3 -0.004320 -0.001625 0.010456 0.000000 0.000000 0.000000
# 4 0.000000 0.000000 0.000000 0.062682 0.000000 0.000000
# 5 0.000000 0.000000 0.000000 0.000000 0.042935 0.000000
# 6 0.000000 0.000000 0.000000 0.000000 0.000000 0.029945
#
#
# Mechanical properties :
#
#
# Convention : Reuss Voigt Hill
#
# Bulk Modulus (GPa) = 63.26422 75.79059 69.52740
# Shear Modulus (GPa) = 26.24336 30.52953 28.38645
#
# Velocity S-wave (km/s) = 3.62103 3.90555 3.76598
# Velocity P-wave (km/s) = 7.00649 7.62920 7.32447
#
# Compressibility (1/GPa) = 0.01580672
#
# Stress axis : x y z
#
# Youngs Moduli (GPa) = 120.25969 71.53910 95.63865
#
# Poissons Ratio (x) = 0.18073 0.41317
# Poissons Ratio (y) = 0.30382 0.15542
# Poissons Ratio (z) = 0.51953 0.11625
#
# Static dielectric constant tensor:
#      x y z
#    x 3.877310 0.000000 0.000000 
#    y 0.000000 3.430910 0.000000 
#    z 0.000000 0.000000 3.702730 
# 
# 
# High freq. dielectric constant tensor:
#      x y z
#    x 1.800810 0.000000 0.000000 
#    y 0.000000 1.762860 0.000000 
#    z 0.000000 0.000000 1.777290 
# 
# From -- ./inp_files/74700.got.cif
#   From: 2010.03.12/outbox.cif.g09.slc.cpg/sg65_38_cif.got.tgz:74700.got - 2010.04.10 20:52:16.
