data_PCOD8274572
_publ_section_title
;
Structure prediction by ZEFSAII (Michael W. Deem and Ramdas Pophale) SiO2 
 PCOD8274572
Probable space group: C M M M
;
_chemical_formula_sum "Si O2"
_cell_formula_units_Z 72
_cell_length_a 15.366593
_cell_length_b 9.411562
_cell_length_c 24.971324
_cell_angle_alpha 90.000000
_cell_angle_beta 90.000000
_cell_angle_gamma 90.000000
_cell_volume 3611.443841
_symmetry_space_group_name_H-M "C M M M"
_symmetry_group_IT_number 65
_symmetry_cell_setting 'orthorhombic'
loop_
_space_group_symop_operation_xyz
x,y,z
-x,-y,z
x,-y,-z
-x,y,-z
-x,-y,-z
x,y,-z
-x,y,z
x,-y,z
1/2+x,1/2+y,z
1/2-x,1/2-y,z
1/2+x,1/2-y,-z
1/2-x,1/2+y,-z
1/2-x,1/2-y,-z
1/2+x,1/2+y,-z
1/2-x,1/2+y,z
1/2+x,1/2-y,z
loop_
_atom_site_type_symbol
_atom_site_label
_atom_site_fract_x
_atom_site_fract_y
_atom_site_fract_z
Si Si1 0.000000 0.331986 0.440229
Si Si2 0.397810 0.664735 0.726146
Si Si3 0.333900 0.170028 0.627402
Si Si4 0.396468 0.342872 0.845538
Si Si5 0.103497 0.659059 0.941480
O O1 0.085539 0.280577 0.409101
O O2 0.000000 0.500000 0.443414
O O3 0.000000 0.266284 0.500000
O O4 0.500000 0.686147 0.717677
O O5 0.372678 0.500000 0.714978
O O6 0.347270 0.771426 0.687304
O O7 0.370013 0.710635 0.786284
O O8 0.250000 0.250000 0.602824
O O9 0.321528 0.000000 0.628417
O O10 0.500000 0.344509 0.849435
O O11 0.359448 0.500000 0.854566
O O12 0.354857 0.247393 0.892566
O O13 0.139250 0.500000 0.936218
O O14 0.000000 0.659787 0.936764
O O15 0.130534 0.721831 0.000000
#
# Coordination Sequence:
#
# PCOD8274572 Si02
#       5
#     8  16  16  16  16
#     4   9  20  40  63  87 119 155 190 231 276 325
#     4   9  17  31  51  74 105 141 179 229 283 333
#     4  11  22  37  59  87 116 151 192 232 279 332
#     4   8  14  23  36  57  84 120 165 212 267 325
#     4   8  13  20  29  45  75 116 161 211 265 318
#
# _framework density 19.936623999999998
#
# number of rings (size 3 to 8) (size 9 to 14) (size 15 to 20)
#    0.000    3.000    1.111    2.667    0.000    1.778 
#    0.000    4.444    0.000    4.667    0.000    0.000 
#    0.000    0.889    0.000    2.889    0.000    6.444 
#
# Total GULP energy -446158.307937 kJ/mol
# GULP energy per Si atom -12393.286332 kJ/mol
# Density = 1.989125 g / cm^3
# Si number density = 19.936624 Si / 1000 Ang^3
#
#
#
# Elastic Constant Matrix: (Units=GPa)
#
#
# Indices 1 2 3 4 5 6 
#
# 1 75.8346 37.8825 48.3192 0.0000 0.0000 0.0000
# 2 37.8825 85.0859 62.9798 0.0000 0.0000 0.0000
# 3 48.3192 62.9798 164.3135 0.0000 0.0000 0.0000
# 4 0.0000 0.0000 0.0000 25.0650 0.0000 0.0000
# 5 0.0000 0.0000 0.0000 0.0000 1.5707 0.0000
# 6 0.0000 0.0000 0.0000 0.0000 0.0000 21.0125
#
#
#
# Elastic Compliance Matrix: (Units=1/GPa)
#
#
# Indices 1 2 3 4 5 6 
#
# 1 0.018026 -0.005727 -0.003106 0.000000 0.000000 0.000000
# 2 -0.005727 0.018227 -0.005302 0.000000 0.000000 0.000000
# 3 -0.003106 -0.005302 0.009032 0.000000 0.000000 0.000000
# 4 0.000000 0.000000 0.000000 0.039896 0.000000 0.000000
# 5 0.000000 0.000000 0.000000 0.000000 0.636665 0.000000
# 6 0.000000 0.000000 0.000000 0.000000 0.000000 0.047591
#
#
# Mechanical properties :
#
#
# Convention : Reuss Voigt Hill
#
# Bulk Modulus (GPa) = 58.77111 69.28857 64.02984
# Shear Modulus (GPa) = 6.22371 21.26647 13.74509
#
# Velocity S-wave (km/s) = 1.76876 3.26959 2.62857
# Velocity P-wave (km/s) = 5.80640 7.00596 6.43420
#
# Compressibility (1/GPa) = 0.01701516
#
# Stress axis : x y z
#
# Youngs Moduli (GPa) = 55.47430 54.86290 110.72260
#
# Poissons Ratio (x) = 0.31419 0.34390
# Poissons Ratio (y) = 0.31769 0.58708
# Poissons Ratio (z) = 0.17230 0.29090
#
# Static dielectric constant tensor:
#      x y z
#    x 3.279270 0.000000 0.000000 
#    y 0.000000 3.606280 0.000000 
#    z 0.000000 0.000000 3.930670 
# 
# 
# High freq. dielectric constant tensor:
#      x y z
#    x 1.746970 0.000000 0.000000 
#    y 0.000000 1.760330 0.000000 
#    z 0.000000 0.000000 1.784620 
# 
# From -- ./inp_files/74595.got.cif
#   From: 2010.03.12/outbox.cif.g09.slc.cpg/sg65_38_cif.got.tgz:74595.got - 2010.04.10 20:52:16.
