data_PCOD8274297
_publ_section_title
;
Structure prediction by ZEFSAII (Michael W. Deem and Ramdas Pophale) SiO2 
 PCOD8274297
Probable space group: C M M M
;
_chemical_formula_sum "Si O2"
_cell_formula_units_Z 88
_cell_length_a 8.778879
_cell_length_b 23.645296
_cell_length_c 22.862370
_cell_angle_alpha 90.000000
_cell_angle_beta 90.000000
_cell_angle_gamma 90.000000
_cell_volume 4745.752303
_symmetry_space_group_name_H-M "C M M M"
_symmetry_group_IT_number 65
_symmetry_cell_setting 'orthorhombic'
loop_
_space_group_symop_operation_xyz
x,y,z
-x,-y,z
x,-y,-z
-x,y,-z
-x,-y,-z
x,y,-z
-x,y,z
x,-y,z
1/2+x,1/2+y,z
1/2-x,1/2-y,z
1/2+x,1/2-y,-z
1/2-x,1/2+y,-z
1/2-x,1/2-y,-z
1/2+x,1/2+y,-z
1/2-x,1/2+y,z
1/2+x,1/2-y,z
loop_
_atom_site_type_symbol
_atom_site_label
_atom_site_fract_x
_atom_site_fract_y
_atom_site_fract_z
Si Si1 0.331348 0.500000 0.418995
Si Si2 0.171439 0.067148 0.000000
Si Si3 0.178940 0.388616 0.239258
Si Si4 0.178592 0.564188 0.117607
Si Si5 0.330779 0.500000 0.716900
Si Si6 0.180143 0.188779 0.332338
Si Si7 0.675539 0.882960 0.434917
O O1 0.500000 0.500000 0.448013
O O2 0.356087 0.500000 0.350907
O O3 0.236733 0.446198 0.439652
O O4 0.249958 0.090374 0.941238
O O5 0.000000 0.088974 0.000000
O O6 0.185317 0.000000 0.000000
O O7 0.221745 0.393401 0.170473
O O8 0.230743 0.446279 0.268268
O O9 0.264197 0.336856 0.270424
O O10 0.000000 0.380651 0.248412
O O11 0.239114 0.500000 0.130850
O O12 0.000000 0.561331 0.108373
O O13 0.500000 0.500000 0.746956
O O14 0.250000 0.250000 0.340551
O O15 0.227710 0.151511 0.387766
O O16 0.000000 0.192793 0.330540
O O17 0.690845 0.855587 0.500000
O O18 0.500000 0.883295 0.414418
#
# Coordination Sequence:
#
# PCOD8274297 Si02
#       7
#     8   8  16  16   8  16  16
#     4  11  22  36  57  88 120 151 183 222 275 332
#     4   9  17  27  41  69 108 151 190 227 267 312
#     4  11  21  36  58  84 112 147 188 232 280 332
#     4   9  17  30  48  74 109 151 189 222 268 325
#     4  11  21  32  52  84 116 148 182 225 279 335
#     4  12  26  44  63  84 109 143 184 232 284 333
#     4  11  24  41  62  87 114 147 185 227 277 333
#
# _framework density 18.542897
#
# number of rings (size 3 to 8) (size 9 to 14) (size 15 to 20)
#    0.000    1.364    2.727    3.818    0.000    6.182 
#    0.000    0.000    0.000    0.000    0.000    0.636 
#    0.000    0.000    0.000    0.000    0.000    0.000 
#
# Total GULP energy -545529.064562 kJ/mol
# GULP energy per Si atom -12398.387831 kJ/mol
# Density = 1.850069 g / cm^3
# Si number density = 18.542897 Si / 1000 Ang^3
#
#
#
# Elastic Constant Matrix: (Units=GPa)
#
#
# Indices 1 2 3 4 5 6 
#
# 1 119.8263 35.8481 59.7858 0.0000 0.0000 0.0000
# 2 35.8481 86.1806 41.5596 0.0000 0.0000 0.0000
# 3 59.7858 41.5596 143.0193 0.0000 0.0000 0.0000
# 4 0.0000 0.0000 0.0000 1.2059 0.0000 0.0000
# 5 0.0000 0.0000 0.0000 0.0000 10.7294 0.0000
# 6 0.0000 0.0000 0.0000 0.0000 0.0000 29.5002
#
#
#
# Elastic Compliance Matrix: (Units=1/GPa)
#
#
# Indices 1 2 3 4 5 6 
#
# 1 0.011083 -0.002763 -0.003830 0.000000 0.000000 0.000000
# 2 -0.002763 0.014183 -0.002966 0.000000 0.000000 0.000000
# 3 -0.003830 -0.002966 0.009455 0.000000 0.000000 0.000000
# 4 0.000000 0.000000 0.000000 0.829244 0.000000 0.000000
# 5 0.000000 0.000000 0.000000 0.000000 0.093202 0.000000
# 6 0.000000 0.000000 0.000000 0.000000 0.000000 0.033898
#
#
# Mechanical properties :
#
#
# Convention : Reuss Voigt Hill
#
# Bulk Modulus (GPa) = 64.09318 69.26814 66.68066
# Shear Modulus (GPa) = 4.92424 22.40929 13.66676
#
# Velocity S-wave (km/s) = 1.63137 3.48014 2.71778
# Velocity P-wave (km/s) = 6.17967 7.32019 6.77398
#
# Compressibility (1/GPa) = 0.01560228
#
# Stress axis : x y z
#
# Youngs Moduli (GPa) = 90.22817 70.50469 105.76252
#
# Poissons Ratio (x) = 0.19481 0.40508
# Poissons Ratio (y) = 0.24931 0.31374
# Poissons Ratio (z) = 0.34558 0.20915
#
# Static dielectric constant tensor:
#      x y z
#    x 3.610550 0.000000 0.000000 
#    y 0.000000 3.182980 0.000000 
#    z 0.000000 0.000000 3.717250 
# 
# 
# High freq. dielectric constant tensor:
#      x y z
#    x 1.736250 0.000000 0.000000 
#    y 0.000000 1.676210 0.000000 
#    z 0.000000 0.000000 1.735150 
# 
# From -- ./inp_files/67678.got.cif
#   From: 2010.03.12/outbox.cif.g09.slc.cpg/sg65_34_cif.got.tgz:67678.got - 2010.04.10 20:52:16.
