data_PCOD8274140
_publ_section_title
;
Structure prediction by ZEFSAII (Michael W. Deem and Ramdas Pophale) SiO2 
 PCOD8274140
Probable space group: C M M M
;
_chemical_formula_sum "Si O2"
_cell_formula_units_Z 48
_cell_length_a 17.157230
_cell_length_b 13.857002
_cell_length_c 10.332791
_cell_angle_alpha 90.000000
_cell_angle_beta 90.000000
_cell_angle_gamma 90.000000
_cell_volume 2456.598023
_symmetry_space_group_name_H-M "C M M M"
_symmetry_group_IT_number 65
_symmetry_cell_setting 'orthorhombic'
loop_
_space_group_symop_operation_xyz
x,y,z
-x,-y,z
x,-y,-z
-x,y,-z
-x,-y,-z
x,y,-z
-x,y,z
x,-y,z
1/2+x,1/2+y,z
1/2-x,1/2-y,z
1/2+x,1/2-y,-z
1/2-x,1/2+y,-z
1/2-x,1/2-y,-z
1/2+x,1/2+y,-z
1/2-x,1/2+y,z
1/2+x,1/2-y,z
loop_
_atom_site_type_symbol
_atom_site_label
_atom_site_fract_x
_atom_site_fract_y
_atom_site_fract_z
Si Si1 0.688005 0.000000 0.257290
Si Si2 0.699354 0.500000 0.500000
Si Si3 0.712523 0.500000 0.000000
Si Si4 0.909405 0.307279 0.750810
Si Si5 0.410319 0.682760 0.500000
Si Si6 0.662466 0.288741 0.000000
O O1 0.748469 0.000000 0.373308
O O2 0.634294 0.907192 0.264957
O O3 0.732799 0.000000 0.123503
O O4 0.644726 0.408144 0.500000
O O5 0.658660 0.405023 0.000000
O O6 0.890444 0.245019 0.625291
O O7 0.000000 0.330540 0.764896
O O8 0.881553 0.248091 0.874288
O O9 0.500000 0.648789 0.500000
O O10 0.750000 0.250000 0.000000
#
# Coordination Sequence:
#
# PCOD8274140 Si02
#       6
#     8   4   4  16   8   8
#     4  12  23  39  64  97 124 164 212 266 316 387
#     4  12  25  38  67  94 126 170 212 258 331 370
#     4  12  24  38  62  96 128 160 208 270 312 360
#     4  11  24  43  65  92 129 171 210 264 324 379
#     4  10  24  43  63  91 130 169 213 260 313 388
#     4  12  23  42  65  94 131 163 217 261 312 378
#
# _framework density 19.539217000000001
#
# number of rings (size 3 to 8) (size 9 to 14) (size 15 to 20)
#    0.000    0.667    3.333    4.250    0.000    1.333 
#    0.000    9.167    0.000    0.000    0.000    0.000 
#    0.000    0.000    0.000    0.000    0.000    0.000 
#
# Total GULP energy -297741.742419 kJ/mol
# GULP energy per Si atom -12405.905934 kJ/mol
# Density = 1.949474 g / cm^3
# Si number density = 19.539217 Si / 1000 Ang^3
#
#
#
# Elastic Constant Matrix: (Units=GPa)
#
#
# Indices 1 2 3 4 5 6 
#
# 1 116.8900 114.0310 97.4320 0.0000 0.0000 0.0000
# 2 114.0310 210.2475 92.0738 0.0000 0.0000 0.0000
# 3 97.4320 92.0738 206.9216 0.0000 0.0000 0.0000
# 4 0.0000 0.0000 0.0000 -25.9090 0.0000 0.0000
# 5 0.0000 0.0000 0.0000 0.0000 46.0890 0.0000
# 6 0.0000 0.0000 0.0000 0.0000 0.0000 50.7595
#
#
#
# Elastic Compliance Matrix: (Units=1/GPa)
#
#
# Indices 1 2 3 4 5 6 
#
# 1 0.024094 -0.010060 -0.006869 0.000000 0.000000 0.000000
# 2 -0.010060 0.010108 0.000239 0.000000 0.000000 0.000000
# 3 -0.006869 0.000239 0.007961 0.000000 0.000000 0.000000
# 4 0.000000 0.000000 0.000000 -0.038597 0.000000 0.000000
# 5 0.000000 0.000000 0.000000 0.000000 0.021697 0.000000
# 6 0.000000 0.000000 0.000000 0.000000 0.000000 0.019701
#
#
# Mechanical properties :
#
#
# Convention : Reuss Voigt Hill
#
# Bulk Modulus (GPa) = 113.84806 126.79251 120.32029
# Shear Modulus (GPa) = 61.52307 29.55605 45.53956
#
# Velocity S-wave (km/s) = 5.61741 3.89350 4.83294
# Velocity P-wave (km/s) = 10.02331 9.23280 9.63616
#
# Compressibility (1/GPa) = 0.00878364
#
# Stress axis : x y z
#
# Youngs Moduli (GPa) = 41.50378 98.93510 125.61918
#
# Poissons Ratio (x) = 0.99527 0.86285
# Poissons Ratio (y) = 0.41752 -0.03005
# Poissons Ratio (z) = 0.28508 -0.02367
#
# Static dielectric constant tensor:
#      x y z
#    x 3.792770 0.000000 0.000000 
#    y 0.000000 4.077110 0.000000 
#    z 0.000000 0.000000 3.870340 
# 
# 
# High freq. dielectric constant tensor:
#      x y z
#    x 1.772480 0.000000 0.000000 
#    y 0.000000 1.780050 0.000000 
#    z 0.000000 0.000000 1.787720 
# 
# From -- ./inp_files/8233.got.cif
#   From: 2010.03.12/outbox.cif.g09.slc.cpg/sg65_5_cif.got.tgz:8233.got - 2010.04.10 20:52:16.
