data_PCOD8274643
_publ_section_title
;
Structure prediction by ZEFSAII (Michael W. Deem and Ramdas Pophale) SiO2 
 PCOD8274643
Probable space group: C M M M
;
_chemical_formula_sum "Si O2"
_cell_formula_units_Z 88
_cell_length_a 24.290604
_cell_length_b 27.925146
_cell_length_c 9.422604
_cell_angle_alpha 90.000000
_cell_angle_beta 90.000000
_cell_angle_gamma 90.000000
_cell_volume 6391.528148
_symmetry_space_group_name_H-M "C M M M"
_symmetry_group_IT_number 65
_symmetry_cell_setting 'orthorhombic'
loop_
_space_group_symop_operation_xyz
x,y,z
-x,-y,z
x,-y,-z
-x,y,-z
-x,-y,-z
x,y,-z
-x,y,z
x,-y,z
1/2+x,1/2+y,z
1/2-x,1/2-y,z
1/2+x,1/2-y,-z
1/2-x,1/2+y,-z
1/2-x,1/2-y,-z
1/2+x,1/2+y,-z
1/2-x,1/2+y,z
1/2+x,1/2-y,z
loop_
_atom_site_type_symbol
_atom_site_label
_atom_site_fract_x
_atom_site_fract_y
_atom_site_fract_z
Si Si1 0.368278 0.425088 0.167046
Si Si2 0.813846 0.263625 0.340544
Si Si3 0.789336 0.650600 0.840722
Si Si4 0.837920 0.821315 0.157179
Si Si5 0.253509 0.947990 0.831659
Si Si6 0.434963 0.500000 0.663386
O O1 0.373532 0.368152 0.197884
O O2 0.309054 0.443518 0.222449
O O3 0.413954 0.452319 0.257835
O O4 0.376308 0.435970 0.000000
O O5 0.835593 0.269554 0.500000
O O6 0.750000 0.250000 0.337341
O O7 0.823684 0.313813 0.259564
O O8 0.849400 0.221725 0.266548
O O9 0.725790 0.664819 0.843365
O O10 0.792049 0.595991 0.777837
O O11 0.813882 0.653891 0.000000
O O12 0.854315 0.803330 0.000000
O O13 0.277260 0.000000 0.783514
O O14 0.251574 0.943186 0.000000
O O15 0.500000 0.500000 0.673523
O O16 0.415135 0.500000 0.500000
#
# Coordination Sequence:
#
# PCOD8274643 Si02
#       6
#    16  16  16  16  16   8
#     4   9  16  28  44  55  62  76 103 135 163 197
#     4   9  15  21  29  43  64  86 102 120 147 184
#     4   8  13  20  31  45  61  82 103 126 155 186
#     4   8  14  23  36  51  62  75  97 126 157 189
#     4   8  12  20  36  52  63  77 104 140 169 192
#     4  11  23  33  39  51  71  89 103 127 167 211
#
# _framework density 13.768224999999999
#
# number of rings (size 3 to 8) (size 9 to 14) (size 15 to 20)
#    0.000    3.364    0.909    3.000    0.000    3.636 
#    0.000    2.727    0.000    0.000    0.000    0.000 
#    0.000    0.000    0.000    0.000    0.000    0.000 
#
# Total GULP energy -545153.387555 kJ/mol
# GULP energy per Si atom -12389.849717 kJ/mol
# Density = 1.373689 g / cm^3
# Si number density = 13.768225 Si / 1000 Ang^3
#
#
#
# Elastic Constant Matrix: (Units=GPa)
#
#
# Indices 1 2 3 4 5 6 
#
# 1 13.8125 21.7730 17.9738 0.0000 0.0000 0.0000
# 2 21.7730 139.9122 64.7470 0.0000 0.0000 0.0000
# 3 17.9738 64.7470 85.9911 0.0000 0.0000 0.0000
# 4 0.0000 0.0000 0.0000 8.9019 0.0000 0.0000
# 5 0.0000 0.0000 0.0000 0.0000 9.4866 0.0000
# 6 0.0000 0.0000 0.0000 0.0000 0.0000 9.4168
#
#
#
# Elastic Compliance Matrix: (Units=1/GPa)
#
#
# Indices 1 2 3 4 5 6 
#
# 1 0.107401 -0.009708 -0.015140 0.000000 0.000000 0.000000
# 2 -0.009708 0.011847 -0.006891 0.000000 0.000000 0.000000
# 3 -0.015140 -0.006891 0.019982 0.000000 0.000000 0.000000
# 4 0.000000 0.000000 0.000000 0.112336 0.000000 0.000000
# 5 0.000000 0.000000 0.000000 0.000000 0.105411 0.000000
# 6 0.000000 0.000000 0.000000 0.000000 0.000000 0.106193
#
#
# Mechanical properties :
#
#
# Convention : Reuss Voigt Hill
#
# Bulk Modulus (GPa) = 13.20065 49.85594 31.52829
# Shear Modulus (GPa) = 9.05963 14.57586 11.81774
#
# Velocity S-wave (km/s) = 2.56795 3.25723 2.93291
# Velocity P-wave (km/s) = 4.28965 7.10180 5.86671
#
# Compressibility (1/GPa) = 0.07575384
#
# Stress axis : x y z
#
# Youngs Moduli (GPa) = 9.31087 84.40935 50.04423
#
# Poissons Ratio (x) = 0.81940 0.75766
# Poissons Ratio (y) = 0.09039 0.34486
# Poissons Ratio (z) = 0.14096 0.58168
#
# Static dielectric constant tensor:
#      x y z
#    x 2.055790 0.000000 0.000000 
#    y 0.000000 3.147760 0.000000 
#    z 0.000000 0.000000 2.726660 
# 
# 
# High freq. dielectric constant tensor:
#      x y z
#    x 1.430210 0.000000 0.000000 
#    y 0.000000 1.543900 0.000000 
#    z 0.000000 0.000000 1.515840 
# 
# From -- ./inp_files/12616.got.cif
#   From: 2010.03.12/outbox.cif.g09.slc.cpg/sg65_7_cif.got.tgz:12616.got - 2010.04.10 20:52:16.
