data_PCOD8274823
_publ_section_title
;
Structure prediction by ZEFSAII (Michael W. Deem and Ramdas Pophale) SiO2 
 PCOD8274823
Probable space group: C M M M
;
_chemical_formula_sum "Si O2"
_cell_formula_units_Z 112
_cell_length_a 13.951073
_cell_length_b 30.685316
_cell_length_c 14.477141
_cell_angle_alpha 90.000000
_cell_angle_beta 90.000000
_cell_angle_gamma 90.000000
_cell_volume 6197.563932
_symmetry_space_group_name_H-M "C M M M"
_symmetry_group_IT_number 65
_symmetry_cell_setting 'orthorhombic'
loop_
_space_group_symop_operation_xyz
x,y,z
-x,-y,z
x,-y,-z
-x,y,-z
-x,-y,-z
x,y,-z
-x,y,z
x,-y,z
1/2+x,1/2+y,z
1/2-x,1/2-y,z
1/2+x,1/2-y,-z
1/2-x,1/2+y,-z
1/2-x,1/2-y,-z
1/2+x,1/2+y,-z
1/2-x,1/2+y,z
1/2+x,1/2-y,z
loop_
_atom_site_type_symbol
_atom_site_label
_atom_site_fract_x
_atom_site_fract_y
_atom_site_fract_z
Si Si1 0.113079 0.229631 0.102996
Si Si2 0.389299 0.657952 0.750055
Si Si3 0.613112 0.270425 0.603016
Si Si4 0.114397 0.297940 0.250037
Si Si5 0.791449 0.391855 0.750029
Si Si6 0.890528 0.549458 0.606941
Si Si7 0.608630 0.049812 0.106702
O O1 0.137084 0.185706 0.158850
O O2 0.151795 0.271846 0.159082
O O3 0.000000 0.234193 0.095995
O O4 0.158677 0.228069 0.000000
O O5 0.500000 0.643338 0.749854
O O6 0.362562 0.685745 0.659080
O O7 0.323282 0.614891 0.750149
O O8 0.658662 0.272013 0.500000
O O9 0.500000 0.266034 0.596085
O O10 0.651611 0.228091 0.658846
O O11 0.157296 0.345514 0.249948
O O12 0.000000 0.300540 0.249872
O O13 0.819629 0.418561 0.659496
O O14 0.819872 0.418602 0.840439
O O15 0.865377 0.553143 0.500000
O O16 0.875088 0.500000 0.641648
O O17 0.000000 0.563598 0.625629
O O18 0.500000 0.056733 0.142869
O O19 0.639819 0.000000 0.123154
O O20 0.614819 0.062174 0.000000
#
# Coordination Sequence:
#
# PCOD8274823 Si02
#       7
#    16  16  16  16  16  16  16
#     4   8  15  31  50  63  89 135 172 203 248 292
#     4   9  20  35  48  68  96 130 179 220 240 275
#     4   8  15  31  50  63  89 135 172 203 248 292
#     4   9  18  29  43  72 102 120 154 204 251 303
#     4  12  21  30  51  78 102 130 163 205 252 287
#     4   9  19  36  56  78 104 131 156 184 231 305
#     4   9  19  36  56  78 104 131 156 184 231 305
#
# _framework density 18.071615999999999
#
# number of rings (size 3 to 8) (size 9 to 14) (size 15 to 20)
#    0.000    2.857    0.000    4.286    0.000    5.714 
#    0.000    4.286    0.000    1.714    0.000    2.000 
#    0.000    0.000    0.000    0.000    0.000    0.000 
#
# Total GULP energy -694238.832102 kJ/mol
# GULP energy per Si atom -12397.122002 kJ/mol
# Density = 1.803048 g / cm^3
# Si number density = 18.071616 Si / 1000 Ang^3
#
#
#
# Elastic Constant Matrix: (Units=GPa)
#
#
# Indices 1 2 3 4 5 6 
#
# 1 76.4029 56.2982 33.1810 0.0000 0.0000 0.0000
# 2 56.2982 104.0475 53.3389 0.0000 0.0000 0.0000
# 3 33.1810 53.3389 136.7855 0.0000 0.0000 0.0000
# 4 0.0000 0.0000 0.0000 27.9558 0.0000 0.0000
# 5 0.0000 0.0000 0.0000 0.0000 7.7738 0.0000
# 6 0.0000 0.0000 0.0000 0.0000 0.0000 34.0379
#
#
#
# Elastic Compliance Matrix: (Units=1/GPa)
#
#
# Indices 1 2 3 4 5 6 
#
# 1 0.021848 -0.011379 -0.000862 0.000000 0.000000 0.000000
# 2 -0.011379 0.017939 -0.004235 0.000000 0.000000 0.000000
# 3 -0.000862 -0.004235 0.009171 0.000000 0.000000 0.000000
# 4 0.000000 0.000000 0.000000 0.035771 0.000000 0.000000
# 5 0.000000 0.000000 0.000000 0.000000 0.128637 0.000000
# 6 0.000000 0.000000 0.000000 0.000000 0.000000 0.029379
#
#
# Mechanical properties :
#
#
# Convention : Reuss Voigt Hill
#
# Bulk Modulus (GPa) = 62.48076 66.98577 64.73326
# Shear Modulus (GPa) = 17.79139 25.58134 21.68637
#
# Velocity S-wave (km/s) = 3.14107 3.76647 3.46789
# Velocity P-wave (km/s) = 6.91405 7.48748 7.20647
#
# Compressibility (1/GPa) = 0.01600493
#
# Stress axis : x y z
#
# Youngs Moduli (GPa) = 45.77042 55.74380 109.03559
#
# Poissons Ratio (x) = 0.63434 0.09404
# Poissons Ratio (y) = 0.52084 0.46176
# Poissons Ratio (z) = 0.03948 0.23607
#
# Static dielectric constant tensor:
#      x y z
#    x 3.242680 0.000000 0.000000 
#    y 0.000000 3.165950 0.000000 
#    z 0.000000 0.000000 4.202140 
# 
# 
# High freq. dielectric constant tensor:
#      x y z
#    x 1.685910 0.000000 0.000000 
#    y 0.000000 1.678430 0.000000 
#    z 0.000000 0.000000 1.712690 
# 
# From -- ./inp_files/40782.got.cif
#   From: 2010.03.12/outbox.cif.g09.slc.cpg/sg65_21_cif.got.tgz:40782.got - 2010.04.10 20:52:16.
