data_PCOD8274990
_publ_section_title
;
Structure prediction by ZEFSAII (Michael W. Deem and Ramdas Pophale) SiO2 
 PCOD8274990
Probable space group: C M M M
;
_chemical_formula_sum "Si O2"
_cell_formula_units_Z 72
_cell_length_a 20.234938
_cell_length_b 9.280135
_cell_length_c 23.102379
_cell_angle_alpha 90.000000
_cell_angle_beta 90.000000
_cell_angle_gamma 90.000000
_cell_volume 4338.233027
_symmetry_space_group_name_H-M "C M M M"
_symmetry_group_IT_number 65
_symmetry_cell_setting 'orthorhombic'
loop_
_space_group_symop_operation_xyz
x,y,z
-x,-y,z
x,-y,-z
-x,y,-z
-x,-y,-z
x,y,-z
-x,y,z
x,-y,z
1/2+x,1/2+y,z
1/2-x,1/2-y,z
1/2+x,1/2-y,-z
1/2-x,1/2+y,-z
1/2-x,1/2-y,-z
1/2+x,1/2+y,-z
1/2-x,1/2+y,z
1/2+x,1/2-y,z
loop_
_atom_site_type_symbol
_atom_site_label
_atom_site_fract_x
_atom_site_fract_y
_atom_site_fract_z
Si Si1 0.421503 0.660350 0.281144
Si Si2 0.316020 0.331287 0.933625
Si Si3 0.926626 0.828519 0.846588
Si Si4 0.421149 0.837646 0.610726
Si Si5 0.078746 0.163092 0.500000
O O1 0.500000 0.651740 0.285195
O O2 0.392238 0.500000 0.291423
O O3 0.402034 0.719817 0.217396
O O4 0.393304 0.766802 0.330221
O O5 0.304552 0.500000 0.923465
O O6 0.250000 0.250000 0.914425
O O7 0.375899 0.270438 0.894670
O O8 0.334115 0.297377 0.000000
O O9 0.000000 0.766064 0.859870
O O10 0.930159 0.000000 0.848034
O O11 0.500000 0.838318 0.610869
O O12 0.394440 0.745728 0.556544
O O13 0.393721 0.000000 0.606107
O O14 0.000000 0.161683 0.500000
O O15 0.106183 0.000000 0.500000
#
# Coordination Sequence:
#
# PCOD8274990 Si02
#       5
#    16  16  16  16   8
#     4   8  13  22  35  49  67  93 125 161 201 243
#     4   9  17  29  45  64  86 112 140 171 210 255
#     4   8  14  25  42  63  83 105 139 180 214 246
#     4   9  15  21  29  43  65  92 123 160 200 240
#     4   9  15  21  29  41  59  89 130 167 196 231
#
# _framework density 16.596617999999999
#
# number of rings (size 3 to 8) (size 9 to 14) (size 15 to 20)
#    0.000    3.444    0.000    2.333    0.000    4.444 
#    0.000    3.333    0.000    2.000    0.000    3.111 
#    0.000    0.000    0.000    1.000    0.000   13.111 
#
# Total GULP energy -446182.670071 kJ/mol
# GULP energy per Si atom -12393.963058 kJ/mol
# Density = 1.655884 g / cm^3
# Si number density = 16.596618 Si / 1000 Ang^3
#
#
#
# Elastic Constant Matrix: (Units=GPa)
#
#
# Indices 1 2 3 4 5 6 
#
# 1 49.8989 26.9211 57.9393 0.0000 0.0000 0.0000
# 2 26.9211 85.4302 59.7634 0.0000 0.0000 0.0000
# 3 57.9393 59.7634 151.0916 0.0000 0.0000 0.0000
# 4 0.0000 0.0000 0.0000 18.4276 0.0000 0.0000
# 5 0.0000 0.0000 0.0000 0.0000 2.5078 0.0000
# 6 0.0000 0.0000 0.0000 0.0000 0.0000 11.7140
#
#
#
# Elastic Compliance Matrix: (Units=1/GPa)
#
#
# Indices 1 2 3 4 5 6 
#
# 1 0.036468 -0.002363 -0.013050 0.000000 0.000000 0.000000
# 2 -0.002363 0.016337 -0.005556 0.000000 0.000000 0.000000
# 3 -0.013050 -0.005556 0.013820 0.000000 0.000000 0.000000
# 4 0.000000 0.000000 0.000000 0.054266 0.000000 0.000000
# 5 0.000000 0.000000 0.000000 0.000000 0.398750 0.000000
# 6 0.000000 0.000000 0.000000 0.000000 0.000000 0.085368
#
#
# Mechanical properties :
#
#
# Convention : Reuss Voigt Hill
#
# Bulk Modulus (GPa) = 40.50550 63.96314 52.23432
# Shear Modulus (GPa) = 7.63155 15.98303 11.80729
#
# Velocity S-wave (km/s) = 2.14668 3.10664 2.67015
# Velocity P-wave (km/s) = 5.53201 7.17578 6.40683
#
# Compressibility (1/GPa) = 0.02468800
#
# Stress axis : x y z
#
# Youngs Moduli (GPa) = 27.42141 61.21210 72.35743
#
# Poissons Ratio (x) = 0.14463 0.94425
# Poissons Ratio (y) = 0.06479 0.40200
# Poissons Ratio (z) = 0.35784 0.34008
#
# Static dielectric constant tensor:
#      x y z
#    x 2.671450 0.000000 0.000000 
#    y 0.000000 3.075830 0.000000 
#    z 0.000000 0.000000 3.464730 
# 
# 
# High freq. dielectric constant tensor:
#      x y z
#    x 1.565790 0.000000 0.000000 
#    y 0.000000 1.622610 0.000000 
#    z 0.000000 0.000000 1.655990 
# 
# From -- ./inp_files/59527.got.cif
#   From: 2010.03.12/outbox.cif.g09.slc.cpg/sg65_30_cif.got.tgz:59527.got - 2010.04.10 20:52:16.
