data_PCOD8274074
_publ_section_title
;
Structure prediction by ZEFSAII (Michael W. Deem and Ramdas Pophale) SiO2 
 PCOD8274074
Probable space group: C M M M
;
_chemical_formula_sum "Si O2"
_cell_formula_units_Z 104
_cell_length_a 21.313550
_cell_length_b 8.578676
_cell_length_c 26.529888
_cell_angle_alpha 90.000000
_cell_angle_beta 90.000000
_cell_angle_gamma 90.000000
_cell_volume 4850.778839
_symmetry_space_group_name_H-M "C M M M"
_symmetry_group_IT_number 65
_symmetry_cell_setting 'orthorhombic'
loop_
_space_group_symop_operation_xyz
x,y,z
-x,-y,z
x,-y,-z
-x,y,-z
-x,-y,-z
x,y,-z
-x,y,z
x,-y,z
1/2+x,1/2+y,z
1/2-x,1/2-y,z
1/2+x,1/2-y,-z
1/2-x,1/2+y,-z
1/2-x,1/2-y,-z
1/2+x,1/2+y,-z
1/2-x,1/2+y,z
1/2+x,1/2-y,z
loop_
_atom_site_type_symbol
_atom_site_label
_atom_site_fract_x
_atom_site_fract_y
_atom_site_fract_z
Si Si1 0.373761 0.183270 0.284311
Si Si2 0.184598 0.816799 0.380197
Si Si3 0.500000 0.183813 0.843395
Si Si4 0.125648 0.317991 0.099306
Si Si5 0.319817 0.681771 0.000000
Si Si6 0.929144 0.321559 0.559351
Si Si7 0.000000 0.184674 0.268643
Si Si8 0.813205 0.182738 0.808297
O O1 0.323922 0.237953 0.325660
O O2 0.443010 0.237695 0.299875
O O3 0.366662 0.271665 0.231077
O O4 0.368390 0.000000 0.275806
O O5 0.250000 0.750000 0.403289
O O6 0.124608 0.781287 0.414944
O O7 0.191048 0.000000 0.373750
O O8 0.559374 0.233963 0.877045
O O9 0.500000 0.273371 0.790589
O O10 0.500000 0.000000 0.831410
O O11 0.128143 0.500000 0.088167
O O12 0.138758 0.230244 0.047665
O O13 0.179030 0.270636 0.138831
O O14 0.250000 0.750000 0.000000
O O15 0.310356 0.500000 0.000000
O O16 0.919550 0.307012 0.500000
O O17 0.920157 0.500000 0.577024
O O18 0.000000 0.265138 0.573526
O O19 0.000000 0.000000 0.275528
O O20 0.750000 0.250000 0.783616
O O21 0.811441 0.000000 0.817432
#
# Coordination Sequence:
#
# PCOD8274074 Si02
#       8
#    16  16   8  16   8  16   8  16
#     4  12  25  43  65  92 130 174 217 267 327 389
#     4  12  26  44  66  97 137 179 228 283 340 401
#     4  10  22  41  67  94 127 163 203 249 308 372
#     4  11  23  42  66  93 124 161 204 253 310 375
#     4  12  26  45  66  91 123 160 204 256 311 369
#     4   9  20  42  71 101 135 177 226 279 339 405
#     4  12  24  40  65  97 131 169 219 269 318 382
#     4  12  24  40  62  91 124 164 210 260 316 380
#
# _framework density 21.439855999999999
#
# number of rings (size 3 to 8) (size 9 to 14) (size 15 to 20)
#    0.000    0.769    1.538    7.385    1.077    1.846 
#    0.000    2.308    0.000    0.000    0.000    0.000 
#    0.000    0.000    0.000    0.000    0.000    0.000 
#
# Total GULP energy -644966.574928 kJ/mol
# GULP energy per Si atom -12403.203364 kJ/mol
# Density = 2.139106 g / cm^3
# Si number density = 21.439856 Si / 1000 Ang^3
#
#
#
# Elastic Constant Matrix: (Units=GPa)
#
#
# Indices 1 2 3 4 5 6 
#
# 1 125.6518 39.2207 24.9946 0.0000 0.0000 0.0000
# 2 39.2207 96.2707 19.2174 0.0000 0.0000 0.0000
# 3 24.9946 19.2174 66.7317 0.0000 0.0000 0.0000
# 4 0.0000 0.0000 0.0000 36.3979 0.0000 0.0000
# 5 0.0000 0.0000 0.0000 0.0000 29.4524 0.0000
# 6 0.0000 0.0000 0.0000 0.0000 0.0000 38.0353
#
#
#
# Elastic Compliance Matrix: (Units=1/GPa)
#
#
# Indices 1 2 3 4 5 6 
#
# 1 0.009525 -0.003362 -0.002600 0.000000 0.000000 0.000000
# 2 -0.003362 0.012207 -0.002256 0.000000 0.000000 0.000000
# 3 -0.002600 -0.002256 0.016609 0.000000 0.000000 0.000000
# 4 0.000000 0.000000 0.000000 0.027474 0.000000 0.000000
# 5 0.000000 0.000000 0.000000 0.000000 0.033953 0.000000
# 6 0.000000 0.000000 0.000000 0.000000 0.000000 0.026291
#
#
# Mechanical properties :
#
#
# Convention : Reuss Voigt Hill
#
# Bulk Modulus (GPa) = 45.64934 50.61330 48.13132
# Shear Modulus (GPa) = 33.37864 34.45856 33.91860
#
# Velocity S-wave (km/s) = 3.94997 4.01336 3.98180
# Velocity P-wave (km/s) = 6.49162 6.71822 6.60589
#
# Compressibility (1/GPa) = 0.02190612
#
# Stress axis : x y z
#
# Youngs Moduli (GPa) = 104.98847 81.91841 60.20893
#
# Poissons Ratio (x) = 0.27537 0.15651
# Poissons Ratio (y) = 0.35292 0.13585
# Poissons Ratio (z) = 0.27292 0.18484
#
# Static dielectric constant tensor:
#      x y z
#    x 4.148840 0.000000 0.000000 
#    y 0.000000 3.800950 0.000000 
#    z 0.000000 0.000000 3.762130 
# 
# 
# High freq. dielectric constant tensor:
#      x y z
#    x 1.861280 0.000000 0.000000 
#    y 0.000000 1.845810 0.000000 
#    z 0.000000 0.000000 1.838690 
# 
# From -- ./inp_files/75565.got.cif
#   From: 2010.03.12/outbox.cif.g09.slc.cpg/sg65_38_cif.got.tgz:75565.got - 2010.04.10 20:52:16.
