data_PCOD8274847
_publ_section_title
;
Structure prediction by ZEFSAII (Michael W. Deem and Ramdas Pophale) SiO2 
 PCOD8274847
Probable space group: C M M M
;
_chemical_formula_sum "Si O2"
_cell_formula_units_Z 88
_cell_length_a 8.226970
_cell_length_b 18.921241
_cell_length_c 29.894026
_cell_angle_alpha 90.000000
_cell_angle_beta 90.000000
_cell_angle_gamma 90.000000
_cell_volume 4653.438074
_symmetry_space_group_name_H-M "C M M M"
_symmetry_group_IT_number 65
_symmetry_cell_setting 'orthorhombic'
loop_
_space_group_symop_operation_xyz
x,y,z
-x,-y,z
x,-y,-z
-x,y,-z
-x,-y,-z
x,y,-z
-x,y,z
x,-y,z
1/2+x,1/2+y,z
1/2-x,1/2-y,z
1/2+x,1/2-y,-z
1/2-x,1/2+y,-z
1/2-x,1/2-y,-z
1/2+x,1/2+y,-z
1/2-x,1/2+y,z
1/2+x,1/2-y,z
loop_
_atom_site_type_symbol
_atom_site_label
_atom_site_fract_x
_atom_site_fract_y
_atom_site_fract_z
Si Si1 0.685884 0.827773 0.127607
Si Si2 0.000000 0.084105 0.449025
Si Si3 0.690801 0.577819 0.049317
Si Si4 0.819801 0.083878 0.306113
Si Si5 0.191790 0.918767 0.207358
Si Si6 0.319797 0.084061 0.602475
O O1 0.500000 0.823546 0.115586
O O2 0.750000 0.750000 0.136145
O O3 0.769105 0.862968 0.085112
O O4 0.711542 0.872271 0.172342
O O5 0.832731 0.113838 0.426526
O O6 0.000000 0.109963 0.500000
O O7 0.000000 0.000000 0.445105
O O8 0.500000 0.572072 0.046376
O O9 0.759908 0.500000 0.063268
O O10 0.759560 0.598595 0.000000
O O11 0.757309 0.108021 0.257171
O O12 0.702002 0.109417 0.346010
O O13 0.000000 0.114571 0.315447
O O14 0.831748 0.000000 0.305588
O O15 0.000000 0.909400 0.200164
O O16 0.242312 0.000000 0.200249
O O17 0.500000 0.110851 0.586212
O O18 0.316338 0.000000 0.599474
#
# Coordination Sequence:
#
# PCOD8274847 Si02
#       6
#    16   8  16  16  16  16
#     4  12  25  38  53  74 105 141 174 211 252 305
#     4   9  16  24  32  44  70 108 150 196 243 297
#     4   9  19  38  63  86 107 133 166 206 254 306
#     4   8  13  24  42  62  85 113 146 190 244 295
#     4   9  18  33  54  77 101 130 164 207 257 308
#     4   9  15  22  34  51  73 104 145 196 245 291
#
# _framework density 18.910748000000002
#
# number of rings (size 3 to 8) (size 9 to 14) (size 15 to 20)
#    0.000    2.636    0.909    3.818    0.000    4.727 
#    0.000    4.545    0.000    0.000    0.000    0.000 
#    0.000    0.000    0.000    0.000    0.000    0.909 
#
# Total GULP energy -545195.332047 kJ/mol
# GULP energy per Si atom -12390.803001 kJ/mol
# Density = 1.886771 g / cm^3
# Si number density = 18.910748 Si / 1000 Ang^3
#
#
#
# Elastic Constant Matrix: (Units=GPa)
#
#
# Indices 1 2 3 4 5 6 
#
# 1 95.3889 16.0915 49.4412 0.0000 0.0000 0.0000
# 2 16.0915 46.2106 27.3807 0.0000 0.0000 0.0000
# 3 49.4412 27.3807 128.3501 0.0000 0.0000 0.0000
# 4 0.0000 0.0000 0.0000 -1.2823 0.0000 0.0000
# 5 0.0000 0.0000 0.0000 0.0000 18.3869 0.0000
# 6 0.0000 0.0000 0.0000 0.0000 0.0000 16.1664
#
#
#
# Elastic Compliance Matrix: (Units=1/GPa)
#
#
# Indices 1 2 3 4 5 6 
#
# 1 0.013231 -0.001817 -0.004709 0.000000 0.000000 0.000000
# 2 -0.001817 0.025021 -0.004638 0.000000 0.000000 0.000000
# 3 -0.004709 -0.004638 0.010594 0.000000 0.000000 0.000000
# 4 0.000000 0.000000 0.000000 -0.779855 0.000000 0.000000
# 5 0.000000 0.000000 0.000000 0.000000 0.054387 0.000000
# 6 0.000000 0.000000 0.000000 0.000000 0.000000 0.061857
#
#
# Mechanical properties :
#
#
# Convention : Reuss Voigt Hill
#
# Bulk Modulus (GPa) = 37.70951 50.64180 44.17566
# Shear Modulus (GPa) = -8.56753 18.45660 4.94454
#
# Velocity S-wave (km/s) = -2.13081 3.12746 1.61875
# Velocity P-wave (km/s) = 3.73233 6.31497 5.18696
#
# Compressibility (1/GPa) = 0.02651851
#
# Stress axis : x y z
#
# Youngs Moduli (GPa) = 75.58237 39.96686 94.38929
#
# Poissons Ratio (x) = 0.07262 0.44447
# Poissons Ratio (y) = 0.13734 0.43775
# Poissons Ratio (z) = 0.35591 0.18535
#
# Static dielectric constant tensor:
#      x y z
#    x 3.571120 0.000000 0.000000 
#    y 0.000000 2.914780 0.000000 
#    z 0.000000 0.000000 3.738150 
# 
# 
# High freq. dielectric constant tensor:
#      x y z
#    x 1.734810 0.000000 0.000000 
#    y 0.000000 1.666580 0.000000 
#    z 0.000000 0.000000 1.747260 
# 
# From -- ./inp_files/76705.got.cif
#   From: 2010.03.12/outbox.cif.g09.slc.cpg/sg65_39_cif.got.tgz:76705.got - 2010.04.10 20:52:16.
