data_PCOD8274061
_publ_section_title
;
Structure prediction by ZEFSAII (Michael W. Deem and Ramdas Pophale) SiO2 
 PCOD8274061
Probable space group: C M M M
;
_chemical_formula_sum "Si O2"
_cell_formula_units_Z 72
_cell_length_a 8.875964
_cell_length_b 17.813606
_cell_length_c 22.660523
_cell_angle_alpha 90.000000
_cell_angle_beta 90.000000
_cell_angle_gamma 90.000000
_cell_volume 3582.921586
_symmetry_space_group_name_H-M "C M M M"
_symmetry_group_IT_number 65
_symmetry_cell_setting 'orthorhombic'
loop_
_space_group_symop_operation_xyz
x,y,z
-x,-y,z
x,-y,-z
-x,y,-z
-x,-y,-z
x,y,-z
-x,y,z
x,-y,z
1/2+x,1/2+y,z
1/2-x,1/2-y,z
1/2+x,1/2-y,-z
1/2-x,1/2+y,-z
1/2-x,1/2-y,-z
1/2+x,1/2+y,-z
1/2-x,1/2+y,z
1/2+x,1/2-y,z
loop_
_atom_site_type_symbol
_atom_site_label
_atom_site_fract_x
_atom_site_fract_y
_atom_site_fract_z
Si Si1 0.174416 0.086657 0.712912
Si Si2 0.678403 0.830864 0.392519
Si Si3 0.325839 0.327617 0.830259
Si Si4 0.670796 0.588703 0.500000
Si Si5 0.324807 0.914919 0.067514
O O1 0.278461 0.136340 0.670961
O O2 0.206430 0.111182 0.779808
O O3 0.000000 0.099678 0.695767
O O4 0.219687 0.000000 0.706461
O O5 0.500000 0.824489 0.397793
O O6 0.750000 0.750000 0.401875
O O7 0.741480 0.885503 0.442254
O O8 0.500000 0.311112 0.838026
O O9 0.250000 0.250000 0.811707
O O10 0.265548 0.357733 0.892128
O O11 0.667718 0.500000 0.500000
O O12 0.500000 0.620616 0.500000
O O13 0.500000 0.907979 0.082494
O O14 0.269745 0.000000 0.079008
O O15 0.293351 0.892344 0.000000
#
# Coordination Sequence:
#
# PCOD8274061 Si02
#       5
#    16  16  16   8  16
#     4  10  22  41  63  88 119 153 192 240 294 350
#     4  12  25  41  63  91 123 158 199 244 291 345
#     4  11  23  38  58  85 117 154 195 240 290 345
#     4  11  24  43  66  91 123 161 198 241 294 347
#     4   9  19  37  60  85 114 149 190 238 292 349
#
# _framework density 20.095331000000002
#
# number of rings (size 3 to 8) (size 9 to 14) (size 15 to 20)
#    0.000    1.444    0.000    6.000    0.000    9.778 
#    0.000    1.111    0.000    0.000    0.000    0.000 
#    0.000    0.000    0.000    0.000    0.000    0.000 
#
# Total GULP energy -446621.831758 kJ/mol
# GULP energy per Si atom -12406.161993 kJ/mol
# Density = 2.004959 g / cm^3
# Si number density = 20.095331 Si / 1000 Ang^3
#
#
#
# Elastic Constant Matrix: (Units=GPa)
#
#
# Indices 1 2 3 4 5 6 
#
# 1 129.4051 45.9564 51.9165 0.0000 0.0000 0.0000
# 2 45.9564 90.1262 27.3316 0.0000 0.0000 0.0000
# 3 51.9165 27.3316 94.7276 0.0000 0.0000 0.0000
# 4 0.0000 0.0000 0.0000 33.3115 0.0000 0.0000
# 5 0.0000 0.0000 0.0000 0.0000 83.2435 0.0000
# 6 0.0000 0.0000 0.0000 0.0000 0.0000 28.6749
#
#
#
# Elastic Compliance Matrix: (Units=1/GPa)
#
#
# Indices 1 2 3 4 5 6 
#
# 1 0.011200 -0.004219 -0.004921 0.000000 0.000000 0.000000
# 2 -0.004219 0.013749 -0.001655 0.000000 0.000000 0.000000
# 3 -0.004921 -0.001655 0.013731 0.000000 0.000000 0.000000
# 4 0.000000 0.000000 0.000000 0.030020 0.000000 0.000000
# 5 0.000000 0.000000 0.000000 0.000000 0.012013 0.000000
# 6 0.000000 0.000000 0.000000 0.000000 0.000000 0.034874
#
#
# Mechanical properties :
#
#
# Convention : Reuss Voigt Hill
#
# Bulk Modulus (GPa) = 58.51164 62.74090 60.62627
# Shear Modulus (GPa) = 34.99624 41.64959 38.32291
#
# Velocity S-wave (km/s) = 4.17767 4.55752 4.37172
# Velocity P-wave (km/s) = 7.24229 7.68011 7.46441
#
# Compressibility (1/GPa) = 0.01709062
#
# Stress axis : x y z
#
# Youngs Moduli (GPa) = 89.28373 72.73496 72.82721
#
# Poissons Ratio (x) = 0.30685 0.35840
# Poissons Ratio (y) = 0.37666 0.12051
# Poissons Ratio (z) = 0.43938 0.12036
#
# Static dielectric constant tensor:
#      x y z
#    x 3.705350 0.000000 0.000000 
#    y 0.000000 3.713520 0.000000 
#    z 0.000000 0.000000 3.715410 
# 
# 
# High freq. dielectric constant tensor:
#      x y z
#    x 1.787380 0.000000 0.000000 
#    y 0.000000 1.794750 0.000000 
#    z 0.000000 0.000000 1.796560 
# 
# From -- ./inp_files/67094.got.cif
#   From: 2010.03.12/outbox.cif.g09.slc.cpg/sg65_34_cif.got.tgz:67094.got - 2010.04.10 20:52:16.
