data_PCOD8274028
_publ_section_title
;
Structure prediction by ZEFSAII (Michael W. Deem and Ramdas Pophale) SiO2 
 PCOD8274028
Probable space group: C M M M
;
_chemical_formula_sum "Si O2"
_cell_formula_units_Z 72
_cell_length_a 8.819535
_cell_length_b 17.903125
_cell_length_c 23.099784
_cell_angle_alpha 90.000000
_cell_angle_beta 90.000000
_cell_angle_gamma 90.000000
_cell_volume 3647.392082
_symmetry_space_group_name_H-M "C M M M"
_symmetry_group_IT_number 65
_symmetry_cell_setting 'orthorhombic'
loop_
_space_group_symop_operation_xyz
x,y,z
-x,-y,z
x,-y,-z
-x,y,-z
-x,-y,-z
x,y,-z
-x,y,z
x,-y,z
1/2+x,1/2+y,z
1/2-x,1/2-y,z
1/2+x,1/2-y,-z
1/2-x,1/2+y,-z
1/2-x,1/2-y,-z
1/2+x,1/2+y,-z
1/2-x,1/2+y,z
1/2+x,1/2-y,z
loop_
_atom_site_type_symbol
_atom_site_label
_atom_site_fract_x
_atom_site_fract_y
_atom_site_fract_z
Si Si1 0.321128 0.670507 0.325882
Si Si2 0.675255 0.913545 0.776733
Si Si3 0.827102 0.911728 0.000000
Si Si4 0.819851 0.916314 0.436075
Si Si5 0.821012 0.669014 0.893615
O O1 0.500000 0.679422 0.327446
O O2 0.250000 0.750000 0.311585
O O3 0.277259 0.611725 0.276763
O O4 0.256867 0.639936 0.387326
O O5 0.500000 0.899097 0.761490
O O6 0.725525 0.866733 0.832551
O O7 0.706969 0.000000 0.789651
O O8 0.743156 0.883056 0.943414
O O9 0.000000 0.882999 0.000000
O O10 0.818426 0.000000 0.000000
O O11 0.766307 0.889223 0.500000
O O12 0.000000 0.918347 0.433265
O O13 0.757608 0.000000 0.424259
O O14 0.750000 0.750000 0.898764
O O15 0.000000 0.674764 0.900735
#
# Coordination Sequence:
#
# PCOD8274028 Si02
#       5
#    16  16   8  16  16
#     4  11  22  35  54  81 112 148 188 230 279 332
#     4  10  22  40  61  85 113 146 185 231 282 334
#     4  11  24  41  62  89 119 151 190 235 280 327
#     4   8  15  30  52  77 105 139 182 230 278 331
#     4  11  23  40  62  87 117 152 189 229 277 332
#
# _framework density 19.740131999999999
#
# number of rings (size 3 to 8) (size 9 to 14) (size 15 to 20)
#    0.000    1.889    0.000    4.667    0.000    7.111 
#    0.000    0.000    0.000    2.000    0.000    7.778 
#    0.000    0.000    0.000    0.000    0.000    0.000 
#
# Total GULP energy -446491.488187 kJ/mol
# GULP energy per Si atom -12402.541339 kJ/mol
# Density = 1.969520 g / cm^3
# Si number density = 19.740132 Si / 1000 Ang^3
#
#
#
# Elastic Constant Matrix: (Units=GPa)
#
#
# Indices 1 2 3 4 5 6 
#
# 1 65.9795 25.6987 45.1742 0.0000 0.0000 0.0000
# 2 25.6987 79.0731 34.9301 0.0000 0.0000 0.0000
# 3 45.1742 34.9301 134.3154 0.0000 0.0000 0.0000
# 4 0.0000 0.0000 0.0000 28.2233 0.0000 0.0000
# 5 0.0000 0.0000 0.0000 0.0000 31.9599 0.0000
# 6 0.0000 0.0000 0.0000 0.0000 0.0000 20.0801
#
#
#
# Elastic Compliance Matrix: (Units=1/GPa)
#
#
# Indices 1 2 3 4 5 6 
#
# 1 0.020831 -0.004152 -0.005926 0.000000 0.000000 0.000000
# 2 -0.004152 0.015116 -0.002534 0.000000 0.000000 0.000000
# 3 -0.005926 -0.002534 0.010097 0.000000 0.000000 0.000000
# 4 0.000000 0.000000 0.000000 0.035432 0.000000 0.000000
# 5 0.000000 0.000000 0.000000 0.000000 0.031289 0.000000
# 6 0.000000 0.000000 0.000000 0.000000 0.000000 0.049801
#
#
# Mechanical properties :
#
#
# Convention : Reuss Voigt Hill
#
# Bulk Modulus (GPa) = 48.03481 54.55267 51.29374
# Shear Modulus (GPa) = 25.67650 27.62366 26.65008
#
# Velocity S-wave (km/s) = 3.61047 3.74487 3.67828
# Velocity P-wave (km/s) = 6.46274 6.81132 6.63932
#
# Compressibility (1/GPa) = 0.02081823
#
# Stress axis : x y z
#
# Youngs Moduli (GPa) = 48.00541 66.15703 99.03484
#
# Poissons Ratio (x) = 0.27469 0.58691
# Poissons Ratio (y) = 0.19933 0.25100
# Poissons Ratio (z) = 0.28449 0.16767
#
# Static dielectric constant tensor:
#      x y z
#    x 3.473170 0.000000 0.000000 
#    y 0.000000 3.688960 0.000000 
#    z 0.000000 0.000000 3.900750 
# 
# 
# High freq. dielectric constant tensor:
#      x y z
#    x 1.752300 0.000000 0.000000 
#    y 0.000000 1.779420 0.000000 
#    z 0.000000 0.000000 1.787580 
# 
# From -- ./inp_files/70321.got.cif
#   From: 2010.03.12/outbox.cif.g09.slc.cpg/sg65_36_cif.got.tgz:70321.got - 2010.04.10 20:52:16.
