data_PCOD8274645
_publ_section_title
;
Structure prediction by ZEFSAII (Michael W. Deem and Ramdas Pophale) SiO2 
 PCOD8274645
Probable space group: C M M M
;
_chemical_formula_sum "Si O2"
_cell_formula_units_Z 88
_cell_length_a 27.869616
_cell_length_b 24.090389
_cell_length_c 9.359784
_cell_angle_alpha 90.000000
_cell_angle_beta 90.000000
_cell_angle_gamma 90.000000
_cell_volume 6284.064357
_symmetry_space_group_name_H-M "C M M M"
_symmetry_group_IT_number 65
_symmetry_cell_setting 'orthorhombic'
loop_
_space_group_symop_operation_xyz
x,y,z
-x,-y,z
x,-y,-z
-x,y,-z
-x,-y,-z
x,y,-z
-x,y,z
x,-y,z
1/2+x,1/2+y,z
1/2-x,1/2-y,z
1/2+x,1/2-y,-z
1/2-x,1/2+y,-z
1/2-x,1/2-y,-z
1/2+x,1/2+y,-z
1/2-x,1/2+y,z
1/2+x,1/2-y,z
loop_
_atom_site_type_symbol
_atom_site_label
_atom_site_fract_x
_atom_site_fract_y
_atom_site_fract_z
Si Si1 0.946026 0.240149 0.164604
Si Si2 0.858896 0.778699 0.667596
Si Si3 0.240280 0.815557 0.341200
Si Si4 0.926001 0.367184 0.162102
Si Si5 0.500000 0.935057 0.666105
Si Si6 0.174335 0.671166 0.164375
O O1 0.909745 0.203379 0.262267
O O2 0.942045 0.305051 0.203762
O O3 0.000000 0.219512 0.195369
O O4 0.931690 0.231156 0.000000
O O5 0.865608 0.766908 0.500000
O O6 0.816630 0.824545 0.692415
O O7 0.843248 0.723222 0.746426
O O8 0.252232 0.837225 0.500000
O O9 0.250000 0.750000 0.330711
O O10 0.274692 0.849061 0.231098
O O11 0.951841 0.410070 0.265864
O O12 0.868075 0.374548 0.177227
O O13 0.942054 0.379783 0.000000
O O14 0.500000 0.920552 0.500000
O O15 0.500000 0.000000 0.695583
O O16 0.182535 0.688027 0.000000
#
# Coordination Sequence:
#
# PCOD8274645 Si02
#       6
#    16  16  16  16   8  16
#     4   9  16  26  37  49  65  83 108 140 166 193
#     4   9  16  23  31  46  66  86 107 128 155 191
#     4   8  14  23  32  45  66  86 103 124 151 187
#     4   9  17  30  42  52  65  81 102 129 163 204
#     4  11  23  33  41  55  69  81 103 135 169 209
#     4   9  16  24  36  51  64  79 101 127 154 189
#
# _framework density 14.003676
#
# number of rings (size 3 to 8) (size 9 to 14) (size 15 to 20)
#    0.000    3.000    0.909    3.545    0.000    8.727 
#    0.000    0.000    0.000    0.000    0.000    0.000 
#    0.000    0.000    0.000    0.000    0.000    0.000 
#
# Total GULP energy -545082.901014 kJ/mol
# GULP energy per Si atom -12388.247750 kJ/mol
# Density = 1.397180 g / cm^3
# Si number density = 14.003676 Si / 1000 Ang^3
#
#
#
# Elastic Constant Matrix: (Units=GPa)
#
#
# Indices 1 2 3 4 5 6 
#
# 1 129.9387 20.3236 72.9705 0.0000 0.0000 0.0000
# 2 20.3236 12.2761 18.1648 0.0000 0.0000 0.0000
# 3 72.9705 18.1648 97.6804 0.0000 0.0000 0.0000
# 4 0.0000 0.0000 0.0000 9.5729 0.0000 0.0000
# 5 0.0000 0.0000 0.0000 0.0000 31.2534 0.0000
# 6 0.0000 0.0000 0.0000 0.0000 0.0000 7.0153
#
#
#
# Elastic Compliance Matrix: (Units=1/GPa)
#
#
# Indices 1 2 3 4 5 6 
#
# 1 0.014225 -0.010797 -0.008618 0.000000 0.000000 0.000000
# 2 -0.010797 0.120577 -0.014357 0.000000 0.000000 0.000000
# 3 -0.008618 -0.014357 0.019346 0.000000 0.000000 0.000000
# 4 0.000000 0.000000 0.000000 0.104461 0.000000 0.000000
# 5 0.000000 0.000000 0.000000 0.000000 0.031997 0.000000
# 6 0.000000 0.000000 0.000000 0.000000 0.000000 0.142546
#
#
# Mechanical properties :
#
#
# Convention : Reuss Voigt Hill
#
# Bulk Modulus (GPa) = 11.54698 51.42367 31.48532
# Shear Modulus (GPa) = 9.44173 18.13073 13.78623
#
# Velocity S-wave (km/s) = 2.59942 3.60211 3.14103
# Velocity P-wave (km/s) = 4.15606 7.35538 5.97388
#
# Compressibility (1/GPa) = 0.08660276
#
# Stress axis : x y z
#
# Youngs Moduli (GPa) = 70.30095 8.29343 51.69120
#
# Poissons Ratio (x) = 0.08954 0.44550
# Poissons Ratio (y) = 0.75902 0.74214
# Poissons Ratio (z) = 0.60589 0.11907
#
# Static dielectric constant tensor:
#      x y z
#    x 3.751550 0.000000 0.000000 
#    y 0.000000 2.075770 0.000000 
#    z 0.000000 0.000000 2.956740 
# 
# 
# High freq. dielectric constant tensor:
#      x y z
#    x 1.558330 0.000000 0.000000 
#    y 0.000000 1.428220 0.000000 
#    z 0.000000 0.000000 1.548990 
# 
# From -- ./inp_files/12635.got.cif
#   From: 2010.03.12/outbox.cif.g09.slc.cpg/sg65_7_cif.got.tgz:12635.got - 2010.04.10 20:52:16.
