data_PCOD8274663
_publ_section_title
;
Structure prediction by ZEFSAII (Michael W. Deem and Ramdas Pophale) SiO2 
 PCOD8274663
Probable space group: C M M M
;
_chemical_formula_sum "Si O2"
_cell_formula_units_Z 88
_cell_length_a 20.729897
_cell_length_b 9.033522
_cell_length_c 24.516887
_cell_angle_alpha 90.000000
_cell_angle_beta 90.000000
_cell_angle_gamma 90.000000
_cell_volume 4591.129852
_symmetry_space_group_name_H-M "C M M M"
_symmetry_group_IT_number 65
_symmetry_cell_setting 'orthorhombic'
loop_
_space_group_symop_operation_xyz
x,y,z
-x,-y,z
x,-y,-z
-x,y,-z
-x,-y,-z
x,y,-z
-x,y,z
x,-y,z
1/2+x,1/2+y,z
1/2-x,1/2-y,z
1/2+x,1/2-y,-z
1/2-x,1/2+y,-z
1/2-x,1/2-y,-z
1/2+x,1/2+y,-z
1/2-x,1/2+y,z
1/2+x,1/2-y,z
loop_
_atom_site_type_symbol
_atom_site_label
_atom_site_fract_x
_atom_site_fract_y
_atom_site_fract_z
Si Si1 0.315683 0.325742 0.062607
Si Si2 0.925797 0.172439 0.737072
Si Si3 0.186433 0.326111 0.672955
Si Si4 0.862591 0.675926 0.440040
Si Si5 0.500000 0.840626 0.563772
Si Si6 0.429086 0.324580 0.861368
O O1 0.307843 0.500000 0.070997
O O2 0.250000 0.250000 0.082872
O O3 0.374502 0.260075 0.098419
O O4 0.330230 0.284952 0.000000
O O5 0.878646 0.269040 0.700392
O O6 0.913450 0.220828 0.799457
O O7 0.000000 0.205433 0.720518
O O8 0.909974 0.000000 0.728903
O O9 0.191439 0.500000 0.682526
O O10 0.250000 0.250000 0.698548
O O11 0.186131 0.282760 0.608398
O O12 0.839315 0.735503 0.500000
O O13 0.871585 0.500000 0.443589
O O14 0.932983 0.745445 0.423035
O O15 0.500000 0.870607 0.500000
O O16 0.500000 0.000000 0.594648
O O17 0.500000 0.262572 0.878118
O O18 0.430725 0.500000 0.866295
#
# Coordination Sequence:
#
# PCOD8274663 Si02
#       6
#    16  16  16  16   8  16
#     4   9  17  29  47  73 104 136 170 208 248 293
#     4   9  19  37  58  77 102 136 171 212 263 313
#     4  11  23  36  53  77 106 136 172 214 255 306
#     4   8  15  28  47  72 100 129 161 201 251 304
#     4   7  10  20  40  66  93 117 147 189 234 283
#     4   8  15  30  52  76 100 129 167 209 254 301
#
# _framework density 19.167396
#
# number of rings (size 3 to 8) (size 9 to 14) (size 15 to 20)
#    0.000    3.182    0.000    2.727    1.273    1.818 
#    0.000    4.545    0.000    3.273    0.000    3.818 
#    0.000    0.000    0.000    0.000    0.000    0.000 
#
# Total GULP energy -545120.270730 kJ/mol
# GULP energy per Si atom -12389.097062 kJ/mol
# Density = 1.912377 g / cm^3
# Si number density = 19.167396 Si / 1000 Ang^3
#
#
#
# Elastic Constant Matrix: (Units=GPa)
#
#
# Indices 1 2 3 4 5 6 
#
# 1 141.7978 46.0956 73.7519 0.0000 0.0000 0.0000
# 2 46.0956 45.4602 32.4311 0.0000 0.0000 0.0000
# 3 73.7519 32.4311 92.5189 0.0000 0.0000 0.0000
# 4 0.0000 0.0000 0.0000 17.4977 0.0000 0.0000
# 5 0.0000 0.0000 0.0000 0.0000 27.7991 0.0000
# 6 0.0000 0.0000 0.0000 0.0000 0.0000 25.0696
#
#
#
# Elastic Compliance Matrix: (Units=1/GPa)
#
#
# Indices 1 2 3 4 5 6 
#
# 1 0.014087 -0.008365 -0.008298 0.000000 0.000000 0.000000
# 2 -0.008365 0.034299 -0.005355 0.000000 0.000000 0.000000
# 3 -0.008298 -0.005355 0.019300 0.000000 0.000000 0.000000
# 4 0.000000 0.000000 0.000000 0.057150 0.000000 0.000000
# 5 0.000000 0.000000 0.000000 0.000000 0.035972 0.000000
# 6 0.000000 0.000000 0.000000 0.000000 0.000000 0.039889
#
#
# Mechanical properties :
#
#
# Convention : Reuss Voigt Hill
#
# Bulk Modulus (GPa) = 42.27999 64.92602 53.60300
# Shear Modulus (GPa) = 19.79280 22.57316 21.18298
#
# Velocity S-wave (km/s) = 3.21694 3.43547 3.32800
# Velocity P-wave (km/s) = 5.99203 7.04863 6.54170
#
# Compressibility (1/GPa) = 0.02365185
#
# Stress axis : x y z
#
# Youngs Moduli (GPa) = 70.98639 29.15525 51.81286
#
# Poissons Ratio (x) = 0.24387 0.42992
# Poissons Ratio (y) = 0.59378 0.27747
# Poissons Ratio (z) = 0.58902 0.15613
#
# Static dielectric constant tensor:
#      x y z
#    x 3.913330 0.000000 0.000000 
#    y 0.000000 2.952500 0.000000 
#    z 0.000000 0.000000 3.584960 
# 
# 
# High freq. dielectric constant tensor:
#      x y z
#    x 1.758000 0.000000 0.000000 
#    y 0.000000 1.691650 0.000000 
#    z 0.000000 0.000000 1.739410 
# 
# From -- ./inp_files/70935.got.cif
#   From: 2010.03.12/outbox.cif.g09.slc.cpg/sg65_36_cif.got.tgz:70935.got - 2010.04.10 20:52:16.
