data_PCOD8274856
_publ_section_title
;
Structure prediction by ZEFSAII (Michael W. Deem and Ramdas Pophale) SiO2 
 PCOD8274856
Probable space group: C M M M
;
_chemical_formula_sum "Si O2"
_cell_formula_units_Z 56
_cell_length_a 14.979783
_cell_length_b 8.816971
_cell_length_c 21.283337
_cell_angle_alpha 90.000000
_cell_angle_beta 90.000000
_cell_angle_gamma 90.000000
_cell_volume 2811.024664
_symmetry_space_group_name_H-M "C M M M"
_symmetry_group_IT_number 65
_symmetry_cell_setting 'orthorhombic'
loop_
_space_group_symop_operation_xyz
x,y,z
-x,-y,z
x,-y,-z
-x,y,-z
-x,-y,-z
x,y,-z
-x,y,z
x,-y,z
1/2+x,1/2+y,z
1/2-x,1/2-y,z
1/2+x,1/2-y,-z
1/2-x,1/2+y,-z
1/2-x,1/2-y,-z
1/2+x,1/2+y,-z
1/2-x,1/2+y,z
1/2+x,1/2-y,z
loop_
_atom_site_type_symbol
_atom_site_label
_atom_site_fract_x
_atom_site_fract_y
_atom_site_fract_z
Si Si1 0.500000 0.178811 0.232002
Si Si2 0.848725 0.177123 0.000000
Si Si3 0.394579 0.172181 0.429535
Si Si4 0.159900 0.177899 0.692979
Si Si5 0.000000 0.178674 0.902583
O O1 0.584595 0.245615 0.266346
O O2 0.500000 0.222946 0.159639
O O3 0.500000 0.000000 0.239607
O O4 0.750000 0.250000 0.000000
O O5 0.909196 0.222641 0.060144
O O6 0.831282 0.000000 0.000000
O O7 0.364356 0.216529 0.500000
O O8 0.500000 0.186984 0.423142
O O9 0.348918 0.286724 0.381169
O O10 0.365168 0.000000 0.413785
O O11 0.250000 0.250000 0.719395
O O12 0.158457 0.000000 0.703932
O O13 0.000000 0.000000 0.887586
#
# Coordination Sequence:
#
# PCOD8274856 Si02
#       5
#     8   8  16  16   8
#     4  12  25  43  64  89 124 163 204 254 304 359
#     4   9  19  37  64  94 128 163 199 245 291 342
#     4   9  18  35  60  87 117 153 194 246 307 369
#     4  12  25  41  62  88 118 158 204 254 307 367
#     4   9  20  40  62  89 125 167 204 239 293 354
#
# _framework density 19.921561000000001
#
# number of rings (size 3 to 8) (size 9 to 14) (size 15 to 20)
#    0.000    1.714    1.429    5.571    0.000    3.429 
#    0.000    5.714    0.000    0.000    0.000    0.000 
#    0.000    0.000    0.000    0.000    0.000    0.000 
#
# Total GULP energy -347185.763865 kJ/mol
# GULP energy per Si atom -12399.491567 kJ/mol
# Density = 1.987622 g / cm^3
# Si number density = 19.921561 Si / 1000 Ang^3
#
#
#
# Elastic Constant Matrix: (Units=GPa)
#
#
# Indices 1 2 3 4 5 6 
#
# 1 163.9279 75.1614 70.0816 0.0000 0.0000 0.0000
# 2 75.1614 156.8523 70.2404 0.0000 0.0000 0.0000
# 3 70.0816 70.2404 128.0194 0.0000 0.0000 0.0000
# 4 0.0000 0.0000 0.0000 37.8674 0.0000 0.0000
# 5 0.0000 0.0000 0.0000 0.0000 47.2488 0.0000
# 6 0.0000 0.0000 0.0000 0.0000 0.0000 36.3360
#
#
#
# Elastic Compliance Matrix: (Units=1/GPa)
#
#
# Indices 1 2 3 4 5 6 
#
# 1 0.008759 -0.002718 -0.003304 0.000000 0.000000 0.000000
# 2 -0.002718 0.009295 -0.003612 0.000000 0.000000 0.000000
# 3 -0.003304 -0.003612 0.011602 0.000000 0.000000 0.000000
# 4 0.000000 0.000000 0.000000 0.026408 0.000000 0.000000
# 5 0.000000 0.000000 0.000000 0.000000 0.021165 0.000000
# 6 0.000000 0.000000 0.000000 0.000000 0.000000 0.027521
#
#
# Mechanical properties :
#
#
# Convention : Reuss Voigt Hill
#
# Bulk Modulus (GPa) = 96.26007 97.75183 97.00595
# Shear Modulus (GPa) = 39.22204 39.84485 39.53345
#
# Velocity S-wave (km/s) = 4.44196 4.47708 4.45956
# Velocity P-wave (km/s) = 8.64479 8.71210 8.67851
#
# Compressibility (1/GPa) = 0.01038852
#
# Stress axis : x y z
#
# Youngs Moduli (GPa) = 114.17298 107.58100 86.19316
#
# Poissons Ratio (x) = 0.29236 0.28475
# Poissons Ratio (y) = 0.31028 0.31136
# Poissons Ratio (z) = 0.37719 0.38862
#
# Static dielectric constant tensor:
#      x y z
#    x 3.767340 0.000000 0.000000 
#    y 0.000000 3.569480 0.000000 
#    z 0.000000 0.000000 3.738420 
# 
# 
# High freq. dielectric constant tensor:
#      x y z
#    x 1.788460 0.000000 0.000000 
#    y 0.000000 1.774850 0.000000 
#    z 0.000000 0.000000 1.777010 
# 
# From -- ./inp_files/62210.got.cif
#   From: 2010.03.12/outbox.cif.g09.slc.cpg/sg65_32_cif.got.tgz:62210.got - 2010.04.10 20:52:16.
