data_PCOD8274773
_publ_section_title
;
Structure prediction by ZEFSAII (Michael W. Deem and Ramdas Pophale) SiO2 
 PCOD8274773
Probable space group: C M M M
;
_chemical_formula_sum "Si O2"
_cell_formula_units_Z 72
_cell_length_a 27.498270
_cell_length_b 17.953816
_cell_length_c 7.447326
_cell_angle_alpha 90.000000
_cell_angle_beta 90.000000
_cell_angle_gamma 90.000000
_cell_volume 3676.736504
_symmetry_space_group_name_H-M "C M M M"
_symmetry_group_IT_number 65
_symmetry_cell_setting 'orthorhombic'
loop_
_space_group_symop_operation_xyz
x,y,z
-x,-y,z
x,-y,-z
-x,y,-z
-x,-y,-z
x,y,-z
-x,y,z
x,-y,z
1/2+x,1/2+y,z
1/2-x,1/2-y,z
1/2+x,1/2-y,-z
1/2-x,1/2+y,-z
1/2-x,1/2-y,-z
1/2+x,1/2+y,-z
1/2-x,1/2+y,z
1/2+x,1/2-y,z
loop_
_atom_site_type_symbol
_atom_site_label
_atom_site_fract_x
_atom_site_fract_y
_atom_site_fract_z
Si Si1 0.447131 0.658008 0.211704
Si Si2 0.897985 0.688953 0.790163
Si Si3 0.697992 0.727638 0.212788
Si Si4 0.943083 0.587745 0.500000
Si Si5 0.147517 0.918184 0.785743
O O1 0.500000 0.640435 0.297548
O O2 0.432644 0.742212 0.259372
O O3 0.406715 0.600901 0.286647
O O4 0.449707 0.649347 0.000000
O O5 0.842820 0.711570 0.734438
O O6 0.916410 0.618860 0.677148
O O7 0.900884 0.668075 0.000000
O O8 0.750000 0.750000 0.297192
O O9 0.684167 0.645263 0.287071
O O10 0.701255 0.723221 0.000000
O O11 0.935552 0.500000 0.500000
O O12 0.000000 0.608918 0.500000
O O13 0.162811 0.000000 0.713717
O O14 0.147261 0.916745 0.000000
#
# Coordination Sequence:
#
# PCOD8274773 Si02
#       5
#    16  16  16   8  16
#     4   8  13  22  39  62  87 120 158 190 229 288
#     4   9  18  34  54  75 102 133 168 213 259 310
#     4   8  14  27  48  72  98 132 173 210 249 304
#     4  11  24  38  53  76 103 133 174 223 274 324
#     4   8  13  20  32  57  93 124 153 197 243 281
#
# _framework density 19.582585000000002
#
# number of rings (size 3 to 8) (size 9 to 14) (size 15 to 20)
#    0.000    3.444    0.000    3.333    0.000    2.222 
#    0.000    5.000    0.000    4.000    0.000   12.444 
#    0.000   21.333    0.000    0.889    0.000    0.000 
#
# Total GULP energy -446046.041722 kJ/mol
# GULP energy per Si atom -12390.167826 kJ/mol
# Density = 1.953801 g / cm^3
# Si number density = 19.582585 Si / 1000 Ang^3
#
#
#
# Elastic Constant Matrix: (Units=GPa)
#
#
# Indices 1 2 3 4 5 6 
#
# 1 179.8905 88.0559 18.4701 0.0000 0.0000 0.0000
# 2 88.0559 143.8598 32.3135 0.0000 0.0000 0.0000
# 3 18.4701 32.3135 54.8849 0.0000 0.0000 0.0000
# 4 0.0000 0.0000 0.0000 1.8402 0.0000 0.0000
# 5 0.0000 0.0000 0.0000 0.0000 3.7342 0.0000
# 6 0.0000 0.0000 0.0000 0.0000 0.0000 21.3821
#
#
#
# Elastic Compliance Matrix: (Units=1/GPa)
#
#
# Indices 1 2 3 4 5 6 
#
# 1 0.007939 -0.004909 0.000218 0.000000 0.000000 0.000000
# 2 -0.004909 0.011045 -0.004851 0.000000 0.000000 0.000000
# 3 0.000218 -0.004851 0.021003 0.000000 0.000000 0.000000
# 4 0.000000 0.000000 0.000000 0.543415 0.000000 0.000000
# 5 0.000000 0.000000 0.000000 0.000000 0.267793 0.000000
# 6 0.000000 0.000000 0.000000 0.000000 0.000000 0.046768
#
#
# Mechanical properties :
#
#
# Convention : Reuss Voigt Hill
#
# Bulk Modulus (GPa) = 47.83724 72.92380 60.38052
# Shear Modulus (GPa) = 5.41117 21.37770 13.39444
#
# Velocity S-wave (km/s) = 1.66411 3.30763 2.61817
# Velocity P-wave (km/s) = 5.30790 7.20466 6.32776
#
# Compressibility (1/GPa) = 0.02090421
#
# Stress axis : x y z
#
# Youngs Moduli (GPa) = 125.95599 90.53558 47.61317
#
# Poissons Ratio (x) = 0.44440 -0.01039
# Poissons Ratio (y) = 0.61827 0.23098
# Poissons Ratio (z) = -0.02748 0.43920
#
# Static dielectric constant tensor:
#      x y z
#    x 4.156370 0.000000 0.000000 
#    y 0.000000 3.598660 0.000000 
#    z 0.000000 0.000000 3.119250 
# 
# 
# High freq. dielectric constant tensor:
#      x y z
#    x 1.762680 0.000000 0.000000 
#    y 0.000000 1.743160 0.000000 
#    z 0.000000 0.000000 1.737140 
# 
# From -- ./inp_files/15958.got.cif
#   From: 2010.03.12/outbox.cif.g09.slc.cpg/sg65_8_cif.got.tgz:15958.got - 2010.04.10 20:52:16.
