data_PCOD8274105
_publ_section_title
;
Structure prediction by ZEFSAII (Michael W. Deem and Ramdas Pophale) SiO2 
 PCOD8274105
Probable space group: C M M M
;
_chemical_formula_sum "Si O2"
_cell_formula_units_Z 88
_cell_length_a 29.232395
_cell_length_b 17.489473
_cell_length_c 9.097906
_cell_angle_alpha 90.000000
_cell_angle_beta 90.000000
_cell_angle_gamma 90.000000
_cell_volume 4651.387989
_symmetry_space_group_name_H-M "C M M M"
_symmetry_group_IT_number 65
_symmetry_cell_setting 'orthorhombic'
loop_
_space_group_symop_operation_xyz
x,y,z
-x,-y,z
x,-y,-z
-x,y,-z
-x,-y,-z
x,y,-z
-x,y,z
x,-y,z
1/2+x,1/2+y,z
1/2-x,1/2-y,z
1/2+x,1/2-y,-z
1/2-x,1/2+y,-z
1/2-x,1/2-y,-z
1/2+x,1/2+y,-z
1/2-x,1/2+y,z
1/2+x,1/2-y,z
loop_
_atom_site_type_symbol
_atom_site_label
_atom_site_fract_x
_atom_site_fract_y
_atom_site_fract_z
Si Si1 0.211439 0.416310 0.826090
Si Si2 0.689524 0.591222 0.830559
Si Si3 0.398311 0.361306 0.326133
Si Si4 0.945972 0.000000 0.167675
Si Si5 0.948294 0.292461 0.326786
Si Si6 0.887313 0.590483 0.830313
O O1 0.212099 0.500000 0.752872
O O2 0.259810 0.376441 0.783619
O O3 0.163248 0.376879 0.779778
O O4 0.210644 0.426475 0.000000
O O5 0.686254 0.500000 0.806878
O O6 0.654000 0.634707 0.726778
O O7 0.679126 0.611462 0.000000
O O8 0.400851 0.373328 0.500000
O O9 0.428017 0.425646 0.248702
O O10 0.419105 0.280595 0.276162
O O11 0.000000 0.000000 0.174403
O O12 0.927901 0.000000 0.000000
O O13 0.948207 0.300357 0.500000
O O14 0.926382 0.369066 0.262615
O O15 0.000000 0.283965 0.267304
O O16 0.889915 0.500000 0.801952
O O17 0.896007 0.609613 0.000000
#
# Coordination Sequence:
#
# PCOD8274105 Si02
#       6
#    16  16  16   8  16  16
#     4   7  12  26  50  79 109 140 171 210 261 316
#     4   9  16  29  52  80 110 143 180 219 260 312
#     4  11  22  36  54  77 108 145 184 226 270 316
#     4  11  23  37  55  79 105 137 183 233 276 323
#     4  10  23  41  56  73 104 146 185 221 271 330
#     4   9  18  35  60  87 110 134 174 224 271 323
#
# _framework density 18.919084000000002
#
# number of rings (size 3 to 8) (size 9 to 14) (size 15 to 20)
#    0.000    2.636    0.909    3.545    0.000    4.000 
#    0.000    3.636    0.000    8.727    0.000    0.000 
#    0.000    0.000    0.000    0.000    0.000    0.000 
#
# Total GULP energy -545219.304206 kJ/mol
# GULP energy per Si atom -12391.347823 kJ/mol
# Density = 1.887602 g / cm^3
# Si number density = 18.919084 Si / 1000 Ang^3
#
#
#
# Elastic Constant Matrix: (Units=GPa)
#
#
# Indices 1 2 3 4 5 6 
#
# 1 153.7797 56.7053 44.4499 0.0000 0.0000 0.0000
# 2 56.7053 66.6502 30.3117 0.0000 0.0000 0.0000
# 3 44.4499 30.3117 49.4423 0.0000 0.0000 0.0000
# 4 0.0000 0.0000 0.0000 39.7509 0.0000 0.0000
# 5 0.0000 0.0000 0.0000 0.0000 22.8663 0.0000
# 6 0.0000 0.0000 0.0000 0.0000 0.0000 0.0892
#
#
#
# Elastic Compliance Matrix: (Units=1/GPa)
#
#
# Indices 1 2 3 4 5 6 
#
# 1 0.010442 -0.006398 -0.005465 0.000000 0.000000 0.000000
# 2 -0.006398 0.024725 -0.009406 0.000000 0.000000 0.000000
# 3 -0.005465 -0.009406 0.030905 0.000000 0.000000 0.000000
# 4 0.000000 0.000000 0.000000 0.025157 0.000000 0.000000
# 5 0.000000 0.000000 0.000000 0.000000 0.043732 0.000000
# 6 0.000000 0.000000 0.000000 0.000000 0.000000 11.206896
#
#
# Mechanical properties :
#
#
# Convention : Reuss Voigt Hill
#
# Bulk Modulus (GPa) = 42.49217 59.20066 50.84641
# Shear Modulus (GPa) = 0.43890 21.76831 11.10360
#
# Velocity S-wave (km/s) = 0.48217 3.39573 2.42523
# Velocity P-wave (km/s) = 4.77689 6.83623 5.89715
#
# Compressibility (1/GPa) = 0.02353375
#
# Stress axis : x y z
#
# Youngs Moduli (GPa) = 95.76918 40.44457 32.35727
#
# Poissons Ratio (x) = 0.25878 0.17682
# Poissons Ratio (y) = 0.61278 0.30435
# Poissons Ratio (z) = 0.52335 0.38042
#
# Static dielectric constant tensor:
#      x y z
#    x 3.980640 0.000000 0.000000 
#    y 0.000000 3.168830 0.000000 
#    z 0.000000 0.000000 3.210600 
# 
# 
# High freq. dielectric constant tensor:
#      x y z
#    x 1.761670 0.000000 0.000000 
#    y 0.000000 1.706290 0.000000 
#    z 0.000000 0.000000 1.709410 
# 
# From -- ./inp_files/18268.got.cif
#   From: 2010.03.12/outbox.cif.g09.slc.cpg/sg65_10_cif.got.tgz:18268.got - 2010.04.10 20:52:16.
