data_PCOD8274235
_publ_section_title
;
Structure prediction by ZEFSAII (Michael W. Deem and Ramdas Pophale) SiO2 
 PCOD8274235
Probable space group: C M M M
;
_chemical_formula_sum "Si O2"
_cell_formula_units_Z 72
_cell_length_a 20.098418
_cell_length_b 16.990179
_cell_length_c 11.841577
_cell_angle_alpha 90.000000
_cell_angle_beta 90.000000
_cell_angle_gamma 90.000000
_cell_volume 4043.611025
_symmetry_space_group_name_H-M "C M M M"
_symmetry_group_IT_number 65
_symmetry_cell_setting 'orthorhombic'
loop_
_space_group_symop_operation_xyz
x,y,z
-x,-y,z
x,-y,-z
-x,y,-z
-x,-y,-z
x,y,-z
-x,y,z
x,-y,z
1/2+x,1/2+y,z
1/2-x,1/2-y,z
1/2+x,1/2-y,-z
1/2-x,1/2+y,-z
1/2-x,1/2-y,-z
1/2+x,1/2+y,-z
1/2-x,1/2+y,z
1/2+x,1/2-y,z
loop_
_atom_site_type_symbol
_atom_site_label
_atom_site_fract_x
_atom_site_fract_y
_atom_site_fract_z
Si Si1 0.078936 0.685928 0.000000
Si Si2 0.188497 0.188292 0.000000
Si Si3 0.675013 0.279132 0.626216
Si Si4 0.634609 0.864371 0.233414
Si Si5 0.923313 0.500000 0.377408
Si Si6 0.786396 0.090845 0.219186
O O1 0.118104 0.767937 0.000000
O O2 0.100615 0.637233 0.110628
O O3 0.000000 0.701185 0.000000
O O4 0.250000 0.250000 0.000000
O O5 0.189452 0.132702 0.893154
O O6 0.643847 0.279973 0.500000
O O7 0.750000 0.250000 0.621336
O O8 0.633790 0.222052 0.709439
O O9 0.676044 0.367516 0.675942
O O10 0.707542 0.900614 0.225402
O O11 0.592784 0.921236 0.311217
O O12 0.886248 0.500000 0.500000
O O13 0.000000 0.500000 0.400875
O O14 0.807246 0.000000 0.219439
#
# Coordination Sequence:
#
# PCOD8274235 Si02
#       6
#     8   8  16  16   8  16
#     4  12  24  37  62  87 113 150 194 243 288 346
#     4  12  19  38  59  81 118 150 190 241 293 355
#     4   9  18  32  53  82 114 149 190 238 286 335
#     4  11  20  38  57  82 117 154 194 234 288 343
#     4  11  24  39  55  81 123 166 197 230 280 350
#     4  11  20  33  57  86 114 151 191 241 294 343
#
# _framework density 17.805868
#
# number of rings (size 3 to 8) (size 9 to 14) (size 15 to 20)
#    0.000    1.222    5.556    2.333    0.000    1.778 
#    0.000    1.111    0.000    1.333    0.000    0.000 
#    0.000    1.778    0.000    0.000    0.000    0.000 
#
# Total GULP energy -446357.128136 kJ/mol
# GULP energy per Si atom -12398.809115 kJ/mol
# Density = 1.776534 g / cm^3
# Si number density = 17.805868 Si / 1000 Ang^3
#
#
#
# Elastic Constant Matrix: (Units=GPa)
#
#
# Indices 1 2 3 4 5 6 
#
# 1 53.4949 30.7294 30.3498 0.0000 0.0000 0.0000
# 2 30.7294 148.0822 68.6158 0.0000 0.0000 0.0000
# 3 30.3498 68.6158 163.5647 0.0000 0.0000 0.0000
# 4 0.0000 0.0000 0.0000 7.7489 0.0000 0.0000
# 5 0.0000 0.0000 0.0000 0.0000 8.2852 0.0000
# 6 0.0000 0.0000 0.0000 0.0000 0.0000 12.1246
#
#
#
# Elastic Compliance Matrix: (Units=1/GPa)
#
#
# Indices 1 2 3 4 5 6 
#
# 1 0.022149 -0.003341 -0.002708 0.000000 0.000000 0.000000
# 2 -0.003341 0.008887 -0.003108 0.000000 0.000000 0.000000
# 3 -0.002708 -0.003108 0.007920 0.000000 0.000000 0.000000
# 4 0.000000 0.000000 0.000000 0.129051 0.000000 0.000000
# 5 0.000000 0.000000 0.000000 0.000000 0.120698 0.000000
# 6 0.000000 0.000000 0.000000 0.000000 0.000000 0.082477
#
#
# Mechanical properties :
#
#
# Convention : Reuss Voigt Hill
#
# Bulk Modulus (GPa) = 48.44758 69.39244 58.92001
# Shear Modulus (GPa) = 12.61427 21.32818 16.97123
#
# Velocity S-wave (km/s) = 2.66453 3.46470 3.09062
# Velocity P-wave (km/s) = 6.06087 7.42037 6.77481
#
# Compressibility (1/GPa) = 0.02064087
#
# Stress axis : x y z
#
# Youngs Moduli (GPa) = 45.14827 112.53022 126.26190
#
# Poissons Ratio (x) = 0.37602 0.34193
# Poissons Ratio (y) = 0.15086 0.39241
# Poissons Ratio (z) = 0.12227 0.34973
#
# Static dielectric constant tensor:
#      x y z
#    x 3.201870 0.000000 0.000000 
#    y 0.000000 3.298870 0.000000 
#    z 0.000000 0.000000 3.654630 
# 
# 
# High freq. dielectric constant tensor:
#      x y z
#    x 1.646280 0.000000 0.000000 
#    y 0.000000 1.689160 0.000000 
#    z 0.000000 0.000000 1.715530 
# 
# From -- ./inp_files/28489.got.cif
#   From: 2010.03.12/outbox.cif.g09.slc.cpg/sg65_15_cif.got.tgz:28489.got - 2010.04.10 20:52:16.
