data_PCOD8274949
_publ_section_title
;
Structure prediction by ZEFSAII (Michael W. Deem and Ramdas Pophale) SiO2 
 PCOD8274949
Probable space group: C M M M
;
_chemical_formula_sum "Si O2"
_cell_formula_units_Z 72
_cell_length_a 9.236111
_cell_length_b 31.347705
_cell_length_c 14.464935
_cell_angle_alpha 90.000000
_cell_angle_beta 90.000000
_cell_angle_gamma 90.000000
_cell_volume 4188.045403
_symmetry_space_group_name_H-M "C M M M"
_symmetry_group_IT_number 65
_symmetry_cell_setting 'orthorhombic'
loop_
_space_group_symop_operation_xyz
x,y,z
-x,-y,z
x,-y,-z
-x,y,-z
-x,-y,-z
x,y,-z
-x,y,z
x,-y,z
1/2+x,1/2+y,z
1/2-x,1/2-y,z
1/2+x,1/2-y,-z
1/2-x,1/2+y,-z
1/2-x,1/2-y,-z
1/2+x,1/2+y,-z
1/2-x,1/2+y,z
1/2+x,1/2-y,z
loop_
_atom_site_type_symbol
_atom_site_label
_atom_site_fract_x
_atom_site_fract_y
_atom_site_fract_z
Si Si1 0.669591 0.873696 0.784353
Si Si2 0.668512 0.916784 0.604023
Si Si3 0.172217 0.546727 0.104548
Si Si4 0.330794 0.792891 0.893446
Si Si5 0.337563 0.500000 0.609657
O O1 0.500000 0.872923 0.805744
O O2 0.700662 0.877385 0.673973
O O3 0.738545 0.915546 0.832874
O O4 0.734026 0.830409 0.828120
O O5 0.715986 0.903427 0.500000
O O6 0.500000 0.929143 0.606545
O O7 0.753908 0.957756 0.642412
O O8 0.228097 0.500000 0.138677
O O9 0.000000 0.547245 0.109776
O O10 0.223989 0.554726 0.000000
O O11 0.500000 0.785462 0.876487
O O12 0.250000 0.750000 0.864223
O O13 0.299471 0.805038 0.000000
O O14 0.500000 0.500000 0.650433
O O15 0.340526 0.500000 0.500000
#
# Coordination Sequence:
#
# PCOD8274949 Si02
#       5
#    16  16  16  16   8
#     4   9  16  25  41  63  87 114 143 178 219 260
#     4   9  17  28  43  64  88 114 146 184 222 258
#     4   8  13  20  31  52  83 113 138 167 206 251
#     4   9  17  30  48  69  91 113 141 180 224 267
#     4   9  17  29  43  59  84 119 154 186 219 253
#
# _framework density 17.191792
#
# number of rings (size 3 to 8) (size 9 to 14) (size 15 to 20)
#    0.000    3.222    0.000    1.667    1.556    4.000 
#    0.000    1.111    0.000    0.667    0.000    0.000 
#    0.000    1.778    0.000    0.000    0.000    0.000 
#
# Total GULP energy -446113.529093 kJ/mol
# GULP energy per Si atom -12392.042475 kJ/mol
# Density = 1.715266 g / cm^3
# Si number density = 17.191792 Si / 1000 Ang^3
#
#
#
# Elastic Constant Matrix: (Units=GPa)
#
#
# Indices 1 2 3 4 5 6 
#
# 1 30.3950 28.7927 20.1081 0.0000 0.0000 0.0000
# 2 28.7927 148.5302 82.4939 0.0000 0.0000 0.0000
# 3 20.1081 82.4939 98.9020 0.0000 0.0000 0.0000
# 4 0.0000 0.0000 0.0000 28.4547 0.0000 0.0000
# 5 0.0000 0.0000 0.0000 0.0000 8.2957 0.0000
# 6 0.0000 0.0000 0.0000 0.0000 0.0000 18.7057
#
#
#
# Elastic Compliance Matrix: (Units=1/GPa)
#
#
# Indices 1 2 3 4 5 6 
#
# 1 0.040826 -0.006156 -0.003166 0.000000 0.000000 0.000000
# 2 -0.006156 0.013472 -0.009985 0.000000 0.000000 0.000000
# 3 -0.003166 -0.009985 0.019083 0.000000 0.000000 0.000000
# 4 0.000000 0.000000 0.000000 0.035144 0.000000 0.000000
# 5 0.000000 0.000000 0.000000 0.000000 0.120545 0.000000
# 6 0.000000 0.000000 0.000000 0.000000 0.000000 0.053460
#
#
# Mechanical properties :
#
#
# Convention : Reuss Voigt Hill
#
# Bulk Modulus (GPa) = 28.76277 60.06850 44.41564
# Shear Modulus (GPa) = 15.02712 20.85337 17.94024
#
# Velocity S-wave (km/s) = 2.95970 3.48657 3.23388
# Velocity P-wave (km/s) = 5.33354 7.15712 6.31153
#
# Compressibility (1/GPa) = 0.03476716
#
# Stress axis : x y z
#
# Youngs Moduli (GPa) = 24.49427 74.22955 52.40181
#
# Poissons Ratio (x) = 0.45694 0.16590
# Poissons Ratio (y) = 0.15078 0.52324
# Poissons Ratio (z) = 0.07755 0.74120
#
# Static dielectric constant tensor:
#      x y z
#    x 2.818300 0.000000 0.000000 
#    y 0.000000 3.334250 0.000000 
#    z 0.000000 0.000000 3.287680 
# 
# 
# High freq. dielectric constant tensor:
#      x y z
#    x 1.610390 0.000000 0.000000 
#    y 0.000000 1.650040 0.000000 
#    z 0.000000 0.000000 1.663250 
# 
# From -- ./inp_files/36985.got.cif
#   From: 2010.03.12/outbox.cif.g09.slc.cpg/sg65_19_cif.got.tgz:36985.got - 2010.04.10 20:52:16.
