data_PCOD8274051
_publ_section_title
;
Structure prediction by ZEFSAII (Michael W. Deem and Ramdas Pophale) SiO2 
 PCOD8274051
Probable space group: C M M M
;
_chemical_formula_sum "Si O2"
_cell_formula_units_Z 112
_cell_length_a 15.887708
_cell_length_b 15.390468
_cell_length_c 22.910429
_cell_angle_alpha 90.000000
_cell_angle_beta 90.000000
_cell_angle_gamma 90.000000
_cell_volume 5602.041181
_symmetry_space_group_name_H-M "C M M M"
_symmetry_group_IT_number 65
_symmetry_cell_setting 'orthorhombic'
loop_
_space_group_symop_operation_xyz
x,y,z
-x,-y,z
x,-y,-z
-x,y,-z
-x,-y,-z
x,y,-z
-x,y,z
x,-y,z
1/2+x,1/2+y,z
1/2-x,1/2-y,z
1/2+x,1/2-y,-z
1/2-x,1/2+y,-z
1/2-x,1/2-y,-z
1/2+x,1/2+y,-z
1/2-x,1/2+y,z
1/2+x,1/2-y,z
loop_
_atom_site_type_symbol
_atom_site_label
_atom_site_fract_x
_atom_site_fract_y
_atom_site_fract_z
Si Si1 0.404083 0.598328 0.644792
Si Si2 0.401715 0.904834 0.936112
Si Si3 0.098285 0.095166 0.063888
Si Si4 0.596978 0.750000 0.732801
Si Si5 0.904083 0.598328 0.355208
Si Si6 0.344176 0.250000 0.860495
Si Si7 0.750000 0.148140 0.432427
O O1 0.500000 0.618333 0.622220
O O2 0.399374 0.500000 0.669019
O O3 0.379854 0.663911 0.696473
O O4 0.335937 0.608456 0.593546
O O5 0.500000 0.914257 0.941967
O O6 0.384884 0.836856 0.885323
O O7 0.363752 0.000000 0.919603
O O8 0.366045 0.875248 0.000000
O O9 0.115116 0.163144 0.114677
O O10 0.000000 0.085743 0.058033
O O11 0.136248 0.000000 0.080397
O O12 0.133955 0.124752 0.000000
O O13 0.500000 0.750000 0.751232
O O14 0.620146 0.836089 0.696473
O O15 0.651768 0.750000 0.790809
O O16 0.899374 0.500000 0.330981
O O17 0.835937 0.608456 0.406454
O O18 0.000000 0.618333 0.377780
O O19 0.250000 0.250000 0.882228
O O20 0.750000 0.123835 0.500000
O O21 0.750000 0.250000 0.420901
#
# Coordination Sequence:
#
# PCOD8274051 Si02
#       7
#    16  16  16  16  16  16  16
#     4  10  22  41  65  90 119 160 206 251 302 357
#     4   9  19  38  62  84 110 150 198 243 289 347
#     4   9  19  38  62  84 110 150 198 243 289 347
#     4  10  22  41  61  83 114 154 203 250 292 344
#     4  10  22  41  65  90 119 160 206 251 302 357
#     4  12  25  35  54  87 121 153 189 238 299 358
#     4  11  23  39  65  96 129 165 198 243 300 356
#
# _framework density 19.992712000000001
#
# number of rings (size 3 to 8) (size 9 to 14) (size 15 to 20)
#    0.000    1.857    1.429    3.000    2.000    5.714 
#    0.000    7.143    0.000    0.000    0.000    0.000 
#    0.000    0.000    0.000    0.000    0.000    0.000 
#
# Total GULP energy -694165.580989 kJ/mol
# GULP energy per Si atom -12395.813946 kJ/mol
# Density = 1.994721 g / cm^3
# Si number density = 19.992712 Si / 1000 Ang^3
#
#
#
# Elastic Constant Matrix: (Units=GPa)
#
#
# Indices 1 2 3 4 5 6 
#
# 1 85.5902 35.7682 46.0338 0.0000 0.0000 0.0000
# 2 35.7682 156.8296 75.6967 0.0000 0.0000 0.0000
# 3 46.0338 75.6967 125.7434 0.0000 0.0000 0.0000
# 4 0.0000 0.0000 0.0000 15.3397 0.0000 0.0000
# 5 0.0000 0.0000 0.0000 0.0000 360.7487 0.0000
# 6 0.0000 0.0000 0.0000 0.0000 0.0000 42.7890
#
#
#
# Elastic Compliance Matrix: (Units=1/GPa)
#
#
# Indices 1 2 3 4 5 6 
#
# 1 0.014673 -0.001062 -0.004732 0.000000 0.000000 0.000000
# 2 -0.001062 0.009065 -0.005068 0.000000 0.000000 0.000000
# 3 -0.004732 -0.005068 0.012736 0.000000 0.000000 0.000000
# 4 0.000000 0.000000 0.000000 0.065190 0.000000 0.000000
# 5 0.000000 0.000000 0.000000 0.000000 0.002772 0.000000
# 6 0.000000 0.000000 0.000000 0.000000 0.000000 0.023371
#
#
# Mechanical properties :
#
#
# Convention : Reuss Voigt Hill
#
# Bulk Modulus (GPa) = 67.80317 75.90673 71.85495
# Shear Modulus (GPa) = 32.37355 97.81978 65.09667
#
# Velocity S-wave (km/s) = 4.02838 7.00242 5.71234
# Velocity P-wave (km/s) = 7.45819 10.16997 8.91776
#
# Compressibility (1/GPa) = 0.01474857
#
# Stress axis : x y z
#
# Youngs Moduli (GPa) = 68.15419 110.31658 78.51779
#
# Poissons Ratio (x) = 0.11720 0.37154
# Poissons Ratio (y) = 0.07241 0.39793
# Poissons Ratio (z) = 0.32250 0.55909
#
# Static dielectric constant tensor:
#      x y z
#    x 3.657930 0.000000 0.000000 
#    y 0.000000 3.725110 0.000000 
#    z 0.000000 0.000000 3.404950 
# 
# 
# High freq. dielectric constant tensor:
#      x y z
#    x 1.781400 0.000000 0.000000 
#    y 0.000000 1.798230 0.000000 
#    z 0.000000 0.000000 1.761300 
# 
# From -- ./inp_files/69977.got.cif
#   From: 2010.03.12/outbox.cif.g09.slc.cpg/sg65_35_cif.got.tgz:69977.got - 2010.04.10 20:52:16.
