data_PCOD8274632
_publ_section_title
;
Structure prediction by ZEFSAII (Michael W. Deem and Ramdas Pophale) SiO2 
 PCOD8274632
Probable space group: C M M M
;
_chemical_formula_sum "Si O2"
_cell_formula_units_Z 88
_cell_length_a 16.042853
_cell_length_b 12.814832
_cell_length_c 21.102665
_cell_angle_alpha 90.000000
_cell_angle_beta 90.000000
_cell_angle_gamma 90.000000
_cell_volume 4338.422320
_symmetry_space_group_name_H-M "C M M M"
_symmetry_group_IT_number 65
_symmetry_cell_setting 'orthorhombic'
loop_
_space_group_symop_operation_xyz
x,y,z
-x,-y,z
x,-y,-z
-x,y,-z
-x,-y,-z
x,y,-z
-x,y,z
x,-y,z
1/2+x,1/2+y,z
1/2-x,1/2-y,z
1/2+x,1/2-y,-z
1/2-x,1/2+y,-z
1/2-x,1/2-y,-z
1/2+x,1/2+y,-z
1/2-x,1/2+y,z
1/2+x,1/2-y,z
loop_
_atom_site_type_symbol
_atom_site_label
_atom_site_fract_x
_atom_site_fract_y
_atom_site_fract_z
Si Si1 0.595484 0.887591 0.792268
Si Si2 0.658433 0.296032 0.868081
Si Si3 0.399794 0.500000 0.795721
Si Si4 0.598666 0.500000 0.649315
Si Si5 0.599681 0.695949 0.428701
Si Si6 0.098820 0.878304 0.000000
Si Si7 0.900996 0.383400 0.346909
O O1 0.500000 0.907637 0.778428
O O2 0.601088 0.798281 0.844676
O O3 0.634050 0.855781 0.723711
O O4 0.634118 0.000000 0.815218
O O5 0.750000 0.250000 0.859587
O O6 0.641801 0.398449 0.826596
O O7 0.638470 0.320913 0.940344
O O8 0.500000 0.500000 0.807574
O O9 0.374391 0.500000 0.722515
O O10 0.500000 0.500000 0.645626
O O11 0.634629 0.398869 0.613718
O O12 0.634400 0.686364 0.500000
O O13 0.500000 0.694544 0.429368
O O14 0.635816 0.801923 0.397629
O O15 0.000000 0.864966 0.000000
O O16 0.123512 0.000000 0.000000
O O17 0.872545 0.500000 0.366149
O O18 0.000000 0.373450 0.348366
#
# Coordination Sequence:
#
# PCOD8274632 Si02
#       7
#    16  16   8   8  16   8  16
#     4   9  18  34  57  81 112 156 200 240 294 366
#     4  12  25  39  62  93 126 155 191 254 305 346
#     4  11  22  40  66  90 118 165 215 249 291 367
#     4   9  17  28  46  72 103 143 195 243 287 348
#     4   9  15  22  35  61 103 146 181 232 301 354
#     4  11  23  44  69  91 120 161 211 244 278 354
#     4   8  14  25  41  64  95 139 191 234 278 346
#
# _framework density 20.283871000000001
#
# number of rings (size 3 to 8) (size 9 to 14) (size 15 to 20)
#    0.000    2.273    0.909    4.364    1.273    4.364 
#    0.000    2.273    0.000    1.636    0.000    0.000 
#    0.000   18.182    0.000    0.000    0.000    0.000 
#
# Total GULP energy -545289.444920 kJ/mol
# GULP energy per Si atom -12392.941930 kJ/mol
# Density = 2.023770 g / cm^3
# Si number density = 20.283871 Si / 1000 Ang^3
#
#
#
# Elastic Constant Matrix: (Units=GPa)
#
#
# Indices 1 2 3 4 5 6 
#
# 1 39.6429 27.4486 23.0108 0.0000 0.0000 0.0000
# 2 27.4486 194.4695 117.2841 0.0000 0.0000 0.0000
# 3 23.0108 117.2841 187.6386 0.0000 0.0000 0.0000
# 4 0.0000 0.0000 0.0000 55.0863 0.0000 0.0000
# 5 0.0000 0.0000 0.0000 0.0000 -2.3985 0.0000
# 6 0.0000 0.0000 0.0000 0.0000 0.0000 20.5887
#
#
#
# Elastic Compliance Matrix: (Units=1/GPa)
#
#
# Indices 1 2 3 4 5 6 
#
# 1 0.028239 -0.003045 -0.001560 0.000000 0.000000 0.000000
# 2 -0.003045 0.008582 -0.004991 0.000000 0.000000 0.000000
# 3 -0.001560 -0.004991 0.008640 0.000000 0.000000 0.000000
# 4 0.000000 0.000000 0.000000 0.018153 0.000000 0.000000
# 5 0.000000 0.000000 0.000000 0.000000 -0.416929 0.000000
# 6 0.000000 0.000000 0.000000 0.000000 0.000000 0.048570
#
#
# Mechanical properties :
#
#
# Convention : Reuss Voigt Hill
#
# Bulk Modulus (GPa) = 38.06638 84.13756 61.10197
# Shear Modulus (GPa) = -18.06379 31.58915 6.76268
#
# Velocity S-wave (km/s) = -2.98744 3.95061 1.82791
# Velocity P-wave (km/s) = 2.62827 7.89809 5.88590
#
# Compressibility (1/GPa) = 0.02626990
#
# Stress axis : x y z
#
# Youngs Moduli (GPa) = 35.41206 116.52456 115.73940
#
# Poissons Ratio (x) = 0.35484 0.18051
# Poissons Ratio (y) = 0.10784 0.57762
# Poissons Ratio (z) = 0.05523 0.58154
#
# Static dielectric constant tensor:
#      x y z
#    x 3.213210 0.000000 0.000000 
#    y 0.000000 4.369220 0.000000 
#    z 0.000000 0.000000 3.939500 
# 
# 
# High freq. dielectric constant tensor:
#      x y z
#    x 1.743630 0.000000 0.000000 
#    y 0.000000 1.811730 0.000000 
#    z 0.000000 0.000000 1.796440 
# 
# From -- ./inp_files/61511.got.cif
#   From: 2010.03.12/outbox.cif.g09.slc.cpg/sg65_31_cif.got.tgz:61511.got - 2010.04.10 20:52:16.
