data_PCOD8274884
_publ_section_title
;
Structure prediction by ZEFSAII (Michael W. Deem and Ramdas Pophale) SiO2 
 PCOD8274884
Probable space group: C M M M
;
_chemical_formula_sum "Si O2"
_cell_formula_units_Z 104
_cell_length_a 9.425504
_cell_length_b 27.540147
_cell_length_c 26.722509
_cell_angle_alpha 90.000000
_cell_angle_beta 90.000000
_cell_angle_gamma 90.000000
_cell_volume 6936.622625
_symmetry_space_group_name_H-M "C M M M"
_symmetry_group_IT_number 65
_symmetry_cell_setting 'orthorhombic'
loop_
_space_group_symop_operation_xyz
x,y,z
-x,-y,z
x,-y,-z
-x,y,-z
-x,-y,-z
x,y,-z
-x,y,z
x,-y,z
1/2+x,1/2+y,z
1/2-x,1/2-y,z
1/2+x,1/2-y,-z
1/2-x,1/2+y,-z
1/2-x,1/2-y,-z
1/2+x,1/2+y,-z
1/2-x,1/2+y,z
1/2+x,1/2-y,z
loop_
_atom_site_type_symbol
_atom_site_label
_atom_site_fract_x
_atom_site_fract_y
_atom_site_fract_z
Si Si1 0.835138 0.297573 0.751640
Si Si2 0.168292 0.646214 0.151792
Si Si3 0.331599 0.443459 0.391647
Si Si4 0.168573 0.446747 0.795884
Si Si5 0.165753 0.055830 0.500000
Si Si6 0.835714 0.604832 0.304612
Si Si7 0.665156 0.798812 0.944156
O O1 0.750000 0.250000 0.735243
O O2 0.778932 0.315977 0.805928
O O3 0.808690 0.339266 0.710427
O O4 0.000000 0.284017 0.754601
O O5 0.228014 0.592142 0.163546
O O6 0.218898 0.661988 0.096483
O O7 0.000000 0.644133 0.155563
O O8 0.500000 0.437843 0.386445
O O9 0.289041 0.500000 0.383613
O O10 0.277547 0.423860 0.446614
O O11 0.257042 0.408473 0.352305
O O12 0.233779 0.500000 0.807063
O O13 0.213470 0.429892 0.740640
O O14 0.000000 0.448587 0.799040
O O15 0.000000 0.063804 0.500000
O O16 0.204829 0.000000 0.500000
O O17 0.000000 0.596130 0.317349
O O18 0.500000 0.786879 0.936434
O O19 0.750000 0.750000 0.934827
O O20 0.693968 0.819459 0.000000
#
# Coordination Sequence:
#
# PCOD8274884 Si02
#       7
#    16  16  16  16   8  16  16
#     4   9  17  28  41  57  78 103 130 160 194 234
#     4   8  14  24  37  54  76 101 128 156 188 228
#     4   9  16  26  41  60  82 108 135 160 187 223
#     4   8  13  22  37  55  75 102 132 156 182 223
#     4   7  12  24  39  55  78 107 134 157 184 223
#     4   9  17  27  39  58  81 103 129 161 196 231
#     4   9  16  25  38  56  77  99 123 155 194 231
#
# _framework density 14.992887
#
# number of rings (size 3 to 8) (size 9 to 14) (size 15 to 20)
#    0.000    3.462    0.000    3.692    0.000    1.538 
#    0.000    0.385    0.000    2.769    0.000    3.769 
#    0.000    0.000    0.000    3.846    0.000    4.000 
#
# Total GULP energy -644207.689683 kJ/mol
# GULP energy per Si atom -12388.609417 kJ/mol
# Density = 1.495876 g / cm^3
# Si number density = 14.992887 Si / 1000 Ang^3
#
#
#
# Elastic Constant Matrix: (Units=GPa)
#
#
# Indices 1 2 3 4 5 6 
#
# 1 28.1445 30.5672 34.6053 0.0000 0.0000 0.0000
# 2 30.5672 104.9144 65.7842 0.0000 0.0000 0.0000
# 3 34.6053 65.7842 133.6305 0.0000 0.0000 0.0000
# 4 0.0000 0.0000 0.0000 21.5233 0.0000 0.0000
# 5 0.0000 0.0000 0.0000 0.0000 17.7482 0.0000
# 6 0.0000 0.0000 0.0000 0.0000 0.0000 19.0681
#
#
#
# Elastic Compliance Matrix: (Units=1/GPa)
#
#
# Indices 1 2 3 4 5 6 
#
# 1 0.060029 -0.011199 -0.010032 0.000000 0.000000 0.000000
# 2 -0.011199 0.015877 -0.004916 0.000000 0.000000 0.000000
# 3 -0.010032 -0.004916 0.012501 0.000000 0.000000 0.000000
# 4 0.000000 0.000000 0.000000 0.046461 0.000000 0.000000
# 5 0.000000 0.000000 0.000000 0.000000 0.056344 0.000000
# 6 0.000000 0.000000 0.000000 0.000000 0.000000 0.052443
#
#
# Mechanical properties :
#
#
# Convention : Reuss Voigt Hill
#
# Bulk Modulus (GPa) = 27.69085 58.73364 43.21225
# Shear Modulus (GPa) = 16.23443 20.71679 18.47561
#
# Velocity S-wave (km/s) = 3.29418 3.72126 3.51421
# Velocity P-wave (km/s) = 5.74267 7.59757 6.73429
#
# Compressibility (1/GPa) = 0.03611301
#
# Stress axis : x y z
#
# Youngs Moduli (GPa) = 16.65855 62.98493 79.99243
#
# Poissons Ratio (x) = 0.70539 0.80249
# Poissons Ratio (y) = 0.18656 0.39322
# Poissons Ratio (z) = 0.16712 0.30961
#
# Static dielectric constant tensor:
#      x y z
#    x 2.539090 0.000000 0.000000 
#    y 0.000000 2.995260 0.000000 
#    z 0.000000 0.000000 3.119940 
# 
# 
# High freq. dielectric constant tensor:
#      x y z
#    x 1.539220 0.000000 0.000000 
#    y 0.000000 1.557170 0.000000 
#    z 0.000000 0.000000 1.575080 
# 
# From -- ./inp_files/69380.got.cif
#   From: 2010.03.12/outbox.cif.g09.slc.cpg/sg65_35_cif.got.tgz:69380.got - 2010.04.10 20:52:16.
