data_PCOD8274398
_publ_section_title
;
Structure prediction by ZEFSAII (Michael W. Deem and Ramdas Pophale) SiO2 
 PCOD8274398
Probable space group: C M M M
;
_chemical_formula_sum "Si O2"
_cell_formula_units_Z 72
_cell_length_a 29.824185
_cell_length_b 14.449879
_cell_length_c 8.718468
_cell_angle_alpha 90.000000
_cell_angle_beta 90.000000
_cell_angle_gamma 90.000000
_cell_volume 3757.274914
_symmetry_space_group_name_H-M "C M M M"
_symmetry_group_IT_number 65
_symmetry_cell_setting 'orthorhombic'
loop_
_space_group_symop_operation_xyz
x,y,z
-x,-y,z
x,-y,-z
-x,y,-z
-x,-y,-z
x,y,-z
-x,y,z
x,-y,z
1/2+x,1/2+y,z
1/2-x,1/2-y,z
1/2+x,1/2-y,-z
1/2-x,1/2+y,-z
1/2-x,1/2-y,-z
1/2+x,1/2+y,-z
1/2-x,1/2+y,z
1/2+x,1/2-y,z
loop_
_atom_site_type_symbol
_atom_site_label
_atom_site_fract_x
_atom_site_fract_y
_atom_site_fract_z
Si Si1 0.052748 0.799388 0.678589
Si Si2 0.264666 0.500000 0.181616
Si Si3 0.663725 0.000000 0.181172
Si Si4 0.208186 0.811321 0.680662
Si Si5 0.951001 0.000000 0.318883
Si Si6 0.870378 0.695917 0.819926
O O1 0.061912 0.780392 0.500000
O O2 0.078729 0.723684 0.779416
O O3 0.000000 0.791783 0.714939
O O4 0.072074 0.902222 0.726970
O O5 0.214058 0.500000 0.249421
O O6 0.290856 0.410588 0.239853
O O7 0.264297 0.500000 0.000000
O O8 0.637328 0.909104 0.237652
O O9 0.667013 0.000000 0.000000
O O10 0.209835 0.825573 0.500000
O O11 0.250000 0.750000 0.739146
O O12 0.162376 0.762608 0.727422
O O13 0.957248 0.000000 0.500000
O O14 0.000000 0.000000 0.242006
O O15 0.861167 0.705618 0.000000
#
# Coordination Sequence:
#
# PCOD8274398 Si02
#       6
#    16   8   8  16   8  16
#     4   9  18  35  58  84 114 149 189 236 290 343
#     4  11  21  38  62  84 113 153 197 237 282 338
#     4   9  20  37  57  79 107 149 195 237 284 343
#     4  11  23  38  57  85 117 148 186 234 289 344
#     4   7  12  27  53  78 103 140 178 213 266 333
#     4  11  22  38  59  83 112 150 196 239 288 344
#
# _framework density 19.162822999999999
#
# number of rings (size 3 to 8) (size 9 to 14) (size 15 to 20)
#    0.000    2.111    2.222    3.000    0.000    2.222 
#    0.000    6.667    0.000    5.333    0.000    0.000 
#    0.000    0.000    0.000    0.000    0.000    0.000 
#
# Total GULP energy -446288.666801 kJ/mol
# GULP energy per Si atom -12396.907411 kJ/mol
# Density = 1.911921 g / cm^3
# Si number density = 19.162823 Si / 1000 Ang^3
#
#
#
# Elastic Constant Matrix: (Units=GPa)
#
#
# Indices 1 2 3 4 5 6 
#
# 1 80.9191 57.4745 19.5414 0.0000 0.0000 0.0000
# 2 57.4745 167.8425 35.1936 0.0000 0.0000 0.0000
# 3 19.5414 35.1936 49.5484 0.0000 0.0000 0.0000
# 4 0.0000 0.0000 0.0000 26.5042 0.0000 0.0000
# 5 0.0000 0.0000 0.0000 0.0000 30.4536 0.0000
# 6 0.0000 0.0000 0.0000 0.0000 0.0000 30.8355
#
#
#
# Elastic Compliance Matrix: (Units=1/GPa)
#
#
# Indices 1 2 3 4 5 6 
#
# 1 0.016692 -0.005094 -0.002965 0.000000 0.000000 0.000000
# 2 -0.005094 0.008555 -0.004068 0.000000 0.000000 0.000000
# 3 -0.002965 -0.004068 0.024241 0.000000 0.000000 0.000000
# 4 0.000000 0.000000 0.000000 0.037730 0.000000 0.000000
# 5 0.000000 0.000000 0.000000 0.000000 0.032837 0.000000
# 6 0.000000 0.000000 0.000000 0.000000 0.000000 0.032430
#
#
# Mechanical properties :
#
#
# Convention : Reuss Voigt Hill
#
# Bulk Modulus (GPa) = 39.62771 58.08100 48.85435
# Shear Modulus (GPa) = 27.00508 29.96537 28.48522
#
# Velocity S-wave (km/s) = 3.75806 3.95869 3.85968
# Velocity P-wave (km/s) = 6.28928 7.16030 6.73888
#
# Compressibility (1/GPa) = 0.02523487
#
# Stress axis : x y z
#
# Youngs Moduli (GPa) = 59.90769 116.88653 41.25288
#
# Poissons Ratio (x) = 0.59545 0.12231
# Poissons Ratio (y) = 0.30519 0.16780
# Poissons Ratio (z) = 0.17762 0.47544
#
# Static dielectric constant tensor:
#      x y z
#    x 3.360200 0.000000 0.000000 
#    y 0.000000 3.841920 0.000000 
#    z 0.000000 0.000000 3.240260 
# 
# 
# High freq. dielectric constant tensor:
#      x y z
#    x 1.732270 0.000000 0.000000 
#    y 0.000000 1.756900 0.000000 
#    z 0.000000 0.000000 1.726370 
# 
# From -- ./inp_files/18070.got.cif
#   From: 2010.03.12/outbox.cif.g09.slc.cpg/sg65_10_cif.got.tgz:18070.got - 2010.04.10 20:52:16.
