data_PCOD8274393
_publ_section_title
;
Structure prediction by ZEFSAII (Michael W. Deem and Ramdas Pophale) SiO2 
 PCOD8274393
Probable space group: C M M M
;
_chemical_formula_sum "Si O2"
_cell_formula_units_Z 64
_cell_length_a 10.861253
_cell_length_b 15.150847
_cell_length_c 20.933427
_cell_angle_alpha 90.000000
_cell_angle_beta 90.000000
_cell_angle_gamma 90.000000
_cell_volume 3444.745766
_symmetry_space_group_name_H-M "C M M M"
_symmetry_group_IT_number 65
_symmetry_cell_setting 'orthorhombic'
loop_
_space_group_symop_operation_xyz
x,y,z
-x,-y,z
x,-y,-z
-x,y,-z
-x,-y,-z
x,y,-z
-x,y,z
x,-y,z
1/2+x,1/2+y,z
1/2-x,1/2-y,z
1/2+x,1/2-y,-z
1/2-x,1/2+y,-z
1/2-x,1/2-y,-z
1/2+x,1/2+y,-z
1/2-x,1/2+y,z
1/2+x,1/2-y,z
loop_
_atom_site_type_symbol
_atom_site_label
_atom_site_fract_x
_atom_site_fract_y
_atom_site_fract_z
Si Si1 0.355317 0.500000 0.142009
Si Si2 0.249781 0.652302 0.371122
Si Si3 0.500000 0.101625 0.570485
Si Si4 0.645878 0.500000 0.285289
Si Si5 0.356950 0.680912 0.075430
Si Si6 0.858054 0.902468 0.500000
O O1 0.500000 0.500000 0.146773
O O2 0.300097 0.500000 0.213622
O O3 0.313347 0.588089 0.105355
O O4 0.250000 0.750000 0.341460
O O5 0.308584 0.587554 0.320021
O O6 0.324332 0.652309 0.437437
O O7 0.112031 0.626363 0.385218
O O8 0.500000 0.149216 0.500000
O O9 0.500000 0.000000 0.555976
O O10 0.500000 0.500000 0.286645
O O11 0.500000 0.706381 0.095915
O O12 0.250000 0.750000 0.097393
O O13 0.353864 0.669712 0.000000
O O14 0.000000 0.920443 0.500000
O O15 0.791610 0.000000 0.500000
#
# Coordination Sequence:
#
# PCOD8274393 Si02
#       6
#     8  16   8   8  16   8
#     4   9  19  36  60  80 111 157 197 230 268 328
#     4  12  25  38  59  83 107 141 182 231 283 345
#     4  11  22  40  58  79 111 139 171 228 293 346
#     4  11  24  43  58  78 111 151 193 234 274 327
#     4   9  17  32  59  93 123 152 189 234 281 328
#     4  11  21  37  59  84 109 133 172 232 288 334
#
# _framework density 18.579021000000001
#
# number of rings (size 3 to 8) (size 9 to 14) (size 15 to 20)
#    0.000    1.500    3.750    1.500    3.500    2.500 
#    0.000    0.625    5.500    3.000    0.000    0.000 
#    0.000    0.000    0.000    0.000    0.000    0.000 
#
# Total GULP energy -396645.237916 kJ/mol
# GULP energy per Si atom -12395.163685 kJ/mol
# Density = 1.853673 g / cm^3
# Si number density = 18.579021 Si / 1000 Ang^3
#
#
#
# Elastic Constant Matrix: (Units=GPa)
#
#
# Indices 1 2 3 4 5 6 
#
# 1 111.8944 50.2342 31.4550 0.0000 0.0000 0.0000
# 2 50.2342 154.9943 48.9410 0.0000 0.0000 0.0000
# 3 31.4550 48.9410 65.6713 0.0000 0.0000 0.0000
# 4 0.0000 0.0000 0.0000 -18.1503 0.0000 0.0000
# 5 0.0000 0.0000 0.0000 0.0000 15.7009 0.0000
# 6 0.0000 0.0000 0.0000 0.0000 0.0000 15.6284
#
#
#
# Elastic Compliance Matrix: (Units=1/GPa)
#
#
# Indices 1 2 3 4 5 6 
#
# 1 0.011017 -0.002490 -0.003421 0.000000 0.000000 0.000000
# 2 -0.002490 0.009000 -0.005515 0.000000 0.000000 0.000000
# 3 -0.003421 -0.005515 0.020975 0.000000 0.000000 0.000000
# 4 0.000000 0.000000 0.000000 -0.055095 0.000000 0.000000
# 5 0.000000 0.000000 0.000000 0.000000 0.063691 0.000000
# 6 0.000000 0.000000 0.000000 0.000000 0.000000 0.063986
#
#
# Mechanical properties :
#
#
# Convention : Reuss Voigt Hill
#
# Bulk Modulus (GPa) = 55.12372 65.98004 60.55188
# Shear Modulus (GPa) = 35.09459 16.09778 25.59619
#
# Velocity S-wave (km/s) = 4.35090 2.94674 3.71576
# Velocity P-wave (km/s) = 7.41450 6.86790 7.14643
#
# Compressibility (1/GPa) = 0.01814101
#
# Stress axis : x y z
#
# Youngs Moduli (GPa) = 90.77155 111.10785 47.67468
#
# Poissons Ratio (x) = 0.27670 0.16308
# Poissons Ratio (y) = 0.22606 0.26290
# Poissons Ratio (z) = 0.31051 0.61271
#
# Static dielectric constant tensor:
#      x y z
#    x 3.625170 0.000000 0.000000 
#    y 0.000000 3.601900 0.000000 
#    z 0.000000 0.000000 4.035070 
# 
# 
# High freq. dielectric constant tensor:
#      x y z
#    x 1.722740 0.000000 0.000000 
#    y 0.000000 1.728140 0.000000 
#    z 0.000000 0.000000 1.703820 
# 
# From -- ./inp_files/50993.got.cif
#   From: 2010.03.12/outbox.cif.g09.slc.cpg/sg65_26_cif.got.tgz:50993.got - 2010.04.10 20:52:16.
