data_PCOD8274228
_publ_section_title
;
Structure prediction by ZEFSAII (Michael W. Deem and Ramdas Pophale) SiO2 
 PCOD8274228
Probable space group: C M M M
;
_chemical_formula_sum "Si O2"
_cell_formula_units_Z 120
_cell_length_a 22.780674
_cell_length_b 23.526245
_cell_length_c 13.512199
_cell_angle_alpha 90.000000
_cell_angle_beta 90.000000
_cell_angle_gamma 90.000000
_cell_volume 7241.778168
_symmetry_space_group_name_H-M "C M M M"
_symmetry_group_IT_number 65
_symmetry_cell_setting 'orthorhombic'
loop_
_space_group_symop_operation_xyz
x,y,z
-x,-y,z
x,-y,-z
-x,y,-z
-x,-y,-z
x,y,-z
-x,y,z
x,-y,z
1/2+x,1/2+y,z
1/2-x,1/2-y,z
1/2+x,1/2-y,-z
1/2-x,1/2+y,-z
1/2-x,1/2-y,-z
1/2+x,1/2+y,-z
1/2-x,1/2+y,z
1/2+x,1/2-y,z
loop_
_atom_site_type_symbol
_atom_site_label
_atom_site_fract_x
_atom_site_fract_y
_atom_site_fract_z
Si Si1 0.068617 0.760880 0.782308
Si Si2 0.844641 0.738866 0.614021
Si Si3 0.782487 0.934084 0.773470
Si Si4 0.337729 0.063839 0.887075
Si Si5 0.113955 0.129046 0.118112
Si Si6 0.563842 0.855095 0.883440
Si Si7 0.758607 0.842639 0.386342
Si Si8 0.000000 0.062377 0.117086
O O1 0.095808 0.741248 0.677625
O O2 0.108233 0.810375 0.829136
O O3 0.076265 0.710084 0.859372
O O4 0.000000 0.777873 0.768691
O O5 0.863054 0.731291 0.500000
O O6 0.810096 0.797409 0.629301
O O7 0.803012 0.686180 0.647517
O O8 0.721924 0.929075 0.829625
O O9 0.830106 0.905329 0.844379
O O10 0.775182 0.899714 0.671941
O O11 0.798930 0.000000 0.751686
O O12 0.386566 0.104302 0.837045
O O13 0.362054 0.000000 0.879878
O O14 0.325259 0.081368 0.000000
O O15 0.057409 0.094425 0.153773
O O16 0.117406 0.136619 0.000000
O O17 0.500000 0.872787 0.840157
O O18 0.563866 0.863038 0.000000
O O19 0.753832 0.860836 0.500000
O O20 0.000000 0.000000 0.165311
O O21 0.000000 0.058169 0.000000
#
# Coordination Sequence:
#
# PCOD8274228 Si02
#       8
#    16  16  16  16  16  16  16   8
#     4  11  20  32  51  74 102 131 163 210 258 298
#     4   9  18  34  55  75  96 124 160 203 248 298
#     4  11  21  33  51  74 102 132 164 209 257 299
#     4   9  18  32  48  69  99 132 165 201 243 295
#     4  11  21  33  48  70  99 135 176 213 254 300
#     4   9  18  31  48  71  99 131 165 201 243 294
#     4   9  18  34  55  75  96 124 160 203 248 297
#     4   9  18  32  48  64  87 125 174 216 245 288
#
# _framework density 16.570516000000001
#
# number of rings (size 3 to 8) (size 9 to 14) (size 15 to 20)
#    0.000    2.200    2.000    2.800    0.000    2.667 
#    0.000    1.333    0.000    3.200    0.000    0.000 
#    0.000    4.267    0.000   24.800    0.000    0.267 
#
# Total GULP energy -743816.320232 kJ/mol
# GULP energy per Si atom -12396.938671 kJ/mol
# Density = 1.653280 g / cm^3
# Si number density = 16.570516 Si / 1000 Ang^3
#
#
#
# Elastic Constant Matrix: (Units=GPa)
#
#
# Indices 1 2 3 4 5 6 
#
# 1 76.8444 39.1757 24.6400 0.0000 0.0000 0.0000
# 2 39.1757 70.6323 22.3250 0.0000 0.0000 0.0000
# 3 24.6400 22.3250 54.0670 0.0000 0.0000 0.0000
# 4 0.0000 0.0000 0.0000 24.6009 0.0000 0.0000
# 5 0.0000 0.0000 0.0000 0.0000 22.4007 0.0000
# 6 0.0000 0.0000 0.0000 0.0000 0.0000 28.6458
#
#
#
# Elastic Compliance Matrix: (Units=1/GPa)
#
#
# Indices 1 2 3 4 5 6 
#
# 1 0.019260 -0.009095 -0.005022 0.000000 0.000000 0.000000
# 2 -0.009095 0.020578 -0.004352 0.000000 0.000000 0.000000
# 3 -0.005022 -0.004352 0.022581 0.000000 0.000000 0.000000
# 4 0.000000 0.000000 0.000000 0.040649 0.000000 0.000000
# 5 0.000000 0.000000 0.000000 0.000000 0.044641 0.000000
# 6 0.000000 0.000000 0.000000 0.000000 0.000000 0.034909
#
#
# Mechanical properties :
#
#
# Convention : Reuss Voigt Hill
#
# Bulk Modulus (GPa) = 39.24467 41.53613 40.39040
# Shear Modulus (GPa) = 21.92487 22.82301 22.37394
#
# Velocity S-wave (km/s) = 3.64143 3.71526 3.67853
# Velocity P-wave (km/s) = 6.43543 6.59734 6.51689
#
# Compressibility (1/GPa) = 0.02548117
#
# Stress axis : x y z
#
# Youngs Moduli (GPa) = 51.91986 48.59555 44.28464
#
# Poissons Ratio (x) = 0.44199 0.22240
# Poissons Ratio (y) = 0.47223 0.19272
# Poissons Ratio (z) = 0.26074 0.21148
#
# Static dielectric constant tensor:
#      x y z
#    x 3.264110 0.000000 0.000000 
#    y 0.000000 3.232560 0.000000 
#    z 0.000000 0.000000 2.938040 
# 
# 
# High freq. dielectric constant tensor:
#      x y z
#    x 1.643970 0.000000 0.000000 
#    y 0.000000 1.642590 0.000000 
#    z 0.000000 0.000000 1.617920 
# 
# From -- ./inp_files/29438.got.cif
#   From: 2010.03.12/outbox.cif.g09.slc.cpg/sg65_15_cif.got.tgz:29438.got - 2010.04.10 20:52:16.
