data_PCOD8274665
_publ_section_title
;
Structure prediction by ZEFSAII (Michael W. Deem and Ramdas Pophale) SiO2 
 PCOD8274665
Probable space group: C M M M
;
_chemical_formula_sum "Si O2"
_cell_formula_units_Z 80
_cell_length_a 10.986018
_cell_length_b 17.740407
_cell_length_c 20.653366
_cell_angle_alpha 90.000000
_cell_angle_beta 90.000000
_cell_angle_gamma 90.000000
_cell_volume 4025.267314
_symmetry_space_group_name_H-M "C M M M"
_symmetry_group_IT_number 65
_symmetry_cell_setting 'orthorhombic'
loop_
_space_group_symop_operation_xyz
x,y,z
-x,-y,z
x,-y,-z
-x,y,-z
-x,-y,-z
x,y,-z
-x,y,z
x,-y,z
1/2+x,1/2+y,z
1/2-x,1/2-y,z
1/2+x,1/2-y,-z
1/2-x,1/2+y,-z
1/2-x,1/2-y,-z
1/2+x,1/2+y,-z
1/2-x,1/2+y,z
1/2+x,1/2-y,z
loop_
_atom_site_type_symbol
_atom_site_label
_atom_site_fract_x
_atom_site_fract_y
_atom_site_fract_z
Si Si1 0.239856 0.339081 0.073950
Si Si2 0.638908 0.309671 0.429290
Si Si3 0.500000 0.088052 0.285875
Si Si4 0.638899 0.416401 0.184146
Si Si5 0.752862 0.339263 0.306199
Si Si6 0.000000 0.588324 0.867512
O O1 0.250000 0.250000 0.080418
O O2 0.348784 0.374945 0.115418
O O3 0.114629 0.369931 0.102203
O O4 0.254502 0.365011 0.000000
O O5 0.647199 0.350209 0.500000
O O6 0.500000 0.276595 0.421818
O O7 0.750000 0.250000 0.425722
O O8 0.666929 0.363655 0.367642
O O9 0.613321 0.129163 0.319659
O O10 0.500000 0.101056 0.209058
O O11 0.500000 0.000000 0.303403
O O12 0.500000 0.420101 0.204144
O O13 0.695943 0.500000 0.178360
O O14 0.709304 0.374071 0.239755
O O15 0.750000 0.250000 0.296451
O O16 0.000000 0.500000 0.885697
#
# Coordination Sequence:
#
# PCOD8274665 Si02
#       6
#    16  16   8  16  16   8
#     4  11  25  41  62  90 121 156 201 259 316 372
#     4   9  19  35  58  92 134 173 214 266 322 378
#     4  11  24  41  63  95 131 168 210 266 327 385
#     4  11  24  40  60  86 120 162 204 251 312 382
#     4  11  23  36  65  93 125 163 213 265 316 369
#     4  11  23  42  67  91 118 160 209 258 310 375
#
# _framework density 19.874457
#
# number of rings (size 3 to 8) (size 9 to 14) (size 15 to 20)
#    0.000    1.400    2.000    2.700    8.400    2.400 
#    0.000    1.000    0.000    3.000    0.000    7.000 
#    0.000    0.000    0.000    0.000    0.000    0.000 
#
# Total GULP energy -495696.928919 kJ/mol
# GULP energy per Si atom -12392.423223 kJ/mol
# Density = 1.982922 g / cm^3
# Si number density = 19.874457 Si / 1000 Ang^3
#
#
#
# Elastic Constant Matrix: (Units=GPa)
#
#
# Indices 1 2 3 4 5 6 
#
# 1 134.8895 43.4139 49.9506 0.0000 0.0000 0.0000
# 2 43.4139 97.5828 36.2668 0.0000 0.0000 0.0000
# 3 49.9506 36.2668 124.8402 0.0000 0.0000 0.0000
# 4 0.0000 0.0000 0.0000 -1.6149 0.0000 0.0000
# 5 0.0000 0.0000 0.0000 0.0000 44.7215 0.0000
# 6 0.0000 0.0000 0.0000 0.0000 0.0000 27.9620
#
#
#
# Elastic Compliance Matrix: (Units=1/GPa)
#
#
# Indices 1 2 3 4 5 6 
#
# 1 0.009496 -0.003153 -0.002884 0.000000 0.000000 0.000000
# 2 -0.003153 0.012535 -0.002380 0.000000 0.000000 0.000000
# 3 -0.002884 -0.002380 0.009855 0.000000 0.000000 0.000000
# 4 0.000000 0.000000 0.000000 -0.619251 0.000000 0.000000
# 5 0.000000 0.000000 0.000000 0.000000 0.022361 0.000000
# 6 0.000000 0.000000 0.000000 0.000000 0.000000 0.035763
#
#
# Mechanical properties :
#
#
# Convention : Reuss Voigt Hill
#
# Bulk Modulus (GPa) = 66.43014 68.50834 67.46924
# Shear Modulus (GPa) = -9.85435 29.39249 9.76907
#
# Velocity S-wave (km/s) = -2.22914 3.84983 2.21947
# Velocity P-wave (km/s) = 5.18382 7.36933 6.37099
#
# Compressibility (1/GPa) = 0.01505341
#
# Stress axis : x y z
#
# Youngs Moduli (GPa) = 105.30660 79.77681 101.46754
#
# Poissons Ratio (x) = 0.25154 0.29259
# Poissons Ratio (y) = 0.33204 0.24148
# Poissons Ratio (z) = 0.30366 0.18986
#
# Static dielectric constant tensor:
#      x y z
#    x 1.858370 0.000000 0.000000 
#    y 0.000000 3.517390 0.000000 
#    z 0.000000 0.000000 4.370460 
# 
# 
# High freq. dielectric constant tensor:
#      x y z
#    x 1.794150 0.000000 0.000000 
#    y 0.000000 1.750280 0.000000 
#    z 0.000000 0.000000 1.793140 
# 
# From -- ./inp_files/61375.got.cif
#   From: 2010.03.12/outbox.cif.g09.slc.cpg/sg65_31_cif.got.tgz:61375.got - 2010.04.10 20:52:16.
