data_PCOD8274216
_publ_section_title
;
Structure prediction by ZEFSAII (Michael W. Deem and Ramdas Pophale) SiO2 
 PCOD8274216
Probable space group: C M M M
;
_chemical_formula_sum "Si O2"
_cell_formula_units_Z 112
_cell_length_a 14.834590
_cell_length_b 31.564339
_cell_length_c 14.144575
_cell_angle_alpha 90.000000
_cell_angle_beta 90.000000
_cell_angle_gamma 90.000000
_cell_volume 6623.112768
_symmetry_space_group_name_H-M "C M M M"
_symmetry_group_IT_number 65
_symmetry_cell_setting 'orthorhombic'
loop_
_space_group_symop_operation_xyz
x,y,z
-x,-y,z
x,-y,-z
-x,y,-z
-x,-y,-z
x,y,-z
-x,y,z
x,-y,z
1/2+x,1/2+y,z
1/2-x,1/2-y,z
1/2+x,1/2-y,-z
1/2-x,1/2+y,-z
1/2-x,1/2-y,-z
1/2+x,1/2+y,-z
1/2-x,1/2+y,z
1/2+x,1/2-y,z
loop_
_atom_site_type_symbol
_atom_site_label
_atom_site_fract_x
_atom_site_fract_y
_atom_site_fract_z
Si Si1 0.352311 0.801983 0.394911
Si Si2 0.106892 0.546832 0.394800
Si Si3 0.103143 0.621058 0.736376
Si Si4 0.639939 0.293724 0.605105
Si Si5 0.222590 0.652755 0.109713
Si Si6 0.398972 0.767201 0.106902
Si Si7 0.099226 0.179445 0.800677
O O1 0.380506 0.817711 0.500000
O O2 0.391452 0.834034 0.317639
O O3 0.391210 0.754882 0.377586
O O4 0.245963 0.799041 0.386756
O O5 0.146356 0.553962 0.500000
O O6 0.135353 0.500000 0.357798
O O7 0.145137 0.583452 0.327250
O O8 0.000000 0.550423 0.398968
O O9 0.161794 0.619807 0.832005
O O10 0.000000 0.611943 0.763709
O O11 0.607462 0.307997 0.500000
O O12 0.598255 0.323718 0.686310
O O13 0.177660 0.698466 0.127048
O O14 0.324333 0.650965 0.150167
O O15 0.222515 0.639818 0.000000
O O16 0.500000 0.786344 0.123022
O O17 0.380127 0.728158 0.175021
O O18 0.390044 0.750201 0.000000
O O19 0.000000 0.165520 0.838145
#
# Coordination Sequence:
#
# PCOD8274216 Si02
#       7
#    16  16  16  16  16  16  16
#     4   9  17  29  44  64  91 123 158 194 233 277
#     4   8  15  29  49  75 106 133 154 181 222 273
#     4  11  20  30  49  73  96 126 161 193 228 276
#     4   9  18  31  44  59  86 122 157 197 242 283
#     4  11  22  34  46  62  89 120 154 204 252 281
#     4   9  18  31  46  63  82 111 156 206 250 289
#     4  11  21  32  47  63  81 115 163 205 246 293
#
# _framework density 16.910477
#
# number of rings (size 3 to 8) (size 9 to 14) (size 15 to 20)
#    0.000    2.286    1.429    3.857    2.000    5.714 
#    0.000    1.429    0.000    0.429    0.000    2.000 
#    0.000    0.571    0.000    2.857    0.000    0.143 
#
# Total GULP energy -694116.313338 kJ/mol
# GULP energy per Si atom -12394.934167 kJ/mol
# Density = 1.687199 g / cm^3
# Si number density = 16.910477 Si / 1000 Ang^3
#
#
#
# Elastic Constant Matrix: (Units=GPa)
#
#
# Indices 1 2 3 4 5 6 
#
# 1 80.3246 19.0498 37.2847 0.0000 0.0000 0.0000
# 2 19.0498 47.0388 37.3187 0.0000 0.0000 0.0000
# 3 37.2847 37.3187 121.3877 0.0000 0.0000 0.0000
# 4 0.0000 0.0000 0.0000 19.6397 0.0000 0.0000
# 5 0.0000 0.0000 0.0000 0.0000 16.2042 0.0000
# 6 0.0000 0.0000 0.0000 0.0000 0.0000 5.8654
#
#
#
# Elastic Compliance Matrix: (Units=1/GPa)
#
#
# Indices 1 2 3 4 5 6 
#
# 1 0.014869 -0.003172 -0.003592 0.000000 0.000000 0.000000
# 2 -0.003172 0.028794 -0.007878 0.000000 0.000000 0.000000
# 3 -0.003592 -0.007878 0.011763 0.000000 0.000000 0.000000
# 4 0.000000 0.000000 0.000000 0.050917 0.000000 0.000000
# 5 0.000000 0.000000 0.000000 0.000000 0.061713 0.000000
# 6 0.000000 0.000000 0.000000 0.000000 0.000000 0.170490
#
#
# Mechanical properties :
#
#
# Convention : Reuss Voigt Hill
#
# Bulk Modulus (GPa) = 38.25202 48.45082 43.35142
# Shear Modulus (GPa) = 13.27869 18.68172 15.98020
#
# Velocity S-wave (km/s) = 2.80524 3.32737 3.07740
# Velocity P-wave (km/s) = 5.75864 6.59359 6.19021
#
# Compressibility (1/GPa) = 0.02614241
#
# Stress axis : x y z
#
# Youngs Moduli (GPa) = 67.25392 34.72997 85.01051
#
# Poissons Ratio (x) = 0.11016 0.30535
# Poissons Ratio (y) = 0.21333 0.66970
# Poissons Ratio (z) = 0.24157 0.27360
#
# Static dielectric constant tensor:
#      x y z
#    x 3.097760 0.000000 0.000000 
#    y 0.000000 2.805280 0.000000 
#    z 0.000000 0.000000 3.491970 
# 
# 
# High freq. dielectric constant tensor:
#      x y z
#    x 1.641970 0.000000 0.000000 
#    y 0.000000 1.577380 0.000000 
#    z 0.000000 0.000000 1.669360 
# 
# From -- ./inp_files/41396.got.cif
#   From: 2010.03.12/outbox.cif.g09.slc.cpg/sg65_21_cif.got.tgz:41396.got - 2010.04.10 20:52:16.
