data_PCOD8274682
_publ_section_title
;
Structure prediction by ZEFSAII (Michael W. Deem and Ramdas Pophale) SiO2 
 PCOD8274682
Probable space group: C M M M
;
_chemical_formula_sum "Si O2"
_cell_formula_units_Z 72
_cell_length_a 18.552152
_cell_length_b 9.132894
_cell_length_c 22.949616
_cell_angle_alpha 90.000000
_cell_angle_beta 90.000000
_cell_angle_gamma 90.000000
_cell_volume 3888.464462
_symmetry_space_group_name_H-M "C M M M"
_symmetry_group_IT_number 65
_symmetry_cell_setting 'orthorhombic'
loop_
_space_group_symop_operation_xyz
x,y,z
-x,-y,z
x,-y,-z
-x,y,-z
-x,-y,-z
x,y,-z
-x,y,z
x,-y,z
1/2+x,1/2+y,z
1/2-x,1/2-y,z
1/2+x,1/2-y,-z
1/2-x,1/2+y,-z
1/2-x,1/2-y,-z
1/2+x,1/2+y,-z
1/2-x,1/2+y,z
1/2+x,1/2-y,z
loop_
_atom_site_type_symbol
_atom_site_label
_atom_site_fract_x
_atom_site_fract_y
_atom_site_fract_z
Si Si1 0.417048 0.829773 0.273151
Si Si2 0.413971 0.834503 0.500000
Si Si3 0.417225 0.667675 0.932449
Si Si4 0.585855 0.665275 0.387228
Si Si5 0.674131 0.172490 0.160920
O O1 0.500000 0.789658 0.260804
O O2 0.386091 0.740878 0.328205
O O3 0.372693 0.782129 0.216737
O O4 0.408143 0.000000 0.287721
O O5 0.500000 0.832802 0.500000
O O6 0.383663 0.752533 0.557089
O O7 0.384697 0.000000 0.500000
O O8 0.500000 0.708977 0.919883
O O9 0.402438 0.500000 0.914222
O O10 0.366233 0.775169 0.896869
O O11 0.399002 0.690571 0.000000
O O12 0.500000 0.668524 0.388426
O O13 0.615283 0.500000 0.389603
O O14 0.750000 0.250000 0.166705
O O15 0.685673 0.000000 0.156659
#
# Coordination Sequence:
#
# PCOD8274682 Si02
#       5
#    16   8  16  16  16
#     4   9  18  33  51  71  97 130 169 211 256 307
#     4   9  15  23  37  59  92 131 164 199 248 301
#     4   9  19  37  60  84 109 137 170 210 257 309
#     4   9  16  25  40  65  95 126 162 205 252 301
#     4  11  23  37  54  77 106 140 177 217 260 307
#
# _framework density 18.516307000000001
#
# number of rings (size 3 to 8) (size 9 to 14) (size 15 to 20)
#    0.000    2.556    0.000    3.000    0.000    8.000 
#    0.000    3.333    0.000    0.000    0.000    0.778 
#    0.000    0.000    0.000    0.000    0.000    0.000 
#
# Total GULP energy -446464.017285 kJ/mol
# GULP energy per Si atom -12401.778258 kJ/mol
# Density = 1.847416 g / cm^3
# Si number density = 18.516307 Si / 1000 Ang^3
#
#
#
# Elastic Constant Matrix: (Units=GPa)
#
#
# Indices 1 2 3 4 5 6 
#
# 1 69.5128 47.4153 57.6478 0.0000 0.0000 0.0000
# 2 47.4153 118.1158 80.0254 0.0000 0.0000 0.0000
# 3 57.6478 80.0254 140.8925 0.0000 0.0000 0.0000
# 4 0.0000 0.0000 0.0000 36.5107 0.0000 0.0000
# 5 0.0000 0.0000 0.0000 0.0000 0.6457 0.0000
# 6 0.0000 0.0000 0.0000 0.0000 0.0000 -5.0246
#
#
#
# Elastic Compliance Matrix: (Units=1/GPa)
#
#
# Indices 1 2 3 4 5 6 
#
# 1 0.023276 -0.004700 -0.006854 0.000000 0.000000 0.000000
# 2 -0.004700 0.014711 -0.006433 0.000000 0.000000 0.000000
# 3 -0.006854 -0.006433 0.013556 0.000000 0.000000 0.000000
# 4 0.000000 0.000000 0.000000 0.027389 0.000000 0.000000
# 5 0.000000 0.000000 0.000000 0.000000 1.548663 0.000000
# 6 0.000000 0.000000 0.000000 0.000000 0.000000 -0.199019
#
#
# Mechanical properties :
#
#
# Convention : Reuss Voigt Hill
#
# Bulk Modulus (GPa) = 64.22881 77.63312 70.93097
# Shear Modulus (GPa) = 3.40196 15.98853 9.69525
#
# Velocity S-wave (km/s) = 1.35693 2.94170 2.29073
# Velocity P-wave (km/s) = 6.10066 7.31820 6.73699
#
# Compressibility (1/GPa) = 0.01556934
#
# Stress axis : x y z
#
# Youngs Moduli (GPa) = 42.96297 67.97491 73.76885
#
# Poissons Ratio (x) = 0.31947 0.50562
# Poissons Ratio (y) = 0.20192 0.47455
# Poissons Ratio (z) = 0.29447 0.43727
#
# Static dielectric constant tensor:
#      x y z
#    x 3.023400 0.000000 0.000000 
#    y 0.000000 3.477310 0.000000 
#    z 0.000000 0.000000 3.526800 
# 
# 
# High freq. dielectric constant tensor:
#      x y z
#    x 1.673590 0.000000 0.000000 
#    y 0.000000 1.726400 0.000000 
#    z 0.000000 0.000000 1.733000 
# 
# From -- ./inp_files/59197.got.cif
#   From: 2010.03.12/outbox.cif.g09.slc.cpg/sg65_30_cif.got.tgz:59197.got - 2010.04.10 20:52:16.
