data_PCOD8274131
_publ_section_title
;
Structure prediction by ZEFSAII (Michael W. Deem and Ramdas Pophale) SiO2 
 PCOD8274131
Probable space group: C M M M
;
_chemical_formula_sum "Si O2"
_cell_formula_units_Z 90
_cell_length_a 18.603735
_cell_length_b 21.813830
_cell_length_c 11.246290
_cell_angle_alpha 90.000000
_cell_angle_beta 90.000000
_cell_angle_gamma 90.000000
_cell_volume 4563.954930
_symmetry_space_group_name_H-M "C M M M"
_symmetry_group_IT_number 65
_symmetry_cell_setting 'orthorhombic'
loop_
_space_group_symop_operation_xyz
x,y,z
-x,-y,z
x,-y,-z
-x,y,-z
-x,-y,-z
x,y,-z
-x,y,z
x,-y,z
1/2+x,1/2+y,z
1/2-x,1/2-y,z
1/2+x,1/2-y,-z
1/2-x,1/2+y,-z
1/2-x,1/2-y,-z
1/2+x,1/2+y,-z
1/2-x,1/2+y,z
1/2+x,1/2-y,z
loop_
_atom_site_type_symbol
_atom_site_label
_atom_site_fract_x
_atom_site_fract_y
_atom_site_fract_z
Si Si1 0.697131 0.068729 0.638849
Si Si2 0.416827 0.851459 0.750254
Si Si3 0.084976 0.000000 0.365405
Si Si4 0.116558 0.607725 0.000000
Si Si5 0.716857 0.572361 0.000000
Si Si6 0.500000 0.000000 0.000000
Si Si7 0.415495 0.723293 0.638022
Si Si8 0.663401 0.387794 0.748865
O O1 0.686830 0.070898 0.500000
O O2 0.622961 0.089638 0.696868
O O3 0.761670 0.112243 0.678400
O O4 0.714378 0.000000 0.684422
O O5 0.500000 0.864797 0.730074
O O6 0.392383 0.790626 0.681078
O O7 0.397136 0.847303 0.888652
O O8 0.110843 0.940161 0.297876
O O9 0.116353 0.000000 0.500000
O O10 0.000000 0.000000 0.368434
O O11 0.062298 0.551204 0.000000
O O12 0.198234 0.583829 0.000000
O O13 0.678468 0.603882 0.112162
O O14 0.701668 0.500000 0.000000
O O15 0.393812 0.714496 0.500000
O O16 0.500000 0.712947 0.655631
O O17 0.373768 0.676788 0.723090
#
# Coordination Sequence:
#
# PCOD8274131 Si02
#       8
#    16  16   8   8   8   2  16  16
#     4  11  23  38  61  93 129 169 214 273 338 394
#     4  11  24  42  65  95 131 171 220 273 327 391
#     4  11  22  38  65  98 130 165 216 279 334 387
#     4  12  24  41  65  98 131 175 226 273 322 390
#     4  12  24  43  64  92 137 175 209 270 335 384
#     4  12  24  36  76 100 122 184 234 266 324 398
#     4  10  23  45  70  95 130 175 221 272 330 394
#     4  12  23  41  66  95 128 174 221 270 326 395
#
# _framework density 19.719738
#
# number of rings (size 3 to 8) (size 9 to 14) (size 15 to 20)
#    0.000    0.800    4.889    2.667    1.244    4.267 
#    0.000    6.667    0.000    0.000    0.000    0.000 
#    0.000    0.000    0.000    0.000    0.000    0.000 
#
# Total GULP energy -557680.451205 kJ/mol
# GULP energy per Si atom -12392.898916 kJ/mol
# Density = 1.967486 g / cm^3
# Si number density = 19.719738 Si / 1000 Ang^3
#
#
#
# Elastic Constant Matrix: (Units=GPa)
#
#
# Indices 1 2 3 4 5 6 
#
# 1 85.9192 37.2555 53.3709 0.0000 0.0000 0.0000
# 2 37.2555 59.9634 41.5679 0.0000 0.0000 0.0000
# 3 53.3709 41.5679 117.1519 0.0000 0.0000 0.0000
# 4 0.0000 0.0000 0.0000 50.0669 0.0000 0.0000
# 5 0.0000 0.0000 0.0000 0.0000 31.1801 0.0000
# 6 0.0000 0.0000 0.0000 0.0000 0.0000 37.7342
#
#
#
# Elastic Compliance Matrix: (Units=1/GPa)
#
#
# Indices 1 2 3 4 5 6 
#
# 1 0.018456 -0.007477 -0.005755 0.000000 0.000000 0.000000
# 2 -0.007477 0.025146 -0.005516 0.000000 0.000000 0.000000
# 3 -0.005755 -0.005516 0.013115 0.000000 0.000000 0.000000
# 4 0.000000 0.000000 0.000000 0.019973 0.000000 0.000000
# 5 0.000000 0.000000 0.000000 0.000000 0.032072 0.000000
# 6 0.000000 0.000000 0.000000 0.000000 0.000000 0.026501
#
#
# Mechanical properties :
#
#
# Convention : Reuss Voigt Hill
#
# Bulk Modulus (GPa) = 52.02714 58.60257 55.31485
# Shear Modulus (GPa) = 27.90704 32.51892 30.21298
#
# Velocity S-wave (km/s) = 3.76597 4.06526 3.91848
# Velocity P-wave (km/s) = 6.73429 7.19843 6.97022
#
# Compressibility (1/GPa) = 0.01922074
#
# Stress axis : x y z
#
# Youngs Moduli (GPa) = 54.18343 39.76726 76.24956
#
# Poissons Ratio (x) = 0.29735 0.43880
# Poissons Ratio (y) = 0.40515 0.42059
# Poissons Ratio (z) = 0.31182 0.21936
#
# Static dielectric constant tensor:
#      x y z
#    x 3.709220 0.000000 0.000000 
#    y 0.000000 3.790250 0.000000 
#    z 0.000000 0.000000 3.803200 
# 
# 
# High freq. dielectric constant tensor:
#      x y z
#    x 1.782860 0.000000 0.000000 
#    y 0.000000 1.767030 0.000000 
#    z 0.000000 0.000000 1.775890 
# 
# From -- ./inp_files/26890.got.cif
#   From: 2010.03.12/outbox.cif.g09.slc.cpg/sg65_14_cif.got.tgz:26890.got - 2010.04.10 20:52:16.
