data_PCOD8274004
_publ_section_title
;
Structure prediction by ZEFSAII (Michael W. Deem and Ramdas Pophale) SiO2 
 PCOD8274004
Probable space group: C M M M
;
_chemical_formula_sum "Si O2"
_cell_formula_units_Z 64
_cell_length_a 10.341485
_cell_length_b 22.371661
_cell_length_c 16.702519
_cell_angle_alpha 90.000000
_cell_angle_beta 90.000000
_cell_angle_gamma 90.000000
_cell_volume 3864.231270
_symmetry_space_group_name_H-M "C M M M"
_symmetry_group_IT_number 65
_symmetry_cell_setting 'orthorhombic'
loop_
_space_group_symop_operation_xyz
x,y,z
-x,-y,z
x,-y,-z
-x,y,-z
-x,-y,-z
x,y,-z
-x,y,z
x,-y,z
1/2+x,1/2+y,z
1/2-x,1/2-y,z
1/2+x,1/2-y,-z
1/2-x,1/2+y,-z
1/2-x,1/2-y,-z
1/2+x,1/2+y,-z
1/2-x,1/2+y,z
1/2+x,1/2-y,z
loop_
_atom_site_type_symbol
_atom_site_label
_atom_site_fract_x
_atom_site_fract_y
_atom_site_fract_z
Si Si1 0.000000 0.599100 0.000000
Si Si2 0.149538 0.000000 0.329043
Si Si3 0.286370 0.000000 0.171849
Si Si4 0.259841 0.380453 0.406708
Si Si5 0.000000 0.203185 0.406364
Si Si6 0.000000 0.600639 0.825734
Si Si7 0.710497 0.000000 0.000000
Si Si8 0.000000 0.670264 0.335011
O O1 0.000000 0.633912 0.914040
O O2 0.874720 0.558728 0.000000
O O3 0.219192 0.057191 0.364123
O O4 0.169028 0.000000 0.233820
O O5 0.000000 0.000000 0.352105
O O6 0.373966 0.941016 0.183424
O O7 0.213833 0.000000 0.084638
O O8 0.256851 0.393090 0.500000
O O9 0.373523 0.334675 0.385050
O O10 0.124713 0.354682 0.378949
O O11 0.000000 0.258589 0.345712
O O12 0.000000 0.223291 0.500000
O O13 0.000000 0.652348 0.758707
#
# Coordination Sequence:
#
# PCOD8274004 Si02
#       8
#     4   8   8  16   8   8   4   8
#     4   7  12  24  44  76 102 132 158 191 256 320
#     4  12  22  35  53  74 105 141 176 210 261 323
#     4   9  16  31  47  77 105 132 163 210 259 314
#     4  11  23  37  54  75 103 140 179 218 263 309
#     4  10  22  40  55  70 101 144 186 217 251 307
#     4   9  16  28  51  77 107 128 160 211 261 313
#     4   7  12  24  49  68 102 134 159 197 258 314
#     4  12  21  34  55  83 104 129 173 230 266 289
#
# _framework density 16.562155000000001
#
# number of rings (size 3 to 8) (size 9 to 14) (size 15 to 20)
#    0.000    1.875    3.750    3.750    0.000    3.000 
#    0.000    1.562    0.000    0.000    0.000    5.250 
#    0.000    0.000    0.000    0.000    0.000    0.000 
#
# Total GULP energy -396580.842844 kJ/mol
# GULP energy per Si atom -12393.151339 kJ/mol
# Density = 1.652446 g / cm^3
# Si number density = 16.562155 Si / 1000 Ang^3
#
#
#
# Elastic Constant Matrix: (Units=GPa)
#
#
# Indices 1 2 3 4 5 6 
#
# 1 93.3451 31.5273 27.6360 0.0000 0.0000 0.0000
# 2 31.5273 100.0638 57.4107 0.0000 0.0000 0.0000
# 3 27.6360 57.4107 121.0588 0.0000 0.0000 0.0000
# 4 0.0000 0.0000 0.0000 24.8333 0.0000 0.0000
# 5 0.0000 0.0000 0.0000 0.0000 23.6863 0.0000
# 6 0.0000 0.0000 0.0000 0.0000 0.0000 24.5159
#
#
#
# Elastic Compliance Matrix: (Units=1/GPa)
#
#
# Indices 1 2 3 4 5 6 
#
# 1 0.012139 -0.003070 -0.001315 0.000000 0.000000 0.000000
# 2 -0.003070 0.014506 -0.006178 0.000000 0.000000 0.000000
# 3 -0.001315 -0.006178 0.011491 0.000000 0.000000 0.000000
# 4 0.000000 0.000000 0.000000 0.040269 0.000000 0.000000
# 5 0.000000 0.000000 0.000000 0.000000 0.042218 0.000000
# 6 0.000000 0.000000 0.000000 0.000000 0.000000 0.040790
#
#
# Mechanical properties :
#
#
# Convention : Reuss Voigt Hill
#
# Bulk Modulus (GPa) = 58.79483 60.84620 59.82051
# Shear Modulus (GPa) = 26.56620 27.80002 27.18311
#
# Velocity S-wave (km/s) = 4.00938 4.10143 4.05566
# Velocity P-wave (km/s) = 7.55050 7.69719 7.62420
#
# Compressibility (1/GPa) = 0.01700830
#
# Stress axis : x y z
#
# Youngs Moduli (GPa) = 82.37732 68.93857 87.02711
#
# Poissons Ratio (x) = 0.21165 0.11446
# Poissons Ratio (y) = 0.25291 0.53768
# Poissons Ratio (z) = 0.10835 0.42592
#
# Static dielectric constant tensor:
#      x y z
#    x 3.047450 0.000000 0.000000 
#    y 0.000000 3.279450 0.000000 
#    z 0.000000 0.000000 3.498320 
# 
# 
# High freq. dielectric constant tensor:
#      x y z
#    x 1.630010 0.000000 0.000000 
#    y 0.000000 1.617360 0.000000 
#    z 0.000000 0.000000 1.648450 
# 
# From -- ./inp_files/36156.got.cif
#   From: 2010.03.12/outbox.cif.g09.slc.cpg/sg65_19_cif.got.tgz:36156.got - 2010.04.10 20:52:16.
