data_PCOD8274522
_publ_section_title
;
Structure prediction by ZEFSAII (Michael W. Deem and Ramdas Pophale) SiO2 
 PCOD8274522
Probable space group: C M M M
;
_chemical_formula_sum "Si O2"
_cell_formula_units_Z 64
_cell_length_a 18.469479
_cell_length_b 8.960409
_cell_length_c 20.144909
_cell_angle_alpha 90.000000
_cell_angle_beta 90.000000
_cell_angle_gamma 90.000000
_cell_volume 3333.863300
_symmetry_space_group_name_H-M "C M M M"
_symmetry_group_IT_number 65
_symmetry_cell_setting 'orthorhombic'
loop_
_space_group_symop_operation_xyz
x,y,z
-x,-y,z
x,-y,-z
-x,y,-z
-x,-y,-z
x,y,-z
-x,y,z
x,-y,z
1/2+x,1/2+y,z
1/2-x,1/2-y,z
1/2+x,1/2-y,-z
1/2-x,1/2+y,-z
1/2-x,1/2-y,-z
1/2+x,1/2+y,-z
1/2-x,1/2+y,z
1/2+x,1/2-y,z
loop_
_atom_site_type_symbol
_atom_site_label
_atom_site_fract_x
_atom_site_fract_y
_atom_site_fract_z
Si Si1 0.418783 0.677181 0.000000
Si Si2 0.672413 0.676440 0.874396
Si Si3 0.672936 0.674685 0.500000
Si Si4 0.416843 0.172325 0.236508
Si Si5 0.916197 0.670518 0.610564
O O1 0.377173 0.734656 0.065142
O O2 0.422296 0.500000 0.000000
O O3 0.500000 0.744318 0.000000
O O4 0.682002 0.500000 0.875627
O O5 0.750000 0.750000 0.881925
O O6 0.635300 0.723258 0.805844
O O7 0.684158 0.500000 0.500000
O O8 0.750000 0.750000 0.500000
O O9 0.630349 0.719635 0.566059
O O10 0.500000 0.215338 0.222136
O O11 0.397651 0.202223 0.312978
O O12 0.403079 0.000000 0.218363
O O13 0.897431 0.500000 0.592181
O O14 0.000000 0.702288 0.596382
#
# Coordination Sequence:
#
# PCOD8274522 Si02
#       5
#     8  16   8  16  16
#     4   9  19  36  57  81 108 141 184 231 278 328
#     4  11  22  36  56  81 113 150 185 226 275 327
#     4  12  25  38  55  81 113 147 185 230 275 324
#     4   9  19  37  60  85 112 143 182 226 272 327
#     4   9  19  38  62  84 110 145 181 222 275 331
#
# _framework density 19.196947999999999
#
# number of rings (size 3 to 8) (size 9 to 14) (size 15 to 20)
#    0.000    2.125    0.000    4.875    0.000    5.500 
#    0.000    4.375    0.000    4.500    0.000    0.000 
#    0.000    0.000    0.000    0.000    0.000    0.000 
#
# Total GULP energy -396909.538969 kJ/mol
# GULP energy per Si atom -12403.423093 kJ/mol
# Density = 1.915326 g / cm^3
# Si number density = 19.196948 Si / 1000 Ang^3
#
#
#
# Elastic Constant Matrix: (Units=GPa)
#
#
# Indices 1 2 3 4 5 6 
#
# 1 146.1035 66.1467 82.1603 0.0000 0.0000 0.0000
# 2 66.1467 100.9926 57.3113 0.0000 0.0000 0.0000
# 3 82.1603 57.3113 122.9221 0.0000 0.0000 0.0000
# 4 0.0000 0.0000 0.0000 25.3257 0.0000 0.0000
# 5 0.0000 0.0000 0.0000 0.0000 13.0021 0.0000
# 6 0.0000 0.0000 0.0000 0.0000 0.0000 23.5723
#
#
#
# Elastic Compliance Matrix: (Units=1/GPa)
#
#
# Indices 1 2 3 4 5 6 
#
# 1 0.012384 -0.004642 -0.006113 0.000000 0.000000 0.000000
# 2 -0.004642 0.015204 -0.003986 0.000000 0.000000 0.000000
# 3 -0.006113 -0.003986 0.014080 0.000000 0.000000 0.000000
# 4 0.000000 0.000000 0.000000 0.039486 0.000000 0.000000
# 5 0.000000 0.000000 0.000000 0.000000 0.076911 0.000000
# 6 0.000000 0.000000 0.000000 0.000000 0.000000 0.042423
#
#
# Mechanical properties :
#
#
# Convention : Reuss Voigt Hill
#
# Bulk Modulus (GPa) = 82.06560 86.80611 84.43586
# Shear Modulus (GPa) = 21.36482 23.34001 22.35242
#
# Velocity S-wave (km/s) = 3.33968 3.49064 3.41599
# Velocity P-wave (km/s) = 7.59693 7.84621 7.72258
#
# Compressibility (1/GPa) = 0.01218537
#
# Stress axis : x y z
#
# Youngs Moduli (GPa) = 80.75237 65.77198 71.02519
#
# Poissons Ratio (x) = 0.30531 0.43417
# Poissons Ratio (y) = 0.37484 0.28312
# Poissons Ratio (z) = 0.49363 0.26218
#
# Static dielectric constant tensor:
#      x y z
#    x 3.573140 0.000000 0.000000 
#    y 0.000000 3.321240 0.000000 
#    z 0.000000 0.000000 3.591460 
# 
# 
# High freq. dielectric constant tensor:
#      x y z
#    x 1.753310 0.000000 0.000000 
#    y 0.000000 1.733310 0.000000 
#    z 0.000000 0.000000 1.760290 
# 
# From -- ./inp_files/63249.got.cif
#   From: 2010.03.12/outbox.cif.g09.slc.cpg/sg65_32_cif.got.tgz:63249.got - 2010.04.10 20:52:16.
