data_PCOD8274316
_publ_section_title
;
Structure prediction by ZEFSAII (Michael W. Deem and Ramdas Pophale) SiO2 
 PCOD8274316
Probable space group: C M M M
;
_chemical_formula_sum "Si O2"
_cell_formula_units_Z 88
_cell_length_a 19.374641
_cell_length_b 8.899485
_cell_length_c 28.376233
_cell_angle_alpha 90.000000
_cell_angle_beta 90.000000
_cell_angle_gamma 90.000000
_cell_volume 4892.752877
_symmetry_space_group_name_H-M "C M M M"
_symmetry_group_IT_number 65
_symmetry_cell_setting 'orthorhombic'
loop_
_space_group_symop_operation_xyz
x,y,z
-x,-y,z
x,-y,-z
-x,y,-z
-x,-y,-z
x,y,-z
-x,y,z
x,-y,z
1/2+x,1/2+y,z
1/2-x,1/2-y,z
1/2+x,1/2-y,-z
1/2-x,1/2+y,-z
1/2-x,1/2-y,-z
1/2+x,1/2+y,-z
1/2-x,1/2+y,z
1/2+x,1/2-y,z
loop_
_atom_site_type_symbol
_atom_site_label
_atom_site_fract_x
_atom_site_fract_y
_atom_site_fract_z
Si Si1 0.323854 0.824571 0.677009
Si Si2 0.324235 0.823983 0.219415
Si Si3 0.825076 0.822838 0.127831
Si Si4 0.420544 0.828011 0.945373
Si Si5 0.917944 0.169680 0.500000
Si Si6 0.078600 0.322314 0.594338
O O1 0.250000 0.750000 0.669950
O O2 0.357416 0.793803 0.728966
O O3 0.377186 0.761755 0.638429
O O4 0.311724 0.000000 0.670033
O O5 0.250000 0.750000 0.221551
O O6 0.362298 0.742862 0.175460
O O7 0.319039 0.000000 0.208534
O O8 0.750000 0.750000 0.120556
O O9 0.872862 0.784184 0.083754
O O10 0.816820 0.000000 0.132177
O O11 0.500000 0.791233 0.934255
O O12 0.403816 0.000000 0.931778
O O13 0.404497 0.800111 0.000000
O O14 0.889803 0.251504 0.453259
O O15 0.000000 0.179013 0.500000
O O16 0.890607 0.000000 0.500000
O O17 0.082817 0.500000 0.589342
O O18 0.000000 0.269304 0.602536
#
# Coordination Sequence:
#
# PCOD8274316 Si02
#       6
#    16  16  16  16   8  16
#     4   9  18  31  49  72  96 125 160 197 239 287
#     4   9  16  29  48  70  97 128 163 200 241 289
#     4  11  21  33  52  77 104 133 168 209 248 289
#     4   9  19  37  58  77 100 132 167 203 248 301
#     4   9  17  29  46  69  94 121 155 193 236 283
#     4   9  17  31  50  70  93 122 157 195 235 282
#
# _framework density 17.985785
#
# number of rings (size 3 to 8) (size 9 to 14) (size 15 to 20)
#    0.000    2.636    0.000    4.091    0.000    3.636 
#    0.000    2.273    0.000    3.273    0.000    0.000 
#    0.000    0.000    0.000    0.000    0.000    0.000 
#
# Total GULP energy -545351.424733 kJ/mol
# GULP energy per Si atom -12394.350562 kJ/mol
# Density = 1.794485 g / cm^3
# Si number density = 17.985785 Si / 1000 Ang^3
#
#
#
# Elastic Constant Matrix: (Units=GPa)
#
#
# Indices 1 2 3 4 5 6 
#
# 1 59.8965 34.6462 61.5265 0.0000 0.0000 0.0000
# 2 34.6462 92.8770 60.9624 0.0000 0.0000 0.0000
# 3 61.5265 60.9624 153.2004 0.0000 0.0000 0.0000
# 4 0.0000 0.0000 0.0000 28.8989 0.0000 0.0000
# 5 0.0000 0.0000 0.0000 0.0000 21.0146 0.0000
# 6 0.0000 0.0000 0.0000 0.0000 0.0000 21.8795
#
#
#
# Elastic Compliance Matrix: (Units=1/GPa)
#
#
# Indices 1 2 3 4 5 6 
#
# 1 0.029690 -0.004397 -0.010174 0.000000 0.000000 0.000000
# 2 -0.004397 0.015225 -0.004292 0.000000 0.000000 0.000000
# 3 -0.010174 -0.004292 0.012321 0.000000 0.000000 0.000000
# 4 0.000000 0.000000 0.000000 0.034603 0.000000 0.000000
# 5 0.000000 0.000000 0.000000 0.000000 0.047586 0.000000
# 6 0.000000 0.000000 0.000000 0.000000 0.000000 0.045705
#
#
# Mechanical properties :
#
#
# Convention : Reuss Voigt Hill
#
# Bulk Modulus (GPa) = 51.25901 68.91600 60.08751
# Shear Modulus (GPa) = 21.79982 24.28118 23.04050
#
# Velocity S-wave (km/s) = 3.48524 3.67825 3.58304
# Velocity P-wave (km/s) = 6.69010 7.51262 7.11326
#
# Compressibility (1/GPa) = 0.01950876
#
# Stress axis : x y z
#
# Youngs Moduli (GPa) = 33.68171 65.68297 81.16047
#
# Poissons Ratio (x) = 0.28883 0.82571
# Poissons Ratio (y) = 0.14811 0.34836
# Poissons Ratio (z) = 0.34267 0.28193
#
# Static dielectric constant tensor:
#      x y z
#    x 3.003350 0.000000 0.000000 
#    y 0.000000 3.309590 0.000000 
#    z 0.000000 0.000000 4.026170 
# 
# 
# High freq. dielectric constant tensor:
#      x y z
#    x 1.653860 0.000000 0.000000 
#    y 0.000000 1.698010 0.000000 
#    z 0.000000 0.000000 1.717950 
# 
# From -- ./inp_files/75370.got.cif
#   From: 2010.03.12/outbox.cif.g09.slc.cpg/sg65_38_cif.got.tgz:75370.got - 2010.04.10 20:52:16.
