data_PCOD8274723
_publ_section_title
;
Structure prediction by ZEFSAII (Michael W. Deem and Ramdas Pophale) SiO2 
 PCOD8274723
Probable space group: C M M M
;
_chemical_formula_sum "Si O2"
_cell_formula_units_Z 88
_cell_length_a 17.335656
_cell_length_b 9.411342
_cell_length_c 26.717134
_cell_angle_alpha 90.000000
_cell_angle_beta 90.000000
_cell_angle_gamma 90.000000
_cell_volume 4358.948167
_symmetry_space_group_name_H-M "C M M M"
_symmetry_group_IT_number 65
_symmetry_cell_setting 'orthorhombic'
loop_
_space_group_symop_operation_xyz
x,y,z
-x,-y,z
x,-y,-z
-x,y,-z
-x,-y,-z
x,y,-z
-x,y,z
x,-y,z
1/2+x,1/2+y,z
1/2-x,1/2-y,z
1/2+x,1/2-y,-z
1/2-x,1/2+y,-z
1/2-x,1/2-y,-z
1/2+x,1/2+y,-z
1/2-x,1/2+y,z
1/2+x,1/2-y,z
loop_
_atom_site_type_symbol
_atom_site_label
_atom_site_fract_x
_atom_site_fract_y
_atom_site_fract_z
Si Si1 0.810208 0.000000 0.439682
Si Si2 0.408427 0.839575 0.085869
Si Si3 0.413922 0.731964 0.389548
Si Si4 0.085023 0.667363 0.802985
Si Si5 0.671631 0.169708 0.294370
Si Si6 0.865956 0.500000 0.558250
Si Si7 0.669537 0.329374 0.000000
O O1 0.851017 0.865810 0.415596
O O2 0.817797 0.000000 0.500000
O O3 0.721845 0.000000 0.420489
O O4 0.500000 0.838535 0.082432
O O5 0.382022 0.795218 0.141913
O O6 0.378936 0.000000 0.072595
O O7 0.375616 0.720903 0.049123
O O8 0.500000 0.664199 0.388681
O O9 0.391803 0.776016 0.333409
O O10 0.415813 0.868639 0.424095
O O11 0.075613 0.500000 0.798342
O O12 0.143454 0.721034 0.760443
O O13 0.000000 0.736435 0.795372
O O14 0.750000 0.250000 0.306710
O O15 0.682536 0.000000 0.298179
O O16 0.858112 0.500000 0.500000
O O17 0.750000 0.250000 0.000000
O O18 0.677941 0.500000 0.000000
#
# Coordination Sequence:
#
# PCOD8274723 Si02
#       7
#     8  16  16  16  16   8   8
#     4  11  25  45  65  89 123 161 193 240 309 368
#     4   9  18  36  62  89 118 157 200 244 298 364
#     4  12  25  40  63  91 121 158 201 250 297 353
#     4   8  16  34  61  89 118 153 197 245 294 353
#     4  11  23  39  62  89 122 160 201 247 299 358
#     4  11  23  41  65  91 121 157 201 244 293 358
#     4  12  25  38  55  81 119 161 203 256 307 358
#
# _framework density 20.188357
#
# number of rings (size 3 to 8) (size 9 to 14) (size 15 to 20)
#    0.000    1.636    0.909    5.455    1.273    6.545 
#    0.000    2.727    0.000    1.091    0.000    0.000 
#    0.000    0.000    0.000    0.000    0.000    0.000 
#
# Total GULP energy -545472.095807 kJ/mol
# GULP energy per Si atom -12397.093087 kJ/mol
# Density = 2.014241 g / cm^3
# Si number density = 20.188357 Si / 1000 Ang^3
#
#
#
# Elastic Constant Matrix: (Units=GPa)
#
#
# Indices 1 2 3 4 5 6 
#
# 1 85.1952 15.1317 38.2518 0.0000 0.0000 0.0000
# 2 15.1317 87.3957 38.1195 0.0000 0.0000 0.0000
# 3 38.2518 38.1195 115.4925 0.0000 0.0000 0.0000
# 4 0.0000 0.0000 0.0000 23.0832 0.0000 0.0000
# 5 0.0000 0.0000 0.0000 0.0000 -172.9945 0.0000
# 6 0.0000 0.0000 0.0000 0.0000 0.0000 22.3043
#
#
#
# Elastic Compliance Matrix: (Units=1/GPa)
#
#
# Indices 1 2 3 4 5 6 
#
# 1 0.013804 -0.000462 -0.004419 0.000000 0.000000 0.000000
# 2 -0.000462 0.013382 -0.004264 0.000000 0.000000 0.000000
# 3 -0.004419 -0.004264 0.011530 0.000000 0.000000 0.000000
# 4 0.000000 0.000000 0.000000 0.043322 0.000000 0.000000
# 5 0.000000 0.000000 0.000000 0.000000 -0.005781 0.000000
# 6 0.000000 0.000000 0.000000 0.000000 0.000000 0.044834
#
#
# Mechanical properties :
#
#
# Convention : Reuss Voigt Hill
#
# Bulk Modulus (GPa) = 48.96043 52.34326 50.65185
# Shear Modulus (GPa) = 34.20198 -12.41604 10.89297
#
# Velocity S-wave (km/s) = 4.12046 -2.48263 2.32538
# Velocity P-wave (km/s) = 6.85143 4.21495 5.68805
#
# Compressibility (1/GPa) = 0.02042466
#
# Stress axis : x y z
#
# Youngs Moduli (GPa) = 72.44208 74.72734 86.73348
#
# Poissons Ratio (x) = 0.03456 0.38331
# Poissons Ratio (y) = 0.03350 0.36981
# Poissons Ratio (z) = 0.32015 0.31862
#
# Static dielectric constant tensor:
#      x y z
#    x 3.831600 0.000000 0.000000 
#    y 0.000000 3.566960 0.000000 
#    z 0.000000 0.000000 3.022010 
# 
# 
# High freq. dielectric constant tensor:
#      x y z
#    x 1.789920 0.000000 0.000000 
#    y 0.000000 1.767740 0.000000 
#    z 0.000000 0.000000 1.806550 
# 
# From -- ./inp_files/78008.got.cif
#   From: 2010.03.12/outbox.cif.g09.slc.cpg/sg65_40_cif.got.tgz:78008.got - 2010.04.10 20:52:16.
