data_PCOD8274726
_publ_section_title
;
Structure prediction by ZEFSAII (Michael W. Deem and Ramdas Pophale) SiO2 
 PCOD8274726
Probable space group: C M M M
;
_chemical_formula_sum "Si O2"
_cell_formula_units_Z 48
_cell_length_a 8.739947
_cell_length_b 37.797081
_cell_length_c 7.441108
_cell_angle_alpha 90.000000
_cell_angle_beta 90.000000
_cell_angle_gamma 90.000000
_cell_volume 2458.128988
_symmetry_space_group_name_H-M "C M M M"
_symmetry_group_IT_number 65
_symmetry_cell_setting 'orthorhombic'
loop_
_space_group_symop_operation_xyz
x,y,z
-x,-y,z
x,-y,-z
-x,y,-z
-x,-y,-z
x,y,-z
-x,y,z
x,-y,z
1/2+x,1/2+y,z
1/2-x,1/2-y,z
1/2+x,1/2-y,-z
1/2-x,1/2+y,-z
1/2-x,1/2-y,-z
1/2+x,1/2+y,-z
1/2-x,1/2+y,z
1/2+x,1/2-y,z
loop_
_atom_site_type_symbol
_atom_site_label
_atom_site_fract_x
_atom_site_fract_y
_atom_site_fract_z
Si Si1 0.177442 0.588720 0.292746
Si Si2 0.320422 0.788473 0.500000
Si Si3 0.677014 0.458340 0.000000
Si Si4 0.176179 0.836793 0.206828
O O1 0.202996 0.579046 0.500000
O O2 0.267377 0.623812 0.241375
O O3 0.000000 0.594785 0.248040
O O4 0.242649 0.556413 0.178091
O O5 0.500000 0.784606 0.500000
O O6 0.250000 0.750000 0.500000
O O7 0.271838 0.809180 0.322065
O O8 0.698756 0.500000 0.000000
O O9 0.500000 0.447072 0.000000
O O10 0.000000 0.834487 0.264799
O O11 0.199224 0.826515 0.000000
#
# Coordination Sequence:
#
# PCOD8274726 Si02
#       4
#    16   8   8  16
#     4  11  23  39  64  95 126 164 211 262 316 376
#     4  12  26  44  66  94 131 170 211 262 320 374
#     4  11  25  43  63  91 128 169 212 263 321 377
#     4  11  23  40  66  96 127 166 212 260 314 376
#
# _framework density 19.527045999999999
#
# number of rings (size 3 to 8) (size 9 to 14) (size 15 to 20)
#    0.000    0.833    3.333    4.000    0.000    6.667 
#    0.000    3.333    0.000    0.000    0.000    0.000 
#    0.000    0.000    0.000    0.000    0.000    0.000 
#
# Total GULP energy -297765.138997 kJ/mol
# GULP energy per Si atom -12406.880792 kJ/mol
# Density = 1.948260 g / cm^3
# Si number density = 19.527046 Si / 1000 Ang^3
#
#
#
# Elastic Constant Matrix: (Units=GPa)
#
#
# Indices 1 2 3 4 5 6 
#
# 1 150.4431 51.4574 70.6538 0.0000 0.0000 0.0000
# 2 51.4574 108.3296 53.2724 0.0000 0.0000 0.0000
# 3 70.6538 53.2724 130.5154 0.0000 0.0000 0.0000
# 4 0.0000 0.0000 0.0000 90.7425 0.0000 0.0000
# 5 0.0000 0.0000 0.0000 0.0000 24.8875 0.0000
# 6 0.0000 0.0000 0.0000 0.0000 0.0000 37.1551
#
#
#
# Elastic Compliance Matrix: (Units=1/GPa)
#
#
# Indices 1 2 3 4 5 6 
#
# 1 0.009409 -0.002458 -0.004090 0.000000 0.000000 0.000000
# 2 -0.002458 0.012191 -0.003646 0.000000 0.000000 0.000000
# 3 -0.004090 -0.003646 0.011364 0.000000 0.000000 0.000000
# 4 0.000000 0.000000 0.000000 0.011020 0.000000 0.000000
# 5 0.000000 0.000000 0.000000 0.000000 0.040181 0.000000
# 6 0.000000 0.000000 0.000000 0.000000 0.000000 0.026914
#
#
# Mechanical properties :
#
#
# Convention : Reuss Voigt Hill
#
# Bulk Modulus (GPa) = 79.51010 82.22837 80.86923
# Shear Modulus (GPa) = 36.85723 44.81730 40.83727
#
# Velocity S-wave (km/s) = 4.34925 4.79596 4.57805
# Velocity P-wave (km/s) = 8.12574 8.53638 8.33359
#
# Compressibility (1/GPa) = 0.01257702
#
# Stress axis : x y z
#
# Youngs Moduli (GPa) = 106.28636 82.02540 87.99636
#
# Poissons Ratio (x) = 0.20160 0.35991
# Poissons Ratio (y) = 0.26123 0.32080
# Poissons Ratio (z) = 0.43472 0.29903
#
# Static dielectric constant tensor:
#      x y z
#    x 3.900640 0.000000 0.000000 
#    y 0.000000 3.339550 0.000000 
#    z 0.000000 0.000000 3.243890 
# 
# 
# High freq. dielectric constant tensor:
#      x y z
#    x 1.783040 0.000000 0.000000 
#    y 0.000000 1.758710 0.000000 
#    z 0.000000 0.000000 1.779860 
# 
# From -- ./inp_files/3092.got.cif
#   From: 2010.03.12/outbox.cif.g09.slc.cpg/sg65_2_cif.got.tgz:3092.got - 2010.04.10 20:52:16.
