data_PCOD8274129
_publ_section_title
;
Structure prediction by ZEFSAII (Michael W. Deem and Ramdas Pophale) SiO2 
 PCOD8274129
Probable space group: C M M M
;
_chemical_formula_sum "Si O2"
_cell_formula_units_Z 96
_cell_length_a 14.714887
_cell_length_b 14.616775
_cell_length_c 22.188367
_cell_angle_alpha 90.000000
_cell_angle_beta 90.000000
_cell_angle_gamma 90.000000
_cell_volume 4772.366998
_symmetry_space_group_name_H-M "C M M M"
_symmetry_group_IT_number 65
_symmetry_cell_setting 'orthorhombic'
loop_
_space_group_symop_operation_xyz
x,y,z
-x,-y,z
x,-y,-z
-x,y,-z
-x,-y,-z
x,y,-z
-x,y,z
x,-y,z
1/2+x,1/2+y,z
1/2-x,1/2-y,z
1/2+x,1/2-y,-z
1/2-x,1/2+y,-z
1/2-x,1/2-y,-z
1/2+x,1/2+y,-z
1/2-x,1/2+y,z
1/2+x,1/2-y,z
loop_
_atom_site_type_symbol
_atom_site_label
_atom_site_fract_x
_atom_site_fract_y
_atom_site_fract_z
Si Si1 0.750000 0.606883 0.571396
Si Si2 0.350529 0.750000 0.743083
Si Si3 0.396965 0.250000 0.612835
Si Si4 0.100912 0.102676 0.838840
Si Si5 0.399088 0.102676 0.161160
Si Si6 0.250000 0.357600 0.067292
O O1 0.750000 0.611730 0.500000
O O2 0.750000 0.500000 0.593119
O O3 0.658705 0.658638 0.594066
O O4 0.841295 0.658638 0.594066
O O5 0.250000 0.750000 0.715778
O O6 0.414462 0.750000 0.684979
O O7 0.362279 0.661399 0.783993
O O8 0.362279 0.838601 0.783993
O O9 0.500000 0.250000 0.584706
O O10 0.160545 0.109072 0.898708
O O11 0.000000 0.135334 0.856718
O O12 0.101562 0.000000 0.814405
O O13 0.500000 0.135334 0.143282
O O14 0.339455 0.109071 0.101292
O O15 0.398438 0.000000 0.185596
O O16 0.250000 0.250000 0.065333
O O17 0.250000 0.399191 0.000000
#
# Coordination Sequence:
#
# PCOD8274129 Si02
#       6
#    16  16  16  16  16  16
#     4  10  23  43  65  95 135 173 212 261 312 362
#     4  12  22  41  64  88 123 158 196 246 304 357
#     4  11  23  41  67  96 128 170 216 261 309 369
#     4  11  23  39  61  86 115 153 193 240 301 363
#     4  11  23  39  61  86 115 153 193 240 301 363
#     4  11  23  39  60  84 111 150 195 243 299 357
#
# _framework density 20.115805000000002
#
# number of rings (size 3 to 8) (size 9 to 14) (size 15 to 20)
#    0.000    1.000    5.000    3.000    0.000    5.333 
#    0.000    5.000    0.000    0.000    0.000    0.000 
#    0.000    0.000    0.000    0.000    0.000    0.000 
#
# Total GULP energy -595103.332665 kJ/mol
# GULP energy per Si atom -12397.986097 kJ/mol
# Density = 2.007002 g / cm^3
# Si number density = 20.115805 Si / 1000 Ang^3
#
#
#
# Elastic Constant Matrix: (Units=GPa)
#
#
# Indices 1 2 3 4 5 6 
#
# 1 158.7175 39.2572 29.2683 0.0000 0.0000 0.0000
# 2 39.2572 133.8859 33.0689 0.0000 0.0000 0.0000
# 3 29.2683 33.0689 113.6941 0.0000 0.0000 0.0000
# 4 0.0000 0.0000 0.0000 5920.9417 0.0000 0.0000
# 5 0.0000 0.0000 0.0000 0.0000 14.6944 0.0000
# 6 0.0000 0.0000 0.0000 0.0000 0.0000 134.4034
#
#
#
# Elastic Compliance Matrix: (Units=1/GPa)
#
#
# Indices 1 2 3 4 5 6 
#
# 1 0.006965 -0.001723 -0.001292 0.000000 0.000000 0.000000
# 2 -0.001723 0.008473 -0.002021 0.000000 0.000000 0.000000
# 3 -0.001292 -0.002021 0.009716 0.000000 0.000000 0.000000
# 4 0.000000 0.000000 0.000000 0.000169 0.000000 0.000000
# 5 0.000000 0.000000 0.000000 0.000000 0.068053 0.000000
# 6 0.000000 0.000000 0.000000 0.000000 0.000000 0.007440
#
#
# Mechanical properties :
#
#
# Convention : Reuss Voigt Hill
#
# Bulk Modulus (GPa) = 66.30229 67.72069 67.01149
# Shear Modulus (GPa) = 43.13473 1234.32145 638.72809
#
# Velocity S-wave (km/s) = 4.63570 24.79798 17.83858
# Velocity P-wave (km/s) = 7.85397 29.21743 21.39326
#
# Compressibility (1/GPa) = 0.01508244
#
# Stress axis : x y z
#
# Youngs Moduli (GPa) = 143.57668 118.01545 102.92408
#
# Poissons Ratio (x) = 0.20336 0.13296
# Poissons Ratio (y) = 0.24740 0.20801
# Poissons Ratio (z) = 0.18547 0.23851
#
# Static dielectric constant tensor:
#      x y z
#    x 3.928130 0.000000 0.000000 
#    y 0.000000 3.922010 0.000000 
#    z 0.000000 0.000000 3.689540 
# 
# 
# High freq. dielectric constant tensor:
#      x y z
#    x 1.798880 0.000000 0.000000 
#    y 0.000000 1.796520 0.000000 
#    z 0.000000 0.000000 1.781260 
# 
# From -- ./inp_files/62570.got.cif
#   From: 2010.03.12/outbox.cif.g09.slc.cpg/sg65_32_cif.got.tgz:62570.got - 2010.04.10 20:52:16.
