data_PCOD8274951
_publ_section_title
;
Structure prediction by ZEFSAII (Michael W. Deem and Ramdas Pophale) SiO2 
 PCOD8274951
Probable space group: C M M M
;
_chemical_formula_sum "Si O2"
_cell_formula_units_Z 88
_cell_length_a 9.426102
_cell_length_b 19.676668
_cell_length_c 28.312537
_cell_angle_alpha 90.000000
_cell_angle_beta 90.000000
_cell_angle_gamma 90.000000
_cell_volume 5251.247403
_symmetry_space_group_name_H-M "C M M M"
_symmetry_group_IT_number 65
_symmetry_cell_setting 'orthorhombic'
loop_
_space_group_symop_operation_xyz
x,y,z
-x,-y,z
x,-y,-z
-x,y,-z
-x,-y,-z
x,y,-z
-x,y,z
x,-y,z
1/2+x,1/2+y,z
1/2-x,1/2-y,z
1/2+x,1/2-y,-z
1/2-x,1/2+y,-z
1/2-x,1/2-y,-z
1/2+x,1/2+y,-z
1/2-x,1/2+y,z
1/2+x,1/2-y,z
loop_
_atom_site_type_symbol
_atom_site_label
_atom_site_fract_x
_atom_site_fract_y
_atom_site_fract_z
Si Si1 0.340183 0.419109 0.323565
Si Si2 0.840854 0.919316 0.780659
Si Si3 0.665822 0.077504 0.868378
Si Si4 0.339381 0.081080 0.410661
Si Si5 0.334845 0.816130 0.946181
Si Si6 0.338601 0.580944 0.500000
O O1 0.500000 0.393685 0.334782
O O2 0.338936 0.500000 0.324931
O O3 0.292457 0.393414 0.271367
O O4 0.231355 0.390311 0.362534
O O5 0.739638 0.890901 0.821788
O O6 0.000000 0.894030 0.791103
O O7 0.834137 0.000000 0.780764
O O8 0.500000 0.081972 0.858921
O O9 0.711857 0.120619 0.913953
O O10 0.713940 0.000000 0.877918
O O11 0.500000 0.109109 0.414650
O O12 0.245494 0.108190 0.454246
O O13 0.341083 0.000000 0.410695
O O14 0.500000 0.799652 0.940397
O O15 0.250000 0.750000 0.929494
O O16 0.296836 0.835602 0.000000
O O17 0.342009 0.500000 0.500000
O O18 0.500000 0.609184 0.500000
#
# Coordination Sequence:
#
# PCOD8274951 Si02
#       6
#    16  16  16  16  16   8
#     4   8  13  21  31  42  58  82 111 141 178 227
#     4   8  14  24  37  53  74  99 125 155 193 238
#     4   9  17  28  43  64  87 109 135 170 211 251
#     4   9  15  20  26  37  52  71 100 141 186 228
#     4   9  18  32  48  65  86 113 143 173 206 246
#     4   9  15  21  27  33  45  69 101 139 184 231
#
# _framework density 16.757923000000002
#
# number of rings (size 3 to 8) (size 9 to 14) (size 15 to 20)
#    0.000    3.364    0.000    1.909    0.000    5.091 
#    0.000    5.455    0.000    0.000    0.000    5.091 
#    0.000    0.000    0.000    0.000    0.000    0.000 
#
# Total GULP energy -545325.761487 kJ/mol
# GULP energy per Si atom -12393.767307 kJ/mol
# Density = 1.671978 g / cm^3
# Si number density = 16.757923 Si / 1000 Ang^3
#
#
#
# Elastic Constant Matrix: (Units=GPa)
#
#
# Indices 1 2 3 4 5 6 
#
# 1 98.8076 25.5903 79.7490 0.0000 0.0000 0.0000
# 2 25.5903 28.9395 39.5391 0.0000 0.0000 0.0000
# 3 79.7490 39.5391 155.6767 0.0000 0.0000 0.0000
# 4 0.0000 0.0000 0.0000 1.3055 0.0000 0.0000
# 5 0.0000 0.0000 0.0000 0.0000 35.4404 0.0000
# 6 0.0000 0.0000 0.0000 0.0000 0.0000 11.2210
#
#
#
# Elastic Compliance Matrix: (Units=1/GPa)
#
#
# Indices 1 2 3 4 5 6 
#
# 1 0.017715 -0.005002 -0.007805 0.000000 0.000000 0.000000
# 2 -0.005002 0.054330 -0.011237 0.000000 0.000000 0.000000
# 3 -0.007805 -0.011237 0.013276 0.000000 0.000000 0.000000
# 4 0.000000 0.000000 0.000000 0.765991 0.000000 0.000000
# 5 0.000000 0.000000 0.000000 0.000000 0.028216 0.000000
# 6 0.000000 0.000000 0.000000 0.000000 0.000000 0.089119
#
#
# Mechanical properties :
#
#
# Convention : Reuss Voigt Hill
#
# Bulk Modulus (GPa) = 26.85664 63.68671 45.27168
# Shear Modulus (GPa) = 4.85840 18.82973 11.84407
#
# Velocity S-wave (km/s) = 1.70454 3.35570 2.66141
# Velocity P-wave (km/s) = 4.46486 7.28702 6.04300
#
# Compressibility (1/GPa) = 0.03723474
#
# Stress axis : x y z
#
# Youngs Moduli (GPa) = 56.44786 18.40608 75.32607
#
# Poissons Ratio (x) = 0.09206 0.58790
# Poissons Ratio (y) = 0.28234 0.84640
# Poissons Ratio (z) = 0.44056 0.20682
#
# Static dielectric constant tensor:
#      x y z
#    x 3.282860 0.000000 0.000000 
#    y 0.000000 2.490300 0.000000 
#    z 0.000000 0.000000 3.550190 
# 
# 
# High freq. dielectric constant tensor:
#      x y z
#    x 1.649970 0.000000 0.000000 
#    y 0.000000 1.559850 0.000000 
#    z 0.000000 0.000000 1.663130 
# 
# From -- ./inp_files/76785.got.cif
#   From: 2010.03.12/outbox.cif.g09.slc.cpg/sg65_39_cif.got.tgz:76785.got - 2010.04.10 20:52:16.
