data_PCOD8274233
_publ_section_title
;
Structure prediction by ZEFSAII (Michael W. Deem and Ramdas Pophale) SiO2 
 PCOD8274233
Probable space group: C M M M
;
_chemical_formula_sum "Si O2"
_cell_formula_units_Z 96
_cell_length_a 15.482209
_cell_length_b 23.210490
_cell_length_c 14.379267
_cell_angle_alpha 90.000000
_cell_angle_beta 90.000000
_cell_angle_gamma 90.000000
_cell_volume 5167.184667
_symmetry_space_group_name_H-M "C M M M"
_symmetry_group_IT_number 65
_symmetry_cell_setting 'orthorhombic'
loop_
_space_group_symop_operation_xyz
x,y,z
-x,-y,z
x,-y,-z
-x,y,-z
-x,-y,-z
x,y,-z
-x,y,z
x,-y,z
1/2+x,1/2+y,z
1/2-x,1/2-y,z
1/2+x,1/2-y,-z
1/2-x,1/2+y,-z
1/2-x,1/2-y,-z
1/2+x,1/2+y,-z
1/2-x,1/2+y,z
1/2+x,1/2-y,z
loop_
_atom_site_type_symbol
_atom_site_label
_atom_site_fract_x
_atom_site_fract_y
_atom_site_fract_z
Si Si1 0.400647 0.242184 0.205097
Si Si2 0.665564 0.134885 0.890869
Si Si3 0.841689 0.872603 0.204714
Si Si4 0.500000 0.434329 0.890121
Si Si5 0.000000 0.435439 0.110446
Si Si6 0.148256 0.745301 0.399992
Si Si7 0.598828 0.375220 0.399246
O O1 0.500000 0.248841 0.176906
O O2 0.353337 0.201675 0.130852
O O3 0.354387 0.303863 0.202619
O O4 0.390764 0.213703 0.308940
O O5 0.749442 0.111400 0.837689
O O6 0.585058 0.097407 0.854003
O O7 0.681422 0.127668 0.000000
O O8 0.844550 0.896537 0.311426
O O9 0.914904 0.902789 0.145070
O O10 0.500000 0.500000 0.854651
O O11 0.500000 0.430999 0.000000
O O12 0.000000 0.500000 0.151003
O O13 0.000000 0.436060 0.000000
O O14 0.129362 0.713735 0.500000
O O15 0.250000 0.750000 0.385527
O O16 0.102562 0.806738 0.404104
O O17 0.630519 0.400481 0.500000
O O18 0.500000 0.393652 0.380840
#
# Coordination Sequence:
#
# PCOD8274233 Si02
#       7
#    16  16  16   8   8  16  16
#     4  11  20  33  52  78 112 146 179 220 269 327
#     4  11  23  37  55  81 110 142 183 229 272 321
#     4  11  20  37  56  81 113 151 180 216 275 333
#     4  11  24  39  54  78 111 145 187 231 269 323
#     4   9  20  41  63  79  97 129 182 240 282 314
#     4   9  16  26  42  69 105 141 175 214 261 318
#     4   9  16  29  51  76 104 141 180 215 260 318
#
# _framework density 18.578782
#
# number of rings (size 3 to 8) (size 9 to 14) (size 15 to 20)
#    0.000    1.833    2.500    4.500    0.000    3.667 
#    0.000    1.667    0.000    1.000    0.000    0.000 
#    0.000    4.667    0.000    0.000    0.000    0.000 
#
# Total GULP energy -594882.427436 kJ/mol
# GULP energy per Si atom -12393.383905 kJ/mol
# Density = 1.853650 g / cm^3
# Si number density = 18.578782 Si / 1000 Ang^3
#
#
#
# Elastic Constant Matrix: (Units=GPa)
#
#
# Indices 1 2 3 4 5 6 
#
# 1 136.7168 30.1478 56.7409 0.0000 0.0000 0.0000
# 2 30.1478 63.8163 26.8877 0.0000 0.0000 0.0000
# 3 56.7409 26.8877 116.7525 0.0000 0.0000 0.0000
# 4 0.0000 0.0000 0.0000 5.1439 0.0000 0.0000
# 5 0.0000 0.0000 0.0000 0.0000 13.0769 0.0000
# 6 0.0000 0.0000 0.0000 0.0000 0.0000 -1.1519
#
#
#
# Elastic Compliance Matrix: (Units=1/GPa)
#
#
# Indices 1 2 3 4 5 6 
#
# 1 0.009608 -0.002848 -0.004014 0.000000 0.000000 0.000000
# 2 -0.002848 0.018198 -0.002807 0.000000 0.000000 0.000000
# 3 -0.004014 -0.002807 0.011162 0.000000 0.000000 0.000000
# 4 0.000000 0.000000 0.000000 0.194404 0.000000 0.000000
# 5 0.000000 0.000000 0.000000 0.000000 0.076471 0.000000
# 6 0.000000 0.000000 0.000000 0.000000 0.000000 -0.868134
#
#
# Mechanical properties :
#
#
# Convention : Reuss Voigt Hill
#
# Bulk Modulus (GPa) = 50.93877 60.53761 55.73819
# Shear Modulus (GPa) = -9.39125 16.98106 3.79491
#
# Velocity S-wave (km/s) = -2.25073 3.02653 1.43075
# Velocity P-wave (km/s) = 4.55223 6.69837 5.72674
#
# Compressibility (1/GPa) = 0.01963141
#
# Stress axis : x y z
#
# Youngs Moduli (GPa) = 104.07818 54.95100 89.58868
#
# Poissons Ratio (x) = 0.15650 0.35957
# Poissons Ratio (y) = 0.29641 0.25146
# Poissons Ratio (z) = 0.41773 0.15424
#
# Static dielectric constant tensor:
#      x y z
#    x 3.537730 0.000000 0.000000 
#    y 0.000000 3.085530 0.000000 
#    z 0.000000 0.000000 3.979480 
# 
# 
# High freq. dielectric constant tensor:
#      x y z
#    x 1.728630 0.000000 0.000000 
#    y 0.000000 1.664160 0.000000 
#    z 0.000000 0.000000 1.735590 
# 
# From -- ./inp_files/40670.got.cif
#   From: 2010.03.12/outbox.cif.g09.slc.cpg/sg65_21_cif.got.tgz:40670.got - 2010.04.10 20:52:16.
