data_PCOD8274589
_publ_section_title
;
Structure prediction by ZEFSAII (Michael W. Deem and Ramdas Pophale) SiO2 
 PCOD8274589
Probable space group: C M M M
;
_chemical_formula_sum "Si O2"
_cell_formula_units_Z 88
_cell_length_a 17.810992
_cell_length_b 8.840598
_cell_length_c 28.629760
_cell_angle_alpha 90.000000
_cell_angle_beta 90.000000
_cell_angle_gamma 90.000000
_cell_volume 4508.036863
_symmetry_space_group_name_H-M "C M M M"
_symmetry_group_IT_number 65
_symmetry_cell_setting 'orthorhombic'
loop_
_space_group_symop_operation_xyz
x,y,z
-x,-y,z
x,-y,-z
-x,y,-z
-x,-y,-z
x,y,-z
-x,y,z
x,-y,z
1/2+x,1/2+y,z
1/2-x,1/2-y,z
1/2+x,1/2-y,-z
1/2-x,1/2+y,-z
1/2-x,1/2-y,-z
1/2+x,1/2+y,-z
1/2-x,1/2+y,z
1/2+x,1/2-y,z
loop_
_atom_site_type_symbol
_atom_site_label
_atom_site_fract_x
_atom_site_fract_y
_atom_site_fract_z
Si Si1 0.168869 0.680072 0.735111
Si Si2 0.668408 0.820121 0.092416
Si Si3 0.915812 0.679552 0.000000
Si Si4 0.410850 0.671378 0.449261
Si Si5 0.415397 0.178116 0.356822
Si Si6 0.411337 0.672947 0.820580
O O1 0.173106 0.500000 0.738892
O O2 0.250000 0.750000 0.743396
O O3 0.137099 0.735076 0.685159
O O4 0.112753 0.743310 0.773650
O O5 0.750000 0.750000 0.093923
O O6 0.621744 0.762801 0.136083
O O7 0.674066 0.000000 0.094167
O O8 0.627513 0.761772 0.045649
O O9 0.919305 0.500000 0.000000
O O10 0.000000 0.747118 0.000000
O O11 0.381599 0.731955 0.500000
O O12 0.500000 0.681994 0.449160
O O13 0.383894 0.500000 0.442410
O O14 0.378958 0.767385 0.405853
O O15 0.500000 0.243415 0.350061
O O16 0.418656 0.000000 0.357568
O O17 0.500000 0.679355 0.824272
O O18 0.382127 0.500000 0.820495
#
# Coordination Sequence:
#
# PCOD8274589 Si02
#       6
#    16  16   8  16  16  16
#     4  11  23  39  58  80 109 144 183 226 274 329
#     4  11  22  38  61  87 119 155 191 232 278 330
#     4   9  19  36  59  87 116 151 196 239 280 328
#     4   8  14  25  43  70 103 136 170 211 261 316
#     4   9  18  32  51  76 104 135 173 218 268 321
#     4  11  24  41  61  86 114 144 183 229 277 331
#
# _framework density 19.520693000000001
#
# number of rings (size 3 to 8) (size 9 to 14) (size 15 to 20)
#    0.000    2.091    0.000    4.091    0.000    4.727 
#    0.000    5.000    0.000    3.818    0.000    0.000 
#    0.000    0.000    0.000    0.000    0.000    0.000 
#
# Total GULP energy -545572.136426 kJ/mol
# GULP energy per Si atom -12399.366737 kJ/mol
# Density = 1.947626 g / cm^3
# Si number density = 19.520693 Si / 1000 Ang^3
#
#
#
# Elastic Constant Matrix: (Units=GPa)
#
#
# Indices 1 2 3 4 5 6 
#
# 1 77.2236 29.8982 44.3787 0.0000 0.0000 0.0000
# 2 29.8982 69.9948 47.6680 0.0000 0.0000 0.0000
# 3 44.3787 47.6680 173.1430 0.0000 0.0000 0.0000
# 4 0.0000 0.0000 0.0000 39.4306 0.0000 0.0000
# 5 0.0000 0.0000 0.0000 0.0000 -2.7752 0.0000
# 6 0.0000 0.0000 0.0000 0.0000 0.0000 -2.3290
#
#
#
# Elastic Compliance Matrix: (Units=1/GPa)
#
#
# Indices 1 2 3 4 5 6 
#
# 1 0.016569 -0.005151 -0.002829 0.000000 0.000000 0.000000
# 2 -0.005151 0.019185 -0.003962 0.000000 0.000000 0.000000
# 3 -0.002829 -0.003962 0.007591 0.000000 0.000000 0.000000
# 4 0.000000 0.000000 0.000000 0.025361 0.000000 0.000000
# 5 0.000000 0.000000 0.000000 0.000000 -0.360336 0.000000
# 6 0.000000 0.000000 0.000000 0.000000 0.000000 -0.429360
#
#
# Mechanical properties :
#
#
# Convention : Reuss Voigt Hill
#
# Bulk Modulus (GPa) = 51.38020 62.69457 57.03739
# Shear Modulus (GPa) = -7.23988 20.09303 6.42658
#
# Velocity S-wave (km/s) = -1.92792 3.21178 1.81641
# Velocity P-wave (km/s) = 4.62841 6.77796 5.80357
#
# Compressibility (1/GPa) = 0.01946275
#
# Stress axis : x y z
#
# Youngs Moduli (GPa) = 60.35229 52.12418 131.73032
#
# Poissons Ratio (x) = 0.26850 0.37264
# Poissons Ratio (y) = 0.31088 0.52185
# Poissons Ratio (z) = 0.17072 0.20649
#
# Static dielectric constant tensor:
#      x y z
#    x 3.449530 0.000000 0.000000 
#    y 0.000000 3.562630 0.000000 
#    z 0.000000 0.000000 4.055420 
# 
# 
# High freq. dielectric constant tensor:
#      x y z
#    x 1.744700 0.000000 0.000000 
#    y 0.000000 1.753120 0.000000 
#    z 0.000000 0.000000 1.784060 
# 
# From -- ./inp_files/75378.got.cif
#   From: 2010.03.12/outbox.cif.g09.slc.cpg/sg65_38_cif.got.tgz:75378.got - 2010.04.10 20:52:16.
