data_PCOD8274588
_publ_section_title
;
Structure prediction by ZEFSAII (Michael W. Deem and Ramdas Pophale) SiO2 
 PCOD8274588
Probable space group: C M M M
;
_chemical_formula_sum "Si O2"
_cell_formula_units_Z 80
_cell_length_a 18.258446
_cell_length_b 8.571475
_cell_length_c 25.506706
_cell_angle_alpha 90.000000
_cell_angle_beta 90.000000
_cell_angle_gamma 90.000000
_cell_volume 3991.845744
_symmetry_space_group_name_H-M "C M M M"
_symmetry_group_IT_number 65
_symmetry_cell_setting 'orthorhombic'
loop_
_space_group_symop_operation_xyz
x,y,z
-x,-y,z
x,-y,-z
-x,y,-z
-x,-y,-z
x,y,-z
-x,y,z
x,-y,z
1/2+x,1/2+y,z
1/2-x,1/2-y,z
1/2+x,1/2-y,-z
1/2-x,1/2+y,-z
1/2-x,1/2-y,-z
1/2+x,1/2+y,-z
1/2-x,1/2+y,z
1/2+x,1/2-y,z
loop_
_atom_site_type_symbol
_atom_site_label
_atom_site_fract_x
_atom_site_fract_y
_atom_site_fract_z
Si Si1 0.915397 0.182889 0.800072
Si Si2 0.669149 0.814875 0.898640
Si Si3 0.917799 0.685425 0.000000
Si Si4 0.171934 0.184310 0.593619
Si Si5 0.828620 0.684328 0.706407
Si Si6 0.086389 0.676645 0.500000
O O1 0.868069 0.252023 0.846683
O O2 0.891143 0.262290 0.746161
O O3 0.000000 0.223113 0.810134
O O4 0.901325 0.000000 0.795975
O O5 0.750000 0.750000 0.903766
O O6 0.623619 0.752893 0.948508
O O7 0.671429 0.000000 0.896367
O O8 0.919786 0.500000 0.000000
O O9 0.000000 0.753968 0.000000
O O10 0.250000 0.250000 0.575113
O O11 0.148722 0.253740 0.649468
O O12 0.111962 0.232809 0.551501
O O13 0.176867 0.000000 0.598458
O O14 0.823315 0.500000 0.704794
O O15 0.750000 0.750000 0.724483
O O16 0.117146 0.500000 0.500000
O O17 0.000000 0.677149 0.500000
#
# Coordination Sequence:
#
# PCOD8274588 Si02
#       6
#    16  16   8  16  16   8
#     4  11  24  41  60  85 118 154 194 241 293 348
#     4  11  22  38  61  87 118 155 197 242 289 345
#     4   9  19  36  59  87 118 153 194 241 292 346
#     4  11  22  39  63  89 119 154 196 242 291 347
#     4  11  22  39  63  89 118 152 194 240 289 346
#     4  11  24  41  60  85 119 157 198 243 292 347
#
# _framework density 20.040854
#
# number of rings (size 3 to 8) (size 9 to 14) (size 15 to 20)
#    0.000    1.200    0.000    8.100    0.000    4.000 
#    0.000    1.500    0.000    3.600    0.000    0.000 
#    0.000    0.000    0.000    0.000    0.000    0.000 
#
# Total GULP energy -496252.113221 kJ/mol
# GULP energy per Si atom -12406.302831 kJ/mol
# Density = 1.999524 g / cm^3
# Si number density = 20.040854 Si / 1000 Ang^3
#
#
#
# Elastic Constant Matrix: (Units=GPa)
#
#
# Indices 1 2 3 4 5 6 
#
# 1 123.8515 65.6137 81.7239 0.0000 0.0000 0.0000
# 2 65.6137 133.4749 40.8652 0.0000 0.0000 0.0000
# 3 81.7239 40.8652 132.3347 0.0000 0.0000 0.0000
# 4 0.0000 0.0000 0.0000 35.3525 0.0000 0.0000
# 5 0.0000 0.0000 0.0000 0.0000 -8.1767 0.0000
# 6 0.0000 0.0000 0.0000 0.0000 0.0000 21.4744
#
#
#
# Elastic Compliance Matrix: (Units=1/GPa)
#
#
# Indices 1 2 3 4 5 6 
#
# 1 0.016697 -0.005578 -0.008588 0.000000 0.000000 0.000000
# 2 -0.005578 0.010138 0.000314 0.000000 0.000000 0.000000
# 3 -0.008588 0.000314 0.012763 0.000000 0.000000 0.000000
# 4 0.000000 0.000000 0.000000 0.028287 0.000000 0.000000
# 5 0.000000 0.000000 0.000000 0.000000 -0.122298 0.000000
# 6 0.000000 0.000000 0.000000 0.000000 0.000000 0.046567
#
#
# Mechanical properties :
#
#
# Convention : Reuss Voigt Hill
#
# Bulk Modulus (GPa) = 84.08291 85.11852 84.60071
# Shear Modulus (GPa) = 209.88575 23.16061 116.52318
#
# Velocity S-wave (km/s) = 10.24482 3.40320 7.63342
# Velocity P-wave (km/s) = 13.49031 7.61624 10.95435
#
# Compressibility (1/GPa) = 0.01189302
#
# Stress axis : x y z
#
# Youngs Moduli (GPa) = 59.89273 98.63897 78.34904
#
# Poissons Ratio (x) = 0.55023 0.67290
# Poissons Ratio (y) = 0.33409 -0.02462
# Poissons Ratio (z) = 0.51439 -0.03099
#
# Static dielectric constant tensor:
#      x y z
#    x 3.707520 0.000000 0.000000 
#    y 0.000000 3.775860 0.000000 
#    z 0.000000 0.000000 3.800470 
# 
# 
# High freq. dielectric constant tensor:
#      x y z
#    x 1.786690 0.000000 0.000000 
#    y 0.000000 1.793440 0.000000 
#    z 0.000000 0.000000 1.799300 
# 
# From -- ./inp_files/75060.got.cif
#   From: 2010.03.12/outbox.cif.g09.slc.cpg/sg65_38_cif.got.tgz:75060.got - 2010.04.10 20:52:16.
