data_PCOD8274331
_publ_section_title
;
Structure prediction by ZEFSAII (Michael W. Deem and Ramdas Pophale) SiO2 
 PCOD8274331
Probable space group: C M M M
;
_chemical_formula_sum "Si O2"
_cell_formula_units_Z 88
_cell_length_a 27.894312
_cell_length_b 18.972842
_cell_length_c 9.141942
_cell_angle_alpha 90.000000
_cell_angle_beta 90.000000
_cell_angle_gamma 90.000000
_cell_volume 4838.229954
_symmetry_space_group_name_H-M "C M M M"
_symmetry_group_IT_number 65
_symmetry_cell_setting 'orthorhombic'
loop_
_space_group_symop_operation_xyz
x,y,z
-x,-y,z
x,-y,-z
-x,y,-z
-x,-y,-z
x,y,-z
-x,y,z
x,-y,z
1/2+x,1/2+y,z
1/2-x,1/2-y,z
1/2+x,1/2-y,-z
1/2-x,1/2+y,-z
1/2-x,1/2-y,-z
1/2+x,1/2+y,-z
1/2-x,1/2+y,z
1/2+x,1/2-y,z
loop_
_atom_site_type_symbol
_atom_site_label
_atom_site_fract_x
_atom_site_fract_y
_atom_site_fract_z
Si Si1 0.000000 0.583010 0.664769
Si Si2 0.721181 0.416430 0.661042
Si Si3 0.672089 0.081677 0.328003
Si Si4 0.086544 0.346239 0.826563
Si Si5 0.553602 0.307640 0.173232
Si Si6 0.871138 0.919904 0.827230
O O1 0.046801 0.606066 0.751387
O O2 0.000000 0.500000 0.656098
O O3 0.000000 0.614576 0.500000
O O4 0.710665 0.385295 0.500000
O O5 0.721402 0.500000 0.653246
O O6 0.774064 0.393088 0.713698
O O7 0.679506 0.389813 0.768746
O O8 0.662232 0.092689 0.500000
O O9 0.638154 0.130761 0.231700
O O10 0.663753 0.000000 0.286326
O O11 0.077833 0.265559 0.780282
O O12 0.083544 0.356661 0.000000
O O13 0.500000 0.313019 0.240286
O O14 0.585771 0.371816 0.234783
O O15 0.550279 0.312675 0.000000
O O16 0.880484 0.000000 0.774225
O O17 0.868382 0.915440 0.000000
#
# Coordination Sequence:
#
# PCOD8274331 Si02
#       6
#     8  16  16  16  16  16
#     4  11  23  37  53  73 100 133 170 214 255 293
#     4   8  15  30  51  73 101 135 164 199 254 307
#     4   9  18  33  52  74 102 136 171 208 252 299
#     4  11  21  34  52  74 101 136 172 208 251 298
#     4   9  18  34  52  71 102 137 165 204 258 306
#     4   9  17  30  53  81 101 124 166 213 252 298
#
# _framework density 18.188469999999999
#
# number of rings (size 3 to 8) (size 9 to 14) (size 15 to 20)
#    0.000    2.636    0.909    2.455    0.000    4.364 
#    0.000    6.364    0.000    5.455    0.000    2.545 
#    0.000    0.000    0.000    0.000    0.000    0.000 
#
# Total GULP energy -545464.671970 kJ/mol
# GULP energy per Si atom -12396.924363 kJ/mol
# Density = 1.814707 g / cm^3
# Si number density = 18.188470 Si / 1000 Ang^3
#
#
#
# Elastic Constant Matrix: (Units=GPa)
#
#
# Indices 1 2 3 4 5 6 
#
# 1 166.9334 75.3560 51.4533 0.0000 0.0000 0.0000
# 2 75.3560 86.8556 37.0780 0.0000 0.0000 0.0000
# 3 51.4533 37.0780 55.3963 0.0000 0.0000 0.0000
# 4 0.0000 0.0000 0.0000 12.5479 0.0000 0.0000
# 5 0.0000 0.0000 0.0000 0.0000 8.9324 0.0000
# 6 0.0000 0.0000 0.0000 0.0000 0.0000 -5.0428
#
#
#
# Elastic Compliance Matrix: (Units=1/GPa)
#
#
# Indices 1 2 3 4 5 6 
#
# 1 0.010851 -0.007157 -0.005289 0.000000 0.000000 0.000000
# 2 -0.007157 0.020839 -0.007301 0.000000 0.000000 0.000000
# 3 -0.005289 -0.007301 0.027850 0.000000 0.000000 0.000000
# 4 0.000000 0.000000 0.000000 0.079694 0.000000 0.000000
# 5 0.000000 0.000000 0.000000 0.000000 0.111951 0.000000
# 6 0.000000 0.000000 0.000000 0.000000 0.000000 -0.198302
#
#
# Mechanical properties :
#
#
# Convention : Reuss Voigt Hill
#
# Bulk Modulus (GPa) = 49.87892 70.77333 60.32612
# Shear Modulus (GPa) = 50.47431 12.97405 31.72418
#
# Velocity S-wave (km/s) = 5.27361 2.67369 4.18088
# Velocity P-wave (km/s) = 8.03518 6.96613 7.51968
#
# Compressibility (1/GPa) = 0.02004855
#
# Stress axis : x y z
#
# Youngs Moduli (GPa) = 92.15577 47.98625 35.90604
#
# Poissons Ratio (x) = 0.34343 0.18989
# Poissons Ratio (y) = 0.65955 0.26214
# Poissons Ratio (z) = 0.48737 0.35034
#
# Static dielectric constant tensor:
#      x y z
#    x 3.784510 0.000000 0.000000 
#    y 0.000000 3.279220 0.000000 
#    z 0.000000 0.000000 3.285740 
# 
# 
# High freq. dielectric constant tensor:
#      x y z
#    x 1.719780 0.000000 0.000000 
#    y 0.000000 1.684300 0.000000 
#    z 0.000000 0.000000 1.685700 
# 
# From -- ./inp_files/18322.got.cif
#   From: 2010.03.12/outbox.cif.g09.slc.cpg/sg65_10_cif.got.tgz:18322.got - 2010.04.10 20:52:16.
