data_PCOD8274010
_publ_section_title
;
Structure prediction by ZEFSAII (Michael W. Deem and Ramdas Pophale) SiO2 
 PCOD8274010
Probable space group: C M M M
;
_chemical_formula_sum "Si O2"
_cell_formula_units_Z 80
_cell_length_a 18.244836
_cell_length_b 25.251106
_cell_length_c 9.016258
_cell_angle_alpha 90.000000
_cell_angle_beta 90.000000
_cell_angle_gamma 90.000000
_cell_volume 4153.810688
_symmetry_space_group_name_H-M "C M M M"
_symmetry_group_IT_number 65
_symmetry_cell_setting 'orthorhombic'
loop_
_space_group_symop_operation_xyz
x,y,z
-x,-y,z
x,-y,-z
-x,y,-z
-x,-y,-z
x,y,-z
-x,y,z
x,-y,z
1/2+x,1/2+y,z
1/2-x,1/2-y,z
1/2+x,1/2-y,-z
1/2-x,1/2+y,-z
1/2-x,1/2-y,-z
1/2+x,1/2+y,-z
1/2-x,1/2+y,z
1/2+x,1/2-y,z
loop_
_atom_site_type_symbol
_atom_site_label
_atom_site_fract_x
_atom_site_fract_y
_atom_site_fract_z
Si Si1 0.585154 0.754130 0.170279
Si Si2 0.083722 0.938852 0.670452
Si Si3 0.675209 0.843442 0.324264
Si Si4 0.171513 0.850929 0.828442
Si Si5 0.417936 0.941282 0.323781
O O1 0.500000 0.755552 0.209643
O O2 0.625914 0.794085 0.278389
O O3 0.613083 0.695081 0.201693
O O4 0.600186 0.770318 0.000000
O O5 0.094979 0.922148 0.500000
O O6 0.138029 0.905790 0.772442
O O7 0.000000 0.928641 0.719027
O O8 0.104284 0.000000 0.692466
O O9 0.681779 0.844727 0.500000
O O10 0.754964 0.836509 0.257128
O O11 0.638181 0.897466 0.261865
O O12 0.190950 0.856755 0.000000
O O13 0.419056 0.939212 0.500000
O O14 0.500000 0.929090 0.264141
O O15 0.393055 0.000000 0.270503
#
# Coordination Sequence:
#
# PCOD8274010 Si02
#       5
#    16  16  16  16  16
#     4  10  22  40  59  78 105 143 184 228 280 335
#     4   9  19  37  60  85 113 145 183 230 282 331
#     4  11  22  35  55  84 113 142 181 229 280 332
#     4  11  23  38  56  80 112 150 189 226 271 332
#     4   8  15  30  52  77 105 137 174 217 265 318
#
# _framework density 19.259423000000002
#
# number of rings (size 3 to 8) (size 9 to 14) (size 15 to 20)
#    0.000    2.200    0.000    4.200    0.000    7.600 
#    0.000    3.000    0.000    1.800    0.000    7.000 
#    0.000    0.000    0.000    0.000    0.000    0.000 
#
# Total GULP energy -496082.171317 kJ/mol
# GULP energy per Si atom -12402.054283 kJ/mol
# Density = 1.921559 g / cm^3
# Si number density = 19.259423 Si / 1000 Ang^3
#
#
#
# Elastic Constant Matrix: (Units=GPa)
#
#
# Indices 1 2 3 4 5 6 
#
# 1 118.8035 48.6872 49.6838 0.0000 0.0000 0.0000
# 2 48.6872 95.0965 45.7602 0.0000 0.0000 0.0000
# 3 49.6838 45.7602 73.7087 0.0000 0.0000 0.0000
# 4 0.0000 0.0000 0.0000 29.2408 0.0000 0.0000
# 5 0.0000 0.0000 0.0000 0.0000 29.4804 0.0000
# 6 0.0000 0.0000 0.0000 0.0000 0.0000 23.5982
#
#
#
# Elastic Compliance Matrix: (Units=1/GPa)
#
#
# Indices 1 2 3 4 5 6 
#
# 1 0.012416 -0.003322 -0.006307 0.000000 0.000000 0.000000
# 2 -0.003322 0.015884 -0.007622 0.000000 0.000000 0.000000
# 3 -0.006307 -0.007622 0.022550 0.000000 0.000000 0.000000
# 4 0.000000 0.000000 0.000000 0.034199 0.000000 0.000000
# 5 0.000000 0.000000 0.000000 0.000000 0.033921 0.000000
# 6 0.000000 0.000000 0.000000 0.000000 0.000000 0.042376
#
#
# Mechanical properties :
#
#
# Convention : Reuss Voigt Hill
#
# Bulk Modulus (GPa) = 61.16728 63.98566 62.57647
# Shear Modulus (GPa) = 24.83888 26.02906 25.43397
#
# Velocity S-wave (km/s) = 3.59514 3.68026 3.63795
# Velocity P-wave (km/s) = 7.00442 7.16619 7.08577
#
# Compressibility (1/GPa) = 0.01634861
#
# Stress axis : x y z
#
# Youngs Moduli (GPa) = 80.54013 62.95592 44.34576
#
# Poissons Ratio (x) = 0.20914 0.27968
# Poissons Ratio (y) = 0.26755 0.33801
# Poissons Ratio (z) = 0.50795 0.47986
#
# Static dielectric constant tensor:
#      x y z
#    x 3.617720 0.000000 0.000000 
#    y 0.000000 3.694040 0.000000 
#    z 0.000000 0.000000 3.315930 
# 
# 
# High freq. dielectric constant tensor:
#      x y z
#    x 1.756560 0.000000 0.000000 
#    y 0.000000 1.761230 0.000000 
#    z 0.000000 0.000000 1.729570 
# 
# From -- ./inp_files/9636.got.cif
#   From: 2010.03.12/outbox.cif.g09.slc.cpg/sg65_5_cif.got.tgz:9636.got - 2010.04.10 20:52:16.
