data_PCOD8274377
_publ_section_title
;
Structure prediction by ZEFSAII (Michael W. Deem and Ramdas Pophale) SiO2 
 PCOD8274377
Probable space group: C M M M
;
_chemical_formula_sum "Si O2"
_cell_formula_units_Z 88
_cell_length_a 23.003607
_cell_length_b 16.377827
_cell_length_c 12.169795
_cell_angle_alpha 90.000000
_cell_angle_beta 90.000000
_cell_angle_gamma 90.000000
_cell_volume 4584.959263
_symmetry_space_group_name_H-M "C M M M"
_symmetry_group_IT_number 65
_symmetry_cell_setting 'orthorhombic'
loop_
_space_group_symop_operation_xyz
x,y,z
-x,-y,z
x,-y,-z
-x,y,-z
-x,-y,-z
x,y,-z
-x,y,z
x,-y,z
1/2+x,1/2+y,z
1/2-x,1/2-y,z
1/2+x,1/2-y,-z
1/2-x,1/2+y,-z
1/2-x,1/2-y,-z
1/2+x,1/2+y,-z
1/2-x,1/2+y,z
1/2+x,1/2-y,z
loop_
_atom_site_type_symbol
_atom_site_label
_atom_site_fract_x
_atom_site_fract_y
_atom_site_fract_z
Si Si1 0.930943 0.500000 0.630375
Si Si2 0.631626 0.120844 0.213767
Si Si3 0.564549 0.122592 0.000000
Si Si4 0.755130 0.908659 0.126702
Si Si5 0.362763 0.314012 0.793622
Si Si6 0.935471 0.183677 0.000000
Si Si7 0.935292 0.907462 0.371502
O O1 0.920236 0.500000 0.500000
O O2 0.899761 0.580552 0.680756
O O3 0.000000 0.500000 0.656562
O O4 0.596751 0.089871 0.107448
O O5 0.697253 0.090551 0.199845
O O6 0.632318 0.217931 0.223716
O O7 0.563255 0.219537 0.000000
O O8 0.500000 0.086083 0.000000
O O9 0.797350 0.841908 0.181000
O O10 0.782221 0.000000 0.131101
O O11 0.741883 0.883239 0.000000
O O12 0.402295 0.347735 0.892710
O O13 0.385525 0.353414 0.682272
O O14 0.000000 0.146278 0.000000
O O15 0.924794 0.902151 0.500000
O O16 0.000000 0.874708 0.341760
O O17 0.929013 0.000000 0.330337
#
# Coordination Sequence:
#
# PCOD8274377 Si02
#       7
#     8  16   8  16  16   8  16
#     4  11  26  47  67  91 127 166 205 258 324 381
#     4  11  22  39  62  89 121 162 202 255 312 366
#     4   9  18  32  56  87 117 149 194 246 296 361
#     4  11  22  38  61  90 127 164 202 247 306 367
#     4  11  21  35  60  90 122 159 209 249 304 374
#     4   9  18  31  48  83 129 157 182 239 303 358
#     4   9  19  37  59  83 115 155 201 254 304 354
#
# _framework density 19.193190999999999
#
# number of rings (size 3 to 8) (size 9 to 14) (size 15 to 20)
#    0.000    1.727    2.727    2.727    0.000    4.000 
#    0.000    3.636    0.000    4.364    0.000    0.000 
#    0.000    0.000    0.000    0.000    0.000    0.000 
#
# Total GULP energy -545612.106177 kJ/mol
# GULP energy per Si atom -12400.275140 kJ/mol
# Density = 1.914951 g / cm^3
# Si number density = 19.193191 Si / 1000 Ang^3
#
#
#
# Elastic Constant Matrix: (Units=GPa)
#
#
# Indices 1 2 3 4 5 6 
#
# 1 142.2715 46.2384 57.4332 0.0000 0.0000 0.0000
# 2 46.2384 96.4604 49.0270 0.0000 0.0000 0.0000
# 3 57.4332 49.0270 97.4983 0.0000 0.0000 0.0000
# 4 0.0000 0.0000 0.0000 27.7835 0.0000 0.0000
# 5 0.0000 0.0000 0.0000 0.0000 32.0619 0.0000
# 6 0.0000 0.0000 0.0000 0.0000 0.0000 182.5881
#
#
#
# Elastic Compliance Matrix: (Units=1/GPa)
#
#
# Indices 1 2 3 4 5 6 
#
# 1 0.009593 -0.002319 -0.004485 0.000000 0.000000 0.000000
# 2 -0.002319 0.014487 -0.005919 0.000000 0.000000 0.000000
# 3 -0.004485 -0.005919 0.015875 0.000000 0.000000 0.000000
# 4 0.000000 0.000000 0.000000 0.035993 0.000000 0.000000
# 5 0.000000 0.000000 0.000000 0.000000 0.031190 0.000000
# 6 0.000000 0.000000 0.000000 0.000000 0.000000 0.005477
#
#
# Mechanical properties :
#
#
# Convention : Reuss Voigt Hill
#
# Bulk Modulus (GPa) = 68.92025 71.29195 70.10610
# Shear Modulus (GPa) = 34.99078 60.72213 47.85646
#
# Velocity S-wave (km/s) = 4.27439 5.63081 4.99882
# Velocity P-wave (km/s) = 7.76835 8.91626 8.36202
#
# Compressibility (1/GPa) = 0.01450952
#
# Stress axis : x y z
#
# Youngs Moduli (GPa) = 104.24337 69.02863 62.99347
#
# Poissons Ratio (x) = 0.16007 0.28251
# Poissons Ratio (y) = 0.24173 0.37284
# Poissons Ratio (z) = 0.46751 0.40856
#
# Static dielectric constant tensor:
#      x y z
#    x 3.582030 0.000000 0.000000 
#    y 0.000000 3.443930 0.000000 
#    z 0.000000 0.000000 3.360460 
# 
# 
# High freq. dielectric constant tensor:
#      x y z
#    x 1.753680 0.000000 0.000000 
#    y 0.000000 1.747660 0.000000 
#    z 0.000000 0.000000 1.731920 
# 
# From -- ./inp_files/28770.got.cif
#   From: 2010.03.12/outbox.cif.g09.slc.cpg/sg65_15_cif.got.tgz:28770.got - 2010.04.10 20:52:16.
