data_PCOD8274624
_publ_section_title
;
Structure prediction by ZEFSAII (Michael W. Deem and Ramdas Pophale) SiO2 
 PCOD8274624
Probable space group: C M M M
;
_chemical_formula_sum "Si O2"
_cell_formula_units_Z 64
_cell_length_a 14.716005
_cell_length_b 26.119754
_cell_length_c 8.576250
_cell_angle_alpha 90.000000
_cell_angle_beta 90.000000
_cell_angle_gamma 90.000000
_cell_volume 3296.525514
_symmetry_space_group_name_H-M "C M M M"
_symmetry_group_IT_number 65
_symmetry_cell_setting 'orthorhombic'
loop_
_space_group_symop_operation_xyz
x,y,z
-x,-y,z
x,-y,-z
-x,y,-z
-x,-y,-z
x,y,-z
-x,y,z
x,-y,z
1/2+x,1/2+y,z
1/2-x,1/2-y,z
1/2+x,1/2-y,-z
1/2-x,1/2+y,-z
1/2-x,1/2-y,-z
1/2+x,1/2+y,-z
1/2-x,1/2+y,z
1/2+x,1/2-y,z
loop_
_atom_site_type_symbol
_atom_site_label
_atom_site_fract_x
_atom_site_fract_y
_atom_site_fract_z
Si Si1 0.000000 0.170569 0.684946
Si Si2 0.000000 0.285564 0.684740
Si Si3 0.351498 0.135040 0.315445
Si Si4 0.000000 0.556054 0.315618
Si Si5 0.163374 0.106152 0.182703
Si Si6 0.395363 0.500000 0.684800
O O1 0.000000 0.228316 0.752940
O O2 0.088219 0.141970 0.743050
O O3 0.000000 0.170862 0.500000
O O4 0.091625 0.314893 0.738382
O O5 0.000000 0.285533 0.500000
O O6 0.331686 0.135785 0.500000
O O7 0.409501 0.085595 0.264081
O O8 0.258584 0.132865 0.220962
O O9 0.000000 0.500000 0.237308
O O10 0.000000 0.552102 0.500000
O O11 0.157546 0.049474 0.253633
O O12 0.147854 0.102480 0.000000
O O13 0.500000 0.500000 0.743562
O O14 0.391600 0.500000 0.500000
#
# Coordination Sequence:
#
# PCOD8274624 Si02
#       6
#     8   8  16   8  16   8
#     4  11  22  40  63  85 111 153 208 251 290 341
#     4   8  18  38  64  89 114 150 202 259 291 324
#     4   9  18  36  60  86 117 152 196 242 289 341
#     4   8  15  29  53  85 112 143 190 241 282 330
#     4  12  25  39  57  88 125 155 188 237 299 356
#     4  11  23  41  65  86 110 153 202 240 285 345
#
# _framework density 19.414382
#
# number of rings (size 3 to 8) (size 9 to 14) (size 15 to 20)
#    0.000    2.000    1.250    4.500    1.750    1.500 
#    0.000   10.000    0.000    0.750    0.000    0.000 
#    0.000    0.000    0.000    0.000    0.000    0.000 
#
# Total GULP energy -396806.467611 kJ/mol
# GULP energy per Si atom -12400.202113 kJ/mol
# Density = 1.937019 g / cm^3
# Si number density = 19.414382 Si / 1000 Ang^3
#
#
#
# Elastic Constant Matrix: (Units=GPa)
#
#
# Indices 1 2 3 4 5 6 
#
# 1 148.5724 72.4627 29.6651 0.0000 0.0000 0.0000
# 2 72.4627 181.3295 33.4450 0.0000 0.0000 0.0000
# 3 29.6651 33.4450 68.2673 0.0000 0.0000 0.0000
# 4 0.0000 0.0000 0.0000 9.0098 0.0000 0.0000
# 5 0.0000 0.0000 0.0000 0.0000 -90.8916 0.0000
# 6 0.0000 0.0000 0.0000 0.0000 0.0000 47.7265
#
#
#
# Elastic Compliance Matrix: (Units=1/GPa)
#
#
# Indices 1 2 3 4 5 6 
#
# 1 0.008670 -0.003045 -0.002276 0.000000 0.000000 0.000000
# 2 -0.003045 0.007132 -0.002171 0.000000 0.000000 0.000000
# 3 -0.002276 -0.002171 0.016701 0.000000 0.000000 0.000000
# 4 0.000000 0.000000 0.000000 0.110990 0.000000 0.000000
# 5 0.000000 0.000000 0.000000 0.000000 -0.011002 0.000000
# 6 0.000000 0.000000 0.000000 0.000000 0.000000 0.020953
#
#
# Mechanical properties :
#
#
# Convention : Reuss Voigt Hill
#
# Bulk Modulus (GPa) = 57.07872 74.36830 65.72351
# Shear Modulus (GPa) = 28.69155 10.67537 19.68346
#
# Velocity S-wave (km/s) = 3.84845 2.34747 3.18757
# Velocity P-wave (km/s) = 7.01509 6.76287 6.89014
#
# Compressibility (1/GPa) = 0.01751966
#
# Stress axis : x y z
#
# Youngs Moduli (GPa) = 115.33649 140.21135 59.87741
#
# Poissons Ratio (x) = 0.42695 0.13627
# Poissons Ratio (y) = 0.35121 0.12999
# Poissons Ratio (z) = 0.26248 0.30438
#
# Static dielectric constant tensor:
#      x y z
#    x 3.440150 0.000000 0.000000 
#    y 0.000000 4.258670 0.000000 
#    z 0.000000 0.000000 3.280090 
# 
# 
# High freq. dielectric constant tensor:
#      x y z
#    x 1.764590 0.000000 0.000000 
#    y 0.000000 1.766320 0.000000 
#    z 0.000000 0.000000 1.731070 
# 
# From -- ./inp_files/7139.got.cif
#   From: 2010.03.12/outbox.cif.g09.slc.cpg/sg65_4_cif.got.tgz:7139.got - 2010.04.10 20:52:16.
