data_PCOD8274474
_publ_section_title
;
Structure prediction by ZEFSAII (Michael W. Deem and Ramdas Pophale) SiO2 
 PCOD8274474
Probable space group: C M M M
;
_chemical_formula_sum "Si O2"
_cell_formula_units_Z 64
_cell_length_a 18.586470
_cell_length_b 8.062611
_cell_length_c 22.167953
_cell_angle_alpha 90.000000
_cell_angle_beta 90.000000
_cell_angle_gamma 90.000000
_cell_volume 3321.989181
_symmetry_space_group_name_H-M "C M M M"
_symmetry_group_IT_number 65
_symmetry_cell_setting 'orthorhombic'
loop_
_space_group_symop_operation_xyz
x,y,z
-x,-y,z
x,-y,-z
-x,y,-z
-x,-y,-z
x,y,-z
-x,y,z
x,-y,z
1/2+x,1/2+y,z
1/2-x,1/2-y,z
1/2+x,1/2-y,-z
1/2-x,1/2+y,-z
1/2-x,1/2-y,-z
1/2+x,1/2+y,-z
1/2-x,1/2+y,z
1/2+x,1/2-y,z
loop_
_atom_site_type_symbol
_atom_site_label
_atom_site_fract_x
_atom_site_fract_y
_atom_site_fract_z
Si Si1 0.585528 0.184449 0.142210
Si Si2 0.918935 0.198686 0.500000
Si Si3 0.081009 0.692821 0.278507
Si Si4 0.169279 0.810520 0.388157
Si Si5 0.585818 0.500000 0.068480
O O1 0.500000 0.180226 0.139012
O O2 0.609215 0.223681 0.210617
O O3 0.616147 0.332010 0.099972
O O4 0.614120 0.000000 0.122493
O O5 0.878315 0.273091 0.441056
O O6 0.000000 0.269146 0.500000
O O7 0.921094 0.000000 0.500000
O O8 0.082261 0.500000 0.294224
O O9 0.134072 0.786818 0.322950
O O10 0.000000 0.763151 0.286002
O O11 0.250000 0.750000 0.387579
O O12 0.172080 0.000000 0.404664
O O13 0.500000 0.500000 0.071886
O O14 0.613455 0.500000 0.000000
#
# Coordination Sequence:
#
# PCOD8274474 Si02
#       5
#    16   8  16  16   8
#     4   8  15  27  42  63  95 133 170 214 263 310
#     4   9  19  36  55  77 102 131 176 219 258 314
#     4   9  18  33  52  74 100 132 173 219 264 316
#     4  11  22  35  53  75 104 139 170 216 266 316
#     4   9  16  24  38  64  98 135 175 213 253 315
#
# _framework density 19.265566
#
# number of rings (size 3 to 8) (size 9 to 14) (size 15 to 20)
#    0.000    2.750    0.000    3.375    1.750    2.000 
#    0.000    4.375    0.000    4.500    0.000    0.000 
#    0.000    1.000    0.500    0.000    0.000    0.000 
#
# Total GULP energy -396625.758976 kJ/mol
# GULP energy per Si atom -12394.554968 kJ/mol
# Density = 1.922172 g / cm^3
# Si number density = 19.265566 Si / 1000 Ang^3
#
#
#
# Elastic Constant Matrix: (Units=GPa)
#
#
# Indices 1 2 3 4 5 6 
#
# 1 89.3524 27.7357 50.0357 0.0000 0.0000 0.0000
# 2 27.7357 90.6547 64.3498 0.0000 0.0000 0.0000
# 3 50.0357 64.3498 143.5810 0.0000 0.0000 0.0000
# 4 0.0000 0.0000 0.0000 19.6877 0.0000 0.0000
# 5 0.0000 0.0000 0.0000 0.0000 6.7049 0.0000
# 6 0.0000 0.0000 0.0000 0.0000 0.0000 3.8984
#
#
#
# Elastic Compliance Matrix: (Units=1/GPa)
#
#
# Indices 1 2 3 4 5 6 
#
# 1 0.013994 -0.001202 -0.004338 0.000000 0.000000 0.000000
# 2 -0.001202 0.016281 -0.006878 0.000000 0.000000 0.000000
# 3 -0.004338 -0.006878 0.011559 0.000000 0.000000 0.000000
# 4 0.000000 0.000000 0.000000 0.050793 0.000000 0.000000
# 5 0.000000 0.000000 0.000000 0.000000 0.149145 0.000000
# 6 0.000000 0.000000 0.000000 0.000000 0.000000 0.256514
#
#
# Mechanical properties :
#
#
# Convention : Reuss Voigt Hill
#
# Bulk Modulus (GPa) = 58.83090 67.53672 63.18381
# Shear Modulus (GPa) = 9.45560 18.15600 13.80580
#
# Velocity S-wave (km/s) = 2.21781 3.07319 2.67985
# Velocity P-wave (km/s) = 6.09601 6.90829 6.51482
#
# Compressibility (1/GPa) = 0.01699787
#
# Stress axis : x y z
#
# Youngs Moduli (GPa) = 71.45949 61.42239 86.51423
#
# Poissons Ratio (x) = 0.07385 0.37528
# Poissons Ratio (y) = 0.08591 0.59502
# Poissons Ratio (z) = 0.30998 0.42244
#
# Static dielectric constant tensor:
#      x y z
#    x 3.061360 0.000000 0.000000 
#    y 0.000000 3.649960 0.000000 
#    z 0.000000 0.000000 3.615910 
# 
# 
# High freq. dielectric constant tensor:
#      x y z
#    x 1.701600 0.000000 0.000000 
#    y 0.000000 1.747030 0.000000 
#    z 0.000000 0.000000 1.753980 
# 
# From -- ./inp_files/55302.got.cif
#   From: 2010.03.12/outbox.cif.g09.slc.cpg/sg65_28_cif.got.tgz:55302.got - 2010.04.10 20:52:16.
