data_PCOD8274703
_publ_section_title
;
Structure prediction by ZEFSAII (Michael W. Deem and Ramdas Pophale) SiO2 
 PCOD8274703
Probable space group: C M M M
;
_chemical_formula_sum "Si O2"
_cell_formula_units_Z 64
_cell_length_a 23.834225
_cell_length_b 15.336777
_cell_length_c 8.766053
_cell_angle_alpha 90.000000
_cell_angle_beta 90.000000
_cell_angle_gamma 90.000000
_cell_volume 3204.344712
_symmetry_space_group_name_H-M "C M M M"
_symmetry_group_IT_number 65
_symmetry_cell_setting 'orthorhombic'
loop_
_space_group_symop_operation_xyz
x,y,z
-x,-y,z
x,-y,-z
-x,y,-z
-x,-y,-z
x,y,-z
-x,y,z
x,-y,z
1/2+x,1/2+y,z
1/2-x,1/2-y,z
1/2+x,1/2-y,-z
1/2-x,1/2+y,-z
1/2-x,1/2-y,-z
1/2+x,1/2+y,-z
1/2-x,1/2+y,z
1/2+x,1/2-y,z
loop_
_atom_site_type_symbol
_atom_site_label
_atom_site_fract_x
_atom_site_fract_y
_atom_site_fract_z
Si Si1 0.590976 0.500000 0.319287
Si Si2 0.000000 0.137010 0.320040
Si Si3 0.788465 0.000000 0.179506
Si Si4 0.500000 0.167510 0.318913
Si Si5 0.221984 0.342457 0.677535
Si Si6 0.611829 0.899309 0.824524
O O1 0.604312 0.500000 0.500000
O O2 0.555854 0.585492 0.269720
O O3 0.646648 0.500000 0.221443
O O4 0.000000 0.141838 0.500000
O O5 0.000000 0.234127 0.250686
O O6 0.760644 0.085865 0.245952
O O7 0.779813 0.000000 0.000000
O O8 0.500000 0.168494 0.500000
O O9 0.554010 0.116268 0.261762
O O10 0.216235 0.363584 0.500000
O O11 0.250000 0.250000 0.708295
O O12 0.160234 0.340547 0.750519
O O13 0.629421 0.000000 0.807002
O O14 0.604352 0.872939 0.000000
#
# Coordination Sequence:
#
# PCOD8274703 Si02
#       6
#     8   8   8   8  16  16
#     4   9  18  38  64  86 119 165 209 254 301 359
#     4   8  18  37  61  89 119 158 208 258 302 351
#     4  12  25  41  63  97 133 168 205 256 321 386
#     4  11  23  38  62  94 123 160 213 260 305 369
#     4  11  25  44  68  95 124 166 218 266 311 373
#     4  11  24  43  64  90 125 164 205 257 319 377
#
# _framework density 19.972881999999998
#
# number of rings (size 3 to 8) (size 9 to 14) (size 15 to 20)
#    0.000    1.500    1.250    4.125    3.500    5.000 
#    0.000    2.500    0.000    0.000    0.000    0.000 
#    0.000    0.000    0.000    0.000    0.000    0.000 
#
# Total GULP energy -396948.241827 kJ/mol
# GULP energy per Si atom -12404.632557 kJ/mol
# Density = 1.992742 g / cm^3
# Si number density = 19.972882 Si / 1000 Ang^3
#
#
#
# Elastic Constant Matrix: (Units=GPa)
#
#
# Indices 1 2 3 4 5 6 
#
# 1 152.9383 41.3869 57.7026 0.0000 0.0000 0.0000
# 2 41.3869 90.2379 61.5899 0.0000 0.0000 0.0000
# 3 57.7026 61.5899 118.8681 0.0000 0.0000 0.0000
# 4 0.0000 0.0000 0.0000 36.6613 0.0000 0.0000
# 5 0.0000 0.0000 0.0000 0.0000 72.6022 0.0000
# 6 0.0000 0.0000 0.0000 0.0000 0.0000 48.5915
#
#
#
# Elastic Compliance Matrix: (Units=1/GPa)
#
#
# Indices 1 2 3 4 5 6 
#
# 1 0.008152 -0.001606 -0.003125 0.000000 0.000000 0.000000
# 2 -0.001606 0.017461 -0.008268 0.000000 0.000000 0.000000
# 3 -0.003125 -0.008268 0.014214 0.000000 0.000000 0.000000
# 4 0.000000 0.000000 0.000000 0.027277 0.000000 0.000000
# 5 0.000000 0.000000 0.000000 0.000000 0.013774 0.000000
# 6 0.000000 0.000000 0.000000 0.000000 0.000000 0.020580
#
#
# Mechanical properties :
#
#
# Convention : Reuss Voigt Hill
#
# Bulk Modulus (GPa) = 72.31024 75.93367 74.12195
# Shear Modulus (GPa) = 37.86002 44.99531 41.42766
#
# Velocity S-wave (km/s) = 4.35854 4.75154 4.55927
# Velocity P-wave (km/s) = 7.84933 8.25855 8.05654
#
# Compressibility (1/GPa) = 0.01382930
#
# Stress axis : x y z
#
# Youngs Moduli (GPa) = 122.66443 57.26929 70.35463
#
# Poissons Ratio (x) = 0.09197 0.21988
# Poissons Ratio (y) = 0.19698 0.58168
# Poissons Ratio (z) = 0.38337 0.47349
#
# Static dielectric constant tensor:
#      x y z
#    x 4.011320 0.000000 0.000000 
#    y 0.000000 3.784910 0.000000 
#    z 0.000000 0.000000 3.610570 
# 
# 
# High freq. dielectric constant tensor:
#      x y z
#    x 1.795810 0.000000 0.000000 
#    y 0.000000 1.787270 0.000000 
#    z 0.000000 0.000000 1.776560 
# 
# From -- ./inp_files/13408.got.cif
#   From: 2010.03.12/outbox.cif.g09.slc.cpg/sg65_7_cif.got.tgz:13408.got - 2010.04.10 20:52:16.
