data_PCOD8274403
_publ_section_title
;
Structure prediction by ZEFSAII (Michael W. Deem and Ramdas Pophale) SiO2 
 PCOD8274403
Probable space group: C M M M
;
_chemical_formula_sum "Si O2"
_cell_formula_units_Z 88
_cell_length_a 14.619228
_cell_length_b 23.459394
_cell_length_c 11.875461
_cell_angle_alpha 90.000000
_cell_angle_beta 90.000000
_cell_angle_gamma 90.000000
_cell_volume 4072.787081
_symmetry_space_group_name_H-M "C M M M"
_symmetry_group_IT_number 65
_symmetry_cell_setting 'orthorhombic'
loop_
_space_group_symop_operation_xyz
x,y,z
-x,-y,z
x,-y,-z
-x,y,-z
-x,-y,-z
x,y,-z
-x,y,z
x,-y,z
1/2+x,1/2+y,z
1/2-x,1/2-y,z
1/2+x,1/2-y,-z
1/2-x,1/2+y,-z
1/2-x,1/2-y,-z
1/2+x,1/2+y,-z
1/2-x,1/2+y,z
1/2+x,1/2-y,z
loop_
_atom_site_type_symbol
_atom_site_label
_atom_site_fract_x
_atom_site_fract_y
_atom_site_fract_z
Si Si1 0.894567 0.912148 0.500000
Si Si2 0.103189 0.379111 0.229152
Si Si3 0.392355 0.936948 0.000000
Si Si4 0.601647 0.641149 0.128770
Si Si5 0.648009 0.248030 0.745008
Si Si6 0.395985 0.277623 0.500000
Si Si7 0.721964 0.435310 0.284394
O O1 0.888903 0.844914 0.500000
O O2 0.843693 0.936327 0.608453
O O3 0.000000 0.932961 0.500000
O O4 0.138382 0.402492 0.109587
O O5 0.100328 0.311023 0.222975
O O6 0.180814 0.403763 0.314380
O O7 0.000000 0.400382 0.260480
O O8 0.500000 0.942766 0.000000
O O9 0.347516 0.000000 0.000000
O O10 0.500000 0.614085 0.133977
O O11 0.594514 0.700112 0.198044
O O12 0.672974 0.597621 0.182679
O O13 0.631043 0.653078 0.000000
O O14 0.750000 0.250000 0.793384
O O15 0.652209 0.252989 0.610137
O O16 0.500000 0.256438 0.500000
O O17 0.742148 0.500000 0.247079
#
# Coordination Sequence:
#
# PCOD8274403 Si02
#       7
#     8  16   8  16  16   8  16
#     4  11  23  45  72  99 131 174 229 281 333 398
#     4  11  24  42  66  99 137 180 224 273 335 399
#     4   9  20  40  65  92 129 185 241 276 311 381
#     4  11  25  44  67  98 135 173 216 274 345 412
#     4  12  23  41  67  99 135 174 221 272 333 402
#     4  11  21  38  66  95 131 170 213 266 328 398
#     4  12  26  44  68  98 132 174 230 283 331 394
#
# _framework density 21.606826000000002
#
# number of rings (size 3 to 8) (size 9 to 14) (size 15 to 20)
#    0.000    0.818    3.636    3.273    2.545    4.364 
#    0.000    2.273    0.000    1.091    0.000    0.000 
#    0.000    0.000    0.000    0.000    0.000    0.000 
#
# Total GULP energy -545642.724410 kJ/mol
# GULP energy per Si atom -12400.971009 kJ/mol
# Density = 2.155765 g / cm^3
# Si number density = 21.606826 Si / 1000 Ang^3
#
#
#
# Elastic Constant Matrix: (Units=GPa)
#
#
# Indices 1 2 3 4 5 6 
#
# 1 148.9072 33.8869 27.8278 0.0000 0.0000 0.0000
# 2 33.8869 142.0794 35.6907 0.0000 0.0000 0.0000
# 3 27.8278 35.6907 116.1678 0.0000 0.0000 0.0000
# 4 0.0000 0.0000 0.0000 31.8576 0.0000 0.0000
# 5 0.0000 0.0000 0.0000 0.0000 29.4257 0.0000
# 6 0.0000 0.0000 0.0000 0.0000 0.0000 24.1635
#
#
#
# Elastic Compliance Matrix: (Units=1/GPa)
#
#
# Indices 1 2 3 4 5 6 
#
# 1 0.007281 -0.001407 -0.001312 0.000000 0.000000 0.000000
# 2 -0.001407 0.007899 -0.002090 0.000000 0.000000 0.000000
# 3 -0.001312 -0.002090 0.009565 0.000000 0.000000 0.000000
# 4 0.000000 0.000000 0.000000 0.031390 0.000000 0.000000
# 5 0.000000 0.000000 0.000000 0.000000 0.033984 0.000000
# 6 0.000000 0.000000 0.000000 0.000000 0.000000 0.041385
#
#
# Mechanical properties :
#
#
# Convention : Reuss Voigt Hill
#
# Bulk Modulus (GPa) = 66.10656 66.88503 66.49580
# Shear Modulus (GPa) = 34.20856 37.73930 35.97393
#
# Velocity S-wave (km/s) = 3.98330 4.18381 4.08479
# Velocity P-wave (km/s) = 7.19842 7.37304 7.28625
#
# Compressibility (1/GPa) = 0.01512709
#
# Stress axis : x y z
#
# Youngs Moduli (GPa) = 137.34478 126.60076 104.55298
#
# Poissons Ratio (x) = 0.17813 0.13716
# Poissons Ratio (y) = 0.19325 0.21849
# Poissons Ratio (z) = 0.18018 0.26456
#
# Static dielectric constant tensor:
#      x y z
#    x 4.014050 0.000000 0.000000 
#    y 0.000000 3.876370 0.000000 
#    z 0.000000 0.000000 3.879670 
# 
# 
# High freq. dielectric constant tensor:
#      x y z
#    x 1.867500 0.000000 0.000000 
#    y 0.000000 1.848520 0.000000 
#    z 0.000000 0.000000 1.837200 
# 
# From -- ./inp_files/24878.got.cif
#   From: 2010.03.12/outbox.cif.g09.slc.cpg/sg65_13_cif.got.tgz:24878.got - 2010.04.10 20:52:16.
