data_PCOD8274262
_publ_section_title
;
Structure prediction by ZEFSAII (Michael W. Deem and Ramdas Pophale) SiO2 
 PCOD8274262
Probable space group: C M M M
;
_chemical_formula_sum "Si O2"
_cell_formula_units_Z 96
_cell_length_a 23.987564
_cell_length_b 24.257391
_cell_length_c 9.266005
_cell_angle_alpha 90.000000
_cell_angle_beta 90.000000
_cell_angle_gamma 90.000000
_cell_volume 5391.663322
_symmetry_space_group_name_H-M "C M M M"
_symmetry_group_IT_number 65
_symmetry_cell_setting 'orthorhombic'
loop_
_space_group_symop_operation_xyz
x,y,z
-x,-y,z
x,-y,-z
-x,y,-z
-x,-y,-z
x,y,-z
-x,y,z
x,-y,z
1/2+x,1/2+y,z
1/2-x,1/2-y,z
1/2+x,1/2-y,-z
1/2-x,1/2+y,-z
1/2-x,1/2-y,-z
1/2+x,1/2+y,-z
1/2-x,1/2+y,z
1/2+x,1/2-y,z
loop_
_atom_site_type_symbol
_atom_site_label
_atom_site_fract_x
_atom_site_fract_y
_atom_site_fract_z
Si Si1 0.644784 0.060736 0.671076
Si Si2 0.435179 0.560890 0.343381
Si Si3 0.436516 0.266276 0.169449
Si Si4 0.228884 0.063111 0.329848
Si Si5 0.361417 0.367983 0.167670
Si Si6 0.936251 0.654808 0.668306
O O1 0.640198 0.058989 0.500000
O O2 0.707741 0.075878 0.716293
O O3 0.602233 0.106119 0.733066
O O4 0.629055 0.000000 0.732241
O O5 0.420658 0.588795 0.500000
O O6 0.500000 0.558269 0.320274
O O7 0.409383 0.500000 0.346402
O O8 0.411076 0.590707 0.204543
O O9 0.500000 0.285676 0.213174
O O10 0.387436 0.308919 0.213837
O O11 0.420596 0.210496 0.250119
O O12 0.434796 0.255391 0.000000
O O13 0.220492 0.068923 0.500000
O O14 0.192407 0.111215 0.255524
O O15 0.213458 0.000000 0.282522
O O16 0.346591 0.369673 0.000000
O O17 0.924545 0.664658 0.500000
O O18 0.000000 0.637634 0.696410
#
# Coordination Sequence:
#
# PCOD8274262 Si02
#       6
#    16  16  16  16  16  16
#     4   8  15  30  52  77 104 130 154 186 234 290
#     4   9  18  31  45  63  89 120 154 196 248 301
#     4   9  19  35  50  65  93 132 165 195 240 293
#     4   9  18  33  51  69  94 131 167 196 235 290
#     4  11  21  31  46  68  92 123 166 210 247 281
#     4   9  17  30  52  81 104 122 153 196 237 281
#
# _framework density 17.805266
#
# number of rings (size 3 to 8) (size 9 to 14) (size 15 to 20)
#    0.000    2.833    0.000    3.000    0.000    5.333 
#    0.000    5.833    0.000    6.500    0.000    2.333 
#    0.000    0.000    0.000    0.000    0.000    0.000 
#
# Total GULP energy -594682.470636 kJ/mol
# GULP energy per Si atom -12389.218138 kJ/mol
# Density = 1.776474 g / cm^3
# Si number density = 17.805266 Si / 1000 Ang^3
#
#
#
# Elastic Constant Matrix: (Units=GPa)
#
#
# Indices 1 2 3 4 5 6 
#
# 1 112.8586 92.8077 38.5837 0.0000 0.0000 0.0000
# 2 92.8077 133.6490 43.6051 0.0000 0.0000 0.0000
# 3 38.5837 43.6051 32.7119 0.0000 0.0000 0.0000
# 4 0.0000 0.0000 0.0000 3.5917 0.0000 0.0000
# 5 0.0000 0.0000 0.0000 0.0000 15.2748 0.0000
# 6 0.0000 0.0000 0.0000 0.0000 0.0000 37.7585
#
#
#
# Elastic Compliance Matrix: (Units=1/GPa)
#
#
# Indices 1 2 3 4 5 6 
#
# 1 0.022381 -0.012261 -0.010054 0.000000 0.000000 0.000000
# 2 -0.012261 0.019958 -0.012142 0.000000 0.000000 0.000000
# 3 -0.010054 -0.012142 0.058614 0.000000 0.000000 0.000000
# 4 0.000000 0.000000 0.000000 0.278420 0.000000 0.000000
# 5 0.000000 0.000000 0.000000 0.000000 0.065467 0.000000
# 6 0.000000 0.000000 0.000000 0.000000 0.000000 0.026484
#
#
# Mechanical properties :
#
#
# Convention : Reuss Voigt Hill
#
# Bulk Modulus (GPa) = 31.21257 69.91250 50.56254
# Shear Modulus (GPa) = 9.07577 18.27320 13.67448
#
# Velocity S-wave (km/s) = 2.26016 3.20704 2.77429
# Velocity P-wave (km/s) = 4.93752 7.28449 6.22265
#
# Compressibility (1/GPa) = 0.03203837
#
# Stress axis : x y z
#
# Youngs Moduli (GPa) = 44.68153 50.10456 17.06079
#
# Poissons Ratio (x) = 0.61434 0.17152
# Poissons Ratio (y) = 0.54785 0.20716
# Poissons Ratio (z) = 0.44921 0.60838
#
# Static dielectric constant tensor:
#      x y z
#    x 3.400950 0.000000 0.000000 
#    y 0.000000 3.462670 0.000000 
#    z 0.000000 0.000000 3.131140 
# 
# 
# High freq. dielectric constant tensor:
#      x y z
#    x 1.689400 0.000000 0.000000 
#    y 0.000000 1.680200 0.000000 
#    z 0.000000 0.000000 1.665190 
# 
# From -- ./inp_files/14325.got.cif
#   From: 2010.03.12/outbox.cif.g09.slc.cpg/sg65_8_cif.got.tgz:14325.got - 2010.04.10 20:52:16.
