data_PCOD8274451
_publ_section_title
;
Structure prediction by ZEFSAII (Michael W. Deem and Ramdas Pophale) SiO2 
 PCOD8274451
Probable space group: C M M M
;
_chemical_formula_sum "Si O2"
_cell_formula_units_Z 64
_cell_length_a 32.521458
_cell_length_b 13.818853
_cell_length_c 7.705844
_cell_angle_alpha 90.000000
_cell_angle_beta 90.000000
_cell_angle_gamma 90.000000
_cell_volume 3463.077553
_symmetry_space_group_name_H-M "C M M M"
_symmetry_group_IT_number 65
_symmetry_cell_setting 'orthorhombic'
loop_
_space_group_symop_operation_xyz
x,y,z
-x,-y,z
x,-y,-z
-x,y,-z
-x,-y,-z
x,y,-z
-x,y,z
x,-y,z
1/2+x,1/2+y,z
1/2-x,1/2-y,z
1/2+x,1/2-y,-z
1/2-x,1/2+y,-z
1/2-x,1/2-y,-z
1/2+x,1/2+y,-z
1/2-x,1/2+y,z
1/2+x,1/2-y,z
loop_
_atom_site_type_symbol
_atom_site_label
_atom_site_fract_x
_atom_site_fract_y
_atom_site_fract_z
Si Si1 0.046064 0.109526 0.205001
Si Si2 0.176057 0.113843 0.000000
Si Si3 0.327072 0.890575 0.697099
Si Si4 0.732731 0.114069 0.000000
Si Si5 0.873906 0.794654 0.306747
O O1 0.077607 0.184693 0.290160
O O2 0.000000 0.137474 0.265005
O O3 0.056349 0.000000 0.265373
O O4 0.049956 0.116317 0.000000
O O5 0.151820 0.142912 0.171740
O O6 0.221746 0.162472 0.000000
O O7 0.179997 0.000000 0.000000
O O8 0.310120 0.884674 0.500000
O O9 0.366149 0.819933 0.723950
O O10 0.341286 0.000000 0.742218
O O11 0.291375 0.854307 0.826362
O O12 0.738385 0.000000 0.000000
O O13 0.859209 0.823686 0.500000
#
# Coordination Sequence:
#
# PCOD8274451 Si02
#       5
#    16   8  16   8  16
#     4   9  18  34  55  77 105 140 172 206 252 307
#     4  11  23  37  51  75 112 141 169 216 264 309
#     4   9  19  36  55  76 103 135 177 224 261 300
#     4   9  19  35  55  74  98 141 181 211 261 315
#     4  11  22  34  54  81 105 137 177 214 259 311
#
# _framework density 18.480672999999999
#
# number of rings (size 3 to 8) (size 9 to 14) (size 15 to 20)
#    0.000    2.250    1.250    2.250    0.000    5.500 
#    0.000    6.250    0.000    0.750    0.000    5.250 
#    0.000    0.000    0.000    0.000    0.000    0.000 
#
# Total GULP energy -396706.903166 kJ/mol
# GULP energy per Si atom -12397.090724 kJ/mol
# Density = 1.843861 g / cm^3
# Si number density = 18.480673 Si / 1000 Ang^3
#
#
#
# Elastic Constant Matrix: (Units=GPa)
#
#
# Indices 1 2 3 4 5 6 
#
# 1 146.6951 66.5146 58.7022 0.0000 0.0000 0.0000
# 2 66.5146 78.5817 44.7535 0.0000 0.0000 0.0000
# 3 58.7022 44.7535 111.1398 0.0000 0.0000 0.0000
# 4 0.0000 0.0000 0.0000 23.4546 0.0000 0.0000
# 5 0.0000 0.0000 0.0000 0.0000 4.3992 0.0000
# 6 0.0000 0.0000 0.0000 0.0000 0.0000 32.4038
#
#
#
# Elastic Compliance Matrix: (Units=1/GPa)
#
#
# Indices 1 2 3 4 5 6 
#
# 1 0.011719 -0.008297 -0.002849 0.000000 0.000000 0.000000
# 2 -0.008297 0.022387 -0.004632 0.000000 0.000000 0.000000
# 3 -0.002849 -0.004632 0.012368 0.000000 0.000000 0.000000
# 4 0.000000 0.000000 0.000000 0.042636 0.000000 0.000000
# 5 0.000000 0.000000 0.000000 0.000000 0.227316 0.000000
# 6 0.000000 0.000000 0.000000 0.000000 0.000000 0.030861
#
#
# Mechanical properties :
#
#
# Convention : Reuss Voigt Hill
#
# Bulk Modulus (GPa) = 67.03647 75.15082 71.09364
# Shear Modulus (GPa) = 13.02718 23.14794 18.08756
#
# Velocity S-wave (km/s) = 2.65789 3.54298 3.13186
# Velocity P-wave (km/s) = 6.76548 7.58220 7.18545
#
# Compressibility (1/GPa) = 0.01491725
#
# Stress axis : x y z
#
# Youngs Moduli (GPa) = 85.33308 44.66962 80.85615
#
# Poissons Ratio (x) = 0.37062 0.23034
# Poissons Ratio (y) = 0.70800 0.37455
# Poissons Ratio (z) = 0.24309 0.20692
#
# Static dielectric constant tensor:
#      x y z
#    x 3.584590 0.000000 0.000000 
#    y 0.000000 3.454200 0.000000 
#    z 0.000000 0.000000 3.559420 
# 
# 
# High freq. dielectric constant tensor:
#      x y z
#    x 1.702300 0.000000 0.000000 
#    y 0.000000 1.709470 0.000000 
#    z 0.000000 0.000000 1.730500 
# 
# From -- ./inp_files/17946.got.cif
#   From: 2010.03.12/outbox.cif.g09.slc.cpg/sg65_9_cif.got.tgz:17946.got - 2010.04.10 20:52:16.
