data_PCOD8274191
_publ_section_title
;
Structure prediction by ZEFSAII (Michael W. Deem and Ramdas Pophale) SiO2 
 PCOD8274191
Probable space group: C M M M
;
_chemical_formula_sum "Si O2"
_cell_formula_units_Z 72
_cell_length_a 24.022254
_cell_length_b 8.607202
_cell_length_c 17.807086
_cell_angle_alpha 90.000000
_cell_angle_beta 90.000000
_cell_angle_gamma 90.000000
_cell_volume 3681.871322
_symmetry_space_group_name_H-M "C M M M"
_symmetry_group_IT_number 65
_symmetry_cell_setting 'orthorhombic'
loop_
_space_group_symop_operation_xyz
x,y,z
-x,-y,z
x,-y,-z
-x,y,-z
-x,-y,-z
x,y,-z
-x,y,z
x,-y,z
1/2+x,1/2+y,z
1/2-x,1/2-y,z
1/2+x,1/2-y,-z
1/2-x,1/2+y,-z
1/2-x,1/2-y,-z
1/2+x,1/2+y,-z
1/2-x,1/2+y,z
1/2+x,1/2-y,z
loop_
_atom_site_type_symbol
_atom_site_label
_atom_site_fract_x
_atom_site_fract_y
_atom_site_fract_z
Si Si1 0.000000 0.828211 0.718710
Si Si2 0.119801 0.183939 0.917637
Si Si3 0.063769 0.684256 0.500000
Si Si4 0.500000 0.668889 0.107491
Si Si5 0.891626 0.682247 0.657743
Si Si6 0.811215 0.183594 0.775835
O O1 0.947444 0.723945 0.700494
O O2 0.000000 0.858917 0.805250
O O3 0.000000 0.000000 0.678995
O O4 0.156959 0.252537 0.849577
O O5 0.057128 0.257068 0.915855
O O6 0.115067 0.000000 0.904855
O O7 0.146173 0.222529 0.000000
O O8 0.058154 0.500000 0.500000
O O9 0.099350 0.740185 0.428000
O O10 0.000000 0.752326 0.500000
O O11 0.500000 0.500000 0.067520
O O12 0.880082 0.500000 0.661448
O O13 0.840517 0.768396 0.697876
O O14 0.750000 0.250000 0.776252
O O15 0.808649 0.000000 0.779734
#
# Coordination Sequence:
#
# PCOD8274191 Si02
#       6
#     8  16   8   8  16  16
#     4  11  19  31  54  87 120 153 188 231 278 334
#     4   9  17  30  52  82 114 148 186 230 281 337
#     4   9  18  34  57  88 121 150 183 221 272 340
#     4   9  15  27  49  81 115 145 178 221 276 336
#     4  11  21  37  60  86 116 152 189 231 282 336
#     4  11  23  40  59  82 111 148 197 244 286 336
#
# _framework density 19.555273
#
# number of rings (size 3 to 8) (size 9 to 14) (size 15 to 20)
#    0.000    1.889    3.333    2.000    0.000    1.778 
#    0.000    3.333    0.000    2.000    0.000    1.556 
#    0.000    0.000    0.000    0.000    0.000    0.000 
#
# Total GULP energy -446084.823392 kJ/mol
# GULP energy per Si atom -12391.245094 kJ/mol
# Density = 1.951076 g / cm^3
# Si number density = 19.555273 Si / 1000 Ang^3
#
#
#
# Elastic Constant Matrix: (Units=GPa)
#
#
# Indices 1 2 3 4 5 6 
#
# 1 157.0445 23.6342 77.3536 0.0000 0.0000 0.0000
# 2 23.6342 39.1372 24.7917 0.0000 0.0000 0.0000
# 3 77.3536 24.7917 165.7479 0.0000 0.0000 0.0000
# 4 0.0000 0.0000 0.0000 14.4997 0.0000 0.0000
# 5 0.0000 0.0000 0.0000 0.0000 -6.7307 0.0000
# 6 0.0000 0.0000 0.0000 0.0000 0.0000 17.7651
#
#
#
# Elastic Compliance Matrix: (Units=1/GPa)
#
#
# Indices 1 2 3 4 5 6 
#
# 1 0.008559 -0.002914 -0.003559 0.000000 0.000000 0.000000
# 2 -0.002914 0.029218 -0.003010 0.000000 0.000000 0.000000
# 3 -0.003559 -0.003010 0.008144 0.000000 0.000000 0.000000
# 4 0.000000 0.000000 0.000000 0.068967 0.000000 0.000000
# 5 0.000000 0.000000 0.000000 0.000000 -0.148574 0.000000
# 6 0.000000 0.000000 0.000000 0.000000 0.000000 0.056290
#
#
# Mechanical properties :
#
#
# Convention : Reuss Voigt Hill
#
# Bulk Modulus (GPa) = 37.09891 68.16540 52.63216
# Shear Modulus (GPa) = 98.90044 20.85016 59.87530
#
# Velocity S-wave (km/s) = 7.11931 3.26884 5.53940
# Velocity P-wave (km/s) = 9.30548 7.01289 8.23931
#
# Compressibility (1/GPa) = 0.02695497
#
# Stress axis : x y z
#
# Youngs Moduli (GPa) = 116.83608 34.22566 122.78645
#
# Poissons Ratio (x) = 0.09975 0.43694
# Poissons Ratio (y) = 0.34051 0.36960
# Poissons Ratio (z) = 0.41576 0.10302
#
# Static dielectric constant tensor:
#      x y z
#    x 3.602680 0.000000 0.000000 
#    y 0.000000 3.231960 0.000000 
#    z 0.000000 0.000000 3.929810 
# 
# 
# High freq. dielectric constant tensor:
#      x y z
#    x 1.751980 0.000000 0.000000 
#    y 0.000000 1.720840 0.000000 
#    z 0.000000 0.000000 1.778180 
# 
# From -- ./inp_files/56483.got.cif
#   From: 2010.03.12/outbox.cif.g09.slc.cpg/sg65_29_cif.got.tgz:56483.got - 2010.04.10 20:52:16.
