data_PCOD8274659
_publ_section_title
;
Structure prediction by ZEFSAII (Michael W. Deem and Ramdas Pophale) SiO2 
 PCOD8274659
Probable space group: C M M M
;
_chemical_formula_sum "Si O2"
_cell_formula_units_Z 88
_cell_length_a 22.570808
_cell_length_b 13.894109
_cell_length_c 14.095010
_cell_angle_alpha 90.000000
_cell_angle_beta 90.000000
_cell_angle_gamma 90.000000
_cell_volume 4420.212988
_symmetry_space_group_name_H-M "C M M M"
_symmetry_group_IT_number 65
_symmetry_cell_setting 'orthorhombic'
loop_
_space_group_symop_operation_xyz
x,y,z
-x,-y,z
x,-y,-z
-x,y,-z
-x,-y,-z
x,y,-z
-x,y,z
x,-y,z
1/2+x,1/2+y,z
1/2-x,1/2-y,z
1/2+x,1/2-y,-z
1/2-x,1/2+y,-z
1/2-x,1/2-y,-z
1/2+x,1/2+y,-z
1/2-x,1/2+y,z
1/2+x,1/2-y,z
loop_
_atom_site_type_symbol
_atom_site_label
_atom_site_fract_x
_atom_site_fract_y
_atom_site_fract_z
Si Si1 0.323470 0.114541 0.771775
Si Si2 0.245117 0.889550 0.396577
Si Si3 0.782852 0.114691 0.894354
Si Si4 0.569546 0.892192 0.500000
Si Si5 0.568300 0.793317 0.695516
Si Si6 0.132941 0.109602 0.726763
O O1 0.291690 0.157213 0.676827
O O2 0.282387 0.150790 0.859552
O O3 0.389955 0.156709 0.775259
O O4 0.326570 0.000000 0.771576
O O5 0.250769 0.839699 0.500000
O O6 0.178291 0.881009 0.359797
O O7 0.262550 0.000000 0.405056
O O8 0.834928 0.147449 0.823034
O O9 0.781857 0.000000 0.892309
O O10 0.794841 0.154776 0.000000
O O11 0.500000 0.903490 0.500000
O O12 0.588992 0.833864 0.593341
O O13 0.598219 0.000000 0.500000
O O14 0.500000 0.818076 0.717203
O O15 0.577417 0.678176 0.702466
O O16 0.109907 0.000000 0.737833
#
# Coordination Sequence:
#
# PCOD8274659 Si02
#       6
#    16  16  16   8  16  16
#     4   9  18  32  52  79 107 134 171 219 274 330
#     4   8  15  28  48  74 102 131 164 209 269 329
#     4   8  15  32  59  87 111 137 176 226 280 340
#     4   9  20  38  55  72  99 141 190 232 264 299
#     4  11  23  36  51  75 106 144 192 228 258 316
#     4   9  19  35  54  78 109 142 179 225 276 325
#
# _framework density 19.908543999999999
#
# number of rings (size 3 to 8) (size 9 to 14) (size 15 to 20)
#    0.000    3.000    0.000    2.727    2.545    4.364 
#    0.000    2.727    0.000    3.818    0.000    5.091 
#    0.000    0.000    0.000    0.000    0.000    0.000 
#
# Total GULP energy -545246.015003 kJ/mol
# GULP energy per Si atom -12391.954886 kJ/mol
# Density = 1.986323 g / cm^3
# Si number density = 19.908544 Si / 1000 Ang^3
#
#
#
# Elastic Constant Matrix: (Units=GPa)
#
#
# Indices 1 2 3 4 5 6 
#
# 1 74.9330 18.5642 33.4262 0.0000 0.0000 0.0000
# 2 18.5642 68.3216 28.2105 0.0000 0.0000 0.0000
# 3 33.4262 28.2105 113.2039 0.0000 0.0000 0.0000
# 4 0.0000 0.0000 0.0000 14.4868 0.0000 0.0000
# 5 0.0000 0.0000 0.0000 0.0000 17.6213 0.0000
# 6 0.0000 0.0000 0.0000 0.0000 0.0000 32.9384
#
#
#
# Elastic Compliance Matrix: (Units=1/GPa)
#
#
# Indices 1 2 3 4 5 6 
#
# 1 0.015784 -0.002636 -0.004004 0.000000 0.000000 0.000000
# 2 -0.002636 0.016756 -0.003397 0.000000 0.000000 0.000000
# 3 -0.004004 -0.003397 0.010862 0.000000 0.000000 0.000000
# 4 0.000000 0.000000 0.000000 0.069028 0.000000 0.000000
# 5 0.000000 0.000000 0.000000 0.000000 0.056750 0.000000
# 6 0.000000 0.000000 0.000000 0.000000 0.000000 0.030360
#
#
# Mechanical properties :
#
#
# Convention : Reuss Voigt Hill
#
# Bulk Modulus (GPa) = 42.86560 46.31782 44.59171
# Shear Modulus (GPa) = 21.98870 24.75981 23.37425
#
# Velocity S-wave (km/s) = 3.32699 3.53041 3.43020
# Velocity P-wave (km/s) = 6.02797 6.31935 6.17538
#
# Compressibility (1/GPa) = 0.02332873
#
# Stress axis : x y z
#
# Youngs Moduli (GPa) = 63.35423 59.68169 92.06015
#
# Poissons Ratio (x) = 0.15730 0.36860
# Poissons Ratio (y) = 0.16698 0.31275
# Poissons Ratio (z) = 0.25366 0.20275
#
# Static dielectric constant tensor:
#      x y z
#    x 3.317960 0.000000 0.000000 
#    y 0.000000 3.596330 0.000000 
#    z 0.000000 0.000000 3.940220 
# 
# 
# High freq. dielectric constant tensor:
#      x y z
#    x 1.745930 0.000000 0.000000 
#    y 0.000000 1.785120 0.000000 
#    z 0.000000 0.000000 1.757880 
# 
# From -- ./inp_files/45584.got.cif
#   From: 2010.03.12/outbox.cif.g09.slc.cpg/sg65_23_cif.got.tgz:45584.got - 2010.04.10 20:52:16.
