data_PCOD8274600
_publ_section_title
;
Structure prediction by ZEFSAII (Michael W. Deem and Ramdas Pophale) SiO2 
 PCOD8274600
Probable space group: C M M M
;
_chemical_formula_sum "Si O2"
_cell_formula_units_Z 72
_cell_length_a 28.860428
_cell_length_b 14.741833
_cell_length_c 8.832117
_cell_angle_alpha 90.000000
_cell_angle_beta 90.000000
_cell_angle_gamma 90.000000
_cell_volume 3757.673725
_symmetry_space_group_name_H-M "C M M M"
_symmetry_group_IT_number 65
_symmetry_cell_setting 'orthorhombic'
loop_
_space_group_symop_operation_xyz
x,y,z
-x,-y,z
x,-y,-z
-x,y,-z
-x,-y,-z
x,y,-z
-x,y,z
x,-y,z
1/2+x,1/2+y,z
1/2-x,1/2-y,z
1/2+x,1/2-y,-z
1/2-x,1/2+y,-z
1/2-x,1/2-y,-z
1/2+x,1/2+y,-z
1/2-x,1/2+y,z
1/2+x,1/2-y,z
loop_
_atom_site_type_symbol
_atom_site_label
_atom_site_fract_x
_atom_site_fract_y
_atom_site_fract_z
Si Si1 0.136378 0.336758 0.825236
Si Si2 0.949355 0.393310 0.666042
Si Si3 0.629946 0.643097 0.679051
Si Si4 0.807772 0.500000 0.319668
Si Si5 0.704146 0.500000 0.322112
Si Si6 0.553462 0.500000 0.679589
O O1 0.083029 0.363341 0.802501
O O2 0.139903 0.235947 0.763427
O O3 0.168030 0.408215 0.736375
O O4 0.149994 0.340541 0.000000
O O5 0.931337 0.359135 0.500000
O O6 0.952690 0.500000 0.662064
O O7 0.000000 0.351145 0.696589
O O8 0.627772 0.658893 0.500000
O O9 0.675178 0.587247 0.728633
O O10 0.582675 0.589931 0.731153
O O11 0.809828 0.500000 0.500000
O O12 0.755653 0.500000 0.252151
O O13 0.709710 0.500000 0.500000
O O14 0.500000 0.500000 0.744114
O O15 0.551438 0.500000 0.500000
#
# Coordination Sequence:
#
# PCOD8274600 Si02
#       6
#    16  16  16   8   8   8
#     4  12  24  36  52  83 120 151 183 223 280 344
#     4   9  18  34  56  78 102 140 188 228 264 312
#     4   9  18  36  60  84 112 145 185 233 279 328
#     4  11  22  39  61  80 104 142 192 244 286 331
#     4   8  18  38  63  85 102 135 192 247 288 326
#     4   8  15  31  59  91 115 140 181 230 272 315
#
# _framework density 19.160789999999999
#
# number of rings (size 3 to 8) (size 9 to 14) (size 15 to 20)
#    0.000    2.333    1.111    4.333    0.000    2.222 
#    0.000   12.222    0.000    0.667    0.000    0.000 
#    0.000    0.000    0.000    0.000    0.000    0.000 
#
# Total GULP energy -446037.423175 kJ/mol
# GULP energy per Si atom -12389.928422 kJ/mol
# Density = 1.911718 g / cm^3
# Si number density = 19.160790 Si / 1000 Ang^3
#
#
#
# Elastic Constant Matrix: (Units=GPa)
#
#
# Indices 1 2 3 4 5 6 
#
# 1 154.2486 77.4936 41.3900 0.0000 0.0000 0.0000
# 2 77.4936 136.9066 44.9627 0.0000 0.0000 0.0000
# 3 41.3900 44.9627 75.6684 0.0000 0.0000 0.0000
# 4 0.0000 0.0000 0.0000 -18.2729 0.0000 0.0000
# 5 0.0000 0.0000 0.0000 0.0000 7.7965 0.0000
# 6 0.0000 0.0000 0.0000 0.0000 0.0000 -35.2996
#
#
#
# Elastic Compliance Matrix: (Units=1/GPa)
#
#
# Indices 1 2 3 4 5 6 
#
# 1 0.009415 -0.004520 -0.002464 0.000000 0.000000 0.000000
# 2 -0.004520 0.011245 -0.004210 0.000000 0.000000 0.000000
# 3 -0.002464 -0.004210 0.017065 0.000000 0.000000 0.000000
# 4 0.000000 0.000000 0.000000 -0.054726 0.000000 0.000000
# 5 0.000000 0.000000 0.000000 0.000000 0.128264 0.000000
# 6 0.000000 0.000000 0.000000 0.000000 0.000000 -0.028329
#
#
# Mechanical properties :
#
#
# Convention : Reuss Voigt Hill
#
# Bulk Modulus (GPa) = 65.19913 77.16845 71.18379
# Shear Modulus (GPa) = 45.27600 4.37662 24.82631
#
# Velocity S-wave (km/s) = 4.86629 1.51298 3.60346
# Velocity P-wave (km/s) = 8.10405 6.58891 7.38544
#
# Compressibility (1/GPa) = 0.01533763
#
# Stress axis : x y z
#
# Youngs Moduli (GPa) = 106.21288 88.92689 58.60009
#
# Poissons Ratio (x) = 0.40194 0.14440
# Poissons Ratio (y) = 0.48008 0.24668
# Poissons Ratio (z) = 0.26173 0.37435
#
# Static dielectric constant tensor:
#      x y z
#    x 4.375770 0.000000 0.000000 
#    y 0.000000 3.296250 0.000000 
#    z 0.000000 0.000000 3.247660 
# 
# 
# High freq. dielectric constant tensor:
#      x y z
#    x 1.754560 0.000000 0.000000 
#    y 0.000000 1.747660 0.000000 
#    z 0.000000 0.000000 1.710960 
# 
# From -- ./inp_files/18061.got.cif
#   From: 2010.03.12/outbox.cif.g09.slc.cpg/sg65_10_cif.got.tgz:18061.got - 2010.04.10 20:52:16.
