data_PCOD8274044
_publ_section_title
;
Structure prediction by ZEFSAII (Michael W. Deem and Ramdas Pophale) SiO2 
 PCOD8274044
Probable space group: C M M M
;
_chemical_formula_sum "Si O2"
_cell_formula_units_Z 56
_cell_length_a 25.261494
_cell_length_b 9.862065
_cell_length_c 12.358187
_cell_angle_alpha 90.000000
_cell_angle_beta 90.000000
_cell_angle_gamma 90.000000
_cell_volume 3078.801255
_symmetry_space_group_name_H-M "C M M M"
_symmetry_group_IT_number 65
_symmetry_cell_setting 'orthorhombic'
loop_
_space_group_symop_operation_xyz
x,y,z
-x,-y,z
x,-y,-z
-x,y,-z
-x,-y,-z
x,y,-z
-x,y,z
x,-y,z
1/2+x,1/2+y,z
1/2-x,1/2-y,z
1/2+x,1/2-y,-z
1/2-x,1/2+y,-z
1/2-x,1/2-y,-z
1/2+x,1/2+y,-z
1/2-x,1/2+y,z
1/2+x,1/2-y,z
loop_
_atom_site_type_symbol
_atom_site_label
_atom_site_fract_x
_atom_site_fract_y
_atom_site_fract_z
Si Si1 0.302195 0.160659 0.000000
Si Si2 0.299969 0.157487 0.626147
Si Si3 0.877065 0.263750 0.804186
Si Si4 0.562219 0.500000 0.129039
Si Si5 0.439084 0.000000 0.119027
O O1 0.250000 0.250000 0.000000
O O2 0.333360 0.203534 0.106628
O O3 0.288798 0.000000 0.000000
O O4 0.312856 0.167900 0.500000
O O5 0.250000 0.250000 0.657560
O O6 0.350155 0.221682 0.687215
O O7 0.289730 0.000000 0.660004
O O8 0.924339 0.370191 0.811895
O O9 0.906029 0.122652 0.818989
O O10 0.500000 0.500000 0.161550
O O11 0.567738 0.500000 0.000000
O O12 0.500000 0.000000 0.095835
O O13 0.410037 0.000000 0.000000
#
# Coordination Sequence:
#
# PCOD8274044 Si02
#       5
#     8  16  16   8   8
#     4  12  24  36  55  86 120 154 189 238 301 364
#     4  10  22  40  63  90 119 157 202 243 291 355
#     4  12  21  39  58  87 121 152 195 245 299 352
#     4  11  24  40  61  90 121 157 202 246 296 356
#     4  11  20  36  61  84 113 153 198 246 294 358
#
# _framework density 18.188896
#
# number of rings (size 3 to 8) (size 9 to 14) (size 15 to 20)
#    0.000    0.857    5.714    1.714    4.000    2.286 
#    0.000    0.000    0.000    5.143    0.000    0.000 
#    0.000    0.000    0.000    0.000    0.000    0.000 
#
# Total GULP energy -347160.704788 kJ/mol
# GULP energy per Si atom -12398.596600 kJ/mol
# Density = 1.814750 g / cm^3
# Si number density = 18.188896 Si / 1000 Ang^3
#
#
#
# Elastic Constant Matrix: (Units=GPa)
#
#
# Indices 1 2 3 4 5 6 
#
# 1 112.8777 82.8776 50.7440 0.0000 0.0000 0.0000
# 2 82.8776 189.2445 46.9867 0.0000 0.0000 0.0000
# 3 50.7440 46.9867 75.2568 0.0000 0.0000 0.0000
# 4 0.0000 0.0000 0.0000 28.3493 0.0000 0.0000
# 5 0.0000 0.0000 0.0000 0.0000 30.0015 0.0000
# 6 0.0000 0.0000 0.0000 0.0000 0.0000 43.1288
#
#
#
# Elastic Compliance Matrix: (Units=1/GPa)
#
#
# Indices 1 2 3 4 5 6 
#
# 1 0.016059 -0.005141 -0.007618 0.000000 0.000000 0.000000
# 2 -0.005141 0.007900 -0.001465 0.000000 0.000000 0.000000
# 3 -0.007618 -0.001465 0.019339 0.000000 0.000000 0.000000
# 4 0.000000 0.000000 0.000000 0.035274 0.000000 0.000000
# 5 0.000000 0.000000 0.000000 0.000000 0.033332 0.000000
# 6 0.000000 0.000000 0.000000 0.000000 0.000000 0.023186
#
#
# Mechanical properties :
#
#
# Convention : Reuss Voigt Hill
#
# Bulk Modulus (GPa) = 67.34843 82.06620 74.70732
# Shear Modulus (GPa) = 29.67553 33.41396 31.54475
#
# Velocity S-wave (km/s) = 4.04359 4.29074 4.16899
# Velocity P-wave (km/s) = 7.67518 8.35249 8.02099
#
# Compressibility (1/GPa) = 0.01484816
#
# Stress axis : x y z
#
# Youngs Moduli (GPa) = 62.27167 126.58888 51.70769
#
# Poissons Ratio (x) = 0.65083 0.39391
# Poissons Ratio (y) = 0.32016 0.07578
# Poissons Ratio (z) = 0.47439 0.18551
#
# Static dielectric constant tensor:
#      x y z
#    x 3.393690 0.000000 0.000000 
#    y 0.000000 3.349820 0.000000 
#    z 0.000000 0.000000 3.328170 
# 
# 
# High freq. dielectric constant tensor:
#      x y z
#    x 1.709030 0.000000 0.000000 
#    y 0.000000 1.724730 0.000000 
#    z 0.000000 0.000000 1.691810 
# 
# From -- ./inp_files/20513.got.cif
#   From: 2010.03.12/outbox.cif.g09.slc.cpg/sg65_11_cif.got.tgz:20513.got - 2010.04.10 20:52:16.
