data_PCOD8274775
_publ_section_title
;
Structure prediction by ZEFSAII (Michael W. Deem and Ramdas Pophale) SiO2 
 PCOD8274775
Probable space group: C M M M
;
_chemical_formula_sum "Si O2"
_cell_formula_units_Z 88
_cell_length_a 7.594849
_cell_length_b 27.609947
_cell_length_c 23.047029
_cell_angle_alpha 90.000000
_cell_angle_beta 90.000000
_cell_angle_gamma 90.000000
_cell_volume 4832.809372
_symmetry_space_group_name_H-M "C M M M"
_symmetry_group_IT_number 65
_symmetry_cell_setting 'orthorhombic'
loop_
_space_group_symop_operation_xyz
x,y,z
-x,-y,z
x,-y,-z
-x,y,-z
-x,-y,-z
x,y,-z
-x,y,z
x,-y,z
1/2+x,1/2+y,z
1/2-x,1/2-y,z
1/2+x,1/2-y,-z
1/2-x,1/2+y,-z
1/2-x,1/2-y,-z
1/2+x,1/2+y,-z
1/2-x,1/2+y,z
1/2+x,1/2-y,z
loop_
_atom_site_type_symbol
_atom_site_label
_atom_site_fract_x
_atom_site_fract_y
_atom_site_fract_z
Si Si1 0.793233 0.304724 0.436472
Si Si2 0.500000 0.556155 0.931576
Si Si3 0.794977 0.304402 0.791509
Si Si4 0.793654 0.602523 0.143003
Si Si5 0.789276 0.646522 0.677152
Si Si6 0.206703 0.552678 0.263070
O O1 0.711724 0.317881 0.500000
O O2 0.750000 0.250000 0.419985
O O3 0.710993 0.337838 0.385369
O O4 0.000000 0.312406 0.439155
O O5 0.500000 0.500000 0.912365
O O6 0.323956 0.582909 0.909372
O O7 0.500000 0.561227 0.000000
O O8 0.750000 0.250000 0.810646
O O9 0.732186 0.342507 0.840688
O O10 0.716005 0.317659 0.727955
O O11 0.000000 0.312150 0.785804
O O12 0.751377 0.568781 0.197898
O O13 0.000000 0.600109 0.125429
O O14 0.720089 0.592311 0.691294
O O15 0.000000 0.648458 0.675869
O O16 0.293960 0.500000 0.274782
O O17 0.000000 0.549076 0.271516
#
# Coordination Sequence:
#
# PCOD8274775 Si02
#       6
#    16   8  16  16  16  16
#     4   9  16  25  38  55  79 115 150 184 228 277
#     4  11  24  38  56  82 106 134 169 205 248 290
#     4   9  17  28  47  74  98 128 161 198 251 297
#     4   9  19  35  53  77 105 134 166 204 247 298
#     4   8  14  24  37  60  92 116 151 196 235 285
#     4   8  13  24  45  67  88 119 153 186 234 288
#
# _framework density 18.208870999999998
#
# number of rings (size 3 to 8) (size 9 to 14) (size 15 to 20)
#    0.000    3.182    0.000    3.273    1.273    1.455 
#    0.000    0.909    2.000    1.091    0.000    3.818 
#    0.000    0.000    0.000    4.545    0.000    4.727 
#
# Total GULP energy -545128.184811 kJ/mol
# GULP energy per Si atom -12389.276928 kJ/mol
# Density = 1.816743 g / cm^3
# Si number density = 18.208871 Si / 1000 Ang^3
#
#
#
# Elastic Constant Matrix: (Units=GPa)
#
#
# Indices 1 2 3 4 5 6 
#
# 1 41.9950 19.0757 30.0444 0.0000 0.0000 0.0000
# 2 19.0757 161.7982 72.9282 0.0000 0.0000 0.0000
# 3 30.0444 72.9282 111.7820 0.0000 0.0000 0.0000
# 4 0.0000 0.0000 0.0000 32.2604 0.0000 0.0000
# 5 0.0000 0.0000 0.0000 0.0000 7.0974 0.0000
# 6 0.0000 0.0000 0.0000 0.0000 0.0000 18.3179
#
#
#
# Elastic Compliance Matrix: (Units=1/GPa)
#
#
# Indices 1 2 3 4 5 6 
#
# 1 0.029483 0.000136 -0.008013 0.000000 0.000000 0.000000
# 2 0.000136 0.008756 -0.005749 0.000000 0.000000 0.000000
# 3 -0.008013 -0.005749 0.014850 0.000000 0.000000 0.000000
# 4 0.000000 0.000000 0.000000 0.030998 0.000000 0.000000
# 5 0.000000 0.000000 0.000000 0.000000 0.140896 0.000000
# 6 0.000000 0.000000 0.000000 0.000000 0.000000 0.054591
#
#
# Mechanical properties :
#
#
# Convention : Reuss Voigt Hill
#
# Bulk Modulus (GPa) = 38.70384 62.18575 50.44479
# Shear Modulus (GPa) = 15.85091 24.43695 20.14393
#
# Velocity S-wave (km/s) = 2.95363 3.66735 3.32967
# Velocity P-wave (km/s) = 5.73878 7.22206 6.52272
#
# Compressibility (1/GPa) = 0.02583723
#
# Stress axis : x y z
#
# Youngs Moduli (GPa) = 33.91734 114.21065 67.33860
#
# Poissons Ratio (x) = -0.01550 0.53958
# Poissons Ratio (y) = -0.00460 0.38712
# Poissons Ratio (z) = 0.27178 0.65658
#
# Static dielectric constant tensor:
#      x y z
#    x 3.098410 0.000000 0.000000 
#    y 0.000000 3.183140 0.000000 
#    z 0.000000 0.000000 3.387030 
# 
# 
# High freq. dielectric constant tensor:
#      x y z
#    x 1.688230 0.000000 0.000000 
#    y 0.000000 1.704940 0.000000 
#    z 0.000000 0.000000 1.680270 
# 
# From -- ./inp_files/60697.got.cif
#   From: 2010.03.12/outbox.cif.g09.slc.cpg/sg65_31_cif.got.tgz:60697.got - 2010.04.10 20:52:16.
