data_PCOD8274617
_publ_section_title
;
Structure prediction by ZEFSAII (Michael W. Deem and Ramdas Pophale) SiO2 
 PCOD8274617
Probable space group: C M M M
;
_chemical_formula_sum "Si O2"
_cell_formula_units_Z 72
_cell_length_a 9.188781
_cell_length_b 15.403966
_cell_length_c 24.937875
_cell_angle_alpha 90.000000
_cell_angle_beta 90.000000
_cell_angle_gamma 90.000000
_cell_volume 3529.798352
_symmetry_space_group_name_H-M "C M M M"
_symmetry_group_IT_number 65
_symmetry_cell_setting 'orthorhombic'
loop_
_space_group_symop_operation_xyz
x,y,z
-x,-y,z
x,-y,-z
-x,y,-z
-x,-y,-z
x,y,-z
-x,y,z
x,-y,z
1/2+x,1/2+y,z
1/2-x,1/2-y,z
1/2+x,1/2-y,-z
1/2-x,1/2+y,-z
1/2-x,1/2-y,-z
1/2+x,1/2+y,-z
1/2-x,1/2+y,z
1/2+x,1/2-y,z
loop_
_atom_site_type_symbol
_atom_site_label
_atom_site_fract_x
_atom_site_fract_y
_atom_site_fract_z
Si Si1 0.167141 0.500000 0.436557
Si Si2 0.172003 0.904053 0.726482
Si Si3 0.826257 0.163196 0.613621
Si Si4 0.338214 0.603821 0.157975
Si Si5 0.336720 0.896796 0.941649
O O1 0.166158 0.500000 0.500000
O O2 0.255200 0.416419 0.417227
O O3 0.000000 0.500000 0.414920
O O4 0.212754 0.842561 0.676920
O O5 0.230942 0.868033 0.784033
O O6 0.000000 0.912717 0.732554
O O7 0.236886 0.000000 0.714432
O O8 0.750000 0.250000 0.591369
O O9 0.000000 0.164666 0.603542
O O10 0.500000 0.640957 0.151947
O O11 0.338525 0.500000 0.156015
O O12 0.250184 0.644616 0.108147
O O13 0.500000 0.861804 0.937585
O O14 0.334093 0.000000 0.937031
O O15 0.270488 0.869452 0.000000
#
# Coordination Sequence:
#
# PCOD8274617 Si02
#       5
#     8  16  16  16  16
#     4  11  25  45  67  93 125 159 200 247 290 339
#     4   8  14  28  50  74 102 140 181 225 282 340
#     4  11  22  39  64  92 124 161 200 243 293 349
#     4   8  13  21  36  57  81 115 165 216 262 321
#     4   8  13  20  28  42  73 116 158 204 263 325
#
# _framework density 20.397766000000001
#
# number of rings (size 3 to 8) (size 9 to 14) (size 15 to 20)
#    0.000    3.000    1.111    3.000    0.000    1.778 
#    0.000    4.444    0.000    0.000    0.000    0.000 
#    0.000    0.889    0.000    2.000    0.000    5.333 
#
# Total GULP energy -446002.040733 kJ/mol
# GULP energy per Si atom -12388.945576 kJ/mol
# Density = 2.035134 g / cm^3
# Si number density = 20.397766 Si / 1000 Ang^3
#
#
#
# Elastic Constant Matrix: (Units=GPa)
#
#
# Indices 1 2 3 4 5 6 
#
# 1 98.0779 41.6623 53.6565 0.0000 0.0000 0.0000
# 2 41.6623 82.5955 31.9946 0.0000 0.0000 0.0000
# 3 53.6565 31.9946 116.6984 0.0000 0.0000 0.0000
# 4 0.0000 0.0000 0.0000 -5.9122 0.0000 0.0000
# 5 0.0000 0.0000 0.0000 0.0000 29.0447 0.0000
# 6 0.0000 0.0000 0.0000 0.0000 0.0000 18.5696
#
#
#
# Elastic Compliance Matrix: (Units=1/GPa)
#
#
# Indices 1 2 3 4 5 6 
#
# 1 0.015731 -0.005743 -0.005658 0.000000 0.000000 0.000000
# 2 -0.005743 0.015643 -0.001648 0.000000 0.000000 0.000000
# 3 -0.005658 -0.001648 0.011623 0.000000 0.000000 0.000000
# 4 0.000000 0.000000 0.000000 -0.169142 0.000000 0.000000
# 5 0.000000 0.000000 0.000000 0.000000 0.034430 0.000000
# 6 0.000000 0.000000 0.000000 0.000000 0.000000 0.053852
#
#
# Mechanical properties :
#
#
# Convention : Reuss Voigt Hill
#
# Bulk Modulus (GPa) = 59.18165 61.33318 60.25742
# Shear Modulus (GPa) = -815.31491 19.67765 -397.81863
#
# Velocity S-wave (km/s) = -20.01439 3.10933 -13.98048
# Velocity P-wave (km/s) = 22.47274 6.55930 15.19868
#
# Compressibility (1/GPa) = 0.01689713
#
# Stress axis : x y z
#
# Youngs Moduli (GPa) = 63.56779 63.92834 86.03927
#
# Poissons Ratio (x) = 0.36715 0.48685
# Poissons Ratio (y) = 0.36508 0.14179
# Poissons Ratio (z) = 0.35970 0.10535
#
# Static dielectric constant tensor:
#      x y z
#    x 3.617830 0.000000 0.000000 
#    y 0.000000 3.230430 0.000000 
#    z 0.000000 0.000000 4.199370 
# 
# 
# High freq. dielectric constant tensor:
#      x y z
#    x 1.770660 0.000000 0.000000 
#    y 0.000000 1.757590 0.000000 
#    z 0.000000 0.000000 1.814970 
# 
# From -- ./inp_files/72533.got.cif
#   From: 2010.03.12/outbox.cif.g09.slc.cpg/sg65_37_cif.got.tgz:72533.got - 2010.04.10 20:52:16.
