data_PCOD8274239
_publ_section_title
;
Structure prediction by ZEFSAII (Michael W. Deem and Ramdas Pophale) SiO2 
 PCOD8274239
Probable space group: C M M M
;
_chemical_formula_sum "Si O2"
_cell_formula_units_Z 88
_cell_length_a 8.721141
_cell_length_b 23.345054
_cell_length_c 22.499767
_cell_angle_alpha 90.000000
_cell_angle_beta 90.000000
_cell_angle_gamma 90.000000
_cell_volume 4580.851483
_symmetry_space_group_name_H-M "C M M M"
_symmetry_group_IT_number 65
_symmetry_cell_setting 'orthorhombic'
loop_
_space_group_symop_operation_xyz
x,y,z
-x,-y,z
x,-y,-z
-x,y,-z
-x,-y,-z
x,y,-z
-x,y,z
x,-y,z
1/2+x,1/2+y,z
1/2-x,1/2-y,z
1/2+x,1/2-y,-z
1/2-x,1/2+y,-z
1/2-x,1/2-y,-z
1/2+x,1/2+y,-z
1/2-x,1/2+y,z
1/2+x,1/2-y,z
loop_
_atom_site_type_symbol
_atom_site_label
_atom_site_fract_x
_atom_site_fract_y
_atom_site_fract_z
Si Si1 0.179663 0.934750 0.432355
Si Si2 0.318278 0.812225 0.000000
Si Si3 0.318883 0.885497 0.677762
Si Si4 0.817669 0.500000 0.127096
Si Si5 0.319807 0.311200 0.224295
Si Si6 0.318533 0.000000 0.261720
Si Si7 0.818949 0.119258 0.107764
O O1 0.218692 0.918126 0.500000
O O2 0.267802 0.888850 0.391017
O O3 0.000000 0.929941 0.420260
O O4 0.235401 0.000000 0.419746
O O5 0.250000 0.750000 0.000000
O O6 0.260454 0.842065 0.940841
O O7 0.500000 0.810177 0.000000
O O8 0.500000 0.879586 0.682569
O O9 0.245273 0.832065 0.712255
O O10 0.252685 0.943544 0.707062
O O11 0.761251 0.500000 0.194694
O O12 0.747143 0.443992 0.097019
O O13 0.000000 0.500000 0.119930
O O14 0.500000 0.304185 0.229628
O O15 0.250000 0.250000 0.207539
O O16 0.274187 0.356384 0.172813
O O17 0.500000 0.000000 0.265935
O O18 0.000000 0.119215 0.098041
#
# Coordination Sequence:
#
# PCOD8274239 Si02
#       7
#    16   8  16   8  16   8  16
#     4   9  18  32  50  77 115 155 193 235 284 340
#     4  12  26  45  68  91 118 158 202 246 296 348
#     4  11  20  34  56  84 117 153 192 238 289 343
#     4  11  21  38  62  90 126 161 194 236 294 355
#     4  11  24  40  60  86 115 151 194 241 291 342
#     4   9  18  31  51  83 119 154 187 228 285 344
#     4  11  24  42  64  92 123 156 196 243 292 349
#
# _framework density 19.210402999999999
#
# number of rings (size 3 to 8) (size 9 to 14) (size 15 to 20)
#    0.000    1.455    2.727    3.818    0.000    4.364 
#    0.000    2.727    0.000    0.545    0.000    0.000 
#    0.000    0.000    0.000    0.000    0.000    0.000 
#
# Total GULP energy -545735.088879 kJ/mol
# GULP energy per Si atom -12403.070202 kJ/mol
# Density = 1.916668 g / cm^3
# Si number density = 19.210403 Si / 1000 Ang^3
#
#
#
# Elastic Constant Matrix: (Units=GPa)
#
#
# Indices 1 2 3 4 5 6 
#
# 1 107.5324 54.5599 55.6606 0.0000 0.0000 0.0000
# 2 54.5599 126.4235 48.8327 0.0000 0.0000 0.0000
# 3 55.6606 48.8327 112.5266 0.0000 0.0000 0.0000
# 4 0.0000 0.0000 0.0000 18.0956 0.0000 0.0000
# 5 0.0000 0.0000 0.0000 0.0000 32.6858 0.0000
# 6 0.0000 0.0000 0.0000 0.0000 0.0000 34.3468
#
#
#
# Elastic Compliance Matrix: (Units=1/GPa)
#
#
# Indices 1 2 3 4 5 6 
#
# 1 0.014042 -0.004057 -0.005185 0.000000 0.000000 0.000000
# 2 -0.004057 0.010675 -0.002626 0.000000 0.000000 0.000000
# 3 -0.005185 -0.002626 0.012591 0.000000 0.000000 0.000000
# 4 0.000000 0.000000 0.000000 0.055262 0.000000 0.000000
# 5 0.000000 0.000000 0.000000 0.000000 0.030594 0.000000
# 6 0.000000 0.000000 0.000000 0.000000 0.000000 0.029115
#
#
# Mechanical properties :
#
#
# Convention : Reuss Voigt Hill
#
# Bulk Modulus (GPa) = 73.68101 73.84320 73.76211
# Shear Modulus (GPa) = 27.69477 29.52091 28.60784
#
# Velocity S-wave (km/s) = 3.80103 3.92435 3.86318
# Velocity P-wave (km/s) = 7.59617 7.68483 7.64063
#
# Compressibility (1/GPa) = 0.01357202
#
# Stress axis : x y z
#
# Youngs Moduli (GPa) = 71.21515 93.67595 79.42153
#
# Poissons Ratio (x) = 0.38006 0.41181
# Poissons Ratio (y) = 0.28893 0.20854
# Poissons Ratio (z) = 0.36926 0.24597
#
# Static dielectric constant tensor:
#      x y z
#    x 3.422280 0.000000 0.000000 
#    y 0.000000 3.469240 0.000000 
#    z 0.000000 0.000000 3.563620 
# 
# 
# High freq. dielectric constant tensor:
#      x y z
#    x 1.750370 0.000000 0.000000 
#    y 0.000000 1.736490 0.000000 
#    z 0.000000 0.000000 1.751970 
# 
# From -- ./inp_files/59942.got.cif
#   From: 2010.03.12/outbox.cif.g09.slc.cpg/sg65_30_cif.got.tgz:59942.got - 2010.04.10 20:52:16.
