data_PCOD8274973
_publ_section_title
;
Structure prediction by ZEFSAII (Michael W. Deem and Ramdas Pophale) SiO2 
 PCOD8274973
Probable space group: C M M M
;
_chemical_formula_sum "Si O2"
_cell_formula_units_Z 104
_cell_length_a 9.308190
_cell_length_b 29.668701
_cell_length_c 23.101020
_cell_angle_alpha 90.000000
_cell_angle_beta 90.000000
_cell_angle_gamma 90.000000
_cell_volume 6379.621713
_symmetry_space_group_name_H-M "C M M M"
_symmetry_group_IT_number 65
_symmetry_cell_setting 'orthorhombic'
loop_
_space_group_symop_operation_xyz
x,y,z
-x,-y,z
x,-y,-z
-x,y,-z
-x,-y,-z
x,y,-z
-x,y,z
x,-y,z
1/2+x,1/2+y,z
1/2-x,1/2-y,z
1/2+x,1/2-y,-z
1/2-x,1/2+y,-z
1/2-x,1/2-y,-z
1/2+x,1/2+y,-z
1/2-x,1/2+y,z
1/2+x,1/2-y,z
loop_
_atom_site_type_symbol
_atom_site_label
_atom_site_fract_x
_atom_site_fract_y
_atom_site_fract_z
Si Si1 0.329433 0.049772 0.341387
Si Si2 0.170745 0.449176 0.213014
Si Si3 0.671217 0.890856 0.107603
Si Si4 0.831779 0.620621 0.433706
Si Si5 0.328765 0.948867 0.000000
Si Si6 0.839515 0.791347 0.568523
Si Si7 0.166755 0.294244 0.932197
O O1 0.500000 0.048732 0.343359
O O2 0.278913 0.065769 0.277436
O O3 0.271509 0.081682 0.392088
O O4 0.268009 0.000000 0.353712
O O5 0.226533 0.500000 0.199158
O O6 0.231221 0.412708 0.167178
O O7 0.000000 0.449798 0.209464
O O8 0.500000 0.890569 0.105762
O O9 0.729745 0.922312 0.055967
O O10 0.724738 0.839107 0.100698
O O11 0.799941 0.606871 0.500000
O O12 0.744483 0.664023 0.414081
O O13 0.000000 0.630511 0.424768
O O14 0.500000 0.949864 0.000000
O O15 0.268590 0.000000 0.000000
O O16 0.848836 0.786099 0.500000
O O17 0.750000 0.750000 0.595451
O O18 0.000000 0.792078 0.595016
O O19 0.250000 0.250000 0.909458
O O20 0.000000 0.286173 0.919183
O O21 0.194556 0.302036 0.000000
#
# Coordination Sequence:
#
# PCOD8274973 Si02
#       7
#    16  16  16  16   8  16  16
#     4   8  14  24  37  55  79 106 138 173 204 241
#     4   8  13  21  34  53  78 107 135 162 198 246
#     4   9  14  21  33  52  78 107 133 160 199 240
#     4   9  16  25  39  60  84 109 138 173 212 249
#     4   9  14  18  27  48  79 107 127 153 194 241
#     4   9  16  26  41  61  85 110 135 165 203 249
#     4   9  16  26  39  56  80 106 133 164 195 231
#
# _framework density 16.301908000000001
#
# number of rings (size 3 to 8) (size 9 to 14) (size 15 to 20)
#    0.000    3.308    0.769    1.846    0.000    4.000 
#    0.000    1.538    0.000    1.385    0.000    5.385 
#    0.000    4.308    0.000    0.000    0.000    0.000 
#
# Total GULP energy -644402.600294 kJ/mol
# GULP energy per Si atom -12392.357698 kJ/mol
# Density = 1.626480 g / cm^3
# Si number density = 16.301908 Si / 1000 Ang^3
#
#
#
# Elastic Constant Matrix: (Units=GPa)
#
#
# Indices 1 2 3 4 5 6 
#
# 1 33.3310 36.9281 22.9372 0.0000 0.0000 0.0000
# 2 36.9281 164.4685 84.7876 0.0000 0.0000 0.0000
# 3 22.9372 84.7876 98.6581 0.0000 0.0000 0.0000
# 4 0.0000 0.0000 0.0000 18.6004 0.0000 0.0000
# 5 0.0000 0.0000 0.0000 0.0000 5.4108 0.0000
# 6 0.0000 0.0000 0.0000 0.0000 0.0000 17.8958
#
#
#
# Elastic Compliance Matrix: (Units=1/GPa)
#
#
# Indices 1 2 3 4 5 6 
#
# 1 0.040383 -0.007590 -0.002866 0.000000 0.000000 0.000000
# 2 -0.007590 0.012343 -0.008843 0.000000 0.000000 0.000000
# 3 -0.002866 -0.008843 0.018402 0.000000 0.000000 0.000000
# 4 0.000000 0.000000 0.000000 0.053762 0.000000 0.000000
# 5 0.000000 0.000000 0.000000 0.000000 0.184817 0.000000
# 6 0.000000 0.000000 0.000000 0.000000 0.000000 0.055879
#
#
# Mechanical properties :
#
#
# Convention : Reuss Voigt Hill
#
# Bulk Modulus (GPa) = 30.74034 65.08482 47.91258
# Shear Modulus (GPa) = 12.04736 18.50171 15.27453
#
# Velocity S-wave (km/s) = 2.72143 3.37254 3.06433
# Velocity P-wave (km/s) = 5.36402 7.42811 6.47879
#
# Compressibility (1/GPa) = 0.03253054
#
# Stress axis : x y z
#
# Youngs Moduli (GPa) = 24.76280 81.01574 54.34060
#
# Poissons Ratio (x) = 0.61488 0.15575
# Poissons Ratio (y) = 0.18794 0.48056
# Poissons Ratio (z) = 0.07097 0.71645
#
# Static dielectric constant tensor:
#      x y z
#    x 2.634730 0.000000 0.000000 
#    y 0.000000 3.351100 0.000000 
#    z 0.000000 0.000000 3.094560 
# 
# 
# High freq. dielectric constant tensor:
#      x y z
#    x 1.570310 0.000000 0.000000 
#    y 0.000000 1.636520 0.000000 
#    z 0.000000 0.000000 1.604270 
# 
# From -- ./inp_files/68565.got.cif
#   From: 2010.03.12/outbox.cif.g09.slc.cpg/sg65_35_cif.got.tgz:68565.got - 2010.04.10 20:52:16.
