data_PCOD8274531
_publ_section_title
;
Structure prediction by ZEFSAII (Michael W. Deem and Ramdas Pophale) SiO2 
 PCOD8274531
Probable space group: C M M M
;
_chemical_formula_sum "Si O2"
_cell_formula_units_Z 96
_cell_length_a 27.640011
_cell_length_b 20.260857
_cell_length_c 8.879484
_cell_angle_alpha 90.000000
_cell_angle_beta 90.000000
_cell_angle_gamma 90.000000
_cell_volume 4972.602591
_symmetry_space_group_name_H-M "C M M M"
_symmetry_group_IT_number 65
_symmetry_cell_setting 'orthorhombic'
loop_
_space_group_symop_operation_xyz
x,y,z
-x,-y,z
x,-y,-z
-x,y,-z
-x,-y,-z
x,y,-z
-x,y,z
x,-y,z
1/2+x,1/2+y,z
1/2-x,1/2-y,z
1/2+x,1/2-y,-z
1/2-x,1/2+y,-z
1/2-x,1/2-y,-z
1/2+x,1/2+y,-z
1/2-x,1/2+y,z
1/2+x,1/2-y,z
loop_
_atom_site_type_symbol
_atom_site_label
_atom_site_fract_x
_atom_site_fract_y
_atom_site_fract_z
Si Si1 0.781285 0.576280 0.173955
Si Si2 0.718986 0.314198 0.325228
Si Si3 0.444295 0.808399 0.676074
Si Si4 0.892668 0.575990 0.826218
Si Si5 0.116037 0.193175 0.821606
Si Si6 0.554126 0.427229 0.820936
O O1 0.769251 0.500000 0.206891
O O2 0.747727 0.620339 0.279264
O O3 0.836950 0.591532 0.213059
O O4 0.770708 0.592963 0.000000
O O5 0.705760 0.318576 0.500000
O O6 0.750000 0.250000 0.287226
O O7 0.670753 0.307482 0.230126
O O8 0.436502 0.798145 0.500000
O O9 0.500000 0.798302 0.722293
O O10 0.427694 0.881660 0.721007
O O11 0.411308 0.757313 0.764379
O O12 0.904442 0.500000 0.792923
O O13 0.902838 0.592991 0.000000
O O14 0.089997 0.127846 0.754980
O O15 0.114400 0.193976 0.000000
O O16 0.500000 0.412518 0.761336
O O17 0.570984 0.500000 0.765872
O O18 0.554211 0.425095 0.000000
#
# Coordination Sequence:
#
# PCOD8274531 Si02
#       6
#    16  16  16  16  16  16
#     4   9  19  37  60  85 112 143 183 230 278 330
#     4  11  24  39  55  79 112 148 186 228 278 339
#     4  11  24  39  55  79 114 152 187 228 279 335
#     4   9  19  37  61  87 113 143 183 232 281 329
#     4  11  22  36  58  84 109 142 186 234 280 327
#     4   8  15  30  53  81 110 137 169 213 264 317
#
# _framework density 19.305783999999999
#
# number of rings (size 3 to 8) (size 9 to 14) (size 15 to 20)
#    0.000    2.167    0.000    4.500    0.000    8.333 
#    0.000    5.000    0.000    1.500    0.000    5.833 
#    0.000    0.000    0.000    0.000    0.000    0.000 
#
# Total GULP energy -595298.878298 kJ/mol
# GULP energy per Si atom -12402.059965 kJ/mol
# Density = 1.926184 g / cm^3
# Si number density = 19.305784 Si / 1000 Ang^3
#
#
#
# Elastic Constant Matrix: (Units=GPa)
#
#
# Indices 1 2 3 4 5 6 
#
# 1 73.0360 41.9786 27.4817 0.0000 0.0000 0.0000
# 2 41.9786 105.6064 30.9595 0.0000 0.0000 0.0000
# 3 27.4817 30.9595 47.0549 0.0000 0.0000 0.0000
# 4 0.0000 0.0000 0.0000 21.3267 0.0000 0.0000
# 5 0.0000 0.0000 0.0000 0.0000 31.8320 0.0000
# 6 0.0000 0.0000 0.0000 0.0000 0.0000 39.3614
#
#
#
# Elastic Compliance Matrix: (Units=1/GPa)
#
#
# Indices 1 2 3 4 5 6 
#
# 1 0.019886 -0.005575 -0.007946 0.000000 0.000000 0.000000
# 2 -0.005575 0.013295 -0.005491 0.000000 0.000000 0.000000
# 3 -0.007946 -0.005491 0.029506 0.000000 0.000000 0.000000
# 4 0.000000 0.000000 0.000000 0.046890 0.000000 0.000000
# 5 0.000000 0.000000 0.000000 0.000000 0.031415 0.000000
# 6 0.000000 0.000000 0.000000 0.000000 0.000000 0.025406
#
#
# Mechanical properties :
#
#
# Convention : Reuss Voigt Hill
#
# Bulk Modulus (GPa) = 40.54880 47.39299 43.97089
# Shear Modulus (GPa) = 23.51359 26.85585 25.18472
#
# Velocity S-wave (km/s) = 3.49371 3.73376 3.61573
# Velocity P-wave (km/s) = 6.10931 6.57190 6.34482
#
# Compressibility (1/GPa) = 0.02466164
#
# Stress axis : x y z
#
# Youngs Moduli (GPa) = 50.28580 75.21538 33.89199
#
# Poissons Ratio (x) = 0.41935 0.26931
# Poissons Ratio (y) = 0.28036 0.18611
# Poissons Ratio (z) = 0.39957 0.41303
#
# Static dielectric constant tensor:
#      x y z
#    x 3.537480 0.000000 0.000000 
#    y 0.000000 4.050550 0.000000 
#    z 0.000000 0.000000 3.326250 
# 
# 
# High freq. dielectric constant tensor:
#      x y z
#    x 1.755090 0.000000 0.000000 
#    y 0.000000 1.767080 0.000000 
#    z 0.000000 0.000000 1.734470 
# 
# From -- ./inp_files/16318.got.cif
#   From: 2010.03.12/outbox.cif.g09.slc.cpg/sg65_9_cif.got.tgz:16318.got - 2010.04.10 20:52:16.
