data_PCOD8274681
_publ_section_title
;
Structure prediction by ZEFSAII (Michael W. Deem and Ramdas Pophale) SiO2 
 PCOD8274681
Probable space group: C M M M
;
_chemical_formula_sum "Si O2"
_cell_formula_units_Z 88
_cell_length_a 18.544010
_cell_length_b 9.115039
_cell_length_c 28.196706
_cell_angle_alpha 90.000000
_cell_angle_beta 90.000000
_cell_angle_gamma 90.000000
_cell_volume 4766.071574
_symmetry_space_group_name_H-M "C M M M"
_symmetry_group_IT_number 65
_symmetry_cell_setting 'orthorhombic'
loop_
_space_group_symop_operation_xyz
x,y,z
-x,-y,z
x,-y,-z
-x,y,-z
-x,-y,-z
x,y,-z
-x,y,z
x,-y,z
1/2+x,1/2+y,z
1/2-x,1/2-y,z
1/2+x,1/2-y,-z
1/2-x,1/2+y,-z
1/2-x,1/2-y,-z
1/2+x,1/2+y,-z
1/2-x,1/2+y,z
1/2+x,1/2-y,z
loop_
_atom_site_type_symbol
_atom_site_label
_atom_site_fract_x
_atom_site_fract_y
_atom_site_fract_z
Si Si1 0.585971 0.165884 0.500000
Si Si2 0.414101 0.165619 0.315608
Si Si3 0.917184 0.668065 0.054942
Si Si4 0.083002 0.829356 0.777428
Si Si5 0.086025 0.834135 0.407558
Si Si6 0.825998 0.827187 0.131251
O O1 0.500000 0.165732 0.500000
O O2 0.615527 0.248955 0.453588
O O3 0.615609 0.000000 0.500000
O O4 0.500000 0.168924 0.316597
O O5 0.386013 0.240644 0.267454
O O6 0.383575 0.253914 0.360758
O O7 0.384714 0.000000 0.317805
O O8 0.902530 0.500000 0.069700
O O9 0.866256 0.775359 0.084107
O O10 0.000000 0.709610 0.065042
O O11 0.898707 0.691354 0.000000
O O12 0.127212 0.780969 0.823358
O O13 0.000000 0.789225 0.787369
O O14 0.092064 0.000000 0.765775
O O15 0.000000 0.833403 0.407357
O O16 0.115461 0.000000 0.408545
O O17 0.750000 0.750000 0.135860
O O18 0.814620 0.000000 0.128055
#
# Coordination Sequence:
#
# PCOD8274681 Si02
#       6
#     8  16  16  16  16  16
#     4   9  15  21  29  43  67 101 142 187 232 281
#     4   9  16  25  39  60  83 109 146 192 239 286
#     4   9  19  37  60  84 109 137 170 209 252 298
#     4   9  18  33  51  70  93 123 161 204 249 297
#     4   9  15  22  32  47  71 105 144 185 231 284
#     4  11  23  37  54  77 106 139 173 210 253 301
#
# _framework density 18.463844000000002
#
# number of rings (size 3 to 8) (size 9 to 14) (size 15 to 20)
#    0.000    2.636    0.000    3.000    0.000    8.727 
#    0.000    2.727    0.000    0.000    0.000    0.000 
#    0.000    0.000    0.000    0.818    0.000   12.000 
#
# Total GULP energy -545646.234444 kJ/mol
# GULP energy per Si atom -12401.050783 kJ/mol
# Density = 1.842182 g / cm^3
# Si number density = 18.463844 Si / 1000 Ang^3
#
#
#
# Elastic Constant Matrix: (Units=GPa)
#
#
# Indices 1 2 3 4 5 6 
#
# 1 53.3706 40.0850 50.0564 0.0000 0.0000 0.0000
# 2 40.0850 134.1512 85.6163 0.0000 0.0000 0.0000
# 3 50.0564 85.6163 151.4463 0.0000 0.0000 0.0000
# 4 0.0000 0.0000 0.0000 38.5542 0.0000 0.0000
# 5 0.0000 0.0000 0.0000 0.0000 0.2594 0.0000
# 6 0.0000 0.0000 0.0000 0.0000 0.0000 -12.1031
#
#
#
# Elastic Compliance Matrix: (Units=1/GPa)
#
#
# Indices 1 2 3 4 5 6 
#
# 1 0.028405 -0.003904 -0.007181 0.000000 0.000000 0.000000
# 2 -0.003904 0.012198 -0.005606 0.000000 0.000000 0.000000
# 3 -0.007181 -0.005606 0.012145 0.000000 0.000000 0.000000
# 4 0.000000 0.000000 0.000000 0.025938 0.000000 0.000000
# 5 0.000000 0.000000 0.000000 0.000000 3.855173 0.000000
# 6 0.000000 0.000000 0.000000 0.000000 0.000000 -0.082623
#
#
# Mechanical properties :
#
#
# Convention : Reuss Voigt Hill
#
# Bulk Modulus (GPa) = 51.63595 76.72038 64.17817
# Shear Modulus (GPa) = 1.28499 16.22279 8.75389
#
# Velocity S-wave (km/s) = 0.83514 2.96738 2.17977
# Velocity P-wave (km/s) = 5.38114 7.30632 6.41634
#
# Compressibility (1/GPa) = 0.01936635
#
# Stress axis : x y z
#
# Youngs Moduli (GPa) = 35.20562 81.97762 82.33505
#
# Poissons Ratio (x) = 0.32007 0.59126
# Poissons Ratio (y) = 0.13746 0.46154
# Poissons Ratio (z) = 0.25282 0.45953
#
# Static dielectric constant tensor:
#      x y z
#    x 2.868460 0.000000 0.000000 
#    y 0.000000 3.509420 0.000000 
#    z 0.000000 0.000000 3.554570 
# 
# 
# High freq. dielectric constant tensor:
#      x y z
#    x 1.654470 0.000000 0.000000 
#    y 0.000000 1.727210 0.000000 
#    z 0.000000 0.000000 1.732830 
# 
# From -- ./inp_files/75382.got.cif
#   From: 2010.03.12/outbox.cif.g09.slc.cpg/sg65_38_cif.got.tgz:75382.got - 2010.04.10 20:52:16.
