data_PCOD8274510
_publ_section_title
;
Structure prediction by ZEFSAII (Michael W. Deem and Ramdas Pophale) SiO2 
 PCOD8274510
Probable space group: C M M M
;
_chemical_formula_sum "Si O2"
_cell_formula_units_Z 80
_cell_length_a 8.700684
_cell_length_b 18.059585
_cell_length_c 26.001825
_cell_angle_alpha 90.000000
_cell_angle_beta 90.000000
_cell_angle_gamma 90.000000
_cell_volume 4085.686062
_symmetry_space_group_name_H-M "C M M M"
_symmetry_group_IT_number 65
_symmetry_cell_setting 'orthorhombic'
loop_
_space_group_symop_operation_xyz
x,y,z
-x,-y,z
x,-y,-z
-x,y,-z
-x,-y,-z
x,y,-z
-x,y,z
x,-y,z
1/2+x,1/2+y,z
1/2-x,1/2-y,z
1/2+x,1/2-y,-z
1/2-x,1/2+y,-z
1/2-x,1/2-y,-z
1/2+x,1/2+y,-z
1/2-x,1/2+y,z
1/2+x,1/2-y,z
loop_
_atom_site_type_symbol
_atom_site_label
_atom_site_fract_x
_atom_site_fract_y
_atom_site_fract_z
Si Si1 0.332703 0.087429 0.000000
Si Si2 0.682601 0.417097 0.304326
Si Si3 0.317637 0.331080 0.404260
Si Si4 0.316503 0.084365 0.888932
Si Si5 0.318140 0.670055 0.795006
Si Si6 0.176628 0.587565 0.500000
O O1 0.250833 0.108470 0.945801
O O2 0.500000 0.125735 0.000000
O O3 0.356194 0.000000 0.000000
O O4 0.500000 0.419862 0.305412
O O5 0.750530 0.500000 0.309252
O O6 0.743425 0.367190 0.351312
O O7 0.741253 0.382549 0.250864
O O8 0.500000 0.326268 0.405545
O O9 0.250000 0.250000 0.410399
O O10 0.261020 0.382252 0.450080
O O11 0.500000 0.092123 0.887778
O O12 0.240059 0.139017 0.848844
O O13 0.267892 0.000000 0.876206
O O14 0.500000 0.675307 0.796003
O O15 0.250000 0.750000 0.784603
O O16 0.191613 0.500000 0.500000
O O17 0.000000 0.613670 0.500000
#
# Coordination Sequence:
#
# PCOD8274510 Si02
#       6
#     8  16  16  16  16   8
#     4   7  12  26  50  77 104 135 171 215 266 319
#     4   9  19  36  58  83 109 140 180 225 272 323
#     4  11  22  38  61  86 115 150 187 225 269 324
#     4   9  17  32  55  81 107 137 176 220 268 324
#     4  11  22  36  54  77 109 145 181 223 271 322
#     4  11  24  41  60  85 117 149 186 233 278 321
#
# _framework density 19.580553999999999
#
# number of rings (size 3 to 8) (size 9 to 14) (size 15 to 20)
#    0.000    2.200    0.000    4.800    0.000    2.800 
#    0.000    4.000    0.000    9.000    0.000    0.000 
#    0.000    0.000    0.000    0.000    0.000    0.000 
#
# Total GULP energy -495886.215365 kJ/mol
# GULP energy per Si atom -12397.155384 kJ/mol
# Density = 1.953599 g / cm^3
# Si number density = 19.580554 Si / 1000 Ang^3
#
#
#
# Elastic Constant Matrix: (Units=GPa)
#
#
# Indices 1 2 3 4 5 6 
#
# 1 55.0372 28.2548 32.8441 0.0000 0.0000 0.0000
# 2 28.2548 102.1215 46.7694 0.0000 0.0000 0.0000
# 3 32.8441 46.7694 157.0366 0.0000 0.0000 0.0000
# 4 0.0000 0.0000 0.0000 22.4718 0.0000 0.0000
# 5 0.0000 0.0000 0.0000 0.0000 24.6526 0.0000
# 6 0.0000 0.0000 0.0000 0.0000 0.0000 -5.4452
#
#
#
# Elastic Compliance Matrix: (Units=1/GPa)
#
#
# Indices 1 2 3 4 5 6 
#
# 1 0.022574 -0.004728 -0.003313 0.000000 0.000000 0.000000
# 2 -0.004728 0.012329 -0.002683 0.000000 0.000000 0.000000
# 3 -0.003313 -0.002683 0.007860 0.000000 0.000000 0.000000
# 4 0.000000 0.000000 0.000000 0.044500 0.000000 0.000000
# 5 0.000000 0.000000 0.000000 0.000000 0.040564 0.000000
# 6 0.000000 0.000000 0.000000 0.000000 0.000000 -0.183649
#
#
# Mechanical properties :
#
#
# Convention : Reuss Voigt Hill
#
# Bulk Modulus (GPa) = 46.91703 58.88133 52.89918
# Shear Modulus (GPa) = -183.36763 22.09098 -80.63833
#
# Velocity S-wave (km/s) = -9.68768 3.36253 -6.42435
# Velocity P-wave (km/s) = 10.05593 6.72399 5.28724
#
# Compressibility (1/GPa) = 0.02131422
#
# Stress axis : x y z
#
# Youngs Moduli (GPa) = 44.29849 81.10783 127.22723
#
# Poissons Ratio (x) = 0.38351 0.42152
# Poissons Ratio (y) = 0.20946 0.34135
# Poissons Ratio (z) = 0.14677 0.21761
#
# Static dielectric constant tensor:
#      x y z
#    x 3.318980 0.000000 0.000000 
#    y 0.000000 3.569380 0.000000 
#    z 0.000000 0.000000 4.037270 
# 
# 
# High freq. dielectric constant tensor:
#      x y z
#    x 1.735410 0.000000 0.000000 
#    y 0.000000 1.761150 0.000000 
#    z 0.000000 0.000000 1.787690 
# 
# From -- ./inp_files/73007.got.cif
#   From: 2010.03.12/outbox.cif.g09.slc.cpg/sg65_37_cif.got.tgz:73007.got - 2010.04.10 20:52:16.
