data_PCOD8274157
_publ_section_title
;
Structure prediction by ZEFSAII (Michael W. Deem and Ramdas Pophale) SiO2 
 PCOD8274157
Probable space group: C M M M
;
_chemical_formula_sum "Si O2"
_cell_formula_units_Z 72
_cell_length_a 13.995890
_cell_length_b 24.972271
_cell_length_c 11.959051
_cell_angle_alpha 90.000000
_cell_angle_beta 90.000000
_cell_angle_gamma 90.000000
_cell_volume 4179.797845
_symmetry_space_group_name_H-M "C M M M"
_symmetry_group_IT_number 65
_symmetry_cell_setting 'orthorhombic'
loop_
_space_group_symop_operation_xyz
x,y,z
-x,-y,z
x,-y,-z
-x,y,-z
-x,-y,-z
x,y,-z
-x,y,z
x,-y,z
1/2+x,1/2+y,z
1/2-x,1/2-y,z
1/2+x,1/2-y,-z
1/2-x,1/2+y,-z
1/2-x,1/2-y,-z
1/2+x,1/2+y,-z
1/2-x,1/2+y,z
1/2+x,1/2-y,z
loop_
_atom_site_type_symbol
_atom_site_label
_atom_site_fract_x
_atom_site_fract_y
_atom_site_fract_z
Si Si1 0.500000 0.149560 0.868525
Si Si2 0.334869 0.888938 0.723924
Si Si3 0.113801 0.785277 0.500000
Si Si4 0.500000 0.727492 0.132892
Si Si5 0.391181 0.168928 0.500000
Si Si6 0.384922 0.000000 0.633502
Si Si7 0.314806 0.303380 0.263075
O O1 0.591513 0.118790 0.823763
O O2 0.500000 0.210953 0.826994
O O3 0.500000 0.146275 0.000000
O O4 0.369445 0.862762 0.610259
O O5 0.239554 0.858810 0.766731
O O6 0.329305 0.951391 0.693909
O O7 0.161522 0.725891 0.500000
O O8 0.151618 0.814018 0.610438
O O9 0.000000 0.786274 0.500000
O O10 0.594760 0.699988 0.181309
O O11 0.500000 0.721563 0.000000
O O12 0.500000 0.184372 0.500000
O O13 0.500000 0.000000 0.656269
O O14 0.367157 0.000000 0.500000
O O15 0.250000 0.250000 0.247673
#
# Coordination Sequence:
#
# PCOD8274157 Si02
#       7
#     8  16   8   8   8   8  16
#     4  11  22  36  56  85 119 154 193 238 281 333
#     4  12  22  36  56  84 118 153 192 231 286 344
#     4  11  20  32  52  83 120 151 181 223 298 358
#     4  11  24  41  58  85 120 157 197 235 284 344
#     4  11  17  28  54  80 117 147 180 232 275 350
#     4  11  22  36  58  87 118 153 191 234 285 346
#     4  12  22  35  57  86 118 152 187 235 291 348
#
# _framework density 17.225714
#
# number of rings (size 3 to 8) (size 9 to 14) (size 15 to 20)
#    0.000    0.556    8.889    1.000    0.000    1.333 
#    0.000    1.111    0.000    0.667    0.000    2.333 
#    0.000    0.000    0.000    0.000    0.000    0.000 
#
# Total GULP energy -446230.446255 kJ/mol
# GULP energy per Si atom -12395.290174 kJ/mol
# Density = 1.718651 g / cm^3
# Si number density = 17.225714 Si / 1000 Ang^3
#
#
#
# Elastic Constant Matrix: (Units=GPa)
#
#
# Indices 1 2 3 4 5 6 
#
# 1 100.9100 58.0730 39.6359 0.0000 0.0000 0.0000
# 2 58.0730 126.8910 30.4969 0.0000 0.0000 0.0000
# 3 39.6359 30.4969 77.4331 0.0000 0.0000 0.0000
# 4 0.0000 0.0000 0.0000 19.1474 0.0000 0.0000
# 5 0.0000 0.0000 0.0000 0.0000 -13.8313 0.0000
# 6 0.0000 0.0000 0.0000 0.0000 0.0000 21.1411
#
#
#
# Elastic Compliance Matrix: (Units=1/GPa)
#
#
# Indices 1 2 3 4 5 6 
#
# 1 0.015402 -0.005693 -0.005642 0.000000 0.000000 0.000000
# 2 -0.005693 0.010809 -0.001343 0.000000 0.000000 0.000000
# 3 -0.005642 -0.001343 0.016331 0.000000 0.000000 0.000000
# 4 0.000000 0.000000 0.000000 0.052226 0.000000 0.000000
# 5 0.000000 0.000000 0.000000 0.000000 -0.072300 0.000000
# 6 0.000000 0.000000 0.000000 0.000000 0.000000 0.047301
#
#
# Mechanical properties :
#
#
# Convention : Reuss Voigt Hill
#
# Bulk Modulus (GPa) = 58.18428 62.40508 60.29468
# Shear Modulus (GPa) = 49.57635 17.09332 33.33484
#
# Velocity S-wave (km/s) = 5.37056 3.15352 4.40384
# Velocity P-wave (km/s) = 8.50342 7.04032 7.80622
#
# Compressibility (1/GPa) = 0.01718677
#
# Stress axis : x y z
#
# Youngs Moduli (GPa) = 64.92631 92.51529 61.23260
#
# Poissons Ratio (x) = 0.52669 0.34546
# Poissons Ratio (y) = 0.36963 0.08224
# Poissons Ratio (z) = 0.36630 0.12425
#
# Static dielectric constant tensor:
#      x y z
#    x 3.481280 0.000000 0.000000 
#    y 0.000000 3.245360 0.000000 
#    z 0.000000 0.000000 3.168380 
# 
# 
# High freq. dielectric constant tensor:
#      x y z
#    x 1.664130 0.000000 0.000000 
#    y 0.000000 1.639740 0.000000 
#    z 0.000000 0.000000 1.667160 
# 
# From -- ./inp_files/24562.got.cif
#   From: 2010.03.12/outbox.cif.g09.slc.cpg/sg65_13_cif.got.tgz:24562.got - 2010.04.10 20:52:16.
