data_PCOD8274813
_publ_section_title
;
Structure prediction by ZEFSAII (Michael W. Deem and Ramdas Pophale) SiO2 
 PCOD8274813
Probable space group: C M M M
;
_chemical_formula_sum "Si O2"
_cell_formula_units_Z 64
_cell_length_a 14.205815
_cell_length_b 17.192747
_cell_length_c 12.640979
_cell_angle_alpha 90.000000
_cell_angle_beta 90.000000
_cell_angle_gamma 90.000000
_cell_volume 3087.394576
_symmetry_space_group_name_H-M "C M M M"
_symmetry_group_IT_number 65
_symmetry_cell_setting 'orthorhombic'
loop_
_space_group_symop_operation_xyz
x,y,z
-x,-y,z
x,-y,-z
-x,y,-z
-x,-y,-z
x,y,-z
-x,y,z
x,-y,z
1/2+x,1/2+y,z
1/2-x,1/2-y,z
1/2+x,1/2-y,-z
1/2-x,1/2+y,-z
1/2-x,1/2-y,-z
1/2+x,1/2+y,-z
1/2-x,1/2+y,z
1/2+x,1/2-y,z
loop_
_atom_site_type_symbol
_atom_site_label
_atom_site_fract_x
_atom_site_fract_y
_atom_site_fract_z
Si Si1 0.111407 0.909240 0.500000
Si Si2 0.890213 0.089409 0.120901
Si Si3 0.103569 0.408099 0.773554
Si Si4 0.888991 0.584394 0.000000
Si Si5 0.220687 0.161568 0.693888
O O1 0.152762 0.867403 0.397759
O O2 0.000000 0.897642 0.500000
O O3 0.138372 0.000000 0.500000
O O4 0.831685 0.147084 0.195124
O O5 0.000000 0.109010 0.132333
O O6 0.871718 0.000000 0.155103
O O7 0.857153 0.102589 0.000000
O O8 0.098206 0.500000 0.785086
O O9 0.136088 0.372496 0.888999
O O10 0.180518 0.384784 0.687130
O O11 0.000000 0.376016 0.740619
O O12 0.837986 0.500000 0.000000
O O13 0.000000 0.571719 0.000000
O O14 0.250000 0.250000 0.679265
#
# Coordination Sequence:
#
# PCOD8274813 Si02
#       5
#     8  16  16   8  16
#     4  11  25  48  75  93 109 151 216 273 314 368
#     4   9  19  38  64  92 124 168 222 272 310 352
#     4   9  18  34  56  83 117 160 208 246 283 346
#     4   7  12  26  49  76 107 149 201 243 266 307
#     4  12  25  39  60  92 132 161 196 252 325 390
#
# _framework density 20.729452999999999
#
# number of rings (size 3 to 8) (size 9 to 14) (size 15 to 20)
#    0.000    2.250    0.000    5.625    1.750    4.500 
#    0.000    0.625    0.000    2.250    0.000    0.000 
#    0.000    0.000    0.000    0.000    0.000    0.000 
#
# Total GULP energy -396561.282745 kJ/mol
# GULP energy per Si atom -12392.540086 kJ/mol
# Density = 2.068227 g / cm^3
# Si number density = 20.729453 Si / 1000 Ang^3
#
#
#
# Elastic Constant Matrix: (Units=GPa)
#
#
# Indices 1 2 3 4 5 6 
#
# 1 114.3598 49.5676 64.7317 0.0000 0.0000 0.0000
# 2 49.5676 94.2846 51.2625 0.0000 0.0000 0.0000
# 3 64.7317 51.2625 101.5701 0.0000 0.0000 0.0000
# 4 0.0000 0.0000 0.0000 22.8432 0.0000 0.0000
# 5 0.0000 0.0000 0.0000 0.0000 44.0289 0.0000
# 6 0.0000 0.0000 0.0000 0.0000 0.0000 6.1923
#
#
#
# Elastic Compliance Matrix: (Units=1/GPa)
#
#
# Indices 1 2 3 4 5 6 
#
# 1 0.014507 -0.003583 -0.007437 0.000000 0.000000 0.000000
# 2 -0.003583 0.015502 -0.005540 0.000000 0.000000 0.000000
# 3 -0.007437 -0.005540 0.017381 0.000000 0.000000 0.000000
# 4 0.000000 0.000000 0.000000 0.043777 0.000000 0.000000
# 5 0.000000 0.000000 0.000000 0.000000 0.022712 0.000000
# 6 0.000000 0.000000 0.000000 0.000000 0.000000 0.161491
#
#
# Mechanical properties :
#
#
# Convention : Reuss Voigt Hill
#
# Bulk Modulus (GPa) = 70.08000 71.25979 70.66990
# Shear Modulus (GPa) = 15.96179 24.25639 20.10909
#
# Velocity S-wave (km/s) = 2.77791 3.42444 3.11798
# Velocity P-wave (km/s) = 6.64601 7.07718 6.86498
#
# Compressibility (1/GPa) = 0.01426941
#
# Stress axis : x y z
#
# Youngs Moduli (GPa) = 68.93202 64.50670 57.53279
#
# Poissons Ratio (x) = 0.23114 0.42788
# Poissons Ratio (y) = 0.24700 0.31876
# Poissons Ratio (z) = 0.51265 0.35739
#
# Static dielectric constant tensor:
#      x y z
#    x 4.195850 0.000000 0.000000 
#    y 0.000000 3.373110 0.000000 
#    z 0.000000 0.000000 3.881260 
# 
# 
# High freq. dielectric constant tensor:
#      x y z
#    x 1.833130 0.000000 0.000000 
#    y 0.000000 1.772370 0.000000 
#    z 0.000000 0.000000 1.799660 
# 
# From -- ./inp_files/23926.got.cif
#   From: 2010.03.12/outbox.cif.g09.slc.cpg/sg65_12_cif.got.tgz:23926.got - 2010.04.10 20:52:16.
