data_PCOD8274547
_publ_section_title
;
Structure prediction by ZEFSAII (Michael W. Deem and Ramdas Pophale) SiO2 
 PCOD8274547
Probable space group: C M M M
;
_chemical_formula_sum "Si O2"
_cell_formula_units_Z 64
_cell_length_a 7.972796
_cell_length_b 18.451471
_cell_length_c 22.448420
_cell_angle_alpha 90.000000
_cell_angle_beta 90.000000
_cell_angle_gamma 90.000000
_cell_volume 3302.382895
_symmetry_space_group_name_H-M "C M M M"
_symmetry_group_IT_number 65
_symmetry_cell_setting 'orthorhombic'
loop_
_space_group_symop_operation_xyz
x,y,z
-x,-y,z
x,-y,-z
-x,y,-z
-x,-y,-z
x,y,-z
-x,y,z
x,-y,z
1/2+x,1/2+y,z
1/2-x,1/2-y,z
1/2+x,1/2-y,-z
1/2-x,1/2+y,-z
1/2-x,1/2-y,-z
1/2+x,1/2+y,-z
1/2-x,1/2+y,z
1/2+x,1/2-y,z
loop_
_atom_site_type_symbol
_atom_site_label
_atom_site_fract_x
_atom_site_fract_y
_atom_site_fract_z
Si Si1 0.687709 0.913639 0.143634
Si Si2 0.806271 0.668930 0.614887
Si Si3 0.197333 0.083071 0.500000
Si Si4 0.500000 0.413551 0.932581
Si Si5 0.801694 0.580452 0.275983
O O1 0.500000 0.884808 0.126201
O O2 0.830382 0.883621 0.098899
O O3 0.739162 0.888236 0.210239
O O4 0.682902 0.000000 0.142537
O O5 0.750000 0.750000 0.602836
O O6 0.769749 0.620536 0.558034
O O7 0.721134 0.633289 0.673818
O O8 0.000000 0.670812 0.627560
O O9 0.000000 0.091331 0.500000
O O10 0.255883 0.000000 0.500000
O O11 0.500000 0.500000 0.930321
O O12 0.500000 0.384713 0.000000
O O13 0.723130 0.500000 0.284109
O O14 0.000000 0.574307 0.283503
#
# Coordination Sequence:
#
# PCOD8274547 Si02
#       5
#    16  16   8   8  16
#     4   8  14  26  42  62  91 128 169 211 256 308
#     4  11  22  37  56  78 107 140 172 216 267 319
#     4  11  24  41  58  79 105 133 176 221 260 315
#     4   9  16  24  36  62  98 133 169 205 251 313
#     4   8  15  30  52  73  94 129 175 215 256 313
#
# _framework density 19.379946
#
# number of rings (size 3 to 8) (size 9 to 14) (size 15 to 20)
#    0.000    2.750    0.000    3.750    0.000    2.500 
#    4.500    2.500    0.000    0.000    0.000    0.000 
#    0.000    1.000    0.500    0.000    0.000    0.000 
#
# Total GULP energy -396588.605725 kJ/mol
# GULP energy per Si atom -12393.393929 kJ/mol
# Density = 1.933584 g / cm^3
# Si number density = 19.379946 Si / 1000 Ang^3
#
#
#
# Elastic Constant Matrix: (Units=GPa)
#
#
# Indices 1 2 3 4 5 6 
#
# 1 81.4480 16.0868 53.5455 0.0000 0.0000 0.0000
# 2 16.0868 55.8108 21.5397 0.0000 0.0000 0.0000
# 3 53.5455 21.5397 144.2547 0.0000 0.0000 0.0000
# 4 0.0000 0.0000 0.0000 -2.9047 0.0000 0.0000
# 5 0.0000 0.0000 0.0000 0.0000 94.6533 0.0000
# 6 0.0000 0.0000 0.0000 0.0000 0.0000 7.8882
#
#
#
# Elastic Compliance Matrix: (Units=1/GPa)
#
#
# Indices 1 2 3 4 5 6 
#
# 1 0.016576 -0.002550 -0.005772 0.000000 0.000000 0.000000
# 2 -0.002550 0.019406 -0.001951 0.000000 0.000000 0.000000
# 3 -0.005772 -0.001951 0.009366 0.000000 0.000000 0.000000
# 4 0.000000 0.000000 0.000000 -0.344269 0.000000 0.000000
# 5 0.000000 0.000000 0.000000 0.000000 0.010565 0.000000
# 6 0.000000 0.000000 0.000000 0.000000 0.000000 0.126772
#
#
# Mechanical properties :
#
#
# Convention : Reuss Voigt Hill
#
# Bulk Modulus (GPa) = 40.32040 51.53973 45.93007
# Shear Modulus (GPa) = -37.65896 32.61678 -2.52109
#
# Velocity S-wave (km/s) = -4.41295 4.10691 -1.14180
# Velocity P-wave (km/s) = 2.26166 7.01007 4.69180
#
# Compressibility (1/GPa) = 0.02480134
#
# Stress axis : x y z
#
# Youngs Moduli (GPa) = 60.32772 51.53118 106.76895
#
# Poissons Ratio (x) = 0.13141 0.61628
# Poissons Ratio (y) = 0.15385 0.20831
# Poissons Ratio (z) = 0.34822 0.10054
#
# Static dielectric constant tensor:
#      x y z
#    x 3.610520 0.000000 0.000000 
#    y 0.000000 2.747600 0.000000 
#    z 0.000000 0.000000 3.785570 
# 
# 
# High freq. dielectric constant tensor:
#      x y z
#    x 1.748500 0.000000 0.000000 
#    y 0.000000 1.705560 0.000000 
#    z 0.000000 0.000000 1.763570 
# 
# From -- ./inp_files/58822.got.cif
#   From: 2010.03.12/outbox.cif.g09.slc.cpg/sg65_30_cif.got.tgz:58822.got - 2010.04.10 20:52:16.
