data_PCOD8274073
_publ_section_title
;
Structure prediction by ZEFSAII (Michael W. Deem and Ramdas Pophale) SiO2 
 PCOD8274073
Probable space group: C M M M
;
_chemical_formula_sum "Si O2"
_cell_formula_units_Z 56
_cell_length_a 10.021401
_cell_length_b 26.519283
_cell_length_c 11.106875
_cell_angle_alpha 90.000000
_cell_angle_beta 90.000000
_cell_angle_gamma 90.000000
_cell_volume 2951.767200
_symmetry_space_group_name_H-M "C M M M"
_symmetry_group_IT_number 65
_symmetry_cell_setting 'orthorhombic'
loop_
_space_group_symop_operation_xyz
x,y,z
-x,-y,z
x,-y,-z
-x,y,-z
-x,-y,-z
x,y,-z
-x,y,z
x,-y,z
1/2+x,1/2+y,z
1/2-x,1/2-y,z
1/2+x,1/2-y,-z
1/2-x,1/2+y,-z
1/2-x,1/2-y,-z
1/2+x,1/2+y,-z
1/2-x,1/2+y,z
1/2+x,1/2-y,z
loop_
_atom_site_type_symbol
_atom_site_label
_atom_site_fract_x
_atom_site_fract_y
_atom_site_fract_z
Si Si1 0.500000 0.442923 0.130045
Si Si2 0.247373 0.102046 0.748699
Si Si3 0.155998 0.797085 0.861183
Si Si4 0.659007 0.940716 0.500000
Si Si5 0.500000 0.055716 0.860887
O O1 0.500000 0.500000 0.094352
O O2 0.627626 0.432538 0.209423
O O3 0.500000 0.412966 0.000000
O O4 0.205380 0.159820 0.769775
O O5 0.278607 0.089291 0.611263
O O6 0.373794 0.088894 0.828733
O O7 0.250000 0.750000 0.831717
O O8 0.000000 0.784306 0.836353
O O9 0.175305 0.814048 0.000000
O O10 0.500000 0.934816 0.500000
O O11 0.698798 0.000000 0.500000
O O12 0.500000 0.000000 0.795268
O O13 0.500000 0.045027 0.000000
#
# Coordination Sequence:
#
# PCOD8274073 Si02
#       5
#     8  16  16   8   8
#     4  11  22  37  60  92 129 163 201 262 334 396
#     4  12  23  40  63  90 130 172 213 265 320 377
#     4  10  22  41  66  97 130 164 208 265 329 392
#     4  11  24  43  64  89 128 179 230 269 302 365
#     4  11  22  35  58  92 125 165 215 262 320 392
#
# _framework density 18.971685999999998
#
# number of rings (size 3 to 8) (size 9 to 14) (size 15 to 20)
#    0.000    1.000    2.857    5.143    2.000    2.857 
#    0.000    2.143    0.000    0.000    0.000    0.000 
#    0.000    0.000    0.000    0.000    0.000    0.000 
#
# Total GULP energy -347136.258754 kJ/mol
# GULP energy per Si atom -12397.723527 kJ/mol
# Density = 1.892851 g / cm^3
# Si number density = 18.971686 Si / 1000 Ang^3
#
#
#
# Elastic Constant Matrix: (Units=GPa)
#
#
# Indices 1 2 3 4 5 6 
#
# 1 167.0373 62.4462 57.6184 0.0000 0.0000 0.0000
# 2 62.4462 132.4426 57.0209 0.0000 0.0000 0.0000
# 3 57.6184 57.0209 131.9336 0.0000 0.0000 0.0000
# 4 0.0000 0.0000 0.0000 32.5939 0.0000 0.0000
# 5 0.0000 0.0000 0.0000 0.0000 40.5984 0.0000
# 6 0.0000 0.0000 0.0000 0.0000 0.0000 37.6894
#
#
#
# Elastic Compliance Matrix: (Units=1/GPa)
#
#
# Indices 1 2 3 4 5 6 
#
# 1 0.007764 -0.002704 -0.002222 0.000000 0.000000 0.000000
# 2 -0.002704 0.010218 -0.003235 0.000000 0.000000 0.000000
# 3 -0.002222 -0.003235 0.009948 0.000000 0.000000 0.000000
# 4 0.000000 0.000000 0.000000 0.030681 0.000000 0.000000
# 5 0.000000 0.000000 0.000000 0.000000 0.024632 0.000000
# 6 0.000000 0.000000 0.000000 0.000000 0.000000 0.026533
#
#
# Mechanical properties :
#
#
# Convention : Reuss Voigt Hill
#
# Bulk Modulus (GPa) = 86.14970 87.28718 86.71844
# Shear Modulus (GPa) = 38.47108 39.13153 38.80131
#
# Velocity S-wave (km/s) = 4.50801 4.54654 4.52732
# Velocity P-wave (km/s) = 8.52082 8.58315 8.55204
#
# Compressibility (1/GPa) = 0.01160770
#
# Stress axis : x y z
#
# Youngs Moduli (GPa) = 128.79827 97.86332 100.51958
#
# Poissons Ratio (x) = 0.26463 0.22336
# Poissons Ratio (y) = 0.34828 0.32522
# Poissons Ratio (z) = 0.28620 0.31662
#
# Static dielectric constant tensor:
#      x y z
#    x 3.456870 0.000000 0.000000 
#    y 0.000000 3.466720 0.000000 
#    z 0.000000 0.000000 3.404890 
# 
# 
# High freq. dielectric constant tensor:
#      x y z
#    x 1.757990 0.000000 0.000000 
#    y 0.000000 1.736190 0.000000 
#    z 0.000000 0.000000 1.728000 
# 
# From -- ./inp_files/20506.got.cif
#   From: 2010.03.12/outbox.cif.g09.slc.cpg/sg65_11_cif.got.tgz:20506.got - 2010.04.10 20:52:16.
