data_PCOD8274658
_publ_section_title
;
Structure prediction by ZEFSAII (Michael W. Deem and Ramdas Pophale) SiO2 
 PCOD8274658
Probable space group: C M M M
;
_chemical_formula_sum "Si O2"
_cell_formula_units_Z 64
_cell_length_a 18.506293
_cell_length_b 7.914949
_cell_length_c 22.595657
_cell_angle_alpha 90.000000
_cell_angle_beta 90.000000
_cell_angle_gamma 90.000000
_cell_volume 3309.729708
_symmetry_space_group_name_H-M "C M M M"
_symmetry_group_IT_number 65
_symmetry_cell_setting 'orthorhombic'
loop_
_space_group_symop_operation_xyz
x,y,z
-x,-y,z
x,-y,-z
-x,y,-z
-x,-y,-z
x,y,-z
-x,y,z
x,-y,z
1/2+x,1/2+y,z
1/2-x,1/2-y,z
1/2+x,1/2-y,-z
1/2-x,1/2+y,-z
1/2-x,1/2-y,-z
1/2+x,1/2+y,-z
1/2-x,1/2+y,z
1/2+x,1/2-y,z
loop_
_atom_site_type_symbol
_atom_site_label
_atom_site_fract_x
_atom_site_fract_y
_atom_site_fract_z
Si Si1 0.914230 0.684604 0.000000
Si Si2 0.168635 0.195986 0.764778
Si Si3 0.920553 0.303207 0.874324
Si Si4 0.085127 0.806535 0.352506
Si Si5 0.085720 0.500000 0.433884
O O1 0.893186 0.778042 0.062465
O O2 0.876995 0.500000 0.000000
O O3 0.000000 0.667905 0.000000
O O4 0.250000 0.250000 0.753335
O O5 0.137812 0.280614 0.823373
O O6 0.122324 0.251145 0.708128
O O7 0.162761 0.000000 0.775274
O O8 0.929723 0.500000 0.886726
O O9 0.000000 0.228901 0.856092
O O10 0.112026 0.672574 0.401823
O O11 0.000000 0.792344 0.342672
O O12 0.106353 0.000000 0.370649
O O13 0.118552 0.500000 0.500000
O O14 0.000000 0.500000 0.436475
#
# Coordination Sequence:
#
# PCOD8274658 Si02
#       5
#     8  16  16  16   8
#     4   7  12  26  48  75 102 131 169 213 262 317
#     4  11  23  36  51  75 104 140 179 223 269 318
#     4   9  17  31  54  79 104 135 173 217 266 321
#     4   9  19  35  55  81 111 142 177 221 270 319
#     4   9  18  32  56  88 114 139 174 216 263 319
#
# _framework density 19.336926999999999
#
# number of rings (size 3 to 8) (size 9 to 14) (size 15 to 20)
#    0.000    2.750    0.000    3.000    3.500    2.000 
#    0.000    3.750    0.000    3.000    0.000    0.000 
#    0.000    0.000    0.000    0.000    0.000    0.000 
#
# Total GULP energy -396442.523201 kJ/mol
# GULP energy per Si atom -12388.828850 kJ/mol
# Density = 1.929292 g / cm^3
# Si number density = 19.336927 Si / 1000 Ang^3
#
#
#
# Elastic Constant Matrix: (Units=GPa)
#
#
# Indices 1 2 3 4 5 6 
#
# 1 50.4938 21.9681 42.8331 0.0000 0.0000 0.0000
# 2 21.9681 68.7757 67.0646 0.0000 0.0000 0.0000
# 3 42.8331 67.0646 180.9097 0.0000 0.0000 0.0000
# 4 0.0000 0.0000 0.0000 -1.8675 0.0000 0.0000
# 5 0.0000 0.0000 0.0000 0.0000 4.3133 0.0000
# 6 0.0000 0.0000 0.0000 0.0000 0.0000 12.1270
#
#
#
# Elastic Compliance Matrix: (Units=1/GPa)
#
#
# Indices 1 2 3 4 5 6 
#
# 1 0.025311 -0.003510 -0.004692 0.000000 0.000000 0.000000
# 2 -0.003510 0.023258 -0.007791 0.000000 0.000000 0.000000
# 3 -0.004692 -0.007791 0.009527 0.000000 0.000000 0.000000
# 4 0.000000 0.000000 0.000000 -0.535488 0.000000 0.000000
# 5 0.000000 0.000000 0.000000 0.000000 0.231842 0.000000
# 6 0.000000 0.000000 0.000000 0.000000 0.000000 0.082460
#
#
# Mechanical properties :
#
#
# Convention : Reuss Voigt Hill
#
# Bulk Modulus (GPa) = 38.29791 62.65676 50.47734
# Shear Modulus (GPa) = -40.84966 14.13546 -13.35710
#
# Velocity S-wave (km/s) = -4.60120 2.70665 -2.63108
# Velocity P-wave (km/s) = 2.89474 6.49930 4.11469
#
# Compressibility (1/GPa) = 0.02611109
#
# Stress axis : x y z
#
# Youngs Moduli (GPa) = 39.50797 42.99538 104.96873
#
# Poissons Ratio (x) = 0.15091 0.49248
# Poissons Ratio (y) = 0.13867 0.81781
# Poissons Ratio (z) = 0.18536 0.33498
#
# Static dielectric constant tensor:
#      x y z
#    x 3.139440 0.000000 0.000000 
#    y 0.000000 3.518940 0.000000 
#    z 0.000000 0.000000 3.916840 
# 
# 
# High freq. dielectric constant tensor:
#      x y z
#    x 1.712410 0.000000 0.000000 
#    y 0.000000 1.743110 0.000000 
#    z 0.000000 0.000000 1.765140 
# 
# From -- ./inp_files/63241.got.cif
#   From: 2010.03.12/outbox.cif.g09.slc.cpg/sg65_32_cif.got.tgz:63241.got - 2010.04.10 20:52:16.
