data_PCOD8274985
_publ_section_title
;
Structure prediction by ZEFSAII (Michael W. Deem and Ramdas Pophale) SiO2 
 PCOD8274985
Probable space group: C M M M
;
_chemical_formula_sum "Si O2"
_cell_formula_units_Z 96
_cell_length_a 14.680572
_cell_length_b 14.680813
_cell_length_c 21.122010
_cell_angle_alpha 90.000000
_cell_angle_beta 90.000000
_cell_angle_gamma 90.000000
_cell_volume 4552.273306
_symmetry_space_group_name_H-M "C M M M"
_symmetry_group_IT_number 65
_symmetry_cell_setting 'orthorhombic'
loop_
_space_group_symop_operation_xyz
x,y,z
-x,-y,z
x,-y,-z
-x,y,-z
-x,-y,-z
x,y,-z
-x,y,z
x,-y,z
1/2+x,1/2+y,z
1/2-x,1/2-y,z
1/2+x,1/2-y,-z
1/2-x,1/2+y,-z
1/2-x,1/2-y,-z
1/2+x,1/2+y,-z
1/2-x,1/2+y,z
1/2+x,1/2-y,z
loop_
_atom_site_type_symbol
_atom_site_label
_atom_site_fract_x
_atom_site_fract_y
_atom_site_fract_z
Si Si1 0.894310 0.606506 0.689259
Si Si2 0.602378 0.108355 0.069865
Si Si3 0.099001 0.892337 0.767025
Si Si4 0.393556 0.400549 0.377139
Si Si5 0.391268 0.783391 0.430512
Si Si6 0.212759 0.608958 0.811975
O O1 0.877940 0.500000 0.681381
O O2 0.853824 0.651780 0.625274
O O3 0.842078 0.645361 0.750716
O O4 0.000000 0.630401 0.699035
O O5 0.500000 0.143736 0.082474
O O6 0.668326 0.148786 0.123936
O O7 0.603004 0.000000 0.073047
O O8 0.635466 0.140498 0.000000
O O9 0.122942 0.868703 0.694781
O O10 0.182508 0.854938 0.809791
O O11 0.000000 0.850140 0.786681
O O12 0.092465 0.000000 0.774260
O O13 0.500000 0.411055 0.389917
O O14 0.347551 0.500000 0.390723
O O15 0.353402 0.320026 0.421017
O O16 0.358872 0.817395 0.500000
O O17 0.500000 0.783254 0.426755
O O18 0.209363 0.500000 0.811543
#
# Coordination Sequence:
#
# PCOD8274985 Si02
#       6
#    16  16  16  16  16  16
#     4   9  17  28  42  62  90 125 164 201 234 276
#     4   8  13  21  35  59  92 127 161 196 233 275
#     4   8  14  25  42  63  84 108 143 191 244 291
#     4   8  14  26  44  64  86 113 148 195 249 297
#     4   9  17  28  43  65  92 121 154 195 244 295
#     4   9  15  24  41  62  86 120 159 196 235 281
#
# _framework density 21.088365
#
# number of rings (size 3 to 8) (size 9 to 14) (size 15 to 20)
#    0.000    3.500    0.000    2.000    0.000    2.667 
#    0.000    4.167    0.000    2.500    0.000    8.167 
#    0.000    2.667    0.000    9.333    0.000   36.167 
#
# Total GULP energy -594701.181049 kJ/mol
# GULP energy per Si atom -12389.607939 kJ/mol
# Density = 2.104037 g / cm^3
# Si number density = 21.088365 Si / 1000 Ang^3
#
#
#
# Elastic Constant Matrix: (Units=GPa)
#
#
# Indices 1 2 3 4 5 6 
#
# 1 88.4980 16.1423 80.8317 0.0000 0.0000 0.0000
# 2 16.1423 27.1964 36.7523 0.0000 0.0000 0.0000
# 3 80.8317 36.7523 185.6223 0.0000 0.0000 0.0000
# 4 0.0000 0.0000 0.0000 13.4257 0.0000 0.0000
# 5 0.0000 0.0000 0.0000 0.0000 18.5314 0.0000
# 6 0.0000 0.0000 0.0000 0.0000 0.0000 7.3705
#
#
#
# Elastic Compliance Matrix: (Units=1/GPa)
#
#
# Indices 1 2 3 4 5 6 
#
# 1 0.018762 -0.000130 -0.008145 0.000000 0.000000 0.000000
# 2 -0.000130 0.050203 -0.009883 0.000000 0.000000 0.000000
# 3 -0.008145 -0.009883 0.010891 0.000000 0.000000 0.000000
# 4 0.000000 0.000000 0.000000 0.074484 0.000000 0.000000
# 5 0.000000 0.000000 0.000000 0.000000 0.053962 0.000000
# 6 0.000000 0.000000 0.000000 0.000000 0.000000 0.135676
#
#
# Mechanical properties :
#
#
# Convention : Reuss Voigt Hill
#
# Bulk Modulus (GPa) = 22.96733 63.19661 43.08197
# Shear Modulus (GPa) = 12.66440 19.03821 15.85130
#
# Velocity S-wave (km/s) = 2.45325 3.00789 2.74462
# Velocity P-wave (km/s) = 4.35192 6.48813 5.52427
#
# Compressibility (1/GPa) = 0.04354011
#
# Stress axis : x y z
#
# Youngs Moduli (GPa) = 53.29781 19.91928 91.82049
#
# Poissons Ratio (x) = 0.00259 0.74784
# Poissons Ratio (y) = 0.00693 0.90749
# Poissons Ratio (z) = 0.43409 0.19687
#
# Static dielectric constant tensor:
#      x y z
#    x 4.061200 0.000000 0.000000 
#    y 0.000000 3.621760 0.000000 
#    z 0.000000 0.000000 3.975930 
# 
# 
# High freq. dielectric constant tensor:
#      x y z
#    x 1.813060 0.000000 0.000000 
#    y 0.000000 1.792250 0.000000 
#    z 0.000000 0.000000 1.807410 
# 
# From -- ./inp_files/62632.got.cif
#   From: 2010.03.12/outbox.cif.g09.slc.cpg/sg65_32_cif.got.tgz:62632.got - 2010.04.10 20:52:16.
