data_PCOD8274000
_publ_section_title
;
Structure prediction by ZEFSAII (Michael W. Deem and Ramdas Pophale) SiO2 
 PCOD8274000
Probable space group: C M M M
;
_chemical_formula_sum "Si O2"
_cell_formula_units_Z 72
_cell_length_a 13.965113
_cell_length_b 31.778303
_cell_length_c 7.898606
_cell_angle_alpha 90.000000
_cell_angle_beta 90.000000
_cell_angle_gamma 90.000000
_cell_volume 3505.303340
_symmetry_space_group_name_H-M "C M M M"
_symmetry_group_IT_number 65
_symmetry_cell_setting 'orthorhombic'
loop_
_space_group_symop_operation_xyz
x,y,z
-x,-y,z
x,-y,-z
-x,y,-z
-x,-y,-z
x,y,-z
-x,y,z
x,-y,z
1/2+x,1/2+y,z
1/2-x,1/2-y,z
1/2+x,1/2-y,-z
1/2-x,1/2+y,-z
1/2-x,1/2-y,-z
1/2+x,1/2+y,-z
1/2-x,1/2+y,z
1/2+x,1/2-y,z
loop_
_atom_site_type_symbol
_atom_site_label
_atom_site_fract_x
_atom_site_fract_y
_atom_site_fract_z
Si Si1 0.604387 0.638064 0.693258
Si Si2 0.606460 0.185642 0.301460
Si Si3 0.294711 0.099615 0.702679
Si Si4 0.610764 0.726551 0.193629
Si Si5 0.389606 0.950404 0.000000
O O1 0.586152 0.628943 0.500000
O O2 0.500000 0.633797 0.787905
O O3 0.682087 0.603441 0.752809
O O4 0.649411 0.685186 0.709733
O O5 0.599724 0.187428 0.500000
O O6 0.500000 0.183010 0.220862
O O7 0.661659 0.144320 0.243280
O O8 0.660644 0.228614 0.239533
O O9 0.310516 0.089680 0.500000
O O10 0.340992 0.064914 0.824562
O O11 0.500000 0.731955 0.245512
O O12 0.626329 0.716181 0.000000
O O13 0.500000 0.936083 0.000000
O O14 0.379258 0.000000 0.000000
#
# Coordination Sequence:
#
# PCOD8274000 Si02
#       5
#    16  16  16  16   8
#     4   9  18  34  55  80 116 162 206 246 284 325
#     4   9  17  30  48  72 108 153 197 243 291 338
#     4  10  22  39  62  91 119 153 197 241 289 347
#     4   9  17  27  43  72 111 157 202 244 289 331
#     4  11  26  46  69  96 121 145 176 224 293 369
#
# _framework density 20.540305
#
# number of rings (size 3 to 8) (size 9 to 14) (size 15 to 20)
#    0.000    2.556    0.000    1.333    3.111    5.333 
#    0.000    5.556    0.000    1.333    0.000    3.111 
#    0.000    0.000    0.000    0.000    0.000    0.000 
#
# Total GULP energy -445974.222808 kJ/mol
# GULP energy per Si atom -12388.172856 kJ/mol
# Density = 2.049355 g / cm^3
# Si number density = 20.540305 Si / 1000 Ang^3
#
#
#
# Elastic Constant Matrix: (Units=GPa)
#
#
# Indices 1 2 3 4 5 6 
#
# 1 83.9037 54.5079 37.9798 0.0000 0.0000 0.0000
# 2 54.5079 85.2095 38.6512 0.0000 0.0000 0.0000
# 3 37.9798 38.6512 56.5381 0.0000 0.0000 0.0000
# 4 0.0000 0.0000 0.0000 31.5308 0.0000 0.0000
# 5 0.0000 0.0000 0.0000 0.0000 19.8637 0.0000
# 6 0.0000 0.0000 0.0000 0.0000 0.0000 21.4751
#
#
#
# Elastic Compliance Matrix: (Units=1/GPa)
#
#
# Indices 1 2 3 4 5 6 
#
# 1 0.022456 -0.010904 -0.007631 0.000000 0.000000 0.000000
# 2 -0.010904 0.022305 -0.007924 0.000000 0.000000 0.000000
# 3 -0.007631 -0.007924 0.028230 0.000000 0.000000 0.000000
# 4 0.000000 0.000000 0.000000 0.031715 0.000000 0.000000
# 5 0.000000 0.000000 0.000000 0.000000 0.050343 0.000000
# 6 0.000000 0.000000 0.000000 0.000000 0.000000 0.046566
#
#
# Mechanical properties :
#
#
# Convention : Reuss Voigt Hill
#
# Bulk Modulus (GPa) = 49.81419 54.21435 52.01427
# Shear Modulus (GPa) = 19.14068 20.87475 20.00772
#
# Velocity S-wave (km/s) = 3.05595 3.19138 3.12440
# Velocity P-wave (km/s) = 6.06270 6.32703 6.19627
#
# Compressibility (1/GPa) = 0.02007460
#
# Stress axis : x y z
#
# Youngs Moduli (GPa) = 44.53116 44.83293 35.42287
#
# Poissons Ratio (x) = 0.48884 0.27031
# Poissons Ratio (y) = 0.48555 0.28069
# Poissons Ratio (z) = 0.33982 0.35525
#
# Static dielectric constant tensor:
#      x y z
#    x 4.569630 0.000000 0.000000 
#    y 0.000000 3.440990 0.000000 
#    z 0.000000 0.000000 3.516820 
# 
# 
# High freq. dielectric constant tensor:
#      x y z
#    x 1.812620 0.000000 0.000000 
#    y 0.000000 1.761780 0.000000 
#    z 0.000000 0.000000 1.792970 
# 
# From -- ./inp_files/7312.got.cif
#   From: 2010.03.12/outbox.cif.g09.slc.cpg/sg65_4_cif.got.tgz:7312.got - 2010.04.10 20:52:16.
