data_PCOD8274870
_publ_section_title
;
Structure prediction by ZEFSAII (Michael W. Deem and Ramdas Pophale) SiO2 
 PCOD8274870
Probable space group: C M M M
;
_chemical_formula_sum "Si O2"
_cell_formula_units_Z 104
_cell_length_a 30.919393
_cell_length_b 9.129266
_cell_length_c 22.669136
_cell_angle_alpha 90.000000
_cell_angle_beta 90.000000
_cell_angle_gamma 90.000000
_cell_volume 6398.847923
_symmetry_space_group_name_H-M "C M M M"
_symmetry_group_IT_number 65
_symmetry_cell_setting 'orthorhombic'
loop_
_space_group_symop_operation_xyz
x,y,z
-x,-y,z
x,-y,-z
-x,y,-z
-x,-y,-z
x,y,-z
-x,y,z
x,-y,z
1/2+x,1/2+y,z
1/2-x,1/2-y,z
1/2+x,1/2-y,-z
1/2-x,1/2+y,-z
1/2-x,1/2-y,-z
1/2+x,1/2+y,-z
1/2-x,1/2+y,z
1/2+x,1/2-y,z
loop_
_atom_site_type_symbol
_atom_site_label
_atom_site_fract_x
_atom_site_fract_y
_atom_site_fract_z
Si Si1 0.048373 0.324748 0.873276
Si Si2 0.448887 0.159479 0.000000
Si Si3 0.877444 0.671931 0.213445
Si Si4 0.208328 0.834837 0.210891
Si Si5 0.377316 0.172297 0.349356
Si Si6 0.047971 0.325993 0.433994
Si Si7 0.708415 0.665159 0.648707
O O1 0.048105 0.500000 0.876851
O O2 0.063331 0.260694 0.937915
O O3 0.081593 0.269764 0.823657
O O4 0.000000 0.268996 0.856905
O O5 0.500000 0.138370 0.000000
O O6 0.426272 0.000000 0.000000
O O7 0.869638 0.500000 0.204861
O O8 0.834997 0.753752 0.189508
O O9 0.886914 0.710291 0.281398
O O10 0.250000 0.750000 0.185149
O O11 0.210296 0.834629 0.281083
O O12 0.208487 0.000000 0.186167
O O13 0.417372 0.234855 0.387283
O O14 0.334571 0.252632 0.372914
O O15 0.370249 0.000000 0.358365
O O16 0.060321 0.273256 0.500000
O O17 0.047772 0.500000 0.431581
O O18 0.000000 0.267666 0.417226
O O19 0.708455 0.500000 0.624005
O O20 0.750000 0.750000 0.622910
#
# Coordination Sequence:
#
# PCOD8274870 Si02
#       7
#    16   8  16  16  16  16  16
#     4   8  13  21  34  54  81 110 137 165 195 229
#     4   7  10  18  32  50  74 105 138 167 194 225
#     4   9  16  24  36  59  87 108 129 161 202 241
#     4   9  16  26  40  57  79 107 136 164 196 236
#     4   9  16  25  39  60  84 107 131 163 202 239
#     4   8  14  25  41  60  80 104 137 172 200 229
#     4   9  16  26  41  60  82 107 133 161 195 238
#
# _framework density 16.252925999999999
#
# number of rings (size 3 to 8) (size 9 to 14) (size 15 to 20)
#    0.000    3.462    0.000    2.308    0.000    4.308 
#    0.000    3.077    0.000    1.846    0.000    6.462 
#    0.000    1.846    0.000    0.000    0.000    0.000 
#
# Total GULP energy -644356.717853 kJ/mol
# GULP energy per Si atom -12391.475343 kJ/mol
# Density = 1.621593 g / cm^3
# Si number density = 16.252926 Si / 1000 Ang^3
#
#
#
# Elastic Constant Matrix: (Units=GPa)
#
#
# Indices 1 2 3 4 5 6 
#
# 1 158.9933 46.6691 70.5587 0.0000 0.0000 0.0000
# 2 46.6691 51.6353 24.8273 0.0000 0.0000 0.0000
# 3 70.5587 24.8273 69.4453 0.0000 0.0000 0.0000
# 4 0.0000 0.0000 0.0000 5.4823 0.0000 0.0000
# 5 0.0000 0.0000 0.0000 0.0000 4.8994 0.0000
# 6 0.0000 0.0000 0.0000 0.0000 0.0000 20.6370
#
#
#
# Elastic Compliance Matrix: (Units=1/GPa)
#
#
# Indices 1 2 3 4 5 6 
#
# 1 0.013063 -0.006551 -0.010931 0.000000 0.000000 0.000000
# 2 -0.006551 0.026672 -0.002879 0.000000 0.000000 0.000000
# 3 -0.010931 -0.002879 0.026535 0.000000 0.000000 0.000000
# 4 0.000000 0.000000 0.000000 0.182406 0.000000 0.000000
# 5 0.000000 0.000000 0.000000 0.000000 0.204108 0.000000
# 6 0.000000 0.000000 0.000000 0.000000 0.000000 0.048457
#
#
# Mechanical properties :
#
#
# Convention : Reuss Voigt Hill
#
# Bulk Modulus (GPa) = 39.14152 62.68712 50.91432
# Shear Modulus (GPa) = 9.08298 15.40499 12.24398
#
# Velocity S-wave (km/s) = 2.36657 3.08202 2.74768
# Velocity P-wave (km/s) = 5.62162 7.16370 6.43899
#
# Compressibility (1/GPa) = 0.02554832
#
# Stress axis : x y z
#
# Youngs Moduli (GPa) = 76.54930 37.49221 37.68586
#
# Poissons Ratio (x) = 0.24562 0.41194
# Poissons Ratio (y) = 0.50150 0.10850
# Poissons Ratio (z) = 0.83674 0.10795
#
# Static dielectric constant tensor:
#      x y z
#    x 3.269020 0.000000 0.000000 
#    y 0.000000 2.790870 0.000000 
#    z 0.000000 0.000000 3.016730 
# 
# 
# High freq. dielectric constant tensor:
#      x y z
#    x 1.628570 0.000000 0.000000 
#    y 0.000000 1.588820 0.000000 
#    z 0.000000 0.000000 1.590270 
# 
# From -- ./inp_files/72136.got.cif
#   From: 2010.03.12/outbox.cif.g09.slc.cpg/sg65_37_cif.got.tgz:72136.got - 2010.04.10 20:52:16.
