data_PCOD8274348
_publ_section_title
;
Structure prediction by ZEFSAII (Michael W. Deem and Ramdas Pophale) SiO2 
 PCOD8274348
Probable space group: C M M M
;
_chemical_formula_sum "Si O2"
_cell_formula_units_Z 96
_cell_length_a 23.051111
_cell_length_b 16.507523
_cell_length_c 13.187309
_cell_angle_alpha 90.000000
_cell_angle_beta 90.000000
_cell_angle_gamma 90.000000
_cell_volume 5017.991896
_symmetry_space_group_name_H-M "C M M M"
_symmetry_group_IT_number 65
_symmetry_cell_setting 'orthorhombic'
loop_
_space_group_symop_operation_xyz
x,y,z
-x,-y,z
x,-y,-z
-x,y,-z
-x,-y,-z
x,y,-z
-x,y,z
x,-y,z
1/2+x,1/2+y,z
1/2-x,1/2-y,z
1/2+x,1/2-y,-z
1/2-x,1/2+y,-z
1/2-x,1/2-y,-z
1/2+x,1/2+y,-z
1/2-x,1/2+y,z
1/2+x,1/2-y,z
loop_
_atom_site_type_symbol
_atom_site_label
_atom_site_fract_x
_atom_site_fract_y
_atom_site_fract_z
Si Si1 0.209935 0.405195 0.612032
Si Si2 0.931609 0.908058 0.000000
Si Si3 0.629229 0.673721 0.188380
Si Si4 0.143852 0.642420 0.804043
Si Si5 0.344471 0.405232 0.385240
Si Si6 0.568496 0.000000 0.118165
Si Si7 0.238517 0.090663 0.114922
O O1 0.193749 0.373820 0.500000
O O2 0.198596 0.500000 0.621044
O O3 0.167585 0.360254 0.689478
O O4 0.276852 0.385522 0.635484
O O5 0.909965 0.867832 0.896409
O O6 0.000000 0.901997 0.000000
O O7 0.909179 0.000000 0.000000
O O8 0.618331 0.768890 0.177124
O O9 0.615555 0.642480 0.303057
O O10 0.696589 0.651741 0.172609
O O11 0.092706 0.579320 0.825627
O O12 0.196302 0.623539 0.880537
O O13 0.361115 0.378325 0.500000
O O14 0.356475 0.500000 0.371940
O O15 0.500000 0.000000 0.131197
O O16 0.586713 0.000000 0.000000
O O17 0.235778 0.000000 0.163722
O O18 0.217586 0.086466 0.000000
#
# Coordination Sequence:
#
# PCOD8274348 Si02
#       7
#    16   8  16  16  16   8  16
#     4   9  17  32  55  82 120 166 203 238 295 364
#     4  11  26  48  67  85 117 161 204 245 308 379
#     4  12  24  35  60  93 123 158 197 255 310 359
#     4  12  23  37  57  89 122 159 204 254 305 365
#     4   9  18  34  57  88 127 168 201 238 302 379
#     4  11  26  46  65  81 113 169 218 258 302 354
#     4  11  21  34  55  82 123 161 197 242 307 370
#
# _framework density 19.131160000000001
#
# number of rings (size 3 to 8) (size 9 to 14) (size 15 to 20)
#    0.000    1.333    4.167    3.500    2.333    2.000 
#    0.000    1.667    0.000    1.500    0.000    4.667 
#    0.000    0.000    0.000    0.000    0.000    0.000 
#
# Total GULP energy -595165.126950 kJ/mol
# GULP energy per Si atom -12399.273478 kJ/mol
# Density = 1.908762 g / cm^3
# Si number density = 19.131160 Si / 1000 Ang^3
#
#
#
# Elastic Constant Matrix: (Units=GPa)
#
#
# Indices 1 2 3 4 5 6 
#
# 1 49.3761 35.0368 36.7126 0.0000 0.0000 0.0000
# 2 35.0368 140.9420 61.0124 0.0000 0.0000 0.0000
# 3 36.7126 61.0124 142.0982 0.0000 0.0000 0.0000
# 4 0.0000 0.0000 0.0000 19.9268 0.0000 0.0000
# 5 0.0000 0.0000 0.0000 0.0000 17.4454 0.0000
# 6 0.0000 0.0000 0.0000 0.0000 0.0000 24.6414
#
#
#
# Elastic Compliance Matrix: (Units=1/GPa)
#
#
# Indices 1 2 3 4 5 6 
#
# 1 0.027282 -0.004583 -0.005081 0.000000 0.000000 0.000000
# 2 -0.004583 0.009485 -0.002888 0.000000 0.000000 0.000000
# 3 -0.005081 -0.002888 0.009590 0.000000 0.000000 0.000000
# 4 0.000000 0.000000 0.000000 0.050184 0.000000 0.000000
# 5 0.000000 0.000000 0.000000 0.000000 0.057322 0.000000
# 6 0.000000 0.000000 0.000000 0.000000 0.000000 0.040582
#
#
# Mechanical properties :
#
#
# Convention : Reuss Voigt Hill
#
# Bulk Modulus (GPa) = 47.05180 66.43776 56.74478
# Shear Modulus (GPa) = 22.06203 25.71301 23.88752
#
# Velocity S-wave (km/s) = 3.39956 3.67009 3.53741
# Velocity P-wave (km/s) = 6.32907 7.26377 6.81247
#
# Compressibility (1/GPa) = 0.02125317
#
# Stress axis : x y z
#
# Youngs Moduli (GPa) = 36.65366 105.43301 104.27144
#
# Poissons Ratio (x) = 0.48316 0.52981
# Poissons Ratio (y) = 0.16797 0.30118
# Poissons Ratio (z) = 0.18624 0.30454
#
# Static dielectric constant tensor:
#      x y z
#    x 3.072070 0.000000 0.000000 
#    y 0.000000 3.405860 0.000000 
#    z 0.000000 0.000000 3.880690 
# 
# 
# High freq. dielectric constant tensor:
#      x y z
#    x 1.695050 0.000000 0.000000 
#    y 0.000000 1.741350 0.000000 
#    z 0.000000 0.000000 1.767040 
# 
# From -- ./inp_files/44192.got.cif
#   From: 2010.03.12/outbox.cif.g09.slc.cpg/sg65_23_cif.got.tgz:44192.got - 2010.04.10 20:52:16.
