data_PCOD8274749
_publ_section_title
;
Structure prediction by ZEFSAII (Michael W. Deem and Ramdas Pophale) SiO2 
 PCOD8274749
Probable space group: C M M M
;
_chemical_formula_sum "Si O2"
_cell_formula_units_Z 64
_cell_length_a 17.787165
_cell_length_b 7.808082
_cell_length_c 21.670828
_cell_angle_alpha 90.000000
_cell_angle_beta 90.000000
_cell_angle_gamma 90.000000
_cell_volume 3009.723537
_symmetry_space_group_name_H-M "C M M M"
_symmetry_group_IT_number 65
_symmetry_cell_setting 'orthorhombic'
loop_
_space_group_symop_operation_xyz
x,y,z
-x,-y,z
x,-y,-z
-x,y,-z
-x,-y,-z
x,y,-z
-x,y,z
x,-y,z
1/2+x,1/2+y,z
1/2-x,1/2-y,z
1/2+x,1/2-y,-z
1/2-x,1/2+y,-z
1/2-x,1/2-y,-z
1/2+x,1/2+y,-z
1/2-x,1/2+y,z
1/2+x,1/2-y,z
loop_
_atom_site_type_symbol
_atom_site_label
_atom_site_fract_x
_atom_site_fract_y
_atom_site_fract_z
Si Si1 0.914939 0.193598 0.240859
Si Si2 0.911162 0.195696 0.000000
Si Si3 0.164801 0.693684 0.641988
Si Si4 0.586358 0.500000 0.427194
Si Si5 0.665507 0.806126 0.122658
O O1 0.873548 0.310209 0.290908
O O2 0.872340 0.193339 0.175752
O O3 0.000000 0.259852 0.231353
O O4 0.914290 0.000000 0.266461
O O5 0.880411 0.289627 0.059926
O O6 0.000000 0.209676 0.000000
O O7 0.883470 0.000000 0.000000
O O8 0.160174 0.500000 0.614892
O O9 0.250000 0.750000 0.650762
O O10 0.124034 0.825608 0.596619
O O11 0.500000 0.500000 0.405735
O O12 0.594930 0.500000 0.500000
O O13 0.750000 0.750000 0.109962
O O14 0.663165 0.000000 0.145822
#
# Coordination Sequence:
#
# PCOD8274749 Si02
#       5
#    16   8  16   8  16
#     4  11  23  41  66  96 134 174 219 275 338 401
#     4  11  24  43  64  87 121 161 208 263 330 399
#     4  12  24  44  71 104 140 184 232 286 343 409
#     4  11  26  48  72 104 145 184 230 286 342 408
#     4  12  25  41  62  90 124 166 215 270 327 395
#
# _framework density 21.264412
#
# number of rings (size 3 to 8) (size 9 to 14) (size 15 to 20)
#    0.000    0.500    2.500    6.000    0.000    8.500 
#    0.000    1.250    0.000    0.000    0.000    0.000 
#    0.000    0.000    0.000    0.000    0.000    0.000 
#
# Total GULP energy -397019.699744 kJ/mol
# GULP energy per Si atom -12406.865617 kJ/mol
# Density = 2.121601 g / cm^3
# Si number density = 21.264412 Si / 1000 Ang^3
#
#
#
# Elastic Constant Matrix: (Units=GPa)
#
#
# Indices 1 2 3 4 5 6 
#
# 1 137.7304 43.4327 41.5491 0.0000 0.0000 0.0000
# 2 43.4327 141.7589 25.6765 0.0000 0.0000 0.0000
# 3 41.5491 25.6765 94.2376 0.0000 0.0000 0.0000
# 4 0.0000 0.0000 0.0000 21.1278 0.0000 0.0000
# 5 0.0000 0.0000 0.0000 0.0000 7.2824 0.0000
# 6 0.0000 0.0000 0.0000 0.0000 0.0000 33.2531
#
#
#
# Elastic Compliance Matrix: (Units=1/GPa)
#
#
# Indices 1 2 3 4 5 6 
#
# 1 0.008948 -0.002132 -0.003364 0.000000 0.000000 0.000000
# 2 -0.002132 0.007928 -0.001220 0.000000 0.000000 0.000000
# 3 -0.003364 -0.001220 0.012427 0.000000 0.000000 0.000000
# 4 0.000000 0.000000 0.000000 0.047331 0.000000 0.000000
# 5 0.000000 0.000000 0.000000 0.000000 0.137317 0.000000
# 6 0.000000 0.000000 0.000000 0.000000 0.000000 0.030072
#
#
# Mechanical properties :
#
#
# Convention : Reuss Voigt Hill
#
# Bulk Modulus (GPa) = 63.00973 66.11593 64.56283
# Shear Modulus (GPa) = 19.02972 29.87057 24.45014
#
# Velocity S-wave (km/s) = 2.99475 3.75203 3.39457
# Velocity P-wave (km/s) = 6.45398 7.06612 6.76698
#
# Compressibility (1/GPa) = 0.01587057
#
# Stress axis : x y z
#
# Youngs Moduli (GPa) = 111.75967 126.12739 80.46888
#
# Poissons Ratio (x) = 0.26892 0.27071
# Poissons Ratio (y) = 0.23829 0.09819
# Poissons Ratio (z) = 0.37597 0.15390
#
# Static dielectric constant tensor:
#      x y z
#    x 4.037240 0.000000 0.000000 
#    y 0.000000 4.001210 0.000000 
#    z 0.000000 0.000000 3.681860 
# 
# 
# High freq. dielectric constant tensor:
#      x y z
#    x 1.852710 0.000000 0.000000 
#    y 0.000000 1.846630 0.000000 
#    z 0.000000 0.000000 1.833020 
# 
# From -- ./inp_files/69555.got.cif
#   From: 2010.03.12/outbox.cif.g09.slc.cpg/sg65_35_cif.got.tgz:69555.got - 2010.04.10 20:52:16.
