data_PCOD8274185
_publ_section_title
;
Structure prediction by ZEFSAII (Michael W. Deem and Ramdas Pophale) SiO2 
 PCOD8274185
Probable space group: C M M M
;
_chemical_formula_sum "Si O2"
_cell_formula_units_Z 96
_cell_length_a 31.845787
_cell_length_b 14.221832
_cell_length_c 11.576957
_cell_angle_alpha 90.000000
_cell_angle_beta 90.000000
_cell_angle_gamma 90.000000
_cell_volume 5243.266719
_symmetry_space_group_name_H-M "C M M M"
_symmetry_group_IT_number 65
_symmetry_cell_setting 'orthorhombic'
loop_
_space_group_symop_operation_xyz
x,y,z
-x,-y,z
x,-y,-z
-x,y,-z
-x,-y,-z
x,y,-z
-x,y,z
x,-y,z
1/2+x,1/2+y,z
1/2-x,1/2-y,z
1/2+x,1/2-y,-z
1/2-x,1/2+y,-z
1/2-x,1/2-y,-z
1/2+x,1/2+y,-z
1/2-x,1/2+y,z
1/2+x,1/2-y,z
loop_
_atom_site_type_symbol
_atom_site_label
_atom_site_fract_x
_atom_site_fract_y
_atom_site_fract_z
Si Si1 0.716088 0.895275 0.000000
Si Si2 0.345189 0.606855 0.864132
Si Si3 0.047676 0.393922 0.363708
Si Si4 0.882887 0.395876 0.000000
Si Si5 0.317993 0.897309 0.630550
Si Si6 0.885152 0.711276 0.227560
Si Si7 0.255279 0.351273 0.768707
O O1 0.666728 0.900863 0.000000
O O2 0.730839 0.839945 0.888870
O O3 0.736280 0.000000 0.000000
O O4 0.362499 0.500000 0.854133
O O5 0.378324 0.678530 0.804711
O O6 0.302008 0.611975 0.791638
O O7 0.337969 0.633382 0.000000
O O8 0.052081 0.387440 0.500000
O O9 0.061076 0.500000 0.323883
O O10 0.076409 0.309995 0.313351
O O11 0.000000 0.374463 0.324774
O O12 0.898518 0.342391 0.112370
O O13 0.902531 0.500000 0.000000
O O14 0.316987 0.857399 0.500000
O O15 0.342500 0.826563 0.714430
O O16 0.270912 0.915940 0.680120
O O17 0.340238 0.000000 0.631469
O O18 0.250000 0.250000 0.709066
#
# Coordination Sequence:
#
# PCOD8274185 Si02
#       7
#     8  16  16   8  16  16  16
#     4  11  19  29  49  73 100 136 182 237 282 320
#     4  11  23  38  55  78 110 151 198 242 282 328
#     4   9  19  38  65  94 121 149 179 213 263 335
#     4  11  20  29  49  84 118 142 177 232 287 333
#     4  11  23  36  51  74 107 147 188 231 281 338
#     4  12  21  36  56  84 112 147 186 226 276 336
#     4  12  21  34  52  73 103 141 195 243 288 328
#
# _framework density 18.309196
#
# number of rings (size 3 to 8) (size 9 to 14) (size 15 to 20)
#    0.000    1.000    5.000    4.250    0.000    1.667 
#    0.000    0.417    0.000    5.000    0.000    2.333 
#    0.000    0.000    0.000    0.000    0.000    0.000 
#
# Total GULP energy -594869.106566 kJ/mol
# GULP energy per Si atom -12393.106387 kJ/mol
# Density = 1.826752 g / cm^3
# Si number density = 18.309196 Si / 1000 Ang^3
#
#
#
# Elastic Constant Matrix: (Units=GPa)
#
#
# Indices 1 2 3 4 5 6 
#
# 1 80.4050 35.2744 23.8723 0.0000 0.0000 0.0000
# 2 35.2744 113.1688 28.3252 0.0000 0.0000 0.0000
# 3 23.8723 28.3252 79.3812 0.0000 0.0000 0.0000
# 4 0.0000 0.0000 0.0000 28.1987 0.0000 0.0000
# 5 0.0000 0.0000 0.0000 0.0000 29.9373 0.0000
# 6 0.0000 0.0000 0.0000 0.0000 0.0000 22.8009
#
#
#
# Elastic Compliance Matrix: (Units=1/GPa)
#
#
# Indices 1 2 3 4 5 6 
#
# 1 0.015088 -0.003917 -0.003140 0.000000 0.000000 0.000000
# 2 -0.003917 0.010720 -0.002647 0.000000 0.000000 0.000000
# 3 -0.003140 -0.002647 0.014486 0.000000 0.000000 0.000000
# 4 0.000000 0.000000 0.000000 0.035463 0.000000 0.000000
# 5 0.000000 0.000000 0.000000 0.000000 0.033403 0.000000
# 6 0.000000 0.000000 0.000000 0.000000 0.000000 0.043858
#
#
# Mechanical properties :
#
#
# Convention : Reuss Voigt Hill
#
# Bulk Modulus (GPa) = 47.87860 49.76653 48.82256
# Shear Modulus (GPa) = 27.87273 28.55292 28.21283
#
# Velocity S-wave (km/s) = 3.90594 3.95332 3.92970
# Velocity P-wave (km/s) = 6.82266 6.93386 6.87849
#
# Compressibility (1/GPa) = 0.02088616
#
# Stress axis : x y z
#
# Youngs Moduli (GPa) = 66.27960 93.28513 69.03128
#
# Poissons Ratio (x) = 0.36539 0.21673
# Poissons Ratio (y) = 0.25961 0.18274
# Poissons Ratio (z) = 0.20809 0.24694
#
# Static dielectric constant tensor:
#      x y z
#    x 3.102120 0.000000 0.000000 
#    y 0.000000 3.477740 0.000000 
#    z 0.000000 0.000000 3.391120 
# 
# 
# High freq. dielectric constant tensor:
#      x y z
#    x 1.672080 0.000000 0.000000 
#    y 0.000000 1.704690 0.000000 
#    z 0.000000 0.000000 1.710920 
# 
# From -- ./inp_files/33922.got.cif
#   From: 2010.03.12/outbox.cif.g09.slc.cpg/sg65_17_cif.got.tgz:33922.got - 2010.04.10 20:52:16.
