data_PCOD8274989
_publ_section_title
;
Structure prediction by ZEFSAII (Michael W. Deem and Ramdas Pophale) SiO2 
 PCOD8274989
Probable space group: C M M M
;
_chemical_formula_sum "Si O2"
_cell_formula_units_Z 88
_cell_length_a 9.207249
_cell_length_b 20.239569
_cell_length_c 28.354041
_cell_angle_alpha 90.000000
_cell_angle_beta 90.000000
_cell_angle_gamma 90.000000
_cell_volume 5283.796847
_symmetry_space_group_name_H-M "C M M M"
_symmetry_group_IT_number 65
_symmetry_cell_setting 'orthorhombic'
loop_
_space_group_symop_operation_xyz
x,y,z
-x,-y,z
x,-y,-z
-x,y,-z
-x,-y,-z
x,y,-z
-x,y,z
x,-y,z
1/2+x,1/2+y,z
1/2-x,1/2-y,z
1/2+x,1/2-y,-z
1/2-x,1/2+y,-z
1/2-x,1/2-y,-z
1/2+x,1/2+y,-z
1/2-x,1/2+y,z
1/2+x,1/2-y,z
loop_
_atom_site_type_symbol
_atom_site_label
_atom_site_fract_x
_atom_site_fract_y
_atom_site_fract_z
Si Si1 0.836615 0.421168 0.317963
Si Si2 0.835636 0.078744 0.408819
Si Si3 0.338475 0.578487 0.770811
Si Si4 0.335409 0.921238 0.500000
Si Si5 0.829661 0.816459 0.945998
Si Si6 0.827055 0.926602 0.125222
O O1 0.836783 0.500000 0.317785
O O2 0.743188 0.394471 0.361925
O O3 0.767295 0.393241 0.269563
O O4 0.000000 0.393810 0.322257
O O5 0.748149 0.105692 0.454015
O O6 0.000000 0.106060 0.410207
O O7 0.836815 0.000000 0.409049
O O8 0.500000 0.607861 0.762796
O O9 0.347129 0.500000 0.767543
O O10 0.277611 0.597881 0.822670
O O11 0.500000 0.894002 0.500000
O O12 0.336828 0.000000 0.500000
O O13 0.750000 0.750000 0.930078
O O14 0.768227 0.876045 0.914020
O O15 0.000000 0.805811 0.938303
O O16 0.793275 0.834293 0.000000
O O17 0.000000 0.929823 0.124268
O O18 0.764678 0.000000 0.114305
#
# Coordination Sequence:
#
# PCOD8274989 Si02
#       6
#    16  16  16   8  16  16
#     4   9  15  21  29  42  60  81 106 138 179 227
#     4   9  15  21  28  37  50  72 104 140 179 224
#     4   8  13  22  35  49  66  88 114 147 188 231
#     4   9  15  21  27  35  49  69  97 139 188 229
#     4   9  17  29  45  64  86 112 140 170 205 246
#     4   8  14  25  42  63  83 104 135 174 210 243
#
# _framework density 16.654689999999999
#
# number of rings (size 3 to 8) (size 9 to 14) (size 15 to 20)
#    0.000    3.364    0.000    2.455    0.000    5.818 
#    0.000    2.727    0.000    1.636    0.000    2.545 
#    0.000    0.000    0.000    0.000    0.000    0.000 
#
# Total GULP energy -545356.024649 kJ/mol
# GULP energy per Si atom -12394.455106 kJ/mol
# Density = 1.661678 g / cm^3
# Si number density = 16.654690 Si / 1000 Ang^3
#
#
#
# Elastic Constant Matrix: (Units=GPa)
#
#
# Indices 1 2 3 4 5 6 
#
# 1 102.2286 23.5716 66.0806 0.0000 0.0000 0.0000
# 2 23.5716 37.9206 49.2075 0.0000 0.0000 0.0000
# 3 66.0806 49.2075 158.3082 0.0000 0.0000 0.0000
# 4 0.0000 0.0000 0.0000 1.5938 0.0000 0.0000
# 5 0.0000 0.0000 0.0000 0.0000 21.3511 0.0000
# 6 0.0000 0.0000 0.0000 0.0000 0.0000 9.5456
#
#
#
# Elastic Compliance Matrix: (Units=1/GPa)
#
#
# Indices 1 2 3 4 5 6 
#
# 1 0.013470 -0.001805 -0.005062 0.000000 0.000000 0.000000
# 2 -0.001805 0.044440 -0.013060 0.000000 0.000000 0.000000
# 3 -0.005062 -0.013060 0.012489 0.000000 0.000000 0.000000
# 4 0.000000 0.000000 0.000000 0.627437 0.000000 0.000000
# 5 0.000000 0.000000 0.000000 0.000000 0.046836 0.000000
# 6 0.000000 0.000000 0.000000 0.000000 0.000000 0.104761
#
#
# Mechanical properties :
#
#
# Convention : Reuss Voigt Hill
#
# Bulk Modulus (GPa) = 32.73738 64.01964 48.37851
# Shear Modulus (GPa) = 5.55884 17.13794 11.34839
#
# Velocity S-wave (km/s) = 1.82892 3.21131 2.61318
# Velocity P-wave (km/s) = 4.91520 7.23000 6.18191
#
# Compressibility (1/GPa) = 0.03054612
#
# Stress axis : x y z
#
# Youngs Moduli (GPa) = 74.23927 22.50219 80.06977
#
# Poissons Ratio (x) = 0.04061 0.40528
# Poissons Ratio (y) = 0.13399 1.04572
# Poissons Ratio (z) = 0.37577 0.29388
#
# Static dielectric constant tensor:
#      x y z
#    x 3.142680 0.000000 0.000000 
#    y 0.000000 2.545290 0.000000 
#    z 0.000000 0.000000 3.469050 
# 
# 
# High freq. dielectric constant tensor:
#      x y z
#    x 1.632690 0.000000 0.000000 
#    y 0.000000 1.554920 0.000000 
#    z 0.000000 0.000000 1.660280 
# 
# From -- ./inp_files/73099.got.cif
#   From: 2010.03.12/outbox.cif.g09.slc.cpg/sg65_37_cif.got.tgz:73099.got - 2010.04.10 20:52:16.
