data_PCOD8274369
_publ_section_title
;
Structure prediction by ZEFSAII (Michael W. Deem and Ramdas Pophale) SiO2 
 PCOD8274369
Probable space group: C M M M
;
_chemical_formula_sum "Si O2"
_cell_formula_units_Z 56
_cell_length_a 16.783052
_cell_length_b 10.115520
_cell_length_c 17.029921
_cell_angle_alpha 90.000000
_cell_angle_beta 90.000000
_cell_angle_gamma 90.000000
_cell_volume 2891.157736
_symmetry_space_group_name_H-M "C M M M"
_symmetry_group_IT_number 65
_symmetry_cell_setting 'orthorhombic'
loop_
_space_group_symop_operation_xyz
x,y,z
-x,-y,z
x,-y,-z
-x,y,-z
-x,-y,-z
x,y,-z
-x,y,z
x,-y,z
1/2+x,1/2+y,z
1/2-x,1/2-y,z
1/2+x,1/2-y,-z
1/2-x,1/2+y,-z
1/2-x,1/2-y,-z
1/2+x,1/2+y,-z
1/2-x,1/2+y,z
1/2+x,1/2-y,z
loop_
_atom_site_type_symbol
_atom_site_label
_atom_site_fract_x
_atom_site_fract_y
_atom_site_fract_z
Si Si1 0.318832 0.500000 0.591212
Si Si2 0.868708 0.500000 0.409217
Si Si3 0.095301 0.647925 0.167812
Si Si4 0.590424 0.266354 0.672995
Si Si5 0.087619 0.342588 0.000000
O O1 0.342662 0.500000 0.500000
O O2 0.225336 0.500000 0.604058
O O3 0.352654 0.630814 0.630839
O O4 0.890848 0.500000 0.500000
O O5 0.908333 0.627647 0.371279
O O6 0.127478 0.500000 0.186061
O O7 0.121842 0.746078 0.237546
O O8 0.129865 0.699299 0.082760
O O9 0.000000 0.642727 0.162901
O O10 0.500000 0.320458 0.672588
O O11 0.080314 0.500000 0.000000
O O12 0.000000 0.278026 0.000000
#
# Coordination Sequence:
#
# PCOD8274369 Si02
#       5
#     8   8  16  16   8
#     4  11  25  41  53  72 107 148 180 209 265 335
#     4  11  23  39  57  76 101 138 182 223 263 315
#     4   8  13  24  44  75 107 132 165 211 258 302
#     4  11  21  35  57  83 108 133 174 227 267 305
#     4   7  10  18  38  69 106 136 157 198 258 306
#
# _framework density 19.369403999999999
#
# number of rings (size 3 to 8) (size 9 to 14) (size 15 to 20)
#    0.000    2.429    1.429    4.286    0.000    5.714 
#    0.000    0.000    0.000    0.857    0.000   11.000 
#    0.000    0.000    0.000    0.000    0.000    0.000 
#
# Total GULP energy -346954.944252 kJ/mol
# GULP energy per Si atom -12391.248009 kJ/mol
# Density = 1.932532 g / cm^3
# Si number density = 19.369404 Si / 1000 Ang^3
#
#
#
# Elastic Constant Matrix: (Units=GPa)
#
#
# Indices 1 2 3 4 5 6 
#
# 1 29.8227 4.7239 28.4775 0.0000 0.0000 0.0000
# 2 4.7239 64.0151 33.5920 0.0000 0.0000 0.0000
# 3 28.4775 33.5920 175.0429 0.0000 0.0000 0.0000
# 4 0.0000 0.0000 0.0000 29.2105 0.0000 0.0000
# 5 0.0000 0.0000 0.0000 0.0000 -5.7024 0.0000
# 6 0.0000 0.0000 0.0000 0.0000 0.0000 22.5102
#
#
#
# Elastic Compliance Matrix: (Units=1/GPa)
#
#
# Indices 1 2 3 4 5 6 
#
# 1 0.039714 0.000511 -0.006559 0.000000 0.000000 0.000000
# 2 0.000511 0.017377 -0.003418 0.000000 0.000000 0.000000
# 3 -0.006559 -0.003418 0.007436 0.000000 0.000000 0.000000
# 4 0.000000 0.000000 0.000000 0.034234 0.000000 0.000000
# 5 0.000000 0.000000 0.000000 0.000000 -0.175363 0.000000
# 6 0.000000 0.000000 0.000000 0.000000 0.000000 0.044424
#
#
# Mechanical properties :
#
#
# Convention : Reuss Voigt Hill
#
# Bulk Modulus (GPa) = 21.93212 44.71862 33.32537
# Shear Modulus (GPa) = 2561.23371 22.67614 1291.95492
#
# Velocity S-wave (km/s) = 36.40302 3.42529 25.85452
# Velocity P-wave (km/s) = 42.16935 6.22743 30.14162
#
# Compressibility (1/GPa) = 0.04559523
#
# Stress axis : x y z
#
# Youngs Moduli (GPa) = 25.18019 57.54673 134.48250
#
# Poissons Ratio (x) = -0.02942 0.88208
# Poissons Ratio (y) = -0.01287 0.45966
# Poissons Ratio (z) = 0.16516 0.19669
#
# Static dielectric constant tensor:
#      x y z
#    x 3.094770 0.000000 0.000000 
#    y 0.000000 2.978180 0.000000 
#    z 0.000000 0.000000 4.368210 
# 
# 
# High freq. dielectric constant tensor:
#      x y z
#    x 1.710820 0.000000 0.000000 
#    y 0.000000 1.721660 0.000000 
#    z 0.000000 0.000000 1.787190 
# 
# From -- ./inp_files/48804.got.cif
#   From: 2010.03.12/outbox.cif.g09.slc.cpg/sg65_25_cif.got.tgz:48804.got - 2010.04.10 20:52:16.
