data_PCOD8274444
_publ_section_title
;
Structure prediction by ZEFSAII (Michael W. Deem and Ramdas Pophale) SiO2 
 PCOD8274444
Probable space group: C M M M
;
_chemical_formula_sum "Si O2"
_cell_formula_units_Z 80
_cell_length_a 8.856064
_cell_length_b 19.291708
_cell_length_c 25.569642
_cell_angle_alpha 90.000000
_cell_angle_beta 90.000000
_cell_angle_gamma 90.000000
_cell_volume 4368.537557
_symmetry_space_group_name_H-M "C M M M"
_symmetry_group_IT_number 65
_symmetry_cell_setting 'orthorhombic'
loop_
_space_group_symop_operation_xyz
x,y,z
-x,-y,z
x,-y,-z
-x,y,-z
-x,-y,-z
x,y,-z
-x,y,z
x,-y,z
1/2+x,1/2+y,z
1/2-x,1/2-y,z
1/2+x,1/2-y,-z
1/2-x,1/2+y,-z
1/2-x,1/2-y,-z
1/2+x,1/2+y,-z
1/2-x,1/2+y,z
1/2+x,1/2-y,z
loop_
_atom_site_type_symbol
_atom_site_label
_atom_site_fract_x
_atom_site_fract_y
_atom_site_fract_z
Si Si1 0.678671 0.325591 0.349710
Si Si2 0.322353 0.176752 0.058428
Si Si3 0.679404 0.422539 0.558317
Si Si4 0.321442 0.923965 0.146252
Si Si5 0.824375 0.580863 0.263921
O O1 0.500000 0.317339 0.351720
O O2 0.750000 0.250000 0.347308
O O3 0.742363 0.366216 0.400734
O O4 0.722047 0.370508 0.299473
O O5 0.500000 0.184416 0.065451
O O6 0.250000 0.250000 0.069603
O O7 0.252228 0.125202 0.101571
O O8 0.282221 0.149926 0.000000
O O9 0.735309 0.402215 0.500000
O O10 0.500000 0.423168 0.560173
O O11 0.738611 0.500000 0.572714
O O12 0.500000 0.928534 0.139846
O O13 0.282942 0.897628 0.204529
O O14 0.250761 0.000000 0.137747
O O15 0.786199 0.500000 0.273681
O O16 0.000000 0.594936 0.275702
#
# Coordination Sequence:
#
# PCOD8274444 Si02
#       5
#    16  16  16  16  16
#     4  11  22  34  50  74 103 133 166 203 242 286
#     4   9  17  29  46  68  94 124 157 193 233 279
#     4   8  15  30  52  75  97 124 160 200 242 288
#     4   8  15  29  49  72  95 120 154 196 240 283
#     4   9  18  34  54  73  97 129 162 200 247 296
#
# _framework density 18.312764999999999
#
# number of rings (size 3 to 8) (size 9 to 14) (size 15 to 20)
#    0.000    3.000    0.000    3.000    0.000    2.800 
#    0.000    5.000    0.000    3.600    0.000    9.800 
#    0.000    0.000    0.000    0.000    0.000    0.000 
#
# Total GULP energy -495794.027746 kJ/mol
# GULP energy per Si atom -12394.850694 kJ/mol
# Density = 1.827108 g / cm^3
# Si number density = 18.312765 Si / 1000 Ang^3
#
#
#
# Elastic Constant Matrix: (Units=GPa)
#
#
# Indices 1 2 3 4 5 6 
#
# 1 29.3628 32.9617 30.9880 0.0000 0.0000 0.0000
# 2 32.9617 121.9494 97.1734 0.0000 0.0000 0.0000
# 3 30.9880 97.1734 157.5505 0.0000 0.0000 0.0000
# 4 0.0000 0.0000 0.0000 24.2939 0.0000 0.0000
# 5 0.0000 0.0000 0.0000 0.0000 20.2351 0.0000
# 6 0.0000 0.0000 0.0000 0.0000 0.0000 15.5899
#
#
#
# Elastic Compliance Matrix: (Units=1/GPa)
#
#
# Indices 1 2 3 4 5 6 
#
# 1 0.049566 -0.011069 -0.002922 0.000000 0.000000 0.000000
# 2 -0.011069 0.018597 -0.009293 0.000000 0.000000 0.000000
# 3 -0.002922 -0.009293 0.012654 0.000000 0.000000 0.000000
# 4 0.000000 0.000000 0.000000 0.041163 0.000000 0.000000
# 5 0.000000 0.000000 0.000000 0.000000 0.049419 0.000000
# 6 0.000000 0.000000 0.000000 0.000000 0.000000 0.064144
#
#
# Mechanical properties :
#
#
# Convention : Reuss Voigt Hill
#
# Bulk Modulus (GPa) = 29.19817 70.12323 49.66070
# Shear Modulus (GPa) = 17.03425 21.87308 19.45367
#
# Velocity S-wave (km/s) = 3.05320 3.45978 3.26283
# Velocity P-wave (km/s) = 5.32993 7.37125 6.43208
#
# Compressibility (1/GPa) = 0.03424872
#
# Stress axis : x y z
#
# Youngs Moduli (GPa) = 20.17517 53.77222 79.02890
#
# Poissons Ratio (x) = 0.59520 0.23091
# Poissons Ratio (y) = 0.22332 0.73442
# Poissons Ratio (z) = 0.05895 0.49971
#
# Static dielectric constant tensor:
#      x y z
#    x 2.947580 0.000000 0.000000 
#    y 0.000000 3.525160 0.000000 
#    z 0.000000 0.000000 3.720420 
# 
# 
# High freq. dielectric constant tensor:
#      x y z
#    x 1.668080 0.000000 0.000000 
#    y 0.000000 1.709150 0.000000 
#    z 0.000000 0.000000 1.724930 
# 
# From -- ./inp_files/69696.got.cif
#   From: 2010.03.12/outbox.cif.g09.slc.cpg/sg65_35_cif.got.tgz:69696.got - 2010.04.10 20:52:16.
