data_PCOD8274807
_publ_section_title
;
Structure prediction by ZEFSAII (Michael W. Deem and Ramdas Pophale) SiO2 
 PCOD8274807
Probable space group: C M M M
;
_chemical_formula_sum "Si O2"
_cell_formula_units_Z 64
_cell_length_a 13.948724
_cell_length_b 18.727794
_cell_length_c 12.260766
_cell_angle_alpha 90.000000
_cell_angle_beta 90.000000
_cell_angle_gamma 90.000000
_cell_volume 3202.865553
_symmetry_space_group_name_H-M "C M M M"
_symmetry_group_IT_number 65
_symmetry_cell_setting 'orthorhombic'
loop_
_space_group_symop_operation_xyz
x,y,z
-x,-y,z
x,-y,-z
-x,y,-z
-x,-y,-z
x,y,-z
-x,y,z
x,-y,z
1/2+x,1/2+y,z
1/2-x,1/2-y,z
1/2+x,1/2-y,-z
1/2-x,1/2+y,-z
1/2-x,1/2-y,-z
1/2+x,1/2+y,-z
1/2-x,1/2+y,z
1/2+x,1/2-y,z
loop_
_atom_site_type_symbol
_atom_site_label
_atom_site_fract_x
_atom_site_fract_y
_atom_site_fract_z
Si Si1 0.885462 0.845468 0.376496
Si Si2 0.276235 0.325214 0.825516
Si Si3 0.608877 0.918487 0.873130
Si Si4 0.386400 0.583714 0.000000
Si Si5 0.602530 0.500000 0.373067
O O1 0.857030 0.823168 0.500000
O O2 0.829040 0.799654 0.286787
O O3 0.844971 0.925618 0.346560
O O4 0.000000 0.840697 0.362906
O O5 0.250000 0.250000 0.884652
O O6 0.177964 0.368265 0.802533
O O7 0.346637 0.375683 0.894304
O O8 0.500000 0.893076 0.854821
O O9 0.620844 0.000000 0.835070
O O10 0.638005 0.910872 0.000000
O O11 0.354359 0.500000 0.000000
O O12 0.500000 0.589949 0.000000
O O13 0.500000 0.500000 0.310389
O O14 0.579453 0.500000 0.500000
#
# Coordination Sequence:
#
# PCOD8274807 Si02
#       5
#    16  16  16   8   8
#     4   9  19  36  58  85 119 158 197 239 295 360
#     4  12  24  37  57  90 123 155 194 241 299 358
#     4   9  19  37  59  78 103 149 204 246 278 329
#     4  11  25  42  61  89 123 157 192 241 306 364
#     4   7  12  26  50  79 106 139 186 231 275 334
#
# _framework density 19.982106000000002
#
# number of rings (size 3 to 8) (size 9 to 14) (size 15 to 20)
#    0.000    2.250    1.250    4.125    3.500    2.500 
#    0.000    0.000    0.000    0.750    0.000    1.750 
#    0.000    0.000    0.000    0.000    0.000    0.000 
#
# Total GULP energy -396430.351583 kJ/mol
# GULP energy per Si atom -12388.448487 kJ/mol
# Density = 1.993663 g / cm^3
# Si number density = 19.982106 Si / 1000 Ang^3
#
#
#
# Elastic Constant Matrix: (Units=GPa)
#
#
# Indices 1 2 3 4 5 6 
#
# 1 101.1763 47.9691 48.6280 0.0000 0.0000 0.0000
# 2 47.9691 98.3053 28.1643 0.0000 0.0000 0.0000
# 3 48.6280 28.1643 96.4496 0.0000 0.0000 0.0000
# 4 0.0000 0.0000 0.0000 12.2054 0.0000 0.0000
# 5 0.0000 0.0000 0.0000 0.0000 22.9050 0.0000
# 6 0.0000 0.0000 0.0000 0.0000 0.0000 21.0707
#
#
#
# Elastic Compliance Matrix: (Units=1/GPa)
#
#
# Indices 1 2 3 4 5 6 
#
# 1 0.015625 -0.005857 -0.006167 0.000000 0.000000 0.000000
# 2 -0.005857 0.013297 -0.000930 0.000000 0.000000 0.000000
# 3 -0.006167 -0.000930 0.013749 0.000000 0.000000 0.000000
# 4 0.000000 0.000000 0.000000 0.081931 0.000000 0.000000
# 5 0.000000 0.000000 0.000000 0.000000 0.043659 0.000000
# 6 0.000000 0.000000 0.000000 0.000000 0.000000 0.047459
#
#
# Mechanical properties :
#
#
# Convention : Reuss Voigt Hill
#
# Bulk Modulus (GPa) = 59.65853 60.60599 60.13226
# Shear Modulus (GPa) = 20.22524 22.64755 21.43639
#
# Velocity S-wave (km/s) = 3.18491 3.37024 3.27888
# Velocity P-wave (km/s) = 6.59133 6.74838 6.67032
#
# Compressibility (1/GPa) = 0.01676206
#
# Stress axis : x y z
#
# Youngs Moduli (GPa) = 63.99971 75.20527 72.73226
#
# Poissons Ratio (x) = 0.44051 0.44857
# Poissons Ratio (y) = 0.37488 0.06761
# Poissons Ratio (z) = 0.39471 0.06991
#
# Static dielectric constant tensor:
#      x y z
#    x 3.544730 0.000000 0.000000 
#    y 0.000000 3.886780 0.000000 
#    z 0.000000 0.000000 3.378700 
# 
# 
# High freq. dielectric constant tensor:
#      x y z
#    x 1.773130 0.000000 0.000000 
#    y 0.000000 1.775420 0.000000 
#    z 0.000000 0.000000 1.753920 
# 
# From -- ./inp_files/23987.got.cif
#   From: 2010.03.12/outbox.cif.g09.slc.cpg/sg65_12_cif.got.tgz:23987.got - 2010.04.10 20:52:16.
