data_PCOD8274482
_publ_section_title
;
Structure prediction by ZEFSAII (Michael W. Deem and Ramdas Pophale) SiO2 
 PCOD8274482
Probable space group: C M M M
;
_chemical_formula_sum "Si O2"
_cell_formula_units_Z 72
_cell_length_a 32.574404
_cell_length_b 13.773580
_cell_length_c 8.601829
_cell_angle_alpha 90.000000
_cell_angle_beta 90.000000
_cell_angle_gamma 90.000000
_cell_volume 3859.349582
_symmetry_space_group_name_H-M "C M M M"
_symmetry_group_IT_number 65
_symmetry_cell_setting 'orthorhombic'
loop_
_space_group_symop_operation_xyz
x,y,z
-x,-y,z
x,-y,-z
-x,y,-z
-x,-y,-z
x,y,-z
-x,y,z
x,-y,z
1/2+x,1/2+y,z
1/2-x,1/2-y,z
1/2+x,1/2-y,-z
1/2-x,1/2+y,-z
1/2-x,1/2-y,-z
1/2+x,1/2+y,-z
1/2-x,1/2+y,z
1/2+x,1/2-y,z
loop_
_atom_site_type_symbol
_atom_site_label
_atom_site_fract_x
_atom_site_fract_y
_atom_site_fract_z
Si Si1 0.856519 0.108319 0.826318
Si Si2 0.129969 0.611613 0.184955
Si Si3 0.923668 0.773727 0.678900
Si Si4 0.793799 0.267304 0.174409
Si Si5 0.500000 0.387507 0.183202
O O1 0.886052 0.152908 0.697430
O O2 0.813211 0.161156 0.826282
O O3 0.847231 0.000000 0.776198
O O4 0.876496 0.115805 0.000000
O O5 0.126611 0.500000 0.238047
O O6 0.090319 0.669660 0.249939
O O7 0.173217 0.656745 0.250042
O O8 0.129294 0.623627 0.000000
O O9 0.935021 0.758264 0.500000
O O10 0.961425 0.824207 0.764150
O O11 0.750000 0.250000 0.262749
O O12 0.784538 0.305192 0.000000
O O13 0.500000 0.500000 0.249434
O O14 0.500000 0.394848 0.000000
#
# Coordination Sequence:
#
# PCOD8274482 Si02
#       5
#    16  16  16  16   8
#     4   9  17  30  48  70  99 135 171 207 252 306
#     4   9  18  34  55  76 102 140 182 220 261 310
#     4  11  22  35  53  78 107 135 168 211 255 305
#     4   8  14  25  44  74 106 131 165 217 267 306
#     4  11  23  39  60  83 108 137 167 204 254 311
#
# _framework density 18.655992999999999
#
# number of rings (size 3 to 8) (size 9 to 14) (size 15 to 20)
#    0.000    2.556    0.000    4.333    0.000    5.333 
#    0.000    5.000    0.000   14.000    0.000   12.444 
#    0.000    0.000    0.000    0.000    0.000    0.000 
#
# Total GULP energy -445976.671644 kJ/mol
# GULP energy per Si atom -12388.240879 kJ/mol
# Density = 1.861353 g / cm^3
# Si number density = 18.655993 Si / 1000 Ang^3
#
#
#
# Elastic Constant Matrix: (Units=GPa)
#
#
# Indices 1 2 3 4 5 6 
#
# 1 120.8370 62.7300 23.9547 0.0000 0.0000 0.0000
# 2 62.7300 175.5531 25.5213 0.0000 0.0000 0.0000
# 3 23.9547 25.5213 49.3433 0.0000 0.0000 0.0000
# 4 0.0000 0.0000 0.0000 15.0391 0.0000 0.0000
# 5 0.0000 0.0000 0.0000 0.0000 -27.9872 0.0000
# 6 0.0000 0.0000 0.0000 0.0000 0.0000 17.0075
#
#
#
# Elastic Compliance Matrix: (Units=1/GPa)
#
#
# Indices 1 2 3 4 5 6 
#
# 1 0.010684 -0.003313 -0.003473 0.000000 0.000000 0.000000
# 2 -0.003313 0.007187 -0.002109 0.000000 0.000000 0.000000
# 3 -0.003473 -0.002109 0.023043 0.000000 0.000000 0.000000
# 4 0.000000 0.000000 0.000000 0.066493 0.000000 0.000000
# 5 0.000000 0.000000 0.000000 0.000000 -0.035731 0.000000
# 6 0.000000 0.000000 0.000000 0.000000 0.000000 0.058797
#
#
# Mechanical properties :
#
#
# Convention : Reuss Voigt Hill
#
# Bulk Modulus (GPa) = 43.24536 63.34949 53.29743
# Shear Modulus (GPa) = 32.05721 16.38038 24.21879
#
# Velocity S-wave (km/s) = 4.14978 2.96636 3.60693
# Velocity P-wave (km/s) = 6.79644 6.76482 6.78065
#
# Compressibility (1/GPa) = 0.02312387
#
# Stress axis : x y z
#
# Youngs Moduli (GPa) = 93.59889 139.14818 43.39702
#
# Poissons Ratio (x) = 0.46096 0.15073
# Poissons Ratio (y) = 0.31007 0.09152
# Poissons Ratio (z) = 0.32510 0.29344
#
# Static dielectric constant tensor:
#      x y z
#    x 3.607050 0.000000 0.000000 
#    y 0.000000 3.596970 0.000000 
#    z 0.000000 0.000000 3.117290 
# 
# 
# High freq. dielectric constant tensor:
#      x y z
#    x 1.722890 0.000000 0.000000 
#    y 0.000000 1.728810 0.000000 
#    z 0.000000 0.000000 1.686850 
# 
# From -- ./inp_files/7653.got.cif
#   From: 2010.03.12/outbox.cif.g09.slc.cpg/sg65_4_cif.got.tgz:7653.got - 2010.04.10 20:52:16.
