data_PCOD8274526
_publ_section_title
;
Structure prediction by ZEFSAII (Michael W. Deem and Ramdas Pophale) SiO2 
 PCOD8274526
Probable space group: C M M M
;
_chemical_formula_sum "Si O2"
_cell_formula_units_Z 56
_cell_length_a 14.283350
_cell_length_b 22.507699
_cell_length_c 8.806478
_cell_angle_alpha 90.000000
_cell_angle_beta 90.000000
_cell_angle_gamma 90.000000
_cell_volume 2831.153596
_symmetry_space_group_name_H-M "C M M M"
_symmetry_group_IT_number 65
_symmetry_cell_setting 'orthorhombic'
loop_
_space_group_symop_operation_xyz
x,y,z
-x,-y,z
x,-y,-z
-x,y,-z
-x,-y,-z
x,y,-z
-x,y,z
x,-y,z
1/2+x,1/2+y,z
1/2-x,1/2-y,z
1/2+x,1/2-y,-z
1/2-x,1/2+y,-z
1/2-x,1/2-y,-z
1/2+x,1/2+y,-z
1/2-x,1/2+y,z
1/2+x,1/2-y,z
loop_
_atom_site_type_symbol
_atom_site_label
_atom_site_fract_x
_atom_site_fract_y
_atom_site_fract_z
Si Si1 0.147591 0.225190 0.334671
Si Si2 0.897924 0.351413 0.322048
Si Si3 0.392892 0.500000 0.320335
Si Si4 0.291906 0.388355 0.177811
O O1 0.109558 0.203359 0.500000
O O2 0.250000 0.250000 0.357529
O O3 0.089847 0.281908 0.273395
O O4 0.147826 0.170491 0.217759
O O5 0.871499 0.355223 0.500000
O O6 0.816700 0.384007 0.228368
O O7 0.000000 0.381330 0.290404
O O8 0.500000 0.500000 0.261765
O O9 0.388846 0.500000 0.500000
O O10 0.339709 0.442697 0.260734
O O11 0.295187 0.399036 0.000000
#
# Coordination Sequence:
#
# PCOD8274526 Si02
#       4
#    16  16   8  16
#     4   8  15  30  52  78 109 147 189 225 260 311
#     4   9  18  34  57  84 115 153 194 230 265 317
#     4  11  25  45  66  81  98 137 191 236 274 327
#     4  11  22  36  56  84 118 148 178 228 288 337
#
# _framework density 19.779923
#
# number of rings (size 3 to 8) (size 9 to 14) (size 15 to 20)
#    0.000    2.429    0.000    4.714    0.000    8.000 
#    0.000    3.571    0.000    4.286    0.000    0.000 
#    0.000    0.000    0.000    0.000    0.000    0.000 
#
# Total GULP energy -346945.985693 kJ/mol
# GULP energy per Si atom -12390.928060 kJ/mol
# Density = 1.973490 g / cm^3
# Si number density = 19.779923 Si / 1000 Ang^3
#
#
#
# Elastic Constant Matrix: (Units=GPa)
#
#
# Indices 1 2 3 4 5 6 
#
# 1 113.8395 47.5678 36.5528 0.0000 0.0000 0.0000
# 2 47.5678 102.0252 36.3540 0.0000 0.0000 0.0000
# 3 36.5528 36.3540 81.8664 0.0000 0.0000 0.0000
# 4 0.0000 0.0000 0.0000 27.1515 0.0000 0.0000
# 5 0.0000 0.0000 0.0000 0.0000 15.1134 0.0000
# 6 0.0000 0.0000 0.0000 0.0000 0.0000 12.2136
#
#
#
# Elastic Compliance Matrix: (Units=1/GPa)
#
#
# Indices 1 2 3 4 5 6 
#
# 1 0.011616 -0.004239 -0.003304 0.000000 0.000000 0.000000
# 2 -0.004239 0.013190 -0.003965 0.000000 0.000000 0.000000
# 3 -0.003304 -0.003965 0.015451 0.000000 0.000000 0.000000
# 4 0.000000 0.000000 0.000000 0.036830 0.000000 0.000000
# 5 0.000000 0.000000 0.000000 0.000000 0.066167 0.000000
# 6 0.000000 0.000000 0.000000 0.000000 0.000000 0.081876
#
#
# Mechanical properties :
#
#
# Convention : Reuss Voigt Hill
#
# Bulk Modulus (GPa) = 57.99749 59.85335 58.92542
# Shear Modulus (GPa) = 19.69327 22.71282 21.20304
#
# Velocity S-wave (km/s) = 3.15877 3.39230 3.27761
# Velocity P-wave (km/s) = 6.53367 6.75788 6.64672
#
# Compressibility (1/GPa) = 0.01724213
#
# Stress axis : x y z
#
# Youngs Moduli (GPa) = 86.08528 75.81245 64.72019
#
# Poissons Ratio (x) = 0.32133 0.21387
# Poissons Ratio (y) = 0.36487 0.25661
# Poissons Ratio (z) = 0.28447 0.30059
#
# Static dielectric constant tensor:
#      x y z
#    x 3.105370 0.000000 0.000000 
#    y 0.000000 4.259940 0.000000 
#    z 0.000000 0.000000 3.433780 
# 
# 
# High freq. dielectric constant tensor:
#      x y z
#    x 1.777930 0.000000 0.000000 
#    y 0.000000 1.752970 0.000000 
#    z 0.000000 0.000000 1.755580 
# 
# From -- ./inp_files/6208.got.cif
#   From: 2010.03.12/outbox.cif.g09.slc.cpg/sg65_4_cif.got.tgz:6208.got - 2010.04.10 20:52:16.
