data_PCOD8274800
_publ_section_title
;
Structure prediction by ZEFSAII (Michael W. Deem and Ramdas Pophale) SiO2 
 PCOD8274800
Probable space group: C M M M
;
_chemical_formula_sum "Si O2"
_cell_formula_units_Z 72
_cell_length_a 10.274427
_cell_length_b 14.876067
_cell_length_c 25.268258
_cell_angle_alpha 90.000000
_cell_angle_beta 90.000000
_cell_angle_gamma 90.000000
_cell_volume 3862.077986
_symmetry_space_group_name_H-M "C M M M"
_symmetry_group_IT_number 65
_symmetry_cell_setting 'orthorhombic'
loop_
_space_group_symop_operation_xyz
x,y,z
-x,-y,z
x,-y,-z
-x,y,-z
-x,-y,-z
x,y,-z
-x,y,z
x,-y,z
1/2+x,1/2+y,z
1/2-x,1/2-y,z
1/2+x,1/2-y,-z
1/2-x,1/2+y,-z
1/2-x,1/2-y,-z
1/2+x,1/2+y,-z
1/2-x,1/2+y,z
1/2+x,1/2-y,z
loop_
_atom_site_type_symbol
_atom_site_label
_atom_site_fract_x
_atom_site_fract_y
_atom_site_fract_z
Si Si1 0.347847 0.000000 0.938132
Si Si2 0.849629 0.603359 0.560403
Si Si3 0.000000 0.755345 0.293285
Si Si4 0.758038 0.647105 0.861539
Si Si5 0.000000 0.605386 0.211891
Si Si6 0.750000 0.250000 0.635505
Si Si7 0.000000 0.898736 0.200307
O O1 0.283993 0.089000 0.913795
O O2 0.500000 0.000000 0.924141
O O3 0.320115 0.000000 0.000000
O O4 0.807545 0.621453 0.500000
O O5 0.826012 0.500000 0.575331
O O6 0.762400 0.662620 0.598887
O O7 0.000000 0.629320 0.568386
O O8 0.873496 0.767707 0.328374
O O9 0.000000 0.830694 0.248587
O O10 0.000000 0.656061 0.267911
O O11 0.750000 0.750000 0.879673
O O12 0.872215 0.634175 0.819447
O O13 0.624786 0.615712 0.835893
O O14 0.000000 0.500000 0.223678
O O15 0.000000 0.000000 0.222863
#
# Coordination Sequence:
#
# PCOD8274800 Si02
#       7
#     8  16   8  16   8   8   8
#     4  11  24  43  67  99 127 161 211 257 312 371
#     4   9  19  39  67  92 119 165 216 253 305 388
#     4  12  26  38  59  94 127 166 208 266 302 372
#     4  12  21  40  68  91 122 161 203 258 305 363
#     4  12  22  42  66  88 115 170 227 244 292 370
#     4  12  23  40  60  92 136 156 201 264 332 350
#     4  12  24  40  62  90 121 162 209 252 302 364
#
# _framework density 18.642813
#
# number of rings (size 3 to 8) (size 9 to 14) (size 15 to 20)
#    0.000    0.778    6.667    2.333    0.000    2.222 
#    0.000    1.111    0.000    1.333    0.000    0.000 
#    0.000    0.000    0.000    0.000    0.000    0.000 
#
# Total GULP energy -446587.667987 kJ/mol
# GULP energy per Si atom -12405.213000 kJ/mol
# Density = 1.860038 g / cm^3
# Si number density = 18.642813 Si / 1000 Ang^3
#
#
#
# Elastic Constant Matrix: (Units=GPa)
#
#
# Indices 1 2 3 4 5 6 
#
# 1 145.0425 52.7492 74.3305 0.0000 0.0000 0.0000
# 2 52.7492 173.7009 79.8910 0.0000 0.0000 0.0000
# 3 74.3305 79.8910 129.9878 0.0000 0.0000 0.0000
# 4 0.0000 0.0000 0.0000 14.1128 0.0000 0.0000
# 5 0.0000 0.0000 0.0000 0.0000 24.2803 0.0000
# 6 0.0000 0.0000 0.0000 0.0000 0.0000 26.8075
#
#
#
# Elastic Compliance Matrix: (Units=1/GPa)
#
#
# Indices 1 2 3 4 5 6 
#
# 1 0.009791 -0.000555 -0.005257 0.000000 0.000000 0.000000
# 2 -0.000555 0.008057 -0.004635 0.000000 0.000000 0.000000
# 3 -0.005257 -0.004635 0.013548 0.000000 0.000000 0.000000
# 4 0.000000 0.000000 0.000000 0.070857 0.000000 0.000000
# 5 0.000000 0.000000 0.000000 0.000000 0.041186 0.000000
# 6 0.000000 0.000000 0.000000 0.000000 0.000000 0.037303
#
#
# Mechanical properties :
#
#
# Convention : Reuss Voigt Hill
#
# Bulk Modulus (GPa) = 95.22460 95.85254 95.53857
# Shear Modulus (GPa) = 24.37403 29.15750 26.76577
#
# Velocity S-wave (km/s) = 3.61975 3.95904 3.79319
# Velocity P-wave (km/s) = 8.28610 8.51032 8.39896
#
# Compressibility (1/GPa) = 0.01050149
#
# Stress axis : x y z
#
# Youngs Moduli (GPa) = 102.13766 124.11277 73.81312
#
# Poissons Ratio (x) = 0.06890 0.38806
# Poissons Ratio (y) = 0.05670 0.34209
# Poissons Ratio (z) = 0.53698 0.57520
#
# Static dielectric constant tensor:
#      x y z
#    x 3.475070 0.000000 0.000000 
#    y 0.000000 3.776140 0.000000 
#    z 0.000000 0.000000 3.415850 
# 
# 
# High freq. dielectric constant tensor:
#      x y z
#    x 1.732150 0.000000 0.000000 
#    y 0.000000 1.740440 0.000000 
#    z 0.000000 0.000000 1.722600 
# 
# From -- ./inp_files/72642.got.cif
#   From: 2010.03.12/outbox.cif.g09.slc.cpg/sg65_37_cif.got.tgz:72642.got - 2010.04.10 20:52:16.
