data_PCOD8274390
_publ_section_title
;
Structure prediction by ZEFSAII (Michael W. Deem and Ramdas Pophale) SiO2 
 PCOD8274390
Probable space group: C M M M
;
_chemical_formula_sum "Si O2"
_cell_formula_units_Z 72
_cell_length_a 22.400116
_cell_length_b 18.932476
_cell_length_c 8.491849
_cell_angle_alpha 90.000000
_cell_angle_beta 90.000000
_cell_angle_gamma 90.000000
_cell_volume 3601.305343
_symmetry_space_group_name_H-M "C M M M"
_symmetry_group_IT_number 65
_symmetry_cell_setting 'orthorhombic'
loop_
_space_group_symop_operation_xyz
x,y,z
-x,-y,z
x,-y,-z
-x,y,-z
-x,-y,-z
x,y,-z
-x,y,z
x,-y,z
1/2+x,1/2+y,z
1/2-x,1/2-y,z
1/2+x,1/2-y,-z
1/2-x,1/2+y,-z
1/2-x,1/2-y,-z
1/2+x,1/2+y,-z
1/2-x,1/2+y,z
1/2+x,1/2-y,z
loop_
_atom_site_type_symbol
_atom_site_label
_atom_site_fract_x
_atom_site_fract_y
_atom_site_fract_z
Si Si1 0.568275 0.823565 0.815962
Si Si2 0.334194 0.918212 0.682146
Si Si3 0.500000 0.578698 0.686641
Si Si4 0.269379 0.327532 0.183118
Si Si5 0.393349 0.322845 0.315986
O O1 0.500000 0.822614 0.758536
O O2 0.601644 0.885082 0.721716
O O3 0.598572 0.748878 0.780437
O O4 0.573706 0.839285 0.000000
O O5 0.319107 0.905839 0.500000
O O6 0.283328 0.882380 0.786694
O O7 0.336779 0.000000 0.726333
O O8 0.500000 0.500000 0.760490
O O9 0.500000 0.573311 0.500000
O O10 0.441179 0.619866 0.744935
O O11 0.250000 0.250000 0.241916
O O12 0.327418 0.352406 0.280665
O O13 0.285572 0.326620 0.000000
O O14 0.402074 0.307307 0.500000
#
# Coordination Sequence:
#
# PCOD8274390 Si02
#       5
#    16  16   8  16  16
#     4  11  23  39  62  91 124 162 204 250 304 370
#     4  11  25  43  64  92 124 159 204 257 308 361
#     4   9  20  38  59  89 126 159 196 247 305 358
#     4  11  23  39  62  92 124 162 204 249 305 367
#     4  11  21  36  63  93 121 160 208 256 303 356
#
# _framework density 19.992750000000001
#
# number of rings (size 3 to 8) (size 9 to 14) (size 15 to 20)
#    0.000    1.222    3.333    2.667    0.000    5.333 
#    0.000    4.444    0.000    4.667    0.000    0.000 
#    0.000    0.000    0.000    0.000    0.000    0.000 
#
# Total GULP energy -446655.988140 kJ/mol
# GULP energy per Si atom -12407.110782 kJ/mol
# Density = 1.994725 g / cm^3
# Si number density = 19.992750 Si / 1000 Ang^3
#
#
#
# Elastic Constant Matrix: (Units=GPa)
#
#
# Indices 1 2 3 4 5 6 
#
# 1 127.6520 40.8330 17.8263 0.0000 0.0000 0.0000
# 2 40.8330 126.5309 25.8333 0.0000 0.0000 0.0000
# 3 17.8263 25.8333 42.1673 0.0000 0.0000 0.0000
# 4 0.0000 0.0000 0.0000 17.5916 0.0000 0.0000
# 5 0.0000 0.0000 0.0000 0.0000 33.6367 0.0000
# 6 0.0000 0.0000 0.0000 0.0000 0.0000 35.1773
#
#
#
# Elastic Compliance Matrix: (Units=1/GPa)
#
#
# Indices 1 2 3 4 5 6 
#
# 1 0.008926 -0.002412 -0.002296 0.000000 0.000000 0.000000
# 2 -0.002412 0.009685 -0.004914 0.000000 0.000000 0.000000
# 3 -0.002296 -0.004914 0.027696 0.000000 0.000000 0.000000
# 4 0.000000 0.000000 0.000000 0.056845 0.000000 0.000000
# 5 0.000000 0.000000 0.000000 0.000000 0.029729 0.000000
# 6 0.000000 0.000000 0.000000 0.000000 0.000000 0.028427
#
#
# Mechanical properties :
#
#
# Convention : Reuss Voigt Hill
#
# Bulk Modulus (GPa) = 36.94953 51.70393 44.32673
# Shear Modulus (GPa) = 26.37512 31.40497 28.89004
#
# Velocity S-wave (km/s) = 3.63607 3.96765 3.80547
# Velocity P-wave (km/s) = 6.01245 6.84888 6.44425
#
# Compressibility (1/GPa) = 0.02706394
#
# Stress axis : x y z
#
# Youngs Moduli (GPa) = 112.03377 103.25567 36.10635
#
# Poissons Ratio (x) = 0.24903 0.08290
# Poissons Ratio (y) = 0.27020 0.17741
# Poissons Ratio (z) = 0.25722 0.50736
#
# Static dielectric constant tensor:
#      x y z
#    x 3.798700 0.000000 0.000000 
#    y 0.000000 3.662440 0.000000 
#    z 0.000000 0.000000 3.470960 
# 
# 
# High freq. dielectric constant tensor:
#      x y z
#    x 1.796640 0.000000 0.000000 
#    y 0.000000 1.773290 0.000000 
#    z 0.000000 0.000000 1.776900 
# 
# From -- ./inp_files/11271.got.cif
#   From: 2010.03.12/outbox.cif.g09.slc.cpg/sg65_6_cif.got.tgz:11271.got - 2010.04.10 20:52:16.
