data_PCOD8274082
_publ_section_title
;
Structure prediction by ZEFSAII (Michael W. Deem and Ramdas Pophale) SiO2 
 PCOD8274082
Probable space group: C M M M
;
_chemical_formula_sum "Si O2"
_cell_formula_units_Z 64
_cell_length_a 32.960472
_cell_length_b 8.897398
_cell_length_c 10.791760
_cell_angle_alpha 90.000000
_cell_angle_beta 90.000000
_cell_angle_gamma 90.000000
_cell_volume 3164.817844
_symmetry_space_group_name_H-M "C M M M"
_symmetry_group_IT_number 65
_symmetry_cell_setting 'orthorhombic'
loop_
_space_group_symop_operation_xyz
x,y,z
-x,-y,z
x,-y,-z
-x,y,-z
-x,-y,-z
x,y,-z
-x,y,z
x,-y,z
1/2+x,1/2+y,z
1/2-x,1/2-y,z
1/2+x,1/2-y,-z
1/2-x,1/2+y,-z
1/2-x,1/2-y,-z
1/2+x,1/2+y,-z
1/2-x,1/2+y,z
1/2+x,1/2-y,z
loop_
_atom_site_type_symbol
_atom_site_label
_atom_site_fract_x
_atom_site_fract_y
_atom_site_fract_z
Si Si1 0.547892 0.670608 0.000000
Si Si2 0.427208 0.173551 0.243291
Si Si3 0.793081 0.321979 0.500000
Si Si4 0.704902 0.319223 0.000000
Si Si5 0.166048 0.675485 0.245573
Si Si6 0.500000 0.338323 0.640389
O O1 0.567411 0.755253 0.111732
O O2 0.562405 0.500000 0.000000
O O3 0.500000 0.687496 0.000000
O O4 0.380882 0.202931 0.278884
O O5 0.458843 0.248474 0.336232
O O6 0.438156 0.000000 0.239189
O O7 0.791363 0.500000 0.500000
O O8 0.750000 0.250000 0.500000
O O9 0.813430 0.265975 0.372120
O O10 0.750000 0.250000 0.000000
O O11 0.681309 0.266522 0.875411
O O12 0.707463 0.500000 0.000000
O O13 0.174815 0.500000 0.218967
O O14 0.500000 0.500000 0.714970
O O15 0.500000 0.380868 0.500000
#
# Coordination Sequence:
#
# PCOD8274082 Si02
#       6
#     8  16   8   8  16   8
#     4  11  22  37  58  84 122 161 198 249 310 363
#     4  11  23  39  64  92 121 159 209 259 307 366
#     4  10  22  42  66  93 126 161 201 250 309 374
#     4  12  25  42  67  96 129 168 211 257 315 379
#     4  10  23  42  65  95 130 164 207 262 316 373
#     4  11  25  42  59  84 123 167 209 257 308 365
#
# _framework density 20.222332999999999
#
# number of rings (size 3 to 8) (size 9 to 14) (size 15 to 20)
#    0.000    1.250    1.250    4.125    1.750    9.500 
#    0.000    0.000    0.000    0.000    0.000    0.000 
#    0.000    0.000    0.000    0.000    0.000    0.000 
#
# Total GULP energy -396645.689450 kJ/mol
# GULP energy per Si atom -12395.177795 kJ/mol
# Density = 2.017631 g / cm^3
# Si number density = 20.222333 Si / 1000 Ang^3
#
#
#
# Elastic Constant Matrix: (Units=GPa)
#
#
# Indices 1 2 3 4 5 6 
#
# 1 221.1637 115.6403 89.4003 0.0000 0.0000 0.0000
# 2 115.6403 150.6222 71.5117 0.0000 0.0000 0.0000
# 3 89.4003 71.5117 161.6819 0.0000 0.0000 0.0000
# 4 0.0000 0.0000 0.0000 24.6304 0.0000 0.0000
# 5 0.0000 0.0000 0.0000 0.0000 32.0911 0.0000
# 6 0.0000 0.0000 0.0000 0.0000 0.0000 32.8209
#
#
#
# Elastic Compliance Matrix: (Units=1/GPa)
#
#
# Indices 1 2 3 4 5 6 
#
# 1 0.008126 -0.005197 -0.002195 0.000000 0.000000 0.000000
# 2 -0.005197 0.011727 -0.002314 0.000000 0.000000 0.000000
# 3 -0.002195 -0.002314 0.008422 0.000000 0.000000 0.000000
# 4 0.000000 0.000000 0.000000 0.040600 0.000000 0.000000
# 5 0.000000 0.000000 0.000000 0.000000 0.031161 0.000000
# 6 0.000000 0.000000 0.000000 0.000000 0.000000 0.030468
#
#
# Mechanical properties :
#
#
# Convention : Reuss Voigt Hill
#
# Bulk Modulus (GPa) = 112.79997 120.73026 116.76511
# Shear Modulus (GPa) = 32.70761 35.03617 33.87189
#
# Velocity S-wave (km/s) = 4.02606 4.16690 4.09709
# Velocity P-wave (km/s) = 8.80416 9.10944 8.95810
#
# Compressibility (1/GPa) = 0.00886525
#
# Stress axis : x y z
#
# Youngs Moduli (GPa) = 123.06376 85.27123 118.74034
#
# Poissons Ratio (x) = 0.44313 0.26059
# Poissons Ratio (y) = 0.63952 0.27471
# Poissons Ratio (z) = 0.27008 0.19728
#
# Static dielectric constant tensor:
#      x y z
#    x 2.982240 0.000000 0.000000 
#    y 0.000000 3.860120 0.000000 
#    z 0.000000 0.000000 3.872950 
# 
# 
# High freq. dielectric constant tensor:
#      x y z
#    x 1.804680 0.000000 0.000000 
#    y 0.000000 1.797630 0.000000 
#    z 0.000000 0.000000 1.803920 
# 
# From -- ./inp_files/33282.got.cif
#   From: 2010.03.12/outbox.cif.g09.slc.cpg/sg65_17_cif.got.tgz:33282.got - 2010.04.10 20:52:16.
