data_PCOD8274335
_publ_section_title
;
Structure prediction by ZEFSAII (Michael W. Deem and Ramdas Pophale) SiO2 
 PCOD8274335
Probable space group: C M M M
;
_chemical_formula_sum "Si O2"
_cell_formula_units_Z 48
_cell_length_a 8.789758
_cell_length_b 18.480503
_cell_length_c 16.997043
_cell_angle_alpha 90.000000
_cell_angle_beta 90.000000
_cell_angle_gamma 90.000000
_cell_volume 2760.985202
_symmetry_space_group_name_H-M "C M M M"
_symmetry_group_IT_number 65
_symmetry_cell_setting 'orthorhombic'
loop_
_space_group_symop_operation_xyz
x,y,z
-x,-y,z
x,-y,-z
-x,y,-z
-x,-y,-z
x,y,-z
-x,y,z
x,-y,z
1/2+x,1/2+y,z
1/2-x,1/2-y,z
1/2+x,1/2-y,-z
1/2-x,1/2+y,-z
1/2-x,1/2-y,-z
1/2+x,1/2+y,-z
1/2-x,1/2+y,z
1/2+x,1/2-y,z
loop_
_atom_site_type_symbol
_atom_site_label
_atom_site_fract_x
_atom_site_fract_y
_atom_site_fract_z
Si Si1 0.180085 0.671755 0.851154
Si Si2 0.319136 0.081111 0.000000
Si Si3 0.680175 0.000000 0.409999
Si Si4 0.327220 0.579968 0.719370
O O1 0.250000 0.750000 0.862631
O O2 0.233841 0.637456 0.769492
O O3 0.000000 0.678004 0.850763
O O4 0.240224 0.622402 0.922709
O O5 0.500000 0.078620 0.000000
O O6 0.251700 0.000000 0.000000
O O7 0.748645 0.071697 0.366893
O O8 0.500000 0.000000 0.401734
O O9 0.733609 0.000000 0.500000
O O10 0.500000 0.607447 0.709533
O O11 0.322840 0.500000 0.760256
#
# Coordination Sequence:
#
# PCOD8274335 Si02
#       4
#    16   8   8  16
#     4  11  21  34  53  75 107 144 182 223 268 318
#     4   9  19  34  53  77 102 137 183 228 269 312
#     4   9  17  31  55  84 109 136 173 213 258 313
#     4   9  19  33  52  78 108 137 175 218 262 311
#
# _framework density 17.385097999999999
#
# number of rings (size 3 to 8) (size 9 to 14) (size 15 to 20)
#    1.000    1.333    0.000    3.500    0.000    2.667 
#    0.000    2.500    0.000    7.000    0.000    0.000 
#    0.000    0.000    0.000    0.000    0.000    0.000 
#
# Total GULP energy -297470.549361 kJ/mol
# GULP energy per Si atom -12394.606223 kJ/mol
# Density = 1.734553 g / cm^3
# Si number density = 17.385098 Si / 1000 Ang^3
#
#
#
# Elastic Constant Matrix: (Units=GPa)
#
#
# Indices 1 2 3 4 5 6 
#
# 1 90.6847 41.3090 49.4307 0.0000 0.0000 0.0000
# 2 41.3090 120.5527 69.3668 0.0000 0.0000 0.0000
# 3 49.4307 69.3668 147.5871 0.0000 0.0000 0.0000
# 4 0.0000 0.0000 0.0000 -19.2001 0.0000 0.0000
# 5 0.0000 0.0000 0.0000 0.0000 18.2038 0.0000
# 6 0.0000 0.0000 0.0000 0.0000 0.0000 28.6650
#
#
#
# Elastic Compliance Matrix: (Units=1/GPa)
#
#
# Indices 1 2 3 4 5 6 
#
# 1 0.014202 -0.002919 -0.003385 0.000000 0.000000 0.000000
# 2 -0.002919 0.011970 -0.004648 0.000000 0.000000 0.000000
# 3 -0.003385 -0.004648 0.010094 0.000000 0.000000 0.000000
# 4 0.000000 0.000000 0.000000 -0.052083 0.000000 0.000000
# 5 0.000000 0.000000 0.000000 0.000000 0.054934 0.000000
# 6 0.000000 0.000000 0.000000 0.000000 0.000000 0.034886
#
#
# Mechanical properties :
#
#
# Convention : Reuss Voigt Hill
#
# Bulk Modulus (GPa) = 69.62809 75.44860 72.53834
# Shear Modulus (GPa) = 49.65577 18.78161 34.21869
#
# Velocity S-wave (km/s) = 5.35016 3.29040 4.44134
# Velocity P-wave (km/s) = 8.84890 7.61106 8.25322
#
# Compressibility (1/GPa) = 0.01436202
#
# Stress axis : x y z
#
# Youngs Moduli (GPa) = 70.41384 83.54207 99.06851
#
# Poissons Ratio (x) = 0.24385 0.33531
# Poissons Ratio (y) = 0.20553 0.46051
# Poissons Ratio (z) = 0.23833 0.38833
#
# Static dielectric constant tensor:
#      x y z
#    x 3.155400 0.000000 0.000000 
#    y 0.000000 3.240330 0.000000 
#    z 0.000000 0.000000 3.182420 
# 
# 
# High freq. dielectric constant tensor:
#      x y z
#    x 1.675330 0.000000 0.000000 
#    y 0.000000 1.655040 0.000000 
#    z 0.000000 0.000000 1.663230 
# 
# From -- ./inp_files/35209.got.cif
#   From: 2010.03.12/outbox.cif.g09.slc.cpg/sg65_18_cif.got.tgz:35209.got - 2010.04.10 20:52:16.
