data_PCOD8274492
_publ_section_title
;
Structure prediction by ZEFSAII (Michael W. Deem and Ramdas Pophale) SiO2 
 PCOD8274492
Probable space group: C M M M
;
_chemical_formula_sum "Si O2"
_cell_formula_units_Z 72
_cell_length_a 8.808598
_cell_length_b 16.202781
_cell_length_c 24.586367
_cell_angle_alpha 90.000000
_cell_angle_beta 90.000000
_cell_angle_gamma 90.000000
_cell_volume 3509.059341
_symmetry_space_group_name_H-M "C M M M"
_symmetry_group_IT_number 65
_symmetry_cell_setting 'orthorhombic'
loop_
_space_group_symop_operation_xyz
x,y,z
-x,-y,z
x,-y,-z
-x,y,-z
-x,-y,-z
x,y,-z
-x,y,z
x,-y,z
1/2+x,1/2+y,z
1/2-x,1/2-y,z
1/2+x,1/2-y,-z
1/2-x,1/2+y,-z
1/2-x,1/2-y,-z
1/2+x,1/2+y,-z
1/2-x,1/2+y,z
1/2+x,1/2-y,z
loop_
_atom_site_type_symbol
_atom_site_label
_atom_site_fract_x
_atom_site_fract_y
_atom_site_fract_z
Si Si1 0.325914 0.500000 0.064299
Si Si2 0.179565 0.591276 0.771079
Si Si3 0.333136 0.403914 0.559233
Si Si4 0.676894 0.163536 0.340424
Si Si5 0.319945 0.162566 0.883881
O O1 0.500000 0.500000 0.084673
O O2 0.244586 0.583764 0.084068
O O3 0.316747 0.500000 0.000000
O O4 0.246565 0.500000 0.782660
O O5 0.249047 0.623977 0.714281
O O6 0.224954 0.651507 0.820446
O O7 0.000000 0.585073 0.766252
O O8 0.281359 0.367577 0.500000
O O9 0.500000 0.366903 0.574694
O O10 0.350062 0.500000 0.552661
O O11 0.210293 0.389019 0.605985
O O12 0.500000 0.172622 0.331930
O O13 0.750000 0.250000 0.351666
O O14 0.500000 0.165080 0.892992
O O15 0.250000 0.250000 0.904207
#
# Coordination Sequence:
#
# PCOD8274492 Si02
#       5
#     8  16  16  16  16
#     4  11  25  45  67  95 131 169 216 267 312 367
#     4   9  18  35  59  87 119 155 195 244 302 359
#     4   9  19  37  58  78 104 139 182 235 293 353
#     4  11  22  35  54  80 114 150 189 237 290 351
#     4  11  22  40  67  96 131 171 212 260 315 374
#
# _framework density 20.518319000000002
#
# number of rings (size 3 to 8) (size 9 to 14) (size 15 to 20)
#    0.000    1.889    1.111    3.667    0.000    3.556 
#    0.000    4.444    0.000    0.000    0.000    0.000 
#    0.000    0.000    0.000    0.000    0.000    0.000 
#
# Total GULP energy -446197.568595 kJ/mol
# GULP energy per Si atom -12394.376905 kJ/mol
# Density = 2.047162 g / cm^3
# Si number density = 20.518319 Si / 1000 Ang^3
#
#
#
# Elastic Constant Matrix: (Units=GPa)
#
#
# Indices 1 2 3 4 5 6 
#
# 1 84.3482 42.4392 39.7954 0.0000 0.0000 0.0000
# 2 42.4392 123.7840 40.9782 0.0000 0.0000 0.0000
# 3 39.7954 40.9782 109.1899 0.0000 0.0000 0.0000
# 4 0.0000 0.0000 0.0000 10.1903 0.0000 0.0000
# 5 0.0000 0.0000 0.0000 0.0000 32.8183 0.0000
# 6 0.0000 0.0000 0.0000 0.0000 0.0000 22.7202
#
#
#
# Elastic Compliance Matrix: (Units=1/GPa)
#
#
# Indices 1 2 3 4 5 6 
#
# 1 0.015907 -0.004036 -0.004283 0.000000 0.000000 0.000000
# 2 -0.004036 0.010249 -0.002375 0.000000 0.000000 0.000000
# 3 -0.004283 -0.002375 0.011611 0.000000 0.000000 0.000000
# 4 0.000000 0.000000 0.000000 0.098133 0.000000 0.000000
# 5 0.000000 0.000000 0.000000 0.000000 0.030471 0.000000
# 6 0.000000 0.000000 0.000000 0.000000 0.000000 0.044014
#
#
# Mechanical properties :
#
#
# Convention : Reuss Voigt Hill
#
# Bulk Modulus (GPa) = 61.05660 62.63861 61.84760
# Shear Modulus (GPa) = 21.07654 26.08639 23.58146
#
# Velocity S-wave (km/s) = 3.20848 3.56950 3.39379
# Velocity P-wave (km/s) = 6.59905 6.89803 6.75020
#
# Compressibility (1/GPa) = 0.01637825
#
# Stress axis : x y z
#
# Youngs Moduli (GPa) = 62.86612 97.57425 86.12739
#
# Poissons Ratio (x) = 0.39379 0.36887
# Poissons Ratio (y) = 0.25372 0.20458
# Poissons Ratio (z) = 0.26924 0.23177
#
# Static dielectric constant tensor:
#      x y z
#    x 3.805550 0.000000 0.000000 
#    y 0.000000 3.722090 0.000000 
#    z 0.000000 0.000000 4.034300 
# 
# 
# High freq. dielectric constant tensor:
#      x y z
#    x 1.781550 0.000000 0.000000 
#    y 0.000000 1.805370 0.000000 
#    z 0.000000 0.000000 1.813530 
# 
# From -- ./inp_files/72493.got.cif
#   From: 2010.03.12/outbox.cif.g09.slc.cpg/sg65_37_cif.got.tgz:72493.got - 2010.04.10 20:52:16.
