data_PCOD8274221
_publ_section_title
;
Structure prediction by ZEFSAII (Michael W. Deem and Ramdas Pophale) SiO2 
 PCOD8274221
Probable space group: C M M M
;
_chemical_formula_sum "Si O2"
_cell_formula_units_Z 96
_cell_length_a 23.940778
_cell_length_b 25.194362
_cell_length_c 8.894350
_cell_angle_alpha 90.000000
_cell_angle_beta 90.000000
_cell_angle_gamma 90.000000
_cell_volume 5364.828459
_symmetry_space_group_name_H-M "C M M M"
_symmetry_group_IT_number 65
_symmetry_cell_setting 'orthorhombic'
loop_
_space_group_symop_operation_xyz
x,y,z
-x,-y,z
x,-y,-z
-x,y,-z
-x,-y,-z
x,y,-z
-x,y,z
x,-y,z
1/2+x,1/2+y,z
1/2-x,1/2-y,z
1/2+x,1/2-y,-z
1/2-x,1/2+y,-z
1/2-x,1/2-y,-z
1/2+x,1/2+y,-z
1/2-x,1/2+y,z
1/2+x,1/2-y,z
loop_
_atom_site_type_symbol
_atom_site_label
_atom_site_fract_x
_atom_site_fract_y
_atom_site_fract_z
Si Si1 0.859392 0.656023 0.675627
Si Si2 0.253391 0.810385 0.163407
Si Si3 0.937483 0.750226 0.678416
Si Si4 0.184582 0.060896 0.174929
Si Si5 0.642666 0.344019 0.676834
Si Si6 0.687112 0.058928 0.824828
O O1 0.867853 0.647581 0.500000
O O2 0.799592 0.680961 0.709805
O O3 0.905566 0.697575 0.739955
O O4 0.859680 0.598045 0.754063
O O5 0.250000 0.750000 0.125043
O O6 0.194323 0.826445 0.225729
O O7 0.266240 0.839056 0.000000
O O8 0.938317 0.746734 0.500000
O O9 0.908823 0.806181 0.725579
O O10 0.000000 0.750158 0.745398
O O11 0.138463 0.094026 0.272433
O O12 0.249217 0.080026 0.207208
O O13 0.179081 0.000000 0.225014
O O14 0.170428 0.067184 0.000000
O O15 0.653506 0.339322 0.500000
O O16 0.680154 0.000000 0.754209
O O17 0.675807 0.054847 0.000000
#
# Coordination Sequence:
#
# PCOD8274221 Si02
#       6
#    16  16  16  16  16  16
#     4  11  20  31  52  78 103 131 171 214 250 298
#     4  11  21  31  46  71 106 141 165 195 253 316
#     4   9  20  37  53  72 102 137 168 209 264 307
#     4   9  18  32  49  72 106 144 171 196 245 308
#     4  11  20  31  52  78 103 131 171 214 250 298
#     4   9  18  32  49  72 106 144 171 196 245 308
#
# _framework density 17.894327000000001
#
# number of rings (size 3 to 8) (size 9 to 14) (size 15 to 20)
#    0.000    2.000    3.333    2.500    0.000    1.333 
#    0.000    1.667    0.000    9.000    0.000    7.000 
#    0.000    0.000    0.000    0.000    0.000    0.000 
#
# Total GULP energy -594647.261158 kJ/mol
# GULP energy per Si atom -12388.484607 kJ/mol
# Density = 1.785360 g / cm^3
# Si number density = 17.894327 Si / 1000 Ang^3
#
#
#
# Elastic Constant Matrix: (Units=GPa)
#
#
# Indices 1 2 3 4 5 6 
#
# 1 86.5379 51.4189 13.8663 0.0000 0.0000 0.0000
# 2 51.4189 126.6116 28.3574 0.0000 0.0000 0.0000
# 3 13.8663 28.3574 44.0319 0.0000 0.0000 0.0000
# 4 0.0000 0.0000 0.0000 30.8951 0.0000 0.0000
# 5 0.0000 0.0000 0.0000 0.0000 10.3966 0.0000
# 6 0.0000 0.0000 0.0000 0.0000 0.0000 15.8934
#
#
#
# Elastic Compliance Matrix: (Units=1/GPa)
#
#
# Indices 1 2 3 4 5 6 
#
# 1 0.015265 -0.005986 -0.000952 0.000000 0.000000 0.000000
# 2 -0.005986 0.011577 -0.005571 0.000000 0.000000 0.000000
# 3 -0.000952 -0.005571 0.026598 0.000000 0.000000 0.000000
# 4 0.000000 0.000000 0.000000 0.032368 0.000000 0.000000
# 5 0.000000 0.000000 0.000000 0.000000 0.096186 0.000000
# 6 0.000000 0.000000 0.000000 0.000000 0.000000 0.062919
#
#
# Mechanical properties :
#
#
# Convention : Reuss Voigt Hill
#
# Bulk Modulus (GPa) = 35.18327 49.38518 42.28422
# Shear Modulus (GPa) = 17.89521 22.33959 20.11740
#
# Velocity S-wave (km/s) = 3.16579 3.53713 3.35660
# Velocity P-wave (km/s) = 5.75042 6.65882 6.22122
#
# Compressibility (1/GPa) = 0.02842260
#
# Stress axis : x y z
#
# Youngs Moduli (GPa) = 65.50940 86.37901 37.59651
#
# Poissons Ratio (x) = 0.51708 0.03579
# Poissons Ratio (y) = 0.39215 0.20944
# Poissons Ratio (z) = 0.06237 0.48118
#
# Static dielectric constant tensor:
#      x y z
#    x 3.104210 0.000000 0.000000 
#    y 0.000000 3.882490 0.000000 
#    z 0.000000 0.000000 3.112860 
# 
# 
# High freq. dielectric constant tensor:
#      x y z
#    x 1.640330 0.000000 0.000000 
#    y 0.000000 1.722170 0.000000 
#    z 0.000000 0.000000 1.680260 
# 
# From -- ./inp_files/12287.got.cif
#   From: 2010.03.12/outbox.cif.g09.slc.cpg/sg65_7_cif.got.tgz:12287.got - 2010.04.10 20:52:16.
