data_PCOD8274119
_publ_section_title
;
Structure prediction by ZEFSAII (Michael W. Deem and Ramdas Pophale) SiO2 
 PCOD8274119
Probable space group: C M M M
;
_chemical_formula_sum "Si O2"
_cell_formula_units_Z 56
_cell_length_a 16.877457
_cell_length_b 18.456702
_cell_length_c 8.922077
_cell_angle_alpha 90.000000
_cell_angle_beta 90.000000
_cell_angle_gamma 90.000000
_cell_volume 2779.246564
_symmetry_space_group_name_H-M "C M M M"
_symmetry_group_IT_number 65
_symmetry_cell_setting 'orthorhombic'
loop_
_space_group_symop_operation_xyz
x,y,z
-x,-y,z
x,-y,-z
-x,y,-z
-x,-y,-z
x,y,-z
-x,y,z
x,-y,z
1/2+x,1/2+y,z
1/2-x,1/2-y,z
1/2+x,1/2-y,-z
1/2-x,1/2+y,-z
1/2-x,1/2-y,-z
1/2+x,1/2+y,-z
1/2-x,1/2+y,z
1/2+x,1/2-y,z
loop_
_atom_site_type_symbol
_atom_site_label
_atom_site_fract_x
_atom_site_fract_y
_atom_site_fract_z
Si Si1 0.354469 0.839893 0.176828
Si Si2 0.092074 0.802017 0.675281
Si Si3 0.000000 0.585472 0.331118
Si Si4 0.691637 0.416738 0.175668
O O1 0.356442 0.758968 0.241502
O O2 0.422781 0.888440 0.246165
O O3 0.272191 0.876672 0.222155
O O4 0.366066 0.836417 0.000000
O O5 0.108618 0.797459 0.500000
O O6 0.119003 0.880106 0.736295
O O7 0.000000 0.790052 0.712960
O O8 0.000000 0.500000 0.334013
O O9 0.000000 0.617636 0.500000
O O10 0.697240 0.500000 0.226073
O O11 0.675327 0.409882 0.000000
#
# Coordination Sequence:
#
# PCOD8274119 Si02
#       4
#    16  16   8  16
#     4  11  22  39  64  91 121 160 206 253 304 363
#     4  11  24  41  62  90 125 162 204 254 308 366
#     4  11  23  37  57  89 128 165 200 245 303 365
#     4  10  23  42  63  90 123 159 205 258 308 362
#
# _framework density 20.149345
#
# number of rings (size 3 to 8) (size 9 to 14) (size 15 to 20)
#    0.000    1.286    1.429    3.857    0.000   10.857 
#    0.000    2.857    0.000    0.000    0.000    0.000 
#    0.000    0.000    0.000    0.000    0.000    0.000 
#
# Total GULP energy -347398.516992 kJ/mol
# GULP energy per Si atom -12407.089893 kJ/mol
# Density = 2.010348 g / cm^3
# Si number density = 20.149345 Si / 1000 Ang^3
#
#
#
# Elastic Constant Matrix: (Units=GPa)
#
#
# Indices 1 2 3 4 5 6 
#
# 1 50.0538 50.1038 41.3709 0.0000 0.0000 0.0000
# 2 50.1038 146.5317 55.5249 0.0000 0.0000 0.0000
# 3 41.3709 55.5249 83.6240 0.0000 0.0000 0.0000
# 4 0.0000 0.0000 0.0000 34.0182 0.0000 0.0000
# 5 0.0000 0.0000 0.0000 0.0000 47.4476 0.0000
# 6 0.0000 0.0000 0.0000 0.0000 0.0000 40.0653
#
#
#
# Elastic Compliance Matrix: (Units=1/GPa)
#
#
# Indices 1 2 3 4 5 6 
#
# 1 0.040136 -0.008284 -0.014356 0.000000 0.000000 0.000000
# 2 -0.008284 0.010829 -0.003092 0.000000 0.000000 0.000000
# 3 -0.014356 -0.003092 0.021113 0.000000 0.000000 0.000000
# 4 0.000000 0.000000 0.000000 0.029396 0.000000 0.000000
# 5 0.000000 0.000000 0.000000 0.000000 0.021076 0.000000
# 6 0.000000 0.000000 0.000000 0.000000 0.000000 0.024959
#
#
# Mechanical properties :
#
#
# Convention : Reuss Voigt Hill
#
# Bulk Modulus (GPa) = 48.50850 63.80096 56.15473
# Shear Modulus (GPa) = 24.29016 33.18690 28.73853
#
# Velocity S-wave (km/s) = 3.47581 4.06278 3.78070
# Velocity P-wave (km/s) = 6.34311 7.33083 6.85478
#
# Compressibility (1/GPa) = 0.02061494
#
# Stress axis : x y z
#
# Youngs Moduli (GPa) = 24.91500 92.34855 47.36324
#
# Poissons Ratio (x) = 0.76501 0.67995
# Poissons Ratio (y) = 0.20640 0.14643
# Poissons Ratio (z) = 0.35768 0.28551
#
# Static dielectric constant tensor:
#      x y z
#    x 3.575580 0.000000 0.000000 
#    y 0.000000 3.815010 0.000000 
#    z 0.000000 0.000000 3.726530 
# 
# 
# High freq. dielectric constant tensor:
#      x y z
#    x 1.792320 0.000000 0.000000 
#    y 0.000000 1.801340 0.000000 
#    z 0.000000 0.000000 1.793460 
# 
# From -- ./inp_files/6228.got.cif
#   From: 2010.03.12/outbox.cif.g09.slc.cpg/sg65_4_cif.got.tgz:6228.got - 2010.04.10 20:52:16.
