data_PCOD8274582
_publ_section_title
;
Structure prediction by ZEFSAII (Michael W. Deem and Ramdas Pophale) SiO2 
 PCOD8274582
Probable space group: C M M M
;
_chemical_formula_sum "Si O2"
_cell_formula_units_Z 72
_cell_length_a 32.509198
_cell_length_b 14.321446
_cell_length_c 7.570312
_cell_angle_alpha 90.000000
_cell_angle_beta 90.000000
_cell_angle_gamma 90.000000
_cell_volume 3524.576199
_symmetry_space_group_name_H-M "C M M M"
_symmetry_group_IT_number 65
_symmetry_cell_setting 'orthorhombic'
loop_
_space_group_symop_operation_xyz
x,y,z
-x,-y,z
x,-y,-z
-x,y,-z
-x,-y,-z
x,y,-z
-x,y,z
x,-y,z
1/2+x,1/2+y,z
1/2-x,1/2-y,z
1/2+x,1/2-y,-z
1/2-x,1/2+y,-z
1/2-x,1/2-y,-z
1/2+x,1/2+y,-z
1/2-x,1/2+y,z
1/2+x,1/2-y,z
loop_
_atom_site_type_symbol
_atom_site_label
_atom_site_fract_x
_atom_site_fract_y
_atom_site_fract_z
Si Si1 0.546783 0.105284 0.293135
Si Si2 0.742939 0.896280 0.210292
Si Si3 0.093621 0.781407 0.800166
Si Si4 0.048272 0.891416 0.500000
Si Si5 0.814506 0.235035 0.790503
O O1 0.549722 0.126444 0.500000
O O2 0.500000 0.119053 0.228603
O O3 0.576064 0.176459 0.191200
O O4 0.561406 0.000000 0.250463
O O5 0.786138 0.851105 0.273451
O O6 0.705266 0.832202 0.279703
O O7 0.738842 0.000000 0.291600
O O8 0.742359 0.900112 0.000000
O O9 0.066209 0.847068 0.677857
O O10 0.139504 0.778241 0.717520
O O11 0.093565 0.821840 0.000000
O O12 0.000000 0.872012 0.500000
O O13 0.059091 0.000000 0.500000
O O14 0.815919 0.239284 0.000000
#
# Coordination Sequence:
#
# PCOD8274582 Si02
#       5
#    16  16  16   8  16
#     4   9  18  34  56  82 114 151 189 230 282 348
#     4   8  13  25  46  71 108 153 186 222 276 333
#     4  11  22  37  61  90 119 151 192 245 296 342
#     4  11  26  46  63  82 113 153 198 246 297 351
#     4   8  16  28  45  78 113 142 186 233 276 335
#
# _framework density 20.427987000000002
#
# number of rings (size 3 to 8) (size 9 to 14) (size 15 to 20)
#    0.000    2.778    1.111    2.667    0.000    4.444 
#    0.000    6.667    0.000    2.667    0.000    1.556 
#    0.000    0.000    0.000    0.000    0.000    0.000 
#
# Total GULP energy -446278.591395 kJ/mol
# GULP energy per Si atom -12396.627539 kJ/mol
# Density = 2.038149 g / cm^3
# Si number density = 20.427987 Si / 1000 Ang^3
#
#
#
# Elastic Constant Matrix: (Units=GPa)
#
#
# Indices 1 2 3 4 5 6 
#
# 1 139.8325 74.8624 32.8401 0.0000 0.0000 0.0000
# 2 74.8624 156.0648 30.2045 0.0000 0.0000 0.0000
# 3 32.8401 30.2045 61.6229 0.0000 0.0000 0.0000
# 4 0.0000 0.0000 0.0000 12.3523 0.0000 0.0000
# 5 0.0000 0.0000 0.0000 0.0000 243.0025 0.0000
# 6 0.0000 0.0000 0.0000 0.0000 0.0000 14.7138
#
#
#
# Elastic Compliance Matrix: (Units=1/GPa)
#
#
# Indices 1 2 3 4 5 6 
#
# 1 0.010216 -0.004250 -0.003361 0.000000 0.000000 0.000000
# 2 -0.004250 0.008847 -0.002072 0.000000 0.000000 0.000000
# 3 -0.003361 -0.002072 0.019034 0.000000 0.000000 0.000000
# 4 0.000000 0.000000 0.000000 0.080957 0.000000 0.000000
# 5 0.000000 0.000000 0.000000 0.000000 0.004115 0.000000
# 6 0.000000 0.000000 0.000000 0.000000 0.000000 0.067963
#
#
# Mechanical properties :
#
#
# Convention : Reuss Voigt Hill
#
# Bulk Modulus (GPa) = 53.38426 70.37047 61.87736
# Shear Modulus (GPa) = 23.06883 68.65461 45.86172
#
# Velocity S-wave (km/s) = 3.36412 5.80354 4.74333
# Velocity P-wave (km/s) = 6.42490 8.91240 7.76886
#
# Compressibility (1/GPa) = 0.01873211
#
# Stress axis : x y z
#
# Youngs Moduli (GPa) = 97.88413 113.03009 52.53654
#
# Poissons Ratio (x) = 0.48038 0.17659
# Poissons Ratio (y) = 0.41601 0.10883
# Poissons Ratio (z) = 0.32901 0.23414
#
# Static dielectric constant tensor:
#      x y z
#    x 3.953360 0.000000 0.000000 
#    y 0.000000 3.904590 0.000000 
#    z 0.000000 0.000000 3.276300 
# 
# 
# High freq. dielectric constant tensor:
#      x y z
#    x 1.798160 0.000000 0.000000 
#    y 0.000000 1.796770 0.000000 
#    z 0.000000 0.000000 1.775410 
# 
# From -- ./inp_files/18011.got.cif
#   From: 2010.03.12/outbox.cif.g09.slc.cpg/sg65_10_cif.got.tgz:18011.got - 2010.04.10 20:52:16.
