data_PCOD8274516
_publ_section_title
;
Structure prediction by ZEFSAII (Michael W. Deem and Ramdas Pophale) SiO2 
 PCOD8274516
Probable space group: C M M M
;
_chemical_formula_sum "Si O2"
_cell_formula_units_Z 88
_cell_length_a 9.345338
_cell_length_b 18.027236
_cell_length_c 28.468936
_cell_angle_alpha 90.000000
_cell_angle_beta 90.000000
_cell_angle_gamma 90.000000
_cell_volume 4796.179117
_symmetry_space_group_name_H-M "C M M M"
_symmetry_group_IT_number 65
_symmetry_cell_setting 'orthorhombic'
loop_
_space_group_symop_operation_xyz
x,y,z
-x,-y,z
x,-y,-z
-x,y,-z
-x,-y,-z
x,y,-z
-x,y,z
x,-y,z
1/2+x,1/2+y,z
1/2-x,1/2-y,z
1/2+x,1/2-y,-z
1/2-x,1/2+y,-z
1/2-x,1/2-y,-z
1/2+x,1/2+y,-z
1/2-x,1/2+y,z
1/2+x,1/2-y,z
loop_
_atom_site_type_symbol
_atom_site_label
_atom_site_fract_x
_atom_site_fract_y
_atom_site_fract_z
Si Si1 0.339843 0.911308 0.361340
Si Si2 0.834349 0.913095 0.830374
Si Si3 0.829093 0.327441 0.091130
Si Si4 0.160678 0.911803 0.448226
Si Si5 0.669055 0.082531 0.000000
Si Si6 0.158150 0.911923 0.724875
O O1 0.500000 0.880524 0.361900
O O2 0.261917 0.878994 0.407635
O O3 0.265522 0.879728 0.314208
O O4 0.336413 0.000000 0.361486
O O5 0.724796 0.869013 0.862702
O O6 0.795174 0.888403 0.777273
O O7 0.000000 0.893491 0.841613
O O8 0.807671 0.000000 0.837724
O O9 0.750000 0.250000 0.086849
O O10 0.000000 0.316645 0.093566
O O11 0.779188 0.374711 0.046207
O O12 0.214710 0.886142 0.500000
O O13 0.000000 0.882694 0.439491
O O14 0.161743 0.000000 0.445760
O O15 0.500000 0.076552 0.000000
O O16 0.736911 0.000000 0.000000
O O17 0.000000 0.880807 0.713779
O O18 0.154303 0.000000 0.722271
#
# Coordination Sequence:
#
# PCOD8274516 Si02
#       6
#    16  16  16  16   8  16
#     4   9  15  20  28  45  68  93 126 173 224 271
#     4   9  18  33  52  74  99 126 161 205 249 294
#     4  11  22  36  55  77 105 138 169 203 243 290
#     4   8  13  20  28  37  53  84 127 171 216 270
#     4   9  19  36  57  81 106 133 168 207 246 288
#     4   8  14  25  40  56  77 107 140 178 226 278
#
# _framework density 18.347939
#
# number of rings (size 3 to 8) (size 9 to 14) (size 15 to 20)
#    0.000    3.000    0.000    3.545    0.000    4.364 
#    0.000    5.000    0.000    3.273    0.000    0.000 
#    0.000    0.000    0.000    0.000    0.000    0.909 
#
# Total GULP energy -545371.735713 kJ/mol
# GULP energy per Si atom -12394.812175 kJ/mol
# Density = 1.830618 g / cm^3
# Si number density = 18.347939 Si / 1000 Ang^3
#
#
#
# Elastic Constant Matrix: (Units=GPa)
#
#
# Indices 1 2 3 4 5 6 
#
# 1 120.2128 36.7575 93.7909 0.0000 0.0000 0.0000
# 2 36.7575 50.7071 42.6816 0.0000 0.0000 0.0000
# 3 93.7909 42.6816 181.6735 0.0000 0.0000 0.0000
# 4 0.0000 0.0000 0.0000 -0.7474 0.0000 0.0000
# 5 0.0000 0.0000 0.0000 0.0000 28.3205 0.0000
# 6 0.0000 0.0000 0.0000 0.0000 0.0000 10.3219
#
#
#
# Elastic Compliance Matrix: (Units=1/GPa)
#
#
# Indices 1 2 3 4 5 6 
#
# 1 0.015046 -0.005445 -0.006488 0.000000 0.000000 0.000000
# 2 -0.005445 0.026553 -0.003427 0.000000 0.000000 0.000000
# 3 -0.006488 -0.003427 0.009659 0.000000 0.000000 0.000000
# 4 0.000000 0.000000 0.000000 -1.337915 0.000000 0.000000
# 5 0.000000 0.000000 0.000000 0.000000 0.035310 0.000000
# 6 0.000000 0.000000 0.000000 0.000000 0.000000 0.096881
#
#
# Mechanical properties :
#
#
# Convention : Reuss Voigt Hill
#
# Bulk Modulus (GPa) = 48.69324 77.67261 63.18292
# Shear Modulus (GPa) = -4.47668 19.53655 7.52994
#
# Velocity S-wave (km/s) = -1.56371 3.26664 2.02802
# Velocity P-wave (km/s) = 4.83075 7.52682 6.32413
#
# Compressibility (1/GPa) = 0.02053673
#
# Stress axis : x y z
#
# Youngs Moduli (GPa) = 66.46386 37.66045 103.52893
#
# Poissons Ratio (x) = 0.20507 0.67172
# Poissons Ratio (y) = 0.36192 0.35480
# Poissons Ratio (z) = 0.43123 0.12906
#
# Static dielectric constant tensor:
#      x y z
#    x 3.443440 0.000000 0.000000 
#    y 0.000000 2.830280 0.000000 
#    z 0.000000 0.000000 3.753040 
# 
# 
# High freq. dielectric constant tensor:
#      x y z
#    x 1.706270 0.000000 0.000000 
#    y 0.000000 1.647000 0.000000 
#    z 0.000000 0.000000 1.731800 
# 
# From -- ./inp_files/76619.got.cif
#   From: 2010.03.12/outbox.cif.g09.slc.cpg/sg65_39_cif.got.tgz:76619.got - 2010.04.10 20:52:16.
