data_PCOD8274839
_publ_section_title
;
Structure prediction by ZEFSAII (Michael W. Deem and Ramdas Pophale) SiO2 
 PCOD8274839
Probable space group: C M M M
;
_chemical_formula_sum "Si O2"
_cell_formula_units_Z 72
_cell_length_a 8.797512
_cell_length_b 28.899993
_cell_length_c 14.623340
_cell_angle_alpha 90.000000
_cell_angle_beta 90.000000
_cell_angle_gamma 90.000000
_cell_volume 3717.955463
_symmetry_space_group_name_H-M "C M M M"
_symmetry_group_IT_number 65
_symmetry_cell_setting 'orthorhombic'
loop_
_space_group_symop_operation_xyz
x,y,z
-x,-y,z
x,-y,-z
-x,y,-z
-x,-y,-z
x,y,-z
-x,y,z
x,-y,z
1/2+x,1/2+y,z
1/2-x,1/2-y,z
1/2+x,1/2-y,-z
1/2-x,1/2+y,-z
1/2-x,1/2-y,-z
1/2+x,1/2+y,-z
1/2-x,1/2+y,z
1/2+x,1/2-y,z
loop_
_atom_site_type_symbol
_atom_site_label
_atom_site_fract_x
_atom_site_fract_y
_atom_site_fract_z
Si Si1 0.680983 0.698989 0.000000
Si Si2 0.324352 0.700977 0.500000
Si Si3 0.678884 0.627618 0.646694
Si Si4 0.324185 0.861939 0.841861
Si Si5 0.166164 0.949804 0.106505
Si Si6 0.819419 0.053021 0.500000
O O1 0.750000 0.750000 0.000000
O O2 0.732614 0.672599 0.908064
O O3 0.500000 0.701787 0.000000
O O4 0.500000 0.710130 0.500000
O O5 0.250000 0.750000 0.500000
O O6 0.276629 0.672218 0.411612
O O7 0.500000 0.624284 0.666174
O O8 0.768357 0.638276 0.738562
O O9 0.732862 0.581066 0.591734
O O10 0.500000 0.848373 0.848288
O O11 0.300429 0.914533 0.873136
O O12 0.000000 0.933236 0.145395
O O13 0.206790 0.000000 0.149844
O O14 0.149450 0.955545 0.000000
O O15 0.000000 0.052249 0.500000
O O16 0.754906 0.000000 0.500000
#
# Coordination Sequence:
#
# PCOD8274839 Si02
#       6
#     8   8  16  16  16   8
#     4  12  26  46  67  86 113 152 200 251 303 357
#     4   9  19  36  59  83 109 142 184 235 290 342
#     4   9  19  36  57  84 116 151 192 240 291 344
#     4  12  24  38  58  88 123 158 196 241 296 352
#     4   9  18  34  57  82 109 149 197 238 281 332
#     4   8  15  32  60  89 115 150 199 247 290 345
#
# _framework density 19.365482
#
# number of rings (size 3 to 8) (size 9 to 14) (size 15 to 20)
#    0.000    2.111    1.111    5.000    0.000    3.111 
#    0.000    7.222    0.000    0.667    0.000    0.000 
#    0.000    0.000    0.000    0.000    0.000    0.000 
#
# Total GULP energy -446049.794807 kJ/mol
# GULP energy per Si atom -12390.272078 kJ/mol
# Density = 1.932140 g / cm^3
# Si number density = 19.365482 Si / 1000 Ang^3
#
#
#
# Elastic Constant Matrix: (Units=GPa)
#
#
# Indices 1 2 3 4 5 6 
#
# 1 98.0620 54.2552 54.0009 0.0000 0.0000 0.0000
# 2 54.2552 168.5391 71.1927 0.0000 0.0000 0.0000
# 3 54.0009 71.1927 132.1669 0.0000 0.0000 0.0000
# 4 0.0000 0.0000 0.0000 -14.0256 0.0000 0.0000
# 5 0.0000 0.0000 0.0000 0.0000 23.8634 0.0000
# 6 0.0000 0.0000 0.0000 0.0000 0.0000 27.6042
#
#
#
# Elastic Compliance Matrix: (Units=1/GPa)
#
#
# Indices 1 2 3 4 5 6 
#
# 1 0.014058 -0.002718 -0.004280 0.000000 0.000000 0.000000
# 2 -0.002718 0.008206 -0.003310 0.000000 0.000000 0.000000
# 3 -0.004280 -0.003310 0.011098 0.000000 0.000000 0.000000
# 4 0.000000 0.000000 0.000000 -0.071298 0.000000 0.000000
# 5 0.000000 0.000000 0.000000 0.000000 0.041905 0.000000
# 6 0.000000 0.000000 0.000000 0.000000 0.000000 0.036226
#
#
# Mechanical properties :
#
#
# Convention : Reuss Voigt Hill
#
# Bulk Modulus (GPa) = 78.44951 84.18504 81.31727
# Shear Modulus (GPa) = 76.85180 22.10968 49.48074
#
# Velocity S-wave (km/s) = 6.30643 3.38258 5.06028
# Velocity P-wave (km/s) = 9.67606 7.66954 8.73063
#
# Compressibility (1/GPa) = 0.01274705
#
# Stress axis : x y z
#
# Youngs Moduli (GPa) = 71.13316 121.85637 90.10690
#
# Poissons Ratio (x) = 0.33116 0.38566
# Poissons Ratio (y) = 0.19331 0.29826
# Poissons Ratio (z) = 0.30445 0.40335
#
# Static dielectric constant tensor:
#      x y z
#    x 3.381550 0.000000 0.000000 
#    y 0.000000 4.014820 0.000000 
#    z 0.000000 0.000000 3.413160 
# 
# 
# High freq. dielectric constant tensor:
#      x y z
#    x 1.732090 0.000000 0.000000 
#    y 0.000000 1.763300 0.000000 
#    z 0.000000 0.000000 1.756260 
# 
# From -- ./inp_files/36641.got.cif
#   From: 2010.03.12/outbox.cif.g09.slc.cpg/sg65_19_cif.got.tgz:36641.got - 2010.04.10 20:52:16.
