data_PCOD8274058
_publ_section_title
;
Structure prediction by ZEFSAII (Michael W. Deem and Ramdas Pophale) SiO2 
 PCOD8274058
Probable space group: C M M M
;
_chemical_formula_sum "Si O2"
_cell_formula_units_Z 80
_cell_length_a 18.218165
_cell_length_b 25.023509
_cell_length_c 8.983775
_cell_angle_alpha 90.000000
_cell_angle_beta 90.000000
_cell_angle_gamma 90.000000
_cell_volume 4095.545050
_symmetry_space_group_name_H-M "C M M M"
_symmetry_group_IT_number 65
_symmetry_cell_setting 'orthorhombic'
loop_
_space_group_symop_operation_xyz
x,y,z
-x,-y,z
x,-y,-z
-x,y,-z
-x,-y,-z
x,y,-z
-x,y,z
x,-y,z
1/2+x,1/2+y,z
1/2-x,1/2-y,z
1/2+x,1/2-y,-z
1/2-x,1/2+y,-z
1/2-x,1/2-y,-z
1/2+x,1/2+y,-z
1/2-x,1/2+y,z
1/2+x,1/2-y,z
loop_
_atom_site_type_symbol
_atom_site_label
_atom_site_fract_x
_atom_site_fract_y
_atom_site_fract_z
Si Si1 0.585432 0.754977 0.171029
Si Si2 0.083855 0.938211 0.671985
Si Si3 0.669771 0.848005 0.324761
Si Si4 0.175390 0.849570 0.825983
Si Si5 0.415924 0.938158 0.171250
O O1 0.500000 0.748112 0.201900
O O2 0.615097 0.801551 0.275088
O O3 0.622356 0.699216 0.214369
O O4 0.601693 0.770253 0.000000
O O5 0.095945 0.923339 0.500000
O O6 0.138783 0.904239 0.771899
O O7 0.000000 0.926274 0.718749
O O8 0.102533 0.000000 0.700077
O O9 0.678231 0.847351 0.500000
O O10 0.748542 0.838162 0.254071
O O11 0.637871 0.905003 0.275680
O O12 0.190423 0.854367 0.000000
O O13 0.500000 0.925346 0.213234
O O14 0.398359 0.000000 0.198595
O O15 0.401661 0.922620 0.000000
#
# Coordination Sequence:
#
# PCOD8274058 Si02
#       5
#    16  16  16  16  16
#     4  10  22  41  63  85 111 145 187 235 285 338
#     4   9  19  37  60  86 118 154 189 230 284 341
#     4  12  25  38  56  85 119 153 188 230 284 341
#     4  11  23  39  60  85 114 151 194 238 283 331
#     4   9  19  38  63  87 112 147 191 236 282 334
#
# _framework density 19.53342
#
# number of rings (size 3 to 8) (size 9 to 14) (size 15 to 20)
#    0.000    1.800    0.000    5.400    0.000   10.000 
#    0.000    2.000    0.000    0.000    0.000    0.000 
#    0.000    0.000    0.000    0.000    0.000    0.000 
#
# Total GULP energy -496222.232145 kJ/mol
# GULP energy per Si atom -12405.555804 kJ/mol
# Density = 1.948896 g / cm^3
# Si number density = 19.533420 Si / 1000 Ang^3
#
#
#
# Elastic Constant Matrix: (Units=GPa)
#
#
# Indices 1 2 3 4 5 6 
#
# 1 120.8974 56.2893 56.7300 0.0000 0.0000 0.0000
# 2 56.2893 100.3423 54.4476 0.0000 0.0000 0.0000
# 3 56.7300 54.4476 103.3084 0.0000 0.0000 0.0000
# 4 0.0000 0.0000 0.0000 16.8801 0.0000 0.0000
# 5 0.0000 0.0000 0.0000 0.0000 31.3622 0.0000
# 6 0.0000 0.0000 0.0000 0.0000 0.0000 17.2192
#
#
#
# Elastic Compliance Matrix: (Units=1/GPa)
#
#
# Indices 1 2 3 4 5 6 
#
# 1 0.012496 -0.004603 -0.004436 0.000000 0.000000 0.000000
# 2 -0.004603 0.015653 -0.005722 0.000000 0.000000 0.000000
# 3 -0.004436 -0.005722 0.015132 0.000000 0.000000 0.000000
# 4 0.000000 0.000000 0.000000 0.059241 0.000000 0.000000
# 5 0.000000 0.000000 0.000000 0.000000 0.031885 0.000000
# 6 0.000000 0.000000 0.000000 0.000000 0.000000 0.058075
#
#
# Mechanical properties :
#
#
# Convention : Reuss Voigt Hill
#
# Bulk Modulus (GPa) = 72.68305 73.27575 72.97940
# Shear Modulus (GPa) = 22.06623 23.56439 22.81531
#
# Velocity S-wave (km/s) = 3.36470 3.47704 3.42133
# Velocity P-wave (km/s) = 7.23777 7.32900 7.28353
#
# Compressibility (1/GPa) = 0.01375837
#
# Stress axis : x y z
#
# Youngs Moduli (GPa) = 80.02446 63.88601 66.08703
#
# Poissons Ratio (x) = 0.29406 0.29317
# Poissons Ratio (y) = 0.36834 0.37816
# Poissons Ratio (z) = 0.35500 0.36556
#
# Static dielectric constant tensor:
#      x y z
#    x 3.613340 0.000000 0.000000 
#    y 0.000000 3.606350 0.000000 
#    z 0.000000 0.000000 3.512510 
# 
# 
# High freq. dielectric constant tensor:
#      x y z
#    x 1.770140 0.000000 0.000000 
#    y 0.000000 1.772710 0.000000 
#    z 0.000000 0.000000 1.756030 
# 
# From -- ./inp_files/9635.got.cif
#   From: 2010.03.12/outbox.cif.g09.slc.cpg/sg65_5_cif.got.tgz:9635.got - 2010.04.10 20:52:16.
