data_PCOD8274613
_publ_section_title
;
Structure prediction by ZEFSAII (Michael W. Deem and Ramdas Pophale) SiO2 
 PCOD8274613
Probable space group: C M M M
;
_chemical_formula_sum "Si O2"
_cell_formula_units_Z 64
_cell_length_a 8.678707
_cell_length_b 14.759787
_cell_length_c 26.306457
_cell_angle_alpha 90.000000
_cell_angle_beta 90.000000
_cell_angle_gamma 90.000000
_cell_volume 3369.748411
_symmetry_space_group_name_H-M "C M M M"
_symmetry_group_IT_number 65
_symmetry_cell_setting 'orthorhombic'
loop_
_space_group_symop_operation_xyz
x,y,z
-x,-y,z
x,-y,-z
-x,y,-z
-x,-y,-z
x,y,-z
-x,y,z
x,-y,z
1/2+x,1/2+y,z
1/2-x,1/2-y,z
1/2+x,1/2-y,-z
1/2-x,1/2+y,-z
1/2-x,1/2-y,-z
1/2+x,1/2+y,-z
1/2-x,1/2+y,z
1/2+x,1/2-y,z
loop_
_atom_site_type_symbol
_atom_site_label
_atom_site_fract_x
_atom_site_fract_y
_atom_site_fract_z
Si Si1 0.317523 0.843424 0.606073
Si Si2 0.183148 0.000000 0.672902
Si Si3 0.183147 0.000000 0.056729
Si Si4 0.825983 0.106951 0.500000
Si Si5 0.682836 0.500000 0.787786
Si Si6 0.682222 0.350516 0.865263
O O1 0.500000 0.846244 0.608299
O O2 0.250000 0.750000 0.626250
O O3 0.247599 0.913878 0.644663
O O4 0.264519 0.858854 0.548670
O O5 0.246117 0.000000 0.730500
O O6 0.000000 0.000000 0.670187
O O7 0.237776 0.908371 0.085537
O O8 0.000000 0.000000 0.055251
O O9 0.253862 0.000000 0.000000
O O10 0.000000 0.146489 0.500000
O O11 0.831418 0.000000 0.500000
O O12 0.500000 0.500000 0.788622
O O13 0.739580 0.408269 0.816168
O O14 0.500000 0.340634 0.864897
O O15 0.750000 0.250000 0.865439
#
# Coordination Sequence:
#
# PCOD8274613 Si02
#       6
#    16   8   8   8   8  16
#     4  12  25  41  61  86 116 148 184 224 273 329
#     4  11  22  40  61  83 111 142 182 231 282 330
#     4   8  15  29  49  73 106 147 184 216 261 325
#     4  11  22  39  64  88 115 149 183 221 272 326
#     4   8  18  36  56  75 103 142 178 219 270 329
#     4   9  17  32  53  77 104 139 182 223 268 319
#
# _framework density 18.992515000000001
#
# number of rings (size 3 to 8) (size 9 to 14) (size 15 to 20)
#    0.000    2.000    1.250    4.875    0.000    2.000 
#    0.000    7.500    0.000    0.750    0.000    0.000 
#    0.000    0.000    0.000    0.000    0.000    0.000 
#
# Total GULP energy -396704.627767 kJ/mol
# GULP energy per Si atom -12397.019618 kJ/mol
# Density = 1.894929 g / cm^3
# Si number density = 18.992515 Si / 1000 Ang^3
#
#
#
# Elastic Constant Matrix: (Units=GPa)
#
#
# Indices 1 2 3 4 5 6 
#
# 1 90.8259 47.0726 46.8085 0.0000 0.0000 0.0000
# 2 47.0726 191.6083 96.6847 0.0000 0.0000 0.0000
# 3 46.8085 96.6847 186.8638 0.0000 0.0000 0.0000
# 4 0.0000 0.0000 0.0000 31.6212 0.0000 0.0000
# 5 0.0000 0.0000 0.0000 0.0000 23.7306 0.0000
# 6 0.0000 0.0000 0.0000 0.0000 0.0000 37.1542
#
#
#
# Elastic Compliance Matrix: (Units=1/GPa)
#
#
# Indices 1 2 3 4 5 6 
#
# 1 0.013261 -0.002140 -0.002214 0.000000 0.000000 0.000000
# 2 -0.002140 0.007408 -0.003297 0.000000 0.000000 0.000000
# 3 -0.002214 -0.003297 0.007612 0.000000 0.000000 0.000000
# 4 0.000000 0.000000 0.000000 0.031624 0.000000 0.000000
# 5 0.000000 0.000000 0.000000 0.000000 0.042140 0.000000
# 6 0.000000 0.000000 0.000000 0.000000 0.000000 0.026915
#
#
# Mechanical properties :
#
#
# Convention : Reuss Voigt Hill
#
# Bulk Modulus (GPa) = 77.05535 94.49218 85.77376
# Shear Modulus (GPa) = 33.64980 37.08335 35.36657
#
# Velocity S-wave (km/s) = 4.21377 4.42353 4.31992
# Velocity P-wave (km/s) = 8.02085 8.71496 8.37510
#
# Compressibility (1/GPa) = 0.01297768
#
# Stress axis : x y z
#
# Youngs Moduli (GPa) = 75.41171 134.98019 131.37063
#
# Poissons Ratio (x) = 0.28892 0.29088
# Poissons Ratio (y) = 0.16141 0.43313
# Poissons Ratio (z) = 0.16698 0.44503
#
# Static dielectric constant tensor:
#      x y z
#    x 3.325880 0.000000 0.000000 
#    y 0.000000 3.749530 0.000000 
#    z 0.000000 0.000000 3.871860 
# 
# 
# High freq. dielectric constant tensor:
#      x y z
#    x 1.720710 0.000000 0.000000 
#    y 0.000000 1.753790 0.000000 
#    z 0.000000 0.000000 1.741950 
# 
# From -- ./inp_files/66892.got.cif
#   From: 2010.03.12/outbox.cif.g09.slc.cpg/sg65_34_cif.got.tgz:66892.got - 2010.04.10 20:52:16.
