data_PCOD8274869
_publ_section_title
;
Structure prediction by ZEFSAII (Michael W. Deem and Ramdas Pophale) SiO2 
 PCOD8274869
Probable space group: C M M M
;
_chemical_formula_sum "Si O2"
_cell_formula_units_Z 120
_cell_length_a 20.794704
_cell_length_b 28.491302
_cell_length_c 13.565818
_cell_angle_alpha 90.000000
_cell_angle_beta 90.000000
_cell_angle_gamma 90.000000
_cell_volume 8037.315659
_symmetry_space_group_name_H-M "C M M M"
_symmetry_group_IT_number 65
_symmetry_cell_setting 'orthorhombic'
loop_
_space_group_symop_operation_xyz
x,y,z
-x,-y,z
x,-y,-z
-x,y,-z
-x,-y,-z
x,y,-z
-x,y,z
x,-y,z
1/2+x,1/2+y,z
1/2-x,1/2-y,z
1/2+x,1/2-y,-z
1/2-x,1/2+y,-z
1/2-x,1/2-y,-z
1/2+x,1/2+y,-z
1/2-x,1/2+y,z
1/2+x,1/2-y,z
loop_
_atom_site_type_symbol
_atom_site_label
_atom_site_fract_x
_atom_site_fract_y
_atom_site_fract_z
Si Si1 0.074178 0.764454 0.884725
Si Si2 0.347305 0.322222 0.389776
Si Si3 0.320413 0.234249 0.737239
Si Si4 0.862103 0.552253 0.382535
Si Si5 0.574057 0.639684 0.780950
Si Si6 0.793928 0.354714 0.387939
Si Si7 0.000000 0.444939 0.606479
Si Si8 0.423636 0.448827 0.110048
O O1 0.125669 0.733753 0.823242
O O2 0.086894 0.818742 0.858694
O O3 0.000000 0.750830 0.857774
O O4 0.087055 0.756496 0.000000
O O5 0.374355 0.318054 0.500000
O O6 0.337801 0.269867 0.349927
O O7 0.398388 0.350069 0.325871
O O8 0.282466 0.352058 0.386730
O O9 0.250000 0.250000 0.779460
O O10 0.322242 0.182872 0.688870
O O11 0.868097 0.549636 0.500000
O O12 0.841165 0.500000 0.343629
O O13 0.812375 0.592855 0.350889
O O14 0.932711 0.567339 0.338148
O O15 0.500000 0.630851 0.763720
O O16 0.606732 0.592354 0.823475
O O17 0.819263 0.345373 0.500000
O O18 0.000000 0.500000 0.588751
O O19 0.000000 0.419074 0.500000
O O20 0.500000 0.443234 0.105302
O O21 0.404919 0.500000 0.153788
O O22 0.395590 0.443965 0.000000
#
# Coordination Sequence:
#
# PCOD8274869 Si02
#       8
#    16  16  16  16  16  16   8  16
#     4   9  17  29  44  62  85 108 128 160 210 257
#     4   9  17  28  41  56  77 108 144 175 202 234
#     4   9  17  29  44  61  81 107 141 174 200 237
#     4   8  13  22  37  56  78 103 130 160 196 237
#     4   9  16  26  41  59  78 103 135 169 206 247
#     4   9  16  27  42  58  79 109 141 168 198 235
#     4   7  10  18  32  50  72  96 119 145 185 235
#     4   8  13  22  38  59  79  98 124 162 208 254
#
# _framework density 14.930358
#
# number of rings (size 3 to 8) (size 9 to 14) (size 15 to 20)
#    0.000    3.400    0.000    2.000    0.000    3.733 
#    1.200    0.667    0.000    2.000    0.000    1.867 
#    0.000    0.533    0.000    1.467    0.000    0.000 
#
# Total GULP energy -743302.608958 kJ/mol
# GULP energy per Si atom -12388.376816 kJ/mol
# Density = 1.489638 g / cm^3
# Si number density = 14.930358 Si / 1000 Ang^3
#
#
#
# Elastic Constant Matrix: (Units=GPa)
#
#
# Indices 1 2 3 4 5 6 
#
# 1 45.4889 33.5711 34.2517 0.0000 0.0000 0.0000
# 2 33.5711 94.4347 34.8760 0.0000 0.0000 0.0000
# 3 34.2517 34.8760 74.7670 0.0000 0.0000 0.0000
# 4 0.0000 0.0000 0.0000 18.9028 0.0000 0.0000
# 5 0.0000 0.0000 0.0000 0.0000 18.7189 0.0000
# 6 0.0000 0.0000 0.0000 0.0000 0.0000 18.4980
#
#
#
# Elastic Compliance Matrix: (Units=1/GPa)
#
#
# Indices 1 2 3 4 5 6 
#
# 1 0.038703 -0.008711 -0.013667 0.000000 0.000000 0.000000
# 2 -0.008711 0.014754 -0.002891 0.000000 0.000000 0.000000
# 3 -0.013667 -0.002891 0.020985 0.000000 0.000000 0.000000
# 4 0.000000 0.000000 0.000000 0.052902 0.000000 0.000000
# 5 0.000000 0.000000 0.000000 0.000000 0.053422 0.000000
# 6 0.000000 0.000000 0.000000 0.000000 0.000000 0.054060
#
#
# Mechanical properties :
#
#
# Convention : Reuss Voigt Hill
#
# Bulk Modulus (GPa) = 41.83678 46.67648 44.25663
# Shear Modulus (GPa) = 17.04551 18.69007 17.86779
#
# Velocity S-wave (km/s) = 3.38252 3.54194 3.46315
# Velocity P-wave (km/s) = 6.58311 6.93237 6.76000
#
# Compressibility (1/GPa) = 0.02390241
#
# Stress axis : x y z
#
# Youngs Moduli (GPa) = 25.83772 67.77801 47.65419
#
# Poissons Ratio (x) = 0.59045 0.65128
# Poissons Ratio (y) = 0.22508 0.13779
# Poissons Ratio (z) = 0.35312 0.19597
#
# Static dielectric constant tensor:
#      x y z
#    x 2.899480 0.000000 0.000000 
#    y 0.000000 2.949670 0.000000 
#    z 0.000000 0.000000 2.697280 
# 
# 
# High freq. dielectric constant tensor:
#      x y z
#    x 1.556650 0.000000 0.000000 
#    y 0.000000 1.566010 0.000000 
#    z 0.000000 0.000000 1.539070 
# 
# From -- ./inp_files/29687.got.cif
#   From: 2010.03.12/outbox.cif.g09.slc.cpg/sg65_15_cif.got.tgz:29687.got - 2010.04.10 20:52:16.
