data_PCOD8274866
_publ_section_title
;
Structure prediction by ZEFSAII (Michael W. Deem and Ramdas Pophale) SiO2 
 PCOD8274866
Probable space group: C M M M
;
_chemical_formula_sum "Si O2"
_cell_formula_units_Z 88
_cell_length_a 27.785836
_cell_length_b 20.216080
_cell_length_c 9.281733
_cell_angle_alpha 90.000000
_cell_angle_beta 90.000000
_cell_angle_gamma 90.000000
_cell_volume 5213.741404
_symmetry_space_group_name_H-M "C M M M"
_symmetry_group_IT_number 65
_symmetry_cell_setting 'orthorhombic'
loop_
_space_group_symop_operation_xyz
x,y,z
-x,-y,z
x,-y,-z
-x,y,-z
-x,-y,-z
x,y,-z
-x,y,z
x,-y,z
1/2+x,1/2+y,z
1/2-x,1/2-y,z
1/2+x,1/2-y,-z
1/2-x,1/2+y,-z
1/2-x,1/2-y,-z
1/2+x,1/2+y,-z
1/2-x,1/2+y,z
1/2+x,1/2-y,z
loop_
_atom_site_type_symbol
_atom_site_label
_atom_site_fract_x
_atom_site_fract_y
_atom_site_fract_z
Si Si1 0.056864 0.500000 0.343425
Si Si2 0.783606 0.373113 0.667371
Si Si3 0.946107 0.357490 0.327160
Si Si4 0.715802 0.000000 0.162424
Si Si5 0.639436 0.231694 0.670745
Si Si6 0.169739 0.000000 0.162819
Si Si7 0.328303 0.628031 0.331593
O O1 0.082153 0.500000 0.500000
O O2 0.070253 0.569734 0.264915
O O3 0.000000 0.500000 0.364736
O O4 0.792292 0.388620 0.500000
O O5 0.803587 0.435553 0.755873
O O6 0.813723 0.309580 0.719639
O O7 0.727869 0.359353 0.699334
O O8 0.944944 0.361323 0.500000
O O9 0.909221 0.302151 0.268124
O O10 0.000000 0.338950 0.274353
O O11 0.773122 0.000000 0.166465
O O12 0.696081 0.000000 0.000000
O O13 0.637922 0.233474 0.500000
O O14 0.643654 0.307037 0.726257
O O15 0.150970 0.065434 0.244470
O O16 0.149818 0.000000 0.000000
O O17 0.337181 0.614622 0.500000
#
# Coordination Sequence:
#
# PCOD8274866 Si02
#       7
#     8  16  16   8  16   8  16
#     4   7  10  17  28  42  66 102 135 158 185 223
#     4   9  16  26  40  58  82 111 140 168 198 237
#     4   8  13  21  33  52  80 110 137 167 202 236
#     4   9  17  28  40  56  81 112 143 173 203 233
#     4   9  16  24  37  58  82 109 138 166 202 247
#     4   9  17  29  44  60  79 106 139 170 199 239
#     4   9  16  27  42  60  83 109 135 165 202 242
#
# _framework density 16.878474000000001
#
# number of rings (size 3 to 8) (size 9 to 14) (size 15 to 20)
#    0.000    3.364    0.000    2.182    0.000    5.091 
#    0.000    3.636    0.000    4.364    0.000    0.636 
#    0.000    8.727    0.000    0.000    0.000    0.000 
#
# Total GULP energy -545188.968678 kJ/mol
# GULP energy per Si atom -12390.658379 kJ/mol
# Density = 1.684006 g / cm^3
# Si number density = 16.878474 Si / 1000 Ang^3
#
#
#
# Elastic Constant Matrix: (Units=GPa)
#
#
# Indices 1 2 3 4 5 6 
#
# 1 59.2433 58.8908 16.9645 0.0000 0.0000 0.0000
# 2 58.8908 184.1436 45.9737 0.0000 0.0000 0.0000
# 3 16.9645 45.9737 42.8872 0.0000 0.0000 0.0000
# 4 0.0000 0.0000 0.0000 4.6143 0.0000 0.0000
# 5 0.0000 0.0000 0.0000 0.0000 4.7834 0.0000
# 6 0.0000 0.0000 0.0000 0.0000 0.0000 18.2354
#
#
#
# Elastic Compliance Matrix: (Units=1/GPa)
#
#
# Indices 1 2 3 4 5 6 
#
# 1 0.024847 -0.007500 -0.001789 0.000000 0.000000 0.000000
# 2 -0.007500 0.009679 -0.007409 0.000000 0.000000 0.000000
# 3 -0.001789 -0.007409 0.031967 0.000000 0.000000 0.000000
# 4 0.000000 0.000000 0.000000 0.216720 0.000000 0.000000
# 5 0.000000 0.000000 0.000000 0.000000 0.209056 0.000000
# 6 0.000000 0.000000 0.000000 0.000000 0.000000 0.054838
#
#
# Mechanical properties :
#
#
# Convention : Reuss Voigt Hill
#
# Bulk Modulus (GPa) = 30.21394 58.88133 44.54764
# Shear Modulus (GPa) = 8.45262 16.48963 12.47112
#
# Velocity S-wave (km/s) = 2.24027 3.12903 2.72118
# Velocity P-wave (km/s) = 4.96301 6.92933 6.02690
#
# Compressibility (1/GPa) = 0.03309730
#
# Stress axis : x y z
#
# Youngs Moduli (GPa) = 40.24657 103.32040 31.28274
#
# Poissons Ratio (x) = 0.77486 0.05597
# Poissons Ratio (y) = 0.30183 0.23176
# Poissons Ratio (z) = 0.07201 0.76546
#
# Static dielectric constant tensor:
#      x y z
#    x 2.974120 0.000000 0.000000 
#    y 0.000000 3.544170 0.000000 
#    z 0.000000 0.000000 2.745560 
# 
# 
# High freq. dielectric constant tensor:
#      x y z
#    x 1.612520 0.000000 0.000000 
#    y 0.000000 1.662460 0.000000 
#    z 0.000000 0.000000 1.595810 
# 
# From -- ./inp_files/18557.got.cif
#   From: 2010.03.12/outbox.cif.g09.slc.cpg/sg65_10_cif.got.tgz:18557.got - 2010.04.10 20:52:16.
