data_PCOD8274687
_publ_section_title
;
Structure prediction by ZEFSAII (Michael W. Deem and Ramdas Pophale) SiO2 
 PCOD8274687
Probable space group: C M M M
;
_chemical_formula_sum "Si O2"
_cell_formula_units_Z 64
_cell_length_a 18.969639
_cell_length_b 24.069277
_cell_length_c 7.498666
_cell_angle_alpha 90.000000
_cell_angle_beta 90.000000
_cell_angle_gamma 90.000000
_cell_volume 3423.782133
_symmetry_space_group_name_H-M "C M M M"
_symmetry_group_IT_number 65
_symmetry_cell_setting 'orthorhombic'
loop_
_space_group_symop_operation_xyz
x,y,z
-x,-y,z
x,-y,-z
-x,y,-z
-x,-y,-z
x,y,-z
-x,y,z
x,-y,z
1/2+x,1/2+y,z
1/2-x,1/2-y,z
1/2+x,1/2-y,-z
1/2-x,1/2+y,-z
1/2-x,1/2-y,-z
1/2+x,1/2+y,-z
1/2-x,1/2+y,z
1/2+x,1/2-y,z
loop_
_atom_site_type_symbol
_atom_site_label
_atom_site_fract_x
_atom_site_fract_y
_atom_site_fract_z
Si Si1 0.416330 0.630042 0.500000
Si Si2 0.583127 0.754368 0.500000
Si Si3 0.337304 0.435240 0.795497
Si Si4 0.821237 0.560962 0.211230
Si Si5 0.917677 0.339435 0.205716
O O1 0.500000 0.630028 0.500000
O O2 0.384700 0.692639 0.500000
O O3 0.390953 0.599719 0.322162
O O4 0.500000 0.749481 0.500000
O O5 0.607548 0.786917 0.677974
O O6 0.354841 0.500000 0.772926
O O7 0.257785 0.423086 0.728278
O O8 0.347311 0.416685 0.000000
O O9 0.841648 0.500000 0.288766
O O10 0.876385 0.606677 0.279471
O O11 0.822742 0.557493 0.000000
O O12 0.000000 0.352044 0.232280
O O13 0.899507 0.326435 0.000000
#
# Coordination Sequence:
#
# PCOD8274687 Si02
#       5
#     8   8  16  16  16
#     4  11  23  37  55  76  96 125 169 214 252 300
#     4   9  20  36  49  68 100 133 168 209 252 297
#     4   9  19  36  55  76 105 134 157 194 253 310
#     4   8  15  30  52  77 105 136 167 199 243 299
#     4   9  17  31  52  75 102 137 172 207 243 279
#
# _framework density 18.692779000000002
#
# number of rings (size 3 to 8) (size 9 to 14) (size 15 to 20)
#    0.000    3.000    0.000    1.875    0.000    4.000 
#    0.000   10.625    0.000    6.750    0.000    0.000 
#    0.000    0.000    0.000    0.000    0.000    0.000 
#
# Total GULP energy -396698.492903 kJ/mol
# GULP energy per Si atom -12396.827903 kJ/mol
# Density = 1.865023 g / cm^3
# Si number density = 18.692779 Si / 1000 Ang^3
#
#
#
# Elastic Constant Matrix: (Units=GPa)
#
#
# Indices 1 2 3 4 5 6 
#
# 1 72.3031 63.2252 38.9080 0.0000 0.0000 0.0000
# 2 63.2252 139.6432 67.0398 0.0000 0.0000 0.0000
# 3 38.9080 67.0398 98.3589 0.0000 0.0000 0.0000
# 4 0.0000 0.0000 0.0000 25.6665 0.0000 0.0000
# 5 0.0000 0.0000 0.0000 0.0000 17.8669 0.0000
# 6 0.0000 0.0000 0.0000 0.0000 0.0000 10.8183
#
#
#
# Elastic Compliance Matrix: (Units=1/GPa)
#
#
# Indices 1 2 3 4 5 6 
#
# 1 0.023490 -0.009178 -0.003037 0.000000 0.000000 0.000000
# 2 -0.009178 0.014230 -0.006068 0.000000 0.000000 0.000000
# 3 -0.003037 -0.006068 0.015504 0.000000 0.000000 0.000000
# 4 0.000000 0.000000 0.000000 0.038961 0.000000 0.000000
# 5 0.000000 0.000000 0.000000 0.000000 0.055969 0.000000
# 6 0.000000 0.000000 0.000000 0.000000 0.000000 0.092436
#
#
# Mechanical properties :
#
#
# Convention : Reuss Voigt Hill
#
# Bulk Modulus (GPa) = 60.02882 72.07237 66.05059
# Shear Modulus (GPa) = 17.68603 20.27914 18.98258
#
# Velocity S-wave (km/s) = 3.07928 3.29730 3.19015
# Velocity P-wave (km/s) = 6.69520 7.28946 6.99864
#
# Compressibility (1/GPa) = 0.01665867
#
# Stress axis : x y z
#
# Youngs Moduli (GPa) = 42.57114 70.27586 64.49879
#
# Poissons Ratio (x) = 0.64496 0.19587
# Poissons Ratio (y) = 0.39070 0.39140
# Poissons Ratio (z) = 0.12928 0.42646
#
# Static dielectric constant tensor:
#      x y z
#    x 3.321470 0.000000 0.000000 
#    y 0.000000 3.750950 0.000000 
#    z 0.000000 0.000000 3.361630 
# 
# 
# High freq. dielectric constant tensor:
#      x y z
#    x 1.707650 0.000000 0.000000 
#    y 0.000000 1.722290 0.000000 
#    z 0.000000 0.000000 1.727350 
# 
# From -- ./inp_files/6761.got.cif
#   From: 2010.03.12/outbox.cif.g09.slc.cpg/sg65_4_cif.got.tgz:6761.got - 2010.04.10 20:52:16.
