data_PCOD8274400
_publ_section_title
;
Structure prediction by ZEFSAII (Michael W. Deem and Ramdas Pophale) SiO2 
 PCOD8274400
Probable space group: C M M M
;
_chemical_formula_sum "Si O2"
_cell_formula_units_Z 80
_cell_length_a 21.128588
_cell_length_b 16.688520
_cell_length_c 11.685544
_cell_angle_alpha 90.000000
_cell_angle_beta 90.000000
_cell_angle_gamma 90.000000
_cell_volume 4120.379646
_symmetry_space_group_name_H-M "C M M M"
_symmetry_group_IT_number 65
_symmetry_cell_setting 'orthorhombic'
loop_
_space_group_symop_operation_xyz
x,y,z
-x,-y,z
x,-y,-z
-x,y,-z
-x,-y,-z
x,y,-z
-x,y,z
x,-y,z
1/2+x,1/2+y,z
1/2-x,1/2-y,z
1/2+x,1/2-y,-z
1/2-x,1/2+y,-z
1/2-x,1/2-y,-z
1/2+x,1/2+y,-z
1/2-x,1/2+y,z
1/2+x,1/2-y,z
loop_
_atom_site_type_symbol
_atom_site_label
_atom_site_fract_x
_atom_site_fract_y
_atom_site_fract_z
Si Si1 0.237755 0.655868 0.627805
Si Si2 0.875670 0.322545 0.224990
Si Si3 0.329696 0.408812 0.000000
Si Si4 0.926331 0.000000 0.627088
Si Si5 0.206151 0.673412 0.000000
Si Si6 0.500000 0.095479 0.134734
Si Si7 0.137437 0.141472 0.755189
O O1 0.241080 0.619837 0.500000
O O2 0.250000 0.750000 0.626420
O O3 0.168615 0.634681 0.679605
O O4 0.293064 0.619428 0.706151
O O5 0.837300 0.324883 0.108951
O O6 0.887488 0.231556 0.268457
O O7 0.940282 0.370031 0.204072
O O8 0.361250 0.366948 0.108739
O O9 0.349795 0.500000 0.000000
O O10 0.253142 0.402595 0.000000
O O11 0.909798 0.920213 0.696758
O O12 0.894542 0.000000 0.500000
O O13 0.000000 0.000000 0.610700
O O14 0.250000 0.750000 0.000000
O O15 0.500000 0.000000 0.143783
O O16 0.500000 0.121340 0.000000
#
# Coordination Sequence:
#
# PCOD8274400 Si02
#       7
#    16  16   8   8   8   8  16
#     4   9  18  35  62  92 119 152 204 264 312 365
#     4  11  21  38  65  90 122 165 213 259 318 380
#     4  12  22  34  56  95 129 161 201 253 322 372
#     4  11  26  45  61  87 133 175 211 256 306 374
#     4  12  18  35  59  93 126 159 200 264 320 371
#     4  11  26  44  61  90 129 168 215 263 318 388
#     4  11  21  38  63  93 125 163 209 259 314 377
#
# _framework density 19.415686000000001
#
# number of rings (size 3 to 8) (size 9 to 14) (size 15 to 20)
#    0.000    1.200    6.000    1.200    1.400    1.600 
#    1.800    1.500    0.000    0.600    0.000    0.000 
#    0.000    0.000    0.000    0.000    0.000    0.000 
#
# Total GULP energy -495906.559393 kJ/mol
# GULP energy per Si atom -12397.663985 kJ/mol
# Density = 1.937150 g / cm^3
# Si number density = 19.415686 Si / 1000 Ang^3
#
#
#
# Elastic Constant Matrix: (Units=GPa)
#
#
# Indices 1 2 3 4 5 6 
#
# 1 115.8468 34.5341 46.2485 0.0000 0.0000 0.0000
# 2 34.5341 73.8525 22.2322 0.0000 0.0000 0.0000
# 3 46.2485 22.2322 139.8755 0.0000 0.0000 0.0000
# 4 0.0000 0.0000 0.0000 21.5090 0.0000 0.0000
# 5 0.0000 0.0000 0.0000 0.0000 28.9722 0.0000
# 6 0.0000 0.0000 0.0000 0.0000 0.0000 30.8989
#
#
#
# Elastic Compliance Matrix: (Units=1/GPa)
#
#
# Indices 1 2 3 4 5 6 
#
# 1 0.011105 -0.004293 -0.002990 0.000000 0.000000 0.000000
# 2 -0.004293 0.015880 -0.001105 0.000000 0.000000 0.000000
# 3 -0.002990 -0.001105 0.008313 0.000000 0.000000 0.000000
# 4 0.000000 0.000000 0.000000 0.046492 0.000000 0.000000
# 5 0.000000 0.000000 0.000000 0.000000 0.034516 0.000000
# 6 0.000000 0.000000 0.000000 0.000000 0.000000 0.032364
#
#
# Mechanical properties :
#
#
# Convention : Reuss Voigt Hill
#
# Bulk Modulus (GPa) = 53.98195 59.51160 56.74677
# Shear Modulus (GPa) = 29.13413 31.38001 30.25707
#
# Velocity S-wave (km/s) = 3.87789 4.02458 3.95192
# Velocity P-wave (km/s) = 6.92202 7.23286 7.07914
#
# Compressibility (1/GPa) = 0.01852471
#
# Stress axis : x y z
#
# Youngs Moduli (GPa) = 90.04698 62.97035 120.28991
#
# Poissons Ratio (x) = 0.27033 0.35961
# Poissons Ratio (y) = 0.38657 0.13288
# Poissons Ratio (z) = 0.26920 0.06956
#
# Static dielectric constant tensor:
#      x y z
#    x 12.953060 0.000000 0.000000 
#    y 0.000000 3.497770 0.000000 
#    z 0.000000 0.000000 3.790000 
# 
# 
# High freq. dielectric constant tensor:
#      x y z
#    x 1.744420 0.000000 0.000000 
#    y 0.000000 1.741940 0.000000 
#    z 0.000000 0.000000 1.766860 
# 
# From -- ./inp_files/28636.got.cif
#   From: 2010.03.12/outbox.cif.g09.slc.cpg/sg65_15_cif.got.tgz:28636.got - 2010.04.10 20:52:16.
