data_PCOD8274709
_publ_section_title
;
Structure prediction by ZEFSAII (Michael W. Deem and Ramdas Pophale) SiO2 
 PCOD8274709
Probable space group: C M M M
;
_chemical_formula_sum "Si O2"
_cell_formula_units_Z 88
_cell_length_a 18.418637
_cell_length_b 8.889409
_cell_length_c 29.011693
_cell_angle_alpha 90.000000
_cell_angle_beta 90.000000
_cell_angle_gamma 90.000000
_cell_volume 4750.107632
_symmetry_space_group_name_H-M "C M M M"
_symmetry_group_IT_number 65
_symmetry_cell_setting 'orthorhombic'
loop_
_space_group_symop_operation_xyz
x,y,z
-x,-y,z
x,-y,-z
-x,y,-z
-x,-y,-z
x,y,-z
-x,y,z
x,-y,z
1/2+x,1/2+y,z
1/2-x,1/2-y,z
1/2+x,1/2-y,-z
1/2-x,1/2+y,-z
1/2-x,1/2-y,-z
1/2+x,1/2+y,-z
1/2-x,1/2+y,z
1/2+x,1/2-y,z
loop_
_atom_site_type_symbol
_atom_site_label
_atom_site_fract_x
_atom_site_fract_y
_atom_site_fract_z
Si Si1 0.172213 0.323786 0.048697
Si Si2 0.671756 0.822097 0.147857
Si Si3 0.417347 0.676640 0.326968
Si Si4 0.414328 0.823758 0.500000
Si Si5 0.417488 0.822492 0.765958
Si Si6 0.829179 0.821171 0.416754
O O1 0.185005 0.500000 0.049085
O O2 0.250000 0.250000 0.047957
O O3 0.134703 0.279290 0.097727
O O4 0.130928 0.278862 0.000000
O O5 0.750000 0.750000 0.152333
O O6 0.623120 0.757298 0.189181
O O7 0.679548 0.000000 0.152760
O O8 0.500000 0.731974 0.336867
O O9 0.415985 0.500000 0.319746
O O10 0.385121 0.752389 0.280832
O O11 0.365233 0.725850 0.368442
O O12 0.500000 0.794636 0.500000
O O13 0.380688 0.745911 0.544460
O O14 0.395505 0.000000 0.500000
O O15 0.500000 0.770256 0.771336
O O16 0.409632 0.000000 0.762573
O O17 0.750000 0.750000 0.420501
O O18 0.823823 0.000000 0.422750
#
# Coordination Sequence:
#
# PCOD8274709 Si02
#       6
#    16  16  16   8  16  16
#     4   8  13  22  37  57  82 112 146 186 231 279
#     4   9  17  28  43  65  91 118 152 194 239 287
#     4   9  19  36  56  76  98 129 170 210 247 292
#     4  11  24  41  62  87 113 143 180 217 252 297
#     4   9  18  32  49  68  93 127 162 197 240 291
#     4  11  23  39  59  83 113 144 174 212 258 303
#
# _framework density 18.525895999999999
#
# number of rings (size 3 to 8) (size 9 to 14) (size 15 to 20)
#    0.000    2.636    0.000    1.636    0.000    4.364 
#    0.000    5.455    0.000    0.545    0.000    3.818 
#    0.000    0.000    0.000   34.000    0.000   18.545 
#
# Total GULP energy -545132.506184 kJ/mol
# GULP energy per Si atom -12389.375141 kJ/mol
# Density = 1.848373 g / cm^3
# Si number density = 18.525896 Si / 1000 Ang^3
#
#
#
# Elastic Constant Matrix: (Units=GPa)
#
#
# Indices 1 2 3 4 5 6 
#
# 1 76.9995 29.4996 74.3793 0.0000 0.0000 0.0000
# 2 29.4996 38.9525 50.8678 0.0000 0.0000 0.0000
# 3 74.3793 50.8678 216.6450 0.0000 0.0000 0.0000
# 4 0.0000 0.0000 0.0000 24.7896 0.0000 0.0000
# 5 0.0000 0.0000 0.0000 0.0000 17.0978 0.0000
# 6 0.0000 0.0000 0.0000 0.0000 0.0000 20.2833
#
#
#
# Elastic Compliance Matrix: (Units=1/GPa)
#
#
# Indices 1 2 3 4 5 6 
#
# 1 0.021692 -0.009666 -0.005178 0.000000 0.000000 0.000000
# 2 -0.009666 0.041332 -0.006386 0.000000 0.000000 0.000000
# 3 -0.005178 -0.006386 0.007893 0.000000 0.000000 0.000000
# 4 0.000000 0.000000 0.000000 0.040340 0.000000 0.000000
# 5 0.000000 0.000000 0.000000 0.000000 0.058487 0.000000
# 6 0.000000 0.000000 0.000000 0.000000 0.000000 0.049302
#
#
# Mechanical properties :
#
#
# Convention : Reuss Voigt Hill
#
# Bulk Modulus (GPa) = 35.14064 71.34338 53.24201
# Shear Modulus (GPa) = 18.45078 24.29081 21.37079
#
# Velocity S-wave (km/s) = 3.15928 3.62495 3.40010
# Velocity P-wave (km/s) = 5.68486 7.49093 6.64950
#
# Compressibility (1/GPa) = 0.02845708
#
# Stress axis : x y z
#
# Youngs Moduli (GPa) = 46.10019 24.19412 126.69560
#
# Poissons Ratio (x) = 0.23386 0.65600
# Poissons Ratio (y) = 0.44561 0.80909
# Poissons Ratio (z) = 0.23869 0.15451
#
# Static dielectric constant tensor:
#      x y z
#    x 3.221810 0.000000 0.000000 
#    y 0.000000 3.077510 0.000000 
#    z 0.000000 0.000000 4.233080 
# 
# 
# High freq. dielectric constant tensor:
#      x y z
#    x 1.684620 0.000000 0.000000 
#    y 0.000000 1.713420 0.000000 
#    z 0.000000 0.000000 1.751770 
# 
# From -- ./inp_files/77856.got.cif
#   From: 2010.03.12/outbox.cif.g09.slc.cpg/sg65_39_cif.got.tgz:77856.got - 2010.04.10 20:52:16.
