data_PCOD8274804
_publ_section_title
;
Structure prediction by ZEFSAII (Michael W. Deem and Ramdas Pophale) SiO2 
 PCOD8274804
Probable space group: C M M M
;
_chemical_formula_sum "Si O2"
_cell_formula_units_Z 72
_cell_length_a 10.329635
_cell_length_b 17.422117
_cell_length_c 20.178312
_cell_angle_alpha 90.000000
_cell_angle_beta 90.000000
_cell_angle_gamma 90.000000
_cell_volume 3631.371951
_symmetry_space_group_name_H-M "C M M M"
_symmetry_group_IT_number 65
_symmetry_cell_setting 'orthorhombic'
loop_
_space_group_symop_operation_xyz
x,y,z
-x,-y,z
x,-y,-z
-x,y,-z
-x,-y,-z
x,y,-z
-x,y,z
x,-y,z
1/2+x,1/2+y,z
1/2-x,1/2-y,z
1/2+x,1/2-y,-z
1/2-x,1/2+y,-z
1/2-x,1/2-y,-z
1/2+x,1/2+y,-z
1/2-x,1/2+y,z
1/2+x,1/2-y,z
loop_
_atom_site_type_symbol
_atom_site_label
_atom_site_fract_x
_atom_site_fract_y
_atom_site_fract_z
Si Si1 0.148001 0.910317 0.679110
Si Si2 0.855384 0.591134 0.574040
Si Si3 0.357594 0.686232 0.192158
Si Si4 0.500000 0.917356 0.077609
Si Si5 0.279392 0.591680 0.924585
O O1 0.245530 0.876614 0.623460
O O2 0.181697 0.867582 0.746824
O O3 0.000000 0.895460 0.656175
O O4 0.172640 0.000000 0.691406
O O5 0.827325 0.622696 0.500000
O O6 0.848001 0.500000 0.572898
O O7 0.000000 0.617053 0.596930
O O8 0.500000 0.723110 0.203889
O O9 0.250000 0.750000 0.182952
O O10 0.372879 0.633899 0.126367
O O11 0.634968 0.875444 0.094855
O O12 0.500000 0.000000 0.114051
O O13 0.500000 0.933185 0.000000
O O14 0.286766 0.500000 0.916352
O O15 0.316710 0.614082 0.000000
#
# Coordination Sequence:
#
# PCOD8274804 Si02
#       5
#    16  16  16   8  16
#     4   9  18  34  55  78 106 140 179 222 265 313
#     4   8  14  26  47  79 115 142 168 210 262 314
#     4  11  25  40  54  76 108 145 183 225 273 322
#     4   7  12  26  50  80 106 126 154 202 260 309
#     4   9  18  35  60  85 108 136 175 223 272 324
#
# _framework density 19.827217000000001
#
# number of rings (size 3 to 8) (size 9 to 14) (size 15 to 20)
#    0.000    3.000    0.000    2.667    1.556    3.556 
#    0.000    3.333    0.000    0.667    0.000    0.000 
#    0.000    0.000    0.000    0.000    0.000    0.000 
#
# Total GULP energy -446030.452800 kJ/mol
# GULP energy per Si atom -12389.734800 kJ/mol
# Density = 1.978209 g / cm^3
# Si number density = 19.827217 Si / 1000 Ang^3
#
#
#
# Elastic Constant Matrix: (Units=GPa)
#
#
# Indices 1 2 3 4 5 6 
#
# 1 113.6726 38.9009 72.9975 0.0000 0.0000 0.0000
# 2 38.9009 42.5869 40.5007 0.0000 0.0000 0.0000
# 3 72.9975 40.5007 138.8229 0.0000 0.0000 0.0000
# 4 0.0000 0.0000 0.0000 3.5929 0.0000 0.0000
# 5 0.0000 0.0000 0.0000 0.0000 31.4215 0.0000
# 6 0.0000 0.0000 0.0000 0.0000 0.0000 36.7317
#
#
#
# Elastic Compliance Matrix: (Units=1/GPa)
#
#
# Indices 1 2 3 4 5 6 
#
# 1 0.015334 -0.008772 -0.005504 0.000000 0.000000 0.000000
# 2 -0.008772 0.037517 -0.006332 0.000000 0.000000 0.000000
# 3 -0.005504 -0.006332 0.011945 0.000000 0.000000 0.000000
# 4 0.000000 0.000000 0.000000 0.278325 0.000000 0.000000
# 5 0.000000 0.000000 0.000000 0.000000 0.031825 0.000000
# 6 0.000000 0.000000 0.000000 0.000000 0.000000 0.027224
#
#
# Mechanical properties :
#
#
# Convention : Reuss Voigt Hill
#
# Bulk Modulus (GPa) = 42.41190 66.65338 54.53264
# Shear Modulus (GPa) = 11.08043 23.86143 17.47093
#
# Velocity S-wave (km/s) = 2.36656 3.47287 2.97165
# Velocity P-wave (km/s) = 5.37631 7.05487 6.27200
#
# Compressibility (1/GPa) = 0.02357829
#
# Stress axis : x y z
#
# Youngs Moduli (GPa) = 65.21657 26.65470 83.71822
#
# Poissons Ratio (x) = 0.23383 0.46075
# Poissons Ratio (y) = 0.57211 0.53014
# Poissons Ratio (z) = 0.35892 0.16879
#
# Static dielectric constant tensor:
#      x y z
#    x 4.092980 0.000000 0.000000 
#    y 0.000000 3.092720 0.000000 
#    z 0.000000 0.000000 3.639360 
# 
# 
# High freq. dielectric constant tensor:
#      x y z
#    x 1.788030 0.000000 0.000000 
#    y 0.000000 1.725190 0.000000 
#    z 0.000000 0.000000 1.764980 
# 
# From -- ./inp_files/51132.got.cif
#   From: 2010.03.12/outbox.cif.g09.slc.cpg/sg65_26_cif.got.tgz:51132.got - 2010.04.10 20:52:16.
