data_PCOD8274207
_publ_section_title
;
Structure prediction by ZEFSAII (Michael W. Deem and Ramdas Pophale) SiO2 
 PCOD8274207
Probable space group: C M M M
;
_chemical_formula_sum "Si O2"
_cell_formula_units_Z 112
_cell_length_a 16.766807
_cell_length_b 27.923069
_cell_length_c 14.201565
_cell_angle_alpha 90.000000
_cell_angle_beta 90.000000
_cell_angle_gamma 90.000000
_cell_volume 6648.898767
_symmetry_space_group_name_H-M "C M M M"
_symmetry_group_IT_number 65
_symmetry_cell_setting 'orthorhombic'
loop_
_space_group_symop_operation_xyz
x,y,z
-x,-y,z
x,-y,-z
-x,y,-z
-x,-y,-z
x,y,-z
-x,y,z
x,-y,z
1/2+x,1/2+y,z
1/2-x,1/2-y,z
1/2+x,1/2-y,-z
1/2-x,1/2+y,-z
1/2-x,1/2-y,-z
1/2+x,1/2+y,-z
1/2-x,1/2+y,z
1/2+x,1/2-y,z
loop_
_atom_site_type_symbol
_atom_site_label
_atom_site_fract_x
_atom_site_fract_y
_atom_site_fract_z
Si Si1 0.408017 0.780484 0.890864
Si Si2 0.247431 0.054431 0.109915
Si Si3 0.841760 0.808749 0.212530
Si Si4 0.908398 0.340731 0.606650
Si Si5 0.588367 0.394108 0.892149
Si Si6 0.675675 0.139786 0.788805
Si Si7 0.091607 0.228850 0.604904
O O1 0.500000 0.766751 0.874415
O O2 0.352759 0.741250 0.840888
O O3 0.393399 0.832958 0.846428
O O4 0.385414 0.782255 0.000000
O O5 0.155167 0.066668 0.133911
O O6 0.308025 0.087585 0.168026
O O7 0.263099 0.000000 0.140628
O O8 0.264548 0.062192 0.000000
O O9 0.903549 0.847158 0.171580
O O10 0.752754 0.827030 0.199770
O O11 0.856431 0.802215 0.323617
O O12 0.880520 0.352437 0.500000
O O13 0.851901 0.368287 0.680705
O O14 0.899698 0.284648 0.628440
O O15 0.000000 0.356708 0.619784
O O16 0.500000 0.416250 0.875706
O O17 0.599046 0.377475 0.000000
O O18 0.123451 0.217987 0.500000
O O19 0.000000 0.213472 0.614125
#
# Coordination Sequence:
#
# PCOD8274207 Si02
#       7
#    16  16  16  16  16  16  16
#     4  11  22  33  46  65  94 133 168 195 228 277
#     4   9  19  35  52  71  97 126 157 201 253 293
#     4  11  20  29  44  70 103 133 159 195 237 276
#     4   9  18  33  52  72  96 128 164 200 237 280
#     4   9  17  29  47  71  98 131 169 201 231 277
#     4  11  21  32  50  74  96 123 161 200 240 290
#     4   9  17  29  45  65  94 133 168 194 225 270
#
# _framework density 16.844895000000001
#
# number of rings (size 3 to 8) (size 9 to 14) (size 15 to 20)
#    0.000    2.143    1.429    3.857    0.000    4.286 
#    0.000    2.857    0.000    2.143    0.000    6.000 
#    0.000    0.000    0.000   15.143    0.000    0.286 
#
# Total GULP energy -694423.732649 kJ/mol
# GULP energy per Si atom -12400.423797 kJ/mol
# Density = 1.680656 g / cm^3
# Si number density = 16.844895 Si / 1000 Ang^3
#
#
#
# Elastic Constant Matrix: (Units=GPa)
#
#
# Indices 1 2 3 4 5 6 
#
# 1 49.1346 29.9376 33.2034 0.0000 0.0000 0.0000
# 2 29.9376 94.0141 49.8263 0.0000 0.0000 0.0000
# 3 33.2034 49.8263 105.8521 0.0000 0.0000 0.0000
# 4 0.0000 0.0000 0.0000 17.2338 0.0000 0.0000
# 5 0.0000 0.0000 0.0000 0.0000 27.9447 0.0000
# 6 0.0000 0.0000 0.0000 0.0000 0.0000 13.3690
#
#
#
# Elastic Compliance Matrix: (Units=1/GPa)
#
#
# Indices 1 2 3 4 5 6 
#
# 1 0.027919 -0.005661 -0.006093 0.000000 0.000000 0.000000
# 2 -0.005661 0.015320 -0.005436 0.000000 0.000000 0.000000
# 3 -0.006093 -0.005436 0.013917 0.000000 0.000000 0.000000
# 4 0.000000 0.000000 0.000000 0.058026 0.000000 0.000000
# 5 0.000000 0.000000 0.000000 0.000000 0.035785 0.000000
# 6 0.000000 0.000000 0.000000 0.000000 0.000000 0.074800
#
#
# Mechanical properties :
#
#
# Convention : Reuss Voigt Hill
#
# Bulk Modulus (GPa) = 43.90438 52.77060 48.33749
# Shear Modulus (GPa) = 18.67496 20.77839 19.72668
#
# Velocity S-wave (km/s) = 3.33324 3.51595 3.42581
# Velocity P-wave (km/s) = 6.39801 6.91939 6.66380
#
# Compressibility (1/GPa) = 0.02277677
#
# Stress axis : x y z
#
# Youngs Moduli (GPa) = 35.81803 65.27263 71.85490
#
# Poissons Ratio (x) = 0.36953 0.43778
# Poissons Ratio (y) = 0.20278 0.39058
# Poissons Ratio (z) = 0.21823 0.35480
#
# Static dielectric constant tensor:
#      x y z
#    x 3.118120 0.000000 0.000000 
#    y 0.000000 2.872620 0.000000 
#    z 0.000000 0.000000 3.259800 
# 
# 
# High freq. dielectric constant tensor:
#      x y z
#    x 1.650760 0.000000 0.000000 
#    y 0.000000 1.607910 0.000000 
#    z 0.000000 0.000000 1.653980 
# 
# From -- ./inp_files/41077.got.cif
#   From: 2010.03.12/outbox.cif.g09.slc.cpg/sg65_21_cif.got.tgz:41077.got - 2010.04.10 20:52:16.
