data_PCOD8274171
_publ_section_title
;
Structure prediction by ZEFSAII (Michael W. Deem and Ramdas Pophale) SiO2 
 PCOD8274171
Probable space group: C M M M
;
_chemical_formula_sum "Si O2"
_cell_formula_units_Z 80
_cell_length_a 19.401995
_cell_length_b 23.017194
_cell_length_c 14.279229
_cell_angle_alpha 90.000000
_cell_angle_beta 90.000000
_cell_angle_gamma 90.000000
_cell_volume 6376.810703
_symmetry_space_group_name_H-M "C M M M"
_symmetry_group_IT_number 65
_symmetry_cell_setting 'orthorhombic'
loop_
_space_group_symop_operation_xyz
x,y,z
-x,-y,z
x,-y,-z
-x,y,-z
-x,-y,-z
x,y,-z
-x,y,z
x,-y,z
1/2+x,1/2+y,z
1/2-x,1/2-y,z
1/2+x,1/2-y,-z
1/2-x,1/2+y,-z
1/2-x,1/2-y,-z
1/2+x,1/2+y,-z
1/2-x,1/2+y,z
1/2+x,1/2-y,z
loop_
_atom_site_type_symbol
_atom_site_label
_atom_site_fract_x
_atom_site_fract_y
_atom_site_fract_z
Si Si1 0.500000 0.243934 0.111576
Si Si2 0.853290 0.772034 0.110841
Si Si3 0.773221 0.657702 0.889211
Si Si4 0.077183 0.431063 0.397612
Si Si5 0.000000 0.611177 0.888841
Si Si6 0.136552 0.432294 0.206643
O O1 0.431622 0.277230 0.149638
O O2 0.500000 0.177609 0.146734
O O3 0.500000 0.244105 0.000000
O O4 0.823380 0.709899 0.141923
O O5 0.804513 0.825174 0.144371
O O6 0.852703 0.772909 0.000000
O O7 0.797337 0.600172 0.835965
O O8 0.776734 0.646448 0.000000
O O9 0.105547 0.410901 0.500000
O O10 0.073029 0.500000 0.393643
O O11 0.125957 0.409382 0.313431
O O12 0.000000 0.406073 0.382627
O O13 0.067661 0.578777 0.852443
O O14 0.000000 0.607906 0.000000
O O15 0.154365 0.500000 0.203724
#
# Coordination Sequence:
#
# PCOD8274171 Si02
#       6
#     8  16  16  16   8  16
#     4   9  14  23  38  52  67  92 125 161 184 193
#     4   8  14  24  37  49  66  94 128 158 179 196
#     4   9  16  25  34  49  74 101 123 145 173 209
#     4   8  14  25  37  47  63  90 126 161 178 191
#     4  11  19  24  30  50  82 105 121 140 165 208
#     4  11  19  25  34  51  75 103 125 139 170 221
#
# _framework density 12.545456
#
# number of rings (size 3 to 8) (size 9 to 14) (size 15 to 20)
#    0.000    2.800    3.000    2.700    0.000    2.000 
#    0.000    0.000    0.000    0.000    0.000    3.500 
#    0.000    4.000    0.000    0.000    0.000    8.500 
#
# Total GULP energy -495580.984785 kJ/mol
# GULP energy per Si atom -12389.524620 kJ/mol
# Density = 1.251690 g / cm^3
# Si number density = 12.545456 Si / 1000 Ang^3
#
#
#
# Elastic Constant Matrix: (Units=GPa)
#
#
# Indices 1 2 3 4 5 6 
#
# 1 94.7454 41.0140 26.2336 0.0000 0.0000 0.0000
# 2 41.0140 53.4041 28.2982 0.0000 0.0000 0.0000
# 3 26.2336 28.2982 61.4764 0.0000 0.0000 0.0000
# 4 0.0000 0.0000 0.0000 1.4232 0.0000 0.0000
# 5 0.0000 0.0000 0.0000 0.0000 10.2922 0.0000
# 6 0.0000 0.0000 0.0000 0.0000 0.0000 19.8050
#
#
#
# Elastic Compliance Matrix: (Units=1/GPa)
#
#
# Indices 1 2 3 4 5 6 
#
# 1 0.015921 -0.011410 -0.001542 0.000000 0.000000 0.000000
# 2 -0.011410 0.032943 -0.010295 0.000000 0.000000 0.000000
# 3 -0.001542 -0.010295 0.021663 0.000000 0.000000 0.000000
# 4 0.000000 0.000000 0.000000 0.702637 0.000000 0.000000
# 5 0.000000 0.000000 0.000000 0.000000 0.097161 0.000000
# 6 0.000000 0.000000 0.000000 0.000000 0.000000 0.050492
#
#
# Mechanical properties :
#
#
# Convention : Reuss Voigt Hill
#
# Bulk Modulus (GPa) = 41.60854 44.52415 43.06635
# Shear Modulus (GPa) = 5.12651 13.90941 9.51796
#
# Velocity S-wave (km/s) = 2.02366 3.33336 2.75740
# Velocity P-wave (km/s) = 6.22081 7.09805 6.67386
#
# Compressibility (1/GPa) = 0.02403352
#
# Stress axis : x y z
#
# Youngs Moduli (GPa) = 62.81115 30.35519 46.16125
#
# Poissons Ratio (x) = 0.34636 0.07116
# Poissons Ratio (y) = 0.71668 0.47524
# Poissons Ratio (z) = 0.09683 0.31251
#
# Static dielectric constant tensor:
#      x y z
#    x 2.785060 0.000000 0.000000 
#    y 0.000000 2.368230 0.000000 
#    z 0.000000 0.000000 2.546050 
# 
# 
# High freq. dielectric constant tensor:
#      x y z
#    x 1.464530 0.000000 0.000000 
#    y 0.000000 1.445290 0.000000 
#    z 0.000000 0.000000 1.449700 
# 
# From -- ./inp_files/44492.got.cif
#   From: 2010.03.12/outbox.cif.g09.slc.cpg/sg65_23_cif.got.tgz:44492.got - 2010.04.10 20:52:16.
