data_PCOD8274759
_publ_section_title
;
Structure prediction by ZEFSAII (Michael W. Deem and Ramdas Pophale) SiO2 
 PCOD8274759
Probable space group: C M M M
;
_chemical_formula_sum "Si O2"
_cell_formula_units_Z 88
_cell_length_a 16.976432
_cell_length_b 12.077551
_cell_length_c 20.749576
_cell_angle_alpha 90.000000
_cell_angle_beta 90.000000
_cell_angle_gamma 90.000000
_cell_volume 4254.362824
_symmetry_space_group_name_H-M "C M M M"
_symmetry_group_IT_number 65
_symmetry_cell_setting 'orthorhombic'
loop_
_space_group_symop_operation_xyz
x,y,z
-x,-y,z
x,-y,-z
-x,y,-z
-x,-y,-z
x,y,-z
-x,y,z
x,-y,z
1/2+x,1/2+y,z
1/2-x,1/2-y,z
1/2+x,1/2-y,-z
1/2-x,1/2+y,-z
1/2-x,1/2-y,-z
1/2+x,1/2+y,-z
1/2-x,1/2+y,z
1/2+x,1/2-y,z
loop_
_atom_site_type_symbol
_atom_site_label
_atom_site_fract_x
_atom_site_fract_y
_atom_site_fract_z
Si Si1 0.408006 0.876602 0.313170
Si Si2 0.841732 0.270010 0.070543
Si Si3 0.411773 0.500000 0.256693
Si Si4 0.840199 0.236043 0.427784
Si Si5 0.841493 0.220715 0.792869
Si Si6 0.586714 0.000000 0.925754
Si Si7 0.412276 0.500000 0.406793
O O1 0.500000 0.888335 0.309098
O O2 0.389723 0.805771 0.376715
O O3 0.381695 0.818459 0.247199
O O4 0.369870 0.000000 0.317629
O O5 0.750000 0.250000 0.062492
O O6 0.874104 0.204998 0.133254
O O7 0.859442 0.395640 0.091415
O O8 0.881002 0.239796 0.000000
O O9 0.500000 0.500000 0.224842
O O10 0.359309 0.394775 0.240096
O O11 0.423706 0.500000 0.331624
O O12 0.853405 0.284028 0.500000
O O13 0.750000 0.250000 0.406624
O O14 0.864196 0.107572 0.428698
O O15 0.750000 0.250000 0.794963
O O16 0.500000 0.000000 0.890561
O O17 0.567433 0.000000 0.000000
O O18 0.500000 0.500000 0.438226
#
# Coordination Sequence:
#
# PCOD8274759 Si02
#       7
#    16  16   8  16  16   8   8
#     4  11  25  42  63  93 128 166 206 254 313 376
#     4   9  20  38  59  88 125 162 205 257 314 376
#     4  11  24  42  64  92 128 167 207 259 318 371
#     4  11  25  42  66  97 129 164 207 260 312 365
#     4  11  24  39  66  93 123 164 212 260 314 372
#     4   9  18  33  56  86 116 152 200 252 306 361
#     4  11  23  42  68  94 124 168 220 263 300 364
#
# _framework density 20.684650000000001
#
# number of rings (size 3 to 8) (size 9 to 14) (size 15 to 20)
#    0.000    1.545    1.818    1.909    3.818    5.818 
#    0.000    2.273    0.000    0.545    0.000    0.000 
#    0.000    0.000    0.000    0.000    0.000    0.000 
#
# Total GULP energy -545163.831946 kJ/mol
# GULP energy per Si atom -12390.087090 kJ/mol
# Density = 2.063757 g / cm^3
# Si number density = 20.684650 Si / 1000 Ang^3
#
#
#
# Elastic Constant Matrix: (Units=GPa)
#
#
# Indices 1 2 3 4 5 6 
#
# 1 99.0857 50.1581 18.5152 0.0000 0.0000 0.0000
# 2 50.1581 127.7171 32.2839 0.0000 0.0000 0.0000
# 3 18.5152 32.2839 143.2716 0.0000 0.0000 0.0000
# 4 0.0000 0.0000 0.0000 10.4150 0.0000 0.0000
# 5 0.0000 0.0000 0.0000 0.0000 23.8519 0.0000
# 6 0.0000 0.0000 0.0000 0.0000 0.0000 54.9148
#
#
#
# Elastic Compliance Matrix: (Units=1/GPa)
#
#
# Indices 1 2 3 4 5 6 
#
# 1 0.012637 -0.004825 -0.000546 0.000000 0.000000 0.000000
# 2 -0.004825 0.010145 -0.001662 0.000000 0.000000 0.000000
# 3 -0.000546 -0.001662 0.007425 0.000000 0.000000 0.000000
# 4 0.000000 0.000000 0.000000 0.096015 0.000000 0.000000
# 5 0.000000 0.000000 0.000000 0.000000 0.041925 0.000000
# 6 0.000000 0.000000 0.000000 0.000000 0.000000 0.018210
#
#
# Mechanical properties :
#
#
# Convention : Reuss Voigt Hill
#
# Bulk Modulus (GPa) = 61.95720 63.55431 62.75575
# Shear Modulus (GPa) = 24.29504 35.77749 30.03626
#
# Velocity S-wave (km/s) = 3.43088 4.16343 3.81478
# Velocity P-wave (km/s) = 6.76113 7.34195 7.05752
#
# Compressibility (1/GPa) = 0.01614018
#
# Stress axis : x y z
#
# Youngs Moduli (GPa) = 79.13501 98.57200 134.68191
#
# Poissons Ratio (x) = 0.47559 0.07352
# Poissons Ratio (y) = 0.38181 0.22390
# Poissons Ratio (z) = 0.04320 0.16387
#
# Static dielectric constant tensor:
#      x y z
#    x 3.791690 0.000000 0.000000 
#    y 0.000000 4.085130 0.000000 
#    z 0.000000 0.000000 4.259110 
# 
# 
# High freq. dielectric constant tensor:
#      x y z
#    x 1.805290 0.000000 0.000000 
#    y 0.000000 1.804010 0.000000 
#    z 0.000000 0.000000 1.830560 
# 
# From -- ./inp_files/63679.got.cif
#   From: 2010.03.12/outbox.cif.g09.slc.cpg/sg65_32_cif.got.tgz:63679.got - 2010.04.10 20:52:16.
