data_PCOD8274862
_publ_section_title
;
Structure prediction by ZEFSAII (Michael W. Deem and Ramdas Pophale) SiO2 
 PCOD8274862
Probable space group: C M M M
;
_chemical_formula_sum "Si O2"
_cell_formula_units_Z 64
_cell_length_a 21.061055
_cell_length_b 18.817553
_cell_length_c 9.104616
_cell_angle_alpha 90.000000
_cell_angle_beta 90.000000
_cell_angle_gamma 90.000000
_cell_volume 3608.318822
_symmetry_space_group_name_H-M "C M M M"
_symmetry_group_IT_number 65
_symmetry_cell_setting 'orthorhombic'
loop_
_space_group_symop_operation_xyz
x,y,z
-x,-y,z
x,-y,-z
-x,y,-z
-x,-y,-z
x,y,-z
-x,y,z
x,-y,z
1/2+x,1/2+y,z
1/2-x,1/2-y,z
1/2+x,1/2-y,-z
1/2-x,1/2+y,-z
1/2-x,1/2-y,-z
1/2+x,1/2+y,-z
1/2-x,1/2+y,z
1/2+x,1/2-y,z
loop_
_atom_site_type_symbol
_atom_site_label
_atom_site_fract_x
_atom_site_fract_y
_atom_site_fract_z
Si Si1 0.000000 0.915614 0.165604
Si Si2 0.864209 0.420177 0.676086
Si Si3 0.252673 0.669830 0.325047
Si Si4 0.625799 0.417699 0.672503
Si Si5 0.500000 0.084410 0.660859
O O1 0.937055 0.888168 0.247796
O O2 0.000000 0.000000 0.169144
O O3 0.000000 0.886137 0.000000
O O4 0.866939 0.418273 0.500000
O O5 0.848994 0.500000 0.729425
O O6 0.809380 0.369570 0.738636
O O7 0.933353 0.393993 0.739821
O O8 0.251541 0.668239 0.500000
O O9 0.250000 0.750000 0.264677
O O10 0.315477 0.629314 0.269171
O O11 0.615114 0.408047 0.500000
O O12 0.639633 0.500000 0.711122
O O13 0.500000 0.120127 0.500000
O O14 0.500000 0.000000 0.643364
#
# Coordination Sequence:
#
# PCOD8274862 Si02
#       5
#     8  16  16  16   8
#     4   9  17  29  46  67  87 107 138 183 224 254
#     4   8  12  19  31  46  66  95 131 167 201 238
#     4   9  16  24  34  52  80 111 141 172 204 241
#     4   9  16  27  44  64  86 114 145 175 212 259
#     4   7  10  16  27  42  58  80 114 154 192 229
#
# _framework density 17.736791
#
# number of rings (size 3 to 8) (size 9 to 14) (size 15 to 20)
#    0.000    3.500    0.000    2.625    0.000    4.500 
#    0.000    1.250    0.000    6.750    0.000    0.000 
#    0.000    0.000    0.000    0.000    0.000   24.125 
#
# Total GULP energy -396461.776262 kJ/mol
# GULP energy per Si atom -12389.430508 kJ/mol
# Density = 1.769642 g / cm^3
# Si number density = 17.736791 Si / 1000 Ang^3
#
#
#
# Elastic Constant Matrix: (Units=GPa)
#
#
# Indices 1 2 3 4 5 6 
#
# 1 221.5868 88.0850 30.0021 0.0000 0.0000 0.0000
# 2 88.0850 95.5907 14.6186 0.0000 0.0000 0.0000
# 3 30.0021 14.6186 22.8691 0.0000 0.0000 0.0000
# 4 0.0000 0.0000 0.0000 4.1522 0.0000 0.0000
# 5 0.0000 0.0000 0.0000 0.0000 2.9803 0.0000
# 6 0.0000 0.0000 0.0000 0.0000 0.0000 7.9312
#
#
#
# Elastic Compliance Matrix: (Units=1/GPa)
#
#
# Indices 1 2 3 4 5 6 
#
# 1 0.007863 -0.006282 -0.006300 0.000000 0.000000 0.000000
# 2 -0.006282 0.016614 -0.002378 0.000000 0.000000 0.000000
# 3 -0.006300 -0.002378 0.053512 0.000000 0.000000 0.000000
# 4 0.000000 0.000000 0.000000 0.240834 0.000000 0.000000
# 5 0.000000 0.000000 0.000000 0.000000 0.335534 0.000000
# 6 0.000000 0.000000 0.000000 0.000000 0.000000 0.126084
#
#
# Mechanical properties :
#
#
# Convention : Reuss Voigt Hill
#
# Bulk Modulus (GPa) = 20.80369 67.27313 44.03841
# Shear Modulus (GPa) = 6.05044 16.83548 11.44296
#
# Velocity S-wave (km/s) = 1.84896 3.08423 2.54274
# Velocity P-wave (km/s) = 4.03891 7.11998 5.78822
#
# Compressibility (1/GPa) = 0.04806840
#
# Stress axis : x y z
#
# Youngs Moduli (GPa) = 127.17346 60.18984 18.68724
#
# Poissons Ratio (x) = 0.37814 0.11773
# Poissons Ratio (y) = 0.79896 0.04444
# Poissons Ratio (z) = 0.80119 0.14315
#
# Static dielectric constant tensor:
#      x y z
#    x 3.827520 0.000000 0.000000 
#    y 0.000000 3.121110 0.000000 
#    z 0.000000 0.000000 2.606260 
# 
# 
# High freq. dielectric constant tensor:
#      x y z
#    x 1.714650 0.000000 0.000000 
#    y 0.000000 1.654060 0.000000 
#    z 0.000000 0.000000 1.606230 
# 
# From -- ./inp_files/11127.got.cif
#   From: 2010.03.12/outbox.cif.g09.slc.cpg/sg65_6_cif.got.tgz:11127.got - 2010.04.10 20:52:16.
