data_PCOD8274574
_publ_section_title
;
Structure prediction by ZEFSAII (Michael W. Deem and Ramdas Pophale) SiO2 
 PCOD8274574
Probable space group: C M M M
;
_chemical_formula_sum "Si O2"
_cell_formula_units_Z 88
_cell_length_a 23.681559
_cell_length_b 8.560805
_cell_length_c 22.808028
_cell_angle_alpha 90.000000
_cell_angle_beta 90.000000
_cell_angle_gamma 90.000000
_cell_volume 4623.944700
_symmetry_space_group_name_H-M "C M M M"
_symmetry_group_IT_number 65
_symmetry_cell_setting 'orthorhombic'
loop_
_space_group_symop_operation_xyz
x,y,z
-x,-y,z
x,-y,-z
-x,y,-z
-x,-y,-z
x,y,-z
-x,y,z
x,-y,z
1/2+x,1/2+y,z
1/2-x,1/2-y,z
1/2+x,1/2-y,-z
1/2-x,1/2+y,-z
1/2-x,1/2-y,-z
1/2+x,1/2+y,-z
1/2-x,1/2+y,z
1/2+x,1/2-y,z
loop_
_atom_site_type_symbol
_atom_site_label
_atom_site_fract_x
_atom_site_fract_y
_atom_site_fract_z
Si Si1 0.687706 0.680410 0.717675
Si Si2 0.399990 0.318262 0.379752
Si Si3 0.500000 0.680040 0.808962
Si Si4 0.881034 0.684292 0.826205
Si Si5 0.689278 0.815244 0.064846
Si Si6 0.433037 0.185937 0.500000
Si Si7 0.000000 0.321797 0.312170
O O1 0.693446 0.500000 0.732285
O O2 0.750000 0.750000 0.718114
O O3 0.659517 0.708492 0.653751
O O4 0.647688 0.750894 0.767653
O O5 0.417972 0.500000 0.375976
O O6 0.398313 0.261662 0.446488
O O7 0.445267 0.204838 0.350696
O O8 0.500000 0.500000 0.826785
O O9 0.554888 0.763342 0.834254
O O10 0.500000 0.695989 0.739181
O O11 0.877494 0.500000 0.822082
O O12 0.851642 0.749804 0.884893
O O13 0.750000 0.750000 0.080435
O O14 0.691997 0.000000 0.066600
O O15 0.669471 0.758178 0.000000
O O16 0.500000 0.232251 0.500000
O O17 0.426583 0.000000 0.500000
O O18 0.000000 0.500000 0.288290
#
# Coordination Sequence:
#
# PCOD8274574 Si02
#       7
#    16  16   8  16  16   8   8
#     4  11  24  40  60  86 118 153 194 240 290 346
#     4  11  23  39  60  86 118 154 192 238 290 345
#     4  12  24  38  56  84 120 155 191 236 292 352
#     4  11  22  37  60  87 117 153 194 241 293 346
#     4   9  19  36  58  85 116 152 195 241 289 342
#     4  11  23  37  58  89 119 150 193 241 286 344
#     4  12  22  35  59  87 117 152 190 235 289 346
#
# _framework density 19.031369999999999
#
# number of rings (size 3 to 8) (size 9 to 14) (size 15 to 20)
#    0.000    1.182    2.727    4.091    0.000    5.455 
#    0.000    0.909    0.000    2.727    0.000    0.000 
#    0.000    0.000    0.000    0.000    0.000    0.000 
#
# Total GULP energy -545574.199024 kJ/mol
# GULP energy per Si atom -12399.413614 kJ/mol
# Density = 1.898805 g / cm^3
# Si number density = 19.031370 Si / 1000 Ang^3
#
#
#
# Elastic Constant Matrix: (Units=GPa)
#
#
# Indices 1 2 3 4 5 6 
#
# 1 135.2147 38.7168 72.8417 0.0000 0.0000 0.0000
# 2 38.7168 80.8217 34.3794 0.0000 0.0000 0.0000
# 3 72.8417 34.3794 144.4804 0.0000 0.0000 0.0000
# 4 0.0000 0.0000 0.0000 22.4108 0.0000 0.0000
# 5 0.0000 0.0000 0.0000 0.0000 41.8014 0.0000
# 6 0.0000 0.0000 0.0000 0.0000 0.0000 28.7438
#
#
#
# Elastic Compliance Matrix: (Units=1/GPa)
#
#
# Indices 1 2 3 4 5 6 
#
# 1 0.010847 -0.003193 -0.004709 0.000000 0.000000 0.000000
# 2 -0.003193 0.014706 -0.001890 0.000000 0.000000 0.000000
# 3 -0.004709 -0.001890 0.009745 0.000000 0.000000 0.000000
# 4 0.000000 0.000000 0.000000 0.044621 0.000000 0.000000
# 5 0.000000 0.000000 0.000000 0.000000 0.023923 0.000000
# 6 0.000000 0.000000 0.000000 0.000000 0.000000 0.034790
#
#
# Mechanical properties :
#
#
# Convention : Reuss Voigt Hill
#
# Bulk Modulus (GPa) = 63.63245 72.48807 68.06026
# Shear Modulus (GPa) = 30.58992 32.89648 31.74320
#
# Velocity S-wave (km/s) = 4.01352 4.16208 4.08847
# Velocity P-wave (km/s) = 7.41525 7.82743 7.62412
#
# Compressibility (1/GPa) = 0.01571525
#
# Stress axis : x y z
#
# Youngs Moduli (GPa) = 92.19561 67.99819 102.61779
#
# Poissons Ratio (x) = 0.21712 0.48319
# Poissons Ratio (y) = 0.29438 0.19391
# Poissons Ratio (z) = 0.43411 0.12849
#
# Static dielectric constant tensor:
#      x y z
#    x 3.524440 0.000000 0.000000 
#    y 0.000000 3.550160 0.000000 
#    z 0.000000 0.000000 3.798560 
# 
# 
# High freq. dielectric constant tensor:
#      x y z
#    x 1.733090 0.000000 0.000000 
#    y 0.000000 1.751260 0.000000 
#    z 0.000000 0.000000 1.745860 
# 
# From -- ./inp_files/71071.got.cif
#   From: 2010.03.12/outbox.cif.g09.slc.cpg/sg65_36_cif.got.tgz:71071.got - 2010.04.10 20:52:16.
