data_PCOD8274661
_publ_section_title
;
Structure prediction by ZEFSAII (Michael W. Deem and Ramdas Pophale) SiO2 
 PCOD8274661
Probable space group: C M M M
;
_chemical_formula_sum "Si O2"
_cell_formula_units_Z 88
_cell_length_a 7.872925
_cell_length_b 19.306803
_cell_length_c 30.041640
_cell_angle_alpha 90.000000
_cell_angle_beta 90.000000
_cell_angle_gamma 90.000000
_cell_volume 4566.359682
_symmetry_space_group_name_H-M "C M M M"
_symmetry_group_IT_number 65
_symmetry_cell_setting 'orthorhombic'
loop_
_space_group_symop_operation_xyz
x,y,z
-x,-y,z
x,-y,-z
-x,y,-z
-x,-y,-z
x,y,-z
-x,y,z
x,-y,z
1/2+x,1/2+y,z
1/2-x,1/2-y,z
1/2+x,1/2-y,-z
1/2-x,1/2+y,-z
1/2-x,1/2-y,-z
1/2+x,1/2+y,-z
1/2-x,1/2+y,z
1/2+x,1/2-y,z
loop_
_atom_site_type_symbol
_atom_site_label
_atom_site_fract_x
_atom_site_fract_y
_atom_site_fract_z
Si Si1 0.801360 0.581079 0.386608
Si Si2 0.305583 0.829230 0.304818
Si Si3 0.200492 0.826716 0.049221
Si Si4 0.500000 0.418385 0.450704
Si Si5 0.701927 0.577125 0.125707
Si Si6 0.700945 0.422102 0.224680
O O1 0.779756 0.500000 0.375021
O O2 0.727965 0.624713 0.344643
O O3 0.675477 0.604108 0.426420
O O4 0.000000 0.596711 0.398816
O O5 0.500000 0.829812 0.315201
O O6 0.250000 0.750000 0.304673
O O7 0.271257 0.864542 0.257640
O O8 0.250000 0.750000 0.063040
O O9 0.282720 0.875176 0.087178
O O10 0.000000 0.835599 0.048300
O O11 0.274206 0.844909 0.000000
O O12 0.500000 0.500000 0.454859
O O13 0.500000 0.384540 0.500000
O O14 0.500000 0.581015 0.124377
O O15 0.765395 0.500000 0.115519
O O16 0.763671 0.599176 0.175105
O O17 0.500000 0.421810 0.227019
O O18 0.766863 0.500000 0.236353
#
# Coordination Sequence:
#
# PCOD8274661 Si02
#       6
#    16  16  16   8  16  16
#     4   9  19  35  55  81 111 144 181 225 274 321
#     4  11  23  36  52  77 105 139 176 218 262 308
#     4   9  17  29  46  67  92 124 161 202 249 299
#     4   9  18  32  56  88 114 142 181 225 272 322
#     4   8  15  29  48  71  96 122 158 204 251 299
#     4   9  18  33  53  74 100 134 168 207 258 316
#
# _framework density 19.271367000000001
#
# number of rings (size 3 to 8) (size 9 to 14) (size 15 to 20)
#    0.000    2.818    0.000    2.182    2.545    2.545 
#    0.000    6.364    0.000    2.182    0.000    2.545 
#    0.000    0.000    0.000    0.000    0.000    0.000 
#
# Total GULP energy -545211.946201 kJ/mol
# GULP energy per Si atom -12391.180595 kJ/mol
# Density = 1.922750 g / cm^3
# Si number density = 19.271367 Si / 1000 Ang^3
#
#
#
# Elastic Constant Matrix: (Units=GPa)
#
#
# Indices 1 2 3 4 5 6 
#
# 1 44.2975 22.7986 33.9646 0.0000 0.0000 0.0000
# 2 22.7986 112.6616 92.2149 0.0000 0.0000 0.0000
# 3 33.9646 92.2149 165.8937 0.0000 0.0000 0.0000
# 4 0.0000 0.0000 0.0000 16.3807 0.0000 0.0000
# 5 0.0000 0.0000 0.0000 0.0000 15.8173 0.0000
# 6 0.0000 0.0000 0.0000 0.0000 0.0000 15.6133
#
#
#
# Elastic Compliance Matrix: (Units=1/GPa)
#
#
# Indices 1 2 3 4 5 6 
#
# 1 0.026959 -0.001721 -0.004563 0.000000 0.000000 0.000000
# 2 -0.001721 0.016396 -0.008762 0.000000 0.000000 0.000000
# 3 -0.004563 -0.008762 0.011832 0.000000 0.000000 0.000000
# 4 0.000000 0.000000 0.000000 0.061047 0.000000 0.000000
# 5 0.000000 0.000000 0.000000 0.000000 0.063222 0.000000
# 6 0.000000 0.000000 0.000000 0.000000 0.000000 0.064048
#
#
# Mechanical properties :
#
#
# Convention : Reuss Voigt Hill
#
# Bulk Modulus (GPa) = 39.84598 68.97877 54.41238
# Shear Modulus (GPa) = 17.73299 21.15392 19.44346
#
# Velocity S-wave (km/s) = 3.03673 3.31673 3.17981
# Velocity P-wave (km/s) = 5.74602 7.10906 6.46357
#
# Compressibility (1/GPa) = 0.02509663
#
# Stress axis : x y z
#
# Youngs Moduli (GPa) = 37.09355 60.99113 84.51308
#
# Poissons Ratio (x) = 0.10494 0.38564
# Poissons Ratio (y) = 0.06382 0.74047
# Poissons Ratio (z) = 0.16926 0.53438
#
# Static dielectric constant tensor:
#      x y z
#    x 3.358710 0.000000 0.000000 
#    y 0.000000 3.399550 0.000000 
#    z 0.000000 0.000000 5.088180 
# 
# 
# High freq. dielectric constant tensor:
#      x y z
#    x 1.735680 0.000000 0.000000 
#    y 0.000000 1.733240 0.000000 
#    z 0.000000 0.000000 1.755830 
# 
# From -- ./inp_files/76511.got.cif
#   From: 2010.03.12/outbox.cif.g09.slc.cpg/sg65_39_cif.got.tgz:76511.got - 2010.04.10 20:52:16.
