data_PCOD8275646
_publ_section_title
;
Structure prediction by ZEFSAII (Michael W. Deem and Ramdas Pophale) SiO2 
 PCOD8275646
Probable space group: C C C M
;
_chemical_formula_sum "Si O2"
_cell_formula_units_Z 72
_cell_length_a 23.331013
_cell_length_b 7.485831
_cell_length_c 20.594551
_cell_angle_alpha 90.000000
_cell_angle_beta 90.000000
_cell_angle_gamma 90.000000
_cell_volume 3596.879941
_symmetry_space_group_name_H-M "C C C M"
_symmetry_group_IT_number 66
_symmetry_cell_setting 'orthorhombic'
loop_
_space_group_symop_operation_xyz
x,y,z
-x,-y,z
x,-y,1/2-z
-x,y,1/2-z
-x,-y,-z
x,y,-z
-x,y,1/2+z
x,-y,1/2+z
1/2+x,1/2+y,z
1/2-x,1/2-y,z
1/2+x,1/2-y,1/2-z
1/2-x,1/2+y,1/2-z
1/2-x,1/2-y,-z
1/2+x,1/2+y,-z
1/2-x,1/2+y,1/2+z
1/2+x,1/2-y,1/2+z
loop_
_atom_site_type_symbol
_atom_site_label
_atom_site_fract_x
_atom_site_fract_y
_atom_site_fract_z
Si Si1 0.693329 0.956010 0.574476
Si Si2 0.816954 0.059728 0.882989
Si Si3 0.863195 0.000000 0.750000
Si Si4 0.965704 0.184061 0.307592
Si Si5 0.397764 0.243367 0.075443
O O1 0.705012 0.995895 0.500000
O O2 0.752288 0.011092 0.609459
O O3 0.675389 0.751239 0.583609
O O4 0.642322 0.081612 0.599277
O O5 0.824548 0.084945 0.806060
O O6 0.863930 0.929571 0.915047
O O7 0.901854 0.155590 0.719274
O O8 0.955393 0.271473 0.378863
O O9 0.000000 0.293676 0.250000
O O10 0.000000 0.000000 0.318535
O O11 0.416532 0.225417 0.000000
#
# Coordination Sequence:
#
# PCOD8275646 Si02
#       5
#    16  16   8  16  16
#     4  10  20  33  51  78 111 147 181 217 268 331
#     4  10  18  34  50  75 113 151 176 217 272 323
#     4   8  17  32  52  74 102 140 185 218 260 332
#     4   8  16  34  56  74 103 142 181 231 293 334
#     4  10  19  32  55  82 104 136 188 235 271 329
#
# _framework density 20.01735
#
# number of rings (size 3 to 8) (size 9 to 14) (size 15 to 20)
#    0.000    2.889    0.000    3.333    0.000    2.222 
#   16.000    0.000    0.000   24.000    0.000   29.556 
#    0.000    0.000    0.000    0.000    0.000    0.000 
#
# Total GULP energy -446041.573522 kJ/mol
# GULP energy per Si atom -12390.043709 kJ/mol
# Density = 1.997179 g / cm^3
# Si number density = 20.017350 Si / 1000 Ang^3
#
#
#
# Elastic Constant Matrix: (Units=GPa)
#
#
# Indices 1 2 3 4 5 6 
#
# 1 94.1015 25.9390 68.9881 0.0000 0.0000 0.0000
# 2 25.9390 49.6717 16.0016 0.0000 0.0000 0.0000
# 3 68.9881 16.0016 134.3252 0.0000 0.0000 0.0000
# 4 0.0000 0.0000 0.0000 9.5458 0.0000 0.0000
# 5 0.0000 0.0000 0.0000 0.0000 38.0345 0.0000
# 6 0.0000 0.0000 0.0000 0.0000 0.0000 13.5305
#
#
#
# Elastic Compliance Matrix: (Units=1/GPa)
#
#
# Indices 1 2 3 4 5 6 
#
# 1 0.019195 -0.007121 -0.009010 0.000000 0.000000 0.000000
# 2 -0.007121 0.023578 0.000849 0.000000 0.000000 0.000000
# 3 -0.009010 0.000849 0.011971 0.000000 0.000000 0.000000
# 4 0.000000 0.000000 0.000000 0.104758 0.000000 0.000000
# 5 0.000000 0.000000 0.000000 0.000000 0.026292 0.000000
# 6 0.000000 0.000000 0.000000 0.000000 0.000000 0.073907
#
#
# Mechanical properties :
#
#
# Convention : Reuss Voigt Hill
#
# Bulk Modulus (GPa) = 41.35923 55.55063 48.45493
# Shear Modulus (GPa) = 16.76018 23.36682 20.06350
#
# Velocity S-wave (km/s) = 2.89672 3.42033 3.16936
# Velocity P-wave (km/s) = 5.64753 6.58860 6.13613
#
# Compressibility (1/GPa) = 0.02417840
#
# Stress axis : x y z
#
# Youngs Moduli (GPa) = 52.09564 42.41315 83.53456
#
# Poissons Ratio (x) = 0.30204 0.75267
# Poissons Ratio (y) = 0.37099 -0.07090
# Poissons Ratio (z) = 0.46940 -0.03600
#
# Static dielectric constant tensor:
#      x y z
#    x 3.642900 0.000000 0.000000 
#    y 0.000000 3.456410 0.000000 
#    z 0.000000 0.000000 4.081780 
# 
# 
# High freq. dielectric constant tensor:
#      x y z
#    x 1.769850 0.000000 0.000000 
#    y 0.000000 1.750660 0.000000 
#    z 0.000000 0.000000 1.795910 
# 
# From -- ./inp_files/36881.got.cif
#   From: 2010.03.12/outbox.cif.g09.slc.cpg/sg66_19_cif.got.tgz:36881.got - 2010.04.10 21:57:39.
