data_PCOD8275893
_publ_section_title
;
Structure prediction by ZEFSAII (Michael W. Deem and Ramdas Pophale) SiO2 
 PCOD8275893
Probable space group: C C C M
;
_chemical_formula_sum "Si O2"
_cell_formula_units_Z 96
_cell_length_a 30.575248
_cell_length_b 19.442896
_cell_length_c 9.057334
_cell_angle_alpha 90.000000
_cell_angle_beta 90.000000
_cell_angle_gamma 90.000000
_cell_volume 5384.325725
_symmetry_space_group_name_H-M "C C C M"
_symmetry_group_IT_number 66
_symmetry_cell_setting 'orthorhombic'
loop_
_space_group_symop_operation_xyz
x,y,z
-x,-y,z
x,-y,1/2-z
-x,y,1/2-z
-x,-y,-z
x,y,-z
-x,y,1/2+z
x,-y,1/2+z
1/2+x,1/2+y,z
1/2-x,1/2-y,z
1/2+x,1/2-y,1/2-z
1/2-x,1/2+y,1/2-z
1/2-x,1/2-y,-z
1/2+x,1/2+y,-z
1/2-x,1/2+y,1/2+z
1/2+x,1/2-y,1/2+z
loop_
_atom_site_type_symbol
_atom_site_label
_atom_site_fract_x
_atom_site_fract_y
_atom_site_fract_z
Si Si1 0.735266 0.069909 0.826761
Si Si2 0.871556 0.200047 0.672861
Si Si3 0.954322 0.285042 0.328954
Si Si4 0.453338 0.936685 0.327706
Si Si5 0.836537 0.069396 0.172802
Si Si6 0.290907 0.204025 0.172432
O O1 0.785983 0.083079 0.788361
O O2 0.707770 0.133210 0.762625
O O3 0.718848 0.000000 0.750000
O O4 0.727004 0.063383 0.000000
O O5 0.869578 0.182229 0.500000
O O6 0.918382 0.230016 0.721799
O O7 0.865255 0.131380 0.765625
O O8 0.834796 0.255677 0.712677
O O9 0.964873 0.277620 0.500000
O O10 0.933310 0.360999 0.298807
O O11 0.000000 0.270674 0.250000
O O12 0.500000 0.934740 0.250000
O O13 0.457631 0.952834 0.500000
O O14 0.426401 0.000000 0.250000
O O15 0.853038 0.000000 0.250000
O O16 0.844354 0.062002 0.000000
O O17 0.250000 0.250000 0.223931
O O18 0.287386 0.186093 0.000000
#
# Coordination Sequence:
#
# PCOD8275893 Si02
#       6
#    16  16  16  16  16  16
#     4  10  20  33  51  74 105 141 178 217 257 305
#     4  10  20  35  54  77 106 138 173 213 260 311
#     4   9  19  34  52  74 102 136 172 216 262 309
#     4   9  15  25  43  67  92 121 159 200 246 291
#     4  10  20  33  52  78 105 135 172 214 256 306
#     4  10  19  32  52  76 104 139 173 209 256 308
#
# _framework density 17.829530999999999
#
# number of rings (size 3 to 8) (size 9 to 14) (size 15 to 20)
#    0.000    2.333    1.667    2.000    0.000    3.667 
#    0.000    0.833    0.000    2.500    0.000    3.500 
#    0.000    0.000    0.000    0.000    0.000    0.000 
#
# Total GULP energy -595098.419819 kJ/mol
# GULP energy per Si atom -12397.883746 kJ/mol
# Density = 1.778895 g / cm^3
# Si number density = 17.829531 Si / 1000 Ang^3
#
#
#
# Elastic Constant Matrix: (Units=GPa)
#
#
# Indices 1 2 3 4 5 6 
#
# 1 75.9030 52.4848 36.4602 0.0000 0.0000 0.0000
# 2 52.4848 154.2407 70.8899 0.0000 0.0000 0.0000
# 3 36.4602 70.8899 85.8256 0.0000 0.0000 0.0000
# 4 0.0000 0.0000 0.0000 38.7047 0.0000 0.0000
# 5 0.0000 0.0000 0.0000 0.0000 19.3444 0.0000
# 6 0.0000 0.0000 0.0000 0.0000 0.0000 23.2690
#
#
#
# Elastic Compliance Matrix: (Units=1/GPa)
#
#
# Indices 1 2 3 4 5 6 
#
# 1 0.018121 -0.004236 -0.004199 0.000000 0.000000 0.000000
# 2 -0.004236 0.011441 -0.007650 0.000000 0.000000 0.000000
# 3 -0.004199 -0.007650 0.019754 0.000000 0.000000 0.000000
# 4 0.000000 0.000000 0.000000 0.025837 0.000000 0.000000
# 5 0.000000 0.000000 0.000000 0.000000 0.051695 0.000000
# 6 0.000000 0.000000 0.000000 0.000000 0.000000 0.042976
#
#
# Mechanical properties :
#
#
# Convention : Reuss Voigt Hill
#
# Bulk Modulus (GPa) = 58.32599 70.62656 64.47628
# Shear Modulus (GPa) = 24.07205 26.67258 25.37231
#
# Velocity S-wave (km/s) = 3.67839 3.87198 3.77643
# Velocity P-wave (km/s) = 7.12916 7.72579 7.43346
#
# Compressibility (1/GPa) = 0.01714501
#
# Stress axis : x y z
#
# Youngs Moduli (GPa) = 55.18460 87.40459 50.62165
#
# Poissons Ratio (x) = 0.37027 0.21256
# Poissons Ratio (y) = 0.23378 0.38727
# Poissons Ratio (z) = 0.23172 0.66868
#
# Static dielectric constant tensor:
#      x y z
#    x 3.000100 0.000000 0.000000 
#    y 0.000000 4.016110 0.000000 
#    z 0.000000 0.000000 3.281570 
# 
# 
# High freq. dielectric constant tensor:
#      x y z
#    x 1.649960 0.000000 0.000000 
#    y 0.000000 1.702240 0.000000 
#    z 0.000000 0.000000 1.694720 
# 
# From -- ./inp_files/7971.got.cif
#   From: 2010.03.12/outbox.cif.g09.slc.cpg/sg66_4_cif.got.tgz:7971.got - 2010.04.10 21:57:39.
