data_PCOD8275947
_publ_section_title
;
Structure prediction by ZEFSAII (Michael W. Deem and Ramdas Pophale) SiO2 
 PCOD8275947
Probable space group: C C C M
;
_chemical_formula_sum "Si O2"
_cell_formula_units_Z 72
_cell_length_a 27.782944
_cell_length_b 17.421494
_cell_length_c 9.166045
_cell_angle_alpha 90.000000
_cell_angle_beta 90.000000
_cell_angle_gamma 90.000000
_cell_volume 4436.552696
_symmetry_space_group_name_H-M "C C C M"
_symmetry_group_IT_number 66
_symmetry_cell_setting 'orthorhombic'
loop_
_space_group_symop_operation_xyz
x,y,z
-x,-y,z
x,-y,1/2-z
-x,y,1/2-z
-x,-y,-z
x,y,-z
-x,y,1/2+z
x,-y,1/2+z
1/2+x,1/2+y,z
1/2-x,1/2-y,z
1/2+x,1/2-y,1/2-z
1/2-x,1/2+y,1/2-z
1/2-x,1/2-y,-z
1/2+x,1/2+y,-z
1/2-x,1/2+y,1/2+z
1/2+x,1/2-y,1/2+z
loop_
_atom_site_type_symbol
_atom_site_label
_atom_site_fract_x
_atom_site_fract_y
_atom_site_fract_z
Si Si1 0.699131 0.069493 0.161365
Si Si2 0.546558 0.417776 0.825304
Si Si3 0.363759 0.369463 0.162395
Si Si4 0.198821 0.278440 0.831586
Si Si5 0.707128 0.500000 0.750000
O O1 0.684228 0.147794 0.239489
O O2 0.673910 0.000000 0.250000
O O3 0.757128 0.052706 0.151105
O O4 0.677538 0.072792 0.000000
O O5 0.551696 0.500000 0.750000
O O6 0.500000 0.377136 0.750000
O O7 0.595102 0.372973 0.785230
O O8 0.540819 0.423727 0.000000
O O9 0.338616 0.289148 0.194967
O O10 0.326606 0.440750 0.163198
O O11 0.386502 0.369315 0.000000
O O12 0.250000 0.250000 0.773946
O O13 0.202219 0.303333 0.000000
#
# Coordination Sequence:
#
# PCOD8275947 Si02
#       5
#    16  16  16  16   8
#     4  10  20  32  47  66  92 128 167 204 243 286
#     4  11  22  36  53  71  95 124 163 206 249 293
#     4  11  21  34  51  71  99 131 167 205 248 292
#     4  10  19  33  48  67  97 130 163 202 245 288
#     4  10  20  30  49  68  94 134 169 208 240 288
#
# _framework density 16.228816999999999
#
# number of rings (size 3 to 8) (size 9 to 14) (size 15 to 20)
#    0.667    0.889    3.333    4.000    0.000    2.222 
#    0.000    0.000    0.000    0.000    0.000    0.000 
#    0.000    0.889    0.000    9.333    0.000    4.000 
#
# Total GULP energy -446093.623804 kJ/mol
# GULP energy per Si atom -12391.489550 kJ/mol
# Density = 1.619188 g / cm^3
# Si number density = 16.228817 Si / 1000 Ang^3
#
#
#
# Elastic Constant Matrix: (Units=GPa)
#
#
# Indices 1 2 3 4 5 6 
#
# 1 49.7788 19.5022 25.5891 0.0000 0.0000 0.0000
# 2 19.5022 108.2978 52.4468 0.0000 0.0000 0.0000
# 3 25.5891 52.4468 123.3987 0.0000 0.0000 0.0000
# 4 0.0000 0.0000 0.0000 24.6315 0.0000 0.0000
# 5 0.0000 0.0000 0.0000 0.0000 20.4498 0.0000
# 6 0.0000 0.0000 0.0000 0.0000 0.0000 15.0696
#
#
#
# Elastic Compliance Matrix: (Units=1/GPa)
#
#
# Indices 1 2 3 4 5 6 
#
# 1 0.022932 -0.002300 -0.003778 0.000000 0.000000 0.000000
# 2 -0.002300 0.011858 -0.004563 0.000000 0.000000 0.000000
# 3 -0.003778 -0.004563 0.010826 0.000000 0.000000 0.000000
# 4 0.000000 0.000000 0.000000 0.040598 0.000000 0.000000
# 5 0.000000 0.000000 0.000000 0.000000 0.048900 0.000000
# 6 0.000000 0.000000 0.000000 0.000000 0.000000 0.066359
#
#
# Mechanical properties :
#
#
# Convention : Reuss Voigt Hill
#
# Bulk Modulus (GPa) = 41.09335 52.95018 47.02177
# Shear Modulus (GPa) = 21.65754 24.29266 22.97510
#
# Velocity S-wave (km/s) = 3.65706 3.87316 3.76666
# Velocity P-wave (km/s) = 6.57330 7.25947 6.92489
#
# Compressibility (1/GPa) = 0.02433483
#
# Stress axis : x y z
#
# Youngs Moduli (GPa) = 43.60723 84.33369 92.36606
#
# Poissons Ratio (x) = 0.19397 0.34894
# Poissons Ratio (y) = 0.10030 0.42145
# Poissons Ratio (z) = 0.16474 0.38480
#
# Static dielectric constant tensor:
#      x y z
#    x 3.032630 0.000000 0.000000 
#    y 0.000000 3.000300 0.000000 
#    z 0.000000 0.000000 3.048670 
# 
# 
# High freq. dielectric constant tensor:
#      x y z
#    x 1.587590 0.000000 0.000000 
#    y 0.000000 1.612640 0.000000 
#    z 0.000000 0.000000 1.632360 
# 
# From -- ./inp_files/10055.got.cif
#   From: 2010.03.12/outbox.cif.g09.slc.cpg/sg66_6_cif.got.tgz:10055.got - 2010.04.10 21:57:39.
