data_PCOD8275272
_publ_section_title
;
Structure prediction by ZEFSAII (Michael W. Deem and Ramdas Pophale) SiO2 
 PCOD8275272
Probable space group: C C C M
;
_chemical_formula_sum "Si O2"
_cell_formula_units_Z 128
_cell_length_a 18.502728
_cell_length_b 26.167730
_cell_length_c 19.100784
_cell_angle_alpha 90.000000
_cell_angle_beta 90.000000
_cell_angle_gamma 90.000000
_cell_volume 9248.110453
_symmetry_space_group_name_H-M "C C C M"
_symmetry_group_IT_number 66
_symmetry_cell_setting 'orthorhombic'
loop_
_space_group_symop_operation_xyz
x,y,z
-x,-y,z
x,-y,1/2-z
-x,y,1/2-z
-x,-y,-z
x,y,-z
-x,y,1/2+z
x,-y,1/2+z
1/2+x,1/2+y,z
1/2-x,1/2-y,z
1/2+x,1/2-y,1/2-z
1/2-x,1/2+y,1/2-z
1/2-x,1/2-y,-z
1/2+x,1/2+y,-z
1/2-x,1/2+y,1/2+z
1/2+x,1/2-y,1/2+z
loop_
_atom_site_type_symbol
_atom_site_label
_atom_site_fract_x
_atom_site_fract_y
_atom_site_fract_z
Si Si1 0.563786 0.350814 0.422001
Si Si2 0.922494 0.742223 0.278680
Si Si3 0.766145 0.809655 0.425197
Si Si4 0.082122 0.055398 0.274646
Si Si5 0.219345 0.693741 0.219154
Si Si6 0.644685 0.657293 0.214535
Si Si7 0.575829 0.716764 0.577857
Si Si8 0.968880 0.944182 0.422947
O O1 0.594022 0.340226 0.500000
O O2 0.626942 0.337145 0.367617
O O3 0.492694 0.318132 0.406201
O O4 0.539442 0.409068 0.412156
O O5 0.863193 0.699956 0.253586
O O6 0.901673 0.799940 0.255896
O O7 0.923360 0.739165 0.363325
O O8 0.000000 0.725534 0.250000
O O9 0.742077 0.835077 0.500000
O O10 0.750000 0.750000 0.430939
O O11 0.725494 0.834020 0.357484
O O12 0.852379 0.817872 0.415336
O O13 0.128155 0.100659 0.241179
O O14 0.087717 0.061588 0.359203
O O15 0.000000 0.061337 0.250000
O O16 0.112521 0.000000 0.250000
O O17 0.250000 0.750000 0.205954
O O18 0.268995 0.665315 0.276310
O O19 0.571257 0.741521 0.500000
O O20 0.933345 0.932437 0.500000
O O21 0.000000 0.000000 0.420441
#
# Coordination Sequence:
#
# PCOD8275272 Si02
#       8
#    16  16  16  16  16  16  16  16
#     4  10  19  27  38  56  73 101 141 166 191 228
#     4  11  18  28  43  57  74 103 131 163 200 230
#     4   9  14  22  35  51  76  99 116 150 188 227
#     4  11  18  27  40  60  79 106 137 161 193 236
#     4   9  18  27  37  59  75  96 133 158 196 240
#     4  11  18  28  43  55  80 103 128 167 198 223
#     4  10  17  24  35  55  77  97 128 161 188 231
#     4  10  18  27  36  52  79 105 133 168 193 217
#
# _framework density 13.840666000000001
#
# number of rings (size 3 to 8) (size 9 to 14) (size 15 to 20)
#    0.000    1.875    7.500    1.125    0.000    0.000 
#    0.000    0.000    0.000    4.125    0.000    0.000 
#    0.000    0.500    0.000    0.000    0.000    0.000 
#
# Total GULP energy -792901.647405 kJ/mol
# GULP energy per Si atom -12389.088241 kJ/mol
# Density = 1.380916 g / cm^3
# Si number density = 13.840666 Si / 1000 Ang^3
#
#
#
# Elastic Constant Matrix: (Units=GPa)
#
#
# Indices 1 2 3 4 5 6 
#
# 1 86.4222 32.0577 41.0379 0.0000 0.0000 0.0000
# 2 32.0577 38.2900 25.5788 0.0000 0.0000 0.0000
# 3 41.0379 25.5788 106.9753 0.0000 0.0000 0.0000
# 4 0.0000 0.0000 0.0000 12.9382 0.0000 0.0000
# 5 0.0000 0.0000 0.0000 0.0000 14.7370 0.0000
# 6 0.0000 0.0000 0.0000 0.0000 0.0000 10.8362
#
#
#
# Elastic Compliance Matrix: (Units=1/GPa)
#
#
# Indices 1 2 3 4 5 6 
#
# 1 0.018084 -0.012503 -0.003948 0.000000 0.000000 0.000000
# 2 -0.012503 0.039726 -0.004702 0.000000 0.000000 0.000000
# 3 -0.003948 -0.004702 0.011987 0.000000 0.000000 0.000000
# 4 0.000000 0.000000 0.000000 0.077291 0.000000 0.000000
# 5 0.000000 0.000000 0.000000 0.000000 0.067856 0.000000
# 6 0.000000 0.000000 0.000000 0.000000 0.000000 0.092283
#
#
# Mechanical properties :
#
#
# Convention : Reuss Voigt Hill
#
# Bulk Modulus (GPa) = 36.37691 47.67068 42.02380
# Shear Modulus (GPa) = 13.93939 16.56982 15.25461
#
# Velocity S-wave (km/s) = 3.17698 3.46379 3.32348
# Velocity P-wave (km/s) = 6.30851 7.10734 6.71981
#
# Compressibility (1/GPa) = 0.02748996
#
# Stress axis : x y z
#
# Youngs Moduli (GPa) = 55.29882 25.17257 83.42559
#
# Poissons Ratio (x) = 0.31473 0.32933
# Poissons Ratio (y) = 0.69140 0.39230
# Poissons Ratio (z) = 0.21830 0.11837
#
# Static dielectric constant tensor:
#      x y z
#    x 2.646860 0.000000 0.000000 
#    y 0.000000 2.517000 0.000000 
#    z 0.000000 0.000000 3.240370 
# 
# 
# High freq. dielectric constant tensor:
#      x y z
#    x 1.490280 0.000000 0.000000 
#    y 0.000000 1.480570 0.000000 
#    z 0.000000 0.000000 1.550470 
# 
# From -- ./inp_files/51352.got.cif
#   From: 2010.03.12/outbox.cif.g09.slc.cpg/sg66_26_cif.got.tgz:51352.got - 2010.04.10 21:57:39.
