data_PCOD8275619
_publ_section_title
;
Structure prediction by ZEFSAII (Michael W. Deem and Ramdas Pophale) SiO2 
 PCOD8275619
Probable space group: C C C M
;
_chemical_formula_sum "Si O2"
_cell_formula_units_Z 112
_cell_length_a 25.547161
_cell_length_b 11.871698
_cell_length_c 22.672129
_cell_angle_alpha 90.000000
_cell_angle_beta 90.000000
_cell_angle_gamma 90.000000
_cell_volume 6876.188745
_symmetry_space_group_name_H-M "C C C M"
_symmetry_group_IT_number 66
_symmetry_cell_setting 'orthorhombic'
loop_
_space_group_symop_operation_xyz
x,y,z
-x,-y,z
x,-y,1/2-z
-x,y,1/2-z
-x,-y,-z
x,y,-z
-x,y,1/2+z
x,-y,1/2+z
1/2+x,1/2+y,z
1/2-x,1/2-y,z
1/2+x,1/2-y,1/2-z
1/2-x,1/2+y,1/2-z
1/2-x,1/2-y,-z
1/2+x,1/2+y,-z
1/2-x,1/2+y,1/2+z
1/2+x,1/2-y,1/2+z
loop_
_atom_site_type_symbol
_atom_site_label
_atom_site_fract_x
_atom_site_fract_y
_atom_site_fract_z
Si Si1 0.559902 0.000363 0.347164
Si Si2 0.059751 0.683270 0.248918
Si Si3 0.845456 0.825850 0.264910
Si Si4 0.151634 0.475197 0.567751
Si Si5 0.288615 0.155513 0.660977
Si Si6 0.751654 0.876363 0.933520
Si Si7 0.799221 0.012459 0.329276
O O1 0.571640 0.886153 0.310851
O O2 0.500000 0.000000 0.368791
O O3 0.571487 0.106125 0.305276
O O4 0.596229 0.012434 0.404650
O O5 0.095105 0.796207 0.252579
O O6 0.000000 0.724339 0.250000
O O7 0.819499 0.707216 0.283303
O O8 0.811580 0.880595 0.212052
O O9 0.844202 0.917050 0.318990
O O10 0.143257 0.437048 0.500000
O O11 0.173195 0.372335 0.606746
O O12 0.192865 0.577007 0.571462
O O13 0.250000 0.250000 0.634732
O O14 0.256863 0.046918 0.685669
O O15 0.750000 0.750000 0.909016
O O16 0.794758 0.946659 0.896587
O O17 0.772670 0.880656 0.000000
#
# Coordination Sequence:
#
# PCOD8275619 Si02
#       7
#    16  16  16  16  16  16  16
#     4   9  18  33  50  74  97 122 160 202 251 300
#     4   9  18  33  53  70  95 129 157 198 257 305
#     4  10  18  33  48  72 101 125 162 202 241 292
#     4  10  19  32  50  74  98 128 164 198 234 282
#     4   9  18  34  45  68 101 135 156 191 236 292
#     4   9  19  34  49  67  98 136 171 196 231 287
#     4   9  20  31  44  73 100 124 163 199 240 273
#
# _framework density 16.288091999999999
#
# number of rings (size 3 to 8) (size 9 to 14) (size 15 to 20)
#    0.000    2.714    1.429    0.857    2.000    3.429 
#   12.857    3.571    0.000    0.000    0.000    0.000 
#    0.000    1.143    0.000    0.000    0.000    0.000 
#
# Total GULP energy -693911.981946 kJ/mol
# GULP energy per Si atom -12391.285392 kJ/mol
# Density = 1.625102 g / cm^3
# Si number density = 16.288092 Si / 1000 Ang^3
#
#
#
# Elastic Constant Matrix: (Units=GPa)
#
#
# Indices 1 2 3 4 5 6 
#
# 1 96.0620 47.9077 60.4090 0.0000 0.0000 0.0000
# 2 47.9077 77.0585 43.8043 0.0000 0.0000 0.0000
# 3 60.4090 43.8043 89.7009 0.0000 0.0000 0.0000
# 4 0.0000 0.0000 0.0000 23.4781 0.0000 0.0000
# 5 0.0000 0.0000 0.0000 0.0000 27.4165 0.0000
# 6 0.0000 0.0000 0.0000 0.0000 0.0000 28.8312
#
#
#
# Elastic Compliance Matrix: (Units=1/GPa)
#
#
# Indices 1 2 3 4 5 6 
#
# 1 0.020287 -0.006708 -0.010386 0.000000 0.000000 0.000000
# 2 -0.006708 0.020182 -0.005338 0.000000 0.000000 0.000000
# 3 -0.010386 -0.005338 0.020750 0.000000 0.000000 0.000000
# 4 0.000000 0.000000 0.000000 0.042593 0.000000 0.000000
# 5 0.000000 0.000000 0.000000 0.000000 0.036474 0.000000
# 6 0.000000 0.000000 0.000000 0.000000 0.000000 0.034685
#
#
# Mechanical properties :
#
#
# Convention : Reuss Voigt Hill
#
# Bulk Modulus (GPa) = 61.14929 63.00703 62.07816
# Shear Modulus (GPa) = 22.19390 23.32518 22.75954
#
# Velocity S-wave (km/s) = 3.69532 3.78833 3.74212
# Velocity P-wave (km/s) = 7.47202 7.60935 7.54100
#
# Compressibility (1/GPa) = 0.01635342
#
# Stress axis : x y z
#
# Youngs Moduli (GPa) = 49.29264 49.54860 48.19385
#
# Poissons Ratio (x) = 0.33239 0.50056
# Poissons Ratio (y) = 0.33067 0.25726
# Poissons Ratio (z) = 0.51197 0.26449
#
# Static dielectric constant tensor:
#      x y z
#    x 3.042200 0.000000 0.000000 
#    y 0.000000 3.109360 0.000000 
#    z 0.000000 0.000000 3.046170 
# 
# 
# High freq. dielectric constant tensor:
#      x y z
#    x 1.613960 0.000000 0.000000 
#    y 0.000000 1.621520 0.000000 
#    z 0.000000 0.000000 1.613300 
# 
# From -- ./inp_files/60253.got.cif
#   From: 2010.03.12/outbox.cif.g09.slc.cpg/sg66_31_cif.got.tgz:60253.got - 2010.04.10 21:57:39.
