data_PCOD8275050
_publ_section_title
;
Structure prediction by ZEFSAII (Michael W. Deem and Ramdas Pophale) SiO2 
 PCOD8275050
Probable space group: C M M M
;
_chemical_formula_sum "Si O2"
_cell_formula_units_Z 104
_cell_length_a 24.690230
_cell_length_b 17.901086
_cell_length_c 14.566846
_cell_angle_alpha 90.000000
_cell_angle_beta 90.000000
_cell_angle_gamma 90.000000
_cell_volume 6438.282718
_symmetry_space_group_name_H-M "C M M M"
_symmetry_group_IT_number 65
_symmetry_cell_setting 'orthorhombic'
loop_
_space_group_symop_operation_xyz
x,y,z
-x,-y,z
x,-y,-z
-x,y,-z
-x,-y,-z
x,y,-z
-x,y,z
x,-y,z
1/2+x,1/2+y,z
1/2-x,1/2-y,z
1/2+x,1/2-y,-z
1/2-x,1/2+y,-z
1/2-x,1/2-y,-z
1/2+x,1/2+y,-z
1/2-x,1/2+y,z
1/2+x,1/2-y,z
loop_
_atom_site_type_symbol
_atom_site_label
_atom_site_fract_x
_atom_site_fract_y
_atom_site_fract_z
Si Si1 0.563898 0.000000 0.603372
Si Si2 0.236340 0.916961 0.891883
Si Si3 0.149359 0.633894 0.104663
Si Si4 0.937116 0.627445 0.742434
Si Si5 0.437425 0.701911 0.256076
Si Si6 0.645939 0.306490 0.103862
Si Si7 0.064269 0.917317 0.601850
O O1 0.582189 0.073997 0.659290
O O2 0.500000 0.000000 0.593327
O O3 0.589438 0.000000 0.500000
O O4 0.297283 0.906001 0.853988
O O5 0.193584 0.857252 0.851865
O O6 0.216182 0.000000 0.866290
O O7 0.240110 0.903915 0.000000
O O8 0.098042 0.610923 0.166640
O O9 0.164119 0.721048 0.108047
O O10 0.135955 0.609127 0.000000
O O11 0.928126 0.712962 0.710798
O O12 0.000000 0.612523 0.767696
O O13 0.500000 0.685004 0.238817
O O14 0.408871 0.683151 0.160514
O O15 0.412163 0.647032 0.332655
O O16 0.633148 0.331946 0.000000
O O17 0.088033 0.904283 0.500000
O O18 0.000000 0.911018 0.598113
O O19 0.081219 0.000000 0.637381
#
# Coordination Sequence:
#
# PCOD8275050 Si02
#       7
#     8  16  16  16  16  16  16
#     4   9  18  32  47  63  89 123 152 182 222 263
#     4   9  17  28  43  63  85 112 150 191 223 253
#     4   9  17  29  46  65  89 120 149 180 220 264
#     4   9  18  30  44  66  93 119 149 182 216 261
#     4   9  17  28  43  65  91 119 151 182 215 263
#     4   9  17  29  43  61  89 122 151 181 217 257
#     4   8  14  25  41  61  84 109 139 179 224 263
#
# _framework density 16.153376000000002
#
# number of rings (size 3 to 8) (size 9 to 14) (size 15 to 20)
#    0.000    3.154    0.000    0.923    1.077    3.692 
#    0.000    6.154    0.000    1.385    0.000    5.385 
#    0.000    4.923    0.000    0.000    0.000    0.000 
#
# Total GULP energy -644511.134085 kJ/mol
# GULP energy per Si atom -12394.444886 kJ/mol
# Density = 1.611661 g / cm^3
# Si number density = 16.153376 Si / 1000 Ang^3
#
#
#
# Elastic Constant Matrix: (Units=GPa)
#
#
# Indices 1 2 3 4 5 6 
#
# 1 59.9029 38.8264 37.4623 0.0000 0.0000 0.0000
# 2 38.8264 89.6318 54.1441 0.0000 0.0000 0.0000
# 3 37.4623 54.1441 86.9591 0.0000 0.0000 0.0000
# 4 0.0000 0.0000 0.0000 25.5596 0.0000 0.0000
# 5 0.0000 0.0000 0.0000 0.0000 4.2431 0.0000
# 6 0.0000 0.0000 0.0000 0.0000 0.0000 17.7892
#
#
#
# Elastic Compliance Matrix: (Units=1/GPa)
#
#
# Indices 1 2 3 4 5 6 
#
# 1 0.025338 -0.007024 -0.006542 0.000000 0.000000 0.000000
# 2 -0.007024 0.019830 -0.009321 0.000000 0.000000 0.000000
# 3 -0.006542 -0.009321 0.020122 0.000000 0.000000 0.000000
# 4 0.000000 0.000000 0.000000 0.039124 0.000000 0.000000
# 5 0.000000 0.000000 0.000000 0.000000 0.235679 0.000000
# 6 0.000000 0.000000 0.000000 0.000000 0.000000 0.056214
#
#
# Mechanical properties :
#
#
# Convention : Reuss Voigt Hill
#
# Bulk Modulus (GPa) = 51.24215 55.26216 53.25216
# Shear Modulus (GPa) = 11.14617 16.58912 13.86765
#
# Velocity S-wave (km/s) = 2.62967 3.20812 2.93319
# Velocity P-wave (km/s) = 6.40401 6.92877 6.67155
#
# Compressibility (1/GPa) = 0.01951518
#
# Stress axis : x y z
#
# Youngs Moduli (GPa) = 39.46717 50.42928 49.69747
#
# Poissons Ratio (x) = 0.35419 0.32514
# Poissons Ratio (y) = 0.27720 0.46323
# Poissons Ratio (z) = 0.25821 0.47005
#
# Static dielectric constant tensor:
#      x y z
#    x 2.857800 0.000000 0.000000 
#    y 0.000000 3.245540 0.000000 
#    z 0.000000 0.000000 3.044910 
# 
# 
# High freq. dielectric constant tensor:
#      x y z
#    x 1.591830 0.000000 0.000000 
#    y 0.000000 1.634370 0.000000 
#    z 0.000000 0.000000 1.593980 
# 
# From -- ./inp_files/45923.got.cif
#   From: 2010.03.12/outbox.cif.g09.slc.cpg/sg65_23_cif.got.tgz:45923.got - 2010.04.10 20:52:16.
