data_PCOD8275869
_publ_section_title
;
Structure prediction by ZEFSAII (Michael W. Deem and Ramdas Pophale) SiO2 
 PCOD8275869
Probable space group: C C C M
;
_chemical_formula_sum "Si O2"
_cell_formula_units_Z 96
_cell_length_a 27.765683
_cell_length_b 20.734574
_cell_length_c 8.811433
_cell_angle_alpha 90.000000
_cell_angle_beta 90.000000
_cell_angle_gamma 90.000000
_cell_volume 5072.826646
_symmetry_space_group_name_H-M "C C C M"
_symmetry_group_IT_number 66
_symmetry_cell_setting 'orthorhombic'
loop_
_space_group_symop_operation_xyz
x,y,z
-x,-y,z
x,-y,1/2-z
-x,y,1/2-z
-x,-y,-z
x,y,-z
-x,y,1/2+z
x,-y,1/2+z
1/2+x,1/2+y,z
1/2-x,1/2-y,z
1/2+x,1/2-y,1/2-z
1/2-x,1/2+y,1/2-z
1/2-x,1/2-y,-z
1/2+x,1/2+y,-z
1/2-x,1/2+y,1/2+z
1/2+x,1/2-y,1/2+z
loop_
_atom_site_type_symbol
_atom_site_label
_atom_site_fract_x
_atom_site_fract_y
_atom_site_fract_z
Si Si1 0.277794 0.687472 0.181111
Si Si2 0.391918 0.933885 0.821009
Si Si3 0.385989 0.312115 0.679856
Si Si4 0.947791 0.691835 0.319537
Si Si5 0.551603 0.566894 0.319371
Si Si6 0.217849 0.566121 0.179388
O O1 0.250000 0.750000 0.243534
O O2 0.331987 0.688326 0.246461
O O3 0.250526 0.624154 0.242246
O O4 0.278002 0.687745 0.000000
O O5 0.424319 0.874865 0.762034
O O6 0.337066 0.921366 0.768302
O O7 0.412143 0.000000 0.750000
O O8 0.395024 0.940131 0.000000
O O9 0.383867 0.308217 0.500000
O O10 0.414980 0.250395 0.742148
O O11 0.411749 0.377654 0.732236
O O12 0.951515 0.693583 0.500000
O O13 0.000000 0.699797 0.250000
O O14 0.571068 0.500000 0.250000
O O15 0.500000 0.584380 0.250000
O O16 0.547136 0.561063 0.500000
O O17 0.237776 0.500000 0.250000
O O18 0.221425 0.560972 0.000000
#
# Coordination Sequence:
#
# PCOD8275869 Si02
#       6
#    16  16  16  16  16  16
#     4   9  16  28  49  74  97 123 159 199 235 276
#     4   9  18  32  50  72  98 127 158 194 235 281
#     4   9  18  31  48  71  97 125 158 198 239 280
#     4  10  20  34  51  71  96 125 160 200 240 281
#     4  10  19  32  50  71  97 127 160 196 236 282
#     4   9  17  30  50  74  98 126 158 192 234 282
#
# _framework density 18.92436
#
# number of rings (size 3 to 8) (size 9 to 14) (size 15 to 20)
#    0.000    2.667    0.000    2.500    0.000    5.667 
#    0.000    2.500    0.000    2.500    0.000    0.000 
#    0.000    0.000    0.000    0.000    0.000    0.000 
#
# Total GULP energy -595210.511700 kJ/mol
# GULP energy per Si atom -12400.218994 kJ/mol
# Density = 1.888129 g / cm^3
# Si number density = 18.924360 Si / 1000 Ang^3
#
#
#
# Elastic Constant Matrix: (Units=GPa)
#
#
# Indices 1 2 3 4 5 6 
#
# 1 136.4719 96.6933 17.4570 0.0000 0.0000 0.0000
# 2 96.6933 182.5721 24.8083 0.0000 0.0000 0.0000
# 3 17.4570 24.8083 23.1556 0.0000 0.0000 0.0000
# 4 0.0000 0.0000 0.0000 22.5347 0.0000 0.0000
# 5 0.0000 0.0000 0.0000 0.0000 18.9946 0.0000
# 6 0.0000 0.0000 0.0000 0.0000 0.0000 43.2401
#
#
#
# Elastic Compliance Matrix: (Units=1/GPa)
#
#
# Indices 1 2 3 4 5 6 
#
# 1 0.011860 -0.005929 -0.002588 0.000000 0.000000 0.000000
# 2 -0.005929 0.009375 -0.005574 0.000000 0.000000 0.000000
# 3 -0.002588 -0.005574 0.051109 0.000000 0.000000 0.000000
# 4 0.000000 0.000000 0.000000 0.044376 0.000000 0.000000
# 5 0.000000 0.000000 0.000000 0.000000 0.052647 0.000000
# 6 0.000000 0.000000 0.000000 0.000000 0.000000 0.023127
#
#
# Mechanical properties :
#
#
# Convention : Reuss Voigt Hill
#
# Bulk Modulus (GPa) = 22.64470 68.90186 45.77328
# Shear Modulus (GPa) = 21.24070 30.50328 25.87199
#
# Velocity S-wave (km/s) = 3.35386 4.01914 3.70148
# Velocity P-wave (km/s) = 5.19516 7.61749 6.51981
#
# Compressibility (1/GPa) = 0.04416045
#
# Stress axis : x y z
#
# Youngs Moduli (GPa) = 84.31906 106.66681 19.56589
#
# Poissons Ratio (x) = 0.63247 0.05065
# Poissons Ratio (y) = 0.49996 0.10906
# Poissons Ratio (z) = 0.21826 0.59456
#
# Static dielectric constant tensor:
#      x y z
#    x 3.590190 0.000000 0.000000 
#    y 0.000000 3.758880 0.000000 
#    z 0.000000 0.000000 3.049600 
# 
# 
# High freq. dielectric constant tensor:
#      x y z
#    x 1.737750 0.000000 0.000000 
#    y 0.000000 1.753910 0.000000 
#    z 0.000000 0.000000 1.692950 
# 
# From -- ./inp_files/7998.got.cif
#   From: 2010.03.12/outbox.cif.g09.slc.cpg/sg66_4_cif.got.tgz:7998.got - 2010.04.10 21:57:39.
