data_PCOD8275155
_publ_section_title
;
Structure prediction by ZEFSAII (Michael W. Deem and Ramdas Pophale) SiO2 
 PCOD8275155
Probable space group: C M M M
;
_chemical_formula_sum "Si O2"
_cell_formula_units_Z 80
_cell_length_a 27.785631
_cell_length_b 17.951959
_cell_length_c 9.602368
_cell_angle_alpha 90.000000
_cell_angle_beta 90.000000
_cell_angle_gamma 90.000000
_cell_volume 4789.723655
_symmetry_space_group_name_H-M "C M M M"
_symmetry_group_IT_number 65
_symmetry_cell_setting 'orthorhombic'
loop_
_space_group_symop_operation_xyz
x,y,z
-x,-y,z
x,-y,-z
-x,y,-z
-x,-y,-z
x,y,-z
-x,y,z
x,-y,z
1/2+x,1/2+y,z
1/2-x,1/2-y,z
1/2+x,1/2-y,-z
1/2-x,1/2+y,-z
1/2-x,1/2-y,-z
1/2+x,1/2+y,-z
1/2-x,1/2+y,z
1/2+x,1/2-y,z
loop_
_atom_site_type_symbol
_atom_site_label
_atom_site_fract_x
_atom_site_fract_y
_atom_site_fract_z
Si Si1 0.686466 0.361587 0.661412
Si Si2 0.054551 0.767846 0.837705
Si Si3 0.138165 0.293364 0.661662
Si Si4 0.789231 0.416321 0.665413
Si Si5 0.896661 0.918021 0.841419
O O1 0.681610 0.383112 0.500000
O O2 0.674510 0.275117 0.686924
O O3 0.739842 0.378676 0.718224
O O4 0.649965 0.413376 0.744975
O O5 0.089480 0.714683 0.749907
O O6 0.064649 0.854659 0.801831
O O7 0.000000 0.750095 0.793840
O O8 0.063060 0.751576 0.000000
O O9 0.123646 0.299074 0.500000
O O10 0.165487 0.367164 0.715818
O O11 0.788594 0.417201 0.500000
O O12 0.794446 0.500000 0.725440
O O13 0.920220 0.000000 0.820809
O O14 0.879508 0.906743 0.000000
#
# Coordination Sequence:
#
# PCOD8275155 Si02
#       5
#    16  16  16  16  16
#     4   9  16  27  44  65  90 120 149 173 203 248
#     4   9  18  32  48  64  83 111 146 181 219 262
#     4   9  17  29  46  67  89 113 144 181 215 250
#     4   9  16  26  43  67  92 117 145 176 210 251
#     4   9  17  28  42  63  91 118 144 176 211 248
#
# _framework density 16.702424000000001
#
# number of rings (size 3 to 8) (size 9 to 14) (size 15 to 20)
#    0.000    3.000    0.000    1.200    0.000    4.400 
#    0.000    3.000    0.000    7.200    0.000    9.800 
#    0.000    0.000    0.000    0.000    0.000    0.000 
#
# Total GULP energy -495890.169657 kJ/mol
# GULP energy per Si atom -12397.254241 kJ/mol
# Density = 1.666441 g / cm^3
# Si number density = 16.702424 Si / 1000 Ang^3
#
#
#
# Elastic Constant Matrix: (Units=GPa)
#
#
# Indices 1 2 3 4 5 6 
#
# 1 139.3466 63.5317 46.4583 0.0000 0.0000 0.0000
# 2 63.5317 88.4792 27.7255 0.0000 0.0000 0.0000
# 3 46.4583 27.7255 40.8782 0.0000 0.0000 0.0000
# 4 0.0000 0.0000 0.0000 16.8722 0.0000 0.0000
# 5 0.0000 0.0000 0.0000 0.0000 20.0704 0.0000
# 6 0.0000 0.0000 0.0000 0.0000 0.0000 15.6716
#
#
#
# Elastic Compliance Matrix: (Units=1/GPa)
#
#
# Indices 1 2 3 4 5 6 
#
# 1 0.013922 -0.006398 -0.011483 0.000000 0.000000 0.000000
# 2 -0.006398 0.017293 -0.004457 0.000000 0.000000 0.000000
# 3 -0.011483 -0.004457 0.040536 0.000000 0.000000 0.000000
# 4 0.000000 0.000000 0.000000 0.059269 0.000000 0.000000
# 5 0.000000 0.000000 0.000000 0.000000 0.049825 0.000000
# 6 0.000000 0.000000 0.000000 0.000000 0.000000 0.063810
#
#
# Mechanical properties :
#
#
# Convention : Reuss Voigt Hill
#
# Bulk Modulus (GPa) = 36.93495 60.45945 48.69720
# Shear Modulus (GPa) = 16.75853 19.25540 18.00696
#
# Velocity S-wave (km/s) = 3.17102 3.39905 3.28701
# Velocity P-wave (km/s) = 5.96395 7.18897 6.60492
#
# Compressibility (1/GPa) = 0.02707463
#
# Stress axis : x y z
#
# Youngs Moduli (GPa) = 71.82977 57.82674 24.66942
#
# Poissons Ratio (x) = 0.36999 0.28327
# Poissons Ratio (y) = 0.45959 0.10996
# Poissons Ratio (z) = 0.82479 0.25775
#
# Static dielectric constant tensor:
#      x y z
#    x 3.073250 0.000000 0.000000 
#    y 0.000000 3.240900 0.000000 
#    z 0.000000 0.000000 2.963270 
# 
# 
# High freq. dielectric constant tensor:
#      x y z
#    x 1.631800 0.000000 0.000000 
#    y 0.000000 1.637060 0.000000 
#    z 0.000000 0.000000 1.620130 
# 
# From -- ./inp_files/9577.got.cif
#   From: 2010.03.12/outbox.cif.g09.slc.cpg/sg65_5_cif.got.tgz:9577.got - 2010.04.10 20:52:16.
