data_PCOD8275586
_publ_section_title
;
Structure prediction by ZEFSAII (Michael W. Deem and Ramdas Pophale) SiO2 
 PCOD8275586
Probable space group: C C C M
;
_chemical_formula_sum "Si O2"
_cell_formula_units_Z 96
_cell_length_a 22.862702
_cell_length_b 25.463330
_cell_length_c 8.584806
_cell_angle_alpha 90.000000
_cell_angle_beta 90.000000
_cell_angle_gamma 90.000000
_cell_volume 4997.735174
_symmetry_space_group_name_H-M "C C C M"
_symmetry_group_IT_number 66
_symmetry_cell_setting 'orthorhombic'
loop_
_space_group_symop_operation_xyz
x,y,z
-x,-y,z
x,-y,1/2-z
-x,y,1/2-z
-x,-y,-z
x,y,-z
-x,y,1/2+z
x,-y,1/2+z
1/2+x,1/2+y,z
1/2-x,1/2-y,z
1/2+x,1/2-y,1/2-z
1/2-x,1/2+y,1/2-z
1/2-x,1/2-y,-z
1/2+x,1/2+y,-z
1/2-x,1/2+y,1/2+z
1/2+x,1/2-y,1/2+z
loop_
_atom_site_type_symbol
_atom_site_label
_atom_site_fract_x
_atom_site_fract_y
_atom_site_fract_z
Si Si1 0.171334 0.443678 0.684567
Si Si2 0.563183 0.256435 0.815276
Si Si3 0.358161 0.352901 0.327819
Si Si4 0.623328 0.844918 0.820832
Si Si5 0.298740 0.444031 0.183078
Si Si6 0.266538 0.193719 0.327581
O O1 0.152497 0.500000 0.750000
O O2 0.173321 0.445007 0.500000
O O3 0.121062 0.402200 0.738666
O O4 0.236072 0.427207 0.743517
O O5 0.500000 0.270439 0.750000
O O6 0.605620 0.303811 0.755453
O O7 0.582013 0.199077 0.755388
O O8 0.562954 0.254849 0.000000
O O9 0.383524 0.366438 0.500000
O O10 0.353702 0.404798 0.220084
O O11 0.290756 0.339748 0.343776
O O12 0.690482 0.828368 0.802131
O O13 0.605642 0.850475 0.000000
O O14 0.318127 0.500000 0.250000
O O15 0.289394 0.447743 0.000000
O O16 0.297362 0.196990 0.500000
O O17 0.250000 0.250000 0.263931
#
# Coordination Sequence:
#
# PCOD8275586 Si02
#       6
#    16  16  16  16  16  16
#     4  11  21  35  54  80 117 155 190 229 278 335
#     4  11  24  43  62  83 111 148 191 239 289 337
#     4  10  20  35  57  81 114 152 186 228 284 340
#     4  12  23  35  55  84 116 151 189 231 279 336
#     4  11  21  33  52  81 117 153 190 228 275 336
#     4  10  18  32  52  78 112 150 184 223 281 341
#
# _framework density 19.2087
#
# number of rings (size 3 to 8) (size 9 to 14) (size 15 to 20)
#    0.000    1.167    3.333    6.000    0.000    1.667 
#    0.000    0.000    0.000    1.000    0.000    7.000 
#    0.000    0.000    0.000    0.000    0.000    0.000 
#
# Total GULP energy -594797.937890 kJ/mol
# GULP energy per Si atom -12391.623706 kJ/mol
# Density = 1.916498 g / cm^3
# Si number density = 19.208700 Si / 1000 Ang^3
#
#
#
# Elastic Constant Matrix: (Units=GPa)
#
#
# Indices 1 2 3 4 5 6 
#
# 1 51.6528 23.2256 22.7558 0.0000 0.0000 0.0000
# 2 23.2256 125.0081 43.4672 0.0000 0.0000 0.0000
# 3 22.7558 43.4672 129.7555 0.0000 0.0000 0.0000
# 4 0.0000 0.0000 0.0000 32.6915 0.0000 0.0000
# 5 0.0000 0.0000 0.0000 0.0000 22.9145 0.0000
# 6 0.0000 0.0000 0.0000 0.0000 0.0000 14.2343
#
#
#
# Elastic Compliance Matrix: (Units=1/GPa)
#
#
# Indices 1 2 3 4 5 6 
#
# 1 0.021998 -0.003108 -0.002817 0.000000 0.000000 0.000000
# 2 -0.003108 0.009493 -0.002635 0.000000 0.000000 0.000000
# 3 -0.002817 -0.002635 0.009084 0.000000 0.000000 0.000000
# 4 0.000000 0.000000 0.000000 0.030589 0.000000 0.000000
# 5 0.000000 0.000000 0.000000 0.000000 0.043641 0.000000
# 6 0.000000 0.000000 0.000000 0.000000 0.000000 0.070253
#
#
# Mechanical properties :
#
#
# Convention : Reuss Voigt Hill
#
# Bulk Modulus (GPa) = 42.63357 53.92371 48.27864
# Shear Modulus (GPa) = 23.81007 28.43258 26.12133
#
# Velocity S-wave (km/s) = 3.52454 3.85150 3.69164
# Velocity P-wave (km/s) = 6.22947 6.92187 6.58477
#
# Compressibility (1/GPa) = 0.02345569
#
# Stress axis : x y z
#
# Youngs Moduli (GPa) = 45.45793 105.33926 110.08889
#
# Poissons Ratio (x) = 0.32736 0.31011
# Poissons Ratio (y) = 0.14127 0.29010
# Poissons Ratio (z) = 0.12805 0.27758
#
# Static dielectric constant tensor:
#      x y z
#    x 3.310900 0.000000 0.000000 
#    y 0.000000 3.877950 0.000000 
#    z 0.000000 0.000000 3.674990 
# 
# 
# High freq. dielectric constant tensor:
#      x y z
#    x 1.693760 0.000000 0.000000 
#    y 0.000000 1.769130 0.000000 
#    z 0.000000 0.000000 1.750800 
# 
# From -- ./inp_files/7966.got.cif
#   From: 2010.03.12/outbox.cif.g09.slc.cpg/sg66_4_cif.got.tgz:7966.got - 2010.04.10 21:57:39.
