data_PCOD8275356
_publ_section_title
;
Structure prediction by ZEFSAII (Michael W. Deem and Ramdas Pophale) SiO2 
 PCOD8275356
Probable space group: C C C M
;
_chemical_formula_sum "Si O2"
_cell_formula_units_Z 128
_cell_length_a 20.111583
_cell_length_b 19.575870
_cell_length_c 19.407562
_cell_angle_alpha 90.000000
_cell_angle_beta 90.000000
_cell_angle_gamma 90.000000
_cell_volume 7640.790818
_symmetry_space_group_name_H-M "C C C M"
_symmetry_group_IT_number 66
_symmetry_cell_setting 'orthorhombic'
loop_
_space_group_symop_operation_xyz
x,y,z
-x,-y,z
x,-y,1/2-z
-x,y,1/2-z
-x,-y,-z
x,y,-z
-x,y,1/2+z
x,-y,1/2+z
1/2+x,1/2+y,z
1/2-x,1/2-y,z
1/2+x,1/2-y,1/2-z
1/2-x,1/2+y,1/2-z
1/2-x,1/2-y,-z
1/2+x,1/2+y,-z
1/2-x,1/2+y,1/2+z
1/2+x,1/2-y,1/2+z
loop_
_atom_site_type_symbol
_atom_site_label
_atom_site_fract_x
_atom_site_fract_y
_atom_site_fract_z
Si Si1 0.241858 0.855427 0.578617
Si Si2 0.397583 0.141210 0.078461
Si Si3 0.883356 0.429432 0.214112
Si Si4 0.772735 0.069865 0.213117
Si Si5 0.809412 0.203653 0.713071
Si Si6 0.266906 0.509114 0.925448
Si Si7 0.065925 0.703596 0.713908
Si Si8 0.890777 0.513278 0.574527
O O1 0.230543 0.830319 0.500000
O O2 0.319704 0.852622 0.598340
O O3 0.201749 0.807062 0.630967
O O4 0.211514 0.931135 0.588955
O O5 0.439417 0.188227 0.131693
O O6 0.420517 0.062408 0.087053
O O7 0.410269 0.165982 0.000000
O O8 0.902970 0.500000 0.250000
O O9 0.805207 0.415950 0.220984
O O10 0.920356 0.367857 0.249334
O O11 0.909773 0.434361 0.135127
O O12 0.812437 0.132316 0.246060
O O13 0.793098 0.061084 0.132711
O O14 0.793201 0.000000 0.250000
O O15 0.750000 0.250000 0.743332
O O16 0.878555 0.240070 0.727760
O O17 0.187931 0.505980 0.926416
O O18 0.294108 0.533928 0.000000
O O19 0.000000 0.733630 0.750000
O O20 0.915919 0.541293 0.500000
#
# Coordination Sequence:
#
# PCOD8275356 Si02
#       8
#    16  16  16  16  16  16  16  16
#     4   9  16  28  52  86 114 131 158 206 277 342
#     4   9  16  31  52  76 106 139 168 208 270 327
#     4  10  17  30  51  73 102 137 176 213 254 308
#     4  10  17  29  54  79 101 132 172 217 262 311
#     4  12  21  33  52  79 111 143 175 215 262 314
#     4   8  14  25  46  78 109 129 157 213 271 312
#     4  12  25  37  48  72 110 149 181 216 261 312
#     4   8  14  25  46  73 102 133 171 215 254 299
#
# _framework density 16.752192999999998
#
# number of rings (size 3 to 8) (size 9 to 14) (size 15 to 20)
#    0.000    2.250    5.000    1.500    0.000    1.000 
#    0.000    0.625    0.000    3.750    0.000    0.000 
#    0.000    2.000    0.000    0.000    0.000    0.000 
#
# Total GULP energy -793219.168199 kJ/mol
# GULP energy per Si atom -12394.049503 kJ/mol
# Density = 1.671406 g / cm^3
# Si number density = 16.752193 Si / 1000 Ang^3
#
#
#
# Elastic Constant Matrix: (Units=GPa)
#
#
# Indices 1 2 3 4 5 6 
#
# 1 51.8441 29.4026 37.5534 0.0000 0.0000 0.0000
# 2 29.4026 70.5966 43.3701 0.0000 0.0000 0.0000
# 3 37.5534 43.3701 125.3823 0.0000 0.0000 0.0000
# 4 0.0000 0.0000 0.0000 22.1120 0.0000 0.0000
# 5 0.0000 0.0000 0.0000 0.0000 13.0941 0.0000
# 6 0.0000 0.0000 0.0000 0.0000 0.0000 12.8091
#
#
#
# Elastic Compliance Matrix: (Units=1/GPa)
#
#
# Indices 1 2 3 4 5 6 
#
# 1 0.027971 -0.008258 -0.005521 0.000000 0.000000 0.000000
# 2 -0.008258 0.020425 -0.004592 0.000000 0.000000 0.000000
# 3 -0.005521 -0.004592 0.011218 0.000000 0.000000 0.000000
# 4 0.000000 0.000000 0.000000 0.045224 0.000000 0.000000
# 5 0.000000 0.000000 0.000000 0.000000 0.076370 0.000000
# 6 0.000000 0.000000 0.000000 0.000000 0.000000 0.078069
#
#
# Mechanical properties :
#
#
# Convention : Reuss Voigt Hill
#
# Bulk Modulus (GPa) = 43.72112 52.05279 47.88696
# Shear Modulus (GPa) = 16.46666 18.76951 17.61809
#
# Velocity S-wave (km/s) = 3.13861 3.35090 3.24649
# Velocity P-wave (km/s) = 6.26817 6.79051 6.53456
#
# Compressibility (1/GPa) = 0.02287224
#
# Stress axis : x y z
#
# Youngs Moduli (GPa) = 35.75105 48.95917 89.14536
#
# Poissons Ratio (x) = 0.40429 0.49220
# Poissons Ratio (y) = 0.29522 0.40934
# Poissons Ratio (z) = 0.19739 0.22481
#
# Static dielectric constant tensor:
#      x y z
#    x 2.661660 0.000000 0.000000 
#    y 0.000000 2.993750 0.000000 
#    z 0.000000 0.000000 3.796530 
# 
# 
# High freq. dielectric constant tensor:
#      x y z
#    x 1.583110 0.000000 0.000000 
#    y 0.000000 1.625600 0.000000 
#    z 0.000000 0.000000 1.665300 
# 
# From -- ./inp_files/52051.got.cif
#   From: 2010.03.12/outbox.cif.g09.slc.cpg/sg66_27_cif.got.tgz:52051.got - 2010.04.10 21:57:39.
