data_PCOD8275078
_publ_section_title
;
Structure prediction by ZEFSAII (Michael W. Deem and Ramdas Pophale) SiO2 
 PCOD8275078
Probable space group: C M M M
;
_chemical_formula_sum "Si O2"
_cell_formula_units_Z 88
_cell_length_a 9.353501
_cell_length_b 19.500370
_cell_length_c 28.294395
_cell_angle_alpha 90.000000
_cell_angle_beta 90.000000
_cell_angle_gamma 90.000000
_cell_volume 5160.805134
_symmetry_space_group_name_H-M "C M M M"
_symmetry_group_IT_number 65
_symmetry_cell_setting 'orthorhombic'
loop_
_space_group_symop_operation_xyz
x,y,z
-x,-y,z
x,-y,-z
-x,y,-z
-x,-y,-z
x,y,-z
-x,y,z
x,-y,z
1/2+x,1/2+y,z
1/2-x,1/2-y,z
1/2+x,1/2-y,-z
1/2-x,1/2+y,-z
1/2-x,1/2-y,-z
1/2+x,1/2+y,-z
1/2-x,1/2+y,z
1/2+x,1/2-y,z
loop_
_atom_site_type_symbol
_atom_site_label
_atom_site_fract_x
_atom_site_fract_y
_atom_site_fract_z
Si Si1 0.166825 0.178891 0.897632
Si Si2 0.837110 0.818011 0.000000
Si Si3 0.167137 0.079179 0.185182
Si Si4 0.838327 0.581516 0.276122
Si Si5 0.665811 0.420989 0.366235
Si Si6 0.333780 0.683163 0.553548
O O1 0.250000 0.250000 0.890460
O O2 0.196470 0.144382 0.949905
O O3 0.218303 0.123002 0.859800
O O4 0.000000 0.195223 0.890916
O O5 0.750000 0.750000 0.000000
O O6 0.000000 0.794957 0.000000
O O7 0.254693 0.107789 0.229957
O O8 0.000000 0.088468 0.196117
O O9 0.203574 0.000000 0.174559
O O10 0.835941 0.500000 0.276584
O O11 0.758162 0.608743 0.322796
O O12 0.000000 0.610094 0.275400
O O13 0.500000 0.411406 0.353033
O O14 0.702141 0.500000 0.376410
O O15 0.708767 0.380242 0.413328
O O16 0.290738 0.663273 0.500000
O O17 0.500000 0.700483 0.557396
O O18 0.250000 0.750000 0.570950
#
# Coordination Sequence:
#
# PCOD8275078 Si02
#       6
#    16   8  16  16  16  16
#     4   9  17  29  46  67  90 117 149 185 223 264
#     4   8  14  26  43  63  87 115 147 180 218 264
#     4   9  17  30  47  66  90 120 151 182 221 269
#     4   9  17  29  46  68  92 118 149 185 225 268
#     4   9  17  30  49  71  93 118 150 188 226 263
#     4   9  18  32  49  69  94 124 154 183 220 267
#
# _framework density 17.051603
#
# number of rings (size 3 to 8) (size 9 to 14) (size 15 to 20)
#    0.000    3.091    0.000    0.545    0.000    4.000 
#    0.000    3.182    0.000    2.727    0.000    5.091 
#    0.000   10.182    0.000    0.000    0.000    0.000 
#
# Total GULP energy -545333.213323 kJ/mol
# GULP energy per Si atom -12393.936666 kJ/mol
# Density = 1.701279 g / cm^3
# Si number density = 17.051603 Si / 1000 Ang^3
#
#
#
# Elastic Constant Matrix: (Units=GPa)
#
#
# Indices 1 2 3 4 5 6 
#
# 1 62.0251 35.2790 62.7608 0.0000 0.0000 0.0000
# 2 35.2790 66.4962 68.9978 0.0000 0.0000 0.0000
# 3 62.7608 68.9978 163.5842 0.0000 0.0000 0.0000
# 4 0.0000 0.0000 0.0000 22.9238 0.0000 0.0000
# 5 0.0000 0.0000 0.0000 0.0000 22.7007 0.0000
# 6 0.0000 0.0000 0.0000 0.0000 0.0000 20.9681
#
#
#
# Elastic Compliance Matrix: (Units=1/GPa)
#
#
# Indices 1 2 3 4 5 6 
#
# 1 0.027877 -0.006566 -0.007926 0.000000 0.000000 0.000000
# 2 -0.006566 0.028289 -0.009413 0.000000 0.000000 0.000000
# 3 -0.007926 -0.009413 0.013124 0.000000 0.000000 0.000000
# 4 0.000000 0.000000 0.000000 0.043623 0.000000 0.000000
# 5 0.000000 0.000000 0.000000 0.000000 0.044051 0.000000
# 6 0.000000 0.000000 0.000000 0.000000 0.000000 0.047692
#
#
# Mechanical properties :
#
#
# Convention : Reuss Voigt Hill
#
# Bulk Modulus (GPa) = 46.55310 69.57563 58.06437
# Shear Modulus (GPa) = 19.25853 21.65638 20.45745
#
# Velocity S-wave (km/s) = 3.36434 3.56764 3.46748
# Velocity P-wave (km/s) = 6.51554 7.60673 7.08218
#
# Compressibility (1/GPa) = 0.02148085
#
# Stress axis : x y z
#
# Youngs Moduli (GPa) = 35.87193 35.34964 76.19532
#
# Poissons Ratio (x) = 0.23210 0.60392
# Poissons Ratio (y) = 0.23553 0.71722
# Poissons Ratio (z) = 0.28432 0.33274
#
# Static dielectric constant tensor:
#      x y z
#    x 3.207420 0.000000 0.000000 
#    y 0.000000 2.844650 0.000000 
#    z 0.000000 0.000000 3.656720 
# 
# 
# High freq. dielectric constant tensor:
#      x y z
#    x 1.657290 0.000000 0.000000 
#    y 0.000000 1.618030 0.000000 
#    z 0.000000 0.000000 1.674570 
# 
# From -- ./inp_files/73162.got.cif
#   From: 2010.03.12/outbox.cif.g09.slc.cpg/sg65_37_cif.got.tgz:73162.got - 2010.04.10 20:52:16.
