data_PCOD8275205
_publ_section_title
;
Structure prediction by ZEFSAII (Michael W. Deem and Ramdas Pophale) SiO2 
 PCOD8275205
Probable space group: C M M M
;
_chemical_formula_sum "Si O2"
_cell_formula_units_Z 52
_cell_length_a 27.000000
_cell_length_b 9.000000
_cell_length_c 21.000000
_cell_angle_alpha 90.000000
_cell_angle_beta 90.000000
_cell_angle_gamma 90.000000
_cell_volume 5103.000000
_symmetry_space_group_name_H-M "C M M M"
_symmetry_group_IT_number 65
_symmetry_cell_setting 'orthorhombic'
loop_
_space_group_symop_operation_xyz
x,y,z
-x,-y,z
x,-y,-z
-x,y,-z
-x,-y,-z
x,y,-z
-x,y,z
x,-y,z
1/2+x,1/2+y,z
1/2-x,1/2-y,z
1/2+x,1/2-y,-z
1/2-x,1/2+y,-z
1/2-x,1/2-y,-z
1/2+x,1/2+y,-z
1/2-x,1/2+y,z
1/2+x,1/2-y,z
loop_
_atom_site_type_symbol
_atom_site_label
_atom_site_fract_x
_atom_site_fract_y
_atom_site_fract_z
Si Si1 0.556052 0.675457 0.000000
Si Si2 0.801292 0.671605 0.812594
Si Si3 0.558642 0.333963 0.764260
Si Si4 0.101710 0.669524 0.881557
Si Si5 0.302978 0.323984 0.689131
Si Si6 0.634166 0.671184 0.429844
Si Si7 0.442488 0.830104 0.360791
O O1 0.586029 0.727904 0.060809
O O2 0.554309 0.500000 0.000000
O O3 0.500000 0.739391 0.000000
O O4 0.790954 0.500000 0.794771
O O5 0.750000 0.750000 0.832419
O O6 0.839156 0.683676 0.871523
O O7 0.828302 0.755488 0.752802
O O8 0.500000 0.342022 0.762040
O O9 0.580993 0.500000 0.773716
O O10 0.572829 0.222348 0.819650
O O11 0.578192 0.269067 0.697463
O O12 0.086638 0.500000 0.895756
O O13 0.299854 0.500000 0.694696
O O14 0.250000 0.250000 0.689561
O O15 0.327814 0.272634 0.623527
O O16 0.657204 0.696938 0.500000
O O17 0.619945 0.500000 0.419453
O O18 0.584792 0.770327 0.423764
O O19 0.500000 0.808113 0.372732
O O20 0.429143 0.000000 0.346581
#
# Coordination Sequence:
#
# PCOD8275205 Si02
#       7
#     8  16  16  16  16  16  16
#     4  11  25  43  62  87 120 159 200 233 268 325
#     4  10  21  37  59  87 115 144 183 229 278 332
#     4  10  20  34  55  83 112 144 184 228 277 335
#     4  11  23  38  59  87 118 152 190 233 280 327
#     4  10  20  35  57  83 111 143 180 226 279 333
#     4  10  22  38  54  75 105 143 186 228 275 337
#     4  10  21  36  54  78 107 139 180 231 284 335
#
# _framework density 10.190084000000001
#
# number of rings (size 3 to 8) (size 9 to 14) (size 15 to 20)
#    0.000    1.769    0.000    4.846    0.000   11.385 
#    0.000    1.923    0.000    0.000    0.000    0.000 
#    0.000    0.000    0.000    0.000    0.000    0.000 
#
# Total GULP energy -644776.885742 kJ/mol
# GULP energy per Si atom -12399.555495 kJ/mol
# Density = 1.016689 g / cm^3
# Si number density = 10.190084 Si / 1000 Ang^3
#
#
#
# Elastic Constant Matrix: (Units=GPa)
#
#
# Indices 1 2 3 4 5 6 
#
# 1 33.5719 32.5054 42.9457 0.0000 0.0000 0.0000
# 2 32.5054 90.3188 24.4798 0.0000 0.0000 0.0000
# 3 42.9457 24.4798 92.0111 0.0000 0.0000 0.0000
# 4 0.0000 0.0000 0.0000 38.1261 0.0000 0.0000
# 5 0.0000 0.0000 0.0000 0.0000 19.7376 0.0000
# 6 0.0000 0.0000 0.0000 0.0000 0.0000 27.6014
#
#
#
# Elastic Compliance Matrix: (Units=1/GPa)
#
#
# Indices 1 2 3 4 5 6 
#
# 1 0.121580 -0.030581 -0.048610 0.000000 0.000000 0.000000
# 2 -0.030581 0.019624 0.009052 0.000000 0.000000 0.000000
# 3 -0.048610 0.009052 0.031149 0.000000 0.000000 0.000000
# 4 0.000000 0.000000 0.000000 0.026229 0.000000 0.000000
# 5 0.000000 0.000000 0.000000 0.000000 0.050665 0.000000
# 6 0.000000 0.000000 0.000000 0.000000 0.000000 0.036230
#
#
# Mechanical properties :
#
#
# Convention : Reuss Voigt Hill
#
# Bulk Modulus (GPa) = 31.17745 46.19598 38.68671
# Shear Modulus (GPa) = 11.45619 24.82442 18.14030
#
# Velocity S-wave (km/s) = 2.37349 3.49387 2.98668
# Velocity P-wave (km/s) = 4.77937 6.24440 5.56035
#
# Compressibility (1/GPa) = 0.03207446
#
# Stress axis : x y z
#
# Youngs Moduli (GPa) = 8.22507 50.95723 32.10424
#
# Poissons Ratio (x) = 1.55831 1.56060
# Poissons Ratio (y) = 0.25153 -0.29062
# Poissons Ratio (z) = 0.39982 -0.46128
#
# Static dielectric constant tensor:
#      x y z
#    x 3.673150 0.000000 0.000000 
#    y 0.000000 3.872730 0.000000 
#    z 0.000000 0.000000 5.690880 
# 
# 
# High freq. dielectric constant tensor:
#      x y z
#    x 1.795360 0.000000 0.000000 
#    y 0.000000 1.808560 0.000000 
#    z 0.000000 0.000000 1.781090 
# 
# From -- ./inp_files/65938.got.cif
#   From: 2010.03.12/outbox.ucp.g09.slc.cvg/sg65_33_cif.got.tgz:65938.got - 2010.05.04 19:44:54.
