data_PCOD8275650
_publ_section_title
;
Structure prediction by ZEFSAII (Michael W. Deem and Ramdas Pophale) SiO2 
 PCOD8275650
Probable space group: C C C M
;
_chemical_formula_sum "Si O2"
_cell_formula_units_Z 96
_cell_length_a 19.323364
_cell_length_b 19.651273
_cell_length_c 14.229880
_cell_angle_alpha 90.000000
_cell_angle_beta 90.000000
_cell_angle_gamma 90.000000
_cell_volume 5403.493851
_symmetry_space_group_name_H-M "C C C M"
_symmetry_group_IT_number 66
_symmetry_cell_setting 'orthorhombic'
loop_
_space_group_symop_operation_xyz
x,y,z
-x,-y,z
x,-y,1/2-z
-x,y,1/2-z
-x,-y,-z
x,y,-z
-x,y,1/2+z
x,-y,1/2+z
1/2+x,1/2+y,z
1/2-x,1/2-y,z
1/2+x,1/2-y,1/2-z
1/2-x,1/2+y,1/2-z
1/2-x,1/2-y,-z
1/2+x,1/2+y,-z
1/2-x,1/2+y,1/2+z
1/2+x,1/2-y,1/2+z
loop_
_atom_site_type_symbol
_atom_site_label
_atom_site_fract_x
_atom_site_fract_y
_atom_site_fract_z
Si Si1 0.382372 0.070207 0.791714
Si Si2 0.177195 0.215801 0.799900
Si Si3 0.498364 0.781314 0.000000
Si Si4 0.224441 0.065138 0.799665
Si Si5 0.774215 0.088595 0.500000
Si Si6 0.565686 0.794363 0.698094
Si Si7 0.122724 0.793859 0.500000
Si Si8 0.121497 0.612432 0.500000
O O1 0.301963 0.078028 0.762568
O O2 0.422449 0.130900 0.740595
O O3 0.412345 0.000000 0.750000
O O4 0.393790 0.069778 0.904783
O O5 0.250000 0.250000 0.782976
O O6 0.180379 0.134056 0.788435
O O7 0.128857 0.243787 0.717125
O O8 0.149897 0.240316 0.902333
O O9 0.449151 0.797182 0.912744
O O10 0.537165 0.706981 0.000000
O O11 0.570875 0.823327 0.000000
O O12 0.189231 0.000000 0.750000
O O13 0.227173 0.041845 0.908438
O O14 0.845155 0.131104 0.500000
O O15 0.703192 0.135071 0.500000
O O16 0.500000 0.761730 0.750000
#
# Coordination Sequence:
#
# PCOD8275650 Si02
#       8
#    16  16   8  16   8  16   8   8
#     4  10  20  35  56  79 114 153 189 233 279 330
#     4  11  20  35  61  87 113 145 190 238 290 328
#     4  12  24  36  52  80 117 154 192 225 282 339
#     4   9  18  34  57  86 113 141 184 236 288 333
#     4   8  18  29  54  89 105 131 189 242 294 319
#     4  12  23  38  54  82 117 153 186 230 281 343
#     4  10  19  28  57  90 108 133 181 256 290 320
#     4  10  18  34  52  77 110 145 193 239 277 333
#
# _framework density 17.766282
#
# number of rings (size 3 to 8) (size 9 to 14) (size 15 to 20)
#    0.000    1.667    5.000    0.250    4.667    1.000 
#    0.000    2.917    0.000    0.500    0.000    2.333 
#    0.000    0.000    0.000    0.000    0.000    0.000 
#
# Total GULP energy -594760.556680 kJ/mol
# GULP energy per Si atom -12390.844931 kJ/mol
# Density = 1.772584 g / cm^3
# Si number density = 17.766282 Si / 1000 Ang^3
#
#
#
# Elastic Constant Matrix: (Units=GPa)
#
#
# Indices 1 2 3 4 5 6 
#
# 1 77.7973 41.8015 54.2492 0.0000 0.0000 0.0000
# 2 41.8015 98.0640 60.2174 0.0000 0.0000 0.0000
# 3 54.2492 60.2174 146.4340 0.0000 0.0000 0.0000
# 4 0.0000 0.0000 0.0000 27.2521 0.0000 0.0000
# 5 0.0000 0.0000 0.0000 0.0000 25.8015 0.0000
# 6 0.0000 0.0000 0.0000 0.0000 0.0000 16.4460
#
#
#
# Elastic Compliance Matrix: (Units=1/GPa)
#
#
# Indices 1 2 3 4 5 6 
#
# 1 0.019042 -0.005064 -0.004972 0.000000 0.000000 0.000000
# 2 -0.005064 0.014989 -0.004288 0.000000 0.000000 0.000000
# 3 -0.004972 -0.004288 0.010434 0.000000 0.000000 0.000000
# 4 0.000000 0.000000 0.000000 0.036694 0.000000 0.000000
# 5 0.000000 0.000000 0.000000 0.000000 0.038757 0.000000
# 6 0.000000 0.000000 0.000000 0.000000 0.000000 0.060805
#
#
# Mechanical properties :
#
#
# Convention : Reuss Voigt Hill
#
# Bulk Modulus (GPa) = 63.22035 70.53686 66.87860
# Shear Modulus (GPa) = 23.29462 24.96841 24.13152
#
# Velocity S-wave (km/s) = 3.62494 3.75291 3.68948
# Velocity P-wave (km/s) = 7.29259 7.65297 7.47495
#
# Compressibility (1/GPa) = 0.01581769
#
# Stress axis : x y z
#
# Youngs Moduli (GPa) = 52.51594 66.71577 95.83784
#
# Poissons Ratio (x) = 0.33783 0.47651
# Poissons Ratio (y) = 0.26593 0.41094
# Poissons Ratio (z) = 0.26111 0.28607
#
# Static dielectric constant tensor:
#      x y z
#    x 3.267480 0.000000 0.000000 
#    y 0.000000 3.197900 0.000000 
#    z 0.000000 0.000000 3.474390 
# 
# 
# High freq. dielectric constant tensor:
#      x y z
#    x 1.674440 0.000000 0.000000 
#    y 0.000000 1.661950 0.000000 
#    z 0.000000 0.000000 1.693560 
# 
# From -- ./inp_files/18969.got.cif
#   From: 2010.03.12/outbox.cif.g09.slc.cpg/sg66_10_cif.got.tgz:18969.got - 2010.04.10 21:57:39.
