data_PCOD8275383
_publ_section_title
;
Structure prediction by ZEFSAII (Michael W. Deem and Ramdas Pophale) SiO2 
 PCOD8275383
Probable space group: C C C M
;
_chemical_formula_sum "Si O2"
_cell_formula_units_Z 80
_cell_length_a 11.364529
_cell_length_b 15.639501
_cell_length_c 25.229011
_cell_angle_alpha 90.000000
_cell_angle_beta 90.000000
_cell_angle_gamma 90.000000
_cell_volume 4484.092465
_symmetry_space_group_name_H-M "C C C M"
_symmetry_group_IT_number 66
_symmetry_cell_setting 'orthorhombic'
loop_
_space_group_symop_operation_xyz
x,y,z
-x,-y,z
x,-y,1/2-z
-x,y,1/2-z
-x,-y,-z
x,y,-z
-x,y,1/2+z
x,-y,1/2+z
1/2+x,1/2+y,z
1/2-x,1/2-y,z
1/2+x,1/2-y,1/2-z
1/2-x,1/2+y,1/2-z
1/2-x,1/2-y,-z
1/2+x,1/2+y,-z
1/2-x,1/2+y,1/2+z
1/2+x,1/2-y,1/2+z
loop_
_atom_site_type_symbol
_atom_site_label
_atom_site_fract_x
_atom_site_fract_y
_atom_site_fract_z
Si Si1 0.714369 0.874175 0.390276
Si Si2 0.872084 0.528789 0.060178
Si Si3 0.416091 0.725969 0.061627
Si Si4 0.132361 0.702639 0.609089
Si Si5 0.978603 0.399460 0.810505
O O1 0.630840 0.823079 0.432057
O O2 0.843925 0.833046 0.396118
O O3 0.652841 0.872050 0.331654
O O4 0.723565 0.972635 0.408065
O O5 0.842593 0.628399 0.066284
O O6 0.000000 0.500000 0.083039
O O7 0.862689 0.502083 0.000000
O O8 0.550687 0.725470 0.081001
O O9 0.403961 0.696743 0.000000
O O10 0.250000 0.750000 0.627360
O O11 0.075284 0.656818 0.659416
O O12 0.000000 0.500000 0.819341
O O13 0.000000 0.374229 0.750000
#
# Coordination Sequence:
#
# PCOD8275383 Si02
#       5
#    16  16  16  16  16
#     4  10  17  32  53  79 108 134 183 230 266 314
#     4  11  18  30  54  78 104 141 184 220 264 322
#     4  10  19  31  52  82 113 145 177 221 274 321
#     4  11  22  37  51  78 116 146 179 227 276 329
#     4  10  19  37  62  82  99 134 188 236 276 318
#
# _framework density 17.840845999999999
#
# number of rings (size 3 to 8) (size 9 to 14) (size 15 to 20)
#    0.000    1.600    6.000    3.000    0.000    1.600 
#    7.200    1.000    0.000    2.400    0.000    2.800 
#    0.000    0.000    0.000    0.000    0.000    0.000 
#
# Total GULP energy -495628.444734 kJ/mol
# GULP energy per Si atom -12390.711118 kJ/mol
# Density = 1.780024 g / cm^3
# Si number density = 17.840846 Si / 1000 Ang^3
#
#
#
# Elastic Constant Matrix: (Units=GPa)
#
#
# Indices 1 2 3 4 5 6 
#
# 1 102.3821 54.8101 43.0009 0.0000 0.0000 0.0000
# 2 54.8101 79.2108 30.4817 0.0000 0.0000 0.0000
# 3 43.0009 30.4817 114.8048 0.0000 0.0000 0.0000
# 4 0.0000 0.0000 0.0000 23.0917 0.0000 0.0000
# 5 0.0000 0.0000 0.0000 0.0000 16.2198 0.0000
# 6 0.0000 0.0000 0.0000 0.0000 0.0000 27.6578
#
#
#
# Elastic Compliance Matrix: (Units=1/GPa)
#
#
# Indices 1 2 3 4 5 6 
#
# 1 0.016723 -0.010203 -0.003554 0.000000 0.000000 0.000000
# 2 -0.010203 0.020287 -0.001565 0.000000 0.000000 0.000000
# 3 -0.003554 -0.001565 0.010457 0.000000 0.000000 0.000000
# 4 0.000000 0.000000 0.000000 0.043306 0.000000 0.000000
# 5 0.000000 0.000000 0.000000 0.000000 0.061653 0.000000
# 6 0.000000 0.000000 0.000000 0.000000 0.000000 0.036156
#
#
# Mechanical properties :
#
#
# Convention : Reuss Voigt Hill
#
# Bulk Modulus (GPa) = 59.44688 61.44259 60.44473
# Shear Modulus (GPa) = 22.23863 24.60085 23.41974
#
# Velocity S-wave (km/s) = 3.53441 3.71739 3.62706
# Velocity P-wave (km/s) = 7.07454 7.27594 7.17595
#
# Compressibility (1/GPa) = 0.01682174
#
# Stress axis : x y z
#
# Youngs Moduli (GPa) = 59.79926 49.29288 95.62796
#
# Poissons Ratio (x) = 0.50296 0.33991
# Poissons Ratio (y) = 0.61016 0.14962
# Poissons Ratio (z) = 0.21255 0.07712
#
# Static dielectric constant tensor:
#      x y z
#    x 3.200940 0.000000 0.000000 
#    y 0.000000 3.274120 0.000000 
#    z 0.000000 0.000000 3.259310 
# 
# 
# High freq. dielectric constant tensor:
#      x y z
#    x 1.661050 0.000000 0.000000 
#    y 0.000000 1.683680 0.000000 
#    z 0.000000 0.000000 1.680130 
# 
# From -- ./inp_files/63518.got.cif
#   From: 2010.03.12/outbox.cif.g09.slc.cpg/sg66_32_cif.got.tgz:63518.got - 2010.04.10 21:57:39.
