data_PCOD8275219
_publ_section_title
;
Structure prediction by ZEFSAII (Michael W. Deem and Ramdas Pophale) SiO2 
 PCOD8275219
Probable space group: C C C M
;
_chemical_formula_sum "Si O2"
_cell_formula_units_Z 84
_cell_length_a 23.449308
_cell_length_b 10.839874
_cell_length_c 17.295559
_cell_angle_alpha 90.000000
_cell_angle_beta 90.000000
_cell_angle_gamma 90.000000
_cell_volume 4396.315666
_symmetry_space_group_name_H-M "C C C M"
_symmetry_group_IT_number 66
_symmetry_cell_setting 'orthorhombic'
loop_
_space_group_symop_operation_xyz
x,y,z
-x,-y,z
x,-y,1/2-z
-x,y,1/2-z
-x,-y,-z
x,y,-z
-x,y,1/2+z
x,-y,1/2+z
1/2+x,1/2+y,z
1/2-x,1/2-y,z
1/2+x,1/2-y,1/2-z
1/2-x,1/2+y,1/2-z
1/2-x,1/2-y,-z
1/2+x,1/2+y,-z
1/2-x,1/2+y,1/2+z
1/2+x,1/2-y,1/2+z
loop_
_atom_site_type_symbol
_atom_site_label
_atom_site_fract_x
_atom_site_fract_y
_atom_site_fract_z
Si Si1 0.379705 0.237202 0.337267
Si Si2 0.998610 0.361410 0.843042
Si Si3 0.911556 0.183828 0.673820
Si Si4 0.000000 0.000000 0.250000
Si Si5 0.220737 0.382348 0.412578
Si Si6 0.673645 0.508898 0.657528
O O1 0.441394 0.205115 0.372776
O O2 0.381539 0.244844 0.244727
O O3 0.336680 0.127220 0.361792
O O4 0.359887 0.369165 0.370974
O O5 0.000000 0.500000 0.875163
O O6 0.000000 0.358143 0.750000
O O7 0.054122 0.287079 0.875631
O O8 0.959003 0.084779 0.699271
O O9 0.861799 0.111023 0.626852
O O10 0.205501 0.420029 0.500000
O O11 0.250000 0.250000 0.408911
O O12 0.262594 0.487149 0.377155
O O13 0.676140 0.500000 0.750000
#
# Coordination Sequence:
#
# PCOD8275219 Si02
#       6
#    16  16  16   4  16  16
#     4   9  15  27  45  66  95 123 157 195 238 299
#     4   9  16  26  41  68  99 121 149 194 250 296
#     4  10  15  25  46  72  96 126 154 204 261 296
#     4  12  12  24  46  72  98 132 144 194 272 300
#     4   9  18  31  47  67  98 135 162 195 247 300
#     4   9  16  28  46  72  96 120 161 206 245 288
#
# _framework density 19.106909999999999
#
# number of rings (size 3 to 8) (size 9 to 14) (size 15 to 20)
#    0.000    2.667    5.714    0.000    0.000    0.000 
#    6.857    0.000    0.000    1.714    0.000    8.000 
#    0.000    0.000    0.000    0.000    0.000    0.000 
#
# Total GULP energy -520356.905031 kJ/mol
# GULP energy per Si atom -12389.450120 kJ/mol
# Density = 1.906342 g / cm^3
# Si number density = 19.106910 Si / 1000 Ang^3
#
#
#
# Elastic Constant Matrix: (Units=GPa)
#
#
# Indices 1 2 3 4 5 6 
#
# 1 152.5269 70.0328 39.4310 0.0000 0.0000 0.0000
# 2 70.0328 104.2904 22.4668 0.0000 0.0000 0.0000
# 3 39.4310 22.4668 30.6969 0.0000 0.0000 0.0000
# 4 0.0000 0.0000 0.0000 6.9915 0.0000 0.0000
# 5 0.0000 0.0000 0.0000 0.0000 5.5313 0.0000
# 6 0.0000 0.0000 0.0000 0.0000 0.0000 38.6888
#
#
#
# Elastic Compliance Matrix: (Units=1/GPa)
#
#
# Indices 1 2 3 4 5 6 
#
# 1 0.012110 -0.005676 -0.011401 0.000000 0.000000 0.000000
# 2 -0.005676 0.014044 -0.002988 0.000000 0.000000 0.000000
# 3 -0.011401 -0.002988 0.049408 0.000000 0.000000 0.000000
# 4 0.000000 0.000000 0.000000 0.143031 0.000000 0.000000
# 5 0.000000 0.000000 0.000000 0.000000 0.180789 0.000000
# 6 0.000000 0.000000 0.000000 0.000000 0.000000 0.025847
#
#
# Mechanical properties :
#
#
# Convention : Reuss Voigt Hill
#
# Bulk Modulus (GPa) = 28.22285 61.26393 44.74339
# Shear Modulus (GPa) = 10.47847 20.61455 15.54651
#
# Velocity S-wave (km/s) = 2.34436 3.28823 2.85557
# Velocity P-wave (km/s) = 4.70437 6.82276 5.86008
#
# Compressibility (1/GPa) = 0.03543229
#
# Stress axis : x y z
#
# Youngs Moduli (GPa) = 82.57888 71.20673 20.23954
#
# Poissons Ratio (x) = 0.40415 0.23075
# Poissons Ratio (y) = 0.46870 0.06047
# Poissons Ratio (z) = 0.94149 0.21275
#
# Static dielectric constant tensor:
#      x y z
#    x 3.935110 0.000000 0.000000 
#    y 0.000000 3.713670 0.000000 
#    z 0.000000 0.000000 2.863650 
# 
# 
# High freq. dielectric constant tensor:
#      x y z
#    x 1.757780 0.000000 0.000000 
#    y 0.000000 1.732250 0.000000 
#    z 0.000000 0.000000 1.662630 
# 
# From -- ./inp_files/51791.got.cif
#   From: 2010.03.12/outbox.cif.g09.slc.cpg/sg66_26_cif.got.tgz:51791.got - 2010.04.10 21:57:39.
