data_PCOD8275289
_publ_section_title
;
Structure prediction by ZEFSAII (Michael W. Deem and Ramdas Pophale) SiO2 
 PCOD8275289
Probable space group: C C C M
;
_chemical_formula_sum "Si O2"
_cell_formula_units_Z 96
_cell_length_a 20.914103
_cell_length_b 29.045478
_cell_length_c 8.932194
_cell_angle_alpha 90.000000
_cell_angle_beta 90.000000
_cell_angle_gamma 90.000000
_cell_volume 5425.951626
_symmetry_space_group_name_H-M "C C C M"
_symmetry_group_IT_number 66
_symmetry_cell_setting 'orthorhombic'
loop_
_space_group_symop_operation_xyz
x,y,z
-x,-y,z
x,-y,1/2-z
-x,y,1/2-z
-x,-y,-z
x,y,-z
-x,y,1/2+z
x,-y,1/2+z
1/2+x,1/2+y,z
1/2-x,1/2-y,z
1/2+x,1/2-y,1/2-z
1/2-x,1/2+y,1/2-z
1/2-x,1/2-y,-z
1/2+x,1/2+y,-z
1/2-x,1/2+y,1/2+z
1/2+x,1/2-y,1/2+z
loop_
_atom_site_type_symbol
_atom_site_label
_atom_site_fract_x
_atom_site_fract_y
_atom_site_fract_z
Si Si1 0.559451 0.618663 0.173991
Si Si2 0.299407 0.386358 0.829322
Si Si3 0.560005 0.950457 0.674654
Si Si4 0.062620 0.782264 0.177369
Si Si5 0.189685 0.780093 0.675150
Si Si6 0.700857 0.951046 0.673631
O O1 0.500000 0.590139 0.250000
O O2 0.628099 0.593692 0.190165
O O3 0.563445 0.665403 0.267426
O O4 0.545203 0.629218 0.000000
O O5 0.296640 0.332995 0.781741
O O6 0.252883 0.414446 0.723949
O O7 0.276668 0.392294 0.000000
O O8 0.500000 0.922499 0.750000
O O9 0.546289 0.954755 0.500000
O O10 0.630278 0.929099 0.706366
O O11 0.561497 0.000000 0.750000
O O12 0.128519 0.759640 0.236202
O O13 0.000000 0.757509 0.250000
O O14 0.058873 0.778503 0.000000
O O15 0.174630 0.775878 0.500000
O O16 0.250000 0.750000 0.724361
O O17 0.709627 0.960554 0.500000
O O18 0.711920 0.000000 0.750000
#
# Coordination Sequence:
#
# PCOD8275289 Si02
#       6
#    16  16  16  16  16  16
#     4   9  16  27  44  67  93 121 155 194 235 277
#     4   9  18  31  48  71  97 125 156 190 232 281
#     4   9  16  26  42  65  89 115 148 187 228 268
#     4  10  17  26  43  67  94 122 156 197 237 277
#     4   9  18  33  51  71  97 127 158 194 238 286
#     4  10  20  32  48  70  96 125 157 193 233 278
#
# _framework density 17.692748999999999
#
# number of rings (size 3 to 8) (size 9 to 14) (size 15 to 20)
#    0.000    2.667    0.000    5.500    0.000    5.667 
#    0.000    0.000    0.000    1.500    0.000    5.833 
#    0.000    0.000    0.000    0.000    0.000    0.000 
#
# Total GULP energy -594676.987613 kJ/mol
# GULP energy per Si atom -12389.103909 kJ/mol
# Density = 1.765248 g / cm^3
# Si number density = 17.692749 Si / 1000 Ang^3
#
#
#
# Elastic Constant Matrix: (Units=GPa)
#
#
# Indices 1 2 3 4 5 6 
#
# 1 184.8565 46.1052 86.0855 0.0000 0.0000 0.0000
# 2 46.1052 34.7450 26.2459 0.0000 0.0000 0.0000
# 3 86.0855 26.2459 119.1923 0.0000 0.0000 0.0000
# 4 0.0000 0.0000 0.0000 16.9711 0.0000 0.0000
# 5 0.0000 0.0000 0.0000 0.0000 38.0313 0.0000
# 6 0.0000 0.0000 0.0000 0.0000 0.0000 20.7150
#
#
#
# Elastic Compliance Matrix: (Units=1/GPa)
#
#
# Indices 1 2 3 4 5 6 
#
# 1 0.010284 -0.009639 -0.005305 0.000000 0.000000 0.000000
# 2 -0.009639 0.043558 -0.002630 0.000000 0.000000 0.000000
# 3 -0.005305 -0.002630 0.012800 0.000000 0.000000 0.000000
# 4 0.000000 0.000000 0.000000 0.058924 0.000000 0.000000
# 5 0.000000 0.000000 0.000000 0.000000 0.026294 0.000000
# 6 0.000000 0.000000 0.000000 0.000000 0.000000 0.048274
#
#
# Mechanical properties :
#
#
# Convention : Reuss Voigt Hill
#
# Bulk Modulus (GPa) = 31.75107 72.85189 52.30148
# Shear Modulus (GPa) = 20.34325 27.16730 23.75528
#
# Velocity S-wave (km/s) = 3.39456 3.92280 3.66820
# Velocity P-wave (km/s) = 5.77484 7.86024 6.89682
#
# Compressibility (1/GPa) = 0.03149500
#
# Stress axis : x y z
#
# Youngs Moduli (GPa) = 97.23542 22.95765 78.12238
#
# Poissons Ratio (x) = 0.22130 0.41445
# Poissons Ratio (y) = 0.93729 0.20543
# Poissons Ratio (z) = 0.51585 0.06037
#
# Static dielectric constant tensor:
#      x y z
#    x 4.632010 0.000000 0.000000 
#    y 0.000000 2.661140 0.000000 
#    z 0.000000 0.000000 3.375150 
# 
# 
# High freq. dielectric constant tensor:
#      x y z
#    x 1.717610 0.000000 0.000000 
#    y 0.000000 1.604130 0.000000 
#    z 0.000000 0.000000 1.695960 
# 
# From -- ./inp_files/8011.got.cif
#   From: 2010.03.12/outbox.cif.g09.slc.cpg/sg66_5_cif.got.tgz:8011.got - 2010.04.10 21:57:39.
