data_PCOD8275148
_publ_section_title
;
Structure prediction by ZEFSAII (Michael W. Deem and Ramdas Pophale) SiO2 
 PCOD8275148
Probable space group: C M M M
;
_chemical_formula_sum "Si O2"
_cell_formula_units_Z 80
_cell_length_a 14.897150
_cell_length_b 24.682063
_cell_length_c 13.780463
_cell_angle_alpha 90.000000
_cell_angle_beta 90.000000
_cell_angle_gamma 90.000000
_cell_volume 5066.971442
_symmetry_space_group_name_H-M "C M M M"
_symmetry_group_IT_number 65
_symmetry_cell_setting 'orthorhombic'
loop_
_space_group_symop_operation_xyz
x,y,z
-x,-y,z
x,-y,-z
-x,y,-z
-x,-y,-z
x,y,-z
-x,y,z
x,-y,z
1/2+x,1/2+y,z
1/2-x,1/2-y,z
1/2+x,1/2-y,-z
1/2-x,1/2+y,-z
1/2-x,1/2-y,-z
1/2+x,1/2+y,-z
1/2-x,1/2+y,z
1/2+x,1/2-y,z
loop_
_atom_site_type_symbol
_atom_site_label
_atom_site_fract_x
_atom_site_fract_y
_atom_site_fract_z
Si Si1 0.098535 0.171449 0.388694
Si Si2 0.714372 0.125345 0.386778
Si Si3 0.345514 0.227418 0.275418
Si Si4 0.897157 0.654772 0.105853
Si Si5 0.604706 0.061816 0.756099
O O1 0.114963 0.189520 0.500000
O O2 0.179249 0.130616 0.358886
O O3 0.095946 0.225152 0.322778
O O4 0.000000 0.143380 0.377042
O O5 0.701144 0.117206 0.500000
O O6 0.661993 0.179202 0.353408
O O7 0.668295 0.073540 0.336366
O O8 0.250000 0.250000 0.245927
O O9 0.387577 0.207064 0.174565
O O10 0.858895 0.600764 0.158001
O O11 0.000000 0.644036 0.086181
O O12 0.849903 0.663189 0.000000
O O13 0.500000 0.073805 0.730522
O O14 0.617682 0.000000 0.788891
#
# Coordination Sequence:
#
# PCOD8275148 Si02
#       5
#    16  16  16  16  16
#     4   9  16  26  42  62  84 113 145 171 196 232
#     4   9  17  28  41  60  86 111 136 169 206 241
#     4   9  16  26  40  59  84 112 139 168 197 233
#     4   9  17  28  41  58  81 107 134 166 204 244
#     4   9  18  31  45  61  80 104 136 171 208 251
#
# _framework density 15.788524000000001
#
# number of rings (size 3 to 8) (size 9 to 14) (size 15 to 20)
#    0.000    3.000    0.000    1.200    0.000    4.800 
#    0.000    3.000    0.000    0.600    0.000    2.800 
#    0.000    0.000    0.000   16.200    0.000    0.600 
#
# Total GULP energy -495659.005530 kJ/mol
# GULP energy per Si atom -12391.475138 kJ/mol
# Density = 1.575259 g / cm^3
# Si number density = 15.788524 Si / 1000 Ang^3
#
#
#
# Elastic Constant Matrix: (Units=GPa)
#
#
# Indices 1 2 3 4 5 6 
#
# 1 62.0043 14.7828 26.1314 0.0000 0.0000 0.0000
# 2 14.7828 54.7927 29.8400 0.0000 0.0000 0.0000
# 3 26.1314 29.8400 101.4863 0.0000 0.0000 0.0000
# 4 0.0000 0.0000 0.0000 11.6207 0.0000 0.0000
# 5 0.0000 0.0000 0.0000 0.0000 15.9099 0.0000
# 6 0.0000 0.0000 0.0000 0.0000 0.0000 20.8885
#
#
#
# Elastic Compliance Matrix: (Units=1/GPa)
#
#
# Indices 1 2 3 4 5 6 
#
# 1 0.018457 -0.002847 -0.003915 0.000000 0.000000 0.000000
# 2 -0.002847 0.022169 -0.005785 0.000000 0.000000 0.000000
# 3 -0.003915 -0.005785 0.012563 0.000000 0.000000 0.000000
# 4 0.000000 0.000000 0.000000 0.086053 0.000000 0.000000
# 5 0.000000 0.000000 0.000000 0.000000 0.062854 0.000000
# 6 0.000000 0.000000 0.000000 0.000000 0.000000 0.047873
#
#
# Mechanical properties :
#
#
# Convention : Reuss Voigt Hill
#
# Bulk Modulus (GPa) = 35.59572 39.97687 37.78629
# Shear Modulus (GPa) = 17.57907 19.51912 18.54909
#
# Velocity S-wave (km/s) = 3.34040 3.51990 3.43132
# Velocity P-wave (km/s) = 6.12143 6.47262 6.29947
#
# Compressibility (1/GPa) = 0.02809326
#
# Stress axis : x y z
#
# Youngs Moduli (GPa) = 54.18060 45.10707 79.60062
#
# Poissons Ratio (x) = 0.12844 0.31165
# Poissons Ratio (y) = 0.15427 0.46052
# Poissons Ratio (z) = 0.21213 0.26096
#
# Static dielectric constant tensor:
#      x y z
#    x 3.024960 0.000000 0.000000 
#    y 0.000000 2.840130 0.000000 
#    z 0.000000 0.000000 3.224020 
# 
# 
# High freq. dielectric constant tensor:
#      x y z
#    x 1.597100 0.000000 0.000000 
#    y 0.000000 1.579250 0.000000 
#    z 0.000000 0.000000 1.602220 
# 
# From -- ./inp_files/24606.got.cif
#   From: 2010.03.12/outbox.cif.g09.slc.cpg/sg65_13_cif.got.tgz:24606.got - 2010.04.10 20:52:16.
