data_PCOD8275936
_publ_section_title
;
Structure prediction by ZEFSAII (Michael W. Deem and Ramdas Pophale) SiO2 
 PCOD8275936
Probable space group: C C C M
;
_chemical_formula_sum "Si O2"
_cell_formula_units_Z 104
_cell_length_a 9.196803
_cell_length_b 21.946138
_cell_length_c 25.887821
_cell_angle_alpha 90.000000
_cell_angle_beta 90.000000
_cell_angle_gamma 90.000000
_cell_volume 5225.050432
_symmetry_space_group_name_H-M "C C C M"
_symmetry_group_IT_number 66
_symmetry_cell_setting 'orthorhombic'
loop_
_space_group_symop_operation_xyz
x,y,z
-x,-y,z
x,-y,1/2-z
-x,y,1/2-z
-x,-y,-z
x,y,-z
-x,y,1/2+z
x,-y,1/2+z
1/2+x,1/2+y,z
1/2-x,1/2-y,z
1/2+x,1/2-y,1/2-z
1/2-x,1/2+y,1/2-z
1/2-x,1/2-y,-z
1/2+x,1/2+y,-z
1/2-x,1/2+y,1/2+z
1/2+x,1/2-y,1/2+z
loop_
_atom_site_type_symbol
_atom_site_label
_atom_site_fract_x
_atom_site_fract_y
_atom_site_fract_z
Si Si1 0.460891 0.431480 0.638534
Si Si2 0.703270 0.413910 0.557792
Si Si3 0.491805 0.147603 0.943065
Si Si4 0.218721 0.451305 0.442263
Si Si5 0.961324 0.716776 0.344470
Si Si6 0.681555 0.670095 0.302232
Si Si7 0.250000 0.250000 0.789790
O O1 0.500000 0.500000 0.656825
O O2 0.595208 0.404073 0.605959
O O3 0.331377 0.425997 0.598582
O O4 0.406522 0.393388 0.689199
O O5 0.629113 0.413534 0.500000
O O6 0.793926 0.476353 0.564636
O O7 0.818753 0.359900 0.561583
O O8 0.566381 0.082178 0.931389
O O9 0.540118 0.199724 0.904238
O O10 0.534718 0.170759 0.000000
O O11 0.274591 0.436028 0.500000
O O12 0.856059 0.668547 0.313977
O O13 0.893957 0.783842 0.342305
O O14 0.125993 0.715887 0.322650
O O15 0.667080 0.697825 0.244331
#
# Coordination Sequence:
#
# PCOD8275936 Si02
#       7
#    16  16  16  16  16  16   8
#     4  10  19  32  55  86 118 149 186 235 288 334
#     4   9  18  30  48  79 117 161 199 225 264 331
#     4  10  19  33  52  83 119 153 189 232 287 339
#     4   9  16  30  51  76 113 160 200 226 264 333
#     4  10  21  38  60  86 111 147 190 241 288 347
#     4  10  20  39  59  86 114 141 195 242 285 352
#     4  10  22  40  67  84 103 144 204 248 304 344
#
# _framework density 19.904114
#
# number of rings (size 3 to 8) (size 9 to 14) (size 15 to 20)
#    0.000    2.462    1.538    2.769    2.154    3.692 
#    0.000    3.462    0.000    1.846    0.000    0.000 
#    0.000    0.000    0.000    0.000    0.000    0.000 
#
# Total GULP energy -644206.415017 kJ/mol
# GULP energy per Si atom -12388.584904 kJ/mol
# Density = 1.985881 g / cm^3
# Si number density = 19.904114 Si / 1000 Ang^3
#
#
#
# Elastic Constant Matrix: (Units=GPa)
#
#
# Indices 1 2 3 4 5 6 
#
# 1 89.1300 25.6398 27.1260 0.0000 0.0000 0.0000
# 2 25.6398 57.6406 30.1016 0.0000 0.0000 0.0000
# 3 27.1260 30.1016 76.4857 0.0000 0.0000 0.0000
# 4 0.0000 0.0000 0.0000 22.1331 0.0000 0.0000
# 5 0.0000 0.0000 0.0000 0.0000 25.3868 0.0000
# 6 0.0000 0.0000 0.0000 0.0000 0.0000 30.6856
#
#
#
# Elastic Compliance Matrix: (Units=1/GPa)
#
#
# Indices 1 2 3 4 5 6 
#
# 1 0.013401 -0.004379 -0.003029 0.000000 0.000000 0.000000
# 2 -0.004379 0.023268 -0.007604 0.000000 0.000000 0.000000
# 3 -0.003029 -0.007604 0.017141 0.000000 0.000000 0.000000
# 4 0.000000 0.000000 0.000000 0.045181 0.000000 0.000000
# 5 0.000000 0.000000 0.000000 0.000000 0.039391 0.000000
# 6 0.000000 0.000000 0.000000 0.000000 0.000000 0.032589
#
#
# Mechanical properties :
#
#
# Convention : Reuss Voigt Hill
#
# Bulk Modulus (GPa) = 42.04298 43.22122 42.63210
# Shear Modulus (GPa) = 23.93206 25.00037 24.46621
#
# Velocity S-wave (km/s) = 3.47128 3.54791 3.50980
# Velocity P-wave (km/s) = 6.10205 6.20850 6.15550
#
# Compressibility (1/GPa) = 0.02378518
#
# Stress axis : x y z
#
# Youngs Moduli (GPa) = 74.61976 42.97756 58.33828
#
# Poissons Ratio (x) = 0.18821 0.17673
# Poissons Ratio (y) = 0.32677 0.44362
# Poissons Ratio (z) = 0.22605 0.32681
#
# Static dielectric constant tensor:
#      x y z
#    x 3.796720 0.000000 0.000000 
#    y 0.000000 3.333030 0.000000 
#    z 0.000000 0.000000 3.492080 
# 
# 
# High freq. dielectric constant tensor:
#      x y z
#    x 1.785950 0.000000 0.000000 
#    y 0.000000 1.743680 0.000000 
#    z 0.000000 0.000000 1.761240 
# 
# From -- ./inp_files/62826.got.cif
#   From: 2010.03.12/outbox.cif.g09.slc.cpg/sg66_32_cif.got.tgz:62826.got - 2010.04.10 21:57:39.
