data_PCOD8275913
_publ_section_title
;
Structure prediction by ZEFSAII (Michael W. Deem and Ramdas Pophale) SiO2 
 PCOD8275913
Probable space group: C C C M
;
_chemical_formula_sum "Si O2"
_cell_formula_units_Z 72
_cell_length_a 12.816120
_cell_length_b 32.105557
_cell_length_c 9.244127
_cell_angle_alpha 90.000000
_cell_angle_beta 90.000000
_cell_angle_gamma 90.000000
_cell_volume 3803.668653
_symmetry_space_group_name_H-M "C C C M"
_symmetry_group_IT_number 66
_symmetry_cell_setting 'orthorhombic'
loop_
_space_group_symop_operation_xyz
x,y,z
-x,-y,z
x,-y,1/2-z
-x,y,1/2-z
-x,-y,-z
x,y,-z
-x,y,1/2+z
x,-y,1/2+z
1/2+x,1/2+y,z
1/2-x,1/2-y,z
1/2+x,1/2-y,1/2-z
1/2-x,1/2+y,1/2-z
1/2-x,1/2-y,-z
1/2+x,1/2+y,-z
1/2-x,1/2+y,1/2+z
1/2+x,1/2-y,1/2+z
loop_
_atom_site_type_symbol
_atom_site_label
_atom_site_fract_x
_atom_site_fract_y
_atom_site_fract_z
Si Si1 0.591999 0.811836 0.654599
Si Si2 0.755981 0.380354 0.830272
Si Si3 0.250000 0.750000 0.242091
Si Si4 0.894042 0.176784 0.334703
Si Si5 0.394299 0.956888 0.172822
O O1 0.500000 0.794536 0.750000
O O2 0.543900 0.823067 0.500000
O O3 0.645499 0.852684 0.720566
O O4 0.674231 0.774877 0.636655
O O5 0.656574 0.364890 0.738125
O O6 0.793591 0.427390 0.799146
O O7 0.731422 0.373011 0.000000
O O8 0.184229 0.783496 0.336285
O O9 0.921115 0.165750 0.500000
O O10 0.000000 0.188005 0.250000
O O11 0.500000 0.939617 0.250000
O O12 0.364442 0.000000 0.250000
O O13 0.413785 0.962095 0.000000
#
# Coordination Sequence:
#
# PCOD8275913 Si02
#       5
#    16  16   8  16  16
#     4  10  20  33  50  71  98 133 171 213 258 305
#     4   9  20  37  54  75 105 140 176 214 260 312
#     4  10  22  36  52  74 102 136 176 216 260 310
#     4  11  23  38  57  79 105 138 178 222 267 316
#     4  10  19  32  53  82 115 147 178 216 262 315
#
# _framework density 18.929093999999999
#
# number of rings (size 3 to 8) (size 9 to 14) (size 15 to 20)
#    0.000    2.000    0.000    4.000    0.000   10.667 
#    0.000    0.000    0.000    0.667    0.000    4.667 
#    0.000    0.000    0.000    0.000    0.000    0.000 
#
# Total GULP energy -446062.234234 kJ/mol
# GULP energy per Si atom -12390.617618 kJ/mol
# Density = 1.888601 g / cm^3
# Si number density = 18.929094 Si / 1000 Ang^3
#
#
#
# Elastic Constant Matrix: (Units=GPa)
#
#
# Indices 1 2 3 4 5 6 
#
# 1 103.6950 41.5792 53.6132 0.0000 0.0000 0.0000
# 2 41.5792 91.6025 36.4336 0.0000 0.0000 0.0000
# 3 53.6132 36.4336 115.0478 0.0000 0.0000 0.0000
# 4 0.0000 0.0000 0.0000 108.9309 0.0000 0.0000
# 5 0.0000 0.0000 0.0000 0.0000 27.7946 0.0000
# 6 0.0000 0.0000 0.0000 0.0000 0.0000 26.0060
#
#
#
# Elastic Compliance Matrix: (Units=1/GPa)
#
#
# Indices 1 2 3 4 5 6 
#
# 1 0.014054 -0.004318 -0.005182 0.000000 0.000000 0.000000
# 2 -0.004318 0.013817 -0.002363 0.000000 0.000000 0.000000
# 3 -0.005182 -0.002363 0.011855 0.000000 0.000000 0.000000
# 4 0.000000 0.000000 0.000000 0.009180 0.000000 0.000000
# 5 0.000000 0.000000 0.000000 0.000000 0.035978 0.000000
# 6 0.000000 0.000000 0.000000 0.000000 0.000000 0.038453
#
#
# Mechanical properties :
#
#
# Convention : Reuss Voigt Hill
#
# Bulk Modulus (GPa) = 62.50172 63.73302 63.11737
# Shear Modulus (GPa) = 32.80893 44.46092 38.63492
#
# Velocity S-wave (km/s) = 4.16775 4.85171 4.52268
# Velocity P-wave (km/s) = 7.50005 8.07019 7.79034
#
# Compressibility (1/GPa) = 0.01599956
#
# Stress axis : x y z
#
# Youngs Moduli (GPa) = 71.15188 72.37574 84.35099
#
# Poissons Ratio (x) = 0.31255 0.43710
# Poissons Ratio (y) = 0.30726 0.19933
# Poissons Ratio (z) = 0.36870 0.17103
#
# Static dielectric constant tensor:
#      x y z
#    x 3.387910 0.000000 0.000000 
#    y 0.000000 3.469780 0.000000 
#    z 0.000000 0.000000 3.402260 
# 
# 
# High freq. dielectric constant tensor:
#      x y z
#    x 1.721810 0.000000 0.000000 
#    y 0.000000 1.725940 0.000000 
#    z 0.000000 0.000000 1.738820 
# 
# From -- ./inp_files/5551.got.cif
#   From: 2010.03.12/outbox.cif.g09.slc.cpg/sg66_3_cif.got.tgz:5551.got - 2010.04.10 21:57:39.
