data_PCOD8275897
_publ_section_title
;
Structure prediction by ZEFSAII (Michael W. Deem and Ramdas Pophale) SiO2 
 PCOD8275897
Probable space group: C C C M
;
_chemical_formula_sum "Si O2"
_cell_formula_units_Z 116
_cell_length_a 26.968951
_cell_length_b 26.427859
_cell_length_c 9.146241
_cell_angle_alpha 90.000000
_cell_angle_beta 90.000000
_cell_angle_gamma 90.000000
_cell_volume 6518.815297
_symmetry_space_group_name_H-M "C C C M"
_symmetry_group_IT_number 66
_symmetry_cell_setting 'orthorhombic'
loop_
_space_group_symop_operation_xyz
x,y,z
-x,-y,z
x,-y,1/2-z
-x,y,1/2-z
-x,-y,-z
x,y,-z
-x,y,1/2+z
x,-y,1/2+z
1/2+x,1/2+y,z
1/2-x,1/2-y,z
1/2+x,1/2-y,1/2-z
1/2-x,1/2+y,1/2-z
1/2-x,1/2-y,-z
1/2+x,1/2+y,-z
1/2-x,1/2+y,1/2+z
1/2+x,1/2-y,1/2+z
loop_
_atom_site_type_symbol
_atom_site_label
_atom_site_fract_x
_atom_site_fract_y
_atom_site_fract_z
Si Si1 0.077746 0.079374 0.336301
Si Si2 0.290125 0.950174 0.174152
Si Si3 0.500000 0.500000 0.750000
Si Si4 0.709160 0.675085 0.163646
Si Si5 0.129413 0.254354 0.833874
Si Si6 0.181807 0.647267 0.331776
Si Si7 0.816212 0.080990 0.171422
Si Si8 0.950030 0.810998 0.325838
O O1 0.090486 0.095479 0.500000
O O2 0.130505 0.058253 0.271694
O O3 0.060435 0.131982 0.261759
O O4 0.035623 0.036344 0.342577
O O5 0.321691 0.901761 0.227672
O O6 0.233097 0.945730 0.235591
O O7 0.312827 0.000000 0.250000
O O8 0.293951 0.954292 0.000000
O O9 0.684088 0.729728 0.178722
O O10 0.767356 0.677727 0.198421
O O11 0.681935 0.639038 0.279215
O O12 0.700866 0.653196 0.000000
O O13 0.137068 0.313762 0.795011
O O14 0.092372 0.228215 0.720841
O O15 0.109248 0.248370 0.000000
O O16 0.178555 0.629381 0.500000
O O17 0.810194 0.077414 0.000000
O O18 0.956157 0.810151 0.500000
O O19 0.000000 0.791742 0.250000
#
# Coordination Sequence:
#
# PCOD8275897 Si02
#       8
#    16  16   4  16  16  16  16  16
#     4  10  21  36  50  66  90 122 167 221 275 318
#     4  10  20  33  51  72 101 136 173 210 254 304
#     4  12  22  36  52  66  88 124 174 232 284 316
#     4   9  16  28  48  74 100 130 164 203 249 305
#     4  10  19  32  52  78 103 134 168 207 258 314
#     4   9  18  32  50  74 107 136 169 208 249 304
#     4   9  18  33  48  66  93 126 166 213 260 311
#     4  11  22  38  56  74  99 131 170 218 269 324
#
# _framework density 17.794644000000002
#
# number of rings (size 3 to 8) (size 9 to 14) (size 15 to 20)
#    0.000    2.207    2.069    1.448    0.966    2.759 
#    0.000    1.379    0.000    4.138    0.000    0.000 
#    0.000    0.552    0.000    5.793    0.000    2.483 
#
# Total GULP energy -718603.704740 kJ/mol
# GULP energy per Si atom -12389.719047 kJ/mol
# Density = 1.775414 g / cm^3
# Si number density = 17.794644 Si / 1000 Ang^3
#
#
#
# Elastic Constant Matrix: (Units=GPa)
#
#
# Indices 1 2 3 4 5 6 
#
# 1 52.6404 38.9550 21.1329 0.0000 0.0000 0.0000
# 2 38.9550 110.4378 37.4471 0.0000 0.0000 0.0000
# 3 21.1329 37.4471 54.2805 0.0000 0.0000 0.0000
# 4 0.0000 0.0000 0.0000 22.9483 0.0000 0.0000
# 5 0.0000 0.0000 0.0000 0.0000 21.6082 0.0000
# 6 0.0000 0.0000 0.0000 0.0000 0.0000 23.5412
#
#
#
# Elastic Compliance Matrix: (Units=1/GPa)
#
#
# Indices 1 2 3 4 5 6 
#
# 1 0.026745 -0.007706 -0.005097 0.000000 0.000000 0.000000
# 2 -0.007706 0.014040 -0.006686 0.000000 0.000000 0.000000
# 3 -0.005097 -0.006686 0.025019 0.000000 0.000000 0.000000
# 4 0.000000 0.000000 0.000000 0.043576 0.000000 0.000000
# 5 0.000000 0.000000 0.000000 0.000000 0.046279 0.000000
# 6 0.000000 0.000000 0.000000 0.000000 0.000000 0.042479
#
#
# Mechanical properties :
#
#
# Convention : Reuss Voigt Hill
#
# Bulk Modulus (GPa) = 37.27402 45.82541 41.54971
# Shear Modulus (GPa) = 20.32041 21.60776 20.96409
#
# Velocity S-wave (km/s) = 3.38293 3.48844 3.43609
# Velocity P-wave (km/s) = 6.02089 6.48335 6.25640
#
# Compressibility (1/GPa) = 0.02682834
#
# Stress axis : x y z
#
# Youngs Moduli (GPa) = 37.38967 71.22509 39.96883
#
# Poissons Ratio (x) = 0.54885 0.20370
# Poissons Ratio (y) = 0.28812 0.26723
# Poissons Ratio (z) = 0.19056 0.47620
#
# Static dielectric constant tensor:
#      x y z
#    x 3.167870 0.000000 0.000000 
#    y 0.000000 3.162790 0.000000 
#    z 0.000000 0.000000 3.128270 
# 
# 
# High freq. dielectric constant tensor:
#      x y z
#    x 1.658420 0.000000 0.000000 
#    y 0.000000 1.676240 0.000000 
#    z 0.000000 0.000000 1.677320 
# 
# From -- ./inp_files/9458.got.cif
#   From: 2010.03.12/outbox.cif.g09.slc.cpg/sg66_5_cif.got.tgz:9458.got - 2010.04.10 21:57:39.
