data_PCOD8275424
_publ_section_title
;
Structure prediction by ZEFSAII (Michael W. Deem and Ramdas Pophale) SiO2 
 PCOD8275424
Probable space group: C C C M
;
_chemical_formula_sum "Si O2"
_cell_formula_units_Z 112
_cell_length_a 24.479966
_cell_length_b 14.140929
_cell_length_c 19.719562
_cell_angle_alpha 90.000000
_cell_angle_beta 90.000000
_cell_angle_gamma 90.000000
_cell_volume 6826.310151
_symmetry_space_group_name_H-M "C C C M"
_symmetry_group_IT_number 66
_symmetry_cell_setting 'orthorhombic'
loop_
_space_group_symop_operation_xyz
x,y,z
-x,-y,z
x,-y,1/2-z
-x,y,1/2-z
-x,-y,-z
x,y,-z
-x,y,1/2+z
x,-y,1/2+z
1/2+x,1/2+y,z
1/2-x,1/2-y,z
1/2+x,1/2-y,1/2-z
1/2-x,1/2+y,1/2-z
1/2-x,1/2-y,-z
1/2+x,1/2+y,-z
1/2-x,1/2+y,1/2+z
1/2+x,1/2-y,1/2+z
loop_
_atom_site_type_symbol
_atom_site_label
_atom_site_fract_x
_atom_site_fract_y
_atom_site_fract_z
Si Si1 0.382464 0.688792 0.669633
Si Si2 0.690204 0.785312 0.577258
Si Si3 0.497242 0.606074 0.669569
Si Si4 0.179694 0.000090 0.323546
Si Si5 0.305791 0.195788 0.079336
Si Si6 0.773494 0.487447 0.076438
Si Si7 0.390079 0.320528 0.323929
O O1 0.442649 0.658923 0.644420
O O2 0.341283 0.602754 0.657466
O O3 0.358025 0.771133 0.622647
O O4 0.385121 0.722709 0.748055
O O5 0.679466 0.752179 0.500000
O O6 0.750000 0.750000 0.600600
O O7 0.685248 0.899228 0.583258
O O8 0.644398 0.742968 0.625395
O O9 0.500000 0.500000 0.637832
O O10 0.500000 0.596307 0.750000
O O11 0.548118 0.672706 0.647738
O O12 0.209059 0.000000 0.250000
O O13 0.221326 0.037497 0.378885
O O14 0.128804 0.070869 0.320082
O O15 0.250000 0.250000 0.100186
O O16 0.301273 0.085236 0.098658
O O17 0.318101 0.211588 0.000000
O O18 0.751633 0.497053 0.000000
#
# Coordination Sequence:
#
# PCOD8275424 Si02
#       7
#    16  16  16  16  16  16  16
#     4  10  19  31  50  75 102 131 163 198 240 291
#     4  10  20  33  50  71  98 131 165 202 245 292
#     4   9  16  30  51  74 101 132 162 195 243 296
#     4  10  18  27  46  76 103 127 158 199 237 283
#     4  10  20  33  50  71  98 131 165 202 245 292
#     4  10  20  34  49  68  98 136 165 193 244 299
#     4  10  19  31  50  75 102 131 163 198 240 291
#
# _framework density 16.407107
#
# number of rings (size 3 to 8) (size 9 to 14) (size 15 to 20)
#    0.000    2.143    4.286    0.000    0.000    1.714 
#    0.000    0.714    0.000    1.714    0.000    6.000 
#    0.000    0.000    0.000    0.000    0.000    0.000 
#
# Total GULP energy -694282.475932 kJ/mol
# GULP energy per Si atom -12397.901356 kJ/mol
# Density = 1.636976 g / cm^3
# Si number density = 16.407107 Si / 1000 Ang^3
#
#
#
# Elastic Constant Matrix: (Units=GPa)
#
#
# Indices 1 2 3 4 5 6 
#
# 1 106.7334 39.5547 51.1627 0.0000 0.0000 0.0000
# 2 39.5547 89.2791 31.8659 0.0000 0.0000 0.0000
# 3 51.1627 31.8659 62.8324 0.0000 0.0000 0.0000
# 4 0.0000 0.0000 0.0000 25.2885 0.0000 0.0000
# 5 0.0000 0.0000 0.0000 0.0000 8.4746 0.0000
# 6 0.0000 0.0000 0.0000 0.0000 0.0000 18.5587
#
#
#
# Elastic Compliance Matrix: (Units=1/GPa)
#
#
# Indices 1 2 3 4 5 6 
#
# 1 0.015990 -0.002976 -0.011511 0.000000 0.000000 0.000000
# 2 -0.002976 0.014230 -0.004794 0.000000 0.000000 0.000000
# 3 -0.011511 -0.004794 0.027720 0.000000 0.000000 0.000000
# 4 0.000000 0.000000 0.000000 0.039544 0.000000 0.000000
# 5 0.000000 0.000000 0.000000 0.000000 0.118000 0.000000
# 6 0.000000 0.000000 0.000000 0.000000 0.000000 0.053883
#
#
# Mechanical properties :
#
#
# Convention : Reuss Voigt Hill
#
# Bulk Modulus (GPa) = 51.60328 56.00127 53.80228
# Shear Modulus (GPa) = 15.90399 19.54847 17.72623
#
# Velocity S-wave (km/s) = 3.11679 3.45550 3.29051
# Velocity P-wave (km/s) = 6.66878 7.08005 6.87749
#
# Compressibility (1/GPa) = 0.01937861
#
# Stress axis : x y z
#
# Youngs Moduli (GPa) = 62.54064 70.27275 36.07555
#
# Poissons Ratio (x) = 0.20911 0.41526
# Poissons Ratio (y) = 0.18610 0.17295
# Poissons Ratio (z) = 0.71989 0.33689
#
# Static dielectric constant tensor:
#      x y z
#    x 2.998220 0.000000 0.000000 
#    y 0.000000 3.089000 0.000000 
#    z 0.000000 0.000000 2.994300 
# 
# 
# High freq. dielectric constant tensor:
#      x y z
#    x 1.613250 0.000000 0.000000 
#    y 0.000000 1.626030 0.000000 
#    z 0.000000 0.000000 1.620840 
# 
# From -- ./inp_files/33318.got.cif
#   From: 2010.03.12/outbox.cif.g09.slc.cpg/sg66_17_cif.got.tgz:33318.got - 2010.04.10 21:57:39.
