data_PCOD8275671
_publ_section_title
;
Structure prediction by ZEFSAII (Michael W. Deem and Ramdas Pophale) SiO2 
 PCOD8275671
Probable space group: C C C M
;
_chemical_formula_sum "Si O2"
_cell_formula_units_Z 80
_cell_length_a 12.551461
_cell_length_b 22.435501
_cell_length_c 14.135777
_cell_angle_alpha 90.000000
_cell_angle_beta 90.000000
_cell_angle_gamma 90.000000
_cell_volume 3980.610996
_symmetry_space_group_name_H-M "C C C M"
_symmetry_group_IT_number 66
_symmetry_cell_setting 'orthorhombic'
loop_
_space_group_symop_operation_xyz
x,y,z
-x,-y,z
x,-y,1/2-z
-x,y,1/2-z
-x,-y,-z
x,y,-z
-x,y,1/2+z
x,-y,1/2+z
1/2+x,1/2+y,z
1/2-x,1/2-y,z
1/2+x,1/2-y,1/2-z
1/2-x,1/2+y,1/2-z
1/2-x,1/2-y,-z
1/2+x,1/2+y,-z
1/2-x,1/2+y,1/2+z
1/2+x,1/2-y,1/2+z
loop_
_atom_site_type_symbol
_atom_site_label
_atom_site_fract_x
_atom_site_fract_y
_atom_site_fract_z
Si Si1 0.998707 0.683435 0.362569
Si Si2 0.441272 0.055047 0.650479
Si Si3 0.373450 0.736550 0.000000
Si Si4 0.418196 0.596886 0.000000
Si Si5 0.814075 0.309393 0.500000
Si Si6 0.300084 0.517675 0.851222
Si Si7 0.831196 0.921521 0.000000
O O1 0.954614 0.619192 0.398824
O O2 0.925263 0.735224 0.405965
O O3 0.000000 0.691289 0.250000
O O4 0.117104 0.688329 0.404143
O O5 0.500000 0.060203 0.750000
O O6 0.316981 0.044101 0.663418
O O7 0.500000 0.000000 0.594710
O O8 0.250000 0.750000 0.000000
O O9 0.391500 0.666146 0.000000
O O10 0.371467 0.566262 0.905561
O O11 0.542985 0.586456 0.000000
O O12 0.750000 0.250000 0.500000
O O13 0.724964 0.359032 0.500000
O O14 0.350646 0.500000 0.750000
O O15 0.292532 0.456672 0.908259
#
# Coordination Sequence:
#
# PCOD8275671 Si02
#       7
#    16  16   8   8   8  16   8
#     4  10  23  41  67  96 134 172 222 277 336 405
#     4  10  18  34  63 100 133 157 210 269 331 401
#     4  11  23  46  64  94 132 172 220 280 327 391
#     4  11  26  46  62  92 136 170 232 270 320 413
#     4  11  24  44  66  94 136 176 222 280 332 397
#     4  11  22  41  68  96 130 172 211 273 337 402
#     4  11  25  42  64  92 132 172 222 272 327 395
#
# _framework density 20.097415999999999
#
# number of rings (size 3 to 8) (size 9 to 14) (size 15 to 20)
#    0.000    1.400    2.000    4.800    2.800    4.800 
#    7.200    5.000    0.000    0.000    0.000    0.000 
#    0.000    0.000    0.000    0.000    0.000    0.000 
#
# Total GULP energy -495903.258169 kJ/mol
# GULP energy per Si atom -12397.581454 kJ/mol
# Density = 2.005167 g / cm^3
# Si number density = 20.097416 Si / 1000 Ang^3
#
#
#
# Elastic Constant Matrix: (Units=GPa)
#
#
# Indices 1 2 3 4 5 6 
#
# 1 163.5037 64.3474 57.4854 0.0000 0.0000 0.0000
# 2 64.3474 191.7181 67.3145 0.0000 0.0000 0.0000
# 3 57.4854 67.3145 158.9415 0.0000 0.0000 0.0000
# 4 0.0000 0.0000 0.0000 17.2410 0.0000 0.0000
# 5 0.0000 0.0000 0.0000 0.0000 28.1070 0.0000
# 6 0.0000 0.0000 0.0000 0.0000 0.0000 44.3807
#
#
#
# Elastic Compliance Matrix: (Units=1/GPa)
#
#
# Indices 1 2 3 4 5 6 
#
# 1 0.007524 -0.001844 -0.001940 0.000000 0.000000 0.000000
# 2 -0.001844 0.006579 -0.002119 0.000000 0.000000 0.000000
# 3 -0.001940 -0.002119 0.007891 0.000000 0.000000 0.000000
# 4 0.000000 0.000000 0.000000 0.058001 0.000000 0.000000
# 5 0.000000 0.000000 0.000000 0.000000 0.035578 0.000000
# 6 0.000000 0.000000 0.000000 0.000000 0.000000 0.022532
#
#
# Mechanical properties :
#
#
# Convention : Reuss Voigt Hill
#
# Bulk Modulus (GPa) = 98.16832 99.16198 98.66515
# Shear Modulus (GPa) = 32.61388 39.61349 36.11368
#
# Velocity S-wave (km/s) = 4.03276 4.44449 4.24362
# Velocity P-wave (km/s) = 8.40455 8.70550 8.55635
#
# Compressibility (1/GPa) = 0.01018659
#
# Stress axis : x y z
#
# Youngs Moduli (GPa) = 132.90861 151.99723 126.72726
#
# Poissons Ratio (x) = 0.28029 0.24588
# Poissons Ratio (y) = 0.24509 0.26858
# Poissons Ratio (z) = 0.25788 0.32214
#
# Static dielectric constant tensor:
#      x y z
#    x 3.532010 0.000000 0.000000 
#    y 0.000000 4.363180 0.000000 
#    z 0.000000 0.000000 4.930280 
# 
# 
# High freq. dielectric constant tensor:
#      x y z
#    x 1.794570 0.000000 0.000000 
#    y 0.000000 1.802010 0.000000 
#    z 0.000000 0.000000 1.782930 
# 
# From -- ./inp_files/26475.got.cif
#   From: 2010.03.12/outbox.cif.g09.slc.cpg/sg66_14_cif.got.tgz:26475.got - 2010.04.10 21:57:39.
