data_PCOD8275558
_publ_section_title
;
Structure prediction by ZEFSAII (Michael W. Deem and Ramdas Pophale) SiO2 
 PCOD8275558
Probable space group: C C C M
;
_chemical_formula_sum "Si O2"
_cell_formula_units_Z 112
_cell_length_a 17.826960
_cell_length_b 18.768943
_cell_length_c 17.734393
_cell_angle_alpha 90.000000
_cell_angle_beta 90.000000
_cell_angle_gamma 90.000000
_cell_volume 5933.807235
_symmetry_space_group_name_H-M "C C C M"
_symmetry_group_IT_number 66
_symmetry_cell_setting 'orthorhombic'
loop_
_space_group_symop_operation_xyz
x,y,z
-x,-y,z
x,-y,1/2-z
-x,y,1/2-z
-x,-y,-z
x,y,-z
-x,y,1/2+z
x,-y,1/2+z
1/2+x,1/2+y,z
1/2-x,1/2-y,z
1/2+x,1/2-y,1/2-z
1/2-x,1/2+y,1/2-z
1/2-x,1/2-y,-z
1/2+x,1/2+y,-z
1/2-x,1/2+y,1/2+z
1/2+x,1/2-y,1/2+z
loop_
_atom_site_type_symbol
_atom_site_label
_atom_site_fract_x
_atom_site_fract_y
_atom_site_fract_z
Si Si1 0.669584 0.596356 0.845957
Si Si2 0.180906 0.626421 0.414012
Si Si3 0.917507 0.031499 0.086402
Si Si4 0.986133 0.577729 0.912338
Si Si5 0.025061 0.708334 0.828156
Si Si6 0.579124 0.351527 0.792106
Si Si7 0.609473 0.731621 0.916113
O O1 0.759895 0.593451 0.854845
O O2 0.637427 0.519521 0.866621
O O3 0.646335 0.621509 0.762133
O O4 0.641416 0.652691 0.908005
O O5 0.202565 0.605655 0.500000
O O6 0.098970 0.597102 0.393285
O O7 0.176689 0.711848 0.403595
O O8 0.917694 0.106727 0.129036
O O9 0.889940 0.042099 0.000000
O O10 0.000000 0.000000 0.087438
O O11 0.042070 0.639923 0.880690
O O12 0.000000 0.500000 0.875957
O O13 0.003878 0.575083 0.000000
O O14 0.957862 0.757929 0.858462
O O15 0.000000 0.672955 0.750000
O O16 0.090791 0.767116 0.813445
O O17 0.500000 0.365313 0.750000
O O18 0.576298 0.741623 0.000000
#
# Coordination Sequence:
#
# PCOD8275558 Si02
#       7
#    16  16  16  16  16  16  16
#     4  12  20  32  54  78 111 154 184 236 293 341
#     4   9  19  33  54  86 116 141 182 237 299 362
#     4  11  22  33  51  75 103 147 198 236 276 332
#     4   9  19  37  63  91 116 145 184 240 301 354
#     4  10  18  33  53  79 108 151 181 222 279 340
#     4  11  21  36  51  73 114 154 186 234 283 335
#     4  10  18  31  53  81 112 142 180 231 291 351
#
# _framework density 18.874897000000001
#
# number of rings (size 3 to 8) (size 9 to 14) (size 15 to 20)
#    0.000    1.714    4.286    3.429    0.000    3.714 
#    0.000    0.000   12.571    0.000    0.000    0.000 
#    0.000    6.857    0.000    0.000    0.000    0.000 
#
# Total GULP energy -694082.402030 kJ/mol
# GULP energy per Si atom -12394.328608 kJ/mol
# Density = 1.883194 g / cm^3
# Si number density = 18.874897 Si / 1000 Ang^3
#
#
#
# Elastic Constant Matrix: (Units=GPa)
#
#
# Indices 1 2 3 4 5 6 
#
# 1 33.4076 11.2182 27.9379 0.0000 0.0000 0.0000
# 2 11.2182 133.4783 43.3786 0.0000 0.0000 0.0000
# 3 27.9379 43.3786 94.0119 0.0000 0.0000 0.0000
# 4 0.0000 0.0000 0.0000 30.5088 0.0000 0.0000
# 5 0.0000 0.0000 0.0000 0.0000 22.7635 0.0000
# 6 0.0000 0.0000 0.0000 0.0000 0.0000 19.4166
#
#
#
# Elastic Compliance Matrix: (Units=1/GPa)
#
#
# Indices 1 2 3 4 5 6 
#
# 1 0.039872 0.000588 -0.012120 0.000000 0.000000 0.000000
# 2 0.000588 0.008822 -0.004245 0.000000 0.000000 0.000000
# 3 -0.012120 -0.004245 0.016198 0.000000 0.000000 0.000000
# 4 0.000000 0.000000 0.000000 0.032777 0.000000 0.000000
# 5 0.000000 0.000000 0.000000 0.000000 0.043930 0.000000
# 6 0.000000 0.000000 0.000000 0.000000 0.000000 0.051502
#
#
# Mechanical properties :
#
#
# Convention : Reuss Voigt Hill
#
# Bulk Modulus (GPa) = 29.99741 47.32966 38.66354
# Shear Modulus (GPa) = 21.20728 26.42867 23.81797
#
# Velocity S-wave (km/s) = 3.35561 3.74599 3.55616
# Velocity P-wave (km/s) = 5.56244 6.62116 6.11476
#
# Compressibility (1/GPa) = 0.03333621
#
# Stress axis : x y z
#
# Youngs Moduli (GPa) = 25.08050 113.35130 61.73760
#
# Poissons Ratio (x) = -0.06663 0.74826
# Poissons Ratio (y) = -0.01474 0.26210
# Poissons Ratio (z) = 0.30398 0.48122
#
# Static dielectric constant tensor:
#      x y z
#    x 3.169590 0.000000 0.000000 
#    y 0.000000 3.678850 0.000000 
#    z 0.000000 0.000000 3.541580 
# 
# 
# High freq. dielectric constant tensor:
#      x y z
#    x 1.685950 0.000000 0.000000 
#    y 0.000000 1.738990 0.000000 
#    z 0.000000 0.000000 1.735240 
# 
# From -- ./inp_files/43040.got.cif
#   From: 2010.03.12/outbox.cif.g09.slc.cpg/sg66_22_cif.got.tgz:43040.got - 2010.04.10 21:57:39.
