data_PCOD8275532
_publ_section_title
;
Structure prediction by ZEFSAII (Michael W. Deem and Ramdas Pophale) SiO2 
 PCOD8275532
Probable space group: C C C M
;
_chemical_formula_sum "Si O2"
_cell_formula_units_Z 96
_cell_length_a 20.972733
_cell_length_b 30.132780
_cell_length_c 9.107556
_cell_angle_alpha 90.000000
_cell_angle_beta 90.000000
_cell_angle_gamma 90.000000
_cell_volume 5755.672561
_symmetry_space_group_name_H-M "C C C M"
_symmetry_group_IT_number 66
_symmetry_cell_setting 'orthorhombic'
loop_
_space_group_symop_operation_xyz
x,y,z
-x,-y,z
x,-y,1/2-z
-x,y,1/2-z
-x,-y,-z
x,y,-z
-x,y,1/2+z
x,-y,1/2+z
1/2+x,1/2+y,z
1/2-x,1/2-y,z
1/2+x,1/2-y,1/2-z
1/2-x,1/2+y,1/2-z
1/2-x,1/2-y,-z
1/2+x,1/2+y,-z
1/2-x,1/2+y,1/2+z
1/2+x,1/2-y,1/2+z
loop_
_atom_site_type_symbol
_atom_site_label
_atom_site_fract_x
_atom_site_fract_y
_atom_site_fract_z
Si Si1 0.561527 0.252801 0.665751
Si Si2 0.729058 0.859153 0.674813
Si Si3 0.440253 0.069315 0.672067
Si Si4 0.399389 0.154523 0.168901
Si Si5 0.799195 0.457434 0.831038
Si Si6 0.302123 0.713052 0.326062
O O1 0.500000 0.271943 0.750000
O O2 0.553975 0.268905 0.500000
O O3 0.561459 0.199782 0.676980
O O4 0.628118 0.271730 0.727979
O O5 0.721785 0.853918 0.500000
O O6 0.668539 0.837648 0.754674
O O7 0.734362 0.911430 0.717229
O O8 0.789547 0.832666 0.737692
O O9 0.500000 0.044178 0.750000
O O10 0.453017 0.073639 0.500000
O O11 0.438548 0.118134 0.741952
O O12 0.374509 0.044362 0.705967
O O13 0.388942 0.139673 0.000000
O O14 0.769007 0.500000 0.750000
O O15 0.787345 0.465993 0.000000
O O16 0.299382 0.704410 0.500000
O O17 0.250000 0.750000 0.281250
#
# Coordination Sequence:
#
# PCOD8275532 Si02
#       6
#    16  16  16  16  16  16
#     4  10  21  33  47  69  99 132 167 208 246 287
#     4  10  20  33  50  75  99 123 161 209 250 293
#     4  10  20  32  44  64  90 120 161 207 249 299
#     4  10  18  31  48  66  92 130 167 206 249 290
#     4   9  20  35  49  67  92 118 155 202 250 300
#     4  10  19  35  53  72 100 134 173 208 242 294
#
# _framework density 16.679196999999998
#
# number of rings (size 3 to 8) (size 9 to 14) (size 15 to 20)
#    0.000    2.167    1.667    3.000    0.000    8.000 
#    0.000    1.667    0.000    0.000    0.000    0.000 
#    0.000    0.667    0.000    7.333    0.000    5.333 
#
# Total GULP energy -595057.344907 kJ/mol
# GULP energy per Si atom -12397.028019 kJ/mol
# Density = 1.664123 g / cm^3
# Si number density = 16.679197 Si / 1000 Ang^3
#
#
#
# Elastic Constant Matrix: (Units=GPa)
#
#
# Indices 1 2 3 4 5 6 
#
# 1 88.7376 36.9796 34.4017 0.0000 0.0000 0.0000
# 2 36.9796 85.9088 42.9467 0.0000 0.0000 0.0000
# 3 34.4017 42.9467 66.3946 0.0000 0.0000 0.0000
# 4 0.0000 0.0000 0.0000 22.7305 0.0000 0.0000
# 5 0.0000 0.0000 0.0000 0.0000 26.2174 0.0000
# 6 0.0000 0.0000 0.0000 0.0000 0.0000 5.8950
#
#
#
# Elastic Compliance Matrix: (Units=1/GPa)
#
#
# Indices 1 2 3 4 5 6 
#
# 1 0.014885 -0.003771 -0.005273 0.000000 0.000000 0.000000
# 2 -0.003771 0.018159 -0.009792 0.000000 0.000000 0.000000
# 3 -0.005273 -0.009792 0.024127 0.000000 0.000000 0.000000
# 4 0.000000 0.000000 0.000000 0.043994 0.000000 0.000000
# 5 0.000000 0.000000 0.000000 0.000000 0.038143 0.000000
# 6 0.000000 0.000000 0.000000 0.000000 0.000000 0.169635
#
#
# Mechanical properties :
#
#
# Convention : Reuss Voigt Hill
#
# Bulk Modulus (GPa) = 51.28503 52.18855 51.73679
# Shear Modulus (GPa) = 14.15975 19.41611 16.78793
#
# Velocity S-wave (km/s) = 2.91683 3.41558 3.17601
# Velocity P-wave (km/s) = 6.49296 6.84927 6.67349
#
# Compressibility (1/GPa) = 0.01949887
#
# Stress axis : x y z
#
# Youngs Moduli (GPa) = 67.18152 55.07054 41.44672
#
# Poissons Ratio (x) = 0.20768 0.21856
# Poissons Ratio (y) = 0.25335 0.40583
# Poissons Ratio (z) = 0.35426 0.53923
#
# Static dielectric constant tensor:
#      x y z
#    x 3.057860 0.000000 0.000000 
#    y 0.000000 3.018570 0.000000 
#    z 0.000000 0.000000 3.153530 
# 
# 
# High freq. dielectric constant tensor:
#      x y z
#    x 1.610940 0.000000 0.000000 
#    y 0.000000 1.627010 0.000000 
#    z 0.000000 0.000000 1.650100 
# 
# From -- ./inp_files/7975.got.cif
#   From: 2010.03.12/outbox.cif.g09.slc.cpg/sg66_4_cif.got.tgz:7975.got - 2010.04.10 21:57:39.
