data_PCOD8275481
_publ_section_title
;
Structure prediction by ZEFSAII (Michael W. Deem and Ramdas Pophale) SiO2 
 PCOD8275481
Probable space group: C C C M
;
_chemical_formula_sum "Si O2"
_cell_formula_units_Z 100
_cell_length_a 20.473297
_cell_length_b 16.778120
_cell_length_c 16.121024
_cell_angle_alpha 90.000000
_cell_angle_beta 90.000000
_cell_angle_gamma 90.000000
_cell_volume 5537.627101
_symmetry_space_group_name_H-M "C C C M"
_symmetry_group_IT_number 66
_symmetry_cell_setting 'orthorhombic'
loop_
_space_group_symop_operation_xyz
x,y,z
-x,-y,z
x,-y,1/2-z
-x,y,1/2-z
-x,-y,-z
x,y,-z
-x,y,1/2+z
x,-y,1/2+z
1/2+x,1/2+y,z
1/2-x,1/2-y,z
1/2+x,1/2-y,1/2-z
1/2-x,1/2+y,1/2-z
1/2-x,1/2-y,-z
1/2+x,1/2+y,-z
1/2-x,1/2+y,1/2+z
1/2+x,1/2-y,1/2+z
loop_
_atom_site_type_symbol
_atom_site_label
_atom_site_fract_x
_atom_site_fract_y
_atom_site_fract_z
Si Si1 0.079014 0.250576 0.905516
Si Si2 0.347683 0.910271 0.589307
Si Si3 0.574092 0.245128 0.908048
Si Si4 0.650901 0.297289 0.752509
Si Si5 0.608413 0.927673 0.358304
Si Si6 0.281215 0.128451 0.246105
Si Si7 0.000000 0.500000 0.250000
O O1 0.099661 0.341914 0.889231
O O2 0.110933 0.193797 0.834381
O O3 0.002247 0.247226 0.893320
O O4 0.098567 0.223685 0.000000
O O5 0.315442 0.894241 0.500000
O O6 0.289367 0.909400 0.655051
O O7 0.386365 0.994121 0.584792
O O8 0.606547 0.297267 0.835096
O O9 0.597194 0.153185 0.908550
O O10 0.592860 0.278346 0.000000
O O11 0.690211 0.216267 0.747766
O O12 0.703324 0.369200 0.763621
O O13 0.677743 0.924702 0.310023
O O14 0.546293 0.939119 0.299112
#
# Coordination Sequence:
#
# PCOD8275481 Si02
#       7
#    16  16  16  16  16  16   4
#     4   9  18  30  47  72  96 121 158 198 236 286
#     4  10  18  30  45  67  96 125 156 195 236 276
#     4  10  20  31  46  70  97 125 161 199 237 284
#     4   9  18  31  48  60  89 128 163 199 240 272
#     4  11  20  30  46  67  95 129 164 194 230 279
#     4   9  18  32  43  63  87 124 168 201 223 276
#     4  12  20  28  50  68  92 136 168 192 236 276
#
# _framework density 18.058275999999999
#
# number of rings (size 3 to 8) (size 9 to 14) (size 15 to 20)
#    0.000    2.240    1.600    1.920    4.480    0.640 
#    0.000   13.600    0.000    0.000    0.000    0.000 
#    0.000   10.240    0.000   19.840    0.000    1.280 
#
# Total GULP energy -619518.781556 kJ/mol
# GULP energy per Si atom -12390.375631 kJ/mol
# Density = 1.801718 g / cm^3
# Si number density = 18.058276 Si / 1000 Ang^3
#
#
#
# Elastic Constant Matrix: (Units=GPa)
#
#
# Indices 1 2 3 4 5 6 
#
# 1 112.5766 29.0581 66.8941 0.0000 0.0000 0.0000
# 2 29.0581 21.1007 16.3194 0.0000 0.0000 0.0000
# 3 66.8941 16.3194 133.0457 0.0000 0.0000 0.0000
# 4 0.0000 0.0000 0.0000 -1.0544 0.0000 0.0000
# 5 0.0000 0.0000 0.0000 0.0000 17.9467 0.0000
# 6 0.0000 0.0000 0.0000 0.0000 0.0000 27.3627
#
#
#
# Elastic Compliance Matrix: (Units=1/GPa)
#
#
# Indices 1 2 3 4 5 6 
#
# 1 0.017802 -0.019436 -0.006566 0.000000 0.000000 0.000000
# 2 -0.019436 0.073580 0.000747 0.000000 0.000000 0.000000
# 3 -0.006566 0.000747 0.010726 0.000000 0.000000 0.000000
# 4 0.000000 0.000000 0.000000 -0.948428 0.000000 0.000000
# 5 0.000000 0.000000 0.000000 0.000000 0.055721 0.000000
# 6 0.000000 0.000000 0.000000 0.000000 0.000000 0.036546
#
#
# Mechanical properties :
#
#
# Convention : Reuss Voigt Hill
#
# Bulk Modulus (GPa) = 19.38116 54.58514 36.98315
# Shear Modulus (GPa) = -7.28499 19.14775 5.93138
#
# Velocity S-wave (km/s) = -2.01070 3.25981 1.81431
# Velocity P-wave (km/s) = 2.31631 6.66793 4.99132
#
# Compressibility (1/GPa) = 0.05159651
#
# Stress axis : x y z
#
# Youngs Moduli (GPa) = 56.17492 13.59061 93.23054
#
# Poissons Ratio (x) = 0.26415 0.61219
# Poissons Ratio (y) = 1.09184 -0.06965
# Poissons Ratio (z) = 0.36887 -0.01015
#
# Static dielectric constant tensor:
#      x y z
#    x 3.520190 0.000000 0.000000 
#    y 0.000000 3.109620 0.000000 
#    z 0.000000 0.000000 3.559160 
# 
# 
# High freq. dielectric constant tensor:
#      x y z
#    x 1.687100 0.000000 0.000000 
#    y 0.000000 1.646290 0.000000 
#    z 0.000000 0.000000 1.712110 
# 
# From -- ./inp_files/31366.got.cif
#   From: 2010.03.12/outbox.cif.g09.slc.cpg/sg66_16_cif.got.tgz:31366.got - 2010.04.10 21:57:39.
