data_PCOD8275632
_publ_section_title
;
Structure prediction by ZEFSAII (Michael W. Deem and Ramdas Pophale) SiO2 
 PCOD8275632
Probable space group: C C C M
;
_chemical_formula_sum "Si O2"
_cell_formula_units_Z 88
_cell_length_a 14.465263
_cell_length_b 15.444263
_cell_length_c 19.510161
_cell_angle_alpha 90.000000
_cell_angle_beta 90.000000
_cell_angle_gamma 90.000000
_cell_volume 4358.673881
_symmetry_space_group_name_H-M "C C C M"
_symmetry_group_IT_number 66
_symmetry_cell_setting 'orthorhombic'
loop_
_space_group_symop_operation_xyz
x,y,z
-x,-y,z
x,-y,1/2-z
-x,y,1/2-z
-x,-y,-z
x,y,-z
-x,y,1/2+z
x,-y,1/2+z
1/2+x,1/2+y,z
1/2-x,1/2-y,z
1/2+x,1/2-y,1/2-z
1/2-x,1/2+y,1/2-z
1/2-x,1/2-y,-z
1/2+x,1/2+y,-z
1/2-x,1/2+y,1/2+z
1/2+x,1/2-y,1/2+z
loop_
_atom_site_type_symbol
_atom_site_label
_atom_site_fract_x
_atom_site_fract_y
_atom_site_fract_z
Si Si1 0.340227 0.706025 0.857448
Si Si2 0.763183 0.938980 0.000000
Si Si3 0.659774 0.622150 0.500000
Si Si4 0.541104 0.261983 0.356072
Si Si5 0.291245 0.844817 0.634759
Si Si6 0.453345 0.650384 0.500000
Si Si7 0.862336 0.903662 0.234136
O O1 0.250000 0.750000 0.825706
O O2 0.433291 0.764061 0.848033
O O3 0.351907 0.621491 0.812734
O O4 0.319602 0.681521 0.935118
O O5 0.710036 0.903013 0.066469
O O6 0.767424 0.043127 0.000000
O O7 0.871175 0.917520 0.000000
O O8 0.550362 0.597630 0.500000
O O9 0.603562 0.176610 0.340465
O O10 0.558219 0.289514 0.434060
O O11 0.563812 0.343833 0.306362
O O12 0.250000 0.750000 0.618744
O O13 0.235376 0.896236 0.693555
O O14 0.897629 0.000000 0.250000
#
# Coordination Sequence:
#
# PCOD8275632 Si02
#       7
#    16   8   8  16  16   8  16
#     4  11  23  40  58  76 111 156 192 230 276 330
#     4  12  17  33  57  84 120 143 169 231 290 336
#     4  10  24  35  53  82 114 150 188 227 280 331
#     4  10  21  36  58  87 110 146 190 229 276 333
#     4  10  19  33  57  83 115 145 182 224 275 340
#     4  10  18  33  55  87 116 144 175 222 284 337
#     4  11  22  36  56  87 117 142 177 229 290 342
#
# _framework density 20.189627000000002
#
# number of rings (size 3 to 8) (size 9 to 14) (size 15 to 20)
#    0.000    1.455    3.636    4.636    0.000    1.455 
#    0.000    0.000    0.000    6.545    0.000    0.000 
#    0.000    0.000    0.000    0.000    0.000    0.000 
#
# Total GULP energy -545177.311885 kJ/mol
# GULP energy per Si atom -12390.393452 kJ/mol
# Density = 2.014367 g / cm^3
# Si number density = 20.189627 Si / 1000 Ang^3
#
#
#
# Elastic Constant Matrix: (Units=GPa)
#
#
# Indices 1 2 3 4 5 6 
#
# 1 131.8684 39.7905 15.2704 0.0000 0.0000 0.0000
# 2 39.7905 54.9972 6.2321 0.0000 0.0000 0.0000
# 3 15.2704 6.2321 104.5651 0.0000 0.0000 0.0000
# 4 0.0000 0.0000 0.0000 24.3699 0.0000 0.0000
# 5 0.0000 0.0000 0.0000 0.0000 9.5450 0.0000
# 6 0.0000 0.0000 0.0000 0.0000 0.0000 12.4082
#
#
#
# Elastic Compliance Matrix: (Units=1/GPa)
#
#
# Indices 1 2 3 4 5 6 
#
# 1 0.009807 -0.006980 -0.001016 0.000000 0.000000 0.000000
# 2 -0.006980 0.023275 -0.000368 0.000000 0.000000 0.000000
# 3 -0.001016 -0.000368 0.009734 0.000000 0.000000 0.000000
# 4 0.000000 0.000000 0.000000 0.041034 0.000000 0.000000
# 5 0.000000 0.000000 0.000000 0.000000 0.104767 0.000000
# 6 0.000000 0.000000 0.000000 0.000000 0.000000 0.080592
#
#
# Mechanical properties :
#
#
# Convention : Reuss Voigt Hill
#
# Bulk Modulus (GPa) = 38.33330 46.00187 42.16759
# Shear Modulus (GPa) = 16.97028 24.60715 20.78872
#
# Velocity S-wave (km/s) = 2.90236 3.49492 3.21233
# Velocity P-wave (km/s) = 5.50086 6.25463 5.88981
#
# Compressibility (1/GPa) = 0.02608698
#
# Stress axis : x y z
#
# Youngs Moduli (GPa) = 101.96492 42.96500 102.73540
#
# Poissons Ratio (x) = 0.29991 0.10440
# Poissons Ratio (y) = 0.71176 0.03778
# Poissons Ratio (z) = 0.10362 0.01580
#
# Static dielectric constant tensor:
#      x y z
#    x 4.053400 0.000000 0.000000 
#    y 0.000000 3.226130 0.000000 
#    z 0.000000 0.000000 3.829980 
# 
# 
# High freq. dielectric constant tensor:
#      x y z
#    x 1.787570 0.000000 0.000000 
#    y 0.000000 1.742570 0.000000 
#    z 0.000000 0.000000 1.810510 
# 
# From -- ./inp_files/49885.got.cif
#   From: 2010.03.12/outbox.cif.g09.slc.cpg/sg66_25_cif.got.tgz:49885.got - 2010.04.10 21:57:39.
