data_PCOD8275824
_publ_section_title
;
Structure prediction by ZEFSAII (Michael W. Deem and Ramdas Pophale) SiO2 
 PCOD8275824
Probable space group: C C C M
;
_chemical_formula_sum "Si O2"
_cell_formula_units_Z 96
_cell_length_a 17.253021
_cell_length_b 17.664047
_cell_length_c 17.173282
_cell_angle_alpha 90.000000
_cell_angle_beta 90.000000
_cell_angle_gamma 90.000000
_cell_volume 5233.698061
_symmetry_space_group_name_H-M "C C C M"
_symmetry_group_IT_number 66
_symmetry_cell_setting 'orthorhombic'
loop_
_space_group_symop_operation_xyz
x,y,z
-x,-y,z
x,-y,1/2-z
-x,y,1/2-z
-x,-y,-z
x,y,-z
-x,y,1/2+z
x,-y,1/2+z
1/2+x,1/2+y,z
1/2-x,1/2-y,z
1/2+x,1/2-y,1/2-z
1/2-x,1/2+y,1/2-z
1/2-x,1/2-y,-z
1/2+x,1/2+y,-z
1/2-x,1/2+y,1/2+z
1/2+x,1/2-y,1/2+z
loop_
_atom_site_type_symbol
_atom_site_label
_atom_site_fract_x
_atom_site_fract_y
_atom_site_fract_z
Si Si1 0.358637 0.916933 0.091447
Si Si2 0.314770 0.813572 0.780524
Si Si3 0.480118 0.850526 0.411506
Si Si4 0.694964 0.319569 0.587277
Si Si5 0.819461 0.420590 0.639822
Si Si6 0.938262 0.777954 0.195373
O O1 0.318079 0.843844 0.130709
O O2 0.451070 0.910208 0.106649
O O3 0.325649 0.989279 0.137566
O O4 0.338135 0.920473 0.000000
O O5 0.250000 0.750000 0.773426
O O6 0.300980 0.886815 0.725110
O O7 0.395268 0.776847 0.755659
O O8 0.486238 0.824508 0.500000
O O9 0.398054 0.889092 0.396788
O O10 0.488251 0.774020 0.362546
O O11 0.664178 0.303314 0.500000
O O12 0.750000 0.250000 0.616249
O O13 0.746285 0.395334 0.586880
O O14 0.621865 0.328833 0.645766
O O15 0.000000 0.824957 0.250000
#
# Coordination Sequence:
#
# PCOD8275824 Si02
#       6
#    16  16  16  16  16  16
#     4  11  23  35  51  79 116 155 187 221 279 355
#     4  11  21  38  54  76 107 147 194 234 279 335
#     4  10  19  31  49  76 116 153 184 220 269 339
#     4  11  19  31  55  82 110 147 194 247 295 331
#     4  11  20  34  55  82 113 146 187 237 287 333
#     4  11  19  33  52  76 109 149 193 238 275 337
#
# _framework density 18.342670999999999
#
# number of rings (size 3 to 8) (size 9 to 14) (size 15 to 20)
#    0.000    1.167    6.667    3.000    0.000    1.667 
#    0.000    1.667    0.000    0.000    0.000    2.333 
#    0.000    2.667    0.000    0.000    0.000    0.000 
#
# Total GULP energy -594831.251455 kJ/mol
# GULP energy per Si atom -12392.317739 kJ/mol
# Density = 1.830092 g / cm^3
# Si number density = 18.342671 Si / 1000 Ang^3
#
#
#
# Elastic Constant Matrix: (Units=GPa)
#
#
# Indices 1 2 3 4 5 6 
#
# 1 89.7058 51.7936 66.5010 0.0000 0.0000 0.0000
# 2 51.7936 69.9010 42.7084 0.0000 0.0000 0.0000
# 3 66.5010 42.7084 96.5395 0.0000 0.0000 0.0000
# 4 0.0000 0.0000 0.0000 19.9924 0.0000 0.0000
# 5 0.0000 0.0000 0.0000 0.0000 34.2880 0.0000
# 6 0.0000 0.0000 0.0000 0.0000 0.0000 29.0897
#
#
#
# Elastic Compliance Matrix: (Units=1/GPa)
#
#
# Indices 1 2 3 4 5 6 
#
# 1 0.029341 -0.012870 -0.014518 0.000000 0.000000 0.000000
# 2 -0.012870 0.025251 -0.002305 0.000000 0.000000 0.000000
# 3 -0.014518 -0.002305 0.021379 0.000000 0.000000 0.000000
# 4 0.000000 0.000000 0.000000 0.050019 0.000000 0.000000
# 5 0.000000 0.000000 0.000000 0.000000 0.029165 0.000000
# 6 0.000000 0.000000 0.000000 0.000000 0.000000 0.034376
#
#
# Mechanical properties :
#
#
# Convention : Reuss Voigt Hill
#
# Bulk Modulus (GPa) = 60.29847 64.23916 62.26882
# Shear Modulus (GPa) = 19.65072 23.01690 21.33381
#
# Velocity S-wave (km/s) = 3.27664 3.54620 3.41408
# Velocity P-wave (km/s) = 6.87458 7.20174 7.04006
#
# Compressibility (1/GPa) = 0.01658417
#
# Stress axis : x y z
#
# Youngs Moduli (GPa) = 34.08245 39.60315 46.77572
#
# Poissons Ratio (x) = 0.50970 0.67907
# Poissons Ratio (y) = 0.43865 0.10782
# Poissons Ratio (z) = 0.49479 0.09129
#
# Static dielectric constant tensor:
#      x y z
#    x 3.364890 0.000000 0.000000 
#    y 0.000000 3.213170 0.000000 
#    z 0.000000 0.000000 3.563140 
# 
# 
# High freq. dielectric constant tensor:
#      x y z
#    x 1.699090 0.000000 0.000000 
#    y 0.000000 1.663200 0.000000 
#    z 0.000000 0.000000 1.728850 
# 
# From -- ./inp_files/41695.got.cif
#   From: 2010.03.12/outbox.cif.g09.slc.cpg/sg66_21_cif.got.tgz:41695.got - 2010.04.10 21:57:39.
