data_PCOD8275707
_publ_section_title
;
Structure prediction by ZEFSAII (Michael W. Deem and Ramdas Pophale) SiO2 
 PCOD8275707
Probable space group: C C C M
;
_chemical_formula_sum "Si O2"
_cell_formula_units_Z 96
_cell_length_a 33.017812
_cell_length_b 29.832705
_cell_length_c 8.034360
_cell_angle_alpha 90.000000
_cell_angle_beta 90.000000
_cell_angle_gamma 90.000000
_cell_volume 7913.930127
_symmetry_space_group_name_H-M "C C C M"
_symmetry_group_IT_number 66
_symmetry_cell_setting 'orthorhombic'
loop_
_space_group_symop_operation_xyz
x,y,z
-x,-y,z
x,-y,1/2-z
-x,y,1/2-z
-x,-y,-z
x,y,-z
-x,y,1/2+z
x,-y,1/2+z
1/2+x,1/2+y,z
1/2-x,1/2-y,z
1/2+x,1/2-y,1/2-z
1/2-x,1/2+y,1/2-z
1/2-x,1/2-y,-z
1/2+x,1/2+y,-z
1/2-x,1/2+y,1/2+z
1/2+x,1/2-y,1/2+z
loop_
_atom_site_type_symbol
_atom_site_label
_atom_site_fract_x
_atom_site_fract_y
_atom_site_fract_z
Si Si1 0.244157 0.132420 0.685187
Si Si2 0.880421 0.896754 0.187422
Si Si3 0.807499 0.048870 0.192453
Si Si4 0.661542 0.314024 0.181593
Si Si5 0.045037 0.950084 0.195132
Si Si6 0.269135 0.820786 0.500000
Si Si7 0.185101 0.232130 0.000000
O O1 0.264795 0.133828 0.500000
O O2 0.229867 0.082137 0.730090
O O3 0.205624 0.164414 0.682406
O O4 0.274034 0.149174 0.832179
O O5 0.848047 0.936492 0.212354
O O6 0.871341 0.853652 0.301073
O O7 0.925177 0.914751 0.220597
O O8 0.877057 0.879495 0.000000
O O9 0.793532 0.000000 0.250000
O O10 0.818824 0.049566 0.000000
O O11 0.659009 0.278465 0.333115
O O12 0.654162 0.290912 0.000000
O O13 0.000000 0.937300 0.250000
O O14 0.056646 0.000000 0.250000
O O15 0.049517 0.946409 0.000000
O O16 0.225584 0.797301 0.500000
O O17 0.305003 0.784689 0.500000
#
# Coordination Sequence:
#
# PCOD8275707 Si02
#       7
#    16  16  16  16  16   8   8
#     4   8  16  26  35  49  68  88 110 134 162 195
#     4  11  19  29  42  54  69  89 109 136 174 208
#     4  10  19  27  37  53  68  87 114 143 172 202
#     4   9  16  27  39  53  71  86 105 135 162 196
#     4  11  21  33  43  54  69  87 111 140 171 206
#     4   9  16  24  40  48  70  90 108 128 164 193
#     4   9  16  26  36  58  66  87 110 130 156 203
#
# _framework density 12.130509
#
# number of rings (size 3 to 8) (size 9 to 14) (size 15 to 20)
#    0.000    2.333    0.833    5.500    4.667    0.667 
#    0.000    3.333    0.000    0.000    0.000    0.000 
#    0.000    0.000    0.000    0.000    0.000    0.000 
#
# Total GULP energy -595014.709384 kJ/mol
# GULP energy per Si atom -12396.139779 kJ/mol
# Density = 1.210290 g / cm^3
# Si number density = 12.130509 Si / 1000 Ang^3
#
#
#
# Elastic Constant Matrix: (Units=GPa)
#
#
# Indices 1 2 3 4 5 6 
#
# 1 25.8974 27.4781 20.8522 0.0000 0.0000 0.0000
# 2 27.4781 54.9953 37.0559 0.0000 0.0000 0.0000
# 3 20.8522 37.0559 103.4450 0.0000 0.0000 0.0000
# 4 0.0000 0.0000 0.0000 16.5713 0.0000 0.0000
# 5 0.0000 0.0000 0.0000 0.0000 10.5716 0.0000
# 6 0.0000 0.0000 0.0000 0.0000 0.0000 17.1523
#
#
#
# Elastic Compliance Matrix: (Units=1/GPa)
#
#
# Indices 1 2 3 4 5 6 
#
# 1 0.082655 -0.039639 -0.002462 0.000000 0.000000 0.000000
# 2 -0.039639 0.042979 -0.007405 0.000000 0.000000 0.000000
# 3 -0.002462 -0.007405 0.012816 0.000000 0.000000 0.000000
# 4 0.000000 0.000000 0.000000 0.060345 0.000000 0.000000
# 5 0.000000 0.000000 0.000000 0.000000 0.094593 0.000000
# 6 0.000000 0.000000 0.000000 0.000000 0.000000 0.058301
#
#
# Mechanical properties :
#
#
# Convention : Reuss Voigt Hill
#
# Bulk Modulus (GPa) = 25.35718 39.45667 32.40693
# Shear Modulus (GPa) = 10.77941 15.45581 13.11761
#
# Velocity S-wave (km/s) = 2.98421 3.57336 3.29199
# Velocity P-wave (km/s) = 5.72914 7.04434 6.42050
#
# Compressibility (1/GPa) = 0.03943656
#
# Stress axis : x y z
#
# Youngs Moduli (GPa) = 12.09850 23.26741 78.02772
#
# Poissons Ratio (x) = 0.92230 0.19210
# Poissons Ratio (y) = 0.47957 0.57782
# Poissons Ratio (z) = 0.02979 0.17230
#
# Static dielectric constant tensor:
#      x y z
#    x 2.093150 0.000000 0.000000 
#    y 0.000000 2.470660 0.000000 
#    z 0.000000 0.000000 2.871130 
# 
# 
# High freq. dielectric constant tensor:
#      x y z
#    x 1.397810 0.000000 0.000000 
#    y 0.000000 1.434890 0.000000 
#    z 0.000000 0.000000 1.489230 
# 
# From -- ./inp_files/11832.got.cif
#   From: 2010.03.12/outbox.cif.g09.slc.cpg/sg66_6_cif.got.tgz:11832.got - 2010.04.10 21:57:39.
