data_PCOD8275132
_publ_section_title
;
Structure prediction by ZEFSAII (Michael W. Deem and Ramdas Pophale) SiO2 
 PCOD8275132
Probable space group: C M M M
;
_chemical_formula_sum "Si O2"
_cell_formula_units_Z 80
_cell_length_a 9.229039
_cell_length_b 19.442840
_cell_length_c 25.466901
_cell_angle_alpha 90.000000
_cell_angle_beta 90.000000
_cell_angle_gamma 90.000000
_cell_volume 4569.748338
_symmetry_space_group_name_H-M "C M M M"
_symmetry_group_IT_number 65
_symmetry_cell_setting 'orthorhombic'
loop_
_space_group_symop_operation_xyz
x,y,z
-x,-y,z
x,-y,-z
-x,y,-z
-x,-y,-z
x,y,-z
-x,y,z
x,-y,z
1/2+x,1/2+y,z
1/2-x,1/2-y,z
1/2+x,1/2-y,-z
1/2-x,1/2+y,-z
1/2-x,1/2-y,-z
1/2+x,1/2+y,-z
1/2-x,1/2+y,z
1/2+x,1/2-y,z
loop_
_atom_site_type_symbol
_atom_site_label
_atom_site_fract_x
_atom_site_fract_y
_atom_site_fract_z
Si Si1 0.329779 0.319336 0.411907
Si Si2 0.835748 0.082072 0.000000
Si Si3 0.328273 0.423109 0.500000
Si Si4 0.331410 0.318060 0.707243
Si Si5 0.831611 0.079108 0.797116
Si Si6 0.836081 0.418096 0.100911
O O1 0.500000 0.306451 0.418837
O O2 0.250000 0.250000 0.429896
O O3 0.276055 0.382187 0.448206
O O4 0.288437 0.338592 0.352123
O O5 0.752693 0.110708 0.051163
O O6 0.000000 0.110167 0.000000
O O7 0.835922 0.000000 0.000000
O O8 0.260207 0.500000 0.500000
O O9 0.500000 0.429016 0.500000
O O10 0.500000 0.301974 0.711417
O O11 0.250000 0.250000 0.726020
O O12 0.285535 0.380283 0.744956
O O13 0.740163 0.108275 0.846018
O O14 0.000000 0.088888 0.810945
O O15 0.794392 0.000000 0.785910
O O16 0.834676 0.500000 0.099609
O O17 0.000000 0.389802 0.098682
#
# Coordination Sequence:
#
# PCOD8275132 Si02
#       6
#    16   8   8  16  16  16
#     4   9  17  30  48  68  90 119 154 190 228 271
#     4   9  15  23  37  57  84 119 154 187 224 267
#     4   9  17  28  45  71  98 121 150 190 232 273
#     4   9  18  31  47  67  90 118 153 191 229 271
#     4   9  17  29  44  63  88 117 149 186 229 275
#     4   9  16  25  38  59  87 117 149 186 228 272
#
# _framework density 17.506433999999999
#
# number of rings (size 3 to 8) (size 9 to 14) (size 15 to 20)
#    0.000    3.000    0.000    1.200    0.000    5.200 
#    0.000    4.000    0.000    1.200    0.000    6.300 
#    0.000    0.000    0.000    0.000    0.000    0.000 
#
# Total GULP energy -495957.736890 kJ/mol
# GULP energy per Si atom -12398.943422 kJ/mol
# Density = 1.746659 g / cm^3
# Si number density = 17.506434 Si / 1000 Ang^3
#
#
#
# Elastic Constant Matrix: (Units=GPa)
#
#
# Indices 1 2 3 4 5 6 
#
# 1 73.0119 37.3229 57.4646 0.0000 0.0000 0.0000
# 2 37.3229 87.5870 72.4861 0.0000 0.0000 0.0000
# 3 57.4646 72.4861 145.7141 0.0000 0.0000 0.0000
# 4 0.0000 0.0000 0.0000 8.6190 0.0000 0.0000
# 5 0.0000 0.0000 0.0000 0.0000 22.5369 0.0000
# 6 0.0000 0.0000 0.0000 0.0000 0.0000 19.3051
#
#
#
# Elastic Compliance Matrix: (Units=1/GPa)
#
#
# Indices 1 2 3 4 5 6 
#
# 1 0.020463 -0.003470 -0.006344 0.000000 0.000000 0.000000
# 2 -0.003470 0.019995 -0.008578 0.000000 0.000000 0.000000
# 3 -0.006344 -0.008578 0.013632 0.000000 0.000000 0.000000
# 4 0.000000 0.000000 0.000000 0.116023 0.000000 0.000000
# 5 0.000000 0.000000 0.000000 0.000000 0.044372 0.000000
# 6 0.000000 0.000000 0.000000 0.000000 0.000000 0.051800
#
#
# Mechanical properties :
#
#
# Convention : Reuss Voigt Hill
#
# Bulk Modulus (GPa) = 57.78259 71.20671 64.49465
# Shear Modulus (GPa) = 16.18975 19.36148 17.77561
#
# Velocity S-wave (km/s) = 3.04433 3.32921 3.18995
# Velocity P-wave (km/s) = 6.74058 7.45259 7.10551
#
# Compressibility (1/GPa) = 0.01730625
#
# Stress axis : x y z
#
# Youngs Moduli (GPa) = 48.86845 50.01241 73.35717
#
# Poissons Ratio (x) = 0.17352 0.46538
# Poissons Ratio (y) = 0.16955 0.62928
# Poissons Ratio (z) = 0.31002 0.42902
#
# Static dielectric constant tensor:
#      x y z
#    x 3.222680 0.000000 0.000000 
#    y 0.000000 3.014400 0.000000 
#    z 0.000000 0.000000 3.478660 
# 
# 
# High freq. dielectric constant tensor:
#      x y z
#    x 1.667780 0.000000 0.000000 
#    y 0.000000 1.634020 0.000000 
#    z 0.000000 0.000000 1.690670 
# 
# From -- ./inp_files/72941.got.cif
#   From: 2010.03.12/outbox.cif.g09.slc.cpg/sg65_37_cif.got.tgz:72941.got - 2010.04.10 20:52:16.
