data_PCOD8275504
_publ_section_title
;
Structure prediction by ZEFSAII (Michael W. Deem and Ramdas Pophale) SiO2 
 PCOD8275504
Probable space group: C C C M
;
_chemical_formula_sum "Si O2"
_cell_formula_units_Z 80
_cell_length_a 9.447488
_cell_length_b 25.790746
_cell_length_c 18.153678
_cell_angle_alpha 90.000000
_cell_angle_beta 90.000000
_cell_angle_gamma 90.000000
_cell_volume 4423.284578
_symmetry_space_group_name_H-M "C C C M"
_symmetry_group_IT_number 66
_symmetry_cell_setting 'orthorhombic'
loop_
_space_group_symop_operation_xyz
x,y,z
-x,-y,z
x,-y,1/2-z
-x,y,1/2-z
-x,-y,-z
x,y,-z
-x,y,1/2+z
x,-y,1/2+z
1/2+x,1/2+y,z
1/2-x,1/2-y,z
1/2+x,1/2-y,1/2-z
1/2-x,1/2+y,1/2-z
1/2-x,1/2-y,-z
1/2+x,1/2+y,-z
1/2-x,1/2+y,1/2+z
1/2+x,1/2-y,1/2+z
loop_
_atom_site_type_symbol
_atom_site_label
_atom_site_fract_x
_atom_site_fract_y
_atom_site_fract_z
Si Si1 0.547244 0.891127 0.916106
Si Si2 0.241506 0.954709 0.339213
Si Si3 0.781665 0.574495 0.324057
Si Si4 0.004982 0.122313 0.833860
Si Si5 0.774452 0.807710 0.913644
O O1 0.661637 0.936851 0.907237
O O2 0.420382 0.902111 0.860638
O O3 0.629992 0.838387 0.894593
O O4 0.491886 0.889904 0.000000
O O5 0.303156 0.928219 0.264175
O O6 0.082596 0.933044 0.346213
O O7 0.242283 0.016024 0.345289
O O8 0.658122 0.612083 0.355170
O O9 0.083974 0.167430 0.878739
O O10 0.000000 0.140481 0.750000
O O11 0.750000 0.750000 0.882619
O O12 0.803554 0.807408 0.000000
#
# Coordination Sequence:
#
# PCOD8275504 Si02
#       5
#    16  16  16  16  16
#     4  10  20  32  48  72  99 128 166 208 245 288
#     4   9  18  32  49  70 102 141 164 183 238 308
#     4  10  18  30  50  75 102 130 163 202 240 287
#     4   9  18  33  52  76 100 126 165 209 245 287
#     4   9  19  38  57  69  93 136 173 202 254 319
#
# _framework density 18.086107999999999
#
# number of rings (size 3 to 8) (size 9 to 14) (size 15 to 20)
#    0.000    2.600    0.000    1.800    0.000    6.400 
#    0.000    7.000    0.000    9.600    0.000    0.000 
#    0.000    0.000    0.000    0.000    0.000    0.000 
#
# Total GULP energy -495639.696663 kJ/mol
# GULP energy per Si atom -12390.992417 kJ/mol
# Density = 1.804494 g / cm^3
# Si number density = 18.086108 Si / 1000 Ang^3
#
#
#
# Elastic Constant Matrix: (Units=GPa)
#
#
# Indices 1 2 3 4 5 6 
#
# 1 98.9010 44.4325 40.6378 0.0000 0.0000 0.0000
# 2 44.4325 115.3426 35.4032 0.0000 0.0000 0.0000
# 3 40.6378 35.4032 43.5972 0.0000 0.0000 0.0000
# 4 0.0000 0.0000 0.0000 21.5709 0.0000 0.0000
# 5 0.0000 0.0000 0.0000 0.0000 26.8554 0.0000
# 6 0.0000 0.0000 0.0000 0.0000 0.0000 11.1874
#
#
#
# Elastic Compliance Matrix: (Units=1/GPa)
#
#
# Indices 1 2 3 4 5 6 
#
# 1 0.016803 -0.002218 -0.013861 0.000000 0.000000 0.000000
# 2 -0.002218 0.011841 -0.007548 0.000000 0.000000 0.000000
# 3 -0.013861 -0.007548 0.041987 0.000000 0.000000 0.000000
# 4 0.000000 0.000000 0.000000 0.046359 0.000000 0.000000
# 5 0.000000 0.000000 0.000000 0.000000 0.037236 0.000000
# 6 0.000000 0.000000 0.000000 0.000000 0.000000 0.089386
#
#
# Mechanical properties :
#
#
# Convention : Reuss Voigt Hill
#
# Bulk Modulus (GPa) = 42.77824 55.42088 49.09956
# Shear Modulus (GPa) = 16.74146 21.08054 18.91100
#
# Velocity S-wave (km/s) = 3.04576 3.41774 3.23710
# Velocity P-wave (km/s) = 6.00606 6.80323 6.41703
#
# Compressibility (1/GPa) = 0.02337637
#
# Stress axis : x y z
#
# Youngs Moduli (GPa) = 59.51232 84.45147 23.81705
#
# Poissons Ratio (x) = 0.18735 0.33013
# Poissons Ratio (y) = 0.13202 0.17977
# Poissons Ratio (z) = 0.82491 0.63742
#
# Static dielectric constant tensor:
#      x y z
#    x 3.375200 0.000000 0.000000 
#    y 0.000000 3.295010 0.000000 
#    z 0.000000 0.000000 3.362040 
# 
# 
# High freq. dielectric constant tensor:
#      x y z
#    x 1.705090 0.000000 0.000000 
#    y 0.000000 1.685950 0.000000 
#    z 0.000000 0.000000 1.690350 
# 
# From -- ./inp_files/36933.got.cif
#   From: 2010.03.12/outbox.cif.g09.slc.cpg/sg66_19_cif.got.tgz:36933.got - 2010.04.10 21:57:39.
