data_PCOD8275973
_publ_section_title
;
Structure prediction by ZEFSAII (Michael W. Deem and Ramdas Pophale) SiO2 
 PCOD8275973
Probable space group: C C C M
;
_chemical_formula_sum "Si O2"
_cell_formula_units_Z 116
_cell_length_a 26.583966
_cell_length_b 26.304782
_cell_length_c 8.878374
_cell_angle_alpha 90.000000
_cell_angle_beta 90.000000
_cell_angle_gamma 90.000000
_cell_volume 6208.517583
_symmetry_space_group_name_H-M "C C C M"
_symmetry_group_IT_number 66
_symmetry_cell_setting 'orthorhombic'
loop_
_space_group_symop_operation_xyz
x,y,z
-x,-y,z
x,-y,1/2-z
-x,y,1/2-z
-x,-y,-z
x,y,-z
-x,y,1/2+z
x,-y,1/2+z
1/2+x,1/2+y,z
1/2-x,1/2-y,z
1/2+x,1/2-y,1/2-z
1/2-x,1/2+y,1/2-z
1/2-x,1/2-y,-z
1/2+x,1/2+y,-z
1/2-x,1/2+y,1/2+z
1/2+x,1/2-y,1/2+z
loop_
_atom_site_type_symbol
_atom_site_label
_atom_site_fract_x
_atom_site_fract_y
_atom_site_fract_z
Si Si1 0.413894 0.321103 0.825075
Si Si2 0.000000 0.000000 0.250000
Si Si3 0.349205 0.822511 0.174245
Si Si4 0.051305 0.290207 0.823442
Si Si5 0.815228 0.791535 0.326826
Si Si6 0.924258 0.917500 0.333564
Si Si7 0.686790 0.447376 0.821381
Si Si8 0.243696 0.362054 0.178099
O O1 0.444229 0.269907 0.787109
O O2 0.363240 0.323519 0.727369
O O3 0.444341 0.371803 0.775148
O O4 0.399997 0.323214 0.000000
O O5 0.036037 0.963495 0.153452
O O6 0.403866 0.822579 0.250376
O O7 0.324459 0.767590 0.195372
O O8 0.313592 0.862942 0.259588
O O9 0.354694 0.837543 0.000000
O O10 0.000000 0.310132 0.750000
O O11 0.050880 0.300745 0.000000
O O12 0.803712 0.805304 0.500000
O O13 0.767890 0.807921 0.225516
O O14 0.917742 0.894602 0.500000
O O15 0.870742 0.937218 0.270862
O O16 0.704739 0.500000 0.750000
O O17 0.724031 0.405313 0.757174
O O18 0.691908 0.449812 0.000000
O O19 0.243415 0.369269 0.000000
#
# Coordination Sequence:
#
# PCOD8275973 Si02
#       8
#    16   4  16  16  16  16  16  16
#     4  10  21  35  54  77 103 136 180 228 276 335
#     4  12  26  44  56  78  98 132 188 250 300 344
#     4  10  21  36  55  80 112 147 184 227 273 329
#     4  10  21  37  55  80 111 148 186 225 270 324
#     4  10  19  33  53  78 108 143 180 221 274 333
#     4  11  24  40  58  75  99 134 178 235 295 346
#     4  11  23  41  61  81 106 140 183 231 288 348
#     4  12  23  35  55  82 111 144 181 225 279 338
#
# _framework density 18.684010000000001
#
# number of rings (size 3 to 8) (size 9 to 14) (size 15 to 20)
#    0.000    1.379    2.069    3.931    0.966    6.621 
#    0.000    0.000    0.000    0.000    0.000    0.000 
#    0.000    0.552    0.000    5.517    0.000    3.310 
#
# Total GULP energy -719238.860409 kJ/mol
# GULP energy per Si atom -12400.670007 kJ/mol
# Density = 1.864148 g / cm^3
# Si number density = 18.684010 Si / 1000 Ang^3
#
#
#
# Elastic Constant Matrix: (Units=GPa)
#
#
# Indices 1 2 3 4 5 6 
#
# 1 134.3420 42.8015 55.6433 0.0000 0.0000 0.0000
# 2 42.8015 45.7384 24.2825 0.0000 0.0000 0.0000
# 3 55.6433 24.2825 102.8909 0.0000 0.0000 0.0000
# 4 0.0000 0.0000 0.0000 24.9559 0.0000 0.0000
# 5 0.0000 0.0000 0.0000 0.0000 27.2523 0.0000
# 6 0.0000 0.0000 0.0000 0.0000 0.0000 24.3737
#
#
#
# Elastic Compliance Matrix: (Units=1/GPa)
#
#
# Indices 1 2 3 4 5 6 
#
# 1 0.012158 -0.009017 -0.004447 0.000000 0.000000 0.000000
# 2 -0.009017 0.031682 -0.002601 0.000000 0.000000 0.000000
# 3 -0.004447 -0.002601 0.012738 0.000000 0.000000 0.000000
# 4 0.000000 0.000000 0.000000 0.040071 0.000000 0.000000
# 5 0.000000 0.000000 0.000000 0.000000 0.036694 0.000000
# 6 0.000000 0.000000 0.000000 0.000000 0.000000 0.041028
#
#
# Mechanical properties :
#
#
# Convention : Reuss Voigt Hill
#
# Bulk Modulus (GPa) = 40.90190 58.71397 49.80794
# Shear Modulus (GPa) = 23.29369 25.99929 24.64649
#
# Velocity S-wave (km/s) = 3.53472 3.73436 3.63591
# Velocity P-wave (km/s) = 6.21272 7.07721 6.65901
#
# Compressibility (1/GPa) = 0.02444874
#
# Stress axis : x y z
#
# Youngs Moduli (GPa) = 82.24723 31.56369 78.50567
#
# Poissons Ratio (x) = 0.28460 0.34914
# Poissons Ratio (y) = 0.74160 0.20418
# Poissons Ratio (z) = 0.36578 0.08209
#
# Static dielectric constant tensor:
#      x y z
#    x 3.481780 0.000000 0.000000 
#    y 0.000000 3.199950 0.000000 
#    z 0.000000 0.000000 3.450950 
# 
# 
# High freq. dielectric constant tensor:
#      x y z
#    x 1.721710 0.000000 0.000000 
#    y 0.000000 1.687200 0.000000 
#    z 0.000000 0.000000 1.738260 
# 
# From -- ./inp_files/9454.got.cif
#   From: 2010.03.12/outbox.cif.g09.slc.cpg/sg66_5_cif.got.tgz:9454.got - 2010.04.10 21:57:39.
