data_PCOD8275334
_publ_section_title
;
Structure prediction by ZEFSAII (Michael W. Deem and Ramdas Pophale) SiO2 
 PCOD8275334
Probable space group: C C C M
;
_chemical_formula_sum "Si O2"
_cell_formula_units_Z 96
_cell_length_a 19.630619
_cell_length_b 29.919982
_cell_length_c 8.826271
_cell_angle_alpha 90.000000
_cell_angle_beta 90.000000
_cell_angle_gamma 90.000000
_cell_volume 5184.090564
_symmetry_space_group_name_H-M "C C C M"
_symmetry_group_IT_number 66
_symmetry_cell_setting 'orthorhombic'
loop_
_space_group_symop_operation_xyz
x,y,z
-x,-y,z
x,-y,1/2-z
-x,y,1/2-z
-x,-y,-z
x,y,-z
-x,y,1/2+z
x,-y,1/2+z
1/2+x,1/2+y,z
1/2-x,1/2-y,z
1/2+x,1/2-y,1/2-z
1/2-x,1/2+y,1/2-z
1/2-x,1/2-y,-z
1/2+x,1/2+y,-z
1/2-x,1/2+y,1/2+z
1/2+x,1/2-y,1/2+z
loop_
_atom_site_type_symbol
_atom_site_label
_atom_site_fract_x
_atom_site_fract_y
_atom_site_fract_z
Si Si1 0.069366 0.840961 0.678459
Si Si2 0.067095 0.549445 0.680713
Si Si3 0.431629 0.760704 0.677301
Si Si4 0.202435 0.871748 0.826208
Si Si5 0.798019 0.452614 0.175992
Si Si6 0.712287 0.795571 0.177108
O O1 0.063754 0.844352 0.500000
O O2 0.080977 0.789979 0.734286
O O3 0.132906 0.870296 0.732175
O O4 0.000000 0.860323 0.750000
O O5 0.068992 0.500000 0.750000
O O6 0.063243 0.549404 0.500000
O O7 0.137545 0.571294 0.739299
O O8 0.000000 0.574097 0.750000
O O9 0.500000 0.781226 0.750000
O O10 0.442561 0.760266 0.500000
O O11 0.367184 0.791032 0.721761
O O12 0.233178 0.920904 0.803054
O O13 0.257299 0.835751 0.772014
O O14 0.185418 0.861990 0.000000
O O15 0.779175 0.500000 0.250000
O O16 0.816613 0.459711 0.000000
O O17 0.750000 0.750000 0.220894
O O18 0.722437 0.805802 0.000000
#
# Coordination Sequence:
#
# PCOD8275334 Si02
#       6
#    16  16  16  16  16  16
#     4  10  19  34  55  80 110 142 180 222 264 317
#     4  10  17  28  49  75 102 133 172 216 266 317
#     4   9  18  32  51  75 105 143 182 221 262 311
#     4  11  23  36  54  83 112 141 179 225 273 325
#     4  10  21  37  55  78 108 140 183 230 275 327
#     4  10  19  35  54  76 108 145 182 219 264 318
#
# _framework density 18.518196
#
# number of rings (size 3 to 8) (size 9 to 14) (size 15 to 20)
#    0.000    2.000    1.667    4.500    0.000    4.333 
#    0.000    0.833    0.000    2.500    0.000    3.500 
#    0.000    0.000    0.000    0.000    0.000    0.000 
#
# Total GULP energy -595169.583740 kJ/mol
# GULP energy per Si atom -12399.366328 kJ/mol
# Density = 1.847605 g / cm^3
# Si number density = 18.518196 Si / 1000 Ang^3
#
#
#
# Elastic Constant Matrix: (Units=GPa)
#
#
# Indices 1 2 3 4 5 6 
#
# 1 151.1530 40.8315 61.5281 0.0000 0.0000 0.0000
# 2 40.8315 53.9565 32.9352 0.0000 0.0000 0.0000
# 3 61.5281 32.9352 110.0964 0.0000 0.0000 0.0000
# 4 0.0000 0.0000 0.0000 17.7405 0.0000 0.0000
# 5 0.0000 0.0000 0.0000 0.0000 38.5496 0.0000
# 6 0.0000 0.0000 0.0000 0.0000 0.0000 18.8140
#
#
#
# Elastic Compliance Matrix: (Units=1/GPa)
#
#
# Indices 1 2 3 4 5 6 
#
# 1 0.009491 -0.004826 -0.003860 0.000000 0.000000 0.000000
# 2 -0.004826 0.025127 -0.004820 0.000000 0.000000 0.000000
# 3 -0.003860 -0.004820 0.012682 0.000000 0.000000 0.000000
# 4 0.000000 0.000000 0.000000 0.056368 0.000000 0.000000
# 5 0.000000 0.000000 0.000000 0.000000 0.025941 0.000000
# 6 0.000000 0.000000 0.000000 0.000000 0.000000 0.053152
#
#
# Mechanical properties :
#
#
# Convention : Reuss Voigt Hill
#
# Bulk Modulus (GPa) = 49.28942 65.08838 57.18890
# Shear Modulus (GPa) = 23.09081 27.01488 25.05285
#
# Velocity S-wave (km/s) = 3.53501 3.82361 3.68214
# Velocity P-wave (km/s) = 6.58303 7.39716 7.00194
#
# Compressibility (1/GPa) = 0.02028833
#
# Stress axis : x y z
#
# Youngs Moduli (GPa) = 105.36502 39.79709 78.85053
#
# Poissons Ratio (x) = 0.19205 0.30439
# Poissons Ratio (y) = 0.50847 0.38005
# Poissons Ratio (z) = 0.40675 0.19182
#
# Static dielectric constant tensor:
#      x y z
#    x 3.873430 0.000000 0.000000 
#    y 0.000000 3.068220 0.000000 
#    z 0.000000 0.000000 3.439740 
# 
# 
# High freq. dielectric constant tensor:
#      x y z
#    x 1.734060 0.000000 0.000000 
#    y 0.000000 1.673530 0.000000 
#    z 0.000000 0.000000 1.728070 
# 
# From -- ./inp_files/8032.got.cif
#   From: 2010.03.12/outbox.cif.g09.slc.cpg/sg66_5_cif.got.tgz:8032.got - 2010.04.10 21:57:39.
