data_PCOD8275723
_publ_section_title
;
Structure prediction by ZEFSAII (Michael W. Deem and Ramdas Pophale) SiO2 
 PCOD8275723
Probable space group: C C C M
;
_chemical_formula_sum "Si O2"
_cell_formula_units_Z 68
_cell_length_a 27.936639
_cell_length_b 17.831169
_cell_length_c 9.082679
_cell_angle_alpha 90.000000
_cell_angle_beta 90.000000
_cell_angle_gamma 90.000000
_cell_volume 4524.472341
_symmetry_space_group_name_H-M "C C C M"
_symmetry_group_IT_number 66
_symmetry_cell_setting 'orthorhombic'
loop_
_space_group_symop_operation_xyz
x,y,z
-x,-y,z
x,-y,1/2-z
-x,y,1/2-z
-x,-y,-z
x,y,-z
-x,y,1/2+z
x,-y,1/2+z
1/2+x,1/2+y,z
1/2-x,1/2-y,z
1/2+x,1/2-y,1/2-z
1/2-x,1/2+y,1/2-z
1/2-x,1/2-y,-z
1/2+x,1/2+y,-z
1/2-x,1/2+y,1/2+z
1/2+x,1/2-y,1/2+z
loop_
_atom_site_type_symbol
_atom_site_label
_atom_site_fract_x
_atom_site_fract_y
_atom_site_fract_z
Si Si1 0.851203 0.316345 0.168990
Si Si2 0.500000 0.000000 0.750000
Si Si3 0.259948 0.922358 0.830539
Si Si4 0.204151 0.196993 0.833157
Si Si5 0.908179 0.569988 0.835857
O O1 0.807428 0.373322 0.184317
O O2 0.839240 0.238169 0.248971
O O3 0.897087 0.353472 0.248642
O O4 0.863977 0.299770 0.000000
O O5 0.465558 0.054673 0.845904
O O6 0.215876 0.879757 0.752222
O O7 0.269340 0.000000 0.750000
O O8 0.246355 0.936123 0.000000
O O9 0.250000 0.250000 0.831851
O O10 0.188442 0.178588 0.000000
O O11 0.883407 0.500000 0.750000
O O12 0.886602 0.574903 0.000000
#
# Coordination Sequence:
#
# PCOD8275723 Si02
#       5
#    16   4  16  16  16
#     4  10  19  29  43  61  82 108 141 178 213 254
#     4   8  22  32  46  60  86 112 144 180 222 256
#     4  10  19  29  41  59  82 109 141 177 215 253
#     4   9  17  29  43  58  79 106 137 174 215 253
#     4  10  19  30  44  60  81 108 141 176 213 253
#
# _framework density 15.029377
#
# number of rings (size 3 to 8) (size 9 to 14) (size 15 to 20)
#    0.706    1.647    0.000    3.882    0.000    7.529 
#    0.000    0.000    0.000    0.000    0.000    0.000 
#    0.000    0.000    0.000    1.059    0.000   15.765 
#
# Total GULP energy -421422.027167 kJ/mol
# GULP energy per Si atom -12394.765505 kJ/mol
# Density = 1.499517 g / cm^3
# Si number density = 15.029377 Si / 1000 Ang^3
#
#
#
# Elastic Constant Matrix: (Units=GPa)
#
#
# Indices 1 2 3 4 5 6 
#
# 1 42.8461 13.9717 23.5295 0.0000 0.0000 0.0000
# 2 13.9717 35.7323 30.0461 0.0000 0.0000 0.0000
# 3 23.5295 30.0461 140.3583 0.0000 0.0000 0.0000
# 4 0.0000 0.0000 0.0000 28.6548 0.0000 0.0000
# 5 0.0000 0.0000 0.0000 0.0000 16.4897 0.0000
# 6 0.0000 0.0000 0.0000 0.0000 0.0000 28.4273
#
#
#
# Elastic Compliance Matrix: (Units=1/GPa)
#
#
# Indices 1 2 3 4 5 6 
#
# 1 0.027642 -0.008429 -0.002829 0.000000 0.000000 0.000000
# 2 -0.008429 0.036699 -0.006443 0.000000 0.000000 0.000000
# 3 -0.002829 -0.006443 0.008978 0.000000 0.000000 0.000000
# 4 0.000000 0.000000 0.000000 0.034898 0.000000 0.000000
# 5 0.000000 0.000000 0.000000 0.000000 0.060644 0.000000
# 6 0.000000 0.000000 0.000000 0.000000 0.000000 0.035177
#
#
# Mechanical properties :
#
#
# Convention : Reuss Voigt Hill
#
# Bulk Modulus (GPa) = 26.37386 39.33680 32.85533
# Shear Modulus (GPa) = 19.83489 24.80699 22.32094
#
# Velocity S-wave (km/s) = 3.63677 4.06712 3.85795
# Velocity P-wave (km/s) = 5.93473 6.94877 6.46168
#
# Compressibility (1/GPa) = 0.03791633
#
# Stress axis : x y z
#
# Youngs Moduli (GPa) = 36.17708 27.24834 111.38071
#
# Poissons Ratio (x) = 0.22968 0.31515
# Poissons Ratio (y) = 0.30494 0.71764
# Poissons Ratio (z) = 0.10236 0.17556
#
# Static dielectric constant tensor:
#      x y z
#    x 2.539310 0.000000 0.000000 
#    y 0.000000 2.799010 0.000000 
#    z 0.000000 0.000000 3.067560 
# 
# 
# High freq. dielectric constant tensor:
#      x y z
#    x 1.524330 0.000000 0.000000 
#    y 0.000000 1.552390 0.000000 
#    z 0.000000 0.000000 1.598330 
# 
# From -- ./inp_files/6822.got.cif
#   From: 2010.03.12/outbox.cif.g09.slc.cpg/sg66_4_cif.got.tgz:6822.got - 2010.04.10 21:57:39.
