data_PCOD8275780
_publ_section_title
;
Structure prediction by ZEFSAII (Michael W. Deem and Ramdas Pophale) SiO2 
 PCOD8275780
Probable space group: C C C M
;
_chemical_formula_sum "Si O2"
_cell_formula_units_Z 112
_cell_length_a 15.443400
_cell_length_b 16.652469
_cell_length_c 23.915583
_cell_angle_alpha 90.000000
_cell_angle_beta 90.000000
_cell_angle_gamma 90.000000
_cell_volume 6150.388172
_symmetry_space_group_name_H-M "C C C M"
_symmetry_group_IT_number 66
_symmetry_cell_setting 'orthorhombic'
loop_
_space_group_symop_operation_xyz
x,y,z
-x,-y,z
x,-y,1/2-z
-x,y,1/2-z
-x,-y,-z
x,y,-z
-x,y,1/2+z
x,-y,1/2+z
1/2+x,1/2+y,z
1/2-x,1/2-y,z
1/2+x,1/2-y,1/2-z
1/2-x,1/2+y,1/2-z
1/2-x,1/2-y,-z
1/2+x,1/2+y,-z
1/2-x,1/2+y,1/2+z
1/2+x,1/2-y,1/2+z
loop_
_atom_site_type_symbol
_atom_site_label
_atom_site_fract_x
_atom_site_fract_y
_atom_site_fract_z
Si Si1 0.355898 0.492617 0.564420
Si Si2 0.314130 0.821451 0.697943
Si Si3 0.528480 0.791961 0.122152
Si Si4 0.433229 0.937373 0.437450
Si Si5 0.510916 0.370832 0.436722
Si Si6 0.295230 0.017070 0.854015
Si Si7 0.422462 0.892744 0.209435
O O1 0.319200 0.489742 0.500000
O O2 0.401908 0.578378 0.575117
O O3 0.426298 0.423753 0.572087
O O4 0.285746 0.475663 0.613950
O O5 0.250000 0.750000 0.709881
O O6 0.376997 0.791472 0.649110
O O7 0.266738 0.906835 0.684075
O O8 0.365519 0.832271 0.754989
O O9 0.530919 0.846616 0.066148
O O10 0.502177 0.702125 0.106568
O O11 0.460079 0.835700 0.161849
O O12 0.414844 0.964079 0.500000
O O13 0.344984 0.942375 0.404721
O O14 0.500000 0.000000 0.409102
O O15 0.514528 0.338108 0.500000
O O16 0.358911 0.960591 0.817182
O O17 0.500000 0.928455 0.250000
#
# Coordination Sequence:
#
# PCOD8275780 Si02
#       7
#    16  16  16  16  16  16  16
#     4   9  19  35  55  81 110 142 180 221 260 313
#     4  10  22  35  52  76 101 130 177 231 269 307
#     4  10  19  34  55  76 103 139 178 212 266 324
#     4  10  19  30  48  77 109 134 164 204 251 311
#     4   9  18  35  57  79 109 145 179 216 265 317
#     4  11  20  34  57  77 104 142 179 213 268 323
#     4  10  22  37  54  75 104 141 178 223 273 328
#
# _framework density 18.210232999999999
#
# number of rings (size 3 to 8) (size 9 to 14) (size 15 to 20)
#    0.000    2.143    1.429    3.000    0.000    4.000 
#    0.000    0.000    0.000    8.571    0.000    9.000 
#    0.000    0.000    0.000    0.000    0.000    0.000 
#
# Total GULP energy -693750.315525 kJ/mol
# GULP energy per Si atom -12388.398492 kJ/mol
# Density = 1.816879 g / cm^3
# Si number density = 18.210233 Si / 1000 Ang^3
#
#
#
# Elastic Constant Matrix: (Units=GPa)
#
#
# Indices 1 2 3 4 5 6 
#
# 1 89.1954 43.1533 44.6425 0.0000 0.0000 0.0000
# 2 43.1533 119.6521 41.9138 0.0000 0.0000 0.0000
# 3 44.6425 41.9138 76.5972 0.0000 0.0000 0.0000
# 4 0.0000 0.0000 0.0000 13.6657 0.0000 0.0000
# 5 0.0000 0.0000 0.0000 0.0000 25.5755 0.0000
# 6 0.0000 0.0000 0.0000 0.0000 0.0000 23.8027
#
#
#
# Elastic Compliance Matrix: (Units=1/GPa)
#
#
# Indices 1 2 3 4 5 6 
#
# 1 0.016792 -0.003251 -0.008008 0.000000 0.000000 0.000000
# 2 -0.003251 0.010969 -0.004107 0.000000 0.000000 0.000000
# 3 -0.008008 -0.004107 0.019970 0.000000 0.000000 0.000000
# 4 0.000000 0.000000 0.000000 0.073176 0.000000 0.000000
# 5 0.000000 0.000000 0.000000 0.000000 0.039100 0.000000
# 6 0.000000 0.000000 0.000000 0.000000 0.000000 0.042012
#
#
# Mechanical properties :
#
#
# Convention : Reuss Voigt Hill
#
# Bulk Modulus (GPa) = 58.82877 60.54042 59.68459
# Shear Modulus (GPa) = 20.97158 22.99111 21.98135
#
# Velocity S-wave (km/s) = 3.39726 3.55708 3.47809
# Velocity P-wave (km/s) = 6.91115 7.08434 6.99828
#
# Compressibility (1/GPa) = 0.01699849
#
# Stress axis : x y z
#
# Youngs Moduli (GPa) = 59.55147 91.16705 50.07514
#
# Poissons Ratio (x) = 0.29639 0.40100
# Poissons Ratio (y) = 0.19361 0.20568
# Poissons Ratio (z) = 0.47688 0.37445
#
# Static dielectric constant tensor:
#      x y z
#    x 3.306760 0.000000 0.000000 
#    y 0.000000 3.306740 0.000000 
#    z 0.000000 0.000000 3.459110 
# 
# 
# High freq. dielectric constant tensor:
#      x y z
#    x 1.693000 0.000000 0.000000 
#    y 0.000000 1.703680 0.000000 
#    z 0.000000 0.000000 1.710890 
# 
# From -- ./inp_files/64643.got.cif
#   From: 2010.03.12/outbox.cif.g09.slc.cpg/sg66_33_cif.got.tgz:64643.got - 2010.04.10 21:57:39.
