data_PCOD8275726
_publ_section_title
;
Structure prediction by ZEFSAII (Michael W. Deem and Ramdas Pophale) SiO2 
 PCOD8275726
Probable space group: C C C M
;
_chemical_formula_sum "Si O2"
_cell_formula_units_Z 96
_cell_length_a 29.153176
_cell_length_b 25.463266
_cell_length_c 9.122459
_cell_angle_alpha 90.000000
_cell_angle_beta 90.000000
_cell_angle_gamma 90.000000
_cell_volume 6771.921288
_symmetry_space_group_name_H-M "C C C M"
_symmetry_group_IT_number 66
_symmetry_cell_setting 'orthorhombic'
loop_
_space_group_symop_operation_xyz
x,y,z
-x,-y,z
x,-y,1/2-z
-x,y,1/2-z
-x,-y,-z
x,y,-z
-x,y,1/2+z
x,-y,1/2+z
1/2+x,1/2+y,z
1/2-x,1/2-y,z
1/2+x,1/2-y,1/2-z
1/2-x,1/2+y,1/2-z
1/2-x,1/2-y,-z
1/2+x,1/2+y,-z
1/2-x,1/2+y,1/2+z
1/2+x,1/2-y,1/2+z
loop_
_atom_site_type_symbol
_atom_site_label
_atom_site_fract_x
_atom_site_fract_y
_atom_site_fract_z
Si Si1 0.453694 0.398771 0.826597
Si Si2 0.544232 0.723243 0.168664
Si Si3 0.143428 0.755317 0.327342
Si Si4 0.133480 0.052496 0.671323
Si Si5 0.806326 0.152110 0.831638
Si Si6 0.226602 0.306713 0.837280
O O1 0.500000 0.419510 0.750000
O O2 0.447466 0.337399 0.791264
O O3 0.412258 0.429469 0.753039
O O4 0.455212 0.410035 0.000000
O O5 0.500000 0.746849 0.250000
O O6 0.590264 0.754942 0.214670
O O7 0.533164 0.730322 0.000000
O O8 0.148373 0.766838 0.500000
O O9 0.160222 0.807660 0.248352
O O10 0.174003 0.704090 0.284042
O O11 0.122688 0.043236 0.500000
O O12 0.174369 0.094010 0.691543
O O13 0.151270 0.000000 0.750000
O O14 0.754290 0.154258 0.768794
O O15 0.804372 0.168517 0.000000
O O16 0.250000 0.250000 0.837743
O O17 0.227116 0.331361 0.000000
#
# Coordination Sequence:
#
# PCOD8275726 Si02
#       6
#    16  16  16  16  16  16
#     4  10  19  32  48  61  76  99 128 167 209 247
#     4   9  17  27  41  59  80 105 132 161 195 232
#     4   9  16  28  43  60  80 105 131 155 188 233
#     4  11  23  35  46  60  76  99 131 167 207 250
#     4  10  19  29  42  60  80  97 122 162 202 237
#     4   8  15  26  42  60  79 102 127 151 185 233
#
# _framework density 14.176183
#
# number of rings (size 3 to 8) (size 9 to 14) (size 15 to 20)
#    0.000    2.500    1.667    2.500    0.000    6.667 
#    0.000    1.667    0.000    0.000    0.000    0.000 
#    0.000    0.000    0.000    0.000    0.000    0.833 
#
# Total GULP energy -594983.423345 kJ/mol
# GULP energy per Si atom -12395.487986 kJ/mol
# Density = 1.414392 g / cm^3
# Si number density = 14.176183 Si / 1000 Ang^3
#
#
#
# Elastic Constant Matrix: (Units=GPa)
#
#
# Indices 1 2 3 4 5 6 
#
# 1 122.9140 44.1106 52.8758 0.0000 0.0000 0.0000
# 2 44.1106 33.8994 31.0653 0.0000 0.0000 0.0000
# 3 52.8758 31.0653 75.1445 0.0000 0.0000 0.0000
# 4 0.0000 0.0000 0.0000 16.6028 0.0000 0.0000
# 5 0.0000 0.0000 0.0000 0.0000 25.7818 0.0000
# 6 0.0000 0.0000 0.0000 0.0000 0.0000 17.1811
#
#
#
# Elastic Compliance Matrix: (Units=1/GPa)
#
#
# Indices 1 2 3 4 5 6 
#
# 1 0.016079 -0.016991 -0.004290 0.000000 0.000000 0.000000
# 2 -0.016991 0.065446 -0.015100 0.000000 0.000000 0.000000
# 3 -0.004290 -0.015100 0.022569 0.000000 0.000000 0.000000
# 4 0.000000 0.000000 0.000000 0.060231 0.000000 0.000000
# 5 0.000000 0.000000 0.000000 0.000000 0.038787 0.000000
# 6 0.000000 0.000000 0.000000 0.000000 0.000000 0.058204
#
#
# Mechanical properties :
#
#
# Convention : Reuss Voigt Hill
#
# Bulk Modulus (GPa) = 31.91650 54.22903 43.07277
# Shear Modulus (GPa) = 14.51296 18.84021 16.67659
#
# Velocity S-wave (km/s) = 3.20309 3.64951 3.43356
# Velocity P-wave (km/s) = 6.02020 7.48967 6.79478
#
# Compressibility (1/GPa) = 0.03133176
#
# Stress axis : x y z
#
# Youngs Moduli (GPa) = 62.19399 15.27985 44.30936
#
# Poissons Ratio (x) = 0.25962 0.19007
# Poissons Ratio (y) = 1.05673 0.66907
# Poissons Ratio (z) = 0.26679 0.23073
#
# Static dielectric constant tensor:
#      x y z
#    x 3.166850 0.000000 0.000000 
#    y 0.000000 2.505200 0.000000 
#    z 0.000000 0.000000 2.905420 
# 
# 
# High freq. dielectric constant tensor:
#      x y z
#    x 1.544670 0.000000 0.000000 
#    y 0.000000 1.481710 0.000000 
#    z 0.000000 0.000000 1.553270 
# 
# From -- ./inp_files/10646.got.cif
#   From: 2010.03.12/outbox.cif.g09.slc.cpg/sg66_6_cif.got.tgz:10646.got - 2010.04.10 21:57:39.
