data_PCOD8275340
_publ_section_title
;
Structure prediction by ZEFSAII (Michael W. Deem and Ramdas Pophale) SiO2 
 PCOD8275340
Probable space group: C C C M
;
_chemical_formula_sum "Si O2"
_cell_formula_units_Z 88
_cell_length_a 21.655593
_cell_length_b 21.003748
_cell_length_c 13.355816
_cell_angle_alpha 90.000000
_cell_angle_beta 90.000000
_cell_angle_gamma 90.000000
_cell_volume 6074.874452
_symmetry_space_group_name_H-M "C C C M"
_symmetry_group_IT_number 66
_symmetry_cell_setting 'orthorhombic'
loop_
_space_group_symop_operation_xyz
x,y,z
-x,-y,z
x,-y,1/2-z
-x,y,1/2-z
-x,-y,-z
x,y,-z
-x,y,1/2+z
x,-y,1/2+z
1/2+x,1/2+y,z
1/2-x,1/2-y,z
1/2+x,1/2-y,1/2-z
1/2-x,1/2+y,1/2-z
1/2-x,1/2-y,-z
1/2+x,1/2+y,-z
1/2-x,1/2+y,1/2+z
1/2+x,1/2-y,1/2+z
loop_
_atom_site_type_symbol
_atom_site_label
_atom_site_fract_x
_atom_site_fract_y
_atom_site_fract_z
Si Si1 0.451167 0.448565 0.613678
Si Si2 0.890922 0.801811 0.119700
Si Si3 0.787129 0.897096 0.802012
Si Si4 0.301032 0.803690 0.609632
Si Si5 0.811712 0.030295 0.888024
Si Si6 0.500000 0.655474 0.750000
O O1 0.500000 0.500000 0.652997
O O2 0.466266 0.428468 0.500000
O O3 0.384728 0.480928 0.623460
O O4 0.454653 0.386229 0.681469
O O5 0.845853 0.858090 0.157224
O O6 0.862973 0.732123 0.146901
O O7 0.956330 0.803194 0.177095
O O8 0.899890 0.809624 0.000000
O O9 0.722967 0.858536 0.815969
O O10 0.791674 0.911931 0.684004
O O11 0.780478 0.963401 0.861189
O O12 0.311831 0.834536 0.500000
O O13 0.250000 0.750000 0.599165
O O14 0.793211 0.050825 0.000000
#
# Coordination Sequence:
#
# PCOD8275340 Si02
#       6
#    16  16  16  16  16   8
#     4  10  20  29  37  53  84 120 149 173 200 246
#     4  10  19  30  45  63  82 111 151 189 218 250
#     4  10  17  29  45  62  84 116 146 183 221 251
#     4   8  15  28  46  63  78 102 145 192 224 249
#     4  10  19  28  40  62  89 115 144 174 213 263
#     4  12  19  28  42  60  84 115 144 178 216 250
#
# _framework density 14.485896
#
# number of rings (size 3 to 8) (size 9 to 14) (size 15 to 20)
#    0.000    2.182    1.818    4.636    2.545    1.455 
#    0.000    0.000    0.000    7.091    0.000    0.000 
#    0.000    2.909    0.000   18.000    0.000    0.000 
#
# Total GULP energy -545381.521435 kJ/mol
# GULP energy per Si atom -12395.034578 kJ/mol
# Density = 1.445293 g / cm^3
# Si number density = 14.485896 Si / 1000 Ang^3
#
#
#
# Elastic Constant Matrix: (Units=GPa)
#
#
# Indices 1 2 3 4 5 6 
#
# 1 53.5629 43.0289 40.7283 0.0000 0.0000 0.0000
# 2 43.0289 68.6668 49.2825 0.0000 0.0000 0.0000
# 3 40.7283 49.2825 113.3714 0.0000 0.0000 0.0000
# 4 0.0000 0.0000 0.0000 20.0119 0.0000 0.0000
# 5 0.0000 0.0000 0.0000 0.0000 14.7979 0.0000
# 6 0.0000 0.0000 0.0000 0.0000 0.0000 27.2332
#
#
#
# Elastic Compliance Matrix: (Units=1/GPa)
#
#
# Indices 1 2 3 4 5 6 
#
# 1 0.039437 -0.021140 -0.004978 0.000000 0.000000 0.000000
# 2 -0.021140 0.032499 -0.006533 0.000000 0.000000 0.000000
# 3 -0.004978 -0.006533 0.013449 0.000000 0.000000 0.000000
# 4 0.000000 0.000000 0.000000 0.049970 0.000000 0.000000
# 5 0.000000 0.000000 0.000000 0.000000 0.067577 0.000000
# 6 0.000000 0.000000 0.000000 0.000000 0.000000 0.036720
#
#
# Mechanical properties :
#
#
# Convention : Reuss Voigt Hill
#
# Bulk Modulus (GPa) = 49.79316 55.74229 52.76772
# Shear Modulus (GPa) = 16.04371 19.24601 17.64486
#
# Velocity S-wave (km/s) = 3.33158 3.64896 3.49387
# Velocity P-wave (km/s) = 7.01765 7.50447 7.26514
#
# Compressibility (1/GPa) = 0.02008308
#
# Stress axis : x y z
#
# Youngs Moduli (GPa) = 25.35658 30.77048 74.35641
#
# Poissons Ratio (x) = 0.65049 0.37016
# Poissons Ratio (y) = 0.53604 0.48575
# Poissons Ratio (z) = 0.12623 0.20101
#
# Static dielectric constant tensor:
#      x y z
#    x 2.722400 0.000000 0.000000 
#    y 0.000000 2.740690 0.000000 
#    z 0.000000 0.000000 3.005170 
# 
# 
# High freq. dielectric constant tensor:
#      x y z
#    x 1.520060 0.000000 0.000000 
#    y 0.000000 1.526190 0.000000 
#    z 0.000000 0.000000 1.565840 
# 
# From -- ./inp_files/32326.got.cif
#   From: 2010.03.12/outbox.cif.g09.slc.cpg/sg66_17_cif.got.tgz:32326.got - 2010.04.10 21:57:39.
