data_PCOD8275470
_publ_section_title
;
Structure prediction by ZEFSAII (Michael W. Deem and Ramdas Pophale) SiO2 
 PCOD8275470
Probable space group: C C C M
;
_chemical_formula_sum "Si O2"
_cell_formula_units_Z 52
_cell_length_a 8.666339
_cell_length_b 30.432817
_cell_length_c 8.790874
_cell_angle_alpha 90.000000
_cell_angle_beta 90.000000
_cell_angle_gamma 90.000000
_cell_volume 2318.514856
_symmetry_space_group_name_H-M "C C C M"
_symmetry_group_IT_number 66
_symmetry_cell_setting 'orthorhombic'
loop_
_space_group_symop_operation_xyz
x,y,z
-x,-y,z
x,-y,1/2-z
-x,y,1/2-z
-x,-y,-z
x,y,-z
-x,y,1/2+z
x,-y,1/2+z
1/2+x,1/2+y,z
1/2-x,1/2-y,z
1/2+x,1/2-y,1/2-z
1/2-x,1/2+y,1/2-z
1/2-x,1/2-y,-z
1/2+x,1/2+y,-z
1/2-x,1/2+y,1/2+z
1/2+x,1/2-y,1/2+z
loop_
_atom_site_type_symbol
_atom_site_label
_atom_site_fract_x
_atom_site_fract_y
_atom_site_fract_z
Si Si1 0.166533 0.203776 0.675280
Si Si2 0.288506 0.458224 0.334066
Si Si3 0.500000 0.000000 0.750000
Si Si4 0.832361 0.622889 0.819755
O O1 0.150280 0.189219 0.500000
O O2 0.250000 0.250000 0.690469
O O3 0.272228 0.169599 0.764552
O O4 0.000000 0.206759 0.750000
O O5 0.371114 0.500000 0.250000
O O6 0.364120 0.450168 0.500000
O O7 0.293545 0.414015 0.232864
O O8 0.107567 0.470009 0.357492
O O9 0.000000 0.613845 0.750000
O O10 0.844624 0.622087 0.000000
#
# Coordination Sequence:
#
# PCOD8275470 Si02
#       4
#    16  16   4  16
#     4  11  25  45  68  93 122 156 197 246 301 362
#     4  10  18  29  49  79 118 159 203 251 300 351
#     4   8  18  24  46  72 116 156 198 248 296 340
#     4  12  23  36  59  90 125 163 205 252 304 358
#
# _framework density 22.428149999999999
#
# number of rings (size 3 to 8) (size 9 to 14) (size 15 to 20)
#    0.923    0.308    1.538    6.000    0.000    4.923 
#    0.000    0.000    0.000    0.923    0.000    6.462 
#    0.000    0.000    0.000    0.000    0.000    0.000 
#
# Total GULP energy -322173.450000 kJ/mol
# GULP energy per Si atom -12391.286538 kJ/mol
# Density = 2.237710 g / cm^3
# Si number density = 22.428150 Si / 1000 Ang^3
#
#
#
# Elastic Constant Matrix: (Units=GPa)
#
#
# Indices 1 2 3 4 5 6 
#
# 1 62.1338 15.8629 36.1670 0.0000 0.0000 0.0000
# 2 15.8629 134.1985 74.7788 0.0000 0.0000 0.0000
# 3 36.1670 74.7788 229.0461 0.0000 0.0000 0.0000
# 4 0.0000 0.0000 0.0000 38.3098 0.0000 0.0000
# 5 0.0000 0.0000 0.0000 0.0000 45.6718 0.0000
# 6 0.0000 0.0000 0.0000 0.0000 0.0000 -121.3037
#
#
#
# Elastic Compliance Matrix: (Units=1/GPa)
#
#
# Indices 1 2 3 4 5 6 
#
# 1 0.017770 -0.000656 -0.002592 0.000000 0.000000 0.000000
# 2 -0.000656 0.009133 -0.002878 0.000000 0.000000 0.000000
# 3 -0.002592 -0.002878 0.005715 0.000000 0.000000 0.000000
# 4 0.000000 0.000000 0.000000 0.026103 0.000000 0.000000
# 5 0.000000 0.000000 0.000000 0.000000 0.021895 0.000000
# 6 0.000000 0.000000 0.000000 0.000000 0.000000 -0.008244
#
#
# Mechanical properties :
#
#
# Convention : Reuss Voigt Hill
#
# Bulk Modulus (GPa) = 49.10170 75.44398 62.27284
# Shear Modulus (GPa) = 54.69631 12.44022 33.56827
#
# Velocity S-wave (km/s) = 4.94371 2.35770 3.87292
# Velocity P-wave (km/s) = 7.38427 6.41270 6.91557
#
# Compressibility (1/GPa) = 0.02036590
#
# Stress axis : x y z
#
# Youngs Moduli (GPa) = 56.27309 109.49339 174.98414
#
# Poissons Ratio (x) = 0.07187 0.45351
# Poissons Ratio (y) = 0.03694 0.50362
# Poissons Ratio (z) = 0.14584 0.31513
#
# Static dielectric constant tensor:
#      x y z
#    x 3.710000 0.000000 0.000000 
#    y 0.000000 4.329240 0.000000 
#    z 0.000000 0.000000 4.040840 
# 
# 
# High freq. dielectric constant tensor:
#      x y z
#    x 1.870610 0.000000 0.000000 
#    y 0.000000 1.897050 0.000000 
#    z 0.000000 0.000000 1.892440 
# 
# From -- ./inp_files/3845.got.cif
#   From: 2010.03.12/outbox.cif.g09.slc.cpg/sg66_2_cif.got.tgz:3845.got - 2010.04.10 21:57:39.
