data_PCOD8275397
_publ_section_title
;
Structure prediction by ZEFSAII (Michael W. Deem and Ramdas Pophale) SiO2 
 PCOD8275397
Probable space group: C C C M
;
_chemical_formula_sum "Si O2"
_cell_formula_units_Z 116
_cell_length_a 9.188447
_cell_length_b 25.694187
_cell_length_c 29.700472
_cell_angle_alpha 90.000000
_cell_angle_beta 90.000000
_cell_angle_gamma 90.000000
_cell_volume 7011.974795
_symmetry_space_group_name_H-M "C C C M"
_symmetry_group_IT_number 66
_symmetry_cell_setting 'orthorhombic'
loop_
_space_group_symop_operation_xyz
x,y,z
-x,-y,z
x,-y,1/2-z
-x,y,1/2-z
-x,-y,-z
x,y,-z
-x,y,1/2+z
x,-y,1/2+z
1/2+x,1/2+y,z
1/2-x,1/2-y,z
1/2+x,1/2-y,1/2-z
1/2-x,1/2+y,1/2-z
1/2-x,1/2-y,-z
1/2+x,1/2+y,-z
1/2-x,1/2+y,1/2+z
1/2+x,1/2-y,1/2+z
loop_
_atom_site_type_symbol
_atom_site_label
_atom_site_fract_x
_atom_site_fract_y
_atom_site_fract_z
Si Si1 0.214466 0.082542 0.449375
Si Si2 0.763256 0.809564 0.947507
Si Si3 0.241246 0.011645 0.689722
Si Si4 0.226007 0.524288 0.408099
Si Si5 0.500000 0.000000 0.750000
Si Si6 0.051471 0.886115 0.394037
Si Si7 0.466496 0.893406 0.449187
Si Si8 0.529791 0.581316 0.201790
O O1 0.152213 0.090788 0.500000
O O2 0.362645 0.115206 0.443109
O O3 0.111657 0.105811 0.411105
O O4 0.245254 0.021204 0.443782
O O5 0.750000 0.750000 0.932789
O O6 0.889634 0.834171 0.917166
O O7 0.613262 0.839540 0.936042
O O8 0.805532 0.814394 0.000000
O O9 0.119850 0.055345 0.685639
O O10 0.300554 0.999783 0.640555
O O11 0.384178 0.030879 0.718126
O O12 0.161289 0.960057 0.710552
O O13 0.364667 0.562226 0.409686
O O14 0.082857 0.557624 0.419284
O O15 0.065815 0.879668 0.339460
O O16 0.424820 0.908327 0.500000
O O17 0.500000 0.609732 0.250000
#
# Coordination Sequence:
#
# PCOD8275397 Si02
#       8
#    16  16  16  16   4  16  16  16
#     4  11  20  29  43  70 105 134 162 199 236 283
#     4   9  18  36  57  74  95 124 161 208 255 300
#     4  10  19  28  43  63  95 132 172 203 232 274
#     4  10  19  30  44  66  99 143 170 192 228 280
#     4  12  20  26  40  68  86 130 176 212 232 266
#     4  10  20  31  50  73  93 127 176 202 235 294
#     4   9  19  32  45  68 101 134 164 194 239 290
#     4  10  17  34  45  61  96 132 162 204 243 279
#
# _framework density 16.543127999999999
#
# number of rings (size 3 to 8) (size 9 to 14) (size 15 to 20)
#    0.000    2.069    2.759    2.069    1.931    3.310 
#    0.000    0.690    0.000    3.310    0.000    1.931 
#    0.000    0.000    0.000    0.000    0.000    0.000 
#
# Total GULP energy -718804.597918 kJ/mol
# GULP energy per Si atom -12393.182723 kJ/mol
# Density = 1.650547 g / cm^3
# Si number density = 16.543128 Si / 1000 Ang^3
#
#
#
# Elastic Constant Matrix: (Units=GPa)
#
#
# Indices 1 2 3 4 5 6 
#
# 1 82.1352 24.9504 29.8054 0.0000 0.0000 0.0000
# 2 24.9504 78.5015 34.9292 0.0000 0.0000 0.0000
# 3 29.8054 34.9292 88.6701 0.0000 0.0000 0.0000
# 4 0.0000 0.0000 0.0000 10.1853 0.0000 0.0000
# 5 0.0000 0.0000 0.0000 0.0000 25.8980 0.0000
# 6 0.0000 0.0000 0.0000 0.0000 0.0000 9.6137
#
#
#
# Elastic Compliance Matrix: (Units=1/GPa)
#
#
# Indices 1 2 3 4 5 6 
#
# 1 0.014405 -0.002939 -0.003684 0.000000 0.000000 0.000000
# 2 -0.002939 0.016046 -0.005333 0.000000 0.000000 0.000000
# 3 -0.003684 -0.005333 0.014617 0.000000 0.000000 0.000000
# 4 0.000000 0.000000 0.000000 0.098181 0.000000 0.000000
# 5 0.000000 0.000000 0.000000 0.000000 0.038613 0.000000
# 6 0.000000 0.000000 0.000000 0.000000 0.000000 0.104019
#
#
# Mechanical properties :
#
#
# Convention : Reuss Voigt Hill
#
# Bulk Modulus (GPa) = 47.26991 47.63073 47.45032
# Shear Modulus (GPa) = 15.78065 19.78085 17.78075
#
# Velocity S-wave (km/s) = 3.09189 3.46166 3.28199
# Velocity P-wave (km/s) = 6.43290 6.69566 6.56559
#
# Compressibility (1/GPa) = 0.02115511
#
# Stress axis : x y z
#
# Youngs Moduli (GPa) = 69.42135 62.32262 68.41408
#
# Poissons Ratio (x) = 0.18317 0.25205
# Poissons Ratio (y) = 0.20403 0.36484
# Poissons Ratio (z) = 0.25577 0.33235
#
# Static dielectric constant tensor:
#      x y z
#    x 3.204650 0.000000 0.000000 
#    y 0.000000 2.701610 0.000000 
#    z 0.000000 0.000000 3.284740 
# 
# 
# High freq. dielectric constant tensor:
#      x y z
#    x 1.645880 0.000000 0.000000 
#    y 0.000000 1.573280 0.000000 
#    z 0.000000 0.000000 1.649200 
# 
# From -- ./inp_files/68401.got.cif
#   From: 2010.03.12/outbox.cif.g09.slc.cpg/sg66_35_cif.got.tgz:68401.got - 2010.04.10 21:57:39.
