data_PCOD8275370
_publ_section_title
;
Structure prediction by ZEFSAII (Michael W. Deem and Ramdas Pophale) SiO2 
 PCOD8275370
Probable space group: C C C M
;
_chemical_formula_sum "Si O2"
_cell_formula_units_Z 88
_cell_length_a 24.314911
_cell_length_b 13.596427
_cell_length_c 14.137979
_cell_angle_alpha 90.000000
_cell_angle_beta 90.000000
_cell_angle_gamma 90.000000
_cell_volume 4673.958067
_symmetry_space_group_name_H-M "C C C M"
_symmetry_group_IT_number 66
_symmetry_cell_setting 'orthorhombic'
loop_
_space_group_symop_operation_xyz
x,y,z
-x,-y,z
x,-y,1/2-z
-x,y,1/2-z
-x,-y,-z
x,y,-z
-x,y,1/2+z
x,-y,1/2+z
1/2+x,1/2+y,z
1/2-x,1/2-y,z
1/2+x,1/2-y,1/2-z
1/2-x,1/2+y,1/2-z
1/2-x,1/2-y,-z
1/2+x,1/2+y,-z
1/2-x,1/2+y,1/2+z
1/2+x,1/2-y,1/2+z
loop_
_atom_site_type_symbol
_atom_site_label
_atom_site_fract_x
_atom_site_fract_y
_atom_site_fract_z
Si Si1 0.436230 0.843097 0.242020
Si Si2 0.250000 0.750000 0.264492
Si Si3 0.640347 0.338729 0.774665
Si Si4 0.342998 0.521531 0.391563
Si Si5 0.722298 0.073449 0.606316
Si Si6 0.604131 0.988135 0.109877
O O1 0.500000 0.819088 0.250000
O O2 0.406430 0.742104 0.216008
O O3 0.415736 0.886962 0.341714
O O4 0.425705 0.919753 0.157437
O O5 0.299250 0.705530 0.201809
O O6 0.279617 0.832185 0.327505
O O7 0.638474 0.383412 0.668468
O O8 0.628394 0.423333 0.851817
O O9 0.360486 0.538181 0.500000
O O10 0.277138 0.508839 0.378578
O O11 0.719421 0.114708 0.500000
O O12 0.669992 0.003116 0.626366
O O13 0.588064 0.985119 0.000000
#
# Coordination Sequence:
#
# PCOD8275370 Si02
#       6
#    16   8  16  16  16  16
#     4  11  24  39  56  80 111 147 190 233 272 321
#     4  10  17  30  53  82 112 144 182 218 268 328
#     4  10  21  35  58  82 109 147 183 228 275 327
#     4   9  20  37  56  83 116 144 175 225 282 335
#     4   9  17  30  53  83 114 143 178 220 270 329
#     4  10  21  37  57  82 113 149 184 223 270 326
#
# _framework density 18.827725000000001
#
# number of rings (size 3 to 8) (size 9 to 14) (size 15 to 20)
#    0.000    2.182    1.818    1.364    2.545    5.091 
#    0.000    2.273    0.000    1.091    0.000    0.000 
#    0.000    0.000    0.000    0.000    0.000    0.000 
#
# Total GULP energy -545603.729899 kJ/mol
# GULP energy per Si atom -12400.084770 kJ/mol
# Density = 1.878487 g / cm^3
# Si number density = 18.827725 Si / 1000 Ang^3
#
#
#
# Elastic Constant Matrix: (Units=GPa)
#
#
# Indices 1 2 3 4 5 6 
#
# 1 81.3847 28.0759 5.4523 0.0000 0.0000 0.0000
# 2 28.0759 82.7740 13.0136 0.0000 0.0000 0.0000
# 3 5.4523 13.0136 85.4820 0.0000 0.0000 0.0000
# 4 0.0000 0.0000 0.0000 14.5070 0.0000 0.0000
# 5 0.0000 0.0000 0.0000 0.0000 14.4084 0.0000
# 6 0.0000 0.0000 0.0000 0.0000 0.0000 27.6885
#
#
#
# Elastic Compliance Matrix: (Units=1/GPa)
#
#
# Indices 1 2 3 4 5 6 
#
# 1 0.013918 -0.004694 -0.000173 0.000000 0.000000 0.000000
# 2 -0.004694 0.013960 -0.001826 0.000000 0.000000 0.000000
# 3 -0.000173 -0.001826 0.011987 0.000000 0.000000 0.000000
# 4 0.000000 0.000000 0.000000 0.068932 0.000000 0.000000
# 5 0.000000 0.000000 0.000000 0.000000 0.069404 0.000000
# 6 0.000000 0.000000 0.000000 0.000000 0.000000 0.036116
#
#
# Mechanical properties :
#
#
# Convention : Reuss Voigt Hill
#
# Bulk Modulus (GPa) = 37.76401 38.08051 37.92226
# Shear Modulus (GPa) = 21.13898 24.86071 22.99985
#
# Velocity S-wave (km/s) = 3.35439 3.63772 3.49892
# Velocity P-wave (km/s) = 5.92485 6.15741 6.04224
#
# Compressibility (1/GPa) = 0.02648024
#
# Stress axis : x y z
#
# Youngs Moduli (GPa) = 71.84877 71.63238 83.42101
#
# Poissons Ratio (x) = 0.33622 0.01445
# Poissons Ratio (y) = 0.33723 0.15232
# Poissons Ratio (z) = 0.01244 0.13079
#
# Static dielectric constant tensor:
#      x y z
#    x 3.330210 0.000000 0.000000 
#    y 0.000000 3.303550 0.000000 
#    z 0.000000 0.000000 3.425310 
# 
# 
# High freq. dielectric constant tensor:
#      x y z
#    x 1.714550 0.000000 0.000000 
#    y 0.000000 1.725770 0.000000 
#    z 0.000000 0.000000 1.726400 
# 
# From -- ./inp_files/26507.got.cif
#   From: 2010.03.12/outbox.cif.g09.slc.cpg/sg66_14_cif.got.tgz:26507.got - 2010.04.10 21:57:39.
