data_PCOD8275567
_publ_section_title
;
Structure prediction by ZEFSAII (Michael W. Deem and Ramdas Pophale) SiO2 
 PCOD8275567
Probable space group: C C C M
;
_chemical_formula_sum "Si O2"
_cell_formula_units_Z 96
_cell_length_a 19.361996
_cell_length_b 15.603315
_cell_length_c 13.868509
_cell_angle_alpha 90.000000
_cell_angle_beta 90.000000
_cell_angle_gamma 90.000000
_cell_volume 4189.833597
_symmetry_space_group_name_H-M "C C C M"
_symmetry_group_IT_number 66
_symmetry_cell_setting 'orthorhombic'
loop_
_space_group_symop_operation_xyz
x,y,z
-x,-y,z
x,-y,1/2-z
-x,y,1/2-z
-x,-y,-z
x,y,-z
-x,y,1/2+z
x,-y,1/2+z
1/2+x,1/2+y,z
1/2-x,1/2-y,z
1/2+x,1/2-y,1/2-z
1/2-x,1/2+y,1/2-z
1/2-x,1/2-y,-z
1/2+x,1/2+y,-z
1/2-x,1/2+y,1/2+z
1/2+x,1/2-y,1/2+z
loop_
_atom_site_type_symbol
_atom_site_label
_atom_site_fract_x
_atom_site_fract_y
_atom_site_fract_z
Si Si1 0.540407 0.417317 0.385481
Si Si2 0.674427 0.166501 0.387608
Si Si3 0.464084 0.251859 0.390181
Si Si4 0.185306 0.188614 0.394487
Si Si5 0.180432 0.855449 0.688583
Si Si6 0.033693 0.414570 0.113840
O O1 0.500000 0.500000 0.344441
O O2 0.539547 0.419425 0.500000
O O3 0.499146 0.335632 0.342452
O O4 0.619909 0.415751 0.351204
O O5 0.671981 0.191692 0.500000
O O6 0.747351 0.121738 0.362941
O O7 0.663411 0.254618 0.328297
O O8 0.614787 0.097994 0.361305
O O9 0.489667 0.251150 0.500000
O O10 0.381979 0.252617 0.381736
O O11 0.491962 0.165517 0.340501
O O12 0.182188 0.140923 0.500000
O O13 0.250000 0.250000 0.391229
O O14 0.188457 0.124581 0.303535
O O15 0.000000 0.500000 0.160544
O O16 0.022652 0.418664 0.000000
#
# Coordination Sequence:
#
# PCOD8275567 Si02
#       6
#    16  16  16  16  16  16
#     4  10  20  36  60  93 132 171 209 254 320 397
#     4  10  18  31  57  94 130 160 199 258 329 390
#     4   9  18  35  57  82 117 165 214 263 315 376
#     4  10  21  38  59  85 116 165 224 268 317 388
#     4  11  19  34  58  92 124 165 210 264 327 380
#     4   9  17  32  57  90 127 167 208 251 314 386
#
# _framework density 22.912604999999999
#
# number of rings (size 3 to 8) (size 9 to 14) (size 15 to 20)
#    0.000    2.167    3.333    2.000    0.000    0.667 
#    0.000    3.333    0.000   11.500    0.000    0.000 
#    0.000    0.667    0.000    0.000    0.000    0.500 
#
# Total GULP energy -594957.418658 kJ/mol
# GULP energy per Si atom -12394.946222 kJ/mol
# Density = 2.286045 g / cm^3
# Si number density = 22.912605 Si / 1000 Ang^3
#
#
#
# Elastic Constant Matrix: (Units=GPa)
#
#
# Indices 1 2 3 4 5 6 
#
# 1 196.0340 79.2801 25.9668 0.0000 0.0000 0.0000
# 2 79.2801 131.7019 10.5041 0.0000 0.0000 0.0000
# 3 25.9668 10.5041 96.3671 0.0000 0.0000 0.0000
# 4 0.0000 0.0000 0.0000 -4.6922 0.0000 0.0000
# 5 0.0000 0.0000 0.0000 0.0000 6.2937 0.0000
# 6 0.0000 0.0000 0.0000 0.0000 0.0000 40.6844
#
#
#
# Elastic Compliance Matrix: (Units=1/GPa)
#
#
# Indices 1 2 3 4 5 6 
#
# 1 0.006931 -0.004059 -0.001425 0.000000 0.000000 0.000000
# 2 -0.004059 0.010036 0.000000 0.000000 0.000000 0.000000
# 3 -0.001425 0.000000 0.010761 0.000000 0.000000 0.000000
# 4 0.000000 0.000000 0.000000 -0.213121 0.000000 0.000000
# 5 0.000000 0.000000 0.000000 0.000000 0.158889 0.000000
# 6 0.000000 0.000000 0.000000 0.000000 0.000000 0.024579
#
#
# Mechanical properties :
#
#
# Convention : Reuss Voigt Hill
#
# Bulk Modulus (GPa) = 59.66620 72.84500 66.25560
# Shear Modulus (GPa) = 341.72476 29.01398 185.36937
#
# Velocity S-wave (km/s) = 12.22565 3.56236 9.00436
# Velocity P-wave (km/s) = 15.01286 6.98442 11.70829
#
# Compressibility (1/GPa) = 0.01675991
#
# Stress axis : x y z
#
# Youngs Moduli (GPa) = 144.27064 99.63937 92.92748
#
# Poissons Ratio (x) = 0.40442 0.13245
# Poissons Ratio (y) = 0.58557 0.00003
# Poissons Ratio (z) = 0.20563 0.00003
#
# Static dielectric constant tensor:
#      x y z
#    x 4.246010 0.000000 0.000000 
#    y 0.000000 3.953440 0.000000 
#    z 0.000000 0.000000 4.304400 
# 
# 
# High freq. dielectric constant tensor:
#      x y z
#    x 1.919280 0.000000 0.000000 
#    y 0.000000 1.857440 0.000000 
#    z 0.000000 0.000000 1.916320 
# 
# From -- ./inp_files/31200.got.cif
#   From: 2010.03.12/outbox.cif.g09.slc.cpg/sg66_16_cif.got.tgz:31200.got - 2010.04.10 21:57:39.
