data_PCOD8275090
_publ_section_title
;
Structure prediction by ZEFSAII (Michael W. Deem and Ramdas Pophale) SiO2 
 PCOD8275090
Probable space group: C M M M
;
_chemical_formula_sum "Si O2"
_cell_formula_units_Z 88
_cell_length_a 32.585683
_cell_length_b 26.995182
_cell_length_c 7.577238
_cell_angle_alpha 90.000000
_cell_angle_beta 90.000000
_cell_angle_gamma 90.000000
_cell_volume 6665.366228
_symmetry_space_group_name_H-M "C M M M"
_symmetry_group_IT_number 65
_symmetry_cell_setting 'orthorhombic'
loop_
_space_group_symop_operation_xyz
x,y,z
-x,-y,z
x,-y,-z
-x,y,-z
-x,-y,-z
x,y,-z
-x,y,z
x,-y,z
1/2+x,1/2+y,z
1/2-x,1/2-y,z
1/2+x,1/2-y,-z
1/2-x,1/2+y,-z
1/2-x,1/2-y,-z
1/2+x,1/2+y,-z
1/2-x,1/2+y,z
1/2+x,1/2-y,z
loop_
_atom_site_type_symbol
_atom_site_label
_atom_site_fract_x
_atom_site_fract_y
_atom_site_fract_z
Si Si1 0.760783 0.391385 0.296756
Si Si2 0.314445 0.230876 0.000000
Si Si3 0.655362 0.165429 0.296596
Si Si4 0.414010 0.906692 0.291297
Si Si5 0.269920 0.673627 0.000000
Si Si6 0.000000 0.557276 0.289748
Si Si7 0.366448 0.000000 0.711747
Si Si8 0.223399 0.500000 0.707550
O O1 0.748101 0.383125 0.500000
O O2 0.808302 0.375052 0.267848
O O3 0.754190 0.448857 0.237887
O O4 0.729891 0.359783 0.176179
O O5 0.338155 0.213749 0.823726
O O6 0.309863 0.290643 0.000000
O O7 0.270007 0.207083 0.000000
O O8 0.654679 0.182649 0.500000
O O9 0.611300 0.142548 0.237554
O O10 0.414399 0.910534 0.500000
O O11 0.460700 0.911202 0.219764
O O12 0.389597 0.952686 0.211406
O O13 0.000000 0.500000 0.220164
O O14 0.000000 0.555024 0.500000
O O15 0.321300 0.000000 0.794711
O O16 0.365782 0.000000 0.500000
O O17 0.217367 0.500000 0.500000
#
# Coordination Sequence:
#
# PCOD8275090 Si02
#       8
#    16   8  16  16   8   8   8   8
#     4   9  16  25  38  54  72  93 113 137 172 210
#     4   9  18  30  40  51  67  84 108 145 184 220
#     4   9  16  26  40  54  67  88 117 147 179 213
#     4   9  14  20  32  51  72  93 120 150 180 217
#     4   9  18  29  38  52  70  85 108 141 177 222
#     4   9  14  18  28  51  77  97 120 147 179 222
#     4   9  12  17  31  48  67  92 121 149 172 209
#     4   9  14  21  34  53  73  94 118 143 171 206
#
# _framework density 13.202576000000001
#
# number of rings (size 3 to 8) (size 9 to 14) (size 15 to 20)
#    0.000    3.000    2.727    0.000    0.000    1.091 
#    0.000    3.636    0.000    1.091    0.000    0.636 
#    0.000    0.000    0.000    0.000    0.000    0.000 
#
# Total GULP energy -545090.811384 kJ/mol
# GULP energy per Si atom -12388.427531 kJ/mol
# Density = 1.317253 g / cm^3
# Si number density = 13.202576 Si / 1000 Ang^3
#
#
#
# Elastic Constant Matrix: (Units=GPa)
#
#
# Indices 1 2 3 4 5 6 
#
# 1 51.5560 49.3230 24.9047 0.0000 0.0000 0.0000
# 2 49.3230 93.7404 39.6756 0.0000 0.0000 0.0000
# 3 24.9047 39.6756 56.5480 0.0000 0.0000 0.0000
# 4 0.0000 0.0000 0.0000 -6.3758 0.0000 0.0000
# 5 0.0000 0.0000 0.0000 0.0000 3.3501 0.0000
# 6 0.0000 0.0000 0.0000 0.0000 0.0000 19.3170
#
#
#
# Elastic Compliance Matrix: (Units=1/GPa)
#
#
# Indices 1 2 3 4 5 6 
#
# 1 0.039689 -0.019181 -0.004022 0.000000 0.000000 0.000000
# 2 -0.019181 0.024443 -0.008703 0.000000 0.000000 0.000000
# 3 -0.004022 -0.008703 0.025561 0.000000 0.000000 0.000000
# 4 0.000000 0.000000 0.000000 -0.156844 0.000000 0.000000
# 5 0.000000 0.000000 0.000000 0.000000 0.298494 0.000000
# 6 0.000000 0.000000 0.000000 0.000000 0.000000 0.051768
#
#
# Mechanical properties :
#
#
# Convention : Reuss Voigt Hill
#
# Bulk Modulus (GPa) = 38.63505 47.73901 43.18703
# Shear Modulus (GPa) = 14.06265 9.12101 11.59183
#
# Velocity S-wave (km/s) = 3.26720 2.63126 2.96632
# Velocity P-wave (km/s) = 6.59997 6.74305 6.67189
#
# Compressibility (1/GPa) = 0.02588323
#
# Stress axis : x y z
#
# Youngs Moduli (GPa) = 25.19567 40.91075 39.12141
#
# Poissons Ratio (x) = 0.78470 0.15735
# Poissons Ratio (y) = 0.48327 0.34046
# Poissons Ratio (z) = 0.10134 0.35603
#
# Static dielectric constant tensor:
#      x y z
#    x 2.550370 0.000000 0.000000 
#    y 0.000000 2.678100 0.000000 
#    z 0.000000 0.000000 2.553970 
# 
# 
# High freq. dielectric constant tensor:
#      x y z
#    x 1.452960 0.000000 0.000000 
#    y 0.000000 1.474610 0.000000 
#    z 0.000000 0.000000 1.502850 
# 
# From -- ./inp_files/18593.got.cif
#   From: 2010.03.12/outbox.cif.g09.slc.cpg/sg65_10_cif.got.tgz:18593.got - 2010.04.10 20:52:16.
