data_PCOD8275460
_publ_section_title
;
Structure prediction by ZEFSAII (Michael W. Deem and Ramdas Pophale) SiO2 
 PCOD8275460
Probable space group: C C C M
;
_chemical_formula_sum "Si O2"
_cell_formula_units_Z 96
_cell_length_a 28.966314
_cell_length_b 19.436522
_cell_length_c 10.288483
_cell_angle_alpha 90.000000
_cell_angle_beta 90.000000
_cell_angle_gamma 90.000000
_cell_volume 5792.461191
_symmetry_space_group_name_H-M "C C C M"
_symmetry_group_IT_number 66
_symmetry_cell_setting 'orthorhombic'
loop_
_space_group_symop_operation_xyz
x,y,z
-x,-y,z
x,-y,1/2-z
-x,y,1/2-z
-x,-y,-z
x,y,-z
-x,y,1/2+z
x,-y,1/2+z
1/2+x,1/2+y,z
1/2-x,1/2-y,z
1/2+x,1/2-y,1/2-z
1/2-x,1/2+y,1/2-z
1/2-x,1/2-y,-z
1/2+x,1/2+y,-z
1/2-x,1/2+y,1/2+z
1/2+x,1/2-y,1/2+z
loop_
_atom_site_type_symbol
_atom_site_label
_atom_site_fract_x
_atom_site_fract_y
_atom_site_fract_z
Si Si1 0.393388 0.709968 0.346061
Si Si2 0.899364 0.053804 0.355223
Si Si3 0.054759 0.660602 0.254252
Si Si4 0.055269 0.581218 0.000000
Si Si5 0.710156 0.703261 0.153122
Si Si6 0.710183 0.550167 0.856905
Si Si7 0.554440 0.925948 0.000000
O O1 0.397178 0.723641 0.500000
O O2 0.410903 0.632448 0.314629
O O3 0.424700 0.762978 0.266207
O O4 0.340982 0.720096 0.293804
O O5 0.919478 0.038112 0.500000
O O6 0.844725 0.044873 0.361092
O O7 0.920605 0.000000 0.250000
O O8 0.072978 0.623135 0.124885
O O9 0.072407 0.613832 0.373183
O O10 0.000000 0.668230 0.250000
O O11 0.075048 0.503328 0.000000
O O12 0.000508 0.573987 0.000000
O O13 0.750000 0.750000 0.217946
O O14 0.725005 0.625974 0.186085
O O15 0.708104 0.714652 0.000000
O O16 0.732159 0.500000 0.750000
O O17 0.729905 0.531827 0.000000
#
# Coordination Sequence:
#
# PCOD8275460 Si02
#       7
#    16  16  16   8  16  16   8
#     4   9  16  28  46  67  92 121 149 183 229 274
#     4   8  14  25  41  62  86 110 143 182 217 256
#     4  10  18  29  46  69  93 120 150 187 234 273
#     4   9  18  28  44  70  92 113 153 199 221 264
#     4   8  14  25  44  69  87 110 151 189 215 255
#     4   8  13  22  39  62  84 105 135 178 217 248
#     4   9  16  30  48  64  88 121 155 189 231 264
#
# _framework density 16.573266
#
# number of rings (size 3 to 8) (size 9 to 14) (size 15 to 20)
#    0.000    3.333    0.833    2.500    0.000    2.000 
#    1.500    0.000    1.833    3.000    0.000    2.333 
#    0.000    0.000    0.000    0.000    0.000    0.000 
#
# Total GULP energy -594830.298831 kJ/mol
# GULP energy per Si atom -12392.297892 kJ/mol
# Density = 1.653554 g / cm^3
# Si number density = 16.573266 Si / 1000 Ang^3
#
#
#
# Elastic Constant Matrix: (Units=GPa)
#
#
# Indices 1 2 3 4 5 6 
#
# 1 25.0665 33.2054 23.5146 0.0000 0.0000 0.0000
# 2 33.2054 149.5773 80.7561 0.0000 0.0000 0.0000
# 3 23.5146 80.7561 105.0767 0.0000 0.0000 0.0000
# 4 0.0000 0.0000 0.0000 33.0349 0.0000 0.0000
# 5 0.0000 0.0000 0.0000 0.0000 6.6481 0.0000
# 6 0.0000 0.0000 0.0000 0.0000 0.0000 23.2614
#
#
#
# Elastic Compliance Matrix: (Units=1/GPa)
#
#
# Indices 1 2 3 4 5 6 
#
# 1 0.058183 -0.010061 -0.005288 0.000000 0.000000 0.000000
# 2 -0.010061 0.013167 -0.007868 0.000000 0.000000 0.000000
# 3 -0.005288 -0.007868 0.016747 0.000000 0.000000 0.000000
# 4 0.000000 0.000000 0.000000 0.030271 0.000000 0.000000
# 5 0.000000 0.000000 0.000000 0.000000 0.150418 0.000000
# 6 0.000000 0.000000 0.000000 0.000000 0.000000 0.042990
#
#
# Mechanical properties :
#
#
# Convention : Reuss Voigt Hill
#
# Bulk Modulus (GPa) = 24.00238 61.63032 42.81635
# Shear Modulus (GPa) = 13.43738 22.07184 17.75461
#
# Velocity S-wave (km/s) = 2.85052 3.65331 3.27659
# Velocity P-wave (km/s) = 5.03468 7.42043 6.34077
#
# Compressibility (1/GPa) = 0.04166254
#
# Stress axis : x y z
#
# Youngs Moduli (GPa) = 17.18726 75.94848 59.71272
#
# Poissons Ratio (x) = 0.76415 0.31575
# Poissons Ratio (y) = 0.17293 0.46980
# Poissons Ratio (z) = 0.09088 0.59754
#
# Static dielectric constant tensor:
#      x y z
#    x 2.759260 0.000000 0.000000 
#    y 0.000000 3.393850 0.000000 
#    z 0.000000 0.000000 3.262130 
# 
# 
# High freq. dielectric constant tensor:
#      x y z
#    x 1.581080 0.000000 0.000000 
#    y 0.000000 1.649980 0.000000 
#    z 0.000000 0.000000 1.622890 
# 
# From -- ./inp_files/20737.got.cif
#   From: 2010.03.12/outbox.cif.g09.slc.cpg/sg66_11_cif.got.tgz:20737.got - 2010.04.10 21:57:39.
