data_PCOD8275945
_publ_section_title
;
Structure prediction by ZEFSAII (Michael W. Deem and Ramdas Pophale) SiO2 
 PCOD8275945
Probable space group: C C C M
;
_chemical_formula_sum "Si O2"
_cell_formula_units_Z 88
_cell_length_a 23.737173
_cell_length_b 9.609189
_cell_length_c 18.868193
_cell_angle_alpha 90.000000
_cell_angle_beta 90.000000
_cell_angle_gamma 90.000000
_cell_volume 4303.740137
_symmetry_space_group_name_H-M "C C C M"
_symmetry_group_IT_number 66
_symmetry_cell_setting 'orthorhombic'
loop_
_space_group_symop_operation_xyz
x,y,z
-x,-y,z
x,-y,1/2-z
-x,y,1/2-z
-x,-y,-z
x,y,-z
-x,y,1/2+z
x,-y,1/2+z
1/2+x,1/2+y,z
1/2-x,1/2-y,z
1/2+x,1/2-y,1/2-z
1/2-x,1/2+y,1/2-z
1/2-x,1/2-y,-z
1/2+x,1/2+y,-z
1/2-x,1/2+y,1/2+z
1/2+x,1/2-y,1/2+z
loop_
_atom_site_type_symbol
_atom_site_label
_atom_site_fract_x
_atom_site_fract_y
_atom_site_fract_z
Si Si1 0.684887 0.759369 0.500000
Si Si2 0.096868 0.779481 0.500000
Si Si3 0.523133 0.651532 0.500000
Si Si4 0.309566 0.076302 0.000000
Si Si5 0.889842 0.162058 0.122689
Si Si6 0.566566 0.164390 0.248320
Si Si7 0.750000 0.750000 0.884367
Si Si8 0.866538 0.139444 0.649351
O O1 0.750000 0.750000 0.500000
O O2 0.663701 0.688822 0.427430
O O3 0.670885 0.919800 0.500000
O O4 0.127584 0.633845 0.500000
O O5 0.118098 0.868966 0.566465
O O6 0.030434 0.745307 0.500000
O O7 0.500000 0.500000 0.500000
O O8 0.556404 0.669097 0.427801
O O9 0.274376 0.123597 0.931366
O O10 0.901235 0.283458 0.178659
O O11 0.879363 0.021661 0.170081
O O12 0.500000 0.196897 0.250000
O O13 0.593216 0.247096 0.314429
O O14 0.578256 0.000000 0.250000
O O15 0.800980 0.815755 0.837715
#
# Coordination Sequence:
#
# PCOD8275945 Si02
#       8
#     8   8   8   8  16  16   8  16
#     4  11  23  42  67  96 138 164 215 279 339 396
#     4  10  19  32  65  94 124 168 207 272 318 377
#     4  11  19  37  64 102 130 159 217 281 319 376
#     4   9  19  35  60  95 132 170 202 262 337 388
#     4  11  24  40  66 100 127 173 222 263 333 394
#     4  11  27  46  63  91 135 179 219 271 330 397
#     4   9  20  36  64  96 126 163 214 264 326 389
#     4  11  21  41  66  95 130 166 221 264 325 391
#
# _framework density 20.447330999999998
#
# number of rings (size 3 to 8) (size 9 to 14) (size 15 to 20)
#    0.000    1.455    1.818    3.818    5.091    0.727 
#    1.636    0.909    0.000    0.000    0.000    0.000 
#    0.000    0.000    0.000    0.000    0.000    0.000 
#
# Total GULP energy -545349.353893 kJ/mol
# GULP energy per Si atom -12394.303498 kJ/mol
# Density = 2.040079 g / cm^3
# Si number density = 20.447331 Si / 1000 Ang^3
#
#
#
# Elastic Constant Matrix: (Units=GPa)
#
#
# Indices 1 2 3 4 5 6 
#
# 1 170.7704 54.1465 37.8881 0.0000 0.0000 0.0000
# 2 54.1465 142.8333 37.9722 0.0000 0.0000 0.0000
# 3 37.8881 37.9722 88.8477 0.0000 0.0000 0.0000
# 4 0.0000 0.0000 0.0000 4.3534 0.0000 0.0000
# 5 0.0000 0.0000 0.0000 0.0000 5.1470 0.0000
# 6 0.0000 0.0000 0.0000 0.0000 0.0000 33.8257
#
#
#
# Elastic Compliance Matrix: (Units=1/GPa)
#
#
# Indices 1 2 3 4 5 6 
#
# 1 0.006982 -0.002093 -0.002083 0.000000 0.000000 0.000000
# 2 -0.002093 0.008526 -0.002751 0.000000 0.000000 0.000000
# 3 -0.002083 -0.002751 0.013319 0.000000 0.000000 0.000000
# 4 0.000000 0.000000 0.000000 0.229706 0.000000 0.000000
# 5 0.000000 0.000000 0.000000 0.000000 0.194289 0.000000
# 6 0.000000 0.000000 0.000000 0.000000 0.000000 0.029563
#
#
# Mechanical properties :
#
#
# Convention : Reuss Voigt Hill
#
# Bulk Modulus (GPa) = 66.78796 73.60724 70.19760
# Shear Modulus (GPa) = 9.97547 26.82820 18.40183
#
# Velocity S-wave (km/s) = 2.21116 3.62617 3.00319
# Velocity P-wave (km/s) = 6.26524 7.32180 6.81403
#
# Compressibility (1/GPa) = 0.01497276
#
# Stress axis : x y z
#
# Youngs Moduli (GPa) = 143.23563 117.28790 75.07925
#
# Poissons Ratio (x) = 0.24547 0.15637
# Poissons Ratio (y) = 0.29978 0.20657
# Poissons Ratio (z) = 0.29832 0.32270
#
# Static dielectric constant tensor:
#      x y z
#    x 3.639200 0.000000 0.000000 
#    y 0.000000 3.548820 0.000000 
#    z 0.000000 0.000000 3.882040 
# 
# 
# High freq. dielectric constant tensor:
#      x y z
#    x 1.812570 0.000000 0.000000 
#    y 0.000000 1.802520 0.000000 
#    z 0.000000 0.000000 1.789200 
# 
# From -- ./inp_files/52480.got.cif
#   From: 2010.03.12/outbox.cif.g09.slc.cpg/sg66_27_cif.got.tgz:52480.got - 2010.04.10 21:57:39.
