data_PCOD8275055
_publ_section_title
;
Structure prediction by ZEFSAII (Michael W. Deem and Ramdas Pophale) SiO2 
 PCOD8275055
Probable space group: C M M M
;
_chemical_formula_sum "Si O2"
_cell_formula_units_Z 80
_cell_length_a 9.690136
_cell_length_b 19.947448
_cell_length_c 25.171832
_cell_angle_alpha 90.000000
_cell_angle_beta 90.000000
_cell_angle_gamma 90.000000
_cell_volume 4865.551105
_symmetry_space_group_name_H-M "C M M M"
_symmetry_group_IT_number 65
_symmetry_cell_setting 'orthorhombic'
loop_
_space_group_symop_operation_xyz
x,y,z
-x,-y,z
x,-y,-z
-x,y,-z
-x,-y,-z
x,y,-z
-x,y,z
x,-y,z
1/2+x,1/2+y,z
1/2-x,1/2-y,z
1/2+x,1/2-y,-z
1/2-x,1/2+y,-z
1/2-x,1/2-y,-z
1/2+x,1/2+y,-z
1/2-x,1/2+y,z
1/2+x,1/2-y,z
loop_
_atom_site_type_symbol
_atom_site_label
_atom_site_fract_x
_atom_site_fract_y
_atom_site_fract_z
Si Si1 0.161082 0.813745 0.138947
Si Si2 0.663723 0.425714 0.940897
Si Si3 0.841092 0.186824 0.260988
Si Si4 0.339751 0.423090 0.345802
Si Si5 0.154760 0.579589 0.558596
O O1 0.250000 0.750000 0.122070
O O2 0.219092 0.874371 0.103152
O O3 0.187828 0.832815 0.200099
O O4 0.000000 0.798765 0.128263
O O5 0.500000 0.427798 0.938568
O O6 0.722006 0.500000 0.928102
O O7 0.711817 0.403350 0.000000
O O8 0.750000 0.250000 0.279022
O O9 0.800396 0.121690 0.295078
O O10 0.000000 0.206961 0.269745
O O11 0.500000 0.417838 0.359919
O O12 0.298085 0.500000 0.332940
O O13 0.258399 0.393399 0.396560
O O14 0.198674 0.606394 0.500000
O O15 0.160011 0.500000 0.557926
O O16 0.000000 0.604235 0.572038
#
# Coordination Sequence:
#
# PCOD8275055 Si02
#       5
#    16  16  16  16  16
#     4   9  17  29  45  64  86 113 145 180 216 254
#     4   8  14  25  42  65  90 114 143 179 216 254
#     4   9  18  31  45  62  86 116 146 176 214 258
#     4   9  17  28  43  65  89 110 138 178 218 254
#     4   8  14  25  41  62  88 115 141 170 207 253
#
# _framework density 16.442125000000001
#
# number of rings (size 3 to 8) (size 9 to 14) (size 15 to 20)
#    0.000    3.400    0.000    1.200    0.000    2.400 
#    0.000    6.000    0.000    1.200    0.000    7.000 
#    0.000    0.000    0.000    0.000    0.000    0.000 
#
# Total GULP energy -495797.209799 kJ/mol
# GULP energy per Si atom -12394.930245 kJ/mol
# Density = 1.640470 g / cm^3
# Si number density = 16.442125 Si / 1000 Ang^3
#
#
#
# Elastic Constant Matrix: (Units=GPa)
#
#
# Indices 1 2 3 4 5 6 
#
# 1 46.8478 43.4599 49.4384 0.0000 0.0000 0.0000
# 2 43.4599 98.1710 80.7320 0.0000 0.0000 0.0000
# 3 49.4384 80.7320 121.7230 0.0000 0.0000 0.0000
# 4 0.0000 0.0000 0.0000 14.8452 0.0000 0.0000
# 5 0.0000 0.0000 0.0000 0.0000 18.4909 0.0000
# 6 0.0000 0.0000 0.0000 0.0000 0.0000 21.4725
#
#
#
# Elastic Compliance Matrix: (Units=1/GPa)
#
#
# Indices 1 2 3 4 5 6 
#
# 1 0.041294 -0.009873 -0.010223 0.000000 0.000000 0.000000
# 2 -0.009873 0.024769 -0.012418 0.000000 0.000000 0.000000
# 3 -0.010223 -0.012418 0.020604 0.000000 0.000000 0.000000
# 4 0.000000 0.000000 0.000000 0.067362 0.000000 0.000000
# 5 0.000000 0.000000 0.000000 0.000000 0.054081 0.000000
# 6 0.000000 0.000000 0.000000 0.000000 0.000000 0.046571
#
#
# Mechanical properties :
#
#
# Convention : Reuss Voigt Hill
#
# Bulk Modulus (GPa) = 46.21584 68.22247 57.21916
# Shear Modulus (GPa) = 15.29420 17.16916 16.23168
#
# Velocity S-wave (km/s) = 3.05320 3.23494 3.14538
# Velocity P-wave (km/s) = 6.37170 7.45223 6.93305
#
# Compressibility (1/GPa) = 0.02163760
#
# Stress axis : x y z
#
# Youngs Moduli (GPa) = 24.21686 40.37272 48.53519
#
# Poissons Ratio (x) = 0.39862 0.49618
# Poissons Ratio (y) = 0.23910 0.60270
# Poissons Ratio (z) = 0.24757 0.50134
#
# Static dielectric constant tensor:
#      x y z
#    x 2.973810 0.000000 0.000000 
#    y 0.000000 3.049330 0.000000 
#    z 0.000000 0.000000 3.363820 
# 
# 
# High freq. dielectric constant tensor:
#      x y z
#    x 1.610700 0.000000 0.000000 
#    y 0.000000 1.610190 0.000000 
#    z 0.000000 0.000000 1.640180 
# 
# From -- ./inp_files/68822.got.cif
#   From: 2010.03.12/outbox.cif.g09.slc.cpg/sg65_35_cif.got.tgz:68822.got - 2010.04.10 20:52:16.
