data_PCOD8275685
_publ_section_title
;
Structure prediction by ZEFSAII (Michael W. Deem and Ramdas Pophale) SiO2 
 PCOD8275685
Probable space group: C C C M
;
_chemical_formula_sum "Si O2"
_cell_formula_units_Z 68
_cell_length_a 9.189972
_cell_length_b 12.838762
_cell_length_c 26.563650
_cell_angle_alpha 90.000000
_cell_angle_beta 90.000000
_cell_angle_gamma 90.000000
_cell_volume 3134.188305
_symmetry_space_group_name_H-M "C C C M"
_symmetry_group_IT_number 66
_symmetry_cell_setting 'orthorhombic'
loop_
_space_group_symop_operation_xyz
x,y,z
-x,-y,z
x,-y,1/2-z
-x,y,1/2-z
-x,-y,-z
x,y,-z
-x,y,1/2+z
x,-y,1/2+z
1/2+x,1/2+y,z
1/2-x,1/2-y,z
1/2+x,1/2-y,1/2-z
1/2-x,1/2+y,1/2-z
1/2-x,1/2-y,-z
1/2+x,1/2+y,-z
1/2-x,1/2+y,1/2+z
1/2+x,1/2-y,1/2+z
loop_
_atom_site_type_symbol
_atom_site_label
_atom_site_fract_x
_atom_site_fract_y
_atom_site_fract_z
Si Si1 0.482532 0.202119 0.000000
Si Si2 0.000000 0.500000 0.250000
Si Si3 0.324332 0.590093 0.500000
Si Si4 0.573107 0.114301 0.898055
Si Si5 0.341245 0.153104 0.824373
Si Si6 0.161666 0.992820 0.391370
O O1 0.575269 0.174036 0.950812
O O2 0.451102 0.324227 0.000000
O O3 0.334136 0.138937 0.000000
O O4 0.110053 0.428440 0.218154
O O5 0.342584 0.518941 0.451381
O O6 0.487335 0.182720 0.856022
O O7 0.500000 0.000000 0.903472
O O8 0.740182 0.095852 0.880031
O O9 0.250000 0.250000 0.800658
O O10 0.230753 0.107000 0.865065
O O11 0.000000 0.000000 0.368944
#
# Coordination Sequence:
#
# PCOD8275685 Si02
#       6
#     8   4   8  16  16  16
#     4  11  18  30  58  90 124 175 242 259 314 409
#     4  12  24  52  74 100 132 176 230 292 360 416
#     4  11  20  31  56  93 134 180 224 267 320 408
#     4  10  18  35  62  91 125 177 217 270 328 404
#     4  11  23  46  74  97 127 171 225 278 344 421
#     4  11  22  39  61  97 138 176 218 278 340 403
#
# _framework density 21.696207999999999
#
# number of rings (size 3 to 8) (size 9 to 14) (size 15 to 20)
#    0.000    1.176    8.235    2.824    0.000    0.000 
#    4.235    5.882    0.000    0.000    0.000    0.000 
#    0.000    0.000    0.000    0.000    0.000    0.000 
#
# Total GULP energy -421429.828020 kJ/mol
# GULP energy per Si atom -12394.994942 kJ/mol
# Density = 2.164683 g / cm^3
# Si number density = 21.696208 Si / 1000 Ang^3
#
#
#
# Elastic Constant Matrix: (Units=GPa)
#
#
# Indices 1 2 3 4 5 6 
#
# 1 166.7521 50.0779 34.3047 0.0000 0.0000 0.0000
# 2 50.0779 72.7068 30.0945 0.0000 0.0000 0.0000
# 3 34.3047 30.0945 99.2091 0.0000 0.0000 0.0000
# 4 0.0000 0.0000 0.0000 33.4861 0.0000 0.0000
# 5 0.0000 0.0000 0.0000 0.0000 -164.7730 0.0000
# 6 0.0000 0.0000 0.0000 0.0000 0.0000 44.1134
#
#
#
# Elastic Compliance Matrix: (Units=1/GPa)
#
#
# Indices 1 2 3 4 5 6 
#
# 1 0.007684 -0.004795 -0.001203 0.000000 0.000000 0.000000
# 2 -0.004795 0.018721 -0.004021 0.000000 0.000000 0.000000
# 3 -0.001203 -0.004021 0.011715 0.000000 0.000000 0.000000
# 4 0.000000 0.000000 0.000000 0.029863 0.000000 0.000000
# 5 0.000000 0.000000 0.000000 0.000000 -0.006069 0.000000
# 6 0.000000 0.000000 0.000000 0.000000 0.000000 0.022669
#
#
# Mechanical properties :
#
#
# Convention : Reuss Voigt Hill
#
# Bulk Modulus (GPa) = 55.29865 63.06915 59.18390
# Shear Modulus (GPa) = 45.18840 -2.48864 21.34988
#
# Velocity S-wave (km/s) = 4.56870 -1.07216 3.14034
# Velocity P-wave (km/s) = 7.30573 5.25353 6.36291
#
# Compressibility (1/GPa) = 0.01808362
#
# Stress axis : x y z
#
# Youngs Moduli (GPa) = 130.13540 53.41667 85.35885
#
# Poissons Ratio (x) = 0.25613 0.10265
# Poissons Ratio (y) = 0.62399 0.34321
# Poissons Ratio (z) = 0.15650 0.21478
#
# Static dielectric constant tensor:
#      x y z
#    x 4.381780 0.000000 0.000000 
#    y 0.000000 3.742820 0.000000 
#    z 0.000000 0.000000 3.794880 
# 
# 
# High freq. dielectric constant tensor:
#      x y z
#    x 1.861990 0.000000 0.000000 
#    y 0.000000 1.827610 0.000000 
#    z 0.000000 0.000000 1.832320 
# 
# From -- ./inp_files/62124.got.cif
#   From: 2010.03.12/outbox.cif.g09.slc.cpg/sg66_32_cif.got.tgz:62124.got - 2010.04.10 21:57:39.
