data_PCOD8275475
_publ_section_title
;
Structure prediction by ZEFSAII (Michael W. Deem and Ramdas Pophale) SiO2 
 PCOD8275475
Probable space group: C C C M
;
_chemical_formula_sum "Si O2"
_cell_formula_units_Z 104
_cell_length_a 13.881627
_cell_length_b 21.318991
_cell_length_c 20.413003
_cell_angle_alpha 90.000000
_cell_angle_beta 90.000000
_cell_angle_gamma 90.000000
_cell_volume 6041.070671
_symmetry_space_group_name_H-M "C C C M"
_symmetry_group_IT_number 66
_symmetry_cell_setting 'orthorhombic'
loop_
_space_group_symop_operation_xyz
x,y,z
-x,-y,z
x,-y,1/2-z
-x,y,1/2-z
-x,-y,-z
x,y,-z
-x,y,1/2+z
x,-y,1/2+z
1/2+x,1/2+y,z
1/2-x,1/2-y,z
1/2+x,1/2-y,1/2-z
1/2-x,1/2+y,1/2-z
1/2-x,1/2-y,-z
1/2+x,1/2+y,-z
1/2-x,1/2+y,1/2+z
1/2+x,1/2-y,1/2+z
loop_
_atom_site_type_symbol
_atom_site_label
_atom_site_fract_x
_atom_site_fract_y
_atom_site_fract_z
Si Si1 0.646294 0.782068 0.838625
Si Si2 0.548026 0.562034 0.423959
Si Si3 0.086832 0.460687 0.316045
Si Si4 0.738226 0.975059 0.424623
Si Si5 0.228666 0.618351 0.571266
Si Si6 0.500000 0.154454 0.250000
Si Si7 0.065438 0.179377 0.927244
O O1 0.750000 0.750000 0.821665
O O2 0.661031 0.847165 0.877089
O O3 0.586085 0.800607 0.774851
O O4 0.573392 0.738957 0.880226
O O5 0.500000 0.500000 0.391170
O O6 0.517928 0.562166 0.500000
O O7 0.661917 0.561090 0.413543
O O8 0.504869 0.626790 0.394550
O O9 0.119689 0.500000 0.250000
O O10 0.166863 0.448236 0.370528
O O11 0.050129 0.390639 0.302781
O O12 0.000000 0.500000 0.348891
O O13 0.703051 0.965231 0.500000
O O14 0.750469 0.047812 0.407227
O O15 0.177639 0.620290 0.500000
O O16 0.328810 0.652772 0.565899
O O17 0.028603 0.199549 0.000000
#
# Coordination Sequence:
#
# PCOD8275475 Si02
#       7
#    16  16  16  16  16   8  16
#     4  10  20  34  53  73  96 129 176 221 253 300
#     4   9  15  27  47  75 111 142 161 193 256 323
#     4   9  19  36  56  73  98 139 177 209 260 319
#     4  10  18  29  52  84 110 134 170 212 260 316
#     4   9  15  26  49  80 107 126 157 211 263 302
#     4  10  21  40  52  66  95 138 176 208 258 314
#     4   9  16  28  48  75 105 134 163 205 261 314
#
# _framework density 17.215491
#
# number of rings (size 3 to 8) (size 9 to 14) (size 15 to 20)
#    0.000    2.769    1.538    2.308    0.000    2.154 
#    2.769    1.538    0.000    0.462    0.000    3.231 
#    0.000    0.000    0.000    0.000    0.000    0.000 
#
# Total GULP energy -644296.568961 kJ/mol
# GULP energy per Si atom -12390.318634 kJ/mol
# Density = 1.717631 g / cm^3
# Si number density = 17.215491 Si / 1000 Ang^3
#
#
#
# Elastic Constant Matrix: (Units=GPa)
#
#
# Indices 1 2 3 4 5 6 
#
# 1 70.9547 29.4547 44.7052 0.0000 0.0000 0.0000
# 2 29.4547 79.5823 26.0356 0.0000 0.0000 0.0000
# 3 44.7052 26.0356 53.0005 0.0000 0.0000 0.0000
# 4 0.0000 0.0000 0.0000 -18.7650 0.0000 0.0000
# 5 0.0000 0.0000 0.0000 0.0000 36.1425 0.0000
# 6 0.0000 0.0000 0.0000 0.0000 0.0000 30.0278
#
#
#
# Elastic Compliance Matrix: (Units=1/GPa)
#
#
# Indices 1 2 3 4 5 6 
#
# 1 0.030859 -0.003462 -0.024328 0.000000 0.000000 0.000000
# 2 -0.003462 0.015360 -0.004625 0.000000 0.000000 0.000000
# 3 -0.024328 -0.004625 0.041660 0.000000 0.000000 0.000000
# 4 0.000000 0.000000 0.000000 -0.053291 0.000000 0.000000
# 5 0.000000 0.000000 0.000000 0.000000 0.027668 0.000000
# 6 0.000000 0.000000 0.000000 0.000000 0.000000 0.033303
#
#
# Mechanical properties :
#
#
# Convention : Reuss Voigt Hill
#
# Bulk Modulus (GPa) = 43.38742 44.88094 44.13418
# Shear Modulus (GPa) = 29.74895 16.37052 23.05974
#
# Velocity S-wave (km/s) = 4.16147 3.08704 3.66386
# Velocity P-wave (km/s) = 6.95325 6.23162 6.60230
#
# Compressibility (1/GPa) = 0.02304816
#
# Stress axis : x y z
#
# Youngs Moduli (GPa) = 32.40557 65.10360 24.00369
#
# Poissons Ratio (x) = 0.22541 0.58397
# Poissons Ratio (y) = 0.11220 0.11102
# Poissons Ratio (z) = 0.78837 0.30110
#
# Static dielectric constant tensor:
#      x y z
#    x 3.086730 0.000000 0.000000 
#    y 0.000000 3.483090 0.000000 
#    z 0.000000 0.000000 3.109890 
# 
# 
# High freq. dielectric constant tensor:
#      x y z
#    x 1.651450 0.000000 0.000000 
#    y 0.000000 1.665870 0.000000 
#    z 0.000000 0.000000 1.633260 
# 
# From -- ./inp_files/40557.got.cif
#   From: 2010.03.12/outbox.cif.g09.slc.cpg/sg66_21_cif.got.tgz:40557.got - 2010.04.10 21:57:39.
