data_PCOD8275523
_publ_section_title
;
Structure prediction by ZEFSAII (Michael W. Deem and Ramdas Pophale) SiO2 
 PCOD8275523
Probable space group: C C C M
;
_chemical_formula_sum "Si O2"
_cell_formula_units_Z 96
_cell_length_a 14.432272
_cell_length_b 20.829593
_cell_length_c 15.441686
_cell_angle_alpha 90.000000
_cell_angle_beta 90.000000
_cell_angle_gamma 90.000000
_cell_volume 4642.054195
_symmetry_space_group_name_H-M "C C C M"
_symmetry_group_IT_number 66
_symmetry_cell_setting 'orthorhombic'
loop_
_space_group_symop_operation_xyz
x,y,z
-x,-y,z
x,-y,1/2-z
-x,y,1/2-z
-x,-y,-z
x,y,-z
-x,y,1/2+z
x,-y,1/2+z
1/2+x,1/2+y,z
1/2-x,1/2-y,z
1/2+x,1/2-y,1/2-z
1/2-x,1/2+y,1/2-z
1/2-x,1/2-y,-z
1/2+x,1/2+y,-z
1/2-x,1/2+y,1/2+z
1/2+x,1/2-y,1/2+z
loop_
_atom_site_type_symbol
_atom_site_label
_atom_site_fract_x
_atom_site_fract_y
_atom_site_fract_z
Si Si1 0.059261 0.440046 0.397004
Si Si2 0.558849 0.176712 0.396717
Si Si3 0.762006 0.024809 0.897322
Si Si4 0.436617 0.317546 0.900599
Si Si5 0.043417 0.064006 0.655343
Si Si6 0.748131 0.621480 0.896900
O O1 0.053387 0.443347 0.500000
O O2 0.166321 0.441922 0.368228
O O3 0.000000 0.500000 0.359358
O O4 0.016594 0.373687 0.360408
O O5 0.556914 0.173764 0.500000
O O6 0.534983 0.248214 0.360760
O O7 0.660058 0.156291 0.361987
O O8 0.845443 0.059247 0.845851
O O9 0.755381 0.951703 0.865710
O O10 0.779901 0.030505 0.000000
O O11 0.517362 0.370191 0.892885
O O12 0.341637 0.342837 0.856859
O O13 0.414746 0.304792 0.000000
O O14 0.000000 0.068202 0.750000
O O15 0.000000 0.000000 0.609165
O O16 0.746458 0.622854 0.000000
#
# Coordination Sequence:
#
# PCOD8275523 Si02
#       6
#    16  16  16  16  16  16
#     4   9  15  26  47  79 116 145 168 207 261 315
#     4   9  16  27  46  78 114 141 169 209 264 317
#     4  10  18  30  53  83 110 137 177 221 262 318
#     4  10  19  31  51  78 107 138 174 222 268 315
#     4  11  23  37  52  73  98 138 181 224 270 318
#     4   9  15  25  46  78 111 136 167 217 262 303
#
# _framework density 20.680501
#
# number of rings (size 3 to 8) (size 9 to 14) (size 15 to 20)
#    0.000    2.333    3.333    1.000    0.000    2.667 
#    0.000    0.833    0.000    8.000    0.000    7.000 
#    0.000    0.000    0.000    0.000    0.000    0.167 
#
# Total GULP energy -594972.817029 kJ/mol
# GULP energy per Si atom -12395.267021 kJ/mol
# Density = 2.063343 g / cm^3
# Si number density = 20.680501 Si / 1000 Ang^3
#
#
#
# Elastic Constant Matrix: (Units=GPa)
#
#
# Indices 1 2 3 4 5 6 
#
# 1 179.5931 102.9006 11.4900 0.0000 0.0000 0.0000
# 2 102.9006 205.3474 6.7178 0.0000 0.0000 0.0000
# 3 11.4900 6.7178 15.5917 0.0000 0.0000 0.0000
# 4 0.0000 0.0000 0.0000 4.5650 0.0000 0.0000
# 5 0.0000 0.0000 0.0000 0.0000 13.9822 0.0000
# 6 0.0000 0.0000 0.0000 0.0000 0.0000 36.6573
#
#
#
# Elastic Compliance Matrix: (Units=1/GPa)
#
#
# Indices 1 2 3 4 5 6 
#
# 1 0.008082 -0.003910 -0.004271 0.000000 0.000000 0.000000
# 2 -0.003910 0.006831 -0.000062 0.000000 0.000000 0.000000
# 3 -0.004271 -0.000062 0.067311 0.000000 0.000000 0.000000
# 4 0.000000 0.000000 0.000000 0.219059 0.000000 0.000000
# 5 0.000000 0.000000 0.000000 0.000000 0.071519 0.000000
# 6 0.000000 0.000000 0.000000 0.000000 0.000000 0.027280
#
#
# Mechanical properties :
#
#
# Convention : Reuss Voigt Hill
#
# Bulk Modulus (GPa) = 15.21192 71.41656 43.31424
# Shear Modulus (GPa) = 11.40303 29.66915 20.53609
#
# Velocity S-wave (km/s) = 2.35072 3.79178 3.15464
# Velocity P-wave (km/s) = 3.83920 7.33337 5.85311
#
# Compressibility (1/GPa) = 0.06573794
#
# Stress axis : x y z
#
# Youngs Moduli (GPa) = 123.73599 146.38769 14.85646
#
# Poissons Ratio (x) = 0.57239 0.06345
# Poissons Ratio (y) = 0.48382 0.00092
# Poissons Ratio (z) = 0.52847 0.00905
#
# Static dielectric constant tensor:
#      x y z
#    x 3.876210 0.000000 0.000000 
#    y 0.000000 4.154690 0.000000 
#    z 0.000000 0.000000 3.057260 
# 
# 
# High freq. dielectric constant tensor:
#      x y z
#    x 1.812640 0.000000 0.000000 
#    y 0.000000 1.813570 0.000000 
#    z 0.000000 0.000000 1.748970 
# 
# From -- ./inp_files/28422.got.cif
#   From: 2010.03.12/outbox.cif.g09.slc.cpg/sg66_15_cif.got.tgz:28422.got - 2010.04.10 21:57:39.
