data_PCOD8275622
_publ_section_title
;
Structure prediction by ZEFSAII (Michael W. Deem and Ramdas Pophale) SiO2 
 PCOD8275622
Probable space group: C C C M
;
_chemical_formula_sum "Si O2"
_cell_formula_units_Z 128
_cell_length_a 20.273744
_cell_length_b 19.219292
_cell_length_c 18.806841
_cell_angle_alpha 90.000000
_cell_angle_beta 90.000000
_cell_angle_gamma 90.000000
_cell_volume 7328.029286
_symmetry_space_group_name_H-M "C C C M"
_symmetry_group_IT_number 66
_symmetry_cell_setting 'orthorhombic'
loop_
_space_group_symop_operation_xyz
x,y,z
-x,-y,z
x,-y,1/2-z
-x,y,1/2-z
-x,-y,-z
x,y,-z
-x,y,1/2+z
x,-y,1/2+z
1/2+x,1/2+y,z
1/2-x,1/2-y,z
1/2+x,1/2-y,1/2-z
1/2-x,1/2+y,1/2-z
1/2-x,1/2-y,-z
1/2+x,1/2+y,-z
1/2-x,1/2+y,1/2+z
1/2+x,1/2-y,1/2+z
loop_
_atom_site_type_symbol
_atom_site_label
_atom_site_fract_x
_atom_site_fract_y
_atom_site_fract_z
Si Si1 0.327107 0.951990 0.919384
Si Si2 0.326194 0.165737 0.691045
Si Si3 0.942423 0.553953 0.082452
Si Si4 0.430528 0.525113 0.668413
Si Si5 0.176510 0.946243 0.918807
Si Si6 0.177721 0.177411 0.320432
Si Si7 0.437505 0.171588 0.801804
Si Si8 0.067274 0.172602 0.208407
O O1 0.347376 0.888210 0.869415
O O2 0.251220 0.973579 0.908552
O O3 0.372102 0.018482 0.901351
O O4 0.340364 0.927170 0.000000
O O5 0.249616 0.160996 0.713240
O O6 0.336413 0.242717 0.658712
O O7 0.371324 0.150555 0.759579
O O8 0.948138 0.622901 0.130181
O O9 0.000000 0.500000 0.103248
O O10 0.948841 0.576265 0.000000
O O11 0.500000 0.500000 0.636160
O O12 0.424375 0.500000 0.750000
O O13 0.369262 0.496852 0.625173
O O14 0.429671 0.608357 0.654372
O O15 0.169209 0.867024 0.892011
O O16 0.154399 0.947279 0.000000
O O17 0.126428 0.155242 0.261432
O O18 0.500000 0.165059 0.750000
O O19 0.428189 0.251550 0.828641
O O20 0.000000 0.167128 0.250000
#
# Coordination Sequence:
#
# PCOD8275622 Si02
#       8
#    16  16  16  16  16  16  16  16
#     4   9  19  34  50  72 105 139 171 212 261 312
#     4   9  18  30  49  76 103 132 170 214 256 311
#     4  10  21  38  56  74 103 142 177 214 266 318
#     4  11  19  33  55  77  99 137 174 205 251 313
#     4  10  20  33  50  76 107 135 172 217 256 304
#     4   9  17  31  48  73 105 133 170 205 260 314
#     4  10  21  34  53  79 104 129 168 222 258 301
#     4  10  18  33  52  74 102 133 166 209 258 303
#
# _framework density 17.467179000000002
#
# number of rings (size 3 to 8) (size 9 to 14) (size 15 to 20)
#    0.000    2.250    2.500    0.750    0.000    3.500 
#    0.000    3.125    0.000    9.000    0.000    9.625 
#    0.000    0.000    0.000    0.000    0.000    0.000 
#
# Total GULP energy -793370.801611 kJ/mol
# GULP energy per Si atom -12396.418775 kJ/mol
# Density = 1.742742 g / cm^3
# Si number density = 17.467179 Si / 1000 Ang^3
#
#
#
# Elastic Constant Matrix: (Units=GPa)
#
#
# Indices 1 2 3 4 5 6 
#
# 1 100.5423 50.9472 45.5566 0.0000 0.0000 0.0000
# 2 50.9472 118.7254 62.9836 0.0000 0.0000 0.0000
# 3 45.5566 62.9836 75.5307 0.0000 0.0000 0.0000
# 4 0.0000 0.0000 0.0000 24.8640 0.0000 0.0000
# 5 0.0000 0.0000 0.0000 0.0000 24.6743 0.0000
# 6 0.0000 0.0000 0.0000 0.0000 0.0000 30.5974
#
#
#
# Elastic Compliance Matrix: (Units=1/GPa)
#
#
# Indices 1 2 3 4 5 6 
#
# 1 0.014179 -0.002775 -0.006238 0.000000 0.000000 0.000000
# 2 -0.002775 0.015648 -0.011375 0.000000 0.000000 0.000000
# 3 -0.006238 -0.011375 0.026487 0.000000 0.000000 0.000000
# 4 0.000000 0.000000 0.000000 0.040219 0.000000 0.000000
# 5 0.000000 0.000000 0.000000 0.000000 0.040528 0.000000
# 6 0.000000 0.000000 0.000000 0.000000 0.000000 0.032683
#
#
# Mechanical properties :
#
#
# Convention : Reuss Voigt Hill
#
# Bulk Modulus (GPa) = 64.35619 68.19704 66.27662
# Shear Modulus (GPa) = 23.18059 25.04786 24.11423
#
# Velocity S-wave (km/s) = 3.64688 3.79092 3.71960
# Velocity P-wave (km/s) = 7.39304 7.63473 7.51486
#
# Compressibility (1/GPa) = 0.01553852
#
# Stress axis : x y z
#
# Youngs Moduli (GPa) = 70.52832 63.90627 37.75432
#
# Poissons Ratio (x) = 0.17736 0.23550
# Poissons Ratio (y) = 0.19573 0.42944
# Poissons Ratio (z) = 0.43994 0.72691
#
# Static dielectric constant tensor:
#      x y z
#    x 3.523180 0.000000 0.000000 
#    y 0.000000 3.468980 0.000000 
#    z 0.000000 0.000000 2.949510 
# 
# 
# High freq. dielectric constant tensor:
#      x y z
#    x 1.696030 0.000000 0.000000 
#    y 0.000000 1.679930 0.000000 
#    z 0.000000 0.000000 1.640210 
# 
# From -- ./inp_files/43203.got.cif
#   From: 2010.03.12/outbox.cif.g09.slc.cpg/sg66_22_cif.got.tgz:43203.got - 2010.04.10 21:57:39.
