data_PCOD8275217
_publ_section_title
;
Structure prediction by ZEFSAII (Michael W. Deem and Ramdas Pophale) SiO2 
 PCOD8275217
Probable space group: C C C M
;
_chemical_formula_sum "Si O2"
_cell_formula_units_Z 80
_cell_length_a 26.332714
_cell_length_b 5.178019
_cell_length_c 35.975442
_cell_angle_alpha 90.000000
_cell_angle_beta 90.000000
_cell_angle_gamma 90.000000
_cell_volume 4905.298048
_symmetry_space_group_name_H-M "C C C M"
_symmetry_group_IT_number 66
_symmetry_cell_setting 'orthorhombic'
loop_
_space_group_symop_operation_xyz
x,y,z
-x,-y,z
x,-y,1/2-z
-x,y,1/2-z
-x,-y,-z
x,y,-z
-x,y,1/2+z
x,-y,1/2+z
1/2+x,1/2+y,z
1/2-x,1/2-y,z
1/2+x,1/2-y,1/2-z
1/2-x,1/2+y,1/2-z
1/2-x,1/2-y,-z
1/2+x,1/2+y,-z
1/2-x,1/2+y,1/2+z
1/2+x,1/2-y,1/2+z
loop_
_atom_site_type_symbol
_atom_site_label
_atom_site_fract_x
_atom_site_fract_y
_atom_site_fract_z
Si Si1 0.966978 0.747294 0.651826
Si Si2 0.442456 0.747015 0.766234
Si Si3 0.441899 0.919398 0.925746
Si Si4 0.221585 0.999622 0.044178
Si Si5 0.892922 0.925507 0.956943
O O1 0.935926 0.787483 0.689533
O O2 0.931847 0.678172 0.616464
O O3 0.000000 0.500000 0.661357
O O4 0.000000 0.000000 0.641804
O O5 0.413184 0.500000 0.750000
O O6 0.500000 0.746601 0.750000
O O7 0.414644 0.000000 0.750000
O O8 0.428609 0.676404 0.951903
O O9 0.500000 0.000000 0.932095
O O10 0.408965 0.173528 0.933719
O O11 0.250000 0.750000 0.060839
O O12 0.250000 0.250000 0.060333
O O13 0.163154 0.997766 0.056876
O O14 0.224955 0.996500 0.000000
O O15 0.893847 0.844724 0.000000
#
# Coordination Sequence:
#
# PCOD8275217 Si02
#       5
#    16  16  16  16  16
#     4  11  18  29  43  58  87 115 154 199 225 261
#     4  10  15  24  40  63  79 103 142 199 229 264
#     4  11  23  34  45  65  91 133 169 197 222 265
#     4   9  17  31  52  74  89 103 133 191 261 310
#     4  11  22  36  51  67  89 119 162 207 242 276
#
# _framework density 16.308897000000002
#
# number of rings (size 3 to 8) (size 9 to 14) (size 15 to 20)
#    0.000    1.600    4.000    4.800    0.000    5.600 
#    0.000    0.000    0.000    0.000    0.000    0.000 
#    0.000    0.000    0.000    0.000    0.000   56.000 
#
# Total GULP energy -495712.371220 kJ/mol
# GULP energy per Si atom -12392.809281 kJ/mol
# Density = 1.627178 g / cm^3
# Si number density = 16.308897 Si / 1000 Ang^3
#
#
#
# Elastic Constant Matrix: (Units=GPa)
#
#
# Indices 1 2 3 4 5 6 
#
# 1 61.2222 40.9781 38.6537 0.0000 0.0000 0.0000
# 2 40.9781 168.4824 43.1618 0.0000 0.0000 0.0000
# 3 38.6537 43.1618 84.3704 0.0000 0.0000 0.0000
# 4 0.0000 0.0000 0.0000 29.3599 0.0000 0.0000
# 5 0.0000 0.0000 0.0000 0.0000 0.4101 0.0000
# 6 0.0000 0.0000 0.0000 0.0000 0.0000 24.5672
#
#
#
# Elastic Compliance Matrix: (Units=1/GPa)
#
#
# Indices 1 2 3 4 5 6 
#
# 1 0.024727 -0.003581 -0.009496 0.000000 0.000000 0.000000
# 2 -0.003581 0.007349 -0.002119 0.000000 0.000000 0.000000
# 3 -0.009496 -0.002119 0.017287 0.000000 0.000000 0.000000
# 4 0.000000 0.000000 0.000000 0.034060 0.000000 0.000000
# 5 0.000000 0.000000 0.000000 0.000000 2.438436 0.000000
# 6 0.000000 0.000000 0.000000 0.000000 0.000000 0.040705
#
#
# Mechanical properties :
#
#
# Convention : Reuss Voigt Hill
#
# Bulk Modulus (GPa) = 52.71461 62.18468 57.44965
# Shear Modulus (GPa) = 1.92361 23.61954 12.77158
#
# Velocity S-wave (km/s) = 1.08722 3.80973 2.80144
# Velocity P-wave (km/s) = 5.82828 7.58710 6.76509
#
# Compressibility (1/GPa) = 0.01897007
#
# Stress axis : x y z
#
# Youngs Moduli (GPa) = 40.44228 136.06939 57.84647
#
# Poissons Ratio (x) = 0.48729 0.54933
# Poissons Ratio (y) = 0.14483 0.12257
# Poissons Ratio (z) = 0.38405 0.28832
#
# Static dielectric constant tensor:
#      x y z
#    x 2.726330 0.000000 0.000000 
#    y 0.000000 4.564270 0.000000 
#    z 0.000000 0.000000 3.073550 
# 
# 
# High freq. dielectric constant tensor:
#      x y z
#    x 1.564160 0.000000 0.000000 
#    y 0.000000 1.666760 0.000000 
#    z 0.000000 0.000000 1.610160 
# 
# From -- ./inp_files/70308.got.cif
#   From: 2010.03.12/outbox.cif.g09.slc.cpg/sg66_36_cif.got.tgz:70308.got - 2010.04.10 21:57:39.
