data_PCOD8275616
_publ_section_title
;
Structure prediction by ZEFSAII (Michael W. Deem and Ramdas Pophale) SiO2 
 PCOD8275616
Probable space group: C C C M
;
_chemical_formula_sum "Si O2"
_cell_formula_units_Z 116
_cell_length_a 11.252577
_cell_length_b 18.915207
_cell_length_c 26.163365
_cell_angle_alpha 90.000000
_cell_angle_beta 90.000000
_cell_angle_gamma 90.000000
_cell_volume 5568.736799
_symmetry_space_group_name_H-M "C C C M"
_symmetry_group_IT_number 66
_symmetry_cell_setting 'orthorhombic'
loop_
_space_group_symop_operation_xyz
x,y,z
-x,-y,z
x,-y,1/2-z
-x,y,1/2-z
-x,-y,-z
x,y,-z
-x,y,1/2+z
x,-y,1/2+z
1/2+x,1/2+y,z
1/2-x,1/2-y,z
1/2+x,1/2-y,1/2-z
1/2-x,1/2+y,1/2-z
1/2-x,1/2-y,-z
1/2+x,1/2+y,-z
1/2-x,1/2+y,1/2+z
1/2+x,1/2-y,1/2+z
loop_
_atom_site_type_symbol
_atom_site_label
_atom_site_fract_x
_atom_site_fract_y
_atom_site_fract_z
Si Si1 0.095449 0.620398 0.355125
Si Si2 0.500000 0.500000 0.250000
Si Si3 0.385488 0.227371 0.557626
Si Si4 0.631619 0.971183 0.943672
Si Si5 0.183347 0.820632 0.803253
Si Si6 0.458153 0.718372 0.642316
Si Si7 0.823472 0.891067 0.197592
Si Si8 0.844148 0.594785 0.375022
O O1 0.130279 0.603824 0.414452
O O2 0.097362 0.704856 0.346312
O O3 0.192319 0.581331 0.318322
O O4 0.966364 0.584893 0.341992
O O5 0.415648 0.453152 0.213083
O O6 0.434236 0.222678 0.500000
O O7 0.250000 0.250000 0.558678
O O8 0.470261 0.282282 0.588471
O O9 0.390611 0.151989 0.584071
O O10 0.500000 0.000000 0.950567
O O11 0.700696 0.026745 0.906719
O O12 0.691686 0.963786 0.000000
O O13 0.250000 0.750000 0.819544
O O14 0.198185 0.838781 0.744587
O O15 0.235108 0.883021 0.839027
O O16 0.045821 0.805691 0.812313
O O17 0.361385 0.655719 0.647461
#
# Coordination Sequence:
#
# PCOD8275616 Si02
#       8
#    16   4  16  16  16  16  16  16
#     4  10  22  38  61  89 126 158 208 263 310 376
#     4  12  28  48  64  86 114 176 226 252 326 396
#     4  10  18  32  59  95 130 162 205 259 317 371
#     4   9  19  36  59  87 125 171 207 251 323 390
#     4  12  20  38  65  93 126 170 207 262 332 381
#     4  11  20  41  58  92 124 162 209 264 311 375
#     4  12  27  42  64  87 119 168 219 262 319 389
#     4  10  19  35  60  94 132 161 205 263 319 381
#
# _framework density 20.830577000000002
#
# number of rings (size 3 to 8) (size 9 to 14) (size 15 to 20)
#    0.000    1.379    5.517    1.655    1.931    3.862 
#    0.000    0.690    0.000    4.138    0.000    1.931 
#    0.000    0.000    0.000    0.000    0.000    0.000 
#
# Total GULP energy -718705.519706 kJ/mol
# GULP energy per Si atom -12391.474478 kJ/mol
# Density = 2.078317 g / cm^3
# Si number density = 20.830577 Si / 1000 Ang^3
#
#
#
# Elastic Constant Matrix: (Units=GPa)
#
#
# Indices 1 2 3 4 5 6 
#
# 1 83.2264 31.7084 38.4904 0.0000 0.0000 0.0000
# 2 31.7084 85.2864 30.8072 0.0000 0.0000 0.0000
# 3 38.4904 30.8072 110.6114 0.0000 0.0000 0.0000
# 4 0.0000 0.0000 0.0000 36.2006 0.0000 0.0000
# 5 0.0000 0.0000 0.0000 0.0000 23.3601 0.0000
# 6 0.0000 0.0000 0.0000 0.0000 0.0000 21.7538
#
#
#
# Elastic Compliance Matrix: (Units=1/GPa)
#
#
# Indices 1 2 3 4 5 6 
#
# 1 0.015603 -0.004269 -0.004240 0.000000 0.000000 0.000000
# 2 -0.004269 0.014205 -0.002471 0.000000 0.000000 0.000000
# 3 -0.004240 -0.002471 0.011204 0.000000 0.000000 0.000000
# 4 0.000000 0.000000 0.000000 0.027624 0.000000 0.000000
# 5 0.000000 0.000000 0.000000 0.000000 0.042808 0.000000
# 6 0.000000 0.000000 0.000000 0.000000 0.000000 0.045969
#
#
# Mechanical properties :
#
#
# Convention : Reuss Voigt Hill
#
# Bulk Modulus (GPa) = 52.48932 53.45957 52.97445
# Shear Modulus (GPa) = 26.92154 28.13743 27.52949
#
# Velocity S-wave (km/s) = 3.59890 3.67928 3.63931
# Velocity P-wave (km/s) = 6.52092 6.61583 6.56854
#
# Compressibility (1/GPa) = 0.01905149
#
# Stress axis : x y z
#
# Youngs Moduli (GPa) = 64.08983 70.39807 89.25078
#
# Poissons Ratio (x) = 0.30055 0.37846
# Poissons Ratio (y) = 0.27362 0.22051
# Poissons Ratio (z) = 0.27177 0.17393
#
# Static dielectric constant tensor:
#      x y z
#    x 4.073370 0.000000 0.000000 
#    y 0.000000 3.751550 0.000000 
#    z 0.000000 0.000000 3.887880 
# 
# 
# High freq. dielectric constant tensor:
#      x y z
#    x 1.807050 0.000000 0.000000 
#    y 0.000000 1.806700 0.000000 
#    z 0.000000 0.000000 1.806500 
# 
# From -- ./inp_files/63862.got.cif
#   From: 2010.03.12/outbox.cif.g09.slc.cpg/sg66_32_cif.got.tgz:63862.got - 2010.04.10 21:57:39.
