data_PCOD8275819
_publ_section_title
;
Structure prediction by ZEFSAII (Michael W. Deem and Ramdas Pophale) SiO2 
 PCOD8275819
Probable space group: C C C M
;
_chemical_formula_sum "Si O2"
_cell_formula_units_Z 96
_cell_length_a 9.632128
_cell_length_b 22.407333
_cell_length_c 25.617854
_cell_angle_alpha 90.000000
_cell_angle_beta 90.000000
_cell_angle_gamma 90.000000
_cell_volume 5529.109104
_symmetry_space_group_name_H-M "C C C M"
_symmetry_group_IT_number 66
_symmetry_cell_setting 'orthorhombic'
loop_
_space_group_symop_operation_xyz
x,y,z
-x,-y,z
x,-y,1/2-z
-x,y,1/2-z
-x,-y,-z
x,y,-z
-x,y,1/2+z
x,-y,1/2+z
1/2+x,1/2+y,z
1/2-x,1/2-y,z
1/2+x,1/2-y,1/2-z
1/2-x,1/2+y,1/2-z
1/2-x,1/2-y,-z
1/2+x,1/2+y,-z
1/2-x,1/2+y,1/2+z
1/2+x,1/2-y,1/2+z
loop_
_atom_site_type_symbol
_atom_site_label
_atom_site_fract_x
_atom_site_fract_y
_atom_site_fract_z
Si Si1 0.845817 0.007343 0.811232
Si Si2 0.472662 0.822686 0.138031
Si Si3 0.261259 0.635931 0.791522
Si Si4 0.244473 0.179331 0.441977
Si Si5 0.515994 0.315486 0.860696
Si Si6 0.747612 0.883499 0.830965
O O1 0.776568 0.071672 0.820606
O O2 0.858790 0.000000 0.750000
O O3 0.751734 0.955281 0.836240
O O4 0.000000 0.000000 0.835660
O O5 0.378913 0.832508 0.189307
O O6 0.383806 0.842614 0.087368
O O7 0.520229 0.754138 0.134744
O O8 0.607937 0.863385 0.140906
O O9 0.395830 0.674529 0.807651
O O10 0.253636 0.634468 0.729507
O O11 0.238520 0.151102 0.500000
O O12 0.250000 0.250000 0.444881
O O13 0.107483 0.161078 0.409645
O O14 0.375492 0.353143 0.860717
#
# Coordination Sequence:
#
# PCOD8275819 Si02
#       6
#    16  16  16  16  16  16
#     4   9  17  31  48  65  90 133 179 202 220 263
#     4  10  21  31  45  76 103 125 160 195 246 303
#     4  10  19  32  48  67  99 141 170 191 225 282
#     4   8  16  34  54  68  91 128 165 201 242 297
#     4  10  19  31  49  73  98 128 166 195 236 300
#     4  11  20  30  47  72 105 131 158 205 240 270
#
# _framework density 17.362652000000001
#
# number of rings (size 3 to 8) (size 9 to 14) (size 15 to 20)
#    0.000    2.333    1.667    3.000    0.000    4.667 
#    0.000    3.333    0.000    4.000    0.000   18.667 
#    0.000    0.000    0.000    0.000    0.000    0.000 
#
# Total GULP energy -595039.109389 kJ/mol
# GULP energy per Si atom -12396.648112 kJ/mol
# Density = 1.732313 g / cm^3
# Si number density = 17.362652 Si / 1000 Ang^3
#
#
#
# Elastic Constant Matrix: (Units=GPa)
#
#
# Indices 1 2 3 4 5 6 
#
# 1 121.6686 33.0170 36.7943 0.0000 0.0000 0.0000
# 2 33.0170 76.3803 20.0179 0.0000 0.0000 0.0000
# 3 36.7943 20.0179 88.2619 0.0000 0.0000 0.0000
# 4 0.0000 0.0000 0.0000 8.9239 0.0000 0.0000
# 5 0.0000 0.0000 0.0000 0.0000 5.1488 0.0000
# 6 0.0000 0.0000 0.0000 0.0000 0.0000 23.4695
#
#
#
# Elastic Compliance Matrix: (Units=1/GPa)
#
#
# Indices 1 2 3 4 5 6 
#
# 1 0.010219 -0.003509 -0.003464 0.000000 0.000000 0.000000
# 2 -0.003509 0.015125 -0.001967 0.000000 0.000000 0.000000
# 3 -0.003464 -0.001967 0.013220 0.000000 0.000000 0.000000
# 4 0.000000 0.000000 0.000000 0.112058 0.000000 0.000000
# 5 0.000000 0.000000 0.000000 0.000000 0.194220 0.000000
# 6 0.000000 0.000000 0.000000 0.000000 0.000000 0.042608
#
#
# Mechanical properties :
#
#
# Convention : Reuss Voigt Hill
#
# Bulk Modulus (GPa) = 48.35040 51.77437 50.06238
# Shear Modulus (GPa) = 12.12924 20.60723 16.36823
#
# Velocity S-wave (km/s) = 2.64594 3.44884 3.07372
# Velocity P-wave (km/s) = 6.10266 6.76339 6.44150
#
# Compressibility (1/GPa) = 0.02068235
#
# Stress axis : x y z
#
# Youngs Moduli (GPa) = 97.85691 66.11553 75.64174
#
# Poissons Ratio (x) = 0.23203 0.26203
# Poissons Ratio (y) = 0.34343 0.14881
# Poissons Ratio (z) = 0.33899 0.13007
#
# Static dielectric constant tensor:
#      x y z
#    x 3.285620 0.000000 0.000000 
#    y 0.000000 3.377990 0.000000 
#    z 0.000000 0.000000 3.193220 
# 
# 
# High freq. dielectric constant tensor:
#      x y z
#    x 1.672960 0.000000 0.000000 
#    y 0.000000 1.665160 0.000000 
#    z 0.000000 0.000000 1.632630 
# 
# From -- ./inp_files/59833.got.cif
#   From: 2010.03.12/outbox.cif.g09.slc.cpg/sg66_30_cif.got.tgz:59833.got - 2010.04.10 21:57:39.
