data_PCOD8275584
_publ_section_title
;
Structure prediction by ZEFSAII (Michael W. Deem and Ramdas Pophale) SiO2 
 PCOD8275584
Probable space group: C C C M
;
_chemical_formula_sum "Si O2"
_cell_formula_units_Z 96
_cell_length_a 30.492413
_cell_length_b 19.636846
_cell_length_c 8.677678
_cell_angle_alpha 90.000000
_cell_angle_beta 90.000000
_cell_angle_gamma 90.000000
_cell_volume 5195.975067
_symmetry_space_group_name_H-M "C C C M"
_symmetry_group_IT_number 66
_symmetry_cell_setting 'orthorhombic'
loop_
_space_group_symop_operation_xyz
x,y,z
-x,-y,z
x,-y,1/2-z
-x,y,1/2-z
-x,-y,-z
x,y,-z
-x,y,1/2+z
x,-y,1/2+z
1/2+x,1/2+y,z
1/2-x,1/2-y,z
1/2+x,1/2-y,1/2-z
1/2-x,1/2+y,1/2-z
1/2-x,1/2-y,-z
1/2+x,1/2+y,-z
1/2-x,1/2+y,1/2+z
1/2+x,1/2-y,1/2+z
loop_
_atom_site_type_symbol
_atom_site_label
_atom_site_fract_x
_atom_site_fract_y
_atom_site_fract_z
Si Si1 0.741052 0.069908 0.818296
Si Si2 0.874619 0.202763 0.817304
Si Si3 0.951733 0.284691 0.318935
Si Si4 0.452218 0.934796 0.321638
Si Si5 0.836440 0.928854 0.182778
Si Si6 0.292601 0.212358 0.318256
O O1 0.788048 0.086528 0.745954
O O2 0.708563 0.132078 0.775845
O O3 0.721105 0.000000 0.750000
O O4 0.747410 0.062010 0.000000
O O5 0.921528 0.230827 0.767425
O O6 0.869191 0.129529 0.739196
O O7 0.836827 0.253663 0.752955
O O8 0.872394 0.194889 0.000000
O O9 0.953480 0.269036 0.500000
O O10 0.931347 0.360533 0.288046
O O11 0.000000 0.277751 0.250000
O O12 0.500000 0.933492 0.250000
O O13 0.456380 0.948556 0.500000
O O14 0.425702 0.000000 0.250000
O O15 0.854157 0.000000 0.250000
O O16 0.835210 0.932425 0.000000
O O17 0.291660 0.222403 0.500000
O O18 0.250000 0.250000 0.246577
#
# Coordination Sequence:
#
# PCOD8275584 Si02
#       6
#    16  16  16  16  16  16
#     4  10  18  32  52  75 106 145 186 225 269 322
#     4  11  21  36  58  82 108 144 184 226 275 326
#     4  10  21  37  55  80 110 143 183 231 279 330
#     4   9  16  27  47  72 100 131 170 217 264 313
#     4  11  21  34  53  80 110 141 179 224 269 322
#     4   9  17  32  53  76 106 143 179 217 264 324
#
# _framework density 18.475839000000001
#
# number of rings (size 3 to 8) (size 9 to 14) (size 15 to 20)
#    0.000    2.000    1.667    5.000    0.000    2.000 
#    0.000    5.000    0.000    4.500    0.000    3.500 
#    0.000    0.000    0.000    0.000    0.000    0.000 
#
# Total GULP energy -594997.957779 kJ/mol
# GULP energy per Si atom -12395.790787 kJ/mol
# Density = 1.843379 g / cm^3
# Si number density = 18.475839 Si / 1000 Ang^3
#
#
#
# Elastic Constant Matrix: (Units=GPa)
#
#
# Indices 1 2 3 4 5 6 
#
# 1 66.7982 53.5250 23.1123 0.0000 0.0000 0.0000
# 2 53.5250 156.0688 58.7792 0.0000 0.0000 0.0000
# 3 23.1123 58.7792 107.4415 0.0000 0.0000 0.0000
# 4 0.0000 0.0000 0.0000 34.5902 0.0000 0.0000
# 5 0.0000 0.0000 0.0000 0.0000 11.3531 0.0000
# 6 0.0000 0.0000 0.0000 0.0000 0.0000 -15.4591
#
#
#
# Elastic Compliance Matrix: (Units=1/GPa)
#
#
# Indices 1 2 3 4 5 6 
#
# 1 0.020687 -0.006825 -0.000716 0.000000 0.000000 0.000000
# 2 -0.006825 0.010322 -0.004179 0.000000 0.000000 0.000000
# 3 -0.000716 -0.004179 0.011748 0.000000 0.000000 0.000000
# 4 0.000000 0.000000 0.000000 0.028910 0.000000 0.000000
# 5 0.000000 0.000000 0.000000 0.000000 0.088082 0.000000
# 6 0.000000 0.000000 0.000000 0.000000 0.000000 -0.064687
#
#
# Mechanical properties :
#
#
# Convention : Reuss Voigt Hill
#
# Bulk Modulus (GPa) = 51.76915 66.79351 59.28133
# Shear Modulus (GPa) = 40.01893 19.08964 29.55428
#
# Velocity S-wave (km/s) = 4.65909 3.21786 4.00386
# Velocity P-wave (km/s) = 7.55140 7.07365 7.31642
#
# Compressibility (1/GPa) = 0.01931652
#
# Stress axis : x y z
#
# Youngs Moduli (GPa) = 48.33913 96.88077 85.12385
#
# Poissons Ratio (x) = 0.66122 0.06097
# Poissons Ratio (y) = 0.32992 0.35571
# Poissons Ratio (z) = 0.03462 0.40484
#
# Static dielectric constant tensor:
#      x y z
#    x 3.084560 0.000000 0.000000 
#    y 0.000000 3.977970 0.000000 
#    z 0.000000 0.000000 3.373820 
# 
# 
# High freq. dielectric constant tensor:
#      x y z
#    x 1.671580 0.000000 0.000000 
#    y 0.000000 1.734740 0.000000 
#    z 0.000000 0.000000 1.719440 
# 
# From -- ./inp_files/10256.got.cif
#   From: 2010.03.12/outbox.cif.g09.slc.cpg/sg66_6_cif.got.tgz:10256.got - 2010.04.10 21:57:39.
