data_PCOD8275739
_publ_section_title
;
Structure prediction by ZEFSAII (Michael W. Deem and Ramdas Pophale) SiO2 
 PCOD8275739
Probable space group: C C C M
;
_chemical_formula_sum "Si O2"
_cell_formula_units_Z 84
_cell_length_a 13.534607
_cell_length_b 19.366445
_cell_length_c 18.410215
_cell_angle_alpha 90.000000
_cell_angle_beta 90.000000
_cell_angle_gamma 90.000000
_cell_volume 4825.634413
_symmetry_space_group_name_H-M "C C C M"
_symmetry_group_IT_number 66
_symmetry_cell_setting 'orthorhombic'
loop_
_space_group_symop_operation_xyz
x,y,z
-x,-y,z
x,-y,1/2-z
-x,y,1/2-z
-x,-y,-z
x,y,-z
-x,y,1/2+z
x,-y,1/2+z
1/2+x,1/2+y,z
1/2-x,1/2-y,z
1/2+x,1/2-y,1/2-z
1/2-x,1/2+y,1/2-z
1/2-x,1/2-y,-z
1/2+x,1/2+y,-z
1/2-x,1/2+y,1/2+z
1/2+x,1/2-y,1/2+z
loop_
_atom_site_type_symbol
_atom_site_label
_atom_site_fract_x
_atom_site_fract_y
_atom_site_fract_z
Si Si1 0.500000 0.500000 0.750000
Si Si2 0.654601 0.421312 0.156261
Si Si3 0.498561 0.339420 0.082407
Si Si4 0.239330 0.638916 0.715451
Si Si5 0.180124 0.060326 0.917698
Si Si6 0.591214 0.252565 0.301300
O O1 0.432151 0.550799 0.794234
O O2 0.607234 0.354995 0.115681
O O3 0.748910 0.403685 0.208586
O O4 0.682147 0.478218 0.095866
O O5 0.429791 0.407869 0.090938
O O6 0.445892 0.272526 0.118082
O O7 0.513559 0.317912 0.000000
O O8 0.248923 0.593062 0.643058
O O9 0.323787 0.695522 0.721684
O O10 0.132075 0.674584 0.706638
O O11 0.218927 0.074403 0.000000
O O12 0.500000 0.264392 0.250000
#
# Coordination Sequence:
#
# PCOD8275739 Si02
#       6
#     4  16  16  16  16  16
#     4  12  16  24  50  68  98 136 150 200 254 292
#     4  12  17  29  48  75 106 133 167 205 261 317
#     4  10  19  30  49  77 106 137 166 206 269 319
#     4  10  20  31  52  76 100 138 176 208 259 309
#     4  10  19  29  45  76 110 133 162 207 264 318
#     4  10  19  35  52  71 101 137 176 220 248 295
#
# _framework density 17.407039000000001
#
# number of rings (size 3 to 8) (size 9 to 14) (size 15 to 20)
#    0.000    1.524    5.714    1.714    0.000    2.286 
#    0.000    3.810    0.000    5.714    0.000    1.333 
#    0.000    0.000    0.000    0.000    0.000    0.000 
#
# Total GULP energy -520503.442468 kJ/mol
# GULP energy per Si atom -12392.939106 kJ/mol
# Density = 1.736742 g / cm^3
# Si number density = 17.407039 Si / 1000 Ang^3
#
#
#
# Elastic Constant Matrix: (Units=GPa)
#
#
# Indices 1 2 3 4 5 6 
#
# 1 34.3481 27.1381 27.2917 0.0000 0.0000 0.0000
# 2 27.1381 58.7984 35.5009 0.0000 0.0000 0.0000
# 3 27.2917 35.5009 123.1850 0.0000 0.0000 0.0000
# 4 0.0000 0.0000 0.0000 22.1306 0.0000 0.0000
# 5 0.0000 0.0000 0.0000 0.0000 7.1539 0.0000
# 6 0.0000 0.0000 0.0000 0.0000 0.0000 -9.3219
#
#
#
# Elastic Compliance Matrix: (Units=1/GPa)
#
#
# Indices 1 2 3 4 5 6 
#
# 1 0.048418 -0.019213 -0.005190 0.000000 0.000000 0.000000
# 2 -0.019213 0.028214 -0.003874 0.000000 0.000000 0.000000
# 3 -0.005190 -0.003874 0.010384 0.000000 0.000000 0.000000
# 4 0.000000 0.000000 0.000000 0.045186 0.000000 0.000000
# 5 0.000000 0.000000 0.000000 0.000000 0.139783 0.000000
# 6 0.000000 0.000000 0.000000 0.000000 0.000000 -0.107275
#
#
# Mechanical properties :
#
#
# Convention : Reuss Voigt Hill
#
# Bulk Modulus (GPa) = 32.82889 44.02144 38.42517
# Shear Modulus (GPa) = 21.60574 12.41926 17.01250
#
# Velocity S-wave (km/s) = 3.52690 2.67397 3.12963
# Velocity P-wave (km/s) = 5.95700 5.90574 5.93143
#
# Compressibility (1/GPa) = 0.03046097
#
# Stress axis : x y z
#
# Youngs Moduli (GPa) = 20.65361 35.44289 96.29971
#
# Poissons Ratio (x) = 0.68098 0.49977
# Poissons Ratio (y) = 0.39683 0.37310
# Poissons Ratio (z) = 0.10719 0.13732
#
# Static dielectric constant tensor:
#      x y z
#    x 2.922890 0.000000 0.000000 
#    y 0.000000 3.328280 0.000000 
#    z 0.000000 0.000000 3.685670 
# 
# 
# High freq. dielectric constant tensor:
#      x y z
#    x 1.619600 0.000000 0.000000 
#    y 0.000000 1.653960 0.000000 
#    z 0.000000 0.000000 1.684920 
# 
# From -- ./inp_files/38557.got.cif
#   From: 2010.03.12/outbox.cif.g09.slc.cpg/sg66_20_cif.got.tgz:38557.got - 2010.04.10 21:57:39.
