data_PCOD8275102
_publ_section_title
;
Structure prediction by ZEFSAII (Michael W. Deem and Ramdas Pophale) SiO2 
 PCOD8275102
Probable space group: C M M M
;
_chemical_formula_sum "Si O2"
_cell_formula_units_Z 88
_cell_length_a 17.875039
_cell_length_b 29.051114
_cell_length_c 9.273860
_cell_angle_alpha 90.000000
_cell_angle_beta 90.000000
_cell_angle_gamma 90.000000
_cell_volume 4815.820865
_symmetry_space_group_name_H-M "C M M M"
_symmetry_group_IT_number 65
_symmetry_cell_setting 'orthorhombic'
loop_
_space_group_symop_operation_xyz
x,y,z
-x,-y,z
x,-y,-z
-x,y,-z
-x,-y,-z
x,y,-z
-x,y,z
x,-y,z
1/2+x,1/2+y,z
1/2-x,1/2-y,z
1/2+x,1/2-y,-z
1/2-x,1/2+y,-z
1/2-x,1/2-y,-z
1/2+x,1/2+y,-z
1/2-x,1/2+y,z
1/2+x,1/2-y,z
loop_
_atom_site_type_symbol
_atom_site_label
_atom_site_fract_x
_atom_site_fract_y
_atom_site_fract_z
Si Si1 0.911080 0.290932 0.162614
Si Si2 0.212567 0.448363 0.670776
Si Si3 0.643432 0.604868 0.328623
Si Si4 0.085696 0.380139 0.668335
Si Si5 0.587389 0.702253 0.667457
Si Si6 0.500000 0.448264 0.672152
O O1 0.882789 0.336136 0.245943
O O2 0.881374 0.245302 0.242027
O O3 0.000000 0.290348 0.166003
O O4 0.880034 0.291802 0.000000
O O5 0.220464 0.451424 0.500000
O O6 0.214214 0.500000 0.736455
O O7 0.280794 0.417811 0.733809
O O8 0.134499 0.424335 0.713730
O O9 0.642504 0.602010 0.500000
O O10 0.635542 0.658118 0.281785
O O11 0.573407 0.576618 0.265700
O O12 0.094299 0.368677 0.500000
O O13 0.000000 0.391485 0.708569
O O14 0.599900 0.713518 0.500000
O O15 0.500000 0.692144 0.697351
O O16 0.500000 0.500000 0.730357
O O17 0.500000 0.446677 0.500000
#
# Coordination Sequence:
#
# PCOD8275102 Si02
#       6
#    16  16  16  16  16   8
#     4   9  17  29  47  70  93 118 152 192 233 275
#     4   9  17  28  43  65  93 122 152 190 232 271
#     4   9  15  24  38  62  94 126 155 184 224 270
#     4   9  17  30  48  69  92 120 154 189 229 277
#     4   9  15  25  43  67  95 124 153 184 221 269
#     4   9  14  20  34  58  91 127 157 185 222 269
#
# _framework density 18.273105999999999
#
# number of rings (size 3 to 8) (size 9 to 14) (size 15 to 20)
#    0.000    3.000    0.909    1.091    0.000    4.727 
#    0.000    2.727    0.000    7.091    0.000    2.545 
#    0.000    2.909    0.000    0.000    0.000    0.000 
#
# Total GULP energy -545464.675779 kJ/mol
# GULP energy per Si atom -12396.924450 kJ/mol
# Density = 1.823152 g / cm^3
# Si number density = 18.273106 Si / 1000 Ang^3
#
#
#
# Elastic Constant Matrix: (Units=GPa)
#
#
# Indices 1 2 3 4 5 6 
#
# 1 94.4198 71.0188 22.0051 0.0000 0.0000 0.0000
# 2 71.0188 171.9690 43.6290 0.0000 0.0000 0.0000
# 3 22.0051 43.6290 44.3227 0.0000 0.0000 0.0000
# 4 0.0000 0.0000 0.0000 2.5198 0.0000 0.0000
# 5 0.0000 0.0000 0.0000 0.0000 6.2725 0.0000
# 6 0.0000 0.0000 0.0000 0.0000 0.0000 29.7168
#
#
#
# Elastic Compliance Matrix: (Units=1/GPa)
#
#
# Indices 1 2 3 4 5 6 
#
# 1 0.015477 -0.005921 -0.001856 0.000000 0.000000 0.000000
# 2 -0.005921 0.010016 -0.006919 0.000000 0.000000 0.000000
# 3 -0.001856 -0.006919 0.030294 0.000000 0.000000 0.000000
# 4 0.000000 0.000000 0.000000 0.396855 0.000000 0.000000
# 5 0.000000 0.000000 0.000000 0.000000 0.159425 0.000000
# 6 0.000000 0.000000 0.000000 0.000000 0.000000 0.033651
#
#
# Mechanical properties :
#
#
# Convention : Reuss Voigt Hill
#
# Bulk Modulus (GPa) = 37.88609 64.89081 51.38845
# Shear Modulus (GPa) = 7.31093 19.30573 13.30833
#
# Velocity S-wave (km/s) = 2.00240 3.25393 2.70163
# Velocity P-wave (km/s) = 5.11120 7.05026 6.15754
#
# Compressibility (1/GPa) = 0.02639492
#
# Stress axis : x y z
#
# Youngs Moduli (GPa) = 64.61269 99.84467 33.00963
#
# Poissons Ratio (x) = 0.59115 0.06126
# Poissons Ratio (y) = 0.38255 0.22840
# Poissons Ratio (z) = 0.11991 0.69086
#
# Static dielectric constant tensor:
#      x y z
#    x 3.277640 0.000000 0.000000 
#    y 0.000000 3.594400 0.000000 
#    z 0.000000 0.000000 2.904330 
# 
# 
# High freq. dielectric constant tensor:
#      x y z
#    x 1.689650 0.000000 0.000000 
#    y 0.000000 1.722940 0.000000 
#    z 0.000000 0.000000 1.647190 
# 
# From -- ./inp_files/10064.got.cif
#   From: 2010.03.12/outbox.cif.g09.slc.cpg/sg65_6_cif.got.tgz:10064.got - 2010.04.10 20:52:16.
