data_PCOD8275613
_publ_section_title
;
Structure prediction by ZEFSAII (Michael W. Deem and Ramdas Pophale) SiO2 
 PCOD8275613
Probable space group: C C C M
;
_chemical_formula_sum "Si O2"
_cell_formula_units_Z 96
_cell_length_a 11.296566
_cell_length_b 23.061212
_cell_length_c 19.246494
_cell_angle_alpha 90.000000
_cell_angle_beta 90.000000
_cell_angle_gamma 90.000000
_cell_volume 5013.952334
_symmetry_space_group_name_H-M "C C C M"
_symmetry_group_IT_number 66
_symmetry_cell_setting 'orthorhombic'
loop_
_space_group_symop_operation_xyz
x,y,z
-x,-y,z
x,-y,1/2-z
-x,y,1/2-z
-x,-y,-z
x,y,-z
-x,y,1/2+z
x,-y,1/2+z
1/2+x,1/2+y,z
1/2-x,1/2-y,z
1/2+x,1/2-y,1/2-z
1/2-x,1/2+y,1/2-z
1/2-x,1/2-y,-z
1/2+x,1/2+y,-z
1/2-x,1/2+y,1/2+z
1/2+x,1/2-y,1/2+z
loop_
_atom_site_type_symbol
_atom_site_label
_atom_site_fract_x
_atom_site_fract_y
_atom_site_fract_z
Si Si1 0.565679 0.695772 0.922250
Si Si2 0.765990 0.397398 0.422171
Si Si3 0.829812 0.696445 0.313613
Si Si4 0.179598 0.862062 0.920463
Si Si5 0.871494 0.004174 0.920654
Si Si6 0.894307 0.305473 0.338384
O O1 0.647281 0.639957 0.920608
O O2 0.436941 0.673831 0.896041
O O3 0.633427 0.745013 0.877574
O O4 0.552946 0.720824 0.000000
O O5 0.815395 0.405479 0.500000
O O6 0.727510 0.459863 0.388501
O O7 0.869795 0.364284 0.380968
O O8 0.750000 0.750000 0.337866
O O9 0.783375 0.646258 0.364262
O O10 0.814955 0.687005 0.231002
O O11 0.967557 0.702768 0.326143
O O12 0.167459 0.930392 0.916678
O O13 0.213253 0.844042 0.000000
O O14 0.886134 0.982147 0.000000
O O15 0.000000 0.000000 0.883243
#
# Coordination Sequence:
#
# PCOD8275613 Si02
#       6
#    16  16  16  16  16  16
#     4  10  18  32  58  88 116 144 182 239 292 342
#     4  10  19  33  57  87 116 147 186 237 291 340
#     4  11  23  40  56  77 112 156 192 232 292 351
#     4  10  20  35  59  89 115 146 193 243 290 347
#     4   9  16  32  58  86 116 148 187 240 297 340
#     4  11  23  37  55  81 116 154 193 233 290 356
#
# _framework density 19.146571999999999
#
# number of rings (size 3 to 8) (size 9 to 14) (size 15 to 20)
#    0.000    1.833    3.333    2.000    0.000    3.000 
#    0.000    1.667    0.000    6.000    0.000    0.000 
#    0.000    0.000    0.000    0.000    0.000    0.000 
#
# Total GULP energy -594681.160227 kJ/mol
# GULP energy per Si atom -12389.190838 kJ/mol
# Density = 1.910299 g / cm^3
# Si number density = 19.146572 Si / 1000 Ang^3
#
#
#
# Elastic Constant Matrix: (Units=GPa)
#
#
# Indices 1 2 3 4 5 6 
#
# 1 63.2240 29.6876 32.1629 0.0000 0.0000 0.0000
# 2 29.6876 106.1807 47.1799 0.0000 0.0000 0.0000
# 3 32.1629 47.1799 85.6151 0.0000 0.0000 0.0000
# 4 0.0000 0.0000 0.0000 13.5696 0.0000 0.0000
# 5 0.0000 0.0000 0.0000 0.0000 20.0960 0.0000
# 6 0.0000 0.0000 0.0000 0.0000 0.0000 37.3534
#
#
#
# Elastic Compliance Matrix: (Units=1/GPa)
#
#
# Indices 1 2 3 4 5 6 
#
# 1 0.020261 -0.003023 -0.005945 0.000000 0.000000 0.000000
# 2 -0.003023 0.012923 -0.005986 0.000000 0.000000 0.000000
# 3 -0.005945 -0.005986 0.017212 0.000000 0.000000 0.000000
# 4 0.000000 0.000000 0.000000 0.073694 0.000000 0.000000
# 5 0.000000 0.000000 0.000000 0.000000 0.049761 0.000000
# 6 0.000000 0.000000 0.000000 0.000000 0.000000 0.026771
#
#
# Mechanical properties :
#
#
# Convention : Reuss Voigt Hill
#
# Bulk Modulus (GPa) = 48.81031 52.56451 50.68741
# Shear Modulus (GPa) = 21.06504 23.93643 22.50074
#
# Velocity S-wave (km/s) = 3.32052 3.53961 3.43181
# Velocity P-wave (km/s) = 6.34425 6.64969 6.49877
#
# Compressibility (1/GPa) = 0.02048748
#
# Stress axis : x y z
#
# Youngs Moduli (GPa) = 49.35631 77.38268 58.09822
#
# Poissons Ratio (x) = 0.23393 0.34542
# Poissons Ratio (y) = 0.14921 0.34776
# Poissons Ratio (z) = 0.29345 0.46319
#
# Static dielectric constant tensor:
#      x y z
#    x 3.427650 0.000000 0.000000 
#    y 0.000000 3.459950 0.000000 
#    z 0.000000 0.000000 3.701130 
# 
# 
# High freq. dielectric constant tensor:
#      x y z
#    x 1.740650 0.000000 0.000000 
#    y 0.000000 1.742200 0.000000 
#    z 0.000000 0.000000 1.722830 
# 
# From -- ./inp_files/38809.got.cif
#   From: 2010.03.12/outbox.cif.g09.slc.cpg/sg66_20_cif.got.tgz:38809.got - 2010.04.10 21:57:39.
