data_PCOD8275514
_publ_section_title
;
Structure prediction by ZEFSAII (Michael W. Deem and Ramdas Pophale) SiO2 
 PCOD8275514
Probable space group: C C C M
;
_chemical_formula_sum "Si O2"
_cell_formula_units_Z 64
_cell_length_a 41.575879
_cell_length_b 9.695917
_cell_length_c 8.640817
_cell_angle_alpha 90.000000
_cell_angle_beta 90.000000
_cell_angle_gamma 90.000000
_cell_volume 3483.253936
_symmetry_space_group_name_H-M "C C C M"
_symmetry_group_IT_number 66
_symmetry_cell_setting 'orthorhombic'
loop_
_space_group_symop_operation_xyz
x,y,z
-x,-y,z
x,-y,1/2-z
-x,y,1/2-z
-x,-y,-z
x,y,-z
-x,y,1/2+z
x,-y,1/2+z
1/2+x,1/2+y,z
1/2-x,1/2-y,z
1/2+x,1/2-y,1/2-z
1/2-x,1/2+y,1/2-z
1/2-x,1/2-y,-z
1/2+x,1/2+y,-z
1/2-x,1/2+y,1/2+z
1/2+x,1/2-y,1/2+z
loop_
_atom_site_type_symbol
_atom_site_label
_atom_site_fract_x
_atom_site_fract_y
_atom_site_fract_z
Si Si1 0.090821 0.151325 0.182751
Si Si2 0.466160 0.147930 0.817362
Si Si3 0.779068 0.848668 0.182499
Si Si4 0.844209 0.846976 0.683487
O O1 0.060895 0.244191 0.233757
O O2 0.123114 0.223114 0.252708
O O3 0.084941 0.000000 0.250000
O O4 0.094598 0.141057 0.000000
O O5 0.500000 0.200639 0.750000
O O6 0.456622 0.000000 0.750000
O O7 0.469169 0.135422 0.000000
O O8 0.750000 0.750000 0.231084
O O9 0.811429 0.778105 0.252833
O O10 0.772506 0.000000 0.250000
O O11 0.782995 0.861511 0.000000
O O12 0.844216 0.845626 0.500000
O O13 0.844352 0.000000 0.750000
#
# Coordination Sequence:
#
# PCOD8275514 Si02
#       4
#    16  16  16  16
#     4  10  20  34  53  78 104 132 168 210 253 298
#     4  10  21  36  55  76 102 136 171 207 250 302
#     4  10  20  34  53  76 103 135 170 209 252 300
#     4  10  18  30  51  75 101 134 168 206 252 301
#
# _framework density 18.373624
#
# number of rings (size 3 to 8) (size 9 to 14) (size 15 to 20)
#    0.000    2.000    0.000    8.250    0.000    6.500 
#    0.000    3.750    0.000    0.000    0.000    0.000 
#    0.000    0.000    0.000    0.000    0.000    0.000 
#
# Total GULP energy -396728.535812 kJ/mol
# GULP energy per Si atom -12397.766744 kJ/mol
# Density = 1.833181 g / cm^3
# Si number density = 18.373624 Si / 1000 Ang^3
#
#
#
# Elastic Constant Matrix: (Units=GPa)
#
#
# Indices 1 2 3 4 5 6 
#
# 1 211.7656 85.4461 82.2209 0.0000 0.0000 0.0000
# 2 85.4461 69.9173 39.4903 0.0000 0.0000 0.0000
# 3 82.2209 39.4903 117.1078 0.0000 0.0000 0.0000
# 4 0.0000 0.0000 0.0000 24.1913 0.0000 0.0000
# 5 0.0000 0.0000 0.0000 0.0000 38.3442 0.0000
# 6 0.0000 0.0000 0.0000 0.0000 0.0000 30.4975
#
#
#
# Elastic Compliance Matrix: (Units=1/GPa)
#
#
# Indices 1 2 3 4 5 6 
#
# 1 0.010507 -0.010715 -0.003764 0.000000 0.000000 0.000000
# 2 -0.010715 0.028594 -0.002120 0.000000 0.000000 0.000000
# 3 -0.003764 -0.002120 0.011896 0.000000 0.000000 0.000000
# 4 0.000000 0.000000 0.000000 0.041337 0.000000 0.000000
# 5 0.000000 0.000000 0.000000 0.000000 0.026080 0.000000
# 6 0.000000 0.000000 0.000000 0.000000 0.000000 0.032790
#
#
# Mechanical properties :
#
#
# Convention : Reuss Voigt Hill
#
# Bulk Modulus (GPa) = 56.17511 90.34503 73.26007
# Shear Modulus (GPa) = 26.26973 31.38215 28.82594
#
# Velocity S-wave (km/s) = 3.78531 4.13728 3.96520
# Velocity P-wave (km/s) = 7.05301 8.49121 7.80530
#
# Compressibility (1/GPa) = 0.01780148
#
# Stress axis : x y z
#
# Youngs Moduli (GPa) = 95.17681 34.97225 84.05922
#
# Poissons Ratio (x) = 0.37471 0.31637
# Poissons Ratio (y) = 1.01978 0.17818
# Poissons Ratio (z) = 0.35821 0.07413
#
# Static dielectric constant tensor:
#      x y z
#    x 4.333050 0.000000 0.000000 
#    y 0.000000 3.102300 0.000000 
#    z 0.000000 0.000000 3.509560 
# 
# 
# High freq. dielectric constant tensor:
#      x y z
#    x 1.738360 0.000000 0.000000 
#    y 0.000000 1.671380 0.000000 
#    z 0.000000 0.000000 1.733910 
# 
# From -- ./inp_files/11190.got.cif
#   From: 2010.03.12/outbox.cif.g09.slc.cpg/sg66_6_cif.got.tgz:11190.got - 2010.04.10 21:57:39.
