data_PCOD8275323
_publ_section_title
;
Structure prediction by ZEFSAII (Michael W. Deem and Ramdas Pophale) SiO2 
 PCOD8275323
Probable space group: C C C M
;
_chemical_formula_sum "Si O2"
_cell_formula_units_Z 116
_cell_length_a 24.945897
_cell_length_b 13.714808
_cell_length_c 18.966087
_cell_angle_alpha 90.000000
_cell_angle_beta 90.000000
_cell_angle_gamma 90.000000
_cell_volume 6488.832974
_symmetry_space_group_name_H-M "C C C M"
_symmetry_group_IT_number 66
_symmetry_cell_setting 'orthorhombic'
loop_
_space_group_symop_operation_xyz
x,y,z
-x,-y,z
x,-y,1/2-z
-x,y,1/2-z
-x,-y,-z
x,y,-z
-x,y,1/2+z
x,-y,1/2+z
1/2+x,1/2+y,z
1/2-x,1/2-y,z
1/2+x,1/2-y,1/2-z
1/2-x,1/2+y,1/2-z
1/2-x,1/2-y,-z
1/2+x,1/2+y,-z
1/2-x,1/2+y,1/2+z
1/2+x,1/2-y,1/2+z
loop_
_atom_site_type_symbol
_atom_site_label
_atom_site_fract_x
_atom_site_fract_y
_atom_site_fract_z
Si Si1 0.689875 0.220491 0.082670
Si Si2 0.624980 0.037125 0.081172
Si Si3 0.500000 0.000000 0.250000
Si Si4 0.558841 0.327020 0.714344
Si Si5 0.099471 0.849933 0.142522
Si Si6 0.070369 0.628747 0.652000
Si Si7 0.532477 0.186001 0.079350
Si Si8 0.940560 0.038033 0.578509
O O1 0.750000 0.250000 0.101680
O O2 0.674260 0.108565 0.104612
O O3 0.654422 0.295921 0.125779
O O4 0.677338 0.232541 0.000000
O O5 0.568940 0.092157 0.096503
O O6 0.621469 0.933817 0.123163
O O7 0.631765 0.009356 0.000000
O O8 0.462075 0.934613 0.294857
O O9 0.500000 0.320108 0.750000
O O10 0.596250 0.376464 0.774248
O O11 0.587063 0.223749 0.696228
O O12 0.561799 0.383934 0.640770
O O13 0.048914 0.778170 0.126938
O O14 0.098330 0.947913 0.096651
O O15 0.029848 0.660460 0.589293
O O16 0.542661 0.220024 0.000000
O O17 0.924578 0.079358 0.500000
O O18 0.000000 0.000000 0.575020
#
# Coordination Sequence:
#
# PCOD8275323 Si02
#       8
#    16  16   4  16  16  16  16  16
#     4   9  19  37  60  86 112 141 191 253 299 334
#     4   9  18  30  48  74 102 137 178 227 279 325
#     4  12  20  28  42  64 102 144 192 210 248 332
#     4  12  23  35  49  76 115 157 188 227 281 340
#     4  11  20  35  56  80 110 146 188 238 289 341
#     4  12  20  30  44  68 108 149 185 216 262 336
#     4  10  17  28  45  71 104 140 181 222 267 329
#     4  11  22  35  54  78 109 151 196 235 277 342
#
# _framework density 17.876867000000001
#
# number of rings (size 3 to 8) (size 9 to 14) (size 15 to 20)
#    0.000    1.379    4.828    2.897    1.931    3.310 
#    0.000    0.000    0.000    3.310    0.000    0.000 
#    0.000    4.966    0.000    0.000    0.000    0.000 
#
# Total GULP energy -718687.816151 kJ/mol
# GULP energy per Si atom -12391.169244 kJ/mol
# Density = 1.783618 g / cm^3
# Si number density = 17.876867 Si / 1000 Ang^3
#
#
#
# Elastic Constant Matrix: (Units=GPa)
#
#
# Indices 1 2 3 4 5 6 
#
# 1 76.0668 32.6149 28.3819 0.0000 0.0000 0.0000
# 2 32.6149 93.9634 50.9892 0.0000 0.0000 0.0000
# 3 28.3819 50.9892 117.3498 0.0000 0.0000 0.0000
# 4 0.0000 0.0000 0.0000 42.6264 0.0000 0.0000
# 5 0.0000 0.0000 0.0000 0.0000 17.6591 0.0000
# 6 0.0000 0.0000 0.0000 0.0000 0.0000 22.3952
#
#
#
# Elastic Compliance Matrix: (Units=1/GPa)
#
#
# Indices 1 2 3 4 5 6 
#
# 1 0.015755 -0.004450 -0.001877 0.000000 0.000000 0.000000
# 2 -0.004450 0.015183 -0.005521 0.000000 0.000000 0.000000
# 3 -0.001877 -0.005521 0.011374 0.000000 0.000000 0.000000
# 4 0.000000 0.000000 0.000000 0.023460 0.000000 0.000000
# 5 0.000000 0.000000 0.000000 0.000000 0.056628 0.000000
# 6 0.000000 0.000000 0.000000 0.000000 0.000000 0.044652
#
#
# Mechanical properties :
#
#
# Convention : Reuss Voigt Hill
#
# Bulk Modulus (GPa) = 53.71565 56.81692 55.26628
# Shear Modulus (GPa) = 25.38680 28.22907 26.80793
#
# Velocity S-wave (km/s) = 3.77250 3.97808 3.87665
# Velocity P-wave (km/s) = 7.00632 7.27678 7.14283
#
# Compressibility (1/GPa) = 0.01861655
#
# Stress axis : x y z
#
# Youngs Moduli (GPa) = 63.47340 65.86346 87.91768
#
# Poissons Ratio (x) = 0.29309 0.16500
# Poissons Ratio (y) = 0.28246 0.48538
# Poissons Ratio (z) = 0.11913 0.36362
#
# Static dielectric constant tensor:
#      x y z
#    x 2.896200 0.000000 0.000000 
#    y 0.000000 3.914840 0.000000 
#    z 0.000000 0.000000 3.648430 
# 
# 
# High freq. dielectric constant tensor:
#      x y z
#    x 1.623240 0.000000 0.000000 
#    y 0.000000 1.696640 0.000000 
#    z 0.000000 0.000000 1.706820 
# 
# From -- ./inp_files/40787.got.cif
#   From: 2010.03.12/outbox.cif.g09.slc.cpg/sg66_21_cif.got.tgz:40787.got - 2010.04.10 21:57:39.
