data_PCOD8275216
_publ_section_title
;
Structure prediction by ZEFSAII (Michael W. Deem and Ramdas Pophale) SiO2 
 PCOD8275216
Probable space group: C C C M
;
_chemical_formula_sum "Si O2"
_cell_formula_units_Z 120
_cell_length_a 28.035185
_cell_length_b 11.833384
_cell_length_c 25.917074
_cell_angle_alpha 90.000000
_cell_angle_beta 90.000000
_cell_angle_gamma 90.000000
_cell_volume 8598.018058
_symmetry_space_group_name_H-M "C C C M"
_symmetry_group_IT_number 66
_symmetry_cell_setting 'orthorhombic'
loop_
_space_group_symop_operation_xyz
x,y,z
-x,-y,z
x,-y,1/2-z
-x,y,1/2-z
-x,-y,-z
x,y,-z
-x,y,1/2+z
x,-y,1/2+z
1/2+x,1/2+y,z
1/2-x,1/2-y,z
1/2+x,1/2-y,1/2-z
1/2-x,1/2+y,1/2-z
1/2-x,1/2-y,-z
1/2+x,1/2+y,-z
1/2-x,1/2+y,1/2+z
1/2+x,1/2-y,1/2+z
loop_
_atom_site_type_symbol
_atom_site_label
_atom_site_fract_x
_atom_site_fract_y
_atom_site_fract_z
Si Si1 0.610386 0.162381 0.846506
Si Si2 0.115925 0.606740 0.348257
Si Si3 0.950430 0.646425 0.442445
Si Si4 0.556575 0.878492 0.056987
Si Si5 0.213347 0.658252 0.693723
Si Si6 0.777093 0.000000 0.250000
Si Si7 0.446377 0.866105 0.748060
Si Si8 0.697116 0.727237 0.297969
O O1 0.584098 0.201212 0.899332
O O2 0.578456 0.191639 0.797039
O O3 0.658772 0.236348 0.841323
O O4 0.618389 0.028486 0.846775
O O5 0.095419 0.658827 0.401132
O O6 0.170680 0.644941 0.346313
O O7 0.083235 0.662448 0.303611
O O8 0.935240 0.687859 0.500000
O O9 0.948281 0.512330 0.439555
O O10 0.005453 0.679780 0.431100
O O11 0.574152 0.842217 0.000000
O O12 0.250000 0.750000 0.671270
O O13 0.243509 0.544881 0.703588
O O14 0.190367 0.692454 0.748571
O O15 0.808944 0.901894 0.277026
O O16 0.500000 0.816844 0.750000
O O17 0.448438 0.000000 0.750000
O O18 0.750000 0.750000 0.321046
#
# Coordination Sequence:
#
# PCOD8275216 Si02
#       8
#    16  16  16  16  16   8  16  16
#     4  10  16  22  37  55  76 103 129 150 182 224
#     4  10  15  22  36  52  78 103 123 155 185 219
#     4   8  14  24  35  51  77 106 133 154 174 215
#     4   8  14  23  35  51  75 107 133 151 179 222
#     4   9  16  25  37  54  75  98 125 154 188 223
#     4   8  16  26  38  50  76 100 124 158 182 220
#     4   9  16  21  29  51  80 101 117 143 185 225
#     4   9  16  25  37  54  75  98 128 154 186 225
#
# _framework density 13.956704
#
# number of rings (size 3 to 8) (size 9 to 14) (size 15 to 20)
#    0.000    3.333    1.333    3.200    0.933    3.200 
#    0.000    0.000    0.000    0.800    0.000    1.400 
#    0.000    1.067    0.000   11.733    0.000    1.067 
#
# Total GULP energy -743313.004199 kJ/mol
# GULP energy per Si atom -12388.550070 kJ/mol
# Density = 1.392494 g / cm^3
# Si number density = 13.956704 Si / 1000 Ang^3
#
#
#
# Elastic Constant Matrix: (Units=GPa)
#
#
# Indices 1 2 3 4 5 6 
#
# 1 108.0079 20.5438 65.8873 0.0000 0.0000 0.0000
# 2 20.5438 32.5695 17.9357 0.0000 0.0000 0.0000
# 3 65.8873 17.9357 106.3418 0.0000 0.0000 0.0000
# 4 0.0000 0.0000 0.0000 7.6796 0.0000 0.0000
# 5 0.0000 0.0000 0.0000 0.0000 25.0132 0.0000
# 6 0.0000 0.0000 0.0000 0.0000 0.0000 17.0819
#
#
#
# Elastic Compliance Matrix: (Units=1/GPa)
#
#
# Indices 1 2 3 4 5 6 
#
# 1 0.015582 -0.004974 -0.008816 0.000000 0.000000 0.000000
# 2 -0.004974 0.035435 -0.002895 0.000000 0.000000 0.000000
# 3 -0.008816 -0.002895 0.015354 0.000000 0.000000 0.000000
# 4 0.000000 0.000000 0.000000 0.130214 0.000000 0.000000
# 5 0.000000 0.000000 0.000000 0.000000 0.039979 0.000000
# 6 0.000000 0.000000 0.000000 0.000000 0.000000 0.058542
#
#
# Mechanical properties :
#
#
# Convention : Reuss Voigt Hill
#
# Bulk Modulus (GPa) = 30.30069 50.62809 40.46439
# Shear Modulus (GPa) = 14.72859 19.45845 17.09352
#
# Velocity S-wave (km/s) = 3.25207 3.73795 3.50344
# Velocity P-wave (km/s) = 5.98823 7.41509 6.73953
#
# Compressibility (1/GPa) = 0.03300255
#
# Stress axis : x y z
#
# Youngs Moduli (GPa) = 64.17480 28.22056 65.13036
#
# Poissons Ratio (x) = 0.14038 0.57416
# Poissons Ratio (y) = 0.31922 0.18853
# Poissons Ratio (z) = 0.56574 0.08169
#
# Static dielectric constant tensor:
#      x y z
#    x 2.853120 0.000000 0.000000 
#    y 0.000000 2.364800 0.000000 
#    z 0.000000 0.000000 2.803760 
# 
# 
# High freq. dielectric constant tensor:
#      x y z
#    x 1.536020 0.000000 0.000000 
#    y 0.000000 1.476780 0.000000 
#    z 0.000000 0.000000 1.515790 
# 
# From -- ./inp_files/66353.got.cif
#   From: 2010.03.12/outbox.cif.g09.slc.cpg/sg66_34_cif.got.tgz:66353.got - 2010.04.10 21:57:39.
