data_PCOD8275743
_publ_section_title
;
Structure prediction by ZEFSAII (Michael W. Deem and Ramdas Pophale) SiO2 
 PCOD8275743
Probable space group: C C C M
;
_chemical_formula_sum "Si O2"
_cell_formula_units_Z 96
_cell_length_a 25.636395
_cell_length_b 9.613711
_cell_length_c 22.399286
_cell_angle_alpha 90.000000
_cell_angle_beta 90.000000
_cell_angle_gamma 90.000000
_cell_volume 5520.548021
_symmetry_space_group_name_H-M "C C C M"
_symmetry_group_IT_number 66
_symmetry_cell_setting 'orthorhombic'
loop_
_space_group_symop_operation_xyz
x,y,z
-x,-y,z
x,-y,1/2-z
-x,y,1/2-z
-x,-y,-z
x,y,-z
-x,y,1/2+z
x,-y,1/2+z
1/2+x,1/2+y,z
1/2-x,1/2-y,z
1/2+x,1/2-y,1/2-z
1/2-x,1/2+y,1/2-z
1/2-x,1/2-y,-z
1/2+x,1/2+y,-z
1/2-x,1/2+y,1/2+z
1/2+x,1/2-y,1/2+z
loop_
_atom_site_type_symbol
_atom_site_label
_atom_site_fract_x
_atom_site_fract_y
_atom_site_fract_z
Si Si1 0.613143 0.484038 0.068564
Si Si2 0.307943 0.252049 0.570657
Si Si3 0.890398 0.526965 0.430485
Si Si4 0.419270 0.751750 0.633790
Si Si5 0.438906 0.654592 0.242524
Si Si6 0.458600 0.263528 0.613593
O O1 0.660839 0.388385 0.092548
O O2 0.612479 0.621733 0.108086
O O3 0.559562 0.396050 0.074789
O O4 0.620529 0.527575 0.000000
O O5 0.304770 0.259738 0.500000
O O6 0.250000 0.250000 0.599142
O O7 0.338593 0.111649 0.588608
O O8 0.889791 0.485518 0.500000
O O9 0.892570 0.389870 0.390607
O O10 0.941042 0.620928 0.417495
O O11 0.414905 0.752920 0.705840
O O12 0.479326 0.737915 0.614785
O O13 0.414252 0.500000 0.250000
O O14 0.500000 0.639916 0.250000
O O15 0.429618 0.722944 0.177980
#
# Coordination Sequence:
#
# PCOD8275743 Si02
#       6
#    16  16  16  16  16  16
#     4  10  19  29  47  75  97 126 170 199 240 305
#     4   8  16  34  54  68  91 129 167 204 247 302
#     4  10  21  33  47  74 104 130 164 200 250 309
#     4  11  20  30  47  72 106 134 160 207 245 275
#     4   9  17  31  48  67  94 134 180 208 224 263
#     4  10  19  32  48  67 100 143 172 194 231 287
#
# _framework density 17.389578
#
# number of rings (size 3 to 8) (size 9 to 14) (size 15 to 20)
#    0.000    2.333    1.667    3.000    0.000    4.667 
#    0.000    3.333    0.000    4.000    0.000   18.667 
#    0.000    0.000    0.000    0.000    0.000    0.000 
#
# Total GULP energy -595032.066183 kJ/mol
# GULP energy per Si atom -12396.501379 kJ/mol
# Density = 1.735000 g / cm^3
# Si number density = 17.389578 Si / 1000 Ang^3
#
#
#
# Elastic Constant Matrix: (Units=GPa)
#
#
# Indices 1 2 3 4 5 6 
#
# 1 85.7211 35.0230 20.8638 0.0000 0.0000 0.0000
# 2 35.0230 122.1568 35.2963 0.0000 0.0000 0.0000
# 3 20.8638 35.2963 78.6232 0.0000 0.0000 0.0000
# 4 0.0000 0.0000 0.0000 25.5420 0.0000 0.0000
# 5 0.0000 0.0000 0.0000 0.0000 9.8705 0.0000
# 6 0.0000 0.0000 0.0000 0.0000 0.0000 5.2997
#
#
#
# Elastic Compliance Matrix: (Units=1/GPa)
#
#
# Indices 1 2 3 4 5 6 
#
# 1 0.013515 -0.003262 -0.002122 0.000000 0.000000 0.000000
# 2 -0.003262 0.010193 -0.003711 0.000000 0.000000 0.000000
# 3 -0.002122 -0.003711 0.014948 0.000000 0.000000 0.000000
# 4 0.000000 0.000000 0.000000 0.039151 0.000000 0.000000
# 5 0.000000 0.000000 0.000000 0.000000 0.101312 0.000000
# 6 0.000000 0.000000 0.000000 0.000000 0.000000 0.188689
#
#
# Mechanical properties :
#
#
# Convention : Reuss Voigt Hill
#
# Bulk Modulus (GPa) = 48.85816 52.09638 50.47727
# Shear Modulus (GPa) = 12.72850 21.16366 16.94608
#
# Velocity S-wave (km/s) = 2.70841 3.49238 3.12508
# Velocity P-wave (km/s) = 6.15937 6.80336 6.48936
#
# Compressibility (1/GPa) = 0.02046741
#
# Stress axis : x y z
#
# Youngs Moduli (GPa) = 73.99274 98.10198 66.89930
#
# Poissons Ratio (x) = 0.31997 0.14197
# Poissons Ratio (y) = 0.24133 0.24824
# Poissons Ratio (z) = 0.15702 0.36402
#
# Static dielectric constant tensor:
#      x y z
#    x 3.204050 0.000000 0.000000 
#    y 0.000000 3.301600 0.000000 
#    z 0.000000 0.000000 3.371110 
# 
# 
# High freq. dielectric constant tensor:
#      x y z
#    x 1.633610 0.000000 0.000000 
#    y 0.000000 1.672720 0.000000 
#    z 0.000000 0.000000 1.666510 
# 
# From -- ./inp_files/52931.got.cif
#   From: 2010.03.12/outbox.cif.g09.slc.cpg/sg66_27_cif.got.tgz:52931.got - 2010.04.10 21:57:39.
