data_PCOD8275305
_publ_section_title
;
Structure prediction by ZEFSAII (Michael W. Deem and Ramdas Pophale) SiO2 
 PCOD8275305
Probable space group: C C C M
;
_chemical_formula_sum "Si O2"
_cell_formula_units_Z 112
_cell_length_a 21.928851
_cell_length_b 17.267260
_cell_length_c 17.649749
_cell_angle_alpha 90.000000
_cell_angle_beta 90.000000
_cell_angle_gamma 90.000000
_cell_volume 6683.098139
_symmetry_space_group_name_H-M "C C C M"
_symmetry_group_IT_number 66
_symmetry_cell_setting 'orthorhombic'
loop_
_space_group_symop_operation_xyz
x,y,z
-x,-y,z
x,-y,1/2-z
-x,y,1/2-z
-x,-y,-z
x,y,-z
-x,y,1/2+z
x,-y,1/2+z
1/2+x,1/2+y,z
1/2-x,1/2-y,z
1/2+x,1/2-y,1/2-z
1/2-x,1/2+y,1/2-z
1/2-x,1/2-y,-z
1/2+x,1/2+y,-z
1/2-x,1/2+y,1/2+z
1/2+x,1/2-y,1/2+z
loop_
_atom_site_type_symbol
_atom_site_label
_atom_site_fract_x
_atom_site_fract_y
_atom_site_fract_z
Si Si1 0.624387 0.831700 0.363908
Si Si2 0.128082 0.629222 0.414534
Si Si3 0.713860 0.437130 0.801739
Si Si4 0.203143 0.320210 0.777735
Si Si5 0.691318 0.697054 0.585888
Si Si6 0.994541 0.411328 0.088595
Si Si7 0.305124 0.022782 0.583724
O O1 0.645862 0.812369 0.278880
O O2 0.631231 0.751197 0.410413
O O3 0.556163 0.864767 0.363979
O O4 0.670044 0.891152 0.404185
O O5 0.142083 0.657114 0.500000
O O6 0.172337 0.678010 0.360587
O O7 0.140491 0.537744 0.404313
O O8 0.056443 0.636740 0.396373
O O9 0.674727 0.500000 0.750000
O O10 0.759889 0.397281 0.742515
O O11 0.679939 0.373180 0.854065
O O12 0.750803 0.492971 0.858398
O O13 0.250000 0.250000 0.774073
O O14 0.699635 0.665165 0.500000
O O15 0.750000 0.750000 0.610873
O O16 0.000000 0.500000 0.117480
O O17 0.976383 0.411464 0.000000
O O18 0.277575 0.015878 0.500000
#
# Coordination Sequence:
#
# PCOD8275305 Si02
#       7
#    16  16  16  16  16  16  16
#     4  11  19  30  50  73 105 138 170 220 271 313
#     4  10  21  34  49  69  98 145 189 216 248 306
#     4  11  19  30  46  70  96 133 168 219 276 321
#     4  11  21  36  49  68 100 133 179 227 271 317
#     4  11  19  29  48  75 101 134 178 226 278 332
#     4  10  19  32  49  75 110 146 181 213 248 307
#     4  10  17  27  45  68  96 134 174 212 254 304
#
# _framework density 16.758693999999998
#
# number of rings (size 3 to 8) (size 9 to 14) (size 15 to 20)
#    0.000    1.429    7.143    1.714    0.000    0.857 
#    0.000    0.714    0.000    0.000    0.000    0.000 
#    0.000    2.286    0.000    4.571    0.000    0.143 
#
# Total GULP energy -693811.699950 kJ/mol
# GULP energy per Si atom -12389.494642 kJ/mol
# Density = 1.672055 g / cm^3
# Si number density = 16.758694 Si / 1000 Ang^3
#
#
#
# Elastic Constant Matrix: (Units=GPa)
#
#
# Indices 1 2 3 4 5 6 
#
# 1 69.4028 39.2952 41.7235 0.0000 0.0000 0.0000
# 2 39.2952 77.9644 52.0274 0.0000 0.0000 0.0000
# 3 41.7235 52.0274 99.0683 0.0000 0.0000 0.0000
# 4 0.0000 0.0000 0.0000 30.1813 0.0000 0.0000
# 5 0.0000 0.0000 0.0000 0.0000 21.8224 0.0000
# 6 0.0000 0.0000 0.0000 0.0000 0.0000 28.5747
#
#
#
# Elastic Compliance Matrix: (Units=1/GPa)
#
#
# Indices 1 2 3 4 5 6 
#
# 1 0.021804 -0.007485 -0.005252 0.000000 0.000000 0.000000
# 2 -0.007485 0.022316 -0.008567 0.000000 0.000000 0.000000
# 3 -0.005252 -0.008567 0.016805 0.000000 0.000000 0.000000
# 4 0.000000 0.000000 0.000000 0.033133 0.000000 0.000000
# 5 0.000000 0.000000 0.000000 0.000000 0.045824 0.000000
# 6 0.000000 0.000000 0.000000 0.000000 0.000000 0.034996
#
#
# Mechanical properties :
#
#
# Convention : Reuss Voigt Hill
#
# Bulk Modulus (GPa) = 54.59474 56.94752 55.77113
# Shear Modulus (GPa) = 22.36209 23.67497 23.01853
#
# Velocity S-wave (km/s) = 3.65685 3.76266 3.71013
# Velocity P-wave (km/s) = 7.10477 7.27540 7.19059
#
# Compressibility (1/GPa) = 0.01831678
#
# Stress axis : x y z
#
# Youngs Moduli (GPa) = 45.86344 44.81111 59.50468
#
# Poissons Ratio (x) = 0.33539 0.31253
# Poissons Ratio (y) = 0.34327 0.50980
# Poissons Ratio (z) = 0.24089 0.38391
#
# Static dielectric constant tensor:
#      x y z
#    x 2.907600 0.000000 0.000000 
#    y 0.000000 3.048700 0.000000 
#    z 0.000000 0.000000 3.300620 
# 
# 
# High freq. dielectric constant tensor:
#      x y z
#    x 1.595880 0.000000 0.000000 
#    y 0.000000 1.626990 0.000000 
#    z 0.000000 0.000000 1.658670 
# 
# From -- ./inp_files/41965.got.cif
#   From: 2010.03.12/outbox.cif.g09.slc.cpg/sg66_21_cif.got.tgz:41965.got - 2010.04.10 21:57:39.
