data_PCOD8275282
_publ_section_title
;
Structure prediction by ZEFSAII (Michael W. Deem and Ramdas Pophale) SiO2 
 PCOD8275282
Probable space group: C C C M
;
_chemical_formula_sum "Si O2"
_cell_formula_units_Z 80
_cell_length_a 14.757550
_cell_length_b 32.692440
_cell_length_c 8.860921
_cell_angle_alpha 90.000000
_cell_angle_beta 90.000000
_cell_angle_gamma 90.000000
_cell_volume 4275.042763
_symmetry_space_group_name_H-M "C C C M"
_symmetry_group_IT_number 66
_symmetry_cell_setting 'orthorhombic'
loop_
_space_group_symop_operation_xyz
x,y,z
-x,-y,z
x,-y,1/2-z
-x,y,1/2-z
-x,-y,-z
x,y,-z
-x,y,1/2+z
x,-y,1/2+z
1/2+x,1/2+y,z
1/2-x,1/2-y,z
1/2+x,1/2-y,1/2-z
1/2-x,1/2+y,1/2-z
1/2-x,1/2-y,-z
1/2+x,1/2+y,-z
1/2-x,1/2+y,1/2+z
1/2+x,1/2-y,1/2+z
loop_
_atom_site_type_symbol
_atom_site_label
_atom_site_fract_x
_atom_site_fract_y
_atom_site_fract_z
Si Si1 0.087456 0.864443 0.329927
Si Si2 0.169226 0.300314 0.678176
Si Si3 0.405090 0.957721 0.322591
Si Si4 0.212114 0.619963 0.677195
Si Si5 0.643197 0.723134 0.172946
O O1 0.083783 0.880003 0.500000
O O2 0.184034 0.879097 0.260511
O O3 0.075306 0.815138 0.318147
O O4 0.000000 0.884562 0.250000
O O5 0.156534 0.299697 0.500000
O O6 0.149483 0.345909 0.740757
O O7 0.270283 0.289367 0.728418
O O8 0.103807 0.265285 0.753081
O O9 0.500000 0.943994 0.250000
O O10 0.419330 0.963626 0.500000
O O11 0.329436 0.924040 0.286231
O O12 0.370756 0.000000 0.250000
O O13 0.212078 0.630406 0.500000
O O14 0.670942 0.731414 0.000000
#
# Coordination Sequence:
#
# PCOD8275282 Si02
#       5
#    16  16  16  16  16
#     4   9  18  31  48  70  97 133 176 213 247 287
#     4  10  17  25  43  70  94 121 165 215 250 284
#     4  10  20  36  59  83 107 130 158 196 245 306
#     4   9  19  35  52  72 102 139 167 197 250 309
#     4   9  16  28  43  60  91 133 169 204 252 302
#
# _framework density 18.713263000000001
#
# number of rings (size 3 to 8) (size 9 to 14) (size 15 to 20)
#    0.000    2.600    0.000    6.000    0.000    5.600 
#    0.000    1.000    0.000    0.600    0.000    4.200 
#    0.000    0.000    0.000    0.000    0.000    0.000 
#
# Total GULP energy -495586.359962 kJ/mol
# GULP energy per Si atom -12389.658999 kJ/mol
# Density = 1.867067 g / cm^3
# Si number density = 18.713263 Si / 1000 Ang^3
#
#
#
# Elastic Constant Matrix: (Units=GPa)
#
#
# Indices 1 2 3 4 5 6 
#
# 1 70.4107 51.6760 34.5600 0.0000 0.0000 0.0000
# 2 51.6760 116.4598 50.9840 0.0000 0.0000 0.0000
# 3 34.5600 50.9840 88.5019 0.0000 0.0000 0.0000
# 4 0.0000 0.0000 0.0000 19.9676 0.0000 0.0000
# 5 0.0000 0.0000 0.0000 0.0000 22.2589 0.0000
# 6 0.0000 0.0000 0.0000 0.0000 0.0000 16.6992
#
#
#
# Elastic Compliance Matrix: (Units=1/GPa)
#
#
# Indices 1 2 3 4 5 6 
#
# 1 0.022062 -0.008047 -0.003979 0.000000 0.000000 0.000000
# 2 -0.008047 0.014418 -0.005163 0.000000 0.000000 0.000000
# 3 -0.003979 -0.005163 0.015828 0.000000 0.000000 0.000000
# 4 0.000000 0.000000 0.000000 0.050081 0.000000 0.000000
# 5 0.000000 0.000000 0.000000 0.000000 0.044926 0.000000
# 6 0.000000 0.000000 0.000000 0.000000 0.000000 0.059883
#
#
# Mechanical properties :
#
#
# Convention : Reuss Voigt Hill
#
# Bulk Modulus (GPa) = 55.78057 61.09026 58.43542
# Shear Modulus (GPa) = 20.19774 20.99530 20.59652
#
# Velocity S-wave (km/s) = 3.28888 3.35318 3.32119
# Velocity P-wave (km/s) = 6.65545 6.90710 6.78244
#
# Compressibility (1/GPa) = 0.01792739
#
# Stress axis : x y z
#
# Youngs Moduli (GPa) = 45.32769 69.35864 63.18090
#
# Poissons Ratio (x) = 0.55814 0.25141
# Poissons Ratio (y) = 0.36476 0.32622
# Poissons Ratio (z) = 0.18037 0.35812
#
# Static dielectric constant tensor:
#      x y z
#    x 3.170190 0.000000 0.000000 
#    y 0.000000 3.706120 0.000000 
#    z 0.000000 0.000000 3.413810 
# 
# 
# High freq. dielectric constant tensor:
#      x y z
#    x 1.697180 0.000000 0.000000 
#    y 0.000000 1.711850 0.000000 
#    z 0.000000 0.000000 1.729520 
# 
# From -- ./inp_files/6902.got.cif
#   From: 2010.03.12/outbox.cif.g09.slc.cpg/sg66_4_cif.got.tgz:6902.got - 2010.04.10 21:57:39.
