data_PCOD8275032
_publ_section_title
;
Structure prediction by ZEFSAII (Michael W. Deem and Ramdas Pophale) SiO2 
 PCOD8275032
Probable space group: C M M M
;
_chemical_formula_sum "Si O2"
_cell_formula_units_Z 104
_cell_length_a 20.326875
_cell_length_b 32.657531
_cell_length_c 9.558756
_cell_angle_alpha 90.000000
_cell_angle_beta 90.000000
_cell_angle_gamma 90.000000
_cell_volume 6345.346463
_symmetry_space_group_name_H-M "C M M M"
_symmetry_group_IT_number 65
_symmetry_cell_setting 'orthorhombic'
loop_
_space_group_symop_operation_xyz
x,y,z
-x,-y,z
x,-y,-z
-x,y,-z
-x,-y,-z
x,y,-z
-x,y,z
x,-y,z
1/2+x,1/2+y,z
1/2-x,1/2-y,z
1/2+x,1/2-y,-z
1/2-x,1/2+y,-z
1/2-x,1/2-y,-z
1/2+x,1/2+y,-z
1/2-x,1/2+y,z
1/2+x,1/2-y,z
loop_
_atom_site_type_symbol
_atom_site_label
_atom_site_fract_x
_atom_site_fract_y
_atom_site_fract_z
Si Si1 0.369769 0.914317 0.339706
Si Si2 0.329693 0.160400 0.836991
Si Si3 0.766764 0.046747 0.661179
Si Si4 0.691817 0.376054 0.835762
Si Si5 0.000000 0.544252 0.333672
Si Si6 0.573183 0.678173 0.165802
Si Si7 0.426375 0.769518 0.834070
O O1 0.375773 0.900202 0.500000
O O2 0.364195 0.875134 0.245376
O O3 0.311155 0.946842 0.321615
O O4 0.435276 0.933929 0.279347
O O5 0.251450 0.156224 0.806261
O O6 0.365430 0.202003 0.782731
O O7 0.343811 0.154651 0.000000
O O8 0.787980 0.053384 0.500000
O O9 0.803103 0.080585 0.755977
O O10 0.783722 0.000000 0.708333
O O11 0.626632 0.353907 0.776192
O O12 0.687751 0.386310 0.000000
O O13 0.000000 0.500000 0.264371
O O14 0.000000 0.541462 0.500000
O O15 0.500000 0.663641 0.210754
O O16 0.586850 0.723820 0.225285
O O17 0.579477 0.679532 0.000000
O O18 0.500000 0.784360 0.784618
O O19 0.426390 0.767868 0.000000
#
# Coordination Sequence:
#
# PCOD8275032 Si02
#       7
#    16  16  16  16   8  16  16
#     4   9  17  28  42  60  82 110 144 181 216 249
#     4   9  17  27  40  62  89 114 142 176 214 251
#     4   9  17  30  47  64  84 113 145 173 207 258
#     4   9  17  28  44  68  91 109 137 180 221 251
#     4   9  16  26  41  59  77 103 145 189 219 245
#     4   8  14  26  44  65  88 113 142 175 212 254
#     4   8  14  24  39  60  86 118 150 175 204 248
#
# _framework density 16.389963999999999
#
# number of rings (size 3 to 8) (size 9 to 14) (size 15 to 20)
#    0.000    3.308    0.000    1.385    1.077    2.769 
#    0.000    3.077    0.000    3.692    0.000    9.692 
#    0.000    0.000    0.000    0.000    0.000    0.000 
#
# Total GULP energy -644209.413190 kJ/mol
# GULP energy per Si atom -12388.642561 kJ/mol
# Density = 1.635266 g / cm^3
# Si number density = 16.389964 Si / 1000 Ang^3
#
#
#
# Elastic Constant Matrix: (Units=GPa)
#
#
# Indices 1 2 3 4 5 6 
#
# 1 124.7577 87.4580 31.0313 0.0000 0.0000 0.0000
# 2 87.4580 125.9506 34.9569 0.0000 0.0000 0.0000
# 3 31.0313 34.9569 25.1341 0.0000 0.0000 0.0000
# 4 0.0000 0.0000 0.0000 33.9363 0.0000 0.0000
# 5 0.0000 0.0000 0.0000 0.0000 13.8276 0.0000
# 6 0.0000 0.0000 0.0000 0.0000 0.0000 20.1618
#
#
#
# Elastic Compliance Matrix: (Units=1/GPa)
#
#
# Indices 1 2 3 4 5 6 
#
# 1 0.016375 -0.009380 -0.007171 0.000000 0.000000 0.000000
# 2 -0.009380 0.018305 -0.013877 0.000000 0.000000 0.000000
# 3 -0.007171 -0.013877 0.067941 0.000000 0.000000 0.000000
# 4 0.000000 0.000000 0.000000 0.029467 0.000000 0.000000
# 5 0.000000 0.000000 0.000000 0.000000 0.072319 0.000000
# 6 0.000000 0.000000 0.000000 0.000000 0.000000 0.049599
#
#
# Mechanical properties :
#
#
# Convention : Reuss Voigt Hill
#
# Bulk Modulus (GPa) = 23.94430 64.74831 44.34631
# Shear Modulus (GPa) = 15.20761 21.74490 18.47626
#
# Velocity S-wave (km/s) = 3.04939 3.64637 3.36116
# Velocity P-wave (km/s) = 5.19992 7.57091 6.49453
#
# Compressibility (1/GPa) = 0.04176359
#
# Stress axis : x y z
#
# Youngs Moduli (GPa) = 61.06905 54.63076 14.71874
#
# Poissons Ratio (x) = 0.51245 0.10554
# Poissons Ratio (y) = 0.57284 0.20426
# Poissons Ratio (z) = 0.43791 0.75813
#
# Static dielectric constant tensor:
#      x y z
#    x 3.308680 0.000000 0.000000 
#    y 0.000000 3.255580 0.000000 
#    z 0.000000 0.000000 2.729640 
# 
# 
# High freq. dielectric constant tensor:
#      x y z
#    x 1.628600 0.000000 0.000000 
#    y 0.000000 1.628650 0.000000 
#    z 0.000000 0.000000 1.588630 
# 
# From -- ./inp_files/27682.got.cif
#   From: 2010.03.12/outbox.cif.g09.slc.cpg/sg65_14_cif.got.tgz:27682.got - 2010.04.10 20:52:16.
