data_PCOD8275358
_publ_section_title
;
Structure prediction by ZEFSAII (Michael W. Deem and Ramdas Pophale) SiO2 
 PCOD8275358
Probable space group: C C C M
;
_chemical_formula_sum "Si O2"
_cell_formula_units_Z 88
_cell_length_a 13.545370
_cell_length_b 14.406970
_cell_length_c 22.462563
_cell_angle_alpha 90.000000
_cell_angle_beta 90.000000
_cell_angle_gamma 90.000000
_cell_volume 4383.518387
_symmetry_space_group_name_H-M "C C C M"
_symmetry_group_IT_number 66
_symmetry_cell_setting 'orthorhombic'
loop_
_space_group_symop_operation_xyz
x,y,z
-x,-y,z
x,-y,1/2-z
-x,y,1/2-z
-x,-y,-z
x,y,-z
-x,y,1/2+z
x,-y,1/2+z
1/2+x,1/2+y,z
1/2-x,1/2-y,z
1/2+x,1/2-y,1/2-z
1/2-x,1/2+y,1/2-z
1/2-x,1/2-y,-z
1/2+x,1/2+y,-z
1/2-x,1/2+y,1/2+z
1/2+x,1/2-y,1/2+z
loop_
_atom_site_type_symbol
_atom_site_label
_atom_site_fract_x
_atom_site_fract_y
_atom_site_fract_z
Si Si1 0.253942 0.534228 0.686600
Si Si2 0.867961 0.928276 0.397224
Si Si3 0.650670 0.193109 0.373011
Si Si4 0.906198 0.723266 0.000000
Si Si5 0.903685 0.932700 0.000000
Si Si6 0.457987 0.354736 0.815798
Si Si7 0.094741 0.821107 0.000000
O O1 0.216800 0.500000 0.750000
O O2 0.273940 0.443238 0.645756
O O3 0.164934 0.596353 0.661229
O O4 0.358647 0.586367 0.690060
O O5 0.844085 0.837273 0.439126
O O6 0.966928 0.909407 0.358920
O O7 0.870478 0.021813 0.437681
O O8 0.750000 0.250000 0.367721
O O9 0.626550 0.168277 0.441518
O O10 0.562546 0.253412 0.344116
O O11 0.641213 0.672698 0.000000
O O12 0.027083 0.730236 0.000000
O O13 0.024068 0.917108 0.000000
O O14 0.500000 0.340695 0.750000
#
# Coordination Sequence:
#
# PCOD8275358 Si02
#       7
#    16  16  16   8   8  16   8
#     4  11  21  30  45  70 103 138 181 224 266 322
#     4  11  17  27  43  71  95 138 180 220 257 316
#     4  10  21  32  44  68 105 145 180 216 279 324
#     4  10  17  30  43  64 103 151 175 218 265 341
#     4   9  16  23  42  65 102 131 172 217 262 309
#     4  11  19  30  48  69 100 137 188 220 261 317
#     4   9  16  24  43  63 102 130 176 217 256 310
#
# _framework density 20.075198
#
# number of rings (size 3 to 8) (size 9 to 14) (size 15 to 20)
#    0.545    1.091    3.636    6.273    0.000    1.455 
#    0.000    0.000    0.000    0.545    0.000    0.000 
#    0.000   20.364    0.000    0.000    0.000    0.000 
#
# Total GULP energy -545233.129543 kJ/mol
# GULP energy per Si atom -12391.662035 kJ/mol
# Density = 2.002951 g / cm^3
# Si number density = 20.075198 Si / 1000 Ang^3
#
#
#
# Elastic Constant Matrix: (Units=GPa)
#
#
# Indices 1 2 3 4 5 6 
#
# 1 28.4077 33.1887 34.1528 0.0000 0.0000 0.0000
# 2 33.1887 64.2949 55.7411 0.0000 0.0000 0.0000
# 3 34.1528 55.7411 185.4669 0.0000 0.0000 0.0000
# 4 0.0000 0.0000 0.0000 26.7373 0.0000 0.0000
# 5 0.0000 0.0000 0.0000 0.0000 2.8494 0.0000
# 6 0.0000 0.0000 0.0000 0.0000 0.0000 21.7617
#
#
#
# Elastic Compliance Matrix: (Units=1/GPa)
#
#
# Indices 1 2 3 4 5 6 
#
# 1 0.090376 -0.043578 -0.003545 0.000000 0.000000 0.000000
# 2 -0.043578 0.042047 -0.004612 0.000000 0.000000 0.000000
# 3 -0.003545 -0.004612 0.007431 0.000000 0.000000 0.000000
# 4 0.000000 0.000000 0.000000 0.037401 0.000000 0.000000
# 5 0.000000 0.000000 0.000000 0.000000 0.350951 0.000000
# 6 0.000000 0.000000 0.000000 0.000000 0.000000 0.045952
#
#
# Mechanical properties :
#
#
# Convention : Reuss Voigt Hill
#
# Bulk Modulus (GPa) = 27.48566 58.25941 42.87254
# Shear Modulus (GPa) = 7.24894 20.60882 13.92888
#
# Velocity S-wave (km/s) = 1.90230 3.20751 2.63693
# Velocity P-wave (km/s) = 4.30651 6.54225 5.53837
#
# Compressibility (1/GPa) = 0.03638261
#
# Stress axis : x y z
#
# Youngs Moduli (GPa) = 11.06488 23.78305 134.57511
#
# Poissons Ratio (x) = 1.03642 0.47708
# Poissons Ratio (y) = 0.48219 0.62069
# Poissons Ratio (z) = 0.03923 0.10969
#
# Static dielectric constant tensor:
#      x y z
#    x 3.206820 0.000000 0.000000 
#    y 0.000000 3.454610 0.000000 
#    z 0.000000 0.000000 4.076650 
# 
# 
# High freq. dielectric constant tensor:
#      x y z
#    x 1.725060 0.000000 0.000000 
#    y 0.000000 1.743790 0.000000 
#    z 0.000000 0.000000 1.814400 
# 
# From -- ./inp_files/49902.got.cif
#   From: 2010.03.12/outbox.cif.g09.slc.cpg/sg66_25_cif.got.tgz:49902.got - 2010.04.10 21:57:39.
