data_PCOD8275794
_publ_section_title
;
Structure prediction by ZEFSAII (Michael W. Deem and Ramdas Pophale) SiO2 
 PCOD8275794
Probable space group: C C C M
;
_chemical_formula_sum "Si O2"
_cell_formula_units_Z 96
_cell_length_a 31.465598
_cell_length_b 6.348716
_cell_length_c 18.480974
_cell_angle_alpha 90.000000
_cell_angle_beta 90.000000
_cell_angle_gamma 90.000000
_cell_volume 3691.872941
_symmetry_space_group_name_H-M "C C C M"
_symmetry_group_IT_number 66
_symmetry_cell_setting 'orthorhombic'
loop_
_space_group_symop_operation_xyz
x,y,z
-x,-y,z
x,-y,1/2-z
-x,y,1/2-z
-x,-y,-z
x,y,-z
-x,y,1/2+z
x,-y,1/2+z
1/2+x,1/2+y,z
1/2-x,1/2-y,z
1/2+x,1/2-y,1/2-z
1/2-x,1/2+y,1/2-z
1/2-x,1/2-y,-z
1/2+x,1/2+y,-z
1/2-x,1/2+y,1/2+z
1/2+x,1/2-y,1/2+z
loop_
_atom_site_type_symbol
_atom_site_label
_atom_site_fract_x
_atom_site_fract_y
_atom_site_fract_z
Si Si1 0.317525 0.565881 0.083275
Si Si2 0.909916 0.831851 0.416678
Si Si3 0.159045 0.411491 0.917464
Si Si4 0.067575 0.309521 0.082438
Si Si5 0.009843 0.238028 0.666412
Si Si6 0.238113 0.484698 0.164719
O O1 0.359007 0.719184 0.095663
O O2 0.334084 0.332919 0.101697
O O3 0.277787 0.628158 0.136174
O O4 0.302275 0.579553 0.000000
O O5 0.922587 0.784007 0.500000
O O6 0.942429 0.707260 0.362597
O O7 0.915866 0.077507 0.398978
O O8 0.108433 0.465517 0.903467
O O9 0.192632 0.548928 0.870674
O O10 0.170800 0.455889 0.000000
O O11 0.026836 0.380627 0.129357
O O12 0.053057 0.323414 0.000000
O O13 0.000000 0.276652 0.750000
O O14 0.000000 0.000000 0.643029
O O15 0.234343 0.500000 0.250000
O O16 0.250000 0.250000 0.139028
#
# Coordination Sequence:
#
# PCOD8275794 Si02
#       6
#    16  16  16  16  16  16
#     4   8  14  26  43  62  82 115 164 203 231 274
#     4   8  13  22  34  50  75 113 154 188 223 272
#     4   8  14  26  45  64  82 113 161 208 236 266
#     4   8  13  22  36  53  75 108 152 194 226 260
#     4   9  15  21  28  50  84 121 148 176 228 291
#     4  10  19  31  45  69  97 126 157 199 249 290
#
# _framework density 26.003063000000001
#
# number of rings (size 3 to 8) (size 9 to 14) (size 15 to 20)
#    0.000    3.500    0.000    3.000    0.000    4.000 
#   12.000    0.000    0.000    2.000    0.000    0.000 
#    0.000    0.667    0.000    4.000    1.333   17.333 
#
# Total GULP energy -595106.316304 kJ/mol
# GULP energy per Si atom -12398.048256 kJ/mol
# Density = 2.594388 g / cm^3
# Si number density = 26.003063 Si / 1000 Ang^3
#
#
#
# Elastic Constant Matrix: (Units=GPa)
#
#
# Indices 1 2 3 4 5 6 
#
# 1 282.7816 53.5923 166.0304 0.0000 0.0000 0.0000
# 2 53.5923 73.0949 0.9735 0.0000 0.0000 0.0000
# 3 166.0304 0.9735 182.1241 0.0000 0.0000 0.0000
# 4 0.0000 0.0000 0.0000 -4.8151 0.0000 0.0000
# 5 0.0000 0.0000 0.0000 0.0000 34.5133 0.0000
# 6 0.0000 0.0000 0.0000 0.0000 0.0000 48.5757
#
#
#
# Elastic Compliance Matrix: (Units=1/GPa)
#
#
# Indices 1 2 3 4 5 6 
#
# 1 0.010705 -0.007719 -0.009717 0.000000 0.000000 0.000000
# 2 -0.007719 0.019248 0.006934 0.000000 0.000000 0.000000
# 3 -0.009717 0.006934 0.014312 0.000000 0.000000 0.000000
# 4 0.000000 0.000000 0.000000 -0.207682 0.000000 0.000000
# 5 0.000000 0.000000 0.000000 0.000000 0.028974 0.000000
# 6 0.000000 0.000000 0.000000 0.000000 0.000000 0.020586
#
#
# Mechanical properties :
#
#
# Convention : Reuss Voigt Hill
#
# Bulk Modulus (GPa) = 42.99177 108.79921 75.89549
# Shear Modulus (GPa) = -58.75582 36.81509 -10.97037
#
# Velocity S-wave (km/s) = -4.75865 3.76679 -2.05622
# Velocity P-wave (km/s) = 3.69104 7.80064 4.85933
#
# Compressibility (1/GPa) = 0.02326026
#
# Stress axis : x y z
#
# Youngs Moduli (GPa) = 93.41737 51.95328 69.86921
#
# Poissons Ratio (x) = 0.40103 0.67895
# Poissons Ratio (y) = 0.72110 -0.48448
# Poissons Ratio (z) = 0.90778 -0.36025
#
# Static dielectric constant tensor:
#      x y z
#    x 5.690100 0.000000 0.000000 
#    y 0.000000 5.412120 0.000000 
#    z 0.000000 0.000000 4.014250 
# 
# 
# High freq. dielectric constant tensor:
#      x y z
#    x 2.074730 0.000000 0.000000 
#    y 0.000000 2.124160 0.000000 
#    z 0.000000 0.000000 1.983580 
# 
# From -- ./inp_files/53121.got.cif
#   From: 2010.03.12/outbox.cif.g09.slc.cpg/sg66_27_cif.got.tgz:53121.got - 2010.04.10 21:57:39.
