data_PCOD8275169
_publ_section_title
;
Structure prediction by ZEFSAII (Michael W. Deem and Ramdas Pophale) SiO2 
 PCOD8275169
Probable space group: C M M M
;
_chemical_formula_sum "Si O2"
_cell_formula_units_Z 72
_cell_length_a 9.175978
_cell_length_b 29.443417
_cell_length_c 15.447988
_cell_angle_alpha 90.000000
_cell_angle_beta 90.000000
_cell_angle_gamma 90.000000
_cell_volume 4173.616079
_symmetry_space_group_name_H-M "C M M M"
_symmetry_group_IT_number 65
_symmetry_cell_setting 'orthorhombic'
loop_
_space_group_symop_operation_xyz
x,y,z
-x,-y,z
x,-y,-z
-x,y,-z
-x,-y,-z
x,y,-z
-x,y,z
x,-y,z
1/2+x,1/2+y,z
1/2-x,1/2-y,z
1/2+x,1/2-y,-z
1/2-x,1/2+y,-z
1/2-x,1/2-y,-z
1/2+x,1/2+y,-z
1/2-x,1/2+y,z
1/2+x,1/2-y,z
loop_
_atom_site_type_symbol
_atom_site_label
_atom_site_fract_x
_atom_site_fract_y
_atom_site_fract_z
Si Si1 0.671787 0.203548 0.597968
Si Si2 0.171249 0.296630 0.097430
Si Si3 0.171585 0.359271 0.251239
Si Si4 0.662151 0.553637 0.000000
Si Si5 0.171250 0.448952 0.170551
O O1 0.712100 0.189384 0.500000
O O2 0.500000 0.211255 0.608510
O O3 0.750000 0.250000 0.624724
O O4 0.732524 0.163741 0.660991
O O5 0.250000 0.250000 0.120251
O O6 0.229989 0.333908 0.165324
O O7 0.000000 0.288317 0.107176
O O8 0.210481 0.313030 0.000000
O O9 0.213922 0.412902 0.246034
O O10 0.000000 0.354365 0.253409
O O11 0.749225 0.568936 0.915221
O O12 0.651050 0.500000 0.000000
O O13 0.500000 0.575170 0.000000
O O14 0.219742 0.500000 0.198295
O O15 0.000000 0.447746 0.150587
#
# Coordination Sequence:
#
# PCOD8275169 Si02
#       5
#    16  16  16   8  16
#     4   9  17  30  48  69  92 117 145 181 226 271
#     4   9  17  28  41  57  81 112 141 172 210 253
#     4   9  17  28  45  66  87 114 147 183 221 261
#     4   9  17  29  43  61  88 117 146 185 230 263
#     4   9  17  29  46  65  85 115 155 190 217 256
#
# _framework density 17.251228000000001
#
# number of rings (size 3 to 8) (size 9 to 14) (size 15 to 20)
#    0.000    3.000    0.000    1.000    1.556    1.333 
#    0.000    2.222    0.000    0.667    0.000    4.667 
#    0.000    0.000    0.000   11.111    0.000   11.556 
#
# Total GULP energy -446140.277097 kJ/mol
# GULP energy per Si atom -12392.785475 kJ/mol
# Density = 1.721196 g / cm^3
# Si number density = 17.251228 Si / 1000 Ang^3
#
#
#
# Elastic Constant Matrix: (Units=GPa)
#
#
# Indices 1 2 3 4 5 6 
#
# 1 28.4401 22.7043 19.0559 0.0000 0.0000 0.0000
# 2 22.7043 129.1755 83.7345 0.0000 0.0000 0.0000
# 3 19.0559 83.7345 115.8847 0.0000 0.0000 0.0000
# 4 0.0000 0.0000 0.0000 27.6845 0.0000 0.0000
# 5 0.0000 0.0000 0.0000 0.0000 12.4365 0.0000
# 6 0.0000 0.0000 0.0000 0.0000 0.0000 17.5142
#
#
#
# Elastic Compliance Matrix: (Units=1/GPa)
#
#
# Indices 1 2 3 4 5 6 
#
# 1 0.041418 -0.005389 -0.002917 0.000000 0.000000 0.000000
# 2 -0.005389 0.015263 -0.010143 0.000000 0.000000 0.000000
# 3 -0.002917 -0.010143 0.016438 0.000000 0.000000 0.000000
# 4 0.000000 0.000000 0.000000 0.036121 0.000000 0.000000
# 5 0.000000 0.000000 0.000000 0.000000 0.080408 0.000000
# 6 0.000000 0.000000 0.000000 0.000000 0.000000 0.057096
#
#
# Mechanical properties :
#
#
# Convention : Reuss Voigt Hill
#
# Bulk Modulus (GPa) = 27.60736 58.27663 42.94200
# Shear Modulus (GPa) = 16.90812 21.39409 19.15110
#
# Velocity S-wave (km/s) = 3.13407 3.52540 3.33548
# Velocity P-wave (km/s) = 5.39763 7.10111 6.30714
#
# Compressibility (1/GPa) = 0.03622222
#
# Stress axis : x y z
#
# Youngs Moduli (GPa) = 24.14396 65.51690 60.83624
#
# Poissons Ratio (x) = 0.35307 0.17745
# Poissons Ratio (y) = 0.13011 0.61703
# Poissons Ratio (z) = 0.07042 0.66451
#
# Static dielectric constant tensor:
#      x y z
#    x 3.068300 0.000000 0.000000 
#    y 0.000000 3.368740 0.000000 
#    z 0.000000 0.000000 3.389730 
# 
# 
# High freq. dielectric constant tensor:
#      x y z
#    x 1.640200 0.000000 0.000000 
#    y 0.000000 1.662610 0.000000 
#    z 0.000000 0.000000 1.650810 
# 
# From -- ./inp_files/36942.got.cif
#   From: 2010.03.12/outbox.cif.g09.slc.cpg/sg65_19_cif.got.tgz:36942.got - 2010.04.10 20:52:16.
