data_PCOD8275618
_publ_section_title
;
Structure prediction by ZEFSAII (Michael W. Deem and Ramdas Pophale) SiO2 
 PCOD8275618
Probable space group: C C C M
;
_chemical_formula_sum "Si O2"
_cell_formula_units_Z 88
_cell_length_a 10.433667
_cell_length_b 28.460512
_cell_length_c 15.607535
_cell_angle_alpha 90.000000
_cell_angle_beta 90.000000
_cell_angle_gamma 90.000000
_cell_volume 4634.618575
_symmetry_space_group_name_H-M "C C C M"
_symmetry_group_IT_number 66
_symmetry_cell_setting 'orthorhombic'
loop_
_space_group_symop_operation_xyz
x,y,z
-x,-y,z
x,-y,1/2-z
-x,y,1/2-z
-x,-y,-z
x,y,-z
-x,y,1/2+z
x,-y,1/2+z
1/2+x,1/2+y,z
1/2-x,1/2-y,z
1/2+x,1/2-y,1/2-z
1/2-x,1/2+y,1/2-z
1/2-x,1/2-y,-z
1/2+x,1/2+y,-z
1/2-x,1/2+y,1/2+z
1/2+x,1/2-y,1/2+z
loop_
_atom_site_type_symbol
_atom_site_label
_atom_site_fract_x
_atom_site_fract_y
_atom_site_fract_z
Si Si1 0.174422 0.866121 0.401187
Si Si2 0.490108 0.445694 0.350476
Si Si3 0.647774 0.844813 0.753402
Si Si4 0.949802 0.800149 0.406277
Si Si5 0.250000 0.250000 0.697526
Si Si6 0.737217 0.612955 0.406413
O O1 0.215224 0.857648 0.500000
O O2 0.101086 0.915877 0.396630
O O3 0.300462 0.868813 0.340953
O O4 0.079634 0.823784 0.367954
O O5 0.500000 0.500000 0.374080
O O6 0.500000 0.435665 0.250000
O O7 0.351216 0.431336 0.385147
O O8 0.500000 0.833098 0.750000
O O9 0.726372 0.796235 0.752739
O O10 0.665517 0.879388 0.671936
O O11 0.982612 0.779919 0.500000
O O12 0.883789 0.757531 0.354823
O O13 0.845515 0.840487 0.412968
O O14 0.804381 0.604798 0.500000
#
# Coordination Sequence:
#
# PCOD8275618 Si02
#       6
#    16  16  16  16   8  16
#     4  10  21  38  58  82 119 155 185 235 291 343
#     4  10  18  32  62  98 121 143 180 231 285 345
#     4  11  24  38  55  79 107 153 201 240 289 341
#     4   8  16  31  53  80 107 140 179 226 285 341
#     4  10  21  32  57  78 106 142 190 242 292 338
#     4   9  18  34  55  81 114 146 179 225 279 342
#
# _framework density 18.987539000000002
#
# number of rings (size 3 to 8) (size 9 to 14) (size 15 to 20)
#    0.000    2.364    1.818    1.909    2.545    2.909 
#    0.000    0.455    0.000    2.182    0.000    2.545 
#    0.000    0.000    0.000    0.000    0.000    0.000 
#
# Total GULP energy -545166.166480 kJ/mol
# GULP energy per Si atom -12390.140147 kJ/mol
# Density = 1.894432 g / cm^3
# Si number density = 18.987539 Si / 1000 Ang^3
#
#
#
# Elastic Constant Matrix: (Units=GPa)
#
#
# Indices 1 2 3 4 5 6 
#
# 1 75.6394 17.3819 41.0713 0.0000 0.0000 0.0000
# 2 17.3819 74.8170 28.2864 0.0000 0.0000 0.0000
# 3 41.0713 28.2864 119.6450 0.0000 0.0000 0.0000
# 4 0.0000 0.0000 0.0000 10.8195 0.0000 0.0000
# 5 0.0000 0.0000 0.0000 0.0000 10.9172 0.0000
# 6 0.0000 0.0000 0.0000 0.0000 0.0000 17.3664
#
#
#
# Elastic Compliance Matrix: (Units=1/GPa)
#
#
# Indices 1 2 3 4 5 6 
#
# 1 0.016481 -0.001856 -0.005219 0.000000 0.000000 0.000000
# 2 -0.001856 0.014887 -0.002882 0.000000 0.000000 0.000000
# 3 -0.005219 -0.002882 0.010831 0.000000 0.000000 0.000000
# 4 0.000000 0.000000 0.000000 0.092425 0.000000 0.000000
# 5 0.000000 0.000000 0.000000 0.000000 0.091598 0.000000
# 6 0.000000 0.000000 0.000000 0.000000 0.000000 0.057582
#
#
# Mechanical properties :
#
#
# Convention : Reuss Voigt Hill
#
# Bulk Modulus (GPa) = 44.87403 49.28675 47.08039
# Shear Modulus (GPa) = 16.06958 20.04476 18.05717
#
# Velocity S-wave (km/s) = 2.91232 3.25265 3.08718
# Velocity P-wave (km/s) = 5.91553 6.33404 6.12836
#
# Compressibility (1/GPa) = 0.02228460
#
# Stress axis : x y z
#
# Youngs Moduli (GPa) = 60.67670 67.17317 92.32765
#
# Poissons Ratio (x) = 0.12466 0.48183
# Poissons Ratio (y) = 0.11261 0.26613
# Poissons Ratio (z) = 0.31665 0.19363
#
# Static dielectric constant tensor:
#      x y z
#    x 3.259280 0.000000 0.000000 
#    y 0.000000 3.305520 0.000000 
#    z 0.000000 0.000000 3.909780 
# 
# 
# High freq. dielectric constant tensor:
#      x y z
#    x 1.703930 0.000000 0.000000 
#    y 0.000000 1.715590 0.000000 
#    z 0.000000 0.000000 1.751550 
# 
# From -- ./inp_files/26883.got.cif
#   From: 2010.03.12/outbox.cif.g09.slc.cpg/sg66_14_cif.got.tgz:26883.got - 2010.04.10 21:57:39.
