data_PCOD8275762
_publ_section_title
;
Structure prediction by ZEFSAII (Michael W. Deem and Ramdas Pophale) SiO2 
 PCOD8275762
Probable space group: C C C M
;
_chemical_formula_sum "Si O2"
_cell_formula_units_Z 80
_cell_length_a 18.716749
_cell_length_b 27.048180
_cell_length_c 8.664021
_cell_angle_alpha 90.000000
_cell_angle_beta 90.000000
_cell_angle_gamma 90.000000
_cell_volume 4386.195252
_symmetry_space_group_name_H-M "C C C M"
_symmetry_group_IT_number 66
_symmetry_cell_setting 'orthorhombic'
loop_
_space_group_symop_operation_xyz
x,y,z
-x,-y,z
x,-y,1/2-z
-x,y,1/2-z
-x,-y,-z
x,y,-z
-x,y,1/2+z
x,-y,1/2+z
1/2+x,1/2+y,z
1/2-x,1/2-y,z
1/2+x,1/2-y,1/2-z
1/2-x,1/2+y,1/2-z
1/2-x,1/2-y,-z
1/2+x,1/2+y,-z
1/2-x,1/2+y,1/2+z
1/2+x,1/2-y,1/2+z
loop_
_atom_site_type_symbol
_atom_site_label
_atom_site_fract_x
_atom_site_fract_y
_atom_site_fract_z
Si Si1 0.719885 0.401570 0.680309
Si Si2 0.855055 0.552613 0.317888
Si Si3 0.075360 0.351581 0.816491
Si Si4 0.072071 0.053616 0.181003
Si Si5 0.784129 0.700749 0.181235
O O1 0.735050 0.411552 0.500000
O O2 0.772534 0.436935 0.775486
O O3 0.638616 0.412282 0.726965
O O4 0.732482 0.344605 0.723634
O O5 0.878839 0.500000 0.250000
O O6 0.864807 0.552202 0.500000
O O7 0.906401 0.594087 0.246128
O O8 0.135791 0.312315 0.759650
O O9 0.000000 0.333188 0.750000
O O10 0.072729 0.354382 0.000000
O O11 0.000000 0.077786 0.250000
O O12 0.085506 0.000000 0.250000
O O13 0.062998 0.048517 0.000000
O O14 0.750000 0.750000 0.259403
O O15 0.788465 0.709081 0.000000
#
# Coordination Sequence:
#
# PCOD8275762 Si02
#       5
#    16  16  16  16  16
#     4   9  18  32  50  73  99 130 170 211 250 298
#     4  11  21  33  51  75 103 135 170 206 248 298
#     4  10  20  35  54  77 105 135 170 208 250 299
#     4  10  19  30  45  66  95 129 165 203 245 294
#     4   8  15  31  55  77  97 127 166 205 246 294
#
# _framework density 18.239042000000001
#
# number of rings (size 3 to 8) (size 9 to 14) (size 15 to 20)
#    0.000    2.400    0.000    5.400    0.000    3.600 
#    0.000    3.000    0.000   15.000    0.000    0.000 
#    0.000    0.000    0.000    0.000    0.000    0.000 
#
# Total GULP energy -495930.638807 kJ/mol
# GULP energy per Si atom -12398.265970 kJ/mol
# Density = 1.819753 g / cm^3
# Si number density = 18.239042 Si / 1000 Ang^3
#
#
#
# Elastic Constant Matrix: (Units=GPa)
#
#
# Indices 1 2 3 4 5 6 
#
# 1 164.8090 67.7309 39.9778 0.0000 0.0000 0.0000
# 2 67.7309 110.5938 25.9131 0.0000 0.0000 0.0000
# 3 39.9778 25.9131 78.0054 0.0000 0.0000 0.0000
# 4 0.0000 0.0000 0.0000 15.4421 0.0000 0.0000
# 5 0.0000 0.0000 0.0000 0.0000 29.1348 0.0000
# 6 0.0000 0.0000 0.0000 0.0000 0.0000 20.0214
#
#
#
# Elastic Compliance Matrix: (Units=1/GPa)
#
#
# Indices 1 2 3 4 5 6 
#
# 1 0.008677 -0.004633 -0.002908 0.000000 0.000000 0.000000
# 2 -0.004633 0.012279 -0.001705 0.000000 0.000000 0.000000
# 3 -0.002908 -0.001705 0.014876 0.000000 0.000000 0.000000
# 4 0.000000 0.000000 0.000000 0.064758 0.000000 0.000000
# 5 0.000000 0.000000 0.000000 0.000000 0.034323 0.000000
# 6 0.000000 0.000000 0.000000 0.000000 0.000000 0.049947
#
#
# Mechanical properties :
#
#
# Convention : Reuss Voigt Hill
#
# Bulk Modulus (GPa) = 57.66606 68.96132 63.31369
# Shear Modulus (GPa) = 23.90850 27.57209 25.74030
#
# Velocity S-wave (km/s) = 3.62448 3.89229 3.76077
# Velocity P-wave (km/s) = 7.01436 7.62179 7.32438
#
# Compressibility (1/GPa) = 0.01734122
#
# Stress axis : x y z
#
# Youngs Moduli (GPa) = 115.24907 81.44200 67.22123
#
# Poissons Ratio (x) = 0.37729 0.19548
# Poissons Ratio (y) = 0.53390 0.11459
# Poissons Ratio (z) = 0.33514 0.13884
#
# Static dielectric constant tensor:
#      x y z
#    x 3.661860 0.000000 0.000000 
#    y 0.000000 3.427880 0.000000 
#    z 0.000000 0.000000 3.251430 
# 
# 
# High freq. dielectric constant tensor:
#      x y z
#    x 1.714880 0.000000 0.000000 
#    y 0.000000 1.690290 0.000000 
#    z 0.000000 0.000000 1.697040 
# 
# From -- ./inp_files/6735.got.cif
#   From: 2010.03.12/outbox.cif.g09.slc.cpg/sg66_4_cif.got.tgz:6735.got - 2010.04.10 21:57:39.
