data_PCOD8275580
_publ_section_title
;
Structure prediction by ZEFSAII (Michael W. Deem and Ramdas Pophale) SiO2 
 PCOD8275580
Probable space group: C C C M
;
_chemical_formula_sum "Si O2"
_cell_formula_units_Z 96
_cell_length_a 20.300507
_cell_length_b 29.893845
_cell_length_c 8.963791
_cell_angle_alpha 90.000000
_cell_angle_beta 90.000000
_cell_angle_gamma 90.000000
_cell_volume 5439.768086
_symmetry_space_group_name_H-M "C C C M"
_symmetry_group_IT_number 66
_symmetry_cell_setting 'orthorhombic'
loop_
_space_group_symop_operation_xyz
x,y,z
-x,-y,z
x,-y,1/2-z
-x,y,1/2-z
-x,-y,-z
x,y,-z
-x,y,1/2+z
x,-y,1/2+z
1/2+x,1/2+y,z
1/2-x,1/2-y,z
1/2+x,1/2-y,1/2-z
1/2-x,1/2+y,1/2-z
1/2-x,1/2-y,-z
1/2+x,1/2+y,-z
1/2-x,1/2+y,1/2+z
1/2+x,1/2-y,1/2+z
loop_
_atom_site_type_symbol
_atom_site_label
_atom_site_fract_x
_atom_site_fract_y
_atom_site_fract_z
Si Si1 0.616676 0.365544 0.176243
Si Si2 0.884402 0.955863 0.830390
Si Si3 0.267840 0.869413 0.829641
Si Si4 0.772579 0.456667 0.333431
Si Si5 0.682061 0.226940 0.827835
Si Si6 0.933589 0.222337 0.322911
O O1 0.590631 0.412862 0.238716
O O2 0.693169 0.358178 0.218128
O O3 0.576455 0.327156 0.258494
O O4 0.604131 0.363044 0.000000
O O5 0.805884 0.957366 0.826851
O O6 0.913162 0.000000 0.750000
O O7 0.910406 0.953737 0.000000
O O8 0.298485 0.910560 0.738067
O O9 0.312932 0.826189 0.803350
O O10 0.267454 0.884928 0.000000
O O11 0.801640 0.500000 0.250000
O O12 0.799742 0.458587 0.500000
O O13 0.750000 0.250000 0.779921
O O14 0.625253 0.244722 0.721498
O O15 0.666118 0.239026 0.000000
O O16 0.939838 0.220351 0.500000
O O17 0.000000 0.242036 0.250000
#
# Coordination Sequence:
#
# PCOD8275580 Si02
#       6
#    16  16  16  16  16  16
#     4  10  18  32  51  72  98 132 170 213 262 311
#     4   9  16  26  41  66  95 128 167 211 258 306
#     4   9  17  29  49  73 101 134 168 206 255 308
#     4   9  16  25  39  62  97 133 168 206 250 300
#     4  10  19  36  57  79 106 138 172 213 264 316
#     4  12  25  39  55  76 103 137 176 219 263 314
#
# _framework density 17.647811000000001
#
# number of rings (size 3 to 8) (size 9 to 14) (size 15 to 20)
#    0.000    2.167    1.667    3.000    0.000    5.667 
#    0.000    0.000    0.000    0.500    0.000    3.500 
#    0.000    0.667    0.000    7.000    0.000    3.333 
#
# Total GULP energy -595275.659998 kJ/mol
# GULP energy per Si atom -12401.576250 kJ/mol
# Density = 1.760764 g / cm^3
# Si number density = 17.647811 Si / 1000 Ang^3
#
#
#
# Elastic Constant Matrix: (Units=GPa)
#
#
# Indices 1 2 3 4 5 6 
#
# 1 54.6439 33.3072 39.2664 0.0000 0.0000 0.0000
# 2 33.3072 104.2384 59.2638 0.0000 0.0000 0.0000
# 3 39.2664 59.2638 131.6507 0.0000 0.0000 0.0000
# 4 0.0000 0.0000 0.0000 38.0645 0.0000 0.0000
# 5 0.0000 0.0000 0.0000 0.0000 18.1316 0.0000
# 6 0.0000 0.0000 0.0000 0.0000 0.0000 10.1669
#
#
#
# Elastic Compliance Matrix: (Units=1/GPa)
#
#
# Indices 1 2 3 4 5 6 
#
# 1 0.025137 -0.005066 -0.005217 0.000000 0.000000 0.000000
# 2 -0.005066 0.013914 -0.004753 0.000000 0.000000 0.000000
# 3 -0.005217 -0.004753 0.011291 0.000000 0.000000 0.000000
# 4 0.000000 0.000000 0.000000 0.026271 0.000000 0.000000
# 5 0.000000 0.000000 0.000000 0.000000 0.055152 0.000000
# 6 0.000000 0.000000 0.000000 0.000000 0.000000 0.098358
#
#
# Mechanical properties :
#
#
# Convention : Reuss Voigt Hill
#
# Bulk Modulus (GPa) = 49.33041 61.57864 55.45453
# Shear Modulus (GPa) = 18.72996 23.85233 21.29114
#
# Velocity S-wave (km/s) = 3.26132 3.68036 3.47716
# Velocity P-wave (km/s) = 6.49577 7.28210 6.90014
#
# Compressibility (1/GPa) = 0.02027147
#
# Stress axis : x y z
#
# Youngs Moduli (GPa) = 39.78201 71.86912 88.56378
#
# Poissons Ratio (x) = 0.36409 0.46203
# Poissons Ratio (y) = 0.20153 0.42091
# Poissons Ratio (z) = 0.20754 0.34157
#
# Static dielectric constant tensor:
#      x y z
#    x 2.806320 0.000000 0.000000 
#    y 0.000000 3.418390 0.000000 
#    z 0.000000 0.000000 3.359690 
# 
# 
# High freq. dielectric constant tensor:
#      x y z
#    x 1.620610 0.000000 0.000000 
#    y 0.000000 1.693630 0.000000 
#    z 0.000000 0.000000 1.692750 
# 
# From -- ./inp_files/9280.got.cif
#   From: 2010.03.12/outbox.cif.g09.slc.cpg/sg66_5_cif.got.tgz:9280.got - 2010.04.10 21:57:39.
