data_PCOD8275069
_publ_section_title
;
Structure prediction by ZEFSAII (Michael W. Deem and Ramdas Pophale) SiO2 
 PCOD8275069
Probable space group: C M M M
;
_chemical_formula_sum "Si O2"
_cell_formula_units_Z 104
_cell_length_a 9.148484
_cell_length_b 20.158041
_cell_length_c 33.074032
_cell_angle_alpha 90.000000
_cell_angle_beta 90.000000
_cell_angle_gamma 90.000000
_cell_volume 6099.364663
_symmetry_space_group_name_H-M "C M M M"
_symmetry_group_IT_number 65
_symmetry_cell_setting 'orthorhombic'
loop_
_space_group_symop_operation_xyz
x,y,z
-x,-y,z
x,-y,-z
-x,y,-z
-x,-y,-z
x,y,-z
-x,y,z
x,-y,z
1/2+x,1/2+y,z
1/2-x,1/2-y,z
1/2+x,1/2-y,-z
1/2-x,1/2+y,-z
1/2-x,1/2-y,-z
1/2+x,1/2+y,-z
1/2-x,1/2+y,z
1/2+x,1/2-y,z
loop_
_atom_site_type_symbol
_atom_site_label
_atom_site_fract_x
_atom_site_fract_y
_atom_site_fract_z
Si Si1 0.165472 0.579058 0.000000
Si Si2 0.165452 0.079136 0.078695
Si Si3 0.835235 0.421134 0.843244
Si Si4 0.170967 0.924031 0.236714
Si Si5 0.170605 0.183527 0.698489
Si Si6 0.173643 0.926296 0.545078
Si Si7 0.672404 0.683127 0.393639
O O1 0.249157 0.606041 0.960527
O O2 0.164369 0.500000 0.000000
O O3 0.000000 0.606442 0.000000
O O4 0.246678 0.107197 0.118403
O O5 0.000000 0.106342 0.077947
O O6 0.165056 0.000000 0.078972
O O7 0.836119 0.500000 0.845177
O O8 0.756984 0.397437 0.802334
O O9 0.000000 0.393023 0.844277
O O10 0.218970 0.878908 0.274451
O O11 0.000000 0.917796 0.227154
O O12 0.212573 0.000000 0.247159
O O13 0.250000 0.250000 0.713622
O O14 0.214431 0.166089 0.652523
O O15 0.000000 0.197323 0.702460
O O16 0.224347 0.904897 0.500000
O O17 0.235869 0.875375 0.578182
O O18 0.000000 0.927119 0.547193
O O19 0.233423 0.000000 0.555048
O O20 0.500000 0.692189 0.398997
O O21 0.750000 0.750000 0.408009
#
# Coordination Sequence:
#
# PCOD8275069 Si02
#       7
#     8  16  16  16  16  16  16
#     4   9  15  21  29  43  65  95 134 177 216 257
#     4   9  15  22  32  46  67  98 135 173 213 257
#     4   9  16  25  37  54  76 102 133 170 213 259
#     4   9  17  29  44  62  83 107 139 178 217 258
#     4   9  18  31  46  64  87 115 144 177 219 264
#     4   8  14  25  42  65  91 117 147 184 222 258
#     4   9  17  29  45  65  88 114 145 180 218 261
#
# _framework density 17.050955999999999
#
# number of rings (size 3 to 8) (size 9 to 14) (size 15 to 20)
#    0.000    3.154    0.000    1.615    0.000    6.154 
#    0.000    3.077    0.000    0.462    0.000    5.385 
#    0.000    0.000    0.000    0.692    0.000   10.154 
#
# Total GULP energy -644664.277388 kJ/mol
# GULP energy per Si atom -12397.389950 kJ/mol
# Density = 1.701215 g / cm^3
# Si number density = 17.050956 Si / 1000 Ang^3
#
#
#
# Elastic Constant Matrix: (Units=GPa)
#
#
# Indices 1 2 3 4 5 6 
#
# 1 76.9374 33.2815 55.6935 0.0000 0.0000 0.0000
# 2 33.2815 73.8782 73.0041 0.0000 0.0000 0.0000
# 3 55.6935 73.0041 144.6858 0.0000 0.0000 0.0000
# 4 0.0000 0.0000 0.0000 5.2280 0.0000 0.0000
# 5 0.0000 0.0000 0.0000 0.0000 20.0708 0.0000
# 6 0.0000 0.0000 0.0000 0.0000 0.0000 16.7933
#
#
#
# Elastic Compliance Matrix: (Units=1/GPa)
#
#
# Indices 1 2 3 4 5 6 
#
# 1 0.018256 -0.002553 -0.005739 0.000000 0.000000 0.000000
# 2 -0.002553 0.027353 -0.012819 0.000000 0.000000 0.000000
# 3 -0.005739 -0.012819 0.015589 0.000000 0.000000 0.000000
# 4 0.000000 0.000000 0.000000 0.191278 0.000000 0.000000
# 5 0.000000 0.000000 0.000000 0.000000 0.049824 0.000000
# 6 0.000000 0.000000 0.000000 0.000000 0.000000 0.059547
#
#
# Mechanical properties :
#
#
# Convention : Reuss Voigt Hill
#
# Bulk Modulus (GPa) = 52.69796 68.82885 60.76341
# Shear Modulus (GPa) = 12.18338 17.31989 14.75164
#
# Velocity S-wave (km/s) = 2.67597 3.19058 2.94453
# Velocity P-wave (km/s) = 6.36561 7.35032 6.87562
#
# Compressibility (1/GPa) = 0.01897607
#
# Stress axis : x y z
#
# Youngs Moduli (GPa) = 54.77504 36.55892 64.14909
#
# Poissons Ratio (x) = 0.09334 0.36816
# Poissons Ratio (y) = 0.13985 0.82231
# Poissons Ratio (z) = 0.31436 0.46864
#
# Static dielectric constant tensor:
#      x y z
#    x 3.126640 0.000000 0.000000 
#    y 0.000000 2.887940 0.000000 
#    z 0.000000 0.000000 3.405750 
# 
# 
# High freq. dielectric constant tensor:
#      x y z
#    x 1.647370 0.000000 0.000000 
#    y 0.000000 1.606690 0.000000 
#    z 0.000000 0.000000 1.669430 
# 
# From -- ./inp_files/77011.got.cif
#   From: 2010.03.12/outbox.cif.g09.slc.cpg/sg65_39_cif.got.tgz:77011.got - 2010.04.10 20:52:16.
