data_PCOD8275735
_publ_section_title
;
Structure prediction by ZEFSAII (Michael W. Deem and Ramdas Pophale) SiO2 
 PCOD8275735
Probable space group: C C C M
;
_chemical_formula_sum "Si O2"
_cell_formula_units_Z 72
_cell_length_a 22.183928
_cell_length_b 18.175922
_cell_length_c 9.476756
_cell_angle_alpha 90.000000
_cell_angle_beta 90.000000
_cell_angle_gamma 90.000000
_cell_volume 3821.154486
_symmetry_space_group_name_H-M "C C C M"
_symmetry_group_IT_number 66
_symmetry_cell_setting 'orthorhombic'
loop_
_space_group_symop_operation_xyz
x,y,z
-x,-y,z
x,-y,1/2-z
-x,y,1/2-z
-x,-y,-z
x,y,-z
-x,y,1/2+z
x,-y,1/2+z
1/2+x,1/2+y,z
1/2-x,1/2-y,z
1/2+x,1/2-y,1/2-z
1/2-x,1/2+y,1/2-z
1/2-x,1/2-y,-z
1/2+x,1/2+y,-z
1/2-x,1/2+y,1/2+z
1/2+x,1/2-y,1/2+z
loop_
_atom_site_type_symbol
_atom_site_label
_atom_site_fract_x
_atom_site_fract_y
_atom_site_fract_z
Si Si1 0.088608 0.432473 0.341594
Si Si2 0.000000 0.312803 0.750000
Si Si3 0.054295 0.170546 0.160051
Si Si4 0.330362 0.681664 0.166637
Si Si5 0.300872 0.155275 0.334238
O O1 0.063583 0.500000 0.250000
O O2 0.096182 0.461706 0.500000
O O3 0.152956 0.406096 0.275117
O O4 0.042283 0.364414 0.345003
O O5 0.957461 0.259230 0.655454
O O6 0.115743 0.148679 0.240480
O O7 0.000000 0.132771 0.250000
O O8 0.056483 0.140324 0.000000
O O9 0.319012 0.764343 0.221518
O O10 0.268877 0.636110 0.200578
O O11 0.346530 0.678018 0.000000
O O12 0.310256 0.159262 0.500000
#
# Coordination Sequence:
#
# PCOD8275735 Si02
#       5
#    16   8  16  16  16
#     4  11  22  36  49  65  91 127 167 202 233 272
#     4  10  21  32  50  60  92 128 171 194 230 270
#     4  10  19  29  45  68  96 123 151 190 234 277
#     4   9  15  28  51  69  85 116 154 191 236 287
#     4   8  15  30  49  66  86 117 154 192 238 289
#
# _framework density 18.842472999999998
#
# number of rings (size 3 to 8) (size 9 to 14) (size 15 to 20)
#    0.667    1.778    2.222    3.000    0.000    2.667 
#    0.000    3.333    0.000    0.000    0.000    0.000 
#    0.000    0.889    0.000   10.222    0.000    3.556 
#
# Total GULP energy -445985.428583 kJ/mol
# GULP energy per Si atom -12388.484127 kJ/mol
# Density = 1.879959 g / cm^3
# Si number density = 18.842473 Si / 1000 Ang^3
#
#
#
# Elastic Constant Matrix: (Units=GPa)
#
#
# Indices 1 2 3 4 5 6 
#
# 1 123.5578 -0.3041 38.5886 0.0000 0.0000 0.0000
# 2 -0.3041 15.6508 -1.4020 0.0000 0.0000 0.0000
# 3 38.5886 -1.4020 88.5772 0.0000 0.0000 0.0000
# 4 0.0000 0.0000 0.0000 6.6176 0.0000 0.0000
# 5 0.0000 0.0000 0.0000 0.0000 30.8546 0.0000
# 6 0.0000 0.0000 0.0000 0.0000 0.0000 15.7365
#
#
#
# Elastic Compliance Matrix: (Units=1/GPa)
#
#
# Indices 1 2 3 4 5 6 
#
# 1 0.009369 -0.000184 -0.004084 0.000000 0.000000 0.000000
# 2 -0.000184 0.063989 0.001093 0.000000 0.000000 0.000000
# 3 -0.004084 0.001093 0.013086 0.000000 0.000000 0.000000
# 4 0.000000 0.000000 0.000000 0.151112 0.000000 0.000000
# 5 0.000000 0.000000 0.000000 0.000000 0.032410 0.000000
# 6 0.000000 0.000000 0.000000 0.000000 0.000000 0.063547
#
#
# Mechanical properties :
#
#
# Convention : Reuss Voigt Hill
#
# Bulk Modulus (GPa) = 12.48549 33.50566 22.99558
# Shear Modulus (GPa) = 13.64032 23.36863 18.50447
#
# Velocity S-wave (km/s) = 2.69348 3.52548 3.13719
# Velocity P-wave (km/s) = 4.03903 5.86452 5.03520
#
# Compressibility (1/GPa) = 0.08009298
#
# Stress axis : x y z
#
# Youngs Moduli (GPa) = 106.74067 15.62775 76.41635
#
# Poissons Ratio (x) = 0.00287 0.31211
# Poissons Ratio (y) = 0.01962 -0.08351
# Poissons Ratio (z) = 0.43596 -0.01708
#
# Static dielectric constant tensor:
#      x y z
#    x 3.822110 0.000000 0.000000 
#    y 0.000000 3.002690 0.000000 
#    z 0.000000 0.000000 3.030720 
# 
# 
# High freq. dielectric constant tensor:
#      x y z
#    x 1.751760 0.000000 0.000000 
#    y 0.000000 1.667500 0.000000 
#    z 0.000000 0.000000 1.701930 
# 
# From -- ./inp_files/6485.got.cif
#   From: 2010.03.12/outbox.cif.g09.slc.cpg/sg66_4_cif.got.tgz:6485.got - 2010.04.10 21:57:39.
