data_PCOD8275535
_publ_section_title
;
Structure prediction by ZEFSAII (Michael W. Deem and Ramdas Pophale) SiO2 
 PCOD8275535
Probable space group: C C C M
;
_chemical_formula_sum "Si O2"
_cell_formula_units_Z 80
_cell_length_a 23.597461
_cell_length_b 24.265322
_cell_length_c 8.640174
_cell_angle_alpha 90.000000
_cell_angle_beta 90.000000
_cell_angle_gamma 90.000000
_cell_volume 4947.363542
_symmetry_space_group_name_H-M "C C C M"
_symmetry_group_IT_number 66
_symmetry_cell_setting 'orthorhombic'
loop_
_space_group_symop_operation_xyz
x,y,z
-x,-y,z
x,-y,1/2-z
-x,y,1/2-z
-x,-y,-z
x,y,-z
-x,y,1/2+z
x,-y,1/2+z
1/2+x,1/2+y,z
1/2-x,1/2-y,z
1/2+x,1/2-y,1/2-z
1/2-x,1/2+y,1/2-z
1/2-x,1/2-y,-z
1/2+x,1/2+y,-z
1/2-x,1/2+y,1/2+z
1/2+x,1/2-y,1/2+z
loop_
_atom_site_type_symbol
_atom_site_label
_atom_site_fract_x
_atom_site_fract_y
_atom_site_fract_z
Si Si1 0.255136 0.442869 0.317021
Si Si2 0.231974 0.331204 0.182170
Si Si3 0.885535 0.056547 0.182417
Si Si4 0.833157 0.236724 0.817533
Si Si5 0.060081 0.832010 0.817290
O O1 0.230584 0.500000 0.250000
O O2 0.247013 0.440966 0.500000
O O3 0.220195 0.393393 0.237702
O O4 0.320488 0.436523 0.265571
O O5 0.177806 0.293844 0.227418
O O6 0.286761 0.308749 0.272122
O O7 0.242569 0.328270 0.000000
O O8 0.920931 0.108258 0.248893
O O9 0.911341 0.000000 0.250000
O O10 0.889765 0.053805 0.000000
O O11 0.894614 0.214289 0.767658
O O12 0.829173 0.246966 0.000000
O O13 0.000000 0.814192 0.750000
O O14 0.056302 0.835725 0.000000
#
# Coordination Sequence:
#
# PCOD8275535 Si02
#       5
#    16  16  16  16  16
#     4  10  18  31  48  69  97 127 158 193 237 284
#     4  11  20  30  48  74  96 120 156 196 238 288
#     4   9  18  32  46  63  87 120 160 199 237 278
#     4  10  19  34  50  66  92 125 158 196 242 288
#     4  10  21  35  49  66  90 122 161 202 244 284
#
# _framework density 16.170228999999999
#
# number of rings (size 3 to 8) (size 9 to 14) (size 15 to 20)
#    0.000    2.000    2.000    4.200    0.000    3.600 
#    0.000    2.000    0.000    0.000    0.000    0.000 
#    0.000    0.800    0.000    8.400    0.000    4.600 
#
# Total GULP energy -496039.617517 kJ/mol
# GULP energy per Si atom -12400.990438 kJ/mol
# Density = 1.613342 g / cm^3
# Si number density = 16.170229 Si / 1000 Ang^3
#
#
#
# Elastic Constant Matrix: (Units=GPa)
#
#
# Indices 1 2 3 4 5 6 
#
# 1 75.1223 54.4675 18.6417 0.0000 0.0000 0.0000
# 2 54.4675 130.3969 26.6935 0.0000 0.0000 0.0000
# 3 18.6417 26.6935 41.1006 0.0000 0.0000 0.0000
# 4 0.0000 0.0000 0.0000 28.8443 0.0000 0.0000
# 5 0.0000 0.0000 0.0000 0.0000 20.5790 0.0000
# 6 0.0000 0.0000 0.0000 0.0000 0.0000 17.7598
#
#
#
# Elastic Compliance Matrix: (Units=1/GPa)
#
#
# Indices 1 2 3 4 5 6 
#
# 1 0.019687 -0.007376 -0.004139 0.000000 0.000000 0.000000
# 2 -0.007376 0.011608 -0.004194 0.000000 0.000000 0.000000
# 3 -0.004139 -0.004194 0.028931 0.000000 0.000000 0.000000
# 4 0.000000 0.000000 0.000000 0.034669 0.000000 0.000000
# 5 0.000000 0.000000 0.000000 0.000000 0.048593 0.000000
# 6 0.000000 0.000000 0.000000 0.000000 0.000000 0.056307
#
#
# Mechanical properties :
#
#
# Convention : Reuss Voigt Hill
#
# Bulk Modulus (GPa) = 34.71070 49.58056 42.14563
# Shear Modulus (GPa) = 20.76279 23.22444 21.99361
#
# Velocity S-wave (km/s) = 3.58720 3.79390 3.69200
# Velocity P-wave (km/s) = 6.21850 7.06539 6.65543
#
# Compressibility (1/GPa) = 0.02880956
#
# Stress axis : x y z
#
# Youngs Moduli (GPa) = 50.79594 86.14459 34.56446
#
# Poissons Ratio (x) = 0.63540 0.14305
# Poissons Ratio (y) = 0.37467 0.14496
# Poissons Ratio (z) = 0.21023 0.36127
#
# Static dielectric constant tensor:
#      x y z
#    x 2.950350 0.000000 0.000000 
#    y 0.000000 3.302640 0.000000 
#    z 0.000000 0.000000 3.008940 
# 
# 
# High freq. dielectric constant tensor:
#      x y z
#    x 1.573270 0.000000 0.000000 
#    y 0.000000 1.626540 0.000000 
#    z 0.000000 0.000000 1.629860 
# 
# From -- ./inp_files/6737.got.cif
#   From: 2010.03.12/outbox.cif.g09.slc.cpg/sg66_4_cif.got.tgz:6737.got - 2010.04.10 21:57:39.
