data_PCOD8275988
_publ_section_title
;
Structure prediction by ZEFSAII (Michael W. Deem and Ramdas Pophale) SiO2 
 PCOD8275988
Probable space group: C C C M
;
_chemical_formula_sum "Si O2"
_cell_formula_units_Z 80
_cell_length_a 17.655084
_cell_length_b 13.570151
_cell_length_c 17.483591
_cell_angle_alpha 90.000000
_cell_angle_beta 90.000000
_cell_angle_gamma 90.000000
_cell_volume 4188.756423
_symmetry_space_group_name_H-M "C C C M"
_symmetry_group_IT_number 66
_symmetry_cell_setting 'orthorhombic'
loop_
_space_group_symop_operation_xyz
x,y,z
-x,-y,z
x,-y,1/2-z
-x,y,1/2-z
-x,-y,-z
x,y,-z
-x,y,1/2+z
x,-y,1/2+z
1/2+x,1/2+y,z
1/2-x,1/2-y,z
1/2+x,1/2-y,1/2-z
1/2-x,1/2+y,1/2-z
1/2-x,1/2-y,-z
1/2+x,1/2+y,-z
1/2-x,1/2+y,1/2+z
1/2+x,1/2-y,1/2+z
loop_
_atom_site_type_symbol
_atom_site_label
_atom_site_fract_x
_atom_site_fract_y
_atom_site_fract_z
Si Si1 0.585712 0.102209 0.228196
Si Si2 0.324651 0.624730 0.868765
Si Si3 0.159303 0.340080 0.586271
Si Si4 0.577898 0.550955 0.913660
Si Si5 0.087642 0.187409 0.225639
O O1 0.500000 0.088938 0.250000
O O2 0.590323 0.117668 0.136341
O O3 0.617875 0.199179 0.272273
O O4 0.628954 0.000000 0.250000
O O5 0.233698 0.622502 0.868227
O O6 0.348213 0.721890 0.916213
O O7 0.355159 0.528933 0.912085
O O8 0.359669 0.625130 0.783429
O O9 0.156848 0.381212 0.500000
O O10 0.500000 0.500000 0.886126
O O11 0.597109 0.642874 0.858852
O O12 0.569879 0.591897 0.000000
O O13 0.000000 0.182745 0.250000
#
# Coordination Sequence:
#
# PCOD8275988 Si02
#       5
#    16  16  16  16  16
#     4   9  20  39  57  77 106 142 191 243 291 350
#     4  10  19  33  55  80 115 151 193 237 278 344
#     4  10  20  36  58  84 109 145 196 249 289 326
#     4  11  21  31  49  82 121 156 187 228 285 356
#     4  10  19  34  52  78 112 152 189 228 289 356
#
# _framework density 19.098746999999999
#
# number of rings (size 3 to 8) (size 9 to 14) (size 15 to 20)
#    0.000    2.000    2.000    3.000    0.000    1.600 
#    0.000    3.000    0.000    0.000    0.000   15.400 
#    0.000    0.000    0.000    0.000    0.000    0.000 
#
# Total GULP energy -495782.595502 kJ/mol
# GULP energy per Si atom -12394.564888 kJ/mol
# Density = 1.905528 g / cm^3
# Si number density = 19.098747 Si / 1000 Ang^3
#
#
#
# Elastic Constant Matrix: (Units=GPa)
#
#
# Indices 1 2 3 4 5 6 
#
# 1 64.7448 24.7511 45.7486 0.0000 0.0000 0.0000
# 2 24.7511 108.7788 61.0522 0.0000 0.0000 0.0000
# 3 45.7486 61.0522 149.2032 0.0000 0.0000 0.0000
# 4 0.0000 0.0000 0.0000 24.9905 0.0000 0.0000
# 5 0.0000 0.0000 0.0000 0.0000 26.3969 0.0000
# 6 0.0000 0.0000 0.0000 0.0000 0.0000 19.9774
#
#
#
# Elastic Compliance Matrix: (Units=1/GPa)
#
#
# Indices 1 2 3 4 5 6 
#
# 1 0.019887 -0.001431 -0.005512 0.000000 0.000000 0.000000
# 2 -0.001431 0.012037 -0.004486 0.000000 0.000000 0.000000
# 3 -0.005512 -0.004486 0.010228 0.000000 0.000000 0.000000
# 4 0.000000 0.000000 0.000000 0.040015 0.000000 0.000000
# 5 0.000000 0.000000 0.000000 0.000000 0.037883 0.000000
# 6 0.000000 0.000000 0.000000 0.000000 0.000000 0.050057
#
#
# Mechanical properties :
#
#
# Convention : Reuss Voigt Hill
#
# Bulk Modulus (GPa) = 51.83403 65.09231 58.46317
# Shear Modulus (GPa) = 25.07549 27.01793 26.04671
#
# Velocity S-wave (km/s) = 3.62738 3.76526 3.69696
# Velocity P-wave (km/s) = 6.68901 7.28415 6.99291
#
# Compressibility (1/GPa) = 0.01929235
#
# Stress axis : x y z
#
# Youngs Moduli (GPa) = 50.28327 83.07978 97.76938
#
# Poissons Ratio (x) = 0.11892 0.53892
# Poissons Ratio (y) = 0.07198 0.43863
# Poissons Ratio (z) = 0.27717 0.37272
#
# Static dielectric constant tensor:
#      x y z
#    x 3.369770 0.000000 0.000000 
#    y 0.000000 3.894670 0.000000 
#    z 0.000000 0.000000 3.453240 
# 
# 
# High freq. dielectric constant tensor:
#      x y z
#    x 1.723090 0.000000 0.000000 
#    y 0.000000 1.736940 0.000000 
#    z 0.000000 0.000000 1.734890 
# 
# From -- ./inp_files/28102.got.cif
#   From: 2010.03.12/outbox.cif.g09.slc.cpg/sg66_15_cif.got.tgz:28102.got - 2010.04.10 21:57:39.
