data_PCOD8275355
_publ_section_title
;
Structure prediction by ZEFSAII (Michael W. Deem and Ramdas Pophale) SiO2 
 PCOD8275355
Probable space group: C C C M
;
_chemical_formula_sum "Si O2"
_cell_formula_units_Z 116
_cell_length_a 26.658027
_cell_length_b 26.614909
_cell_length_c 9.430743
_cell_angle_alpha 90.000000
_cell_angle_beta 90.000000
_cell_angle_gamma 90.000000
_cell_volume 6691.121238
_symmetry_space_group_name_H-M "C C C M"
_symmetry_group_IT_number 66
_symmetry_cell_setting 'orthorhombic'
loop_
_space_group_symop_operation_xyz
x,y,z
-x,-y,z
x,-y,1/2-z
-x,y,1/2-z
-x,-y,-z
x,y,-z
-x,y,1/2+z
x,-y,1/2+z
1/2+x,1/2+y,z
1/2-x,1/2-y,z
1/2+x,1/2-y,1/2-z
1/2-x,1/2+y,1/2-z
1/2-x,1/2-y,-z
1/2+x,1/2+y,-z
1/2-x,1/2+y,1/2+z
1/2+x,1/2-y,1/2+z
loop_
_atom_site_type_symbol
_atom_site_label
_atom_site_fract_x
_atom_site_fract_y
_atom_site_fract_z
Si Si1 0.875172 0.746145 0.163912
Si Si2 0.183889 0.655407 0.668104
Si Si3 0.449317 0.684287 0.830565
Si Si4 0.825769 0.075417 0.664026
Si Si5 0.000000 0.000000 0.750000
Si Si6 0.082737 0.073149 0.658021
Si Si7 0.209776 0.821112 0.337571
Si Si8 0.712748 0.046989 0.335320
O O1 0.865306 0.688092 0.213658
O O2 0.910861 0.773759 0.273972
O O3 0.819269 0.769220 0.177118
O O4 0.894508 0.750697 0.000000
O O5 0.185790 0.658663 0.500000
O O6 0.234988 0.680207 0.733276
O O7 0.182575 0.596980 0.715630
O O8 0.500000 0.697608 0.750000
O O9 0.433270 0.628214 0.785262
O O10 0.455461 0.689567 0.000000
O O11 0.839954 0.070391 0.500000
O O12 0.871952 0.050190 0.748338
O O13 0.823797 0.132939 0.721817
O O14 0.772108 0.050646 0.697442
O O15 0.964839 0.035915 0.844113
O O16 0.103498 0.078222 0.500000
O O17 0.219057 0.836729 0.500000
O O18 0.703371 0.037435 0.500000
O O19 0.690210 0.000000 0.250000
#
# Coordination Sequence:
#
# PCOD8275355 Si02
#       8
#    16  16  16  16   4  16  16  16
#     4  10  17  29  53  78  98 128 163 203 250 297
#     4   8  15  27  46  74 104 130 167 204 236 288
#     4  11  23  39  55  73  97 127 163 207 258 314
#     4   9  18  32  50  70  95 124 161 204 249 298
#     4  12  26  44  52  66  86 124 168 222 272 304
#     4  11  24  39  54  69  88 118 163 216 265 306
#     4   8  13  24  45  73  98 125 157 194 237 293
#     4   9  18  32  48  71 101 136 170 204 239 283
#
# _framework density 17.336406
#
# number of rings (size 3 to 8) (size 9 to 14) (size 15 to 20)
#    0.000    2.483    2.069    2.690    0.966    3.862 
#    0.000    0.690    0.000    2.483    0.000    0.000 
#    0.000    0.552    0.000    6.345    0.000    1.931 
#
# Total GULP energy -718568.904991 kJ/mol
# GULP energy per Si atom -12389.119052 kJ/mol
# Density = 1.729695 g / cm^3
# Si number density = 17.336406 Si / 1000 Ang^3
#
#
#
# Elastic Constant Matrix: (Units=GPa)
#
#
# Indices 1 2 3 4 5 6 
#
# 1 53.1923 44.4090 25.8891 0.0000 0.0000 0.0000
# 2 44.4090 113.0603 37.2412 0.0000 0.0000 0.0000
# 3 25.8891 37.2412 53.5886 0.0000 0.0000 0.0000
# 4 0.0000 0.0000 0.0000 19.8219 0.0000 0.0000
# 5 0.0000 0.0000 0.0000 0.0000 16.3426 0.0000
# 6 0.0000 0.0000 0.0000 0.0000 0.0000 23.6150
#
#
#
# Elastic Compliance Matrix: (Units=1/GPa)
#
#
# Indices 1 2 3 4 5 6 
#
# 1 0.030600 -0.009272 -0.008339 0.000000 0.000000 0.000000
# 2 -0.009272 0.014280 -0.005444 0.000000 0.000000 0.000000
# 3 -0.008339 -0.005444 0.026473 0.000000 0.000000 0.000000
# 4 0.000000 0.000000 0.000000 0.050449 0.000000 0.000000
# 5 0.000000 0.000000 0.000000 0.000000 0.061190 0.000000
# 6 0.000000 0.000000 0.000000 0.000000 0.000000 0.042346
#
#
# Mechanical properties :
#
#
# Convention : Reuss Voigt Hill
#
# Bulk Modulus (GPa) = 39.61809 48.32442 43.97125
# Shear Modulus (GPa) = 17.86581 19.44268 18.65425
#
# Velocity S-wave (km/s) = 3.21368 3.35251 3.28383
# Velocity P-wave (km/s) = 6.05578 6.55139 6.30846
#
# Compressibility (1/GPa) = 0.02524100
#
# Stress axis : x y z
#
# Youngs Moduli (GPa) = 32.67997 70.02641 37.77427
#
# Poissons Ratio (x) = 0.64932 0.31501
# Poissons Ratio (y) = 0.30302 0.20566
# Poissons Ratio (z) = 0.27252 0.38126
#
# Static dielectric constant tensor:
#      x y z
#    x 3.049520 0.000000 0.000000 
#    y 0.000000 3.430880 0.000000 
#    z 0.000000 0.000000 2.889560 
# 
# 
# High freq. dielectric constant tensor:
#      x y z
#    x 1.636260 0.000000 0.000000 
#    y 0.000000 1.672660 0.000000 
#    z 0.000000 0.000000 1.636890 
# 
# From -- ./inp_files/10899.got.cif
#   From: 2010.03.12/outbox.cif.g09.slc.cpg/sg66_6_cif.got.tgz:10899.got - 2010.04.10 21:57:39.
