data_PCOD8275214
_publ_section_title
;
Structure prediction by ZEFSAII (Michael W. Deem and Ramdas Pophale) SiO2 
 PCOD8275214
Probable space group: C C C M
;
_chemical_formula_sum "Si O2"
_cell_formula_units_Z 96
_cell_length_a 18.227803
_cell_length_b 26.019680
_cell_length_c 13.801592
_cell_angle_alpha 90.000000
_cell_angle_beta 90.000000
_cell_angle_gamma 90.000000
_cell_volume 6545.841152
_symmetry_space_group_name_H-M "C C C M"
_symmetry_group_IT_number 66
_symmetry_cell_setting 'orthorhombic'
loop_
_space_group_symop_operation_xyz
x,y,z
-x,-y,z
x,-y,1/2-z
-x,y,1/2-z
-x,-y,-z
x,y,-z
-x,y,1/2+z
x,-y,1/2+z
1/2+x,1/2+y,z
1/2-x,1/2-y,z
1/2+x,1/2-y,1/2-z
1/2-x,1/2+y,1/2-z
1/2-x,1/2-y,-z
1/2+x,1/2+y,-z
1/2-x,1/2+y,1/2+z
1/2+x,1/2-y,1/2+z
loop_
_atom_site_type_symbol
_atom_site_label
_atom_site_fract_x
_atom_site_fract_y
_atom_site_fract_z
Si Si1 0.573174 0.719151 0.500000
Si Si2 0.465013 0.554927 0.000000
Si Si3 0.922843 0.256816 0.207389
Si Si4 0.581791 0.555180 0.712246
Si Si5 0.856208 0.843983 0.201558
Si Si6 0.220910 0.693125 0.202702
Si Si7 0.568756 0.648579 0.000000
Si Si8 0.732940 0.690053 0.500000
O O1 0.573693 0.756642 0.408332
O O2 0.499476 0.686585 0.500000
O O3 0.644370 0.681743 0.500000
O O4 0.500000 0.500000 0.000000
O O5 0.415248 0.560647 0.095774
O O6 0.535421 0.591962 0.000000
O O7 0.902763 0.199250 0.241984
O O8 0.863587 0.300878 0.237057
O O9 0.000000 0.274713 0.250000
O O10 0.611452 0.500000 0.750000
O O11 0.500000 0.563829 0.750000
O O12 0.631226 0.599861 0.755263
O O13 0.768855 0.834117 0.213531
O O14 0.878403 0.841657 0.090253
O O15 0.250000 0.750000 0.185272
O O16 0.232294 0.664733 0.097919
O O17 0.750000 0.750000 0.500000
#
# Coordination Sequence:
#
# PCOD8275214 Si02
#       8
#     8   8  16  16  16  16   8   8
#     4  12  18  26  43  66  80 110 148 182 219 252
#     4  12  20  30  44  62  87 118 152 182 216 245
#     4  11  19  31  45  63  86 111 148 185 218 263
#     4  11  20  31  45  64  89 116 148 187 216 254
#     4  11  20  32  43  63  86 116 149 180 219 258
#     4   9  18  29  45  61  83 112 140 186 221 259
#     4  12  22  28  44  63  84 120 156 183 207 263
#     4  10  14  26  44  60  82 103 138 179 222 254
#
# _framework density 14.665801
#
# number of rings (size 3 to 8) (size 9 to 14) (size 15 to 20)
#    0.000    1.167   10.000    1.500    0.000    0.000 
#    0.000    4.583    0.000    0.000    0.000    0.000 
#    0.000    0.667    0.000    0.000    0.000   12.000 
#
# Total GULP energy -594960.706311 kJ/mol
# GULP energy per Si atom -12395.014715 kJ/mol
# Density = 1.463242 g / cm^3
# Si number density = 14.665801 Si / 1000 Ang^3
#
#
#
# Elastic Constant Matrix: (Units=GPa)
#
#
# Indices 1 2 3 4 5 6 
#
# 1 115.1165 41.8970 46.5921 0.0000 0.0000 0.0000
# 2 41.8970 53.1158 31.9726 0.0000 0.0000 0.0000
# 3 46.5921 31.9726 115.3873 0.0000 0.0000 0.0000
# 4 0.0000 0.0000 0.0000 22.2866 0.0000 0.0000
# 5 0.0000 0.0000 0.0000 0.0000 29.7708 0.0000
# 6 0.0000 0.0000 0.0000 0.0000 0.0000 15.2301
#
#
#
# Elastic Compliance Matrix: (Units=1/GPa)
#
#
# Indices 1 2 3 4 5 6 
#
# 1 0.012934 -0.008471 -0.002875 0.000000 0.000000 0.000000
# 2 -0.008471 0.028144 -0.004378 0.000000 0.000000 0.000000
# 3 -0.002875 -0.004378 0.011040 0.000000 0.000000 0.000000
# 4 0.000000 0.000000 0.000000 0.044870 0.000000 0.000000
# 5 0.000000 0.000000 0.000000 0.000000 0.033590 0.000000
# 6 0.000000 0.000000 0.000000 0.000000 0.000000 0.065659
#
#
# Mechanical properties :
#
#
# Convention : Reuss Voigt Hill
#
# Bulk Modulus (GPa) = 48.38002 58.28257 53.33130
# Shear Modulus (GPa) = 21.31506 24.33468 22.82487
#
# Velocity S-wave (km/s) = 3.81646 4.07785 3.94932
# Velocity P-wave (km/s) = 7.24434 7.87391 7.56568
#
# Compressibility (1/GPa) = 0.02066969
#
# Stress axis : x y z
#
# Youngs Moduli (GPa) = 77.31750 35.53154 90.57574
#
# Poissons Ratio (x) = 0.30100 0.26042
# Poissons Ratio (y) = 0.65497 0.39652
# Poissons Ratio (z) = 0.22230 0.15555
#
# Static dielectric constant tensor:
#      x y z
#    x 2.716330 0.000000 0.000000 
#    y 0.000000 2.072890 0.000000 
#    z 0.000000 0.000000 3.213270 
# 
# 
# High freq. dielectric constant tensor:
#      x y z
#    x 1.538380 0.000000 0.000000 
#    y 0.000000 1.517740 0.000000 
#    z 0.000000 0.000000 1.578590 
# 
# From -- ./inp_files/17999.got.cif
#   From: 2010.03.12/outbox.cif.g09.slc.cpg/sg66_9_cif.got.tgz:17999.got - 2010.04.10 21:57:39.
