data_PCOD8275843
_publ_section_title
;
Structure prediction by ZEFSAII (Michael W. Deem and Ramdas Pophale) SiO2 
 PCOD8275843
Probable space group: C C C M
;
_chemical_formula_sum "Si O2"
_cell_formula_units_Z 80
_cell_length_a 16.344780
_cell_length_b 8.805139
_cell_length_c 29.355987
_cell_angle_alpha 90.000000
_cell_angle_beta 90.000000
_cell_angle_gamma 90.000000
_cell_volume 4224.856693
_symmetry_space_group_name_H-M "C C C M"
_symmetry_group_IT_number 66
_symmetry_cell_setting 'orthorhombic'
loop_
_space_group_symop_operation_xyz
x,y,z
-x,-y,z
x,-y,1/2-z
-x,y,1/2-z
-x,-y,-z
x,y,-z
-x,y,1/2+z
x,-y,1/2+z
1/2+x,1/2+y,z
1/2-x,1/2-y,z
1/2+x,1/2-y,1/2-z
1/2-x,1/2+y,1/2-z
1/2-x,1/2-y,-z
1/2+x,1/2+y,-z
1/2-x,1/2+y,1/2+z
1/2+x,1/2-y,1/2+z
loop_
_atom_site_type_symbol
_atom_site_label
_atom_site_fract_x
_atom_site_fract_y
_atom_site_fract_z
Si Si1 0.091934 0.558160 0.606201
Si Si2 0.911504 0.571278 0.793365
Si Si3 0.327703 0.354774 0.883904
Si Si4 0.236860 0.575263 0.946829
Si Si5 0.587702 0.574103 0.795539
O O1 0.127535 0.529282 0.657565
O O2 0.099360 0.741639 0.598729
O O3 0.146951 0.468796 0.570386
O O4 0.000000 0.500000 0.599527
O O5 0.861777 0.500000 0.750000
O O6 0.921616 0.748949 0.786169
O O7 0.000000 0.500000 0.793715
O O8 0.250000 0.250000 0.871899
O O9 0.307118 0.474876 0.923186
O O10 0.353884 0.450071 0.839167
O O11 0.250000 0.750000 0.935048
O O12 0.242457 0.541455 0.000000
O O13 0.500000 0.500000 0.805920
O O14 0.626852 0.500000 0.750000
#
# Coordination Sequence:
#
# PCOD8275843 Si02
#       5
#    16  16  16  16  16
#     4   9  19  35  57  82 105 138 182 221 259 312
#     4   9  16  28  47  74 108 139 170 206 253 306
#     4   9  20  38  55  76 109 144 178 215 264 325
#     4  10  22  39  57  78 105 137 174 220 276 327
#     4  10  19  31  52  81 109 140 179 219 259 302
#
# _framework density 18.935552999999999
#
# number of rings (size 3 to 8) (size 9 to 14) (size 15 to 20)
#    0.000    2.600    0.000    2.400    0.000   10.400 
#    0.000   10.000    0.000    3.000    0.000    0.000 
#    0.000    0.000    0.000    0.000    0.000    0.000 
#
# Total GULP energy -495664.083808 kJ/mol
# GULP energy per Si atom -12391.602095 kJ/mol
# Density = 1.889245 g / cm^3
# Si number density = 18.935553 Si / 1000 Ang^3
#
#
#
# Elastic Constant Matrix: (Units=GPa)
#
#
# Indices 1 2 3 4 5 6 
#
# 1 71.5618 52.0956 53.3269 0.0000 0.0000 0.0000
# 2 52.0956 125.4811 86.9177 0.0000 0.0000 0.0000
# 3 53.3269 86.9177 142.9587 0.0000 0.0000 0.0000
# 4 0.0000 0.0000 0.0000 38.8784 0.0000 0.0000
# 5 0.0000 0.0000 0.0000 0.0000 28.1351 0.0000
# 6 0.0000 0.0000 0.0000 0.0000 0.0000 23.4946
#
#
#
# Elastic Compliance Matrix: (Units=1/GPa)
#
#
# Indices 1 2 3 4 5 6 
#
# 1 0.021579 -0.005845 -0.004496 0.000000 0.000000 0.000000
# 2 -0.005845 0.015350 -0.007153 0.000000 0.000000 0.000000
# 3 -0.004496 -0.007153 0.013021 0.000000 0.000000 0.000000
# 4 0.000000 0.000000 0.000000 0.025721 0.000000 0.000000
# 5 0.000000 0.000000 0.000000 0.000000 0.035543 0.000000
# 6 0.000000 0.000000 0.000000 0.000000 0.000000 0.042563
#
#
# Mechanical properties :
#
#
# Convention : Reuss Voigt Hill
#
# Bulk Modulus (GPa) = 66.82857 80.52021 73.67439
# Shear Modulus (GPa) = 25.80621 27.94571 26.87596
#
# Velocity S-wave (km/s) = 3.69568 3.84582 3.77150
# Velocity P-wave (km/s) = 7.31983 7.89532 7.61302
#
# Compressibility (1/GPa) = 0.01496366
#
# Stress axis : x y z
#
# Youngs Moduli (GPa) = 46.34118 65.14521 76.79962
#
# Poissons Ratio (x) = 0.38075 0.34529
# Poissons Ratio (y) = 0.27085 0.54932
# Poissons Ratio (z) = 0.20835 0.46596
#
# Static dielectric constant tensor:
#      x y z
#    x 3.315720 0.000000 0.000000 
#    y 0.000000 3.650380 0.000000 
#    z 0.000000 0.000000 4.392070 
# 
# 
# High freq. dielectric constant tensor:
#      x y z
#    x 1.709600 0.000000 0.000000 
#    y 0.000000 1.744220 0.000000 
#    z 0.000000 0.000000 1.743830 
# 
# From -- ./inp_files/65069.got.cif
#   From: 2010.03.12/outbox.cif.g09.slc.cpg/sg66_33_cif.got.tgz:65069.got - 2010.04.10 21:57:39.
