data_PCOD8275192
_publ_section_title
;
Structure prediction by ZEFSAII (Michael W. Deem and Ramdas Pophale) SiO2 
 PCOD8275192
Probable space group: C M M M
;
_chemical_formula_sum "Si O2"
_cell_formula_units_Z 64
_cell_length_a 16.692810
_cell_length_b 14.874981
_cell_length_c 12.992439
_cell_angle_alpha 90.000000
_cell_angle_beta 90.000000
_cell_angle_gamma 90.000000
_cell_volume 3226.090575
_symmetry_space_group_name_H-M "C M M M"
_symmetry_group_IT_number 65
_symmetry_cell_setting 'orthorhombic'
loop_
_space_group_symop_operation_xyz
x,y,z
-x,-y,z
x,-y,-z
-x,y,-z
-x,-y,-z
x,y,-z
-x,y,z
x,-y,z
1/2+x,1/2+y,z
1/2-x,1/2-y,z
1/2+x,1/2-y,-z
1/2-x,1/2+y,-z
1/2-x,1/2-y,-z
1/2+x,1/2+y,-z
1/2-x,1/2+y,z
1/2+x,1/2-y,z
loop_
_atom_site_type_symbol
_atom_site_label
_atom_site_fract_x
_atom_site_fract_y
_atom_site_fract_z
Si Si1 0.673406 0.895815 0.710243
Si Si2 0.500000 0.605937 0.388776
Si Si3 0.857082 0.103117 0.247053
Si Si4 0.908821 0.606736 0.500000
Si Si5 0.343659 0.762357 0.112756
O O1 0.768879 0.880782 0.706353
O O2 0.636681 0.859522 0.602940
O O3 0.634844 0.840238 0.805041
O O4 0.651927 0.000000 0.728842
O O5 0.500000 0.500000 0.400942
O O6 0.500000 0.653352 0.500000
O O7 0.419155 0.635707 0.332828
O O8 0.876343 0.165437 0.149043
O O9 0.869774 0.000000 0.212981
O O10 0.907457 0.500000 0.500000
O O11 0.000000 0.643021 0.500000
O O12 0.250000 0.750000 0.102094
O O13 0.380254 0.786218 0.000000
#
# Coordination Sequence:
#
# PCOD8275192 Si02
#       5
#    16   8  16   8  16
#     4   9  18  33  55  80 105 137 172 210 262 314
#     4   9  18  32  51  75 108 143 173 212 256 306
#     4   9  18  33  52  77 107 139 175 211 256 308
#     4   9  18  34  55  77 106 138 171 215 259 310
#     4   9  18  34  53  76 105 135 176 221 256 302
#
# _framework density 19.838252000000001
#
# number of rings (size 3 to 8) (size 9 to 14) (size 15 to 20)
#    0.000    3.000    0.000    0.000    1.750    1.000 
#    4.500    7.500    0.000    2.250    0.000    3.500 
#    0.000    0.000    0.000    0.000    0.000    0.000 
#
# Total GULP energy -396612.583320 kJ/mol
# GULP energy per Si atom -12394.143229 kJ/mol
# Density = 1.979310 g / cm^3
# Si number density = 19.838252 Si / 1000 Ang^3
#
#
#
# Elastic Constant Matrix: (Units=GPa)
#
#
# Indices 1 2 3 4 5 6 
#
# 1 72.8529 31.0295 56.9015 0.0000 0.0000 0.0000
# 2 31.0295 89.3446 76.7121 0.0000 0.0000 0.0000
# 3 56.9015 76.7121 212.9787 0.0000 0.0000 0.0000
# 4 0.0000 0.0000 0.0000 -190.0224 0.0000 0.0000
# 5 0.0000 0.0000 0.0000 0.0000 5.5336 0.0000
# 6 0.0000 0.0000 0.0000 0.0000 0.0000 11.8630
#
#
#
# Elastic Compliance Matrix: (Units=1/GPa)
#
#
# Indices 1 2 3 4 5 6 
#
# 1 0.017904 -0.003056 -0.003683 0.000000 0.000000 0.000000
# 2 -0.003056 0.016725 -0.005208 0.000000 0.000000 0.000000
# 3 -0.003683 -0.005208 0.007555 0.000000 0.000000 0.000000
# 4 0.000000 0.000000 0.000000 -0.005263 0.000000 0.000000
# 5 0.000000 0.000000 0.000000 0.000000 0.180713 0.000000
# 6 0.000000 0.000000 0.000000 0.000000 0.000000 0.084296
#
#
# Mechanical properties :
#
#
# Convention : Reuss Voigt Hill
#
# Bulk Modulus (GPa) = 54.67035 78.27362 66.47199
# Shear Modulus (GPa) = 15.06382 -20.48961 -2.71290
#
# Velocity S-wave (km/s) = 2.75859 -3.21726 -1.17067
# Velocity P-wave (km/s) = 6.14526 5.07351 5.63493
#
# Compressibility (1/GPa) = 0.01829145
#
# Stress axis : x y z
#
# Youngs Moduli (GPa) = 55.85239 59.78900 132.36298
#
# Poissons Ratio (x) = 0.18273 0.48745
# Poissons Ratio (y) = 0.17070 0.68932
# Poissons Ratio (z) = 0.20569 0.31137
#
# Static dielectric constant tensor:
#      x y z
#    x 3.265050 0.000000 0.000000 
#    y 0.000000 3.548480 0.000000 
#    z 0.000000 0.000000 4.041860 
# 
# 
# High freq. dielectric constant tensor:
#      x y z
#    x 1.753100 0.000000 0.000000 
#    y 0.000000 1.768300 0.000000 
#    z 0.000000 0.000000 1.771770 
# 
# From -- ./inp_files/26121.got.cif
#   From: 2010.03.12/outbox.cif.g09.slc.cpg/sg65_14_cif.got.tgz:26121.got - 2010.04.10 20:52:16.
