data_PCOD8275129
_publ_section_title
;
Structure prediction by ZEFSAII (Michael W. Deem and Ramdas Pophale) SiO2 
 PCOD8275129
Probable space group: C M M M
;
_chemical_formula_sum "Si O2"
_cell_formula_units_Z 104
_cell_length_a 29.128545
_cell_length_b 9.435957
_cell_length_c 23.274271
_cell_angle_alpha 90.000000
_cell_angle_beta 90.000000
_cell_angle_gamma 90.000000
_cell_volume 6397.066003
_symmetry_space_group_name_H-M "C M M M"
_symmetry_group_IT_number 65
_symmetry_cell_setting 'orthorhombic'
loop_
_space_group_symop_operation_xyz
x,y,z
-x,-y,z
x,-y,-z
-x,y,-z
-x,-y,-z
x,y,-z
-x,y,z
x,-y,z
1/2+x,1/2+y,z
1/2-x,1/2-y,z
1/2+x,1/2-y,-z
1/2-x,1/2+y,-z
1/2-x,1/2-y,-z
1/2+x,1/2+y,-z
1/2-x,1/2+y,z
1/2+x,1/2-y,z
loop_
_atom_site_type_symbol
_atom_site_label
_atom_site_fract_x
_atom_site_fract_y
_atom_site_fract_z
Si Si1 0.388925 0.831344 0.563806
Si Si2 0.106902 0.668221 0.222157
Si Si3 0.054493 0.839746 0.000000
Si Si4 0.051707 0.330699 0.331452
Si Si5 0.206596 0.337025 0.387752
Si Si6 0.946377 0.664952 0.890303
Si Si7 0.706349 0.837124 0.747203
O O1 0.402046 0.776966 0.500000
O O2 0.425678 0.772542 0.609651
O O3 0.338178 0.777184 0.580105
O O4 0.388834 0.000000 0.566314
O O5 0.105398 0.500000 0.226556
O O6 0.079917 0.730537 0.277195
O O7 0.081990 0.720213 0.164469
O O8 0.159920 0.719103 0.222080
O O9 0.071836 0.756273 0.056106
O O10 0.000000 0.841155 0.000000
O O11 0.074090 0.000000 0.000000
O O12 0.052238 0.500000 0.330646
O O13 0.000000 0.272401 0.328081
O O14 0.215540 0.500000 0.402846
O O15 0.250000 0.250000 0.410577
O O16 0.198929 0.315028 0.320261
O O17 0.937042 0.500000 0.903465
O O18 0.000000 0.690725 0.877834
O O19 0.750000 0.750000 0.770369
O O20 0.715700 0.000000 0.762384
#
# Coordination Sequence:
#
# PCOD8275129 Si02
#       7
#    16  16   8  16  16  16  16
#     4   9  16  25  36  53  80 112 143 176 218 264
#     4   9  15  25  41  62  86 111 141 180 221 255
#     4   9  17  29  43  61  92 129 154 173 206 249
#     4   9  15  23  36  55  81 112 144 177 215 260
#     4   9  16  27  42  59  81 109 139 174 217 263
#     4   9  16  26  43  67  91 116 149 183 210 244
#     4   9  16  27  43  61  84 112 141 174 216 262
#
# _framework density 16.257453000000002
#
# number of rings (size 3 to 8) (size 9 to 14) (size 15 to 20)
#    0.000    3.000    1.538    0.692    0.000    3.385 
#    0.000    2.308    0.000    0.000    0.000    0.538 
#    0.000    1.846    0.000    1.385    0.000    1.538 
#
# Total GULP energy -644629.862776 kJ/mol
# GULP energy per Si atom -12396.728130 kJ/mol
# Density = 1.622045 g / cm^3
# Si number density = 16.257453 Si / 1000 Ang^3
#
#
#
# Elastic Constant Matrix: (Units=GPa)
#
#
# Indices 1 2 3 4 5 6 
#
# 1 129.1403 31.5126 73.3085 0.0000 0.0000 0.0000
# 2 31.5126 35.2575 33.0168 0.0000 0.0000 0.0000
# 3 73.3085 33.0168 124.8571 0.0000 0.0000 0.0000
# 4 0.0000 0.0000 0.0000 8.3985 0.0000 0.0000
# 5 0.0000 0.0000 0.0000 0.0000 23.5281 0.0000
# 6 0.0000 0.0000 0.0000 0.0000 0.0000 17.8147
#
#
#
# Elastic Compliance Matrix: (Units=1/GPa)
#
#
# Indices 1 2 3 4 5 6 
#
# 1 0.012414 -0.005675 -0.005788 0.000000 0.000000 0.000000
# 2 -0.005675 0.040292 -0.007323 0.000000 0.000000 0.000000
# 3 -0.005788 -0.007323 0.013344 0.000000 0.000000 0.000000
# 4 0.000000 0.000000 0.000000 0.119069 0.000000 0.000000
# 5 0.000000 0.000000 0.000000 0.000000 0.042502 0.000000
# 6 0.000000 0.000000 0.000000 0.000000 0.000000 0.056134
#
#
# Mechanical properties :
#
#
# Convention : Reuss Voigt Hill
#
# Bulk Modulus (GPa) = 35.11413 62.77008 48.94210
# Shear Modulus (GPa) = 15.11394 20.04271 17.57833
#
# Velocity S-wave (km/s) = 3.05234 3.51498 3.29180
# Velocity P-wave (km/s) = 5.83679 7.42747 6.67965
#
# Compressibility (1/GPa) = 0.02847856
#
# Stress axis : x y z
#
# Youngs Moduli (GPa) = 80.55385 24.81852 74.94060
#
# Poissons Ratio (x) = 0.14085 0.43376
# Poissons Ratio (y) = 0.45717 0.54876
# Poissons Ratio (z) = 0.46625 0.18174
#
# Static dielectric constant tensor:
#      x y z
#    x 3.169110 0.000000 0.000000 
#    y 0.000000 2.680320 0.000000 
#    z 0.000000 0.000000 3.119810 
# 
# 
# High freq. dielectric constant tensor:
#      x y z
#    x 1.621630 0.000000 0.000000 
#    y 0.000000 1.572770 0.000000 
#    z 0.000000 0.000000 1.617730 
# 
# From -- ./inp_files/72187.got.cif
#   From: 2010.03.12/outbox.cif.g09.slc.cpg/sg65_37_cif.got.tgz:72187.got - 2010.04.10 20:52:16.
