data_PCOD8275074
_publ_section_title
;
Structure prediction by ZEFSAII (Michael W. Deem and Ramdas Pophale) SiO2 
 PCOD8275074
Probable space group: C M M M
;
_chemical_formula_sum "Si O2"
_cell_formula_units_Z 80
_cell_length_a 27.710859
_cell_length_b 13.917140
_cell_length_c 12.730531
_cell_angle_alpha 90.000000
_cell_angle_beta 90.000000
_cell_angle_gamma 90.000000
_cell_volume 4909.604444
_symmetry_space_group_name_H-M "C M M M"
_symmetry_group_IT_number 65
_symmetry_cell_setting 'orthorhombic'
loop_
_space_group_symop_operation_xyz
x,y,z
-x,-y,z
x,-y,-z
-x,y,-z
-x,-y,-z
x,y,-z
-x,y,z
x,-y,z
1/2+x,1/2+y,z
1/2-x,1/2-y,z
1/2+x,1/2-y,-z
1/2-x,1/2+y,-z
1/2-x,1/2-y,-z
1/2+x,1/2+y,-z
1/2-x,1/2+y,z
1/2+x,1/2-y,z
loop_
_atom_site_type_symbol
_atom_site_label
_atom_site_fract_x
_atom_site_fract_y
_atom_site_fract_z
Si Si1 0.555348 0.765682 0.620929
Si Si2 0.114808 0.388150 0.228672
Si Si3 0.366791 0.609695 0.621184
Si Si4 0.306429 0.271960 0.227778
Si Si5 0.377190 0.107423 0.000000
Si Si6 0.805189 0.768971 0.000000
O O1 0.562341 0.795972 0.500000
O O2 0.500000 0.743447 0.647257
O O3 0.573505 0.853979 0.691634
O O4 0.584961 0.669293 0.647804
O O5 0.126467 0.500000 0.250292
O O6 0.163719 0.326741 0.245918
O O7 0.093972 0.372257 0.109065
O O8 0.352206 0.620321 0.500000
O O9 0.377508 0.500000 0.651510
O O10 0.321690 0.648807 0.687588
O O11 0.250000 0.250000 0.241520
O O12 0.318689 0.318611 0.111669
O O13 0.327855 0.164265 0.000000
O O14 0.358234 0.000000 0.000000
O O15 0.750000 0.750000 0.000000
#
# Coordination Sequence:
#
# PCOD8275074 Si02
#       6
#    16  16  16  16   8   8
#     4   9  18  32  49  68  88 111 142 182 227 270
#     4   9  17  29  45  66  91 118 147 179 217 262
#     4   9  18  32  48  66  89 117 150 186 221 260
#     4   9  17  29  46  67  93 121 151 184 218 257
#     4   8  14  26  43  60  83 116 148 177 210 252
#     4   8  14  26  42  63  88 115 147 184 221 254
#
# _framework density 16.294591
#
# number of rings (size 3 to 8) (size 9 to 14) (size 15 to 20)
#    0.000    3.200    0.000    0.000    0.000    2.400 
#    0.000    7.000    0.000    1.800    0.000    0.000 
#    0.000    8.000    0.000    0.000    0.000    0.000 
#
# Total GULP energy -495526.572515 kJ/mol
# GULP energy per Si atom -12388.164313 kJ/mol
# Density = 1.625750 g / cm^3
# Si number density = 16.294591 Si / 1000 Ang^3
#
#
#
# Elastic Constant Matrix: (Units=GPa)
#
#
# Indices 1 2 3 4 5 6 
#
# 1 90.5643 34.7166 56.6622 0.0000 0.0000 0.0000
# 2 34.7166 88.8994 58.6948 0.0000 0.0000 0.0000
# 3 56.6622 58.6948 102.8939 0.0000 0.0000 0.0000
# 4 0.0000 0.0000 0.0000 20.3960 0.0000 0.0000
# 5 0.0000 0.0000 0.0000 0.0000 21.8312 0.0000
# 6 0.0000 0.0000 0.0000 0.0000 0.0000 12.2299
#
#
#
# Elastic Compliance Matrix: (Units=1/GPa)
#
#
# Indices 1 2 3 4 5 6 
#
# 1 0.016875 -0.000729 -0.008877 0.000000 0.000000 0.000000
# 2 -0.000729 0.018076 -0.009910 0.000000 0.000000 0.000000
# 3 -0.008877 -0.009910 0.020260 0.000000 0.000000 0.000000
# 4 0.000000 0.000000 0.000000 0.049029 0.000000 0.000000
# 5 0.000000 0.000000 0.000000 0.000000 0.045806 0.000000
# 6 0.000000 0.000000 0.000000 0.000000 0.000000 0.081767
#
#
# Mechanical properties :
#
#
# Convention : Reuss Voigt Hill
#
# Bulk Modulus (GPa) = 61.80597 64.72273 63.26435
# Shear Modulus (GPa) = 18.10024 19.71036 18.90530
#
# Velocity S-wave (km/s) = 3.33650 3.48174 3.40989
# Velocity P-wave (km/s) = 7.27019 7.48131 7.37651
#
# Compressibility (1/GPa) = 0.01617967
#
# Stress axis : x y z
#
# Youngs Moduli (GPa) = 59.25782 55.32096 49.35763
#
# Poissons Ratio (x) = 0.04033 0.43815
# Poissons Ratio (y) = 0.04320 0.48913
# Poissons Ratio (z) = 0.52604 0.54823
#
# Static dielectric constant tensor:
#      x y z
#    x 2.877710 0.000000 0.000000 
#    y 0.000000 2.911090 0.000000 
#    z 0.000000 0.000000 3.693510 
# 
# 
# High freq. dielectric constant tensor:
#      x y z
#    x 1.606390 0.000000 0.000000 
#    y 0.000000 1.612520 0.000000 
#    z 0.000000 0.000000 1.644990 
# 
# From -- ./inp_files/32139.got.cif
#   From: 2010.03.12/outbox.cif.g09.slc.cpg/sg65_17_cif.got.tgz:32139.got - 2010.04.10 20:52:16.
