data_PCOD8275054
_publ_section_title
;
Structure prediction by ZEFSAII (Michael W. Deem and Ramdas Pophale) SiO2 
 PCOD8275054
Probable space group: C M M M
;
_chemical_formula_sum "Si O2"
_cell_formula_units_Z 120
_cell_length_a 17.754037
_cell_length_b 23.799742
_cell_length_c 18.716879
_cell_angle_alpha 90.000000
_cell_angle_beta 90.000000
_cell_angle_gamma 90.000000
_cell_volume 7908.658129
_symmetry_space_group_name_H-M "C M M M"
_symmetry_group_IT_number 65
_symmetry_cell_setting 'orthorhombic'
loop_
_space_group_symop_operation_xyz
x,y,z
-x,-y,z
x,-y,-z
-x,y,-z
-x,-y,-z
x,y,-z
-x,y,z
x,-y,z
1/2+x,1/2+y,z
1/2-x,1/2-y,z
1/2+x,1/2-y,-z
1/2-x,1/2+y,-z
1/2-x,1/2-y,-z
1/2+x,1/2+y,-z
1/2-x,1/2+y,z
1/2+x,1/2-y,z
loop_
_atom_site_type_symbol
_atom_site_label
_atom_site_fract_x
_atom_site_fract_y
_atom_site_fract_z
Si Si1 0.911274 0.170391 0.921895
Si Si2 0.648719 0.877821 0.418898
Si Si3 0.304344 0.435109 0.580551
Si Si4 0.341862 0.371675 0.283721
Si Si5 0.000000 0.438076 0.584934
Si Si6 0.700737 0.803300 0.298200
Si Si7 0.587766 0.267332 0.217896
Si Si8 0.587610 0.436676 0.162130
O O1 0.883143 0.213622 0.860952
O O2 0.890188 0.106304 0.901024
O O3 0.000000 0.176279 0.926755
O O4 0.875411 0.183936 0.000000
O O5 0.637679 0.856920 0.500000
O O6 0.715436 0.923200 0.413693
O O7 0.573957 0.906416 0.387754
O O8 0.662587 0.823042 0.371336
O O9 0.332911 0.422144 0.500000
O O10 0.318386 0.500000 0.600230
O O11 0.349232 0.394666 0.635197
O O12 0.256040 0.351484 0.266821
O O13 0.398923 0.319412 0.272342
O O14 0.362523 0.422774 0.231491
O O15 0.000000 0.500000 0.618844
O O16 0.000000 0.442056 0.500000
O O17 0.750000 0.750000 0.319763
O O18 0.636829 0.786857 0.240278
O O19 0.500000 0.251088 0.218506
O O20 0.500000 0.429352 0.182873
O O21 0.605154 0.500000 0.136581
#
# Coordination Sequence:
#
# PCOD8275054 Si02
#       8
#    16  16  16  16   8  16  16  16
#     4   8  14  25  41  62  85 106 132 165 199 237
#     4   9  17  27  40  58  79 104 135 171 210 251
#     4   9  16  26  41  59  78 103 138 174 205 239
#     4   9  16  28  42  58  81 107 136 171 203 243
#     4   9  16  26  40  58  82 106 127 163 216 265
#     4   9  18  29  42  59  79 107 141 177 207 244
#     4   9  17  29  45  60  78 107 138 170 208 245
#     4   9  16  25  41  64  86 110 136 162 196 240
#
# _framework density 15.173244
#
# number of rings (size 3 to 8) (size 9 to 14) (size 15 to 20)
#    0.000    3.133    0.000    2.000    0.933    2.133 
#    0.000    3.333    0.000   12.400    0.000    4.667 
#    0.000    0.000    0.000    0.000    0.000    0.667 
#
# Total GULP energy -743620.657775 kJ/mol
# GULP energy per Si atom -12393.677630 kJ/mol
# Density = 1.513871 g / cm^3
# Si number density = 15.173244 Si / 1000 Ang^3
#
#
#
# Elastic Constant Matrix: (Units=GPa)
#
#
# Indices 1 2 3 4 5 6 
#
# 1 53.1267 27.1939 33.8929 0.0000 0.0000 0.0000
# 2 27.1939 65.0174 45.8804 0.0000 0.0000 0.0000
# 3 33.8929 45.8804 103.0598 0.0000 0.0000 0.0000
# 4 0.0000 0.0000 0.0000 16.5015 0.0000 0.0000
# 5 0.0000 0.0000 0.0000 0.0000 15.4713 0.0000
# 6 0.0000 0.0000 0.0000 0.0000 0.0000 19.6837
#
#
#
# Elastic Compliance Matrix: (Units=1/GPa)
#
#
# Indices 1 2 3 4 5 6 
#
# 1 0.025844 -0.007016 -0.005376 0.000000 0.000000 0.000000
# 2 -0.007016 0.024330 -0.008524 0.000000 0.000000 0.000000
# 3 -0.005376 -0.008524 0.015266 0.000000 0.000000 0.000000
# 4 0.000000 0.000000 0.000000 0.060600 0.000000 0.000000
# 5 0.000000 0.000000 0.000000 0.000000 0.064636 0.000000
# 6 0.000000 0.000000 0.000000 0.000000 0.000000 0.050804
#
#
# Mechanical properties :
#
#
# Convention : Reuss Voigt Hill
#
# Bulk Modulus (GPa) = 42.35813 48.34869 45.35341
# Shear Modulus (GPa) = 17.17153 17.94709 17.55931
#
# Velocity S-wave (km/s) = 3.36772 3.44293 3.40554
# Velocity P-wave (km/s) = 6.56498 6.90932 6.73935
#
# Compressibility (1/GPa) = 0.02360822
#
# Stress axis : x y z
#
# Youngs Moduli (GPa) = 38.69429 41.10157 65.50604
#
# Poissons Ratio (x) = 0.28836 0.35215
# Poissons Ratio (y) = 0.27147 0.55838
# Poissons Ratio (z) = 0.20801 0.35035
#
# Static dielectric constant tensor:
#      x y z
#    x 2.853970 0.000000 0.000000 
#    y 0.000000 2.901950 0.000000 
#    z 0.000000 0.000000 3.074540 
# 
# 
# High freq. dielectric constant tensor:
#      x y z
#    x 1.563030 0.000000 0.000000 
#    y 0.000000 1.573900 0.000000 
#    z 0.000000 0.000000 1.565830 
# 
# From -- ./inp_files/63113.got.cif
#   From: 2010.03.12/outbox.cif.g09.slc.cpg/sg65_32_cif.got.tgz:63113.got - 2010.04.10 20:52:16.
