data_PCOD8275688
_publ_section_title
;
Structure prediction by ZEFSAII (Michael W. Deem and Ramdas Pophale) SiO2 
 PCOD8275688
Probable space group: C C C M
;
_chemical_formula_sum "Si O2"
_cell_formula_units_Z 84
_cell_length_a 5.100061
_cell_length_b 32.570043
_cell_length_c 25.811630
_cell_angle_alpha 90.000000
_cell_angle_beta 90.000000
_cell_angle_gamma 90.000000
_cell_volume 4287.549367
_symmetry_space_group_name_H-M "C C C M"
_symmetry_group_IT_number 66
_symmetry_cell_setting 'orthorhombic'
loop_
_space_group_symop_operation_xyz
x,y,z
-x,-y,z
x,-y,1/2-z
-x,y,1/2-z
-x,-y,-z
x,y,-z
-x,y,1/2+z
x,-y,1/2+z
1/2+x,1/2+y,z
1/2-x,1/2-y,z
1/2+x,1/2-y,1/2-z
1/2-x,1/2+y,1/2-z
1/2-x,1/2-y,-z
1/2+x,1/2+y,-z
1/2-x,1/2+y,1/2+z
1/2+x,1/2-y,1/2+z
loop_
_atom_site_type_symbol
_atom_site_label
_atom_site_fract_x
_atom_site_fract_y
_atom_site_fract_z
Si Si1 0.426221 0.628598 0.058105
Si Si2 0.000000 0.500000 0.750000
Si Si3 0.890888 0.554272 0.842489
Si Si4 0.438900 0.142982 0.124233
Si Si5 0.002102 0.275819 0.189097
Si Si6 0.391375 0.458743 0.593161
O O1 0.159512 0.647180 0.080328
O O2 0.384663 0.579177 0.053681
O O3 0.661678 0.642746 0.094964
O O4 0.474246 0.645086 0.000000
O O5 0.150663 0.468123 0.787346
O O6 0.599370 0.552776 0.863300
O O7 0.975976 0.602217 0.840360
O O8 0.113062 0.532262 0.878556
O O9 0.475959 0.180512 0.162413
O O10 0.250000 0.250000 0.171120
O O11 0.000000 0.284008 0.250000
O O12 0.750000 0.250000 0.171079
O O13 0.500000 0.500000 0.564618
#
# Coordination Sequence:
#
# PCOD8275688 Si02
#       6
#    16   4  16  16  16  16
#     4  10  21  36  59  82 109 150 190 234 285 331
#     4  12  20  34  52  78 110 154 192 226 272 326
#     4  10  22  31  52  75 110 150 182 225 267 330
#     4  10  21  39  58  85 115 147 186 232 281 337
#     4  10  21  38  63  89 116 147 184 226 276 335
#     4  10  18  36  48  73 107 140 189 234 276 313
#
# _framework density 19.591609999999999
#
# number of rings (size 3 to 8) (size 9 to 14) (size 15 to 20)
#    0.000    1.905    1.905    1.714    1.333    1.905 
#    0.000    0.000    0.000   18.286    0.000    0.000 
#    0.000    0.000    0.000    0.000    0.000    0.000 
#
# Total GULP energy -520431.283142 kJ/mol
# GULP energy per Si atom -12391.221027 kJ/mol
# Density = 1.954702 g / cm^3
# Si number density = 19.591610 Si / 1000 Ang^3
#
#
#
# Elastic Constant Matrix: (Units=GPa)
#
#
# Indices 1 2 3 4 5 6 
#
# 1 111.0009 32.2564 20.6864 0.0000 0.0000 0.0000
# 2 32.2564 110.8544 31.7963 0.0000 0.0000 0.0000
# 3 20.6864 31.7963 70.8620 0.0000 0.0000 0.0000
# 4 0.0000 0.0000 0.0000 17.0767 0.0000 0.0000
# 5 0.0000 0.0000 0.0000 0.0000 21.4333 0.0000
# 6 0.0000 0.0000 0.0000 0.0000 0.0000 24.6170
#
#
#
# Elastic Compliance Matrix: (Units=1/GPa)
#
#
# Indices 1 2 3 4 5 6 
#
# 1 0.010051 -0.002391 -0.001861 0.000000 0.000000 0.000000
# 2 -0.002391 0.010922 -0.004203 0.000000 0.000000 0.000000
# 3 -0.001861 -0.004203 0.016541 0.000000 0.000000 0.000000
# 4 0.000000 0.000000 0.000000 0.058559 0.000000 0.000000
# 5 0.000000 0.000000 0.000000 0.000000 0.046656 0.000000
# 6 0.000000 0.000000 0.000000 0.000000 0.000000 0.040622
#
#
# Mechanical properties :
#
#
# Convention : Reuss Voigt Hill
#
# Bulk Modulus (GPa) = 48.53422 51.35507 49.94465
# Shear Modulus (GPa) = 24.13953 26.49063 25.31508
#
# Velocity S-wave (km/s) = 3.51399 3.68114 3.59853
# Velocity P-wave (km/s) = 6.42580 6.65863 6.54325
#
# Compressibility (1/GPa) = 0.02060402
#
# Stress axis : x y z
#
# Youngs Moduli (GPa) = 99.49741 91.55852 60.45525
#
# Poissons Ratio (x) = 0.21888 0.11253
# Poissons Ratio (y) = 0.23786 0.25409
# Poissons Ratio (z) = 0.18519 0.38481
#
# Static dielectric constant tensor:
#      x y z
#    x 3.678130 0.000000 0.000000 
#    y 0.000000 3.760720 0.000000 
#    z 0.000000 0.000000 3.275460 
# 
# 
# High freq. dielectric constant tensor:
#      x y z
#    x 1.778510 0.000000 0.000000 
#    y 0.000000 1.764410 0.000000 
#    z 0.000000 0.000000 1.736060 
# 
# From -- ./inp_files/54428.got.cif
#   From: 2010.03.12/outbox.cif.g09.slc.cpg/sg66_28_cif.got.tgz:54428.got - 2010.04.10 21:57:39.
