data_PCOD8275666
_publ_section_title
;
Structure prediction by ZEFSAII (Michael W. Deem and Ramdas Pophale) SiO2 
 PCOD8275666
Probable space group: C C C M
;
_chemical_formula_sum "Si O2"
_cell_formula_units_Z 88
_cell_length_a 17.359551
_cell_length_b 12.439270
_cell_length_c 20.345685
_cell_angle_alpha 90.000000
_cell_angle_beta 90.000000
_cell_angle_gamma 90.000000
_cell_volume 4393.450107
_symmetry_space_group_name_H-M "C C C M"
_symmetry_group_IT_number 66
_symmetry_cell_setting 'orthorhombic'
loop_
_space_group_symop_operation_xyz
x,y,z
-x,-y,z
x,-y,1/2-z
-x,y,1/2-z
-x,-y,-z
x,y,-z
-x,y,1/2+z
x,-y,1/2+z
1/2+x,1/2+y,z
1/2-x,1/2-y,z
1/2+x,1/2-y,1/2-z
1/2-x,1/2+y,1/2-z
1/2-x,1/2-y,-z
1/2+x,1/2+y,-z
1/2-x,1/2+y,1/2+z
1/2+x,1/2-y,1/2+z
loop_
_atom_site_type_symbol
_atom_site_label
_atom_site_fract_x
_atom_site_fract_y
_atom_site_fract_z
Si Si1 0.000000 0.500000 0.606622
Si Si2 0.699697 0.534837 0.324177
Si Si3 0.812635 0.162322 0.424117
Si Si4 0.974193 0.270044 0.571232
Si Si5 0.137259 0.586596 0.805795
Si Si6 0.435322 0.697014 0.196410
O O1 0.968686 0.399624 0.564938
O O2 0.928672 0.543636 0.647510
O O3 0.710302 0.500000 0.250000
O O4 0.691055 0.438449 0.375615
O O5 0.779277 0.598441 0.342315
O O6 0.621751 0.602921 0.324551
O O7 0.801834 0.124649 0.500000
O O8 0.750000 0.250000 0.403442
O O9 0.892071 0.221822 0.412152
O O10 0.002950 0.227424 0.500000
O O11 0.030770 0.231443 0.627088
O O12 0.146229 0.500000 0.750000
O O13 0.112194 0.701493 0.774692
O O14 0.500000 0.661003 0.250000
#
# Coordination Sequence:
#
# PCOD8275666 Si02
#       6
#     8  16  16  16  16  16
#     4  10  18  34  60  86 115 146 191 248 305 360
#     4  11  24  38  59  88 120 156 199 252 310 366
#     4  10  22  41  63  88 119 159 208 259 312 374
#     4  10  21  36  58  85 114 151 196 246 299 362
#     4  10  20  36  59  87 117 154 197 247 304 363
#     4  11  23  39  58  85 121 158 199 244 301 371
#
# _framework density 20.029817000000001
#
# number of rings (size 3 to 8) (size 9 to 14) (size 15 to 20)
#    0.000    1.636    0.000    5.455    0.000    7.636 
#    0.000    5.455    0.000    5.455    0.000    0.000 
#    0.000    0.000    0.000    0.000    0.000    0.000 
#
# Total GULP energy -545229.213645 kJ/mol
# GULP energy per Si atom -12391.573037 kJ/mol
# Density = 1.998423 g / cm^3
# Si number density = 20.029817 Si / 1000 Ang^3
#
#
#
# Elastic Constant Matrix: (Units=GPa)
#
#
# Indices 1 2 3 4 5 6 
#
# 1 140.8997 76.5140 51.4565 0.0000 0.0000 0.0000
# 2 76.5140 117.9424 57.7393 0.0000 0.0000 0.0000
# 3 51.4565 57.7393 96.1238 0.0000 0.0000 0.0000
# 4 0.0000 0.0000 0.0000 41.1507 0.0000 0.0000
# 5 0.0000 0.0000 0.0000 0.0000 -12.3100 0.0000
# 6 0.0000 0.0000 0.0000 0.0000 0.0000 44.8523
#
#
#
# Elastic Compliance Matrix: (Units=1/GPa)
#
#
# Indices 1 2 3 4 5 6 
#
# 1 0.011316 -0.006198 -0.002334 0.000000 0.000000 0.000000
# 2 -0.006198 0.015406 -0.005936 0.000000 0.000000 0.000000
# 3 -0.002334 -0.005936 0.015218 0.000000 0.000000 0.000000
# 4 0.000000 0.000000 0.000000 0.024301 0.000000 0.000000
# 5 0.000000 0.000000 0.000000 0.000000 -0.081235 0.000000
# 6 0.000000 0.000000 0.000000 0.000000 0.000000 0.022295
#
#
# Mechanical properties :
#
#
# Convention : Reuss Voigt Hill
#
# Bulk Modulus (GPa) = 76.90542 80.70950 78.80746
# Shear Modulus (GPa) = 123.23852 26.02234 74.63043
#
# Velocity S-wave (km/s) = 7.85246 3.60832 6.11069
# Velocity P-wave (km/s) = 10.98606 7.59883 9.44552
#
# Compressibility (1/GPa) = 0.01300299
#
# Stress axis : x y z
#
# Youngs Moduli (GPa) = 88.37411 64.91169 65.70994
#
# Poissons Ratio (x) = 0.40233 0.15339
# Poissons Ratio (y) = 0.54775 0.39004
# Poissons Ratio (z) = 0.20630 0.38531
#
# Static dielectric constant tensor:
#      x y z
#    x 3.461170 0.000000 0.000000 
#    y 0.000000 3.959600 0.000000 
#    z 0.000000 0.000000 3.638010 
# 
# 
# High freq. dielectric constant tensor:
#      x y z
#    x 1.803190 0.000000 0.000000 
#    y 0.000000 1.780560 0.000000 
#    z 0.000000 0.000000 1.777020 
# 
# From -- ./inp_files/50902.got.cif
#   From: 2010.03.12/outbox.cif.g09.slc.cpg/sg66_26_cif.got.tgz:50902.got - 2010.04.10 21:57:39.
