data_PCOD8275487
_publ_section_title
;
Structure prediction by ZEFSAII (Michael W. Deem and Ramdas Pophale) SiO2 
 PCOD8275487
Probable space group: C C C M
;
_chemical_formula_sum "Si O2"
_cell_formula_units_Z 96
_cell_length_a 25.132260
_cell_length_b 9.017469
_cell_length_c 26.164289
_cell_angle_alpha 90.000000
_cell_angle_beta 90.000000
_cell_angle_gamma 90.000000
_cell_volume 5929.596475
_symmetry_space_group_name_H-M "C C C M"
_symmetry_group_IT_number 66
_symmetry_cell_setting 'orthorhombic'
loop_
_space_group_symop_operation_xyz
x,y,z
-x,-y,z
x,-y,1/2-z
-x,y,1/2-z
-x,-y,-z
x,y,-z
-x,y,1/2+z
x,-y,1/2+z
1/2+x,1/2+y,z
1/2-x,1/2-y,z
1/2+x,1/2-y,1/2-z
1/2-x,1/2+y,1/2-z
1/2-x,1/2-y,-z
1/2+x,1/2+y,-z
1/2-x,1/2+y,1/2+z
1/2+x,1/2-y,1/2+z
loop_
_atom_site_type_symbol
_atom_site_label
_atom_site_fract_x
_atom_site_fract_y
_atom_site_fract_z
Si Si1 0.355608 0.078829 0.303636
Si Si2 0.809084 0.308169 0.355938
Si Si3 0.891486 0.662881 0.057988
Si Si4 0.998533 0.832872 0.058500
Si Si5 0.806962 0.174946 0.255933
Si Si6 0.946613 0.415452 0.117474
O O1 0.333786 0.245276 0.292846
O O2 0.411254 0.100820 0.332147
O O3 0.366715 0.000000 0.250000
O O4 0.313326 0.981626 0.337223
O O5 0.750000 0.250000 0.368583
O O6 0.842639 0.284855 0.407155
O O7 0.835913 0.210544 0.310112
O O8 0.914273 0.503372 0.074081
O O9 0.938045 0.781582 0.064225
O O10 0.870874 0.652742 0.000000
O O11 0.039135 0.743560 0.094197
O O12 0.017802 0.816655 0.000000
O O13 0.000000 0.000000 0.077888
O O14 0.750000 0.250000 0.263665
O O15 0.803021 0.000000 0.250000
O O16 0.000000 0.500000 0.133798
#
# Coordination Sequence:
#
# PCOD8275487 Si02
#       6
#    16  16  16  16  16  16
#     4   9  18  31  46  66  90 117 150 185 224 266
#     4   9  17  30  46  66  92 118 149 185 221 264
#     4   9  17  29  46  67  90 119 152 183 220 267
#     4   9  17  29  45  66  91 116 146 187 227 261
#     4  10  18  30  48  68  92 120 150 186 224 265
#     4   9  17  30  48  66  87 118 153 185 220 268
#
# _framework density 16.189972999999998
#
# number of rings (size 3 to 8) (size 9 to 14) (size 15 to 20)
#    0.000    2.833    0.000    3.000    0.000    4.000 
#    0.000    0.000    0.000    0.000    0.000    4.667 
#    0.000   25.333    0.000    0.000    0.000    0.000 
#
# Total GULP energy -594895.714974 kJ/mol
# GULP energy per Si atom -12393.660729 kJ/mol
# Density = 1.615312 g / cm^3
# Si number density = 16.189973 Si / 1000 Ang^3
#
#
#
# Elastic Constant Matrix: (Units=GPa)
#
#
# Indices 1 2 3 4 5 6 
#
# 1 88.7135 47.0634 58.5106 0.0000 0.0000 0.0000
# 2 47.0634 133.7028 49.0429 0.0000 0.0000 0.0000
# 3 58.5106 49.0429 106.5211 0.0000 0.0000 0.0000
# 4 0.0000 0.0000 0.0000 19.3707 0.0000 0.0000
# 5 0.0000 0.0000 0.0000 0.0000 30.3393 0.0000
# 6 0.0000 0.0000 0.0000 0.0000 0.0000 18.6972
#
#
#
# Elastic Compliance Matrix: (Units=1/GPa)
#
#
# Indices 1 2 3 4 5 6 
#
# 1 0.018893 -0.003422 -0.008802 0.000000 0.000000 0.000000
# 2 -0.003422 0.009619 -0.002549 0.000000 0.000000 0.000000
# 3 -0.008802 -0.002549 0.015396 0.000000 0.000000 0.000000
# 4 0.000000 0.000000 0.000000 0.051624 0.000000 0.000000
# 5 0.000000 0.000000 0.000000 0.000000 0.032961 0.000000
# 6 0.000000 0.000000 0.000000 0.000000 0.000000 0.053484
#
#
# Mechanical properties :
#
#
# Convention : Reuss Voigt Hill
#
# Bulk Modulus (GPa) = 69.62771 70.90792 70.26782
# Shear Modulus (GPa) = 23.11494 25.30280 24.20887
#
# Velocity S-wave (km/s) = 3.78263 3.95760 3.87111
# Velocity P-wave (km/s) = 7.88529 8.04835 7.96724
#
# Compressibility (1/GPa) = 0.01436210
#
# Stress axis : x y z
#
# Youngs Moduli (GPa) = 52.92975 103.96437 64.95017
#
# Poissons Ratio (x) = 0.35572 0.57171
# Poissons Ratio (y) = 0.18110 0.16556
# Poissons Ratio (z) = 0.46591 0.26501
#
# Static dielectric constant tensor:
#      x y z
#    x 2.963380 0.000000 0.000000 
#    y 0.000000 3.104380 0.000000 
#    z 0.000000 0.000000 3.148930 
# 
# 
# High freq. dielectric constant tensor:
#      x y z
#    x 1.607180 0.000000 0.000000 
#    y 0.000000 1.620050 0.000000 
#    z 0.000000 0.000000 1.622890 
# 
# From -- ./inp_files/47360.got.cif
#   From: 2010.03.12/outbox.cif.g09.slc.cpg/sg66_24_cif.got.tgz:47360.got - 2010.04.10 21:57:39.
