data_PCOD8275570
_publ_section_title
;
Structure prediction by ZEFSAII (Michael W. Deem and Ramdas Pophale) SiO2 
 PCOD8275570
Probable space group: C C C M
;
_chemical_formula_sum "Si O2"
_cell_formula_units_Z 96
_cell_length_a 28.856760
_cell_length_b 25.741168
_cell_length_c 8.833388
_cell_angle_alpha 90.000000
_cell_angle_beta 90.000000
_cell_angle_gamma 90.000000
_cell_volume 6561.499853
_symmetry_space_group_name_H-M "C C C M"
_symmetry_group_IT_number 66
_symmetry_cell_setting 'orthorhombic'
loop_
_space_group_symop_operation_xyz
x,y,z
-x,-y,z
x,-y,1/2-z
-x,y,1/2-z
-x,-y,-z
x,y,-z
-x,y,1/2+z
x,-y,1/2+z
1/2+x,1/2+y,z
1/2-x,1/2-y,z
1/2+x,1/2-y,1/2-z
1/2-x,1/2+y,1/2-z
1/2-x,1/2-y,-z
1/2+x,1/2+y,-z
1/2-x,1/2+y,1/2+z
1/2+x,1/2-y,1/2+z
loop_
_atom_site_type_symbol
_atom_site_label
_atom_site_fract_x
_atom_site_fract_y
_atom_site_fract_z
Si Si1 0.723459 0.195860 0.329631
Si Si2 0.803614 0.856572 0.675681
Si Si3 0.644687 0.249564 0.175395
Si Si4 0.453536 0.716197 0.822404
Si Si5 0.547656 0.597079 0.679934
Si Si6 0.360596 0.446345 0.820320
O O1 0.720510 0.174538 0.500000
O O2 0.750000 0.250000 0.321611
O O3 0.750738 0.154253 0.226964
O O4 0.671549 0.204880 0.267369
O O5 0.804606 0.872225 0.500000
O O6 0.834879 0.806376 0.707552
O O7 0.823586 0.902777 0.775748
O O8 0.591035 0.250083 0.228214
O O9 0.649738 0.235721 0.000000
O O10 0.500000 0.740244 0.750000
O O11 0.446127 0.656919 0.769838
O O12 0.459633 0.718154 0.000000
O O13 0.500000 0.575139 0.750000
O O14 0.547775 0.590320 0.500000
O O15 0.589214 0.564698 0.750475
O O16 0.342226 0.500000 0.750000
O O17 0.364351 0.450069 0.000000
#
# Coordination Sequence:
#
# PCOD8275570 Si02
#       6
#    16  16  16  16  16  16
#     4   9  17  27  41  65  87 105 133 167 204 248
#     4  10  18  32  48  62  83 108 134 170 213 257
#     4   9  16  28  44  62  84 111 137 167 207 252
#     4   9  17  28  42  61  84 110 140 171 209 253
#     4  10  19  34  49  64  81 104 137 177 221 264
#     4  12  24  36  49  64  81 106 138 177 220 264
#
# _framework density 14.630801
#
# number of rings (size 3 to 8) (size 9 to 14) (size 15 to 20)
#    0.000    2.167    1.667    3.000    0.000    4.333 
#    0.000    1.667    0.000    0.000    0.000    0.000 
#    0.000    0.000    0.000    0.000    0.000    0.833 
#
# Total GULP energy -595200.684804 kJ/mol
# GULP energy per Si atom -12400.014267 kJ/mol
# Density = 1.459750 g / cm^3
# Si number density = 14.630801 Si / 1000 Ang^3
#
#
#
# Elastic Constant Matrix: (Units=GPa)
#
#
# Indices 1 2 3 4 5 6 
#
# 1 97.8591 34.6306 39.1681 0.0000 0.0000 0.0000
# 2 34.6306 32.9733 25.8699 0.0000 0.0000 0.0000
# 3 39.1681 25.8699 79.0130 0.0000 0.0000 0.0000
# 4 0.0000 0.0000 0.0000 18.4938 0.0000 0.0000
# 5 0.0000 0.0000 0.0000 0.0000 28.7371 0.0000
# 6 0.0000 0.0000 0.0000 0.0000 0.0000 -29.4244
#
#
#
# Elastic Compliance Matrix: (Units=1/GPa)
#
#
# Indices 1 2 3 4 5 6 
#
# 1 0.016939 -0.015074 -0.003461 0.000000 0.000000 0.000000
# 2 -0.015074 0.054227 -0.010282 0.000000 0.000000 0.000000
# 3 -0.003461 -0.010282 0.017738 0.000000 0.000000 0.000000
# 4 0.000000 0.000000 0.000000 0.054072 0.000000 0.000000
# 5 0.000000 0.000000 0.000000 0.000000 0.034798 0.000000
# 6 0.000000 0.000000 0.000000 0.000000 0.000000 -0.033985
#
#
# Mechanical properties :
#
#
# Convention : Reuss Voigt Hill
#
# Bulk Modulus (GPa) = 31.98104 45.46472 38.72288
# Shear Modulus (GPa) = 23.60199 10.90642 17.25421
#
# Velocity S-wave (km/s) = 4.02079 2.73324 3.43783
# Velocity P-wave (km/s) = 6.59256 6.41116 6.50249
#
# Compressibility (1/GPa) = 0.03126853
#
# Stress axis : x y z
#
# Youngs Moduli (GPa) = 59.03636 18.44116 56.37512
#
# Poissons Ratio (x) = 0.27799 0.19513
# Poissons Ratio (y) = 0.88994 0.57964
# Poissons Ratio (z) = 0.20434 0.18961
#
# Static dielectric constant tensor:
#      x y z
#    x 3.015280 0.000000 0.000000 
#    y 0.000000 2.527310 0.000000 
#    z 0.000000 0.000000 2.930300 
# 
# 
# High freq. dielectric constant tensor:
#      x y z
#    x 1.556810 0.000000 0.000000 
#    y 0.000000 1.503460 0.000000 
#    z 0.000000 0.000000 1.573570 
# 
# From -- ./inp_files/8006.got.cif
#   From: 2010.03.12/outbox.cif.g09.slc.cpg/sg66_5_cif.got.tgz:8006.got - 2010.04.10 21:57:39.
