data_PCOD8275798
_publ_section_title
;
Structure prediction by ZEFSAII (Michael W. Deem and Ramdas Pophale) SiO2 
 PCOD8275798
Probable space group: C C C M
;
_chemical_formula_sum "Si O2"
_cell_formula_units_Z 96
_cell_length_a 30.498867
_cell_length_b 20.666772
_cell_length_c 8.876320
_cell_angle_alpha 90.000000
_cell_angle_beta 90.000000
_cell_angle_gamma 90.000000
_cell_volume 5594.861047
_symmetry_space_group_name_H-M "C C C M"
_symmetry_group_IT_number 66
_symmetry_cell_setting 'orthorhombic'
loop_
_space_group_symop_operation_xyz
x,y,z
-x,-y,z
x,-y,1/2-z
-x,y,1/2-z
-x,-y,-z
x,y,-z
-x,y,1/2+z
x,-y,1/2+z
1/2+x,1/2+y,z
1/2-x,1/2-y,z
1/2+x,1/2-y,1/2-z
1/2-x,1/2+y,1/2-z
1/2-x,1/2-y,-z
1/2+x,1/2+y,-z
1/2-x,1/2+y,1/2+z
1/2+x,1/2-y,1/2+z
loop_
_atom_site_type_symbol
_atom_site_label
_atom_site_fract_x
_atom_site_fract_y
_atom_site_fract_z
Si Si1 0.246935 0.063054 0.323271
Si Si2 0.712454 0.799254 0.675534
Si Si3 0.044299 0.795191 0.821528
Si Si4 0.156053 0.906513 0.674027
Si Si5 0.867860 0.239499 0.673168
Si Si6 0.931746 0.062531 0.823501
O O1 0.239252 0.053401 0.500000
O O2 0.274870 0.126979 0.291091
O O3 0.201169 0.067882 0.237991
O O4 0.270922 0.000000 0.250000
O O5 0.704924 0.785379 0.500000
O O6 0.750000 0.750000 0.736413
O O7 0.666531 0.790460 0.760450
O O8 0.086000 0.755632 0.760698
O O9 0.046983 0.870212 0.768040
O O10 0.000000 0.765743 0.750000
O O11 0.042995 0.788680 0.000000
O O12 0.150355 0.926202 0.500000
O O13 0.154398 0.829751 0.695586
O O14 0.118472 0.939636 0.771714
O O15 0.877298 0.255633 0.500000
O O16 0.955939 0.000000 0.750000
O O17 0.935022 0.055842 0.000000
#
# Coordination Sequence:
#
# PCOD8275798 Si02
#       6
#    16  16  16  16  16  16
#     4  11  22  34  49  70 101 137 172 213 256 302
#     4  10  20  35  54  75 102 137 175 213 256 306
#     4  10  21  36  53  71  95 125 161 207 259 309
#     4  10  19  31  47  68  95 128 168 212 255 299
#     4  10  20  33  53  77 100 128 167 213 256 303
#     4  10  20  32  46  64  89 124 164 208 255 304
#
# _framework density 17.158601999999998
#
# number of rings (size 3 to 8) (size 9 to 14) (size 15 to 20)
#    0.000    1.833    1.667    3.000    0.000    5.333 
#    0.000    1.667    0.000    0.000    0.000    0.000 
#    0.000    0.667    0.000    7.000    0.000    3.833 
#
# Total GULP energy -595235.488214 kJ/mol
# GULP energy per Si atom -12400.739338 kJ/mol
# Density = 1.711955 g / cm^3
# Si number density = 17.158602 Si / 1000 Ang^3
#
#
#
# Elastic Constant Matrix: (Units=GPa)
#
#
# Indices 1 2 3 4 5 6 
#
# 1 102.7520 31.7000 34.2735 0.0000 0.0000 0.0000
# 2 31.7000 62.3380 21.8652 0.0000 0.0000 0.0000
# 3 34.2735 21.8652 55.4868 0.0000 0.0000 0.0000
# 4 0.0000 0.0000 0.0000 21.9204 0.0000 0.0000
# 5 0.0000 0.0000 0.0000 0.0000 29.1593 0.0000
# 6 0.0000 0.0000 0.0000 0.0000 0.0000 3.9442
#
#
#
# Elastic Compliance Matrix: (Units=1/GPa)
#
#
# Indices 1 2 3 4 5 6 
#
# 1 0.013259 -0.004491 -0.006420 0.000000 0.000000 0.000000
# 2 -0.004491 0.020135 -0.005161 0.000000 0.000000 0.000000
# 3 -0.006420 -0.005161 0.024022 0.000000 0.000000 0.000000
# 4 0.000000 0.000000 0.000000 0.045620 0.000000 0.000000
# 5 0.000000 0.000000 0.000000 0.000000 0.034294 0.000000
# 6 0.000000 0.000000 0.000000 0.000000 0.000000 0.253539
#
#
# Mechanical properties :
#
#
# Convention : Reuss Voigt Hill
#
# Bulk Modulus (GPa) = 39.56845 44.02825 41.79835
# Shear Modulus (GPa) = 11.58918 19.85399 15.72159
#
# Velocity S-wave (km/s) = 2.60169 3.40529 3.03025
# Velocity P-wave (km/s) = 5.66882 6.41690 6.05443
#
# Compressibility (1/GPa) = 0.02527266
#
# Stress axis : x y z
#
# Youngs Moduli (GPa) = 75.41984 49.66419 41.62889
#
# Poissons Ratio (x) = 0.22302 0.26728
# Poissons Ratio (y) = 0.33867 0.21484
# Poissons Ratio (z) = 0.48423 0.25631
#
# Static dielectric constant tensor:
#      x y z
#    x 3.060030 0.000000 0.000000 
#    y 0.000000 3.324580 0.000000 
#    z 0.000000 0.000000 3.257960 
# 
# 
# High freq. dielectric constant tensor:
#      x y z
#    x 1.647550 0.000000 0.000000 
#    y 0.000000 1.632170 0.000000 
#    z 0.000000 0.000000 1.676220 
# 
# From -- ./inp_files/7976.got.cif
#   From: 2010.03.12/outbox.cif.g09.slc.cpg/sg66_4_cif.got.tgz:7976.got - 2010.04.10 21:57:39.
