data_PCOD8275642
_publ_section_title
;
Structure prediction by ZEFSAII (Michael W. Deem and Ramdas Pophale) SiO2 
 PCOD8275642
Probable space group: C C C M
;
_chemical_formula_sum "Si O2"
_cell_formula_units_Z 112
_cell_length_a 14.017360
_cell_length_b 22.657553
_cell_length_c 17.914056
_cell_angle_alpha 90.000000
_cell_angle_beta 90.000000
_cell_angle_gamma 90.000000
_cell_volume 5689.487653
_symmetry_space_group_name_H-M "C C C M"
_symmetry_group_IT_number 66
_symmetry_cell_setting 'orthorhombic'
loop_
_space_group_symop_operation_xyz
x,y,z
-x,-y,z
x,-y,1/2-z
-x,y,1/2-z
-x,-y,-z
x,y,-z
-x,y,1/2+z
x,-y,1/2+z
1/2+x,1/2+y,z
1/2-x,1/2-y,z
1/2+x,1/2-y,1/2-z
1/2-x,1/2+y,1/2-z
1/2-x,1/2-y,-z
1/2+x,1/2+y,-z
1/2-x,1/2+y,1/2+z
1/2+x,1/2-y,1/2+z
loop_
_atom_site_type_symbol
_atom_site_label
_atom_site_fract_x
_atom_site_fract_y
_atom_site_fract_z
Si Si1 0.897491 0.159700 0.413270
Si Si2 0.013313 0.261492 0.162770
Si Si3 0.408984 0.933398 0.416909
Si Si4 0.098671 0.026436 0.088966
Si Si5 0.413681 0.862158 0.911667
Si Si6 0.313650 0.816600 0.417024
Si Si7 0.785981 0.536011 0.588670
O O1 0.923074 0.156537 0.500000
O O2 0.982073 0.195588 0.372057
O O3 0.890914 0.093430 0.380689
O O4 0.797978 0.196527 0.399822
O O5 0.113911 0.292544 0.144573
O O6 0.000000 0.256164 0.250000
O O7 0.924031 0.298564 0.128341
O O8 0.442323 0.949804 0.500000
O O9 0.501601 0.903863 0.378758
O O10 0.320745 0.887644 0.417979
O O11 0.369015 0.992854 0.377850
O O12 0.183213 0.983854 0.120634
O O13 0.100594 0.026164 0.000000
O O14 0.000000 0.000000 0.119752
O O15 0.313962 0.895811 0.891916
O O16 0.425062 0.851387 0.000000
O O17 0.342124 0.792383 0.500000
O O18 0.784878 0.527196 0.500000
#
# Coordination Sequence:
#
# PCOD8275642 Si02
#       7
#    16  16  16  16  16  16  16
#     4  10  18  33  60  87 109 135 180 242 289 319
#     4  11  22  33  48  75 114 152 178 213 273 342
#     4   8  12  21  41  76 108 128 158 210 275 326
#     4   9  17  29  51  85 112 128 163 229 293 327
#     4   9  17  28  47  74 107 143 178 215 258 327
#     4   9  16  30  56  86 108 132 178 238 282 318
#     4   9  14  24  45  75 108 135 166 214 272 325
#
# _framework density 19.685427000000001
#
# number of rings (size 3 to 8) (size 9 to 14) (size 15 to 20)
#    0.000    2.714    1.429    3.000    0.000    2.857 
#    0.000    0.000    6.286    7.286    0.000    5.000 
#    0.000    0.000    0.000    0.000    0.000    0.000 
#
# Total GULP energy -693738.896899 kJ/mol
# GULP energy per Si atom -12388.194587 kJ/mol
# Density = 1.964062 g / cm^3
# Si number density = 19.685427 Si / 1000 Ang^3
#
#
#
# Elastic Constant Matrix: (Units=GPa)
#
#
# Indices 1 2 3 4 5 6 
#
# 1 86.4437 59.3802 29.1925 0.0000 0.0000 0.0000
# 2 59.3802 101.8539 35.2266 0.0000 0.0000 0.0000
# 3 29.1925 35.2266 57.8109 0.0000 0.0000 0.0000
# 4 0.0000 0.0000 0.0000 4.2322 0.0000 0.0000
# 5 0.0000 0.0000 0.0000 0.0000 9.7906 0.0000
# 6 0.0000 0.0000 0.0000 0.0000 0.0000 40.4504
#
#
#
# Elastic Compliance Matrix: (Units=1/GPa)
#
#
# Indices 1 2 3 4 5 6 
#
# 1 0.019927 -0.010310 -0.003780 0.000000 0.000000 0.000000
# 2 -0.010310 0.017774 -0.005624 0.000000 0.000000 0.000000
# 3 -0.003780 -0.005624 0.022634 0.000000 0.000000 0.000000
# 4 0.000000 0.000000 0.000000 0.236285 0.000000 0.000000
# 5 0.000000 0.000000 0.000000 0.000000 0.102139 0.000000
# 6 0.000000 0.000000 0.000000 0.000000 0.000000 0.024722
#
#
# Mechanical properties :
#
#
# Convention : Reuss Voigt Hill
#
# Bulk Modulus (GPa) = 47.83334 54.85635 51.34484
# Shear Modulus (GPa) = 10.64109 19.04858 14.84483
#
# Velocity S-wave (km/s) = 2.32751 3.11408 2.74907
# Velocity P-wave (km/s) = 5.61913 6.39195 6.01796
#
# Compressibility (1/GPa) = 0.02090592
#
# Stress axis : x y z
#
# Youngs Moduli (GPa) = 50.18334 56.26283 44.18202
#
# Poissons Ratio (x) = 0.58006 0.16702
# Poissons Ratio (y) = 0.51739 0.24849
# Poissons Ratio (z) = 0.18970 0.31643
#
# Static dielectric constant tensor:
#      x y z
#    x 3.602810 0.000000 0.000000 
#    y 0.000000 3.883260 0.000000 
#    z 0.000000 0.000000 2.830130 
# 
# 
# High freq. dielectric constant tensor:
#      x y z
#    x 1.751230 0.000000 0.000000 
#    y 0.000000 1.782520 0.000000 
#    z 0.000000 0.000000 1.683850 
# 
# From -- ./inp_files/28660.got.cif
#   From: 2010.03.12/outbox.cif.g09.slc.cpg/sg66_15_cif.got.tgz:28660.got - 2010.04.10 21:57:39.
