data_PCOD8275472
_publ_section_title
;
Structure prediction by ZEFSAII (Michael W. Deem and Ramdas Pophale) SiO2 
 PCOD8275472
Probable space group: C C C M
;
_chemical_formula_sum "Si O2"
_cell_formula_units_Z 88
_cell_length_a 11.594644
_cell_length_b 14.720412
_cell_length_c 26.805463
_cell_angle_alpha 90.000000
_cell_angle_beta 90.000000
_cell_angle_gamma 90.000000
_cell_volume 4575.101116
_symmetry_space_group_name_H-M "C C C M"
_symmetry_group_IT_number 66
_symmetry_cell_setting 'orthorhombic'
loop_
_space_group_symop_operation_xyz
x,y,z
-x,-y,z
x,-y,1/2-z
-x,y,1/2-z
-x,-y,-z
x,y,-z
-x,y,1/2+z
x,-y,1/2+z
1/2+x,1/2+y,z
1/2-x,1/2-y,z
1/2+x,1/2-y,1/2-z
1/2-x,1/2+y,1/2-z
1/2-x,1/2-y,-z
1/2+x,1/2+y,-z
1/2-x,1/2+y,1/2+z
1/2+x,1/2-y,1/2+z
loop_
_atom_site_type_symbol
_atom_site_label
_atom_site_fract_x
_atom_site_fract_y
_atom_site_fract_z
Si Si1 0.893029 0.878520 0.714976
Si Si2 0.129570 0.980747 0.634561
Si Si3 0.562268 0.765841 0.443675
Si Si4 0.234851 0.101010 0.443944
Si Si5 0.564835 0.283399 0.648813
Si Si6 0.750000 0.750000 0.779318
O O1 0.786684 0.834636 0.744640
O O2 0.000000 0.905123 0.750000
O O3 0.941104 0.807565 0.673477
O O4 0.847949 0.969437 0.687692
O O5 0.144506 0.873220 0.641287
O O6 0.219119 0.016980 0.593459
O O7 0.000000 0.000000 0.615478
O O8 0.512394 0.771107 0.500000
O O9 0.642901 0.852108 0.432898
O O10 0.633141 0.673344 0.436695
O O11 0.457691 0.766533 0.403871
O O12 0.232772 0.062363 0.500000
O O13 0.640471 0.220607 0.686137
#
# Coordination Sequence:
#
# PCOD8275472 Si02
#       6
#    16  16  16  16  16   8
#     4   9  19  32  49  71  98 131 166 214 265 319
#     4  10  18  29  50  78 107 132 164 215 273 312
#     4   9  17  30  50  77 110 144 174 209 258 326
#     4   9  17  28  48  80 113 141 169 205 265 332
#     4  10  20  34  51  78 103 134 176 223 265 319
#     4  10  22  34  49  72  97 136 184 222 268 318
#
# _framework density 19.234548
#
# number of rings (size 3 to 8) (size 9 to 14) (size 15 to 20)
#    0.000    2.545    3.636    1.091    2.545    9.455 
#    0.000    0.455    0.000    1.091    9.455    2.545 
#    0.000    0.000    0.000    0.000    0.000    0.000 
#
# Total GULP energy -545423.185655 kJ/mol
# GULP energy per Si atom -12395.981492 kJ/mol
# Density = 1.919077 g / cm^3
# Si number density = 19.234548 Si / 1000 Ang^3
#
#
#
# Elastic Constant Matrix: (Units=GPa)
#
#
# Indices 1 2 3 4 5 6 
#
# 1 57.4099 40.3660 56.7401 0.0000 0.0000 0.0000
# 2 40.3660 62.5578 54.6724 0.0000 0.0000 0.0000
# 3 56.7401 54.6724 156.0591 0.0000 0.0000 0.0000
# 4 0.0000 0.0000 0.0000 12.4323 0.0000 0.0000
# 5 0.0000 0.0000 0.0000 0.0000 34.6152 0.0000
# 6 0.0000 0.0000 0.0000 0.0000 0.0000 20.1491
#
#
#
# Elastic Compliance Matrix: (Units=1/GPa)
#
#
# Indices 1 2 3 4 5 6 
#
# 1 0.036888 -0.017412 -0.007312 0.000000 0.000000 0.000000
# 2 -0.017412 0.031258 -0.004620 0.000000 0.000000 0.000000
# 3 -0.007312 -0.004620 0.010685 0.000000 0.000000 0.000000
# 4 0.000000 0.000000 0.000000 0.080435 0.000000 0.000000
# 5 0.000000 0.000000 0.000000 0.000000 0.028889 0.000000
# 6 0.000000 0.000000 0.000000 0.000000 0.000000 0.049630
#
#
# Mechanical properties :
#
#
# Convention : Reuss Voigt Hill
#
# Bulk Modulus (GPa) = 49.64480 64.39819 57.02150
# Shear Modulus (GPa) = 16.49144 21.72253 19.10699
#
# Velocity S-wave (km/s) = 2.93129 3.36423 3.15519
# Velocity P-wave (km/s) = 6.10925 6.97451 6.55617
#
# Compressibility (1/GPa) = 0.02014310
#
# Stress axis : x y z
#
# Youngs Moduli (GPa) = 27.10920 31.99151 93.59131
#
# Poissons Ratio (x) = 0.55704 0.68431
# Poissons Ratio (y) = 0.47203 0.43239
# Poissons Ratio (z) = 0.19821 0.14780
#
# Static dielectric constant tensor:
#      x y z
#    x 3.178020 0.000000 0.000000 
#    y 0.000000 3.245870 0.000000 
#    z 0.000000 0.000000 3.899710 
# 
# 
# High freq. dielectric constant tensor:
#      x y z
#    x 1.702760 0.000000 0.000000 
#    y 0.000000 1.712110 0.000000 
#    z 0.000000 0.000000 1.770840 
# 
# From -- ./inp_files/63592.got.cif
#   From: 2010.03.12/outbox.cif.g09.slc.cpg/sg66_32_cif.got.tgz:63592.got - 2010.04.10 21:57:39.
