data_PCOD8275860
_publ_section_title
;
Structure prediction by ZEFSAII (Michael W. Deem and Ramdas Pophale) SiO2 
 PCOD8275860
Probable space group: C C C M
;
_chemical_formula_sum "Si O2"
_cell_formula_units_Z 104
_cell_length_a 25.886363
_cell_length_b 23.304484
_cell_length_c 9.386903
_cell_angle_alpha 90.000000
_cell_angle_beta 90.000000
_cell_angle_gamma 90.000000
_cell_volume 5662.821319
_symmetry_space_group_name_H-M "C C C M"
_symmetry_group_IT_number 66
_symmetry_cell_setting 'orthorhombic'
loop_
_space_group_symop_operation_xyz
x,y,z
-x,-y,z
x,-y,1/2-z
-x,y,1/2-z
-x,-y,-z
x,y,-z
-x,y,1/2+z
x,-y,1/2+z
1/2+x,1/2+y,z
1/2-x,1/2-y,z
1/2+x,1/2-y,1/2-z
1/2-x,1/2+y,1/2-z
1/2-x,1/2-y,-z
1/2+x,1/2+y,-z
1/2-x,1/2+y,1/2+z
1/2+x,1/2-y,1/2+z
loop_
_atom_site_type_symbol
_atom_site_label
_atom_site_fract_x
_atom_site_fract_y
_atom_site_fract_z
Si Si1 0.424147 0.947480 0.160048
Si Si2 0.553017 0.340560 0.669659
Si Si3 0.755548 0.944417 0.835876
Si Si4 0.500000 0.143400 0.250000
Si Si5 0.910442 0.720717 0.841368
Si Si6 0.156432 0.379846 0.167469
Si Si7 0.872238 0.943689 0.165874
O O1 0.465757 0.896442 0.147262
O O2 0.372983 0.928379 0.243995
O O3 0.448181 0.000000 0.250000
O O4 0.409649 0.966843 0.000000
O O5 0.500000 0.353067 0.750000
O O6 0.542893 0.336408 0.500000
O O7 0.578367 0.281789 0.733935
O O8 0.591680 0.391323 0.710573
O O9 0.717469 0.890274 0.806180
O O10 0.813557 0.926374 0.792356
O O11 0.736857 0.000000 0.750000
O O12 0.753003 0.962275 0.000000
O O13 0.462512 0.182918 0.156213
O O14 0.862686 0.683186 0.776029
O O15 0.894181 0.736856 0.000000
O O16 0.142013 0.385544 0.000000
O O17 0.890374 0.000000 0.250000
O O18 0.877242 0.957781 0.000000
#
# Coordination Sequence:
#
# PCOD8275860 Si02
#       7
#    16  16  16   8  16  16  16
#     4  11  22  32  45  67  96 130 169 214 259 302
#     4  10  20  35  55  78 104 134 168 206 250 302
#     4   9  17  31  51  74 100 133 170 207 252 301
#     4  10  19  32  48  64  91 126 170 208 252 298
#     4   9  17  31  49  70  97 128 164 206 250 293
#     4   9  18  32  50  71  99 132 168 210 251 297
#     4   9  19  35  55  79 106 133 164 204 250 304
#
# _framework density 18.365404000000002
#
# number of rings (size 3 to 8) (size 9 to 14) (size 15 to 20)
#    0.000    2.462    0.769    1.615    0.000    5.231 
#    0.000    2.308    0.000    4.615    0.000    0.000 
#    0.000    8.923    0.000    0.000    0.000    0.000 
#
# Total GULP energy -644455.107295 kJ/mol
# GULP energy per Si atom -12393.367448 kJ/mol
# Density = 1.832360 g / cm^3
# Si number density = 18.365404 Si / 1000 Ang^3
#
#
#
# Elastic Constant Matrix: (Units=GPa)
#
#
# Indices 1 2 3 4 5 6 
#
# 1 116.7293 84.2563 31.8880 0.0000 0.0000 0.0000
# 2 84.2563 143.2395 38.7321 0.0000 0.0000 0.0000
# 3 31.8880 38.7321 61.0087 0.0000 0.0000 0.0000
# 4 0.0000 0.0000 0.0000 21.4153 0.0000 0.0000
# 5 0.0000 0.0000 0.0000 0.0000 21.6202 0.0000
# 6 0.0000 0.0000 0.0000 0.0000 0.0000 27.9206
#
#
#
# Elastic Compliance Matrix: (Units=1/GPa)
#
#
# Indices 1 2 3 4 5 6 
#
# 1 0.015261 -0.008233 -0.002750 0.000000 0.000000 0.000000
# 2 -0.008233 0.012870 -0.003867 0.000000 0.000000 0.000000
# 3 -0.002750 -0.003867 0.020283 0.000000 0.000000 0.000000
# 4 0.000000 0.000000 0.000000 0.046696 0.000000 0.000000
# 5 0.000000 0.000000 0.000000 0.000000 0.046253 0.000000
# 6 0.000000 0.000000 0.000000 0.000000 0.000000 0.035816
#
#
# Mechanical properties :
#
#
# Convention : Reuss Voigt Hill
#
# Bulk Modulus (GPa) = 53.43580 70.08114 61.75847
# Shear Modulus (GPa) = 23.46132 25.26463 24.36297
#
# Velocity S-wave (km/s) = 3.57805 3.71302 3.64616
# Velocity P-wave (km/s) = 6.79919 7.52490 7.17123
#
# Compressibility (1/GPa) = 0.01871405
#
# Stress axis : x y z
#
# Youngs Moduli (GPa) = 65.52760 77.70026 49.30125
#
# Poissons Ratio (x) = 0.63972 0.13556
# Poissons Ratio (y) = 0.53950 0.19066
# Poissons Ratio (z) = 0.18017 0.30049
#
# Static dielectric constant tensor:
#      x y z
#    x 3.392170 0.000000 0.000000 
#    y 0.000000 3.476330 0.000000 
#    z 0.000000 0.000000 3.178890 
# 
# 
# High freq. dielectric constant tensor:
#      x y z
#    x 1.705800 0.000000 0.000000 
#    y 0.000000 1.705960 0.000000 
#    z 0.000000 0.000000 1.692520 
# 
# From -- ./inp_files/10537.got.cif
#   From: 2010.03.12/outbox.cif.g09.slc.cpg/sg66_6_cif.got.tgz:10537.got - 2010.04.10 21:57:39.
