data_PCOD8275591
_publ_section_title
;
Structure prediction by ZEFSAII (Michael W. Deem and Ramdas Pophale) SiO2 
 PCOD8275591
Probable space group: C C C M
;
_chemical_formula_sum "Si O2"
_cell_formula_units_Z 112
_cell_length_a 11.765844
_cell_length_b 28.281689
_cell_length_c 15.982138
_cell_angle_alpha 90.000000
_cell_angle_beta 90.000000
_cell_angle_gamma 90.000000
_cell_volume 5318.183331
_symmetry_space_group_name_H-M "C C C M"
_symmetry_group_IT_number 66
_symmetry_cell_setting 'orthorhombic'
loop_
_space_group_symop_operation_xyz
x,y,z
-x,-y,z
x,-y,1/2-z
-x,y,1/2-z
-x,-y,-z
x,y,-z
-x,y,1/2+z
x,-y,1/2+z
1/2+x,1/2+y,z
1/2-x,1/2-y,z
1/2+x,1/2-y,1/2-z
1/2-x,1/2+y,1/2-z
1/2-x,1/2-y,-z
1/2+x,1/2+y,-z
1/2-x,1/2+y,1/2+z
1/2+x,1/2-y,1/2+z
loop_
_atom_site_type_symbol
_atom_site_label
_atom_site_fract_x
_atom_site_fract_y
_atom_site_fract_z
Si Si1 0.427285 0.958179 0.594719
Si Si2 0.279374 0.412027 0.598823
Si Si3 0.032054 0.900588 0.598608
Si Si4 0.660697 0.311129 0.400387
Si Si5 0.050197 0.373037 0.660636
Si Si6 0.312491 0.518403 0.598893
Si Si7 0.587853 0.789779 0.901266
O O1 0.410604 0.975080 0.500000
O O2 0.489586 0.908070 0.595606
O O3 0.299664 0.953399 0.630199
O O4 0.500000 0.000000 0.640418
O O5 0.248800 0.410463 0.500000
O O6 0.401393 0.389126 0.618327
O O7 0.185371 0.382308 0.651016
O O8 0.295613 0.465389 0.633490
O O9 0.053320 0.901404 0.500000
O O10 0.102754 0.857467 0.638701
O O11 0.079335 0.951239 0.634022
O O12 0.659938 0.310806 0.500000
O O13 0.589263 0.264838 0.371117
O O14 0.791619 0.311238 0.370799
O O15 0.000000 0.388095 0.750000
O O16 0.015899 0.318716 0.641218
O O17 0.328453 0.513940 0.500000
O O18 0.571989 0.793805 0.000000
#
# Coordination Sequence:
#
# PCOD8275591 Si02
#       7
#    16  16  16  16  16  16  16
#     4  10  18  32  54  77 101 133 179 230 270 313
#     4  10  19  33  51  76 113 150 181 219 265 322
#     4   9  16  27  50  83 114 138 172 221 269 322
#     4   8  15  30  57  88 103 122 172 234 282 316
#     4  12  24  35  50  74 112 146 184 218 270 333
#     4   9  16  28  50  81 110 139 176 219 270 316
#     4   9  17  33  59  82 103 132 174 232 281 317
#
# _framework density 21.059822
#
# number of rings (size 3 to 8) (size 9 to 14) (size 15 to 20)
#    0.000    2.429    1.429    3.429    0.000    4.286 
#    0.000    0.714    6.286    6.000    0.000    4.000 
#    0.000    0.000    0.000    0.000    0.000    0.571 
#
# Total GULP energy -693777.983837 kJ/mol
# GULP energy per Si atom -12388.892569 kJ/mol
# Density = 2.101189 g / cm^3
# Si number density = 21.059822 Si / 1000 Ang^3
#
#
#
# Elastic Constant Matrix: (Units=GPa)
#
#
# Indices 1 2 3 4 5 6 
#
# 1 132.6355 63.4381 25.2616 0.0000 0.0000 0.0000
# 2 63.4381 131.5793 11.8645 0.0000 0.0000 0.0000
# 3 25.2616 11.8645 24.3486 0.0000 0.0000 0.0000
# 4 0.0000 0.0000 0.0000 5.4291 0.0000 0.0000
# 5 0.0000 0.0000 0.0000 0.0000 10.0475 0.0000
# 6 0.0000 0.0000 0.0000 0.0000 0.0000 41.5477
#
#
#
# Elastic Compliance Matrix: (Units=1/GPa)
#
#
# Indices 1 2 3 4 5 6 
#
# 1 0.011676 -0.004746 -0.009801 0.000000 0.000000 0.000000
# 2 -0.004746 0.009878 0.000110 0.000000 0.000000 0.000000
# 3 -0.009801 0.000110 0.051185 0.000000 0.000000 0.000000
# 4 0.000000 0.000000 0.000000 0.184192 0.000000 0.000000
# 5 0.000000 0.000000 0.000000 0.000000 0.099527 0.000000
# 6 0.000000 0.000000 0.000000 0.000000 0.000000 0.024069
#
#
# Mechanical properties :
#
#
# Convention : Reuss Voigt Hill
#
# Bulk Modulus (GPa) = 22.79682 54.41019 38.60350
# Shear Modulus (GPa) = 11.79182 23.93815 17.86499
#
# Velocity S-wave (km/s) = 2.36883 3.37512 2.91571
# Velocity P-wave (km/s) = 4.28137 6.40942 5.45026
#
# Compressibility (1/GPa) = 0.04386577
#
# Stress axis : x y z
#
# Youngs Moduli (GPa) = 85.64618 101.23515 19.53686
#
# Poissons Ratio (x) = 0.48041 0.19149
# Poissons Ratio (y) = 0.40644 -0.00215
# Poissons Ratio (z) = 0.83945 -0.01115
#
# Static dielectric constant tensor:
#      x y z
#    x 4.003030 0.000000 0.000000 
#    y 0.000000 3.991920 0.000000 
#    z 0.000000 0.000000 3.128730 
# 
# 
# High freq. dielectric constant tensor:
#      x y z
#    x 1.831280 0.000000 0.000000 
#    y 0.000000 1.822900 0.000000 
#    z 0.000000 0.000000 1.758390 
# 
# From -- ./inp_files/26989.got.cif
#   From: 2010.03.12/outbox.cif.g09.slc.cpg/sg66_14_cif.got.tgz:26989.got - 2010.04.10 21:57:39.
