data_PCOD8275371
_publ_section_title
;
Structure prediction by ZEFSAII (Michael W. Deem and Ramdas Pophale) SiO2 
 PCOD8275371
Probable space group: C C C M
;
_chemical_formula_sum "Si O2"
_cell_formula_units_Z 80
_cell_length_a 8.642176
_cell_length_b 19.976677
_cell_length_c 22.945387
_cell_angle_alpha 90.000000
_cell_angle_beta 90.000000
_cell_angle_gamma 90.000000
_cell_volume 3961.336551
_symmetry_space_group_name_H-M "C C C M"
_symmetry_group_IT_number 66
_symmetry_cell_setting 'orthorhombic'
loop_
_space_group_symop_operation_xyz
x,y,z
-x,-y,z
x,-y,1/2-z
-x,y,1/2-z
-x,-y,-z
x,y,-z
-x,y,1/2+z
x,-y,1/2+z
1/2+x,1/2+y,z
1/2-x,1/2-y,z
1/2+x,1/2-y,1/2-z
1/2-x,1/2+y,1/2-z
1/2-x,1/2-y,-z
1/2+x,1/2+y,-z
1/2-x,1/2+y,1/2+z
1/2+x,1/2-y,1/2+z
loop_
_atom_site_type_symbol
_atom_site_label
_atom_site_fract_x
_atom_site_fract_y
_atom_site_fract_z
Si Si1 0.271926 0.539517 0.155381
Si Si2 0.967340 0.648700 0.317416
Si Si3 0.291258 0.615115 0.648457
Si Si4 0.439033 0.366702 0.567542
Si Si5 0.250000 0.250000 0.381351
Si Si6 0.500000 0.585711 0.250000
O O1 0.112530 0.576826 0.171034
O O2 0.242657 0.462383 0.142442
O O3 0.350623 0.572739 0.099077
O O4 0.388762 0.540799 0.209885
O O5 0.858327 0.707814 0.338794
O O6 0.000000 0.657339 0.250000
O O7 0.130686 0.655191 0.350831
O O8 0.387264 0.639425 0.592538
O O9 0.392697 0.630621 0.707074
O O10 0.447661 0.384018 0.500000
O O11 0.350179 0.297163 0.576983
#
# Coordination Sequence:
#
# PCOD8275371 Si02
#       6
#    16  16  16  16   8   8
#     4  10  20  35  59  95 124 156 191 237 306 369
#     4  11  23  39  61  88 126 162 199 247 304 362
#     4  11  21  34  61  93 125 153 195 242 302 372
#     4  10  22  42  65  85 119 164 207 254 297 349
#     4  10  25  44  60  84 112 166 217 258 298 344
#     4  10  17  30  54  88 124 152 182 228 289 368
#
# _framework density 20.195204
#
# number of rings (size 3 to 8) (size 9 to 14) (size 15 to 20)
#    0.000    1.600    2.000    4.500    0.000    4.800 
#    3.600    6.000    0.000    6.000    0.000    0.000 
#    0.000    0.000    0.000    0.000    0.000    0.000 
#
# Total GULP energy -496045.323124 kJ/mol
# GULP energy per Si atom -12401.133078 kJ/mol
# Density = 2.014924 g / cm^3
# Si number density = 20.195204 Si / 1000 Ang^3
#
#
#
# Elastic Constant Matrix: (Units=GPa)
#
#
# Indices 1 2 3 4 5 6 
#
# 1 137.8420 38.8274 53.2522 0.0000 0.0000 0.0000
# 2 38.8274 69.4148 37.8382 0.0000 0.0000 0.0000
# 3 53.2522 37.8382 153.8744 0.0000 0.0000 0.0000
# 4 0.0000 0.0000 0.0000 10.2557 0.0000 0.0000
# 5 0.0000 0.0000 0.0000 0.0000 6.0267 0.0000
# 6 0.0000 0.0000 0.0000 0.0000 0.0000 21.3226
#
#
#
# Elastic Compliance Matrix: (Units=1/GPa)
#
#
# Indices 1 2 3 4 5 6 
#
# 1 0.009225 -0.003949 -0.002222 0.000000 0.000000 0.000000
# 2 -0.003949 0.018327 -0.003140 0.000000 0.000000 0.000000
# 3 -0.002222 -0.003140 0.008040 0.000000 0.000000 0.000000
# 4 0.000000 0.000000 0.000000 0.097507 0.000000 0.000000
# 5 0.000000 0.000000 0.000000 0.000000 0.165928 0.000000
# 6 0.000000 0.000000 0.000000 0.000000 0.000000 0.046899
#
#
# Mechanical properties :
#
#
# Convention : Reuss Voigt Hill
#
# Bulk Modulus (GPa) = 58.92579 68.99632 63.96106
# Shear Modulus (GPa) = 13.50609 22.93523 18.22066
#
# Velocity S-wave (km/s) = 2.58888 3.37364 3.00697
# Velocity P-wave (km/s) = 6.17882 7.02952 6.61785
#
# Compressibility (1/GPa) = 0.01697050
#
# Stress axis : x y z
#
# Youngs Moduli (GPa) = 108.39691 54.56507 124.38235
#
# Poissons Ratio (x) = 0.21549 0.27632
# Poissons Ratio (y) = 0.42809 0.39054
# Poissons Ratio (z) = 0.24081 0.17133
#
# Static dielectric constant tensor:
#      x y z
#    x 4.048900 0.000000 0.000000 
#    y 0.000000 3.529840 0.000000 
#    z 0.000000 0.000000 3.453340 
# 
# 
# High freq. dielectric constant tensor:
#      x y z
#    x 1.804500 0.000000 0.000000 
#    y 0.000000 1.779230 0.000000 
#    z 0.000000 0.000000 1.770960 
# 
# From -- ./inp_files/55411.got.cif
#   From: 2010.03.12/outbox.cif.g09.slc.cpg/sg66_28_cif.got.tgz:55411.got - 2010.04.10 21:57:39.
