data_PCOD8275791
_publ_section_title
;
Structure prediction by ZEFSAII (Michael W. Deem and Ramdas Pophale) SiO2 
 PCOD8275791
Probable space group: C C C M
;
_chemical_formula_sum "Si O2"
_cell_formula_units_Z 80
_cell_length_a 15.117862
_cell_length_b 28.805594
_cell_length_c 10.094541
_cell_angle_alpha 90.000000
_cell_angle_beta 90.000000
_cell_angle_gamma 90.000000
_cell_volume 4395.960569
_symmetry_space_group_name_H-M "C C C M"
_symmetry_group_IT_number 66
_symmetry_cell_setting 'orthorhombic'
loop_
_space_group_symop_operation_xyz
x,y,z
-x,-y,z
x,-y,1/2-z
-x,y,1/2-z
-x,-y,-z
x,y,-z
-x,y,1/2+z
x,-y,1/2+z
1/2+x,1/2+y,z
1/2-x,1/2-y,z
1/2+x,1/2-y,1/2-z
1/2-x,1/2+y,1/2-z
1/2-x,1/2-y,-z
1/2+x,1/2+y,-z
1/2-x,1/2+y,1/2+z
1/2+x,1/2-y,1/2+z
loop_
_atom_site_type_symbol
_atom_site_label
_atom_site_fract_x
_atom_site_fract_y
_atom_site_fract_z
Si Si1 0.256570 0.461266 0.847078
Si Si2 0.762517 0.857356 0.155678
Si Si3 0.552971 0.047932 0.360532
Si Si4 0.919488 0.314367 0.346681
Si Si5 0.580372 0.707012 0.846438
O O1 0.300196 0.500000 0.750000
O O2 0.289764 0.410031 0.805655
O O3 0.152315 0.462383 0.821088
O O4 0.280058 0.472906 0.000000
O O5 0.664166 0.844377 0.206529
O O6 0.837173 0.822712 0.209589
O O7 0.757775 0.851693 0.000000
O O8 0.500000 0.078208 0.250000
O O9 0.550984 0.075587 0.500000
O O10 0.500000 0.000000 0.375115
O O11 0.944114 0.325437 0.500000
O O12 0.893024 0.260553 0.333222
O O13 0.000000 0.326755 0.250000
O O14 0.500000 0.694132 0.750000
O O15 0.556996 0.694715 0.000000
#
# Coordination Sequence:
#
# PCOD8275791 Si02
#       5
#    16  16  16  16  16
#     4  10  19  31  45  63  90 125 164 200 236 280
#     4   9  18  32  51  73  98 133 171 202 239 297
#     4   9  15  24  38  55  77 110 151 187 220 262
#     4   9  17  31  50  75 105 134 163 197 241 294
#     4   9  17  32  55  77  98 126 162 205 252 301
#
# _framework density 18.198526000000001
#
# number of rings (size 3 to 8) (size 9 to 14) (size 15 to 20)
#    0.000    2.800    2.000    0.600    0.000    3.200 
#    0.000    3.000    0.000    5.400    0.000    4.200 
#    0.000    0.000    0.000    0.000    0.000    0.000 
#
# Total GULP energy -495527.262545 kJ/mol
# GULP energy per Si atom -12388.181564 kJ/mol
# Density = 1.815711 g / cm^3
# Si number density = 18.198526 Si / 1000 Ang^3
#
#
#
# Elastic Constant Matrix: (Units=GPa)
#
#
# Indices 1 2 3 4 5 6 
#
# 1 65.5326 37.5595 32.0865 0.0000 0.0000 0.0000
# 2 37.5595 106.0244 32.9990 0.0000 0.0000 0.0000
# 3 32.0865 32.9990 94.9270 0.0000 0.0000 0.0000
# 4 0.0000 0.0000 0.0000 14.7665 0.0000 0.0000
# 5 0.0000 0.0000 0.0000 0.0000 19.6442 0.0000
# 6 0.0000 0.0000 0.0000 0.0000 0.0000 11.6040
#
#
#
# Elastic Compliance Matrix: (Units=1/GPa)
#
#
# Indices 1 2 3 4 5 6 
#
# 1 0.021136 -0.005903 -0.005092 0.000000 0.000000 0.000000
# 2 -0.005903 0.012224 -0.002254 0.000000 0.000000 0.000000
# 3 -0.005092 -0.002254 0.013039 0.000000 0.000000 0.000000
# 4 0.000000 0.000000 0.000000 0.067721 0.000000 0.000000
# 5 0.000000 0.000000 0.000000 0.000000 0.050906 0.000000
# 6 0.000000 0.000000 0.000000 0.000000 0.000000 0.086177
#
#
# Mechanical properties :
#
#
# Convention : Reuss Voigt Hill
#
# Bulk Modulus (GPa) = 50.24821 52.41933 51.33377
# Shear Modulus (GPa) = 17.58485 20.12554 18.85520
#
# Velocity S-wave (km/s) = 3.11188 3.32910 3.22232
# Velocity P-wave (km/s) = 6.37046 6.60635 6.48948
#
# Compressibility (1/GPa) = 0.01990120
#
# Stress axis : x y z
#
# Youngs Moduli (GPa) = 47.31285 81.80330 76.69086
#
# Poissons Ratio (x) = 0.48285 0.39054
# Poissons Ratio (y) = 0.27927 0.17289
# Poissons Ratio (z) = 0.24093 0.18442
#
# Static dielectric constant tensor:
#      x y z
#    x 3.860520 0.000000 0.000000 
#    y 0.000000 3.540760 0.000000 
#    z 0.000000 0.000000 13.484310 
# 
# 
# High freq. dielectric constant tensor:
#      x y z
#    x 1.672810 0.000000 0.000000 
#    y 0.000000 1.709690 0.000000 
#    z 0.000000 0.000000 1.693690 
# 
# From -- ./inp_files/14970.got.cif
#   From: 2010.03.12/outbox.cif.g09.slc.cpg/sg66_8_cif.got.tgz:14970.got - 2010.04.10 21:57:39.
