data_PCOD8275861
_publ_section_title
;
Structure prediction by ZEFSAII (Michael W. Deem and Ramdas Pophale) SiO2 
 PCOD8275861
Probable space group: C C C M
;
_chemical_formula_sum "Si O2"
_cell_formula_units_Z 72
_cell_length_a 28.983645
_cell_length_b 13.812194
_cell_length_c 9.269206
_cell_angle_alpha 90.000000
_cell_angle_beta 90.000000
_cell_angle_gamma 90.000000
_cell_volume 3710.720174
_symmetry_space_group_name_H-M "C C C M"
_symmetry_group_IT_number 66
_symmetry_cell_setting 'orthorhombic'
loop_
_space_group_symop_operation_xyz
x,y,z
-x,-y,z
x,-y,1/2-z
-x,y,1/2-z
-x,-y,-z
x,y,-z
-x,y,1/2+z
x,-y,1/2+z
1/2+x,1/2+y,z
1/2-x,1/2-y,z
1/2+x,1/2-y,1/2-z
1/2-x,1/2+y,1/2-z
1/2-x,1/2-y,-z
1/2+x,1/2+y,-z
1/2-x,1/2+y,1/2+z
1/2+x,1/2-y,1/2+z
loop_
_atom_site_type_symbol
_atom_site_label
_atom_site_fract_x
_atom_site_fract_y
_atom_site_fract_z
Si Si1 0.257540 0.053758 0.500000
Si Si2 0.000000 0.784998 0.750000
Si Si3 0.061176 0.736495 0.000000
Si Si4 0.778608 0.151844 0.500000
Si Si5 0.662180 0.187652 0.000000
Si Si6 0.610648 0.436062 0.000000
Si Si7 0.463856 0.413875 0.000000
Si Si8 0.684430 0.642027 0.303066
O O1 0.311249 0.085681 0.500000
O O2 0.232644 0.097640 0.359093
O O3 0.257006 0.937649 0.500000
O O4 0.968053 0.717170 0.646846
O O5 0.968530 0.850836 0.854777
O O6 0.072270 0.851403 0.000000
O O7 0.106924 0.669968 0.000000
O O8 0.750000 0.250000 0.500000
O O9 0.813904 0.145451 0.367860
O O10 0.676965 0.249045 0.140164
O O11 0.587236 0.540592 0.000000
O O12 0.642830 0.425873 0.858391
O O13 0.500000 0.500000 0.000000
#
# Coordination Sequence:
#
# PCOD8275861 Si02
#       8
#     8   8   8   8   8   8   8  16
#     4  10  19  37  57  73 103 153 188 222 278 349
#     4  10  19  32  48  74 106 148 189 238 291 330
#     4   9  19  33  49  74 101 143 193 226 286 328
#     4  12  22  35  55  83 110 141 185 240 294 318
#     4   9  18  39  58  71 105 154 200 222 260 344
#     4   9  19  36  47  69 107 153 202 213 259 337
#     4  11  19  31  50  67 107 149 197 228 277 330
#     4   9  20  37  52  78 109 149 192 227 273 317
#
# _framework density 19.403243
#
# number of rings (size 3 to 8) (size 9 to 14) (size 15 to 20)
#    0.000    2.667    2.222    3.667    0.000    0.000 
#   32.000    5.556    0.000    0.000    0.000    0.000 
#    0.000    0.000    0.000  122.000    0.000    0.000 
#
# Total GULP energy -446265.452450 kJ/mol
# GULP energy per Si atom -12396.262568 kJ/mol
# Density = 1.935908 g / cm^3
# Si number density = 19.403243 Si / 1000 Ang^3
#
#
#
# Elastic Constant Matrix: (Units=GPa)
#
#
# Indices 1 2 3 4 5 6 
#
# 1 120.4541 46.2190 54.2225 0.0000 0.0000 0.0000
# 2 46.2190 63.5540 29.3469 0.0000 0.0000 0.0000
# 3 54.2225 29.3469 172.7733 0.0000 0.0000 0.0000
# 4 0.0000 0.0000 0.0000 2.7612 0.0000 0.0000
# 5 0.0000 0.0000 0.0000 0.0000 5.0170 0.0000
# 6 0.0000 0.0000 0.0000 0.0000 0.0000 31.3334
#
#
#
# Elastic Compliance Matrix: (Units=1/GPa)
#
#
# Indices 1 2 3 4 5 6 
#
# 1 0.012492 -0.007893 -0.002580 0.000000 0.000000 0.000000
# 2 -0.007893 0.022062 -0.001270 0.000000 0.000000 0.000000
# 3 -0.002580 -0.001270 0.006813 0.000000 0.000000 0.000000
# 4 0.000000 0.000000 0.000000 0.362160 0.000000 0.000000
# 5 0.000000 0.000000 0.000000 0.000000 0.199323 0.000000
# 6 0.000000 0.000000 0.000000 0.000000 0.000000 0.031915
#
#
# Mechanical properties :
#
#
# Convention : Reuss Voigt Hill
#
# Bulk Modulus (GPa) = 55.92722 68.48426 62.20574
# Shear Modulus (GPa) = 7.52773 22.95517 15.24145
#
# Velocity S-wave (km/s) = 1.97181 3.44329 2.80574
# Velocity P-wave (km/s) = 5.83698 7.15404 6.52880
#
# Compressibility (1/GPa) = 0.01788038
#
# Stress axis : x y z
#
# Youngs Moduli (GPa) = 80.05178 45.32770 146.77268
#
# Poissons Ratio (x) = 0.35779 0.37862
# Poissons Ratio (y) = 0.63188 0.18641
# Poissons Ratio (z) = 0.20651 0.05757
#
# Static dielectric constant tensor:
#      x y z
#    x 3.575540 0.000000 0.000000 
#    y 0.000000 3.084160 0.000000 
#    z 0.000000 0.000000 3.615510 
# 
# 
# High freq. dielectric constant tensor:
#      x y z
#    x 1.749380 0.000000 0.000000 
#    y 0.000000 1.697310 0.000000 
#    z 0.000000 0.000000 1.765750 
# 
# From -- ./inp_files/11317.got.cif
#   From: 2010.03.12/outbox.cif.g09.slc.cpg/sg66_6_cif.got.tgz:11317.got - 2010.04.10 21:57:39.
