data_PCOD8275805
_publ_section_title
;
Structure prediction by ZEFSAII (Michael W. Deem and Ramdas Pophale) SiO2 
 PCOD8275805
Probable space group: C C C M
;
_chemical_formula_sum "Si O2"
_cell_formula_units_Z 128
_cell_length_a 24.491537
_cell_length_b 28.604990
_cell_length_c 10.162158
_cell_angle_alpha 90.000000
_cell_angle_beta 90.000000
_cell_angle_gamma 90.000000
_cell_volume 7119.406389
_symmetry_space_group_name_H-M "C C C M"
_symmetry_group_IT_number 66
_symmetry_cell_setting 'orthorhombic'
loop_
_space_group_symop_operation_xyz
x,y,z
-x,-y,z
x,-y,1/2-z
-x,y,1/2-z
-x,-y,-z
x,y,-z
-x,y,1/2+z
x,-y,1/2+z
1/2+x,1/2+y,z
1/2-x,1/2-y,z
1/2+x,1/2-y,1/2-z
1/2-x,1/2+y,1/2-z
1/2-x,1/2-y,-z
1/2+x,1/2+y,-z
1/2-x,1/2+y,1/2+z
1/2+x,1/2-y,1/2+z
loop_
_atom_site_type_symbol
_atom_site_label
_atom_site_fract_x
_atom_site_fract_y
_atom_site_fract_z
Si Si1 0.046537 0.135762 0.653857
Si Si2 0.455916 0.183039 0.647512
Si Si3 0.833002 0.458569 0.154226
Si Si4 0.660902 0.777702 0.651720
Si Si5 0.046300 0.425224 0.350678
Si Si6 0.725954 0.135202 0.844181
Si Si7 0.161900 0.825097 0.156008
Si Si8 0.942916 0.027547 0.139020
O O1 0.034998 0.148163 0.500000
O O2 0.104042 0.155742 0.706198
O O3 0.047283 0.080607 0.677329
O O4 0.000000 0.157090 0.750000
O O5 0.500000 0.201974 0.750000
O O6 0.479063 0.189299 0.500000
O O7 0.403146 0.214296 0.668956
O O8 0.441200 0.129176 0.674312
O O9 0.813314 0.500000 0.250000
O O10 0.897561 0.451998 0.175142
O O11 0.799905 0.413182 0.205986
O O12 0.820444 0.469399 0.000000
O O13 0.678176 0.776740 0.500000
O O14 0.694514 0.820014 0.719204
O O15 0.674106 0.726849 0.714400
O O16 0.025501 0.433703 0.500000
O O17 0.000000 0.443724 0.250000
O O18 0.789557 0.139491 0.802287
O O19 0.717809 0.136281 0.000000
O O20 0.158949 0.821436 0.000000
O O21 0.907595 0.000000 0.250000
O O22 0.911159 0.024931 0.000000
O O23 0.000000 0.000000 0.127003
#
# Coordination Sequence:
#
# PCOD8275805 Si02
#       8
#    16  16  16  16  16  16  16  16
#     4  10  19  31  47  71 102 130 158 199 248 294
#     4   9  16  27  45  71 102 131 162 199 241 293
#     4  10  20  34  53  75 102 136 169 205 254 304
#     4   9  15  27  49  74  98 128 164 204 251 295
#     4   9  17  30  47  70 100 133 166 203 245 291
#     4   9  16  31  52  72  98 129 163 208 252 292
#     4   9  18  29  47  76 101 124 163 210 250 291
#     4   9  15  25  43  64  86 119 160 192 222 272
#
# _framework density 17.979026999999999
#
# number of rings (size 3 to 8) (size 9 to 14) (size 15 to 20)
#    0.000    2.750    2.500    0.375    0.000    2.750 
#    0.000    1.875    0.000    0.750    0.000    0.000 
#    0.000    3.000    0.000    0.000    0.000    0.000 
#
# Total GULP energy -793007.725977 kJ/mol
# GULP energy per Si atom -12390.745718 kJ/mol
# Density = 1.793811 g / cm^3
# Si number density = 17.979027 Si / 1000 Ang^3
#
#
#
# Elastic Constant Matrix: (Units=GPa)
#
#
# Indices 1 2 3 4 5 6 
#
# 1 95.4580 54.8309 37.1428 0.0000 0.0000 0.0000
# 2 54.8309 108.8073 29.8819 0.0000 0.0000 0.0000
# 3 37.1428 29.8819 67.4622 0.0000 0.0000 0.0000
# 4 0.0000 0.0000 0.0000 -13.3806 0.0000 0.0000
# 5 0.0000 0.0000 0.0000 0.0000 17.2742 0.0000
# 6 0.0000 0.0000 0.0000 0.0000 0.0000 18.4673
#
#
#
# Elastic Compliance Matrix: (Units=1/GPa)
#
#
# Indices 1 2 3 4 5 6 
#
# 1 0.016780 -0.006738 -0.006254 0.000000 0.000000 0.000000
# 2 -0.006738 0.013169 -0.002123 0.000000 0.000000 0.000000
# 3 -0.006254 -0.002123 0.019207 0.000000 0.000000 0.000000
# 4 0.000000 0.000000 0.000000 -0.074735 0.000000 0.000000
# 5 0.000000 0.000000 0.000000 0.000000 0.057890 0.000000
# 6 0.000000 0.000000 0.000000 0.000000 0.000000 0.054150
#
#
# Mechanical properties :
#
#
# Convention : Reuss Voigt Hill
#
# Bulk Modulus (GPa) = 52.84010 57.27096 55.05553
# Shear Modulus (GPa) = 40.65075 14.46365 27.55720
#
# Velocity S-wave (km/s) = 4.76017 2.83940 3.91927
# Velocity P-wave (km/s) = 7.72437 6.53246 7.15328
#
# Compressibility (1/GPa) = 0.01892502
#
# Stress axis : x y z
#
# Youngs Moduli (GPa) = 59.59647 75.93448 52.06506
#
# Poissons Ratio (x) = 0.51166 0.32560
# Poissons Ratio (y) = 0.40157 0.11055
# Poissons Ratio (z) = 0.37270 0.16124
#
# Static dielectric constant tensor:
#      x y z
#    x 3.245680 0.000000 0.000000 
#    y 0.000000 3.452440 0.000000 
#    z 0.000000 0.000000 4.086560 
# 
# 
# High freq. dielectric constant tensor:
#      x y z
#    x 1.679610 0.000000 0.000000 
#    y 0.000000 1.702240 0.000000 
#    z 0.000000 0.000000 1.652280 
# 
# From -- ./inp_files/20125.got.cif
#   From: 2010.03.12/outbox.cif.g09.slc.cpg/sg66_11_cif.got.tgz:20125.got - 2010.04.10 21:57:39.
