data_PCOD8275494
_publ_section_title
;
Structure prediction by ZEFSAII (Michael W. Deem and Ramdas Pophale) SiO2 
 PCOD8275494
Probable space group: C C C M
;
_chemical_formula_sum "Si O2"
_cell_formula_units_Z 96
_cell_length_a 9.663567
_cell_length_b 21.426574
_cell_length_c 25.043260
_cell_angle_alpha 90.000000
_cell_angle_beta 90.000000
_cell_angle_gamma 90.000000
_cell_volume 5185.385627
_symmetry_space_group_name_H-M "C C C M"
_symmetry_group_IT_number 66
_symmetry_cell_setting 'orthorhombic'
loop_
_space_group_symop_operation_xyz
x,y,z
-x,-y,z
x,-y,1/2-z
-x,y,1/2-z
-x,-y,-z
x,y,-z
-x,y,1/2+z
x,-y,1/2+z
1/2+x,1/2+y,z
1/2-x,1/2-y,z
1/2+x,1/2-y,1/2-z
1/2-x,1/2+y,1/2-z
1/2-x,1/2-y,-z
1/2+x,1/2+y,-z
1/2-x,1/2+y,1/2+z
1/2+x,1/2-y,1/2+z
loop_
_atom_site_type_symbol
_atom_site_label
_atom_site_fract_x
_atom_site_fract_y
_atom_site_fract_z
Si Si1 0.194489 0.897208 0.437426
Si Si2 0.899519 0.267189 0.795936
Si Si3 0.153488 0.477203 0.561834
Si Si4 0.009487 0.815819 0.116910
Si Si5 0.314611 0.153601 0.396070
Si Si6 0.577693 0.199615 0.441110
O O1 0.155092 0.887076 0.500000
O O2 0.323523 0.854690 0.418947
O O3 0.066047 0.881020 0.397484
O O4 0.235385 0.968552 0.427419
O O5 0.750000 0.250000 0.771333
O O6 0.970659 0.204071 0.821071
O O7 0.879634 0.321261 0.840301
O O8 0.000000 0.293117 0.750000
O O9 0.160162 0.455580 0.500000
O O10 0.195654 0.421426 0.601894
O O11 0.000000 0.500000 0.575842
O O12 0.164631 0.816421 0.092557
O O13 0.909891 0.763642 0.091212
O O14 0.420236 0.174730 0.441889
O O15 0.624165 0.217159 0.500000
#
# Coordination Sequence:
#
# PCOD8275494 Si02
#       6
#    16  16  16  16  16  16
#     4  10  20  32  49  77 112 151 187 215 252 309
#     4   9  20  38  58  83 105 131 171 226 285 335
#     4  10  19  34  53  75 111 153 188 218 250 305
#     4  10  21  33  49  81 109 134 173 223 275 321
#     4  10  20  34  53  77 105 139 178 221 266 320
#     4  10  18  30  48  72 107 144 176 214 258 311
#
# _framework density 18.513569
#
# number of rings (size 3 to 8) (size 9 to 14) (size 15 to 20)
#    0.000    2.167    1.667    3.000    0.000    8.000 
#    0.000    1.667    0.000    0.500    0.000    1.167 
#    0.000    0.000    0.000    0.000    0.000    0.000 
#
# Total GULP energy -594807.138105 kJ/mol
# GULP energy per Si atom -12391.815377 kJ/mol
# Density = 1.847143 g / cm^3
# Si number density = 18.513569 Si / 1000 Ang^3
#
#
#
# Elastic Constant Matrix: (Units=GPa)
#
#
# Indices 1 2 3 4 5 6 
#
# 1 75.9275 25.5358 39.3844 0.0000 0.0000 0.0000
# 2 25.5358 91.9560 34.8172 0.0000 0.0000 0.0000
# 3 39.3844 34.8172 62.3844 0.0000 0.0000 0.0000
# 4 0.0000 0.0000 0.0000 15.6098 0.0000 0.0000
# 5 0.0000 0.0000 0.0000 0.0000 29.3036 0.0000
# 6 0.0000 0.0000 0.0000 0.0000 0.0000 31.7741
#
#
#
# Elastic Compliance Matrix: (Units=1/GPa)
#
#
# Indices 1 2 3 4 5 6 
#
# 1 0.019651 -0.000963 -0.011868 0.000000 0.000000 0.000000
# 2 -0.000963 0.013836 -0.007114 0.000000 0.000000 0.000000
# 3 -0.011868 -0.007114 0.027492 0.000000 0.000000 0.000000
# 4 0.000000 0.000000 0.000000 0.064062 0.000000 0.000000
# 5 0.000000 0.000000 0.000000 0.000000 0.034125 0.000000
# 6 0.000000 0.000000 0.000000 0.000000 0.000000 0.031472
#
#
# Mechanical properties :
#
#
# Convention : Reuss Voigt Hill
#
# Bulk Modulus (GPa) = 47.41921 47.74919 47.58420
# Shear Modulus (GPa) = 21.04747 24.03955 22.54351
#
# Velocity S-wave (km/s) = 3.37540 3.60736 3.49331
# Velocity P-wave (km/s) = 6.39218 6.57253 6.48298
#
# Compressibility (1/GPa) = 0.02108850
#
# Stress axis : x y z
#
# Youngs Moduli (GPa) = 50.88910 72.27675 36.37361
#
# Poissons Ratio (x) = 0.06962 0.43169
# Poissons Ratio (y) = 0.04902 0.25875
# Poissons Ratio (z) = 0.60396 0.51415
#
# Static dielectric constant tensor:
#      x y z
#    x 3.581370 0.000000 0.000000 
#    y 0.000000 3.467600 0.000000 
#    z 0.000000 0.000000 3.014930 
# 
# 
# High freq. dielectric constant tensor:
#      x y z
#    x 1.734750 0.000000 0.000000 
#    y 0.000000 1.712260 0.000000 
#    z 0.000000 0.000000 1.668830 
# 
# From -- ./inp_files/55655.got.cif
#   From: 2010.03.12/outbox.cif.g09.slc.cpg/sg66_28_cif.got.tgz:55655.got - 2010.04.10 21:57:39.
