data_PCOD8275457
_publ_section_title
;
Structure prediction by ZEFSAII (Michael W. Deem and Ramdas Pophale) SiO2 
 PCOD8275457
Probable space group: C C C M
;
_chemical_formula_sum "Si O2"
_cell_formula_units_Z 96
_cell_length_a 26.091796
_cell_length_b 28.566579
_cell_length_c 8.626769
_cell_angle_alpha 90.000000
_cell_angle_beta 90.000000
_cell_angle_gamma 90.000000
_cell_volume 6429.991188
_symmetry_space_group_name_H-M "C C C M"
_symmetry_group_IT_number 66
_symmetry_cell_setting 'orthorhombic'
loop_
_space_group_symop_operation_xyz
x,y,z
-x,-y,z
x,-y,1/2-z
-x,y,1/2-z
-x,-y,-z
x,y,-z
-x,y,1/2+z
x,-y,1/2+z
1/2+x,1/2+y,z
1/2-x,1/2-y,z
1/2+x,1/2-y,1/2-z
1/2-x,1/2+y,1/2-z
1/2-x,1/2-y,-z
1/2+x,1/2+y,-z
1/2-x,1/2+y,1/2+z
1/2+x,1/2-y,1/2+z
loop_
_atom_site_type_symbol
_atom_site_label
_atom_site_fract_x
_atom_site_fract_y
_atom_site_fract_z
Si Si1 0.802445 0.721679 0.675016
Si Si2 0.247437 0.139776 0.180490
Si Si3 0.287962 0.451383 0.682916
Si Si4 0.053083 0.860279 0.182366
Si Si5 0.355914 0.695828 0.320034
Si Si6 0.100135 0.951022 0.683671
O O1 0.821591 0.713691 0.500000
O O2 0.750000 0.750000 0.678070
O O3 0.793851 0.671756 0.757149
O O4 0.845083 0.750765 0.769281
O O5 0.250143 0.090390 0.269699
O O6 0.193220 0.163994 0.216276
O O7 0.255482 0.131020 0.000000
O O8 0.265882 0.500000 0.750000
O O9 0.293256 0.455225 0.500000
O O10 0.343240 0.440393 0.754645
O O11 0.097098 0.823113 0.220391
O O12 0.062740 0.910134 0.262706
O O13 0.000000 0.840287 0.250000
O O14 0.049565 0.867467 0.000000
O O15 0.370415 0.694251 0.500000
O O16 0.102121 0.953312 0.500000
O O17 0.079082 0.000000 0.750000
#
# Coordination Sequence:
#
# PCOD8275457 Si02
#       6
#    16  16  16  16  16  16
#     4   9  17  28  44  66  89 111 139 171 211 256
#     4  10  18  29  46  66  89 113 142 176 214 257
#     4  11  20  30  45  64  87 115 146 179 218 261
#     4  12  24  37  51  66  84 109 142 181 225 270
#     4  10  19  32  48  65  87 111 139 176 218 261
#     4  11  21  35  50  65  82 106 140 180 225 269
#
# _framework density 14.930035
#
# number of rings (size 3 to 8) (size 9 to 14) (size 15 to 20)
#    0.000    1.500    1.667    7.000    0.000    3.667 
#    0.000    1.667    0.000    0.000    0.000    0.000 
#    0.000    0.000    0.000    0.000    0.000    0.833 
#
# Total GULP energy -595355.680828 kJ/mol
# GULP energy per Si atom -12403.243351 kJ/mol
# Density = 1.489605 g / cm^3
# Si number density = 14.930035 Si / 1000 Ang^3
#
#
#
# Elastic Constant Matrix: (Units=GPa)
#
#
# Indices 1 2 3 4 5 6 
#
# 1 36.3523 38.3236 24.6159 0.0000 0.0000 0.0000
# 2 38.3236 90.6700 47.0770 0.0000 0.0000 0.0000
# 3 24.6159 47.0770 126.1996 0.0000 0.0000 0.0000
# 4 0.0000 0.0000 0.0000 29.0699 0.0000 0.0000
# 5 0.0000 0.0000 0.0000 0.0000 19.6135 0.0000
# 6 0.0000 0.0000 0.0000 0.0000 0.0000 21.6151
#
#
#
# Elastic Compliance Matrix: (Units=1/GPa)
#
#
# Indices 1 2 3 4 5 6 
#
# 1 0.050162 -0.019995 -0.002326 0.000000 0.000000 0.000000
# 2 -0.019995 0.021648 -0.004175 0.000000 0.000000 0.000000
# 3 -0.002326 -0.004175 0.009935 0.000000 0.000000 0.000000
# 4 0.000000 0.000000 0.000000 0.034400 0.000000 0.000000
# 5 0.000000 0.000000 0.000000 0.000000 0.050985 0.000000
# 6 0.000000 0.000000 0.000000 0.000000 0.000000 0.046264
#
#
# Mechanical properties :
#
#
# Convention : Reuss Voigt Hill
#
# Bulk Modulus (GPa) = 34.77778 52.58387 43.68082
# Shear Modulus (GPa) = 18.11786 23.60672 20.86229
#
# Velocity S-wave (km/s) = 3.48734 3.98069 3.74215
# Velocity P-wave (km/s) = 6.28966 7.51162 6.92764
#
# Compressibility (1/GPa) = 0.02875400
#
# Stress axis : x y z
#
# Youngs Moduli (GPa) = 19.93533 46.19349 100.65225
#
# Poissons Ratio (x) = 0.92362 0.23409
# Poissons Ratio (y) = 0.39860 0.42027
# Poissons Ratio (z) = 0.04636 0.19288
#
# Static dielectric constant tensor:
#      x y z
#    x 2.617950 0.000000 0.000000 
#    y 0.000000 3.029740 0.000000 
#    z 0.000000 0.000000 3.056770 
# 
# 
# High freq. dielectric constant tensor:
#      x y z
#    x 1.513540 0.000000 0.000000 
#    y 0.000000 1.568070 0.000000 
#    z 0.000000 0.000000 1.597630 
# 
# From -- ./inp_files/9278.got.cif
#   From: 2010.03.12/outbox.cif.g09.slc.cpg/sg66_5_cif.got.tgz:9278.got - 2010.04.10 21:57:39.
