data_PCOD8275029
_publ_section_title
;
Structure prediction by ZEFSAII (Michael W. Deem and Ramdas Pophale) SiO2 
 PCOD8275029
Probable space group: C M M M
;
_chemical_formula_sum "Si O2"
_cell_formula_units_Z 56
_cell_length_a 17.306201
_cell_length_b 9.939773
_cell_length_c 19.862526
_cell_angle_alpha 90.000000
_cell_angle_beta 90.000000
_cell_angle_gamma 90.000000
_cell_volume 3416.745951
_symmetry_space_group_name_H-M "C M M M"
_symmetry_group_IT_number 65
_symmetry_cell_setting 'orthorhombic'
loop_
_space_group_symop_operation_xyz
x,y,z
-x,-y,z
x,-y,-z
-x,y,-z
-x,-y,-z
x,y,-z
-x,y,z
x,-y,z
1/2+x,1/2+y,z
1/2-x,1/2-y,z
1/2+x,1/2-y,-z
1/2-x,1/2+y,-z
1/2-x,1/2-y,-z
1/2+x,1/2+y,-z
1/2-x,1/2+y,z
1/2+x,1/2-y,z
loop_
_atom_site_type_symbol
_atom_site_label
_atom_site_fract_x
_atom_site_fract_y
_atom_site_fract_z
Si Si1 0.408218 0.849209 0.574702
Si Si2 0.182836 0.148109 0.178691
Si Si3 0.091227 0.000000 0.077157
Si Si4 0.910077 0.843829 0.309232
O O1 0.377036 0.811860 0.500000
O O2 0.500000 0.842105 0.573880
O O3 0.375766 0.742935 0.628843
O O4 0.381163 0.000000 0.594353
O O5 0.250000 0.250000 0.159100
O O6 0.125101 0.133029 0.114525
O O7 0.135249 0.202006 0.242650
O O8 0.218217 0.000000 0.195352
O O9 0.000000 0.000000 0.084695
O O10 0.117926 0.000000 0.000000
O O11 0.000000 0.812942 0.296784
O O12 0.897076 0.000000 0.326168
#
# Coordination Sequence:
#
# PCOD8275029 Si02
#       4
#    16  16   8  16
#     4   8  14  24  38  61  92 124 161 206 254 297
#     4   9  19  32  49  75 103 131 165 205 248 295
#     4   9  18  34  58  80 100 134 172 201 240 298
#     4   9  16  27  45  66  92 126 164 207 248 292
#
# _framework density 16.389863999999999
#
# number of rings (size 3 to 8) (size 9 to 14) (size 15 to 20)
#    0.857    2.429    0.000    1.714    0.000    2.286 
#    0.000    2.857    0.000    3.429    0.000    2.000 
#    0.000    0.000    0.000    0.000    0.000    0.000 
#
# Total GULP energy -346946.924409 kJ/mol
# GULP energy per Si atom -12390.961586 kJ/mol
# Density = 1.635256 g / cm^3
# Si number density = 16.389864 Si / 1000 Ang^3
#
#
#
# Elastic Constant Matrix: (Units=GPa)
#
#
# Indices 1 2 3 4 5 6 
#
# 1 54.3955 38.8426 48.2338 0.0000 0.0000 0.0000
# 2 38.8426 68.0010 62.9117 0.0000 0.0000 0.0000
# 3 48.2338 62.9117 159.1589 0.0000 0.0000 0.0000
# 4 0.0000 0.0000 0.0000 11.1407 0.0000 0.0000
# 5 0.0000 0.0000 0.0000 0.0000 7.2080 0.0000
# 6 0.0000 0.0000 0.0000 0.0000 0.0000 25.3311
#
#
#
# Elastic Compliance Matrix: (Units=1/GPa)
#
#
# Indices 1 2 3 4 5 6 
#
# 1 0.032562 -0.014930 -0.003967 0.000000 0.000000 0.000000
# 2 -0.014930 0.030029 -0.007345 0.000000 0.000000 0.000000
# 3 -0.003967 -0.007345 0.010389 0.000000 0.000000 0.000000
# 4 0.000000 0.000000 0.000000 0.089761 0.000000 0.000000
# 5 0.000000 0.000000 0.000000 0.000000 0.138735 0.000000
# 6 0.000000 0.000000 0.000000 0.000000 0.000000 0.039477
#
#
# Mechanical properties :
#
#
# Convention : Reuss Voigt Hill
#
# Bulk Modulus (GPa) = 48.78921 64.61460 56.70191
# Shear Modulus (GPa) = 12.49159 17.50711 14.99935
#
# Velocity S-wave (km/s) = 2.76371 3.27183 3.02844
# Velocity P-wave (km/s) = 6.32587 7.33364 6.84832
#
# Compressibility (1/GPa) = 0.02049633
#
# Stress axis : x y z
#
# Youngs Moduli (GPa) = 30.71018 33.30077 96.25979
#
# Poissons Ratio (x) = 0.49718 0.38183
# Poissons Ratio (y) = 0.45851 0.70705
# Poissons Ratio (z) = 0.12182 0.24460
#
# Static dielectric constant tensor:
#      x y z
#    x 2.693760 0.000000 0.000000 
#    y 0.000000 3.023370 0.000000 
#    z 0.000000 0.000000 3.261050 
# 
# 
# High freq. dielectric constant tensor:
#      x y z
#    x 1.598390 0.000000 0.000000 
#    y 0.000000 1.615370 0.000000 
#    z 0.000000 0.000000 1.635600 
# 
# From -- ./inp_files/63208.got.cif
#   From: 2010.03.12/outbox.cif.g09.slc.cpg/sg65_32_cif.got.tgz:63208.got - 2010.04.10 20:52:16.
