data_PCOD8275553
_publ_section_title
;
Structure prediction by ZEFSAII (Michael W. Deem and Ramdas Pophale) SiO2 
 PCOD8275553
Probable space group: C C C M
;
_chemical_formula_sum "Si O2"
_cell_formula_units_Z 96
_cell_length_a 13.773787
_cell_length_b 19.761654
_cell_length_c 16.525240
_cell_angle_alpha 90.000000
_cell_angle_beta 90.000000
_cell_angle_gamma 90.000000
_cell_volume 4498.051561
_symmetry_space_group_name_H-M "C C C M"
_symmetry_group_IT_number 66
_symmetry_cell_setting 'orthorhombic'
loop_
_space_group_symop_operation_xyz
x,y,z
-x,-y,z
x,-y,1/2-z
-x,y,1/2-z
-x,-y,-z
x,y,-z
-x,y,1/2+z
x,-y,1/2+z
1/2+x,1/2+y,z
1/2-x,1/2-y,z
1/2+x,1/2-y,1/2-z
1/2-x,1/2+y,1/2-z
1/2-x,1/2-y,-z
1/2+x,1/2+y,-z
1/2-x,1/2+y,1/2+z
1/2+x,1/2-y,1/2+z
loop_
_atom_site_type_symbol
_atom_site_label
_atom_site_fract_x
_atom_site_fract_y
_atom_site_fract_z
Si Si1 0.737025 0.058854 0.592750
Si Si2 0.046230 0.192603 0.403192
Si Si3 0.121568 0.331690 0.593460
Si Si4 0.168286 0.200259 0.092774
Si Si5 0.302205 0.586507 0.903746
Si Si6 0.531324 0.072577 0.658042
O O1 0.701966 0.048211 0.500000
O O2 0.808474 0.121410 0.600199
O O3 0.646647 0.077101 0.649565
O O4 0.793502 0.991656 0.624597
O O5 0.037601 0.191350 0.500000
O O6 0.112408 0.255365 0.372562
O O7 0.098421 0.122994 0.373006
O O8 0.938400 0.204523 0.365881
O O9 0.145365 0.326257 0.500000
O O10 0.210458 0.372562 0.634336
O O11 0.019521 0.369884 0.605115
O O12 0.250000 0.250000 0.133592
O O13 0.159992 0.223708 0.000000
O O14 0.299922 0.589282 0.000000
O O15 0.500000 0.082549 0.750000
O O16 0.500000 0.000000 0.623605
#
# Coordination Sequence:
#
# PCOD8275553 Si02
#       6
#    16  16  16  16  16  16
#     4  10  19  32  52  78 107 138 174 217 263 315
#     4   9  17  29  48  76 108 140 172 212 260 308
#     4  10  18  31  53  77 104 137 173 214 260 312
#     4   9  17  29  46  72 106 141 175 213 260 309
#     4   9  17  28  46  76 108 136 171 213 256 306
#     4  11  22  34  50  76 103 133 171 218 270 316
#
# _framework density 21.342575
#
# number of rings (size 3 to 8) (size 9 to 14) (size 15 to 20)
#    0.000    2.333    1.667    2.000    0.000    6.000 
#    0.000    3.333    0.000    6.000    0.000    0.000 
#    0.000    0.000    0.000    0.000    0.000    0.000 
#
# Total GULP energy -594859.476116 kJ/mol
# GULP energy per Si atom -12392.905752 kJ/mol
# Density = 2.129400 g / cm^3
# Si number density = 21.342575 Si / 1000 Ang^3
#
#
#
# Elastic Constant Matrix: (Units=GPa)
#
#
# Indices 1 2 3 4 5 6 
#
# 1 142.4983 68.0629 8.4620 0.0000 0.0000 0.0000
# 2 68.0629 140.2770 8.2124 0.0000 0.0000 0.0000
# 3 8.4620 8.2124 14.7857 0.0000 0.0000 0.0000
# 4 0.0000 0.0000 0.0000 6.6603 0.0000 0.0000
# 5 0.0000 0.0000 0.0000 0.0000 10.6536 0.0000
# 6 0.0000 0.0000 0.0000 0.0000 0.0000 25.2241
#
#
#
# Elastic Compliance Matrix: (Units=1/GPa)
#
#
# Indices 1 2 3 4 5 6 
#
# 1 0.009253 -0.004320 -0.002896 0.000000 0.000000 0.000000
# 2 -0.004320 0.009385 -0.002740 0.000000 0.000000 0.000000
# 3 -0.002896 -0.002740 0.070813 0.000000 0.000000 0.000000
# 4 0.000000 0.000000 0.000000 0.150142 0.000000 0.000000
# 5 0.000000 0.000000 0.000000 0.000000 0.093865 0.000000
# 6 0.000000 0.000000 0.000000 0.000000 0.000000 0.039645
#
#
# Mechanical properties :
#
#
# Convention : Reuss Voigt Hill
#
# Bulk Modulus (GPa) = 14.38068 51.89284 33.13676
# Shear Modulus (GPa) = 12.01359 22.69586 17.35473
#
# Velocity S-wave (km/s) = 2.37511 3.26453 2.85467
# Velocity P-wave (km/s) = 3.77812 6.21100 5.14056
#
# Compressibility (1/GPa) = 0.06953773
#
# Stress axis : x y z
#
# Youngs Moduli (GPa) = 108.07260 106.54969 14.12176
#
# Poissons Ratio (x) = 0.46030 0.04090
# Poissons Ratio (y) = 0.46688 0.03870
# Poissons Ratio (z) = 0.31299 0.29199
#
# Static dielectric constant tensor:
#      x y z
#    x 4.041990 0.000000 0.000000 
#    y 0.000000 4.144550 0.000000 
#    z 0.000000 0.000000 3.106150 
# 
# 
# High freq. dielectric constant tensor:
#      x y z
#    x 1.839800 0.000000 0.000000 
#    y 0.000000 1.853660 0.000000 
#    z 0.000000 0.000000 1.760360 
# 
# From -- ./inp_files/48782.got.cif
#   From: 2010.03.12/outbox.cif.g09.slc.cpg/sg66_25_cif.got.tgz:48782.got - 2010.04.10 21:57:39.
