data_PCOD8275037
_publ_section_title
;
Structure prediction by ZEFSAII (Michael W. Deem and Ramdas Pophale) SiO2 
 PCOD8275037
Probable space group: C M M M
;
_chemical_formula_sum "Si O2"
_cell_formula_units_Z 112
_cell_length_a 9.765335
_cell_length_b 28.940570
_cell_length_c 25.902888
_cell_angle_alpha 90.000000
_cell_angle_beta 90.000000
_cell_angle_gamma 90.000000
_cell_volume 7320.528144
_symmetry_space_group_name_H-M "C M M M"
_symmetry_group_IT_number 65
_symmetry_cell_setting 'orthorhombic'
loop_
_space_group_symop_operation_xyz
x,y,z
-x,-y,z
x,-y,-z
-x,y,-z
-x,-y,-z
x,y,-z
-x,y,z
x,-y,z
1/2+x,1/2+y,z
1/2-x,1/2-y,z
1/2+x,1/2-y,-z
1/2-x,1/2+y,-z
1/2-x,1/2-y,-z
1/2+x,1/2+y,-z
1/2-x,1/2+y,z
1/2+x,1/2-y,z
loop_
_atom_site_type_symbol
_atom_site_label
_atom_site_fract_x
_atom_site_fract_y
_atom_site_fract_z
Si Si1 0.163621 0.447909 0.348544
Si Si2 0.662814 0.111468 0.557245
Si Si3 0.656758 0.207786 0.277379
Si Si4 0.337616 0.892886 0.749892
Si Si5 0.343229 0.791911 0.398836
Si Si6 0.346578 0.554859 0.057110
Si Si7 0.840726 0.554048 0.149209
O O1 0.219289 0.500000 0.345312
O O2 0.220490 0.425305 0.401461
O O3 0.223125 0.419468 0.299870
O O4 0.000000 0.447027 0.347993
O O5 0.717625 0.098891 0.500000
O O6 0.500000 0.110310 0.558641
O O7 0.711621 0.162727 0.572294
O O8 0.500000 0.219173 0.262882
O O9 0.750000 0.250000 0.257621
O O10 0.707998 0.160738 0.249811
O O11 0.672670 0.199644 0.338107
O O12 0.500000 0.895950 0.746635
O O13 0.284824 0.917910 0.801508
O O14 0.500000 0.780771 0.413276
O O15 0.250000 0.750000 0.418286
O O16 0.500000 0.571808 0.070848
O O17 0.341966 0.500000 0.056703
O O18 0.240621 0.573547 0.099631
O O19 0.304685 0.573191 0.000000
O O20 0.812953 0.500000 0.159274
O O21 0.000000 0.563521 0.139032
#
# Coordination Sequence:
#
# PCOD8275037 Si02
#       7
#    16  16  16  16  16  16  16
#     4   9  15  23  36  53  75 106 139 165 196 244
#     4   9  16  25  36  53  78 104 131 166 206 244
#     4   9  16  27  43  59  78 104 133 163 199 245
#     4   9  15  25  39  56  80 107 133 165 206 246
#     4   9  16  27  42  59  79 103 129 160 201 247
#     4   8  14  25  39  54  78 115 150 173 198 234
#     4   9  16  24  37  60  85 108 139 175 203 231
#
# _framework density 15.299443
#
# number of rings (size 3 to 8) (size 9 to 14) (size 15 to 20)
#    0.000    3.143    1.429    0.857    0.000    2.571 
#    0.000    3.571    0.000    0.000    0.000    0.000 
#    0.000    2.286    0.000    2.571    0.000    3.714 
#
# Total GULP energy -694137.977022 kJ/mol
# GULP energy per Si atom -12395.321018 kJ/mol
# Density = 1.526462 g / cm^3
# Si number density = 15.299443 Si / 1000 Ang^3
#
#
#
# Elastic Constant Matrix: (Units=GPa)
#
#
# Indices 1 2 3 4 5 6 
#
# 1 36.4131 33.5978 36.4646 0.0000 0.0000 0.0000
# 2 33.5978 102.5526 61.7533 0.0000 0.0000 0.0000
# 3 36.4646 61.7533 119.9792 0.0000 0.0000 0.0000
# 4 0.0000 0.0000 0.0000 15.5811 0.0000 0.0000
# 5 0.0000 0.0000 0.0000 0.0000 10.2416 0.0000
# 6 0.0000 0.0000 0.0000 0.0000 0.0000 15.8190
#
#
#
# Elastic Compliance Matrix: (Units=1/GPa)
#
#
# Indices 1 2 3 4 5 6 
#
# 1 0.044998 -0.009429 -0.008823 0.000000 0.000000 0.000000
# 2 -0.009429 0.016107 -0.005424 0.000000 0.000000 0.000000
# 3 -0.008823 -0.005424 0.013808 0.000000 0.000000 0.000000
# 4 0.000000 0.000000 0.000000 0.064180 0.000000 0.000000
# 5 0.000000 0.000000 0.000000 0.000000 0.097641 0.000000
# 6 0.000000 0.000000 0.000000 0.000000 0.000000 0.063215
#
#
# Mechanical properties :
#
#
# Convention : Reuss Voigt Hill
#
# Bulk Modulus (GPa) = 36.28430 58.06405 47.17418
# Shear Modulus (GPa) = 14.02568 16.80362 15.41465
#
# Velocity S-wave (km/s) = 3.03106 3.31768 3.17760
# Velocity P-wave (km/s) = 6.00145 7.26017 6.66061
#
# Compressibility (1/GPa) = 0.02756013
#
# Stress axis : x y z
#
# Youngs Moduli (GPa) = 22.22311 62.08648 72.42137
#
# Poissons Ratio (x) = 0.58544 0.63896
# Poissons Ratio (y) = 0.20955 0.39283
# Poissons Ratio (z) = 0.19607 0.33677
#
# Static dielectric constant tensor:
#      x y z
#    x 2.622230 0.000000 0.000000 
#    y 0.000000 2.909940 0.000000 
#    z 0.000000 0.000000 3.109910 
# 
# 
# High freq. dielectric constant tensor:
#      x y z
#    x 1.541150 0.000000 0.000000 
#    y 0.000000 1.570770 0.000000 
#    z 0.000000 0.000000 1.581270 
# 
# From -- ./inp_files/69253.got.cif
#   From: 2010.03.12/outbox.cif.g09.slc.cpg/sg65_35_cif.got.tgz:69253.got - 2010.04.10 20:52:16.
