data_PCOD8275123
_publ_section_title
;
Structure prediction by ZEFSAII (Michael W. Deem and Ramdas Pophale) SiO2 
 PCOD8275123
Probable space group: C M M M
;
_chemical_formula_sum "Si O2"
_cell_formula_units_Z 104
_cell_length_a 36.719973
_cell_length_b 27.192458
_cell_length_c 9.195257
_cell_angle_alpha 90.000000
_cell_angle_beta 90.000000
_cell_angle_gamma 90.000000
_cell_volume 9181.522261
_symmetry_space_group_name_H-M "C M M M"
_symmetry_group_IT_number 65
_symmetry_cell_setting 'orthorhombic'
loop_
_space_group_symop_operation_xyz
x,y,z
-x,-y,z
x,-y,-z
-x,y,-z
-x,-y,-z
x,y,-z
-x,y,z
x,-y,z
1/2+x,1/2+y,z
1/2-x,1/2-y,z
1/2+x,1/2-y,-z
1/2-x,1/2+y,-z
1/2-x,1/2-y,-z
1/2+x,1/2+y,-z
1/2-x,1/2+y,z
1/2+x,1/2-y,z
loop_
_atom_site_type_symbol
_atom_site_label
_atom_site_fract_x
_atom_site_fract_y
_atom_site_fract_z
Si Si1 0.752538 0.638706 0.835705
Si Si2 0.500000 0.558494 0.164320
Si Si3 0.857004 0.886927 0.669400
Si Si4 0.070697 0.943344 0.669801
Si Si5 0.177409 0.197155 0.164330
Si Si6 0.287649 0.220702 0.335346
Si Si7 0.784101 0.943534 0.669208
O O1 0.715457 0.669062 0.834131
O O2 0.783060 0.668820 0.747175
O O3 0.746122 0.586214 0.759668
O O4 0.766311 0.630403 0.000000
O O5 0.500000 0.500000 0.171641
O O6 0.536039 0.578289 0.244549
O O7 0.500000 0.578184 0.000000
O O8 0.856996 0.873288 0.500000
O O9 0.894281 0.912445 0.718418
O O10 0.852981 0.836576 0.759184
O O11 0.824538 0.924612 0.705644
O O12 0.062611 0.937679 0.500000
O O13 0.078182 0.000000 0.710312
O O14 0.181426 0.247970 0.252578
O O15 0.165142 0.208975 0.000000
O O16 0.300560 0.210706 0.500000
O O17 0.250000 0.250000 0.335105
O O18 0.775354 0.936211 0.500000
O O19 0.781714 0.000000 0.716752
#
# Coordination Sequence:
#
# PCOD8275123 Si02
#       7
#    16   8  16  16  16  16  16
#     4   9  16  24  33  45  60  77  97 120 146 176
#     4   9  17  27  37  49  63  77  95 121 151 181
#     4   9  16  25  36  49  63  79  99 121 147 181
#     4   9  16  26  39  51  62  78 100 124 149 179
#     4   9  16  24  33  46  63  79  94 115 144 177
#     4   9  15  23  35  47  58  74  96 120 144 171
#     4   9  16  25  35  46  61  80 101 124 149 179
#
# _framework density 11.327097999999999
#
# number of rings (size 3 to 8) (size 9 to 14) (size 15 to 20)
#    0.000    3.000    0.000    2.077    0.000    9.231 
#    0.000    0.000    0.000    2.769    0.000    0.000 
#    0.000    0.000    0.000    0.000    0.000    0.000 
#
# Total GULP energy -644728.733541 kJ/mol
# GULP energy per Si atom -12398.629491 kJ/mol
# Density = 1.130132 g / cm^3
# Si number density = 11.327098 Si / 1000 Ang^3
#
#
#
# Elastic Constant Matrix: (Units=GPa)
#
#
# Indices 1 2 3 4 5 6 
#
# 1 44.8416 40.8851 36.0744 0.0000 0.0000 0.0000
# 2 40.8851 67.8584 46.8960 0.0000 0.0000 0.0000
# 3 36.0744 46.8960 83.1837 0.0000 0.0000 0.0000
# 4 0.0000 0.0000 0.0000 16.1896 0.0000 0.0000
# 5 0.0000 0.0000 0.0000 0.0000 11.6865 0.0000
# 6 0.0000 0.0000 0.0000 0.0000 0.0000 13.6939
#
#
#
# Elastic Compliance Matrix: (Units=1/GPa)
#
#
# Indices 1 2 3 4 5 6 
#
# 1 0.052621 -0.026104 -0.008104 0.000000 0.000000 0.000000
# 2 -0.026104 0.037093 -0.009591 0.000000 0.000000 0.000000
# 3 -0.008104 -0.009591 0.020943 0.000000 0.000000 0.000000
# 4 0.000000 0.000000 0.000000 0.061768 0.000000 0.000000
# 5 0.000000 0.000000 0.000000 0.000000 0.085569 0.000000
# 6 0.000000 0.000000 0.000000 0.000000 0.000000 0.073025
#
#
# Mechanical properties :
#
#
# Convention : Reuss Voigt Hill
#
# Bulk Modulus (GPa) = 43.36672 49.28829 46.32751
# Shear Modulus (GPa) = 11.72877 13.11586 12.42232
#
# Velocity S-wave (km/s) = 3.22135 3.40651 3.31522
# Velocity P-wave (km/s) = 7.22531 7.68638 7.45941
#
# Compressibility (1/GPa) = 0.02305916
#
# Stress axis : x y z
#
# Youngs Moduli (GPa) = 19.00392 26.95956 47.74886
#
# Poissons Ratio (x) = 0.70375 0.38694
# Poissons Ratio (y) = 0.49608 0.45796
# Poissons Ratio (z) = 0.15400 0.25857
#
# Static dielectric constant tensor:
#      x y z
#    x 2.141870 0.000000 0.000000 
#    y 0.000000 2.310950 0.000000 
#    z 0.000000 0.000000 2.535020 
# 
# 
# High freq. dielectric constant tensor:
#      x y z
#    x 1.380430 0.000000 0.000000 
#    y 0.000000 1.405860 0.000000 
#    z 0.000000 0.000000 1.442680 
# 
# From -- ./inp_files/19073.got.cif
#   From: 2010.03.12/outbox.cif.g09.slc.cpg/sg65_10_cif.got.tgz:19073.got - 2010.04.10 20:52:16.
