data_PCOD8275612
_publ_section_title
;
Structure prediction by ZEFSAII (Michael W. Deem and Ramdas Pophale) SiO2 
 PCOD8275612
Probable space group: C C C M
;
_chemical_formula_sum "Si O2"
_cell_formula_units_Z 112
_cell_length_a 27.158907
_cell_length_b 11.791206
_cell_length_c 17.098905
_cell_angle_alpha 90.000000
_cell_angle_beta 90.000000
_cell_angle_gamma 90.000000
_cell_volume 5475.689510
_symmetry_space_group_name_H-M "C C C M"
_symmetry_group_IT_number 66
_symmetry_cell_setting 'orthorhombic'
loop_
_space_group_symop_operation_xyz
x,y,z
-x,-y,z
x,-y,1/2-z
-x,y,1/2-z
-x,-y,-z
x,y,-z
-x,y,1/2+z
x,-y,1/2+z
1/2+x,1/2+y,z
1/2-x,1/2-y,z
1/2+x,1/2-y,1/2-z
1/2-x,1/2+y,1/2-z
1/2-x,1/2-y,-z
1/2+x,1/2+y,-z
1/2-x,1/2+y,1/2+z
1/2+x,1/2-y,1/2+z
loop_
_atom_site_type_symbol
_atom_site_label
_atom_site_fract_x
_atom_site_fract_y
_atom_site_fract_z
Si Si1 0.568627 0.969645 0.661010
Si Si2 0.236032 0.128873 0.408513
Si Si3 0.043019 0.921090 0.406888
Si Si4 0.678471 0.990920 0.838488
Si Si5 0.349888 0.474854 0.906802
Si Si6 0.513082 0.172769 0.591529
Si Si7 0.692040 0.759127 0.911384
O O1 0.626502 0.944281 0.650265
O O2 0.537968 0.858040 0.635916
O O3 0.555821 0.000000 0.750000
O O4 0.553281 0.075438 0.606672
O O5 0.228799 0.146209 0.500000
O O6 0.250000 0.250000 0.368943
O O7 0.280900 0.042916 0.395574
O O8 0.184702 0.077257 0.373712
O O9 0.043423 0.920194 0.500000
O O10 0.093837 0.978900 0.376785
O O11 0.034589 0.792436 0.376897
O O12 0.000000 0.000000 0.373133
O O13 0.697407 0.000000 0.750000
O O14 0.670935 0.859604 0.858652
O O15 0.328875 0.356303 0.875369
O O16 0.346506 0.476894 0.000000
O O17 0.501245 0.180577 0.500000
O O18 0.750000 0.750000 0.907802
O O19 0.673451 0.778395 0.000000
#
# Coordination Sequence:
#
# PCOD8275612 Si02
#       7
#    16  16  16  16  16  16  16
#     4  10  21  36  54  78 112 151 181 222 285 342
#     4  10  21  37  56  79 111 149 186 229 286 347
#     4   9  18  31  50  80 114 141 173 222 278 331
#     4  11  23  36  53  81 114 147 185 228 279 340
#     4   9  17  32  54  81 109 139 178 227 278 326
#     4  10  19  33  56  84 108 139 185 238 280 322
#     4  10  18  32  58  83 104 137 184 235 278 321
#
# _framework density 20.454045000000001
#
# number of rings (size 3 to 8) (size 9 to 14) (size 15 to 20)
#    0.000    2.143    1.429    3.000    0.000    5.143 
#    0.000    2.857    0.000    1.714    0.000    0.000 
#    0.000    0.000    0.000    0.000    0.000    0.000 
#
# Total GULP energy -694263.489887 kJ/mol
# GULP energy per Si atom -12397.562319 kJ/mol
# Density = 2.040749 g / cm^3
# Si number density = 20.454045 Si / 1000 Ang^3
#
#
#
# Elastic Constant Matrix: (Units=GPa)
#
#
# Indices 1 2 3 4 5 6 
#
# 1 153.6672 71.2803 14.1726 0.0000 0.0000 0.0000
# 2 71.2803 138.5330 16.2138 0.0000 0.0000 0.0000
# 3 14.1726 16.2138 42.5526 0.0000 0.0000 0.0000
# 4 0.0000 0.0000 0.0000 -3.7094 0.0000 0.0000
# 5 0.0000 0.0000 0.0000 0.0000 -28.5730 0.0000
# 6 0.0000 0.0000 0.0000 0.0000 0.0000 34.2608
#
#
#
# Elastic Compliance Matrix: (Units=1/GPa)
#
#
# Indices 1 2 3 4 5 6 
#
# 1 0.008609 -0.004285 -0.001235 0.000000 0.000000 0.000000
# 2 -0.004285 0.009688 -0.002264 0.000000 0.000000 0.000000
# 3 -0.001235 -0.002264 0.024774 0.000000 0.000000 0.000000
# 4 0.000000 0.000000 0.000000 -0.269588 0.000000 0.000000
# 5 0.000000 0.000000 0.000000 0.000000 -0.034998 0.000000
# 6 0.000000 0.000000 0.000000 0.000000 0.000000 0.029188
#
#
# Mechanical properties :
#
#
# Convention : Reuss Voigt Hill
#
# Bulk Modulus (GPa) = 36.35885 59.78735 48.07310
# Shear Modulus (GPa) = -24.08596 15.93476 -4.07560
#
# Velocity S-wave (km/s) = -3.43529 2.79418 -1.41311
# Velocity P-wave (km/s) = 1.44205 6.30107 4.57072
#
# Compressibility (1/GPa) = 0.02750362
#
# Stress axis : x y z
#
# Youngs Moduli (GPa) = 116.15478 103.21583 40.36440
#
# Poissons Ratio (x) = 0.44231 0.04983
# Poissons Ratio (y) = 0.49775 0.09140
# Poissons Ratio (z) = 0.14340 0.23371
#
# Static dielectric constant tensor:
#      x y z
#    x 3.974740 0.000000 0.000000 
#    y 0.000000 3.875280 0.000000 
#    z 0.000000 0.000000 3.298790 
# 
# 
# High freq. dielectric constant tensor:
#      x y z
#    x 1.810880 0.000000 0.000000 
#    y 0.000000 1.797810 0.000000 
#    z 0.000000 0.000000 1.758010 
# 
# From -- ./inp_files/33839.got.cif
#   From: 2010.03.12/outbox.cif.g09.slc.cpg/sg66_17_cif.got.tgz:33839.got - 2010.04.10 21:57:39.
