data_PCOD8275772
_publ_section_title
;
Structure prediction by ZEFSAII (Michael W. Deem and Ramdas Pophale) SiO2 
 PCOD8275772
Probable space group: C C C M
;
_chemical_formula_sum "Si O2"
_cell_formula_units_Z 96
_cell_length_a 25.456188
_cell_length_b 23.770495
_cell_length_c 8.624158
_cell_angle_alpha 90.000000
_cell_angle_beta 90.000000
_cell_angle_gamma 90.000000
_cell_volume 5218.531386
_symmetry_space_group_name_H-M "C C C M"
_symmetry_group_IT_number 66
_symmetry_cell_setting 'orthorhombic'
loop_
_space_group_symop_operation_xyz
x,y,z
-x,-y,z
x,-y,1/2-z
-x,y,1/2-z
-x,-y,-z
x,y,-z
-x,y,1/2+z
x,-y,1/2+z
1/2+x,1/2+y,z
1/2-x,1/2-y,z
1/2+x,1/2-y,1/2-z
1/2-x,1/2+y,1/2-z
1/2-x,1/2-y,-z
1/2+x,1/2+y,-z
1/2-x,1/2+y,1/2+z
1/2+x,1/2-y,1/2+z
loop_
_atom_site_type_symbol
_atom_site_label
_atom_site_fract_x
_atom_site_fract_y
_atom_site_fract_z
Si Si1 0.944381 0.939160 0.684182
Si Si2 0.943129 0.440631 0.683022
Si Si3 0.748479 0.061554 0.183223
Si Si4 0.690606 0.249054 0.815603
Si Si5 0.653604 0.367933 0.184197
Si Si6 0.147243 0.630748 0.816493
O O1 0.947317 0.943301 0.500000
O O2 0.901153 0.894362 0.742082
O O3 0.000000 0.918425 0.750000
O O4 0.928962 0.000000 0.750000
O O5 0.922211 0.500000 0.750000
O O6 0.946849 0.445960 0.500000
O O7 0.904557 0.390423 0.730181
O O8 0.000000 0.425885 0.750000
O O9 0.798180 0.095530 0.250824
O O10 0.695664 0.092284 0.236895
O O11 0.749152 0.000000 0.250000
O O12 0.751702 0.058718 0.000000
O O13 0.750000 0.250000 0.748661
O O14 0.659230 0.303951 0.755056
O O15 0.659192 0.194091 0.759113
O O16 0.694197 0.248498 0.000000
O O17 0.656006 0.368661 0.000000
O O18 0.138237 0.627879 0.000000
#
# Coordination Sequence:
#
# PCOD8275772 Si02
#       6
#    16  16  16  16  16  16
#     4  10  19  32  51  73 101 133 170 213 261 311
#     4  11  22  38  59  81 109 141 178 220 267 319
#     4  10  19  30  47  74 105 134 168 212 263 314
#     4   9  15  29  53  78 104 139 181 220 255 303
#     4   9  17  30  49  75 102 132 174 220 258 303
#     4  10  19  32  54  81 108 139 177 218 263 314
#
# _framework density 18.395980999999999
#
# number of rings (size 3 to 8) (size 9 to 14) (size 15 to 20)
#    0.000    2.167    1.667    4.000    0.000    2.000 
#    0.000    1.667    0.000    5.500    0.000    0.000 
#    0.000    0.000    0.000    0.000    0.000    0.000 
#
# Total GULP energy -595200.465960 kJ/mol
# GULP energy per Si atom -12400.009707 kJ/mol
# Density = 1.835411 g / cm^3
# Si number density = 18.395981 Si / 1000 Ang^3
#
#
#
# Elastic Constant Matrix: (Units=GPa)
#
#
# Indices 1 2 3 4 5 6 
#
# 1 143.9486 97.0359 36.1828 0.0000 0.0000 0.0000
# 2 97.0359 177.5588 29.5103 0.0000 0.0000 0.0000
# 3 36.1828 29.5103 54.2560 0.0000 0.0000 0.0000
# 4 0.0000 0.0000 0.0000 19.5462 0.0000 0.0000
# 5 0.0000 0.0000 0.0000 0.0000 19.5033 0.0000
# 6 0.0000 0.0000 0.0000 0.0000 0.0000 33.4328
#
#
#
# Elastic Compliance Matrix: (Units=1/GPa)
#
#
# Indices 1 2 3 4 5 6 
#
# 1 0.012082 -0.005787 -0.004910 0.000000 0.000000 0.000000
# 2 -0.005787 0.008963 -0.001016 0.000000 0.000000 0.000000
# 3 -0.004910 -0.001016 0.022258 0.000000 0.000000 0.000000
# 4 0.000000 0.000000 0.000000 0.051161 0.000000 0.000000
# 5 0.000000 0.000000 0.000000 0.000000 0.051273 0.000000
# 6 0.000000 0.000000 0.000000 0.000000 0.000000 0.029911
#
#
# Mechanical properties :
#
#
# Convention : Reuss Voigt Hill
#
# Bulk Modulus (GPa) = 50.30696 77.91349 64.11023
# Shear Modulus (GPa) = 24.30726 28.69873 26.50300
#
# Velocity S-wave (km/s) = 3.63896 3.95404 3.79977
# Velocity P-wave (km/s) = 6.71283 7.95559 7.36049
#
# Compressibility (1/GPa) = 0.01987797
#
# Stress axis : x y z
#
# Youngs Moduli (GPa) = 82.76834 111.56644 44.92741
#
# Poissons Ratio (x) = 0.64561 0.22059
# Poissons Ratio (y) = 0.47896 0.04565
# Poissons Ratio (z) = 0.40638 0.11336
#
# Static dielectric constant tensor:
#      x y z
#    x 3.538920 0.000000 0.000000 
#    y 0.000000 3.548980 0.000000 
#    z 0.000000 0.000000 3.049980 
# 
# 
# High freq. dielectric constant tensor:
#      x y z
#    x 1.718590 0.000000 0.000000 
#    y 0.000000 1.718030 0.000000 
#    z 0.000000 0.000000 1.682250 
# 
# From -- ./inp_files/10488.got.cif
#   From: 2010.03.12/outbox.cif.g09.slc.cpg/sg66_6_cif.got.tgz:10488.got - 2010.04.10 21:57:39.
