data_PCOD8275563
_publ_section_title
;
Structure prediction by ZEFSAII (Michael W. Deem and Ramdas Pophale) SiO2 
 PCOD8275563
Probable space group: C C C M
;
_chemical_formula_sum "Si O2"
_cell_formula_units_Z 68
_cell_length_a 14.844762
_cell_length_b 9.820838
_cell_length_c 26.912274
_cell_angle_alpha 90.000000
_cell_angle_beta 90.000000
_cell_angle_gamma 90.000000
_cell_volume 3923.486676
_symmetry_space_group_name_H-M "C C C M"
_symmetry_group_IT_number 66
_symmetry_cell_setting 'orthorhombic'
loop_
_space_group_symop_operation_xyz
x,y,z
-x,-y,z
x,-y,1/2-z
-x,y,1/2-z
-x,-y,-z
x,y,-z
-x,y,1/2+z
x,-y,1/2+z
1/2+x,1/2+y,z
1/2-x,1/2-y,z
1/2+x,1/2-y,1/2-z
1/2-x,1/2+y,1/2-z
1/2-x,1/2-y,-z
1/2+x,1/2+y,-z
1/2-x,1/2+y,1/2+z
1/2+x,1/2-y,1/2+z
loop_
_atom_site_type_symbol
_atom_site_label
_atom_site_fract_x
_atom_site_fract_y
_atom_site_fract_z
Si Si1 0.741692 0.593893 0.089380
Si Si2 0.143248 0.022944 0.500000
Si Si3 0.500000 0.500000 0.250000
Si Si4 0.072409 0.894372 0.345031
Si Si5 0.510062 0.269334 0.500000
Si Si6 0.058895 0.622804 0.398652
O O1 0.750000 0.750000 0.069627
O O2 0.706917 0.489660 0.047837
O O3 0.674024 0.579217 0.136185
O O4 0.842263 0.555152 0.104026
O O5 0.091541 0.168403 0.500000
O O6 0.076098 0.896455 0.500000
O O7 0.565477 0.408697 0.285090
O O8 0.044516 0.742948 0.359536
O O9 0.000000 0.000000 0.370128
O O10 0.529193 0.174874 0.452825
O O11 0.000000 0.500000 0.379589
#
# Coordination Sequence:
#
# PCOD8275563 Si02
#       6
#    16   8   4  16   8  16
#     4  10  18  31  56  81 111 146 189 216 269 331
#     4  11  18  30  54  86 104 153 204 226 235 324
#     4   8  20  36  70  78 102 120 202 244 268 322
#     4   9  18  37  61  79  99 142 181 231 271 326
#     4  11  20  31  52  83 116 160 184 226 257 316
#     4  11  22  35  54  83 123 148 177 222 284 331
#
# _framework density 17.331522
#
# number of rings (size 3 to 8) (size 9 to 14) (size 15 to 20)
#    0.706    1.176    4.706    2.824    0.000    0.000 
#    0.000    6.471   15.529    0.000    0.000    0.000 
#    0.000    0.000    0.000    0.000    0.000    0.000 
#
# Total GULP energy -421302.895097 kJ/mol
# GULP energy per Si atom -12391.261621 kJ/mol
# Density = 1.729207 g / cm^3
# Si number density = 17.331522 Si / 1000 Ang^3
#
#
#
# Elastic Constant Matrix: (Units=GPa)
#
#
# Indices 1 2 3 4 5 6 
#
# 1 146.1580 71.5494 49.8440 0.0000 0.0000 0.0000
# 2 71.5494 80.4178 47.5216 0.0000 0.0000 0.0000
# 3 49.8440 47.5216 127.6171 0.0000 0.0000 0.0000
# 4 0.0000 0.0000 0.0000 53.9343 0.0000 0.0000
# 5 0.0000 0.0000 0.0000 0.0000 12.5253 0.0000
# 6 0.0000 0.0000 0.0000 0.0000 0.0000 33.5722
#
#
#
# Elastic Compliance Matrix: (Units=1/GPa)
#
#
# Indices 1 2 3 4 5 6 
#
# 1 0.012206 -0.010312 -0.000927 0.000000 0.000000 0.000000
# 2 -0.010312 0.024655 -0.005153 0.000000 0.000000 0.000000
# 3 -0.000927 -0.005153 0.010117 0.000000 0.000000 0.000000
# 4 0.000000 0.000000 0.000000 0.018541 0.000000 0.000000
# 5 0.000000 0.000000 0.000000 0.000000 0.079839 0.000000
# 6 0.000000 0.000000 0.000000 0.000000 0.000000 0.029787
#
#
# Mechanical properties :
#
#
# Convention : Reuss Voigt Hill
#
# Bulk Modulus (GPa) = 70.45829 76.89142 73.67486
# Shear Modulus (GPa) = 23.51146 32.35821 27.93483
#
# Velocity S-wave (km/s) = 3.68716 4.32558 4.01907
# Velocity P-wave (km/s) = 7.67258 8.33120 8.00866
#
# Compressibility (1/GPa) = 0.01419279
#
# Stress axis : x y z
#
# Youngs Moduli (GPa) = 81.92419 40.55909 98.84169
#
# Poissons Ratio (x) = 0.41825 0.09167
# Poissons Ratio (y) = 0.84482 0.50937
# Poissons Ratio (z) = 0.07598 0.20902
#
# Static dielectric constant tensor:
#      x y z
#    x 3.597420 0.000000 0.000000 
#    y 0.000000 3.138350 0.000000 
#    z 0.000000 0.000000 3.068750 
# 
# 
# High freq. dielectric constant tensor:
#      x y z
#    x 1.677750 0.000000 0.000000 
#    y 0.000000 1.655200 0.000000 
#    z 0.000000 0.000000 1.643020 
# 
# From -- ./inp_files/65005.got.cif
#   From: 2010.03.12/outbox.cif.g09.slc.cpg/sg66_33_cif.got.tgz:65005.got - 2010.04.10 21:57:39.
