data_PCOD8275024
_publ_section_title
;
Structure prediction by ZEFSAII (Michael W. Deem and Ramdas Pophale) SiO2 
 PCOD8275024
Probable space group: C M M M
;
_chemical_formula_sum "Si O2"
_cell_formula_units_Z 72
_cell_length_a 23.366976
_cell_length_b 22.415402
_cell_length_c 9.914864
_cell_angle_alpha 90.000000
_cell_angle_beta 90.000000
_cell_angle_gamma 90.000000
_cell_volume 5193.209058
_symmetry_space_group_name_H-M "C M M M"
_symmetry_group_IT_number 65
_symmetry_cell_setting 'orthorhombic'
loop_
_space_group_symop_operation_xyz
x,y,z
-x,-y,z
x,-y,-z
-x,y,-z
-x,-y,-z
x,y,-z
-x,y,z
x,-y,z
1/2+x,1/2+y,z
1/2-x,1/2-y,z
1/2+x,1/2-y,-z
1/2-x,1/2+y,-z
1/2-x,1/2-y,-z
1/2+x,1/2+y,-z
1/2-x,1/2+y,z
1/2+x,1/2-y,z
loop_
_atom_site_type_symbol
_atom_site_label
_atom_site_fract_x
_atom_site_fract_y
_atom_site_fract_z
Si Si1 0.778218 0.157658 0.349007
Si Si2 0.228948 0.431268 0.154912
Si Si3 0.500000 0.933348 0.160005
Si Si4 0.111712 0.636196 0.843647
Si Si5 0.840365 0.726927 0.651316
O O1 0.788062 0.132585 0.500000
O O2 0.776308 0.103008 0.244235
O O3 0.829241 0.203659 0.310380
O O4 0.719159 0.192708 0.342302
O O5 0.229476 0.500000 0.197461
O O6 0.165438 0.406840 0.181456
O O7 0.246563 0.422342 0.000000
O O8 0.556176 0.898639 0.209764
O O9 0.500000 0.000000 0.222162
O O10 0.500000 0.937941 0.000000
O O11 0.116385 0.697275 0.758073
O O12 0.106229 0.654240 0.000000
O O13 0.865972 0.722424 0.500000
#
# Coordination Sequence:
#
# PCOD8275024 Si02
#       5
#    16  16   8  16  16
#     4   8  14  24  37  51  67  90 117 143 176 219
#     4   9  16  24  34  51  74  96 119 149 181 210
#     4   9  16  26  39  53  71  97 128 159 186 211
#     4   9  16  25  38  53  68  92 126 157 183 212
#     4   8  14  25  38  51  68  88 113 148 186 218
#
# _framework density 13.86426
#
# number of rings (size 3 to 8) (size 9 to 14) (size 15 to 20)
#    0.000    3.444    0.000    2.000    0.000    4.000 
#    0.000    5.000    0.000    2.667    0.000    0.000 
#    0.000    0.000    0.000    1.000    0.000   19.556 
#
# Total GULP energy -446182.037956 kJ/mol
# GULP energy per Si atom -12393.945499 kJ/mol
# Density = 1.383270 g / cm^3
# Si number density = 13.864260 Si / 1000 Ang^3
#
#
#
# Elastic Constant Matrix: (Units=GPa)
#
#
# Indices 1 2 3 4 5 6 
#
# 1 44.6076 45.5830 34.6893 0.0000 0.0000 0.0000
# 2 45.5830 102.2778 65.7817 0.0000 0.0000 0.0000
# 3 34.6893 65.7817 74.6085 0.0000 0.0000 0.0000
# 4 0.0000 0.0000 0.0000 23.5384 0.0000 0.0000
# 5 0.0000 0.0000 0.0000 0.0000 11.5484 0.0000
# 6 0.0000 0.0000 0.0000 0.0000 0.0000 22.2533
#
#
#
# Elastic Compliance Matrix: (Units=1/GPa)
#
#
# Indices 1 2 3 4 5 6 
#
# 1 0.042737 -0.014476 -0.007108 0.000000 0.000000 0.000000
# 2 -0.014476 0.027487 -0.017505 0.000000 0.000000 0.000000
# 3 -0.007108 -0.017505 0.032142 0.000000 0.000000 0.000000
# 4 0.000000 0.000000 0.000000 0.042484 0.000000 0.000000
# 5 0.000000 0.000000 0.000000 0.000000 0.086592 0.000000
# 6 0.000000 0.000000 0.000000 0.000000 0.000000 0.044937
#
#
# Mechanical properties :
#
#
# Convention : Reuss Voigt Hill
#
# Bulk Modulus (GPa) = 41.33921 57.06688 49.20305
# Shear Modulus (GPa) = 13.78858 16.49736 15.14297
#
# Velocity S-wave (km/s) = 3.15706 3.45326 3.30848
# Velocity P-wave (km/s) = 6.57048 7.55980 7.08243
#
# Compressibility (1/GPa) = 0.02419011
#
# Stress axis : x y z
#
# Youngs Moduli (GPa) = 23.39883 36.38032 31.11201
#
# Poissons Ratio (x) = 0.52663 0.22113
# Poissons Ratio (y) = 0.33871 0.54461
# Poissons Ratio (z) = 0.16631 0.63684
#
# Static dielectric constant tensor:
#      x y z
#    x 2.484220 0.000000 0.000000 
#    y 0.000000 2.889690 0.000000 
#    z 0.000000 0.000000 2.811370 
# 
# 
# High freq. dielectric constant tensor:
#      x y z
#    x 1.479370 0.000000 0.000000 
#    y 0.000000 1.522290 0.000000 
#    z 0.000000 0.000000 1.525960 
# 
# From -- ./inp_files/11474.got.cif
#   From: 2010.03.12/outbox.cif.g09.slc.cpg/sg65_6_cif.got.tgz:11474.got - 2010.04.10 20:52:16.
