data_PCOD8275645
_publ_section_title
;
Structure prediction by ZEFSAII (Michael W. Deem and Ramdas Pophale) SiO2 
 PCOD8275645
Probable space group: C C C M
;
_chemical_formula_sum "Si O2"
_cell_formula_units_Z 96
_cell_length_a 25.447779
_cell_length_b 11.381201
_cell_length_c 18.327139
_cell_angle_alpha 90.000000
_cell_angle_beta 90.000000
_cell_angle_gamma 90.000000
_cell_volume 5308.021235
_symmetry_space_group_name_H-M "C C C M"
_symmetry_group_IT_number 66
_symmetry_cell_setting 'orthorhombic'
loop_
_space_group_symop_operation_xyz
x,y,z
-x,-y,z
x,-y,1/2-z
-x,y,1/2-z
-x,-y,-z
x,y,-z
-x,y,1/2+z
x,-y,1/2+z
1/2+x,1/2+y,z
1/2-x,1/2-y,z
1/2+x,1/2-y,1/2-z
1/2-x,1/2+y,1/2-z
1/2-x,1/2-y,-z
1/2+x,1/2+y,-z
1/2-x,1/2+y,1/2+z
1/2+x,1/2-y,1/2+z
loop_
_atom_site_type_symbol
_atom_site_label
_atom_site_fract_x
_atom_site_fract_y
_atom_site_fract_z
Si Si1 0.058764 0.547735 0.325850
Si Si2 0.195014 0.794219 0.913738
Si Si3 0.626571 0.492457 0.584549
Si Si4 0.454374 0.653597 0.847491
Si Si5 0.430014 0.324404 0.184039
Si Si6 0.597559 0.856885 0.585358
O O1 0.081788 0.500000 0.250000
O O2 0.065732 0.686450 0.329227
O O3 0.094615 0.492503 0.390097
O O4 0.000000 0.500000 0.335736
O O5 0.250000 0.750000 0.878314
O O6 0.151781 0.700964 0.887250
O O7 0.177474 0.928039 0.892117
O O8 0.199522 0.790270 0.000000
O O9 0.630803 0.452015 0.500000
O O10 0.574957 0.573046 0.593518
O O11 0.618730 0.379556 0.637850
O O12 0.515354 0.617612 0.843127
O O13 0.424770 0.643234 0.769166
O O14 0.450336 0.788048 0.875141
O O15 0.590434 0.847245 0.500000
#
# Coordination Sequence:
#
# PCOD8275645 Si02
#       6
#    16  16  16  16  16  16
#     4  11  19  35  50  71 106 149 186 206 244 318
#     4   8  16  34  57  75  96 129 172 220 261 313
#     4  10  21  32  48  79 106 128 172 224 269 306
#     4  10  18  34  48  71 101 146 182 203 245 321
#     4  11  20  31  51  71 107 149 176 205 256 317
#     4  10  19  31  52  79  98 127 182 226 255 296
#
# _framework density 18.085836
#
# number of rings (size 3 to 8) (size 9 to 14) (size 15 to 20)
#    0.000    2.000    3.333    3.500    0.000    4.333 
#    0.000    0.000    0.000    5.000    0.000    4.667 
#    0.000    0.000    0.000    0.000    0.000    0.000 
#
# Total GULP energy -594783.032087 kJ/mol
# GULP energy per Si atom -12391.313168 kJ/mol
# Density = 1.804467 g / cm^3
# Si number density = 18.085836 Si / 1000 Ang^3
#
#
#
# Elastic Constant Matrix: (Units=GPa)
#
#
# Indices 1 2 3 4 5 6 
#
# 1 66.9529 27.1244 30.6378 0.0000 0.0000 0.0000
# 2 27.1244 98.4545 23.5968 0.0000 0.0000 0.0000
# 3 30.6378 23.5968 73.0670 0.0000 0.0000 0.0000
# 4 0.0000 0.0000 0.0000 32.5026 0.0000 0.0000
# 5 0.0000 0.0000 0.0000 0.0000 12.6319 0.0000
# 6 0.0000 0.0000 0.0000 0.0000 0.0000 24.8813
#
#
#
# Elastic Compliance Matrix: (Units=1/GPa)
#
#
# Indices 1 2 3 4 5 6 
#
# 1 0.019670 -0.003731 -0.007043 0.000000 0.000000 0.000000
# 2 -0.003731 0.011717 -0.002219 0.000000 0.000000 0.000000
# 3 -0.007043 -0.002219 0.017356 0.000000 0.000000 0.000000
# 4 0.000000 0.000000 0.000000 0.030767 0.000000 0.000000
# 5 0.000000 0.000000 0.000000 0.000000 0.079165 0.000000
# 6 0.000000 0.000000 0.000000 0.000000 0.000000 0.040191
#
#
# Mechanical properties :
#
#
# Convention : Reuss Voigt Hill
#
# Bulk Modulus (GPa) = 43.94440 44.57692 44.26066
# Shear Modulus (GPa) = 21.51112 24.47753 22.99432
#
# Velocity S-wave (km/s) = 3.45250 3.68286 3.56954
# Velocity P-wave (km/s) = 6.34377 6.54107 6.44317
#
# Compressibility (1/GPa) = 0.02275603
#
# Stress axis : x y z
#
# Youngs Moduli (GPa) = 50.83779 85.34711 57.61685
#
# Poissons Ratio (x) = 0.31845 0.40580
# Poissons Ratio (y) = 0.18969 0.12787
# Poissons Ratio (z) = 0.35805 0.18942
#
# Static dielectric constant tensor:
#      x y z
#    x 3.344670 0.000000 0.000000 
#    y 0.000000 3.502900 0.000000 
#    z 0.000000 0.000000 3.290240 
# 
# 
# High freq. dielectric constant tensor:
#      x y z
#    x 1.657250 0.000000 0.000000 
#    y 0.000000 1.707020 0.000000 
#    z 0.000000 0.000000 1.692230 
# 
# From -- ./inp_files/39032.got.cif
#   From: 2010.03.12/outbox.cif.g09.slc.cpg/sg66_20_cif.got.tgz:39032.got - 2010.04.10 21:57:39.
