data_PCOD8275386
_publ_section_title
;
Structure prediction by ZEFSAII (Michael W. Deem and Ramdas Pophale) SiO2 
 PCOD8275386
Probable space group: C C C M
;
_chemical_formula_sum "Si O2"
_cell_formula_units_Z 112
_cell_length_a 15.383943
_cell_length_b 17.405716
_cell_length_c 23.452033
_cell_angle_alpha 90.000000
_cell_angle_beta 90.000000
_cell_angle_gamma 90.000000
_cell_volume 6279.716703
_symmetry_space_group_name_H-M "C C C M"
_symmetry_group_IT_number 66
_symmetry_cell_setting 'orthorhombic'
loop_
_space_group_symop_operation_xyz
x,y,z
-x,-y,z
x,-y,1/2-z
-x,y,1/2-z
-x,-y,-z
x,y,-z
-x,y,1/2+z
x,-y,1/2+z
1/2+x,1/2+y,z
1/2-x,1/2-y,z
1/2+x,1/2-y,1/2-z
1/2-x,1/2+y,1/2-z
1/2-x,1/2-y,-z
1/2+x,1/2+y,-z
1/2-x,1/2+y,1/2+z
1/2+x,1/2-y,1/2+z
loop_
_atom_site_type_symbol
_atom_site_label
_atom_site_fract_x
_atom_site_fract_y
_atom_site_fract_z
Si Si1 0.342157 0.288773 0.165671
Si Si2 0.094966 0.332363 0.250890
Si Si3 0.567384 0.560405 0.563971
Si Si4 0.121210 0.709086 0.121678
Si Si5 0.711355 0.633781 0.626398
Si Si6 0.270869 0.589723 0.746625
Si Si7 0.530611 0.720038 0.064201
O O1 0.250000 0.250000 0.156325
O O2 0.402946 0.236198 0.205051
O O3 0.327548 0.371706 0.195976
O O4 0.386508 0.295948 0.104018
O O5 0.107019 0.292043 0.311221
O O6 0.167919 0.395942 0.236504
O O7 0.000000 0.372483 0.250000
O O8 0.500000 0.500000 0.592527
O O9 0.588746 0.532588 0.500000
O O10 0.659368 0.562690 0.597817
O O11 0.525324 0.643506 0.564662
O O12 0.186471 0.637356 0.106547
O O13 0.169012 0.787545 0.105595
O O14 0.029784 0.708944 0.087187
O O15 0.702261 0.628834 0.694311
O O16 0.290742 0.500000 0.750000
O O17 0.562006 0.739948 0.000000
#
# Coordination Sequence:
#
# PCOD8275386 Si02
#       7
#    16  16  16  16  16  16  16
#     4  10  20  34  53  75 103 135 166 207 260 309
#     4  10  17  32  55  73  98 132 167 208 263 310
#     4   9  19  33  47  68 101 139 170 199 246 309
#     4   9  16  30  50  74  97 125 167 211 256 301
#     4   9  17  30  50  71 100 131 162 210 257 300
#     4  10  21  32  48  77 105 132 168 210 253 310
#     4  10  20  32  50  74  99 130 173 215 247 296
#
# _framework density 17.835198999999999
#
# number of rings (size 3 to 8) (size 9 to 14) (size 15 to 20)
#    0.000    2.429    2.857    0.000    2.000    1.143 
#    0.000    2.857    0.000    0.000    0.000    0.000 
#    0.000    5.714    0.000    0.000    0.000    0.000 
#
# Total GULP energy -693875.870526 kJ/mol
# GULP energy per Si atom -12390.640545 kJ/mol
# Density = 1.779461 g / cm^3
# Si number density = 17.835199 Si / 1000 Ang^3
#
#
#
# Elastic Constant Matrix: (Units=GPa)
#
#
# Indices 1 2 3 4 5 6 
#
# 1 107.4689 31.0878 52.7685 0.0000 0.0000 0.0000
# 2 31.0878 60.4269 27.5810 0.0000 0.0000 0.0000
# 3 52.7685 27.5810 105.3135 0.0000 0.0000 0.0000
# 4 0.0000 0.0000 0.0000 15.2490 0.0000 0.0000
# 5 0.0000 0.0000 0.0000 0.0000 25.5370 0.0000
# 6 0.0000 0.0000 0.0000 0.0000 0.0000 23.1791
#
#
#
# Elastic Compliance Matrix: (Units=1/GPa)
#
#
# Indices 1 2 3 4 5 6 
#
# 1 0.013258 -0.004303 -0.005516 0.000000 0.000000 0.000000
# 2 -0.004303 0.020192 -0.003132 0.000000 0.000000 0.000000
# 3 -0.005516 -0.003132 0.013080 0.000000 0.000000 0.000000
# 4 0.000000 0.000000 0.000000 0.065578 0.000000 0.000000
# 5 0.000000 0.000000 0.000000 0.000000 0.039159 0.000000
# 6 0.000000 0.000000 0.000000 0.000000 0.000000 0.043142
#
#
# Mechanical properties :
#
#
# Convention : Reuss Voigt Hill
#
# Bulk Modulus (GPa) = 48.47937 55.12044 51.79990
# Shear Modulus (GPa) = 22.00814 23.57782 22.79298
#
# Velocity S-wave (km/s) = 3.51661 3.63985 3.57876
# Velocity P-wave (km/s) = 6.61283 6.97404 6.79584
#
# Compressibility (1/GPa) = 0.02062733
#
# Stress axis : x y z
#
# Youngs Moduli (GPa) = 75.42397 49.52360 76.45419
#
# Poissons Ratio (x) = 0.21311 0.42174
# Poissons Ratio (y) = 0.32457 0.23946
# Poissons Ratio (z) = 0.41606 0.15511
#
# Static dielectric constant tensor:
#      x y z
#    x 3.564910 0.000000 0.000000 
#    y 0.000000 3.032530 0.000000 
#    z 0.000000 0.000000 3.359590 
# 
# 
# High freq. dielectric constant tensor:
#      x y z
#    x 1.694090 0.000000 0.000000 
#    y 0.000000 1.651400 0.000000 
#    z 0.000000 0.000000 1.682230 
# 
# From -- ./inp_files/51190.got.cif
#   From: 2010.03.12/outbox.cif.g09.slc.cpg/sg66_26_cif.got.tgz:51190.got - 2010.04.10 21:57:39.
