data_PCOD8275003
_publ_section_title
;
Structure prediction by ZEFSAII (Michael W. Deem and Ramdas Pophale) SiO2 
 PCOD8275003
Probable space group: C M M M
;
_chemical_formula_sum "Si O2"
_cell_formula_units_Z 96
_cell_length_a 27.556165
_cell_length_b 9.566160
_cell_length_c 23.650489
_cell_angle_alpha 90.000000
_cell_angle_beta 90.000000
_cell_angle_gamma 90.000000
_cell_volume 6234.426966
_symmetry_space_group_name_H-M "C M M M"
_symmetry_group_IT_number 65
_symmetry_cell_setting 'orthorhombic'
loop_
_space_group_symop_operation_xyz
x,y,z
-x,-y,z
x,-y,-z
-x,y,-z
-x,-y,-z
x,y,-z
-x,y,z
x,-y,z
1/2+x,1/2+y,z
1/2-x,1/2-y,z
1/2+x,1/2-y,-z
1/2-x,1/2+y,-z
1/2-x,1/2-y,-z
1/2+x,1/2+y,-z
1/2-x,1/2+y,z
1/2+x,1/2-y,z
loop_
_atom_site_type_symbol
_atom_site_label
_atom_site_fract_x
_atom_site_fract_y
_atom_site_fract_z
Si Si1 0.297929 0.662385 0.063304
Si Si2 0.394003 0.661531 0.343619
Si Si3 0.354088 0.665529 0.171000
Si Si4 0.555187 0.838034 0.565291
Si Si5 0.796785 0.162288 0.279354
Si Si6 0.053358 0.166235 0.769108
O O1 0.284972 0.500000 0.072433
O O2 0.250000 0.750000 0.074403
O O3 0.338183 0.713469 0.108311
O O4 0.318216 0.688881 0.000000
O O5 0.403222 0.500000 0.357652
O O6 0.406422 0.750317 0.398729
O O7 0.338182 0.686593 0.326323
O O8 0.428984 0.711777 0.292906
O O9 0.356429 0.500000 0.176083
O O10 0.315894 0.717414 0.218309
O O11 0.408120 0.724428 0.184435
O O12 0.566937 0.809437 0.500000
O O13 0.500000 0.791646 0.578992
O O14 0.562068 0.000000 0.579958
O O15 0.750000 0.250000 0.297504
O O16 0.782325 0.000000 0.275997
O O17 0.000000 0.230177 0.781272
O O18 0.051484 0.000000 0.772141
#
# Coordination Sequence:
#
# PCOD8275003 Si02
#       6
#    16  16  16  16  16  16
#     4   9  16  25  38  56  78 104 133 165 200 237
#     4   9  17  28  43  64  85 105 135 172 203 235
#     4   8  14  24  37  55  80 107 133 163 200 240
#     4   9  18  31  45  63  88 114 136 160 196 242
#     4   9  17  28  42  61  84 108 135 168 205 245
#     4   8  13  22  38  59  81 105 132 162 198 239
#
# _framework density 15.398367
#
# number of rings (size 3 to 8) (size 9 to 14) (size 15 to 20)
#    0.000    3.333    0.000    3.500    0.000    2.000 
#    0.000    0.833    0.000    2.000    0.000    3.500 
#    0.000    0.000    0.000    4.167    0.000    4.333 
#
# Total GULP energy -594905.967366 kJ/mol
# GULP energy per Si atom -12393.874320 kJ/mol
# Density = 1.536332 g / cm^3
# Si number density = 15.398367 Si / 1000 Ang^3
#
#
#
# Elastic Constant Matrix: (Units=GPa)
#
#
# Indices 1 2 3 4 5 6 
#
# 1 118.0487 40.1216 63.3835 0.0000 0.0000 0.0000
# 2 40.1216 38.0216 40.1363 0.0000 0.0000 0.0000
# 3 63.3835 40.1363 103.1983 0.0000 0.0000 0.0000
# 4 0.0000 0.0000 0.0000 16.1018 0.0000 0.0000
# 5 0.0000 0.0000 0.0000 0.0000 24.1942 0.0000
# 6 0.0000 0.0000 0.0000 0.0000 0.0000 21.7881
#
#
#
# Elastic Compliance Matrix: (Units=1/GPa)
#
#
# Indices 1 2 3 4 5 6 
#
# 1 0.014611 -0.010086 -0.005052 0.000000 0.000000 0.000000
# 2 -0.010086 0.051582 -0.013867 0.000000 0.000000 0.000000
# 3 -0.005052 -0.013867 0.018186 0.000000 0.000000 0.000000
# 4 0.000000 0.000000 0.000000 0.062105 0.000000 0.000000
# 5 0.000000 0.000000 0.000000 0.000000 0.041332 0.000000
# 6 0.000000 0.000000 0.000000 0.000000 0.000000 0.045897
#
#
# Mechanical properties :
#
#
# Convention : Reuss Voigt Hill
#
# Bulk Modulus (GPa) = 37.92102 60.72795 49.32448
# Shear Modulus (GPa) = 16.63836 20.12530 18.38183
#
# Velocity S-wave (km/s) = 3.29070 3.61913 3.45882
# Velocity P-wave (km/s) = 6.25447 7.54902 6.93203
#
# Compressibility (1/GPa) = 0.02637060
#
# Stress axis : x y z
#
# Youngs Moduli (GPa) = 68.44040 19.38677 54.98808
#
# Poissons Ratio (x) = 0.19553 0.27777
# Poissons Ratio (y) = 0.69028 0.76250
# Poissons Ratio (z) = 0.34573 0.26883
#
# Static dielectric constant tensor:
#      x y z
#    x 3.121780 0.000000 0.000000 
#    y 0.000000 2.626540 0.000000 
#    z 0.000000 0.000000 2.968640 
# 
# 
# High freq. dielectric constant tensor:
#      x y z
#    x 1.584600 0.000000 0.000000 
#    y 0.000000 1.559400 0.000000 
#    z 0.000000 0.000000 1.583250 
# 
# From -- ./inp_files/61885.got.cif
#   From: 2010.03.12/outbox.cif.g09.slc.cpg/sg65_31_cif.got.tgz:61885.got - 2010.04.10 20:52:16.
