data_PCOD8275873
_publ_section_title
;
Structure prediction by ZEFSAII (Michael W. Deem and Ramdas Pophale) SiO2 
 PCOD8275873
Probable space group: C C C M
;
_chemical_formula_sum "Si O2"
_cell_formula_units_Z 64
_cell_length_a 27.910941
_cell_length_b 14.549640
_cell_length_c 8.672833
_cell_angle_alpha 90.000000
_cell_angle_beta 90.000000
_cell_angle_gamma 90.000000
_cell_volume 3521.986690
_symmetry_space_group_name_H-M "C C C M"
_symmetry_group_IT_number 66
_symmetry_cell_setting 'orthorhombic'
loop_
_space_group_symop_operation_xyz
x,y,z
-x,-y,z
x,-y,1/2-z
-x,y,1/2-z
-x,-y,-z
x,y,-z
-x,y,1/2+z
x,-y,1/2+z
1/2+x,1/2+y,z
1/2-x,1/2-y,z
1/2+x,1/2-y,1/2-z
1/2-x,1/2+y,1/2-z
1/2-x,1/2-y,-z
1/2+x,1/2+y,-z
1/2-x,1/2+y,1/2+z
1/2+x,1/2-y,1/2+z
loop_
_atom_site_type_symbol
_atom_site_label
_atom_site_fract_x
_atom_site_fract_y
_atom_site_fract_z
Si Si1 0.449251 0.901859 0.182463
Si Si2 0.136618 0.271149 0.319150
Si Si3 0.777516 0.596872 0.317861
Si Si4 0.324714 0.402805 0.818458
O O1 0.500000 0.869634 0.250000
O O2 0.410405 0.826494 0.232490
O O3 0.433568 0.000000 0.250000
O O4 0.452861 0.911647 0.000000
O O5 0.136233 0.251090 0.500000
O O6 0.183404 0.328281 0.270569
O O7 0.136899 0.174659 0.228930
O O8 0.794708 0.500000 0.250000
O O9 0.772100 0.587637 0.500000
O O10 0.726731 0.626901 0.248532
O O11 0.341736 0.500000 0.750000
O O12 0.321101 0.412401 0.000000
#
# Coordination Sequence:
#
# PCOD8275873 Si02
#       4
#    16  16  16  16
#     4  10  20  35  55  79 108 137 167 206 252 303
#     4  10  21  35  52  75 103 136 172 211 254 300
#     4  10  19  32  50  73 105 139 171 209 251 298
#     4  11  22  35  52  73 101 136 173 213 254 299
#
# _framework density 18.171561000000001
#
# number of rings (size 3 to 8) (size 9 to 14) (size 15 to 20)
#    0.000    1.750    0.000    7.500    0.000    7.000 
#    0.000    0.000    0.000    0.750    0.000    5.250 
#    0.000    0.000    0.000    0.000    0.000    0.000 
#
# Total GULP energy -396913.787871 kJ/mol
# GULP energy per Si atom -12403.555871 kJ/mol
# Density = 1.813020 g / cm^3
# Si number density = 18.171561 Si / 1000 Ang^3
#
#
#
# Elastic Constant Matrix: (Units=GPa)
#
#
# Indices 1 2 3 4 5 6 
#
# 1 97.5447 84.1432 48.0715 0.0000 0.0000 0.0000
# 2 84.1432 142.4967 56.7078 0.0000 0.0000 0.0000
# 3 48.0715 56.7078 101.5872 0.0000 0.0000 0.0000
# 4 0.0000 0.0000 0.0000 34.2101 0.0000 0.0000
# 5 0.0000 0.0000 0.0000 0.0000 19.3191 0.0000
# 6 0.0000 0.0000 0.0000 0.0000 0.0000 29.8284
#
#
#
# Elastic Compliance Matrix: (Units=1/GPa)
#
#
# Indices 1 2 3 4 5 6 
#
# 1 0.022140 -0.011447 -0.004087 0.000000 0.000000 0.000000
# 2 -0.011447 0.014941 -0.002923 0.000000 0.000000 0.000000
# 3 -0.004087 -0.002923 0.013409 0.000000 0.000000 0.000000
# 4 0.000000 0.000000 0.000000 0.029231 0.000000 0.000000
# 5 0.000000 0.000000 0.000000 0.000000 0.051762 0.000000
# 6 0.000000 0.000000 0.000000 0.000000 0.000000 0.033525
#
#
# Mechanical properties :
#
#
# Convention : Reuss Voigt Hill
#
# Bulk Modulus (GPa) = 73.66084 79.94151 76.80117
# Shear Modulus (GPa) = 24.21909 26.85193 25.53551
#
# Velocity S-wave (km/s) = 3.65472 3.84824 3.75273
# Velocity P-wave (km/s) = 7.64419 7.98958 7.81879
#
# Compressibility (1/GPa) = 0.01357573
#
# Stress axis : x y z
#
# Youngs Moduli (GPa) = 45.16635 66.93190 74.57444
#
# Poissons Ratio (x) = 0.76619 0.30477
# Poissons Ratio (y) = 0.51703 0.21799
# Poissons Ratio (z) = 0.18459 0.19565
#
# Static dielectric constant tensor:
#      x y z
#    x 3.332370 0.000000 0.000000 
#    y 0.000000 3.424970 0.000000 
#    z 0.000000 0.000000 3.392350 
# 
# 
# High freq. dielectric constant tensor:
#      x y z
#    x 1.683270 0.000000 0.000000 
#    y 0.000000 1.708170 0.000000 
#    z 0.000000 0.000000 1.716120 
# 
# From -- ./inp_files/5084.got.cif
#   From: 2010.03.12/outbox.cif.g09.slc.cpg/sg66_3_cif.got.tgz:5084.got - 2010.04.10 21:57:39.
