data_PCOD8275924
_publ_section_title
;
Structure prediction by ZEFSAII (Michael W. Deem and Ramdas Pophale) SiO2 
 PCOD8275924
Probable space group: C C C M
;
_chemical_formula_sum "Si O2"
_cell_formula_units_Z 96
_cell_length_a 20.407277
_cell_length_b 25.338370
_cell_length_c 8.619453
_cell_angle_alpha 90.000000
_cell_angle_beta 90.000000
_cell_angle_gamma 90.000000
_cell_volume 4457.008260
_symmetry_space_group_name_H-M "C C C M"
_symmetry_group_IT_number 66
_symmetry_cell_setting 'orthorhombic'
loop_
_space_group_symop_operation_xyz
x,y,z
-x,-y,z
x,-y,1/2-z
-x,y,1/2-z
-x,-y,-z
x,y,-z
-x,y,1/2+z
x,-y,1/2+z
1/2+x,1/2+y,z
1/2-x,1/2-y,z
1/2+x,1/2-y,1/2-z
1/2-x,1/2+y,1/2-z
1/2-x,1/2-y,-z
1/2+x,1/2+y,-z
1/2-x,1/2+y,1/2+z
1/2+x,1/2-y,1/2+z
loop_
_atom_site_type_symbol
_atom_site_label
_atom_site_fract_x
_atom_site_fract_y
_atom_site_fract_z
Si Si1 0.803599 0.894897 0.817754
Si Si2 0.935076 0.378514 0.678777
Si Si3 0.318487 0.055116 0.683779
Si Si4 0.713599 0.801036 0.165759
Si Si5 0.068838 0.847921 0.816157
Si Si6 0.590323 0.772409 0.677527
O O1 0.757299 0.939450 0.740460
O O2 0.766816 0.841563 0.772885
O O3 0.876074 0.888458 0.746519
O O4 0.810061 0.906067 0.000000
O O5 0.934848 0.392199 0.500000
O O6 0.866333 0.398413 0.753254
O O7 0.944270 0.315693 0.712282
O O8 0.000000 0.406786 0.750000
O O9 0.321322 0.055273 0.500000
O O10 0.345802 0.000000 0.750000
O O11 0.750000 0.750000 0.111609
O O12 0.666607 0.786557 0.307611
O O13 0.679899 0.821436 0.000000
O O14 0.077767 0.787000 0.759635
O O15 0.000000 0.868886 0.750000
O O16 0.069665 0.850326 0.000000
O O17 0.567670 0.778872 0.500000
#
# Coordination Sequence:
#
# PCOD8275924 Si02
#       6
#    16  16  16  16  16  16
#     4  11  22  39  64  92 123 162 205 256 314 371
#     4  12  25  42  63  90 126 168 212 257 308 363
#     4  12  26  46  70  96 123 155 202 257 314 373
#     4  10  19  32  54  84 119 161 205 249 298 356
#     4  11  24  39  58  89 128 171 214 258 307 368
#     4  11  22  35  56  87 125 169 213 254 298 355
#
# _framework density 21.539111999999999
#
# number of rings (size 3 to 8) (size 9 to 14) (size 15 to 20)
#    0.000    0.833    3.333    5.000    0.000    4.667 
#    0.000    1.667    0.000    0.500    0.000    3.500 
#    0.000    0.000    0.000    0.000    0.000    0.000 
#
# Total GULP energy -594800.231848 kJ/mol
# GULP energy per Si atom -12391.671497 kJ/mol
# Density = 2.149009 g / cm^3
# Si number density = 21.539112 Si / 1000 Ang^3
#
#
#
# Elastic Constant Matrix: (Units=GPa)
#
#
# Indices 1 2 3 4 5 6 
#
# 1 148.9119 15.3878 54.4293 0.0000 0.0000 0.0000
# 2 15.3878 51.4755 25.7878 0.0000 0.0000 0.0000
# 3 54.4293 25.7878 147.2700 0.0000 0.0000 0.0000
# 4 0.0000 0.0000 0.0000 24.1795 0.0000 0.0000
# 5 0.0000 0.0000 0.0000 0.0000 38.7646 0.0000
# 6 0.0000 0.0000 0.0000 0.0000 0.0000 11.9702
#
#
#
# Elastic Compliance Matrix: (Units=1/GPa)
#
#
# Indices 1 2 3 4 5 6 
#
# 1 0.007809 -0.000974 -0.002715 0.000000 0.000000 0.000000
# 2 -0.000974 0.021416 -0.003390 0.000000 0.000000 0.000000
# 3 -0.002715 -0.003390 0.008387 0.000000 0.000000 0.000000
# 4 0.000000 0.000000 0.000000 0.041357 0.000000 0.000000
# 5 0.000000 0.000000 0.000000 0.000000 0.025797 0.000000
# 6 0.000000 0.000000 0.000000 0.000000 0.000000 0.083541
#
#
# Mechanical properties :
#
#
# Convention : Reuss Voigt Hill
#
# Bulk Modulus (GPa) = 42.63795 59.87416 51.25605
# Shear Modulus (GPa) = 23.77736 31.78635 27.78185
#
# Velocity S-wave (km/s) = 3.32613 3.84572 3.59532
# Velocity P-wave (km/s) = 5.88127 6.89765 6.40964
#
# Compressibility (1/GPa) = 0.02345329
#
# Stress axis : x y z
#
# Youngs Moduli (GPa) = 128.06496 46.69359 119.22548
#
# Poissons Ratio (x) = 0.04547 0.32375
# Poissons Ratio (y) = 0.12472 0.40419
# Poissons Ratio (z) = 0.34775 0.15830
#
# Static dielectric constant tensor:
#      x y z
#    x 4.154290 0.000000 0.000000 
#    y 0.000000 3.669150 0.000000 
#    z 0.000000 0.000000 3.780340 
# 
# 
# High freq. dielectric constant tensor:
#      x y z
#    x 1.854970 0.000000 0.000000 
#    y 0.000000 1.813420 0.000000 
#    z 0.000000 0.000000 1.853740 
# 
# From -- ./inp_files/7970.got.cif
#   From: 2010.03.12/outbox.cif.g09.slc.cpg/sg66_4_cif.got.tgz:7970.got - 2010.04.10 21:57:39.
