data_PCOD8275330
_publ_section_title
;
Structure prediction by ZEFSAII (Michael W. Deem and Ramdas Pophale) SiO2 
 PCOD8275330
Probable space group: C C C M
;
_chemical_formula_sum "Si O2"
_cell_formula_units_Z 112
_cell_length_a 25.047989
_cell_length_b 13.024635
_cell_length_c 22.036832
_cell_angle_alpha 90.000000
_cell_angle_beta 90.000000
_cell_angle_gamma 90.000000
_cell_volume 7189.316218
_symmetry_space_group_name_H-M "C C C M"
_symmetry_group_IT_number 66
_symmetry_cell_setting 'orthorhombic'
loop_
_space_group_symop_operation_xyz
x,y,z
-x,-y,z
x,-y,1/2-z
-x,y,1/2-z
-x,-y,-z
x,y,-z
-x,y,1/2+z
x,-y,1/2+z
1/2+x,1/2+y,z
1/2-x,1/2-y,z
1/2+x,1/2-y,1/2-z
1/2-x,1/2+y,1/2-z
1/2-x,1/2-y,-z
1/2+x,1/2+y,-z
1/2-x,1/2+y,1/2+z
1/2+x,1/2-y,1/2+z
loop_
_atom_site_type_symbol
_atom_site_label
_atom_site_fract_x
_atom_site_fract_y
_atom_site_fract_z
Si Si1 0.601334 0.166569 0.645882
Si Si2 0.881554 0.952800 0.933595
Si Si3 0.439888 0.237157 0.269746
Si Si4 0.943298 0.530327 0.680564
Si Si5 0.810667 0.228227 0.429467
Si Si6 0.546755 0.581742 0.353831
Si Si7 0.973838 0.213014 0.566790
O O1 0.598681 0.224025 0.711476
O O2 0.655214 0.195956 0.612039
O O3 0.547920 0.195951 0.608626
O O4 0.601853 0.042533 0.650577
O O5 0.827239 0.890867 0.916224
O O6 0.927789 0.870070 0.939349
O O7 0.899247 0.031463 0.881037
O O8 0.874828 0.006727 0.000000
O O9 0.500000 0.213987 0.250000
O O10 0.427273 0.151390 0.322210
O O11 0.434919 0.353504 0.294811
O O12 0.946680 0.500000 0.750000
O O13 0.000000 0.500000 0.649881
O O14 0.821735 0.253901 0.500000
O O15 0.750000 0.250000 0.411653
O O16 0.500000 0.500000 0.336447
O O17 0.525540 0.661029 0.403824
O O18 0.989508 0.254517 0.500000
#
# Coordination Sequence:
#
# PCOD8275330 Si02
#       7
#    16  16  16  16  16  16  16
#     4  10  17  28  47  70  93 122 158 206 237 280
#     4   8  15  27  43  64  89 121 152 186 241 291
#     4  11  18  29  42  65  94 135 169 188 218 285
#     4   9  14  26  44  61  87 124 164 187 218 276
#     4   9  18  34  54  73  91 116 159 210 252 286
#     4  10  18  27  40  63  98 131 159 185 224 281
#     4   9  15  25  40  61  90 122 154 187 228 280
#
# _framework density 15.578671999999999
#
# number of rings (size 3 to 8) (size 9 to 14) (size 15 to 20)
#    0.000    2.571    4.286    1.714    0.000    2.000 
#    0.000    0.000    0.000   14.571    0.000    0.000 
#    0.000    3.429    0.000    0.000    0.000    0.000 
#
# Total GULP energy -693763.540549 kJ/mol
# GULP energy per Si atom -12388.634653 kJ/mol
# Density = 1.554321 g / cm^3
# Si number density = 15.578672 Si / 1000 Ang^3
#
#
#
# Elastic Constant Matrix: (Units=GPa)
#
#
# Indices 1 2 3 4 5 6 
#
# 1 80.9806 36.5186 33.9009 0.0000 0.0000 0.0000
# 2 36.5186 94.9750 47.2392 0.0000 0.0000 0.0000
# 3 33.9009 47.2392 71.6590 0.0000 0.0000 0.0000
# 4 0.0000 0.0000 0.0000 16.3781 0.0000 0.0000
# 5 0.0000 0.0000 0.0000 0.0000 16.8021 0.0000
# 6 0.0000 0.0000 0.0000 0.0000 0.0000 18.9827
#
#
#
# Elastic Compliance Matrix: (Units=1/GPa)
#
#
# Indices 1 2 3 4 5 6 
#
# 1 0.016182 -0.003592 -0.005287 0.000000 0.000000 0.000000
# 2 -0.003592 0.016463 -0.009153 0.000000 0.000000 0.000000
# 3 -0.005287 -0.009153 0.022491 0.000000 0.000000 0.000000
# 4 0.000000 0.000000 0.000000 0.061057 0.000000 0.000000
# 5 0.000000 0.000000 0.000000 0.000000 0.059516 0.000000
# 6 0.000000 0.000000 0.000000 0.000000 0.000000 0.052680
#
#
# Mechanical properties :
#
#
# Convention : Reuss Voigt Hill
#
# Bulk Modulus (GPa) = 52.43967 53.65913 53.04940
# Shear Modulus (GPa) = 18.46302 19.09630 18.77966
#
# Velocity S-wave (km/s) = 3.44633 3.50494 3.47576
# Velocity P-wave (km/s) = 7.04063 7.13430 7.08762
#
# Compressibility (1/GPa) = 0.01906953
#
# Stress axis : x y z
#
# Youngs Moduli (GPa) = 61.79693 60.74190 44.46313
#
# Poissons Ratio (x) = 0.21820 0.23510
# Poissons Ratio (y) = 0.22199 0.40699
# Poissons Ratio (z) = 0.32675 0.55600
#
# Static dielectric constant tensor:
#      x y z
#    x 2.690000 0.000000 0.000000 
#    y 0.000000 3.317930 0.000000 
#    z 0.000000 0.000000 3.107820 
# 
# 
# High freq. dielectric constant tensor:
#      x y z
#    x 1.543600 0.000000 0.000000 
#    y 0.000000 1.590640 0.000000 
#    z 0.000000 0.000000 1.594580 
# 
# From -- ./inp_files/53141.got.cif
#   From: 2010.03.12/outbox.cif.g09.slc.cpg/sg66_27_cif.got.tgz:53141.got - 2010.04.10 21:57:39.
