data_PCOD8275510
_publ_section_title
;
Structure prediction by ZEFSAII (Michael W. Deem and Ramdas Pophale) SiO2 
 PCOD8275510
Probable space group: C C C M
;
_chemical_formula_sum "Si O2"
_cell_formula_units_Z 96
_cell_length_a 27.687785
_cell_length_b 9.966409
_cell_length_c 17.179622
_cell_angle_alpha 90.000000
_cell_angle_beta 90.000000
_cell_angle_gamma 90.000000
_cell_volume 4740.678717
_symmetry_space_group_name_H-M "C C C M"
_symmetry_group_IT_number 66
_symmetry_cell_setting 'orthorhombic'
loop_
_space_group_symop_operation_xyz
x,y,z
-x,-y,z
x,-y,1/2-z
-x,y,1/2-z
-x,-y,-z
x,y,-z
-x,y,1/2+z
x,-y,1/2+z
1/2+x,1/2+y,z
1/2-x,1/2-y,z
1/2+x,1/2-y,1/2-z
1/2-x,1/2+y,1/2-z
1/2-x,1/2-y,-z
1/2+x,1/2+y,-z
1/2-x,1/2+y,1/2+z
1/2+x,1/2-y,1/2+z
loop_
_atom_site_type_symbol
_atom_site_label
_atom_site_fract_x
_atom_site_fract_y
_atom_site_fract_z
Si Si1 0.273924 0.106547 0.085775
Si Si2 0.522717 0.359470 0.087620
Si Si3 0.607608 0.370037 0.200008
Si Si4 0.960417 0.603422 0.088232
Si Si5 0.671939 0.474209 0.590119
Si Si6 0.864697 0.701001 0.158836
O O1 0.250000 0.250000 0.075807
O O2 0.228607 0.017054 0.113728
O O3 0.317379 0.105958 0.148800
O O4 0.293363 0.061553 0.000000
O O5 0.500000 0.500000 0.112567
O O6 0.562749 0.317024 0.149914
O O7 0.480084 0.253412 0.091623
O O8 0.544632 0.367023 0.000000
O O9 0.592076 0.500000 0.250000
O O10 0.649777 0.407446 0.140755
O O11 0.627054 0.247888 0.252629
O O12 0.910062 0.608942 0.134109
O O13 0.000000 0.500000 0.124838
O O14 0.949763 0.556644 0.000000
O O15 0.664535 0.506400 0.500000
O O16 0.644678 0.332603 0.605865
#
# Coordination Sequence:
#
# PCOD8275510 Si02
#       6
#    16  16  16  16  16  16
#     4   8  14  26  49  77 102 134 177 224 271 325
#     4  10  20  35  55  77 104 145 192 232 277 336
#     4  10  20  30  48  78 111 141 174 227 286 332
#     4  10  21  36  55  79 108 145 188 233 274 322
#     4   9  16  29  52  82 111 138 176 227 280 335
#     4  10  18  30  50  78 111 143 179 224 283 340
#
# _framework density 20.250264999999999
#
# number of rings (size 3 to 8) (size 9 to 14) (size 15 to 20)
#    0.000    2.500    0.000    5.000    0.000    3.667 
#    0.000    1.667    0.000   16.000    0.000    0.000 
#    0.000   60.000    0.000    0.000    0.000    0.000 
#
# Total GULP energy -594898.991789 kJ/mol
# GULP energy per Si atom -12393.728996 kJ/mol
# Density = 2.020417 g / cm^3
# Si number density = 20.250265 Si / 1000 Ang^3
#
#
#
# Elastic Constant Matrix: (Units=GPa)
#
#
# Indices 1 2 3 4 5 6 
#
# 1 144.6191 28.2127 64.7657 0.0000 0.0000 0.0000
# 2 28.2127 44.1389 12.0017 0.0000 0.0000 0.0000
# 3 64.7657 12.0017 104.5886 0.0000 0.0000 0.0000
# 4 0.0000 0.0000 0.0000 18.9685 0.0000 0.0000
# 5 0.0000 0.0000 0.0000 0.0000 27.3988 0.0000
# 6 0.0000 0.0000 0.0000 0.0000 0.0000 26.9304
#
#
#
# Elastic Compliance Matrix: (Units=1/GPa)
#
#
# Indices 1 2 3 4 5 6 
#
# 1 0.010592 -0.005147 -0.005968 0.000000 0.000000 0.000000
# 2 -0.005147 0.025887 0.000217 0.000000 0.000000 0.000000
# 3 -0.005968 0.000217 0.013232 0.000000 0.000000 0.000000
# 4 0.000000 0.000000 0.000000 0.052719 0.000000 0.000000
# 5 0.000000 0.000000 0.000000 0.000000 0.036498 0.000000
# 6 0.000000 0.000000 0.000000 0.000000 0.000000 0.037133
#
#
# Mechanical properties :
#
#
# Convention : Reuss Voigt Hill
#
# Bulk Modulus (GPa) = 35.82498 55.92298 45.87398
# Shear Modulus (GPa) = 24.13576 27.21731 25.67654
#
# Velocity S-wave (km/s) = 3.45610 3.67010 3.56471
# Velocity P-wave (km/s) = 5.80135 6.75540 6.29647
#
# Compressibility (1/GPa) = 0.02791349
#
# Stress axis : x y z
#
# Youngs Moduli (GPa) = 94.41465 38.62978 75.57382
#
# Poissons Ratio (x) = 0.19883 0.45103
# Poissons Ratio (y) = 0.48597 -0.01638
# Poissons Ratio (z) = 0.56348 -0.00837
#
# Static dielectric constant tensor:
#      x y z
#    x 4.077450 0.000000 0.000000 
#    y 0.000000 3.289120 0.000000 
#    z 0.000000 0.000000 3.689740 
# 
# 
# High freq. dielectric constant tensor:
#      x y z
#    x 1.797780 0.000000 0.000000 
#    y 0.000000 1.745820 0.000000 
#    z 0.000000 0.000000 1.784480 
# 
# From -- ./inp_files/44237.got.cif
#   From: 2010.03.12/outbox.cif.g09.slc.cpg/sg66_23_cif.got.tgz:44237.got - 2010.04.10 21:57:39.
