data_PCOD8275228
_publ_section_title
;
Structure prediction by ZEFSAII (Michael W. Deem and Ramdas Pophale) SiO2 
 PCOD8275228
Probable space group: C C C M
;
_chemical_formula_sum "Si O2"
_cell_formula_units_Z 128
_cell_length_a 21.558402
_cell_length_b 21.346072
_cell_length_c 17.974809
_cell_angle_alpha 90.000000
_cell_angle_beta 90.000000
_cell_angle_gamma 90.000000
_cell_volume 8271.777048
_symmetry_space_group_name_H-M "C C C M"
_symmetry_group_IT_number 66
_symmetry_cell_setting 'orthorhombic'
loop_
_space_group_symop_operation_xyz
x,y,z
-x,-y,z
x,-y,1/2-z
-x,y,1/2-z
-x,-y,-z
x,y,-z
-x,y,1/2+z
x,-y,1/2+z
1/2+x,1/2+y,z
1/2-x,1/2-y,z
1/2+x,1/2-y,1/2-z
1/2-x,1/2+y,1/2-z
1/2-x,1/2-y,-z
1/2+x,1/2+y,-z
1/2-x,1/2+y,1/2+z
1/2+x,1/2-y,1/2+z
loop_
_atom_site_type_symbol
_atom_site_label
_atom_site_fract_x
_atom_site_fract_y
_atom_site_fract_z
Si Si1 0.564343 0.396374 0.084121
Si Si2 0.555213 0.751824 0.585902
Si Si3 0.194568 0.055034 0.411638
Si Si4 0.650665 0.770505 0.707391
Si Si5 0.768426 0.147934 0.791839
Si Si6 0.678172 0.549454 0.188793
Si Si7 0.955722 0.903501 0.179468
Si Si8 0.049678 0.764461 0.685510
O O1 0.563898 0.322147 0.098095
O O2 0.626180 0.425848 0.119638
O O3 0.500791 0.426679 0.113659
O O4 0.568330 0.415434 0.000000
O O5 0.561557 0.772286 0.500000
O O6 0.608324 0.785636 0.634837
O O7 0.485774 0.769667 0.616271
O O8 0.205722 0.064278 0.500000
O O9 0.237378 0.102658 0.364266
O O10 0.203896 0.981420 0.388785
O O11 0.699847 0.825204 0.719374
O O12 0.682831 0.703531 0.693674
O O13 0.609425 0.772091 0.783109
O O14 0.788505 0.113660 0.714485
O O15 0.697604 0.500000 0.250000
O O16 0.603849 0.553112 0.184647
O O17 0.929363 0.834124 0.162597
O O18 0.000000 0.907153 0.250000
O O19 0.000000 0.772247 0.750000
#
# Coordination Sequence:
#
# PCOD8275228 Si02
#       8
#    16  16  16  16  16  16  16  16
#     4   9  17  27  39  58  87 116 147 188 222 254
#     4   9  16  27  44  68  95 120 143 176 226 274
#     4  10  20  33  44  59  89 121 153 194 231 262
#     4  10  17  28  48  68  90 117 149 188 224 266
#     4  10  19  30  45  66  88 117 156 192 222 261
#     4  10  20  30  42  58  83 119 159 195 226 258
#     4  10  16  25  40  57  79 112 156 192 220 249
#     4   8  15  26  43  63  90 117 147 181 222 265
#
# _framework density 15.474304999999999
#
# number of rings (size 3 to 8) (size 9 to 14) (size 15 to 20)
#    0.000    2.500    2.500    2.250    0.000    2.750 
#    0.000    2.500    0.000    0.750    0.000    1.750 
#    0.000   40.500    0.000   20.250    0.000    0.000 
#
# Total GULP energy -792847.726183 kJ/mol
# GULP energy per Si atom -12388.245722 kJ/mol
# Density = 1.543908 g / cm^3
# Si number density = 15.474305 Si / 1000 Ang^3
#
#
#
# Elastic Constant Matrix: (Units=GPa)
#
#
# Indices 1 2 3 4 5 6 
#
# 1 77.4033 33.2549 36.5431 0.0000 0.0000 0.0000
# 2 33.2549 50.0251 23.4134 0.0000 0.0000 0.0000
# 3 36.5431 23.4134 48.2542 0.0000 0.0000 0.0000
# 4 0.0000 0.0000 0.0000 -36.8504 0.0000 0.0000
# 5 0.0000 0.0000 0.0000 0.0000 19.7732 0.0000
# 6 0.0000 0.0000 0.0000 0.0000 0.0000 23.0024
#
#
#
# Elastic Compliance Matrix: (Units=1/GPa)
#
#
# Indices 1 2 3 4 5 6 
#
# 1 0.022990 -0.009231 -0.012932 0.000000 0.000000 0.000000
# 2 -0.009231 0.029570 -0.007357 0.000000 0.000000 0.000000
# 3 -0.012932 -0.007357 0.034087 0.000000 0.000000 0.000000
# 4 0.000000 0.000000 0.000000 -0.027137 0.000000 0.000000
# 5 0.000000 0.000000 0.000000 0.000000 0.050573 0.000000
# 6 0.000000 0.000000 0.000000 0.000000 0.000000 0.043474
#
#
# Mechanical properties :
#
#
# Convention : Reuss Voigt Hill
#
# Bulk Modulus (GPa) = 36.22214 40.23393 38.22804
# Shear Modulus (GPa) = 22.54294 6.68312 14.61303
#
# Velocity S-wave (km/s) = 3.82094 2.08044 3.07635
# Velocity P-wave (km/s) = 6.55171 5.64162 6.11362
#
# Compressibility (1/GPa) = 0.02760742
#
# Stress axis : x y z
#
# Youngs Moduli (GPa) = 43.49623 33.81860 29.33693
#
# Poissons Ratio (x) = 0.31217 0.37938
# Poissons Ratio (y) = 0.40150 0.21583
# Poissons Ratio (z) = 0.56249 0.24880
#
# Static dielectric constant tensor:
#      x y z
#    x 2.738640 0.000000 0.000000 
#    y 0.000000 2.762430 0.000000 
#    z 0.000000 0.000000 2.806070 
# 
# 
# High freq. dielectric constant tensor:
#      x y z
#    x 1.574050 0.000000 0.000000 
#    y 0.000000 1.556370 0.000000 
#    z 0.000000 0.000000 1.589230 
# 
# From -- ./inp_files/43185.got.cif
#   From: 2010.03.12/outbox.cif.g09.slc.cpg/sg66_22_cif.got.tgz:43185.got - 2010.04.10 21:57:39.
