data_PCOD8275332
_publ_section_title
;
Structure prediction by ZEFSAII (Michael W. Deem and Ramdas Pophale) SiO2 
 PCOD8275332
Probable space group: C C C M
;
_chemical_formula_sum "Si O2"
_cell_formula_units_Z 96
_cell_length_a 30.203410
_cell_length_b 19.535549
_cell_length_c 8.811617
_cell_angle_alpha 90.000000
_cell_angle_beta 90.000000
_cell_angle_gamma 90.000000
_cell_volume 5199.208222
_symmetry_space_group_name_H-M "C C C M"
_symmetry_group_IT_number 66
_symmetry_cell_setting 'orthorhombic'
loop_
_space_group_symop_operation_xyz
x,y,z
-x,-y,z
x,-y,1/2-z
-x,y,1/2-z
-x,-y,-z
x,y,-z
-x,y,1/2+z
x,-y,1/2+z
1/2+x,1/2+y,z
1/2-x,1/2-y,z
1/2+x,1/2-y,1/2-z
1/2-x,1/2+y,1/2-z
1/2-x,1/2-y,-z
1/2+x,1/2+y,-z
1/2-x,1/2+y,1/2+z
1/2+x,1/2-y,1/2+z
loop_
_atom_site_type_symbol
_atom_site_label
_atom_site_fract_x
_atom_site_fract_y
_atom_site_fract_z
Si Si1 0.738276 0.070417 0.821217
Si Si2 0.872477 0.201651 0.674662
Si Si3 0.952972 0.296759 0.323314
Si Si4 0.450997 0.932596 0.180875
Si Si5 0.839411 0.069821 0.177881
Si Si6 0.291762 0.205153 0.178455
O O1 0.788947 0.082983 0.768507
O O2 0.708396 0.132435 0.762084
O O3 0.720205 0.000000 0.750000
O O4 0.733982 0.065053 0.000000
O O5 0.863274 0.183662 0.500000
O O6 0.921149 0.232160 0.699720
O O7 0.869935 0.132307 0.769821
O O8 0.835985 0.255997 0.730930
O O9 0.959659 0.314533 0.500000
O O10 0.929454 0.361916 0.240319
O O11 0.000000 0.277651 0.250000
O O12 0.500000 0.930821 0.250000
O O13 0.426506 0.000000 0.250000
O O14 0.451240 0.936270 0.000000
O O15 0.857896 0.000000 0.250000
O O16 0.842562 0.061972 0.000000
O O17 0.250000 0.250000 0.231736
O O18 0.290609 0.191285 0.000000
#
# Coordination Sequence:
#
# PCOD8275332 Si02
#       6
#    16  16  16  16  16  16
#     4  10  20  33  51  76 107 144 182 219 259 308
#     4  10  21  36  55  80 108 140 176 217 264 316
#     4  10  20  35  54  77 106 138 177 221 268 317
#     4  10  17  28  48  73 100 130 169 213 260 309
#     4  10  20  33  53  79 108 139 176 218 259 310
#     4  10  19  33  54  77 106 140 173 212 260 312
#
# _framework density 18.46435
#
# number of rings (size 3 to 8) (size 9 to 14) (size 15 to 20)
#    0.000    2.000    1.667    4.500    0.000    3.667 
#    0.000    0.833    0.000    0.500    0.000    3.500 
#    0.000    0.000    0.000    0.000    0.000    0.000 
#
# Total GULP energy -595252.818328 kJ/mol
# GULP energy per Si atom -12401.100382 kJ/mol
# Density = 1.842232 g / cm^3
# Si number density = 18.464350 Si / 1000 Ang^3
#
#
#
# Elastic Constant Matrix: (Units=GPa)
#
#
# Indices 1 2 3 4 5 6 
#
# 1 63.9172 42.6080 30.8402 0.0000 0.0000 0.0000
# 2 42.6080 153.4848 63.3693 0.0000 0.0000 0.0000
# 3 30.8402 63.3693 106.6973 0.0000 0.0000 0.0000
# 4 0.0000 0.0000 0.0000 39.3408 0.0000 0.0000
# 5 0.0000 0.0000 0.0000 0.0000 18.9324 0.0000
# 6 0.0000 0.0000 0.0000 0.0000 0.0000 20.2678
#
#
#
# Elastic Compliance Matrix: (Units=1/GPa)
#
#
# Indices 1 2 3 4 5 6 
#
# 1 0.020036 -0.004201 -0.003296 0.000000 0.000000 0.000000
# 2 -0.004201 0.009513 -0.004436 0.000000 0.000000 0.000000
# 3 -0.003296 -0.004436 0.012959 0.000000 0.000000 0.000000
# 4 0.000000 0.000000 0.000000 0.025419 0.000000 0.000000
# 5 0.000000 0.000000 0.000000 0.000000 0.052820 0.000000
# 6 0.000000 0.000000 0.000000 0.000000 0.000000 0.049339
#
#
# Mechanical properties :
#
#
# Convention : Reuss Voigt Hill
#
# Bulk Modulus (GPa) = 53.64044 66.41492 60.02768
# Shear Modulus (GPa) = 24.97923 28.19365 26.58644
#
# Velocity S-wave (km/s) = 3.68208 3.91183 3.79869
# Velocity P-wave (km/s) = 6.86956 7.51336 7.19866
#
# Compressibility (1/GPa) = 0.01864265
#
# Stress axis : x y z
#
# Youngs Moduli (GPa) = 49.90954 105.12062 77.16431
#
# Poissons Ratio (x) = 0.44164 0.25434
# Poissons Ratio (y) = 0.20968 0.34226
# Poissons Ratio (z) = 0.16451 0.46626
#
# Static dielectric constant tensor:
#      x y z
#    x 3.064560 0.000000 0.000000 
#    y 0.000000 3.717960 0.000000 
#    z 0.000000 0.000000 3.372580 
# 
# 
# High freq. dielectric constant tensor:
#      x y z
#    x 1.673430 0.000000 0.000000 
#    y 0.000000 1.727530 0.000000 
#    z 0.000000 0.000000 1.724650 
# 
# From -- ./inp_files/10257.got.cif
#   From: 2010.03.12/outbox.cif.g09.slc.cpg/sg66_6_cif.got.tgz:10257.got - 2010.04.10 21:57:39.
