data_PCOD8275537
_publ_section_title
;
Structure prediction by ZEFSAII (Michael W. Deem and Ramdas Pophale) SiO2 
 PCOD8275537
Probable space group: C C C M
;
_chemical_formula_sum "Si O2"
_cell_formula_units_Z 64
_cell_length_a 12.566197
_cell_length_b 16.013076
_cell_length_c 13.277605
_cell_angle_alpha 90.000000
_cell_angle_beta 90.000000
_cell_angle_gamma 90.000000
_cell_volume 2671.765719
_symmetry_space_group_name_H-M "C C C M"
_symmetry_group_IT_number 66
_symmetry_cell_setting 'orthorhombic'
loop_
_space_group_symop_operation_xyz
x,y,z
-x,-y,z
x,-y,1/2-z
-x,y,1/2-z
-x,-y,-z
x,y,-z
-x,y,1/2+z
x,-y,1/2+z
1/2+x,1/2+y,z
1/2-x,1/2-y,z
1/2+x,1/2-y,1/2-z
1/2-x,1/2+y,1/2-z
1/2-x,1/2-y,-z
1/2+x,1/2+y,-z
1/2-x,1/2+y,1/2+z
1/2+x,1/2-y,1/2+z
loop_
_atom_site_type_symbol
_atom_site_label
_atom_site_fract_x
_atom_site_fract_y
_atom_site_fract_z
Si Si1 0.676882 0.627763 0.814128
Si Si2 0.606576 0.203319 0.382428
Si Si3 0.934330 0.424037 0.118304
Si Si4 0.805526 0.054168 0.885734
O O1 0.599222 0.698067 0.859672
O O2 0.798633 0.660319 0.819693
O O3 0.664842 0.543366 0.879689
O O4 0.634881 0.609143 0.699403
O O5 0.631036 0.187870 0.500000
O O6 0.493656 0.162113 0.350862
O O7 0.813903 0.429754 0.154352
O O8 0.000000 0.500000 0.167114
O O9 0.931541 0.434638 0.000000
O O10 0.827255 0.086099 0.000000
#
# Coordination Sequence:
#
# PCOD8275537 Si02
#       4
#    16  16  16  16
#     4  10  19  29  48  74 102 150 191 224 286 340
#     4  10  18  31  48  70 105 146 193 239 279 338
#     4   9  16  28  48  73 105 147 184 230 290 334
#     4  10  19  32  47  74 109 144 189 234 281 338
#
# _framework density 23.954194999999999
#
# number of rings (size 3 to 8) (size 9 to 14) (size 15 to 20)
#    0.000    2.250    2.500    3.000    0.000    1.000 
#    0.000    2.500    0.000    0.000    0.000   10.500 
#    0.000   64.000    0.000  316.000    0.000    7.000 
#
# Total GULP energy -396562.702346 kJ/mol
# GULP energy per Si atom -12392.584448 kJ/mol
# Density = 2.389967 g / cm^3
# Si number density = 23.954195 Si / 1000 Ang^3
#
#
#
# Elastic Constant Matrix: (Units=GPa)
#
#
# Indices 1 2 3 4 5 6 
#
# 1 17.7743 25.7681 -8.5966 0.0000 0.0000 0.0000
# 2 25.7681 143.6484 31.1741 0.0000 0.0000 0.0000
# 3 -8.5966 31.1741 136.7334 0.0000 0.0000 0.0000
# 4 0.0000 0.0000 0.0000 29.6183 0.0000 0.0000
# 5 0.0000 0.0000 0.0000 0.0000 57.4292 0.0000
# 6 0.0000 0.0000 0.0000 0.0000 0.0000 30.9925
#
#
#
# Elastic Compliance Matrix: (Units=1/GPa)
#
#
# Indices 1 2 3 4 5 6 
#
# 1 0.086185 -0.017502 0.009409 0.000000 0.000000 0.000000
# 2 -0.017502 0.010878 -0.003580 0.000000 0.000000 0.000000
# 3 0.009409 -0.003580 0.008721 0.000000 0.000000 0.000000
# 4 0.000000 0.000000 0.000000 0.033763 0.000000 0.000000
# 5 0.000000 0.000000 0.000000 0.000000 0.017413 0.000000
# 6 0.000000 0.000000 0.000000 0.000000 0.000000 0.032266
#
#
# Mechanical properties :
#
#
# Convention : Reuss Voigt Hill
#
# Bulk Modulus (GPa) = 12.13047 43.87194 28.00120
# Shear Modulus (GPa) = 20.82881 40.26204 30.54543
#
# Velocity S-wave (km/s) = 2.95197 4.10420 3.57481
# Velocity P-wave (km/s) = 4.08581 6.38858 5.36227
#
# Compressibility (1/GPa) = 0.08243707
#
# Stress axis : x y z
#
# Youngs Moduli (GPa) = 11.60296 91.92840 114.66090
#
# Poissons Ratio (x) = 1.60893 -1.07883
# Poissons Ratio (y) = 0.20308 0.41054
# Poissons Ratio (z) = -0.10917 0.32915
#
# Static dielectric constant tensor:
#      x y z
#    x 4.102590 0.000000 0.000000 
#    y 0.000000 4.465620 0.000000 
#    z 0.000000 0.000000 4.266030 
# 
# 
# High freq. dielectric constant tensor:
#      x y z
#    x 1.905550 0.000000 0.000000 
#    y 0.000000 1.942890 0.000000 
#    z 0.000000 0.000000 1.971670 
# 
# From -- ./inp_files/27719.got.cif
#   From: 2010.03.12/outbox.cif.g09.slc.cpg/sg66_14_cif.got.tgz:27719.got - 2010.04.10 21:57:39.
