data_PCOD8275503
_publ_section_title
;
Structure prediction by ZEFSAII (Michael W. Deem and Ramdas Pophale) SiO2 
 PCOD8275503
Probable space group: C C C M
;
_chemical_formula_sum "Si O2"
_cell_formula_units_Z 104
_cell_length_a 20.348798
_cell_length_b 17.171306
_cell_length_c 16.417270
_cell_angle_alpha 90.000000
_cell_angle_beta 90.000000
_cell_angle_gamma 90.000000
_cell_volume 5736.447575
_symmetry_space_group_name_H-M "C C C M"
_symmetry_group_IT_number 66
_symmetry_cell_setting 'orthorhombic'
loop_
_space_group_symop_operation_xyz
x,y,z
-x,-y,z
x,-y,1/2-z
-x,y,1/2-z
-x,-y,-z
x,y,-z
-x,y,1/2+z
x,-y,1/2+z
1/2+x,1/2+y,z
1/2-x,1/2-y,z
1/2+x,1/2-y,1/2-z
1/2-x,1/2+y,1/2-z
1/2-x,1/2-y,-z
1/2+x,1/2+y,-z
1/2-x,1/2+y,1/2+z
1/2+x,1/2-y,1/2+z
loop_
_atom_site_type_symbol
_atom_site_label
_atom_site_fract_x
_atom_site_fract_y
_atom_site_fract_z
Si Si1 0.169592 0.500000 0.250000
Si Si2 0.358584 0.191638 0.910965
Si Si3 0.571155 0.689781 0.710451
Si Si4 0.007503 0.085062 0.591270
Si Si5 0.240835 0.557827 0.406172
Si Si6 0.074160 0.642753 0.255054
Si Si7 0.367019 0.359810 0.133518
O O1 0.212015 0.503375 0.333768
O O2 0.124526 0.574960 0.233333
O O3 0.293938 0.140846 0.895348
O O4 0.416097 0.171956 0.847516
O O5 0.336951 0.281145 0.904156
O O6 0.387997 0.173479 0.000000
O O7 0.500000 0.682560 0.750000
O O8 0.565878 0.638179 0.629175
O O9 0.586490 0.781875 0.696097
O O10 0.625703 0.650340 0.768790
O O11 0.031926 0.072062 0.500000
O O12 0.937403 0.127124 0.592517
O O13 0.000000 0.000000 0.634613
O O14 0.230886 0.525555 0.500000
O O15 0.318151 0.569628 0.388396
O O16 0.000000 0.610763 0.250000
#
# Coordination Sequence:
#
# PCOD8275503 Si02
#       7
#     8  16  16  16  16  16  16
#     4  10  21  34  48  70 103 132 162 208 246 284
#     4   9  17  30  50  76  99 117 151 205 250 289
#     4   8  17  31  48  71  96 123 162 204 244 296
#     4  10  20  32  47  71 101 130 163 204 246 291
#     4  10  20  33  50  73  98 126 162 201 245 294
#     4   9  17  32  51  70  95 131 165 196 244 297
#     4  10  18  30  50  72  96 127 157 193 250 301
#
# _framework density 18.129686
#
# number of rings (size 3 to 8) (size 9 to 14) (size 15 to 20)
#    0.000    2.615    0.000    3.000    0.000    5.231 
#    0.000    1.538    0.000    3.692    0.000    0.000 
#    0.000   11.077    0.000    0.000    0.000    0.000 
#
# Total GULP energy -644363.771748 kJ/mol
# GULP energy per Si atom -12391.610995 kJ/mol
# Density = 1.808842 g / cm^3
# Si number density = 18.129686 Si / 1000 Ang^3
#
#
#
# Elastic Constant Matrix: (Units=GPa)
#
#
# Indices 1 2 3 4 5 6 
#
# 1 57.0068 16.7627 42.0644 0.0000 0.0000 0.0000
# 2 16.7627 89.6432 51.2179 0.0000 0.0000 0.0000
# 3 42.0644 51.2179 106.0941 0.0000 0.0000 0.0000
# 4 0.0000 0.0000 0.0000 25.9969 0.0000 0.0000
# 5 0.0000 0.0000 0.0000 0.0000 21.2775 0.0000
# 6 0.0000 0.0000 0.0000 0.0000 0.0000 18.3398
#
#
#
# Elastic Compliance Matrix: (Units=1/GPa)
#
#
# Indices 1 2 3 4 5 6 
#
# 1 0.024916 0.001360 -0.010535 0.000000 0.000000 0.000000
# 2 0.001360 0.015478 -0.008012 0.000000 0.000000 0.000000
# 3 -0.010535 -0.008012 0.017470 0.000000 0.000000 0.000000
# 4 0.000000 0.000000 0.000000 0.038466 0.000000 0.000000
# 5 0.000000 0.000000 0.000000 0.000000 0.046998 0.000000
# 6 0.000000 0.000000 0.000000 0.000000 0.000000 0.054526
#
#
# Mechanical properties :
#
#
# Convention : Reuss Voigt Hill
#
# Bulk Modulus (GPa) = 42.56935 52.53713 47.55324
# Shear Modulus (GPa) = 20.82823 22.63610 21.73216
#
# Velocity S-wave (km/s) = 3.39314 3.53734 3.46599
# Velocity P-wave (km/s) = 6.23560 6.76203 6.50414
#
# Compressibility (1/GPa) = 0.02349108
#
# Stress axis : x y z
#
# Youngs Moduli (GPa) = 40.13545 64.60575 57.23968
#
# Poissons Ratio (x) = -0.08789 0.60304
# Poissons Ratio (y) = -0.05460 0.45859
# Poissons Ratio (z) = 0.42284 0.51760
#
# Static dielectric constant tensor:
#      x y z
#    x 3.161990 0.000000 0.000000 
#    y 0.000000 3.460190 0.000000 
#    z 0.000000 0.000000 3.538400 
# 
# 
# High freq. dielectric constant tensor:
#      x y z
#    x 1.684610 0.000000 0.000000 
#    y 0.000000 1.696140 0.000000 
#    z 0.000000 0.000000 1.693770 
# 
# From -- ./inp_files/31374.got.cif
#   From: 2010.03.12/outbox.cif.g09.slc.cpg/sg66_16_cif.got.tgz:31374.got - 2010.04.10 21:57:39.
