data_PCOD8275717
_publ_section_title
;
Structure prediction by ZEFSAII (Michael W. Deem and Ramdas Pophale) SiO2 
 PCOD8275717
Probable space group: C C C M
;
_chemical_formula_sum "Si O2"
_cell_formula_units_Z 96
_cell_length_a 23.099382
_cell_length_b 26.241609
_cell_length_c 8.935116
_cell_angle_alpha 90.000000
_cell_angle_beta 90.000000
_cell_angle_gamma 90.000000
_cell_volume 5416.154149
_symmetry_space_group_name_H-M "C C C M"
_symmetry_group_IT_number 66
_symmetry_cell_setting 'orthorhombic'
loop_
_space_group_symop_operation_xyz
x,y,z
-x,-y,z
x,-y,1/2-z
-x,y,1/2-z
-x,-y,-z
x,y,-z
-x,y,1/2+z
x,-y,1/2+z
1/2+x,1/2+y,z
1/2-x,1/2-y,z
1/2+x,1/2-y,1/2-z
1/2-x,1/2+y,1/2-z
1/2-x,1/2-y,-z
1/2+x,1/2+y,-z
1/2-x,1/2+y,1/2+z
1/2+x,1/2-y,1/2+z
loop_
_atom_site_type_symbol
_atom_site_label
_atom_site_fract_x
_atom_site_fract_y
_atom_site_fract_z
Si Si1 0.825463 0.393632 0.826887
Si Si2 0.437112 0.447334 0.319599
Si Si3 0.940478 0.446043 0.176645
Si Si4 0.260818 0.544025 0.339995
Si Si5 0.146702 0.129314 0.166116
Si Si6 0.238434 0.807178 0.823093
O O1 0.893853 0.400419 0.792653
O O2 0.796965 0.441821 0.747582
O O3 0.794592 0.341020 0.771761
O O4 0.812378 0.399065 0.000000
O O5 0.411174 0.500000 0.250000
O O6 0.500000 0.439366 0.250000
O O7 0.438777 0.451205 0.500000
O O8 0.401337 0.397446 0.269813
O O9 0.921949 0.500000 0.250000
O O10 0.000000 0.426442 0.250000
O O11 0.948657 0.454708 0.000000
O O12 0.294425 0.500000 0.250000
O O13 0.242067 0.522217 0.500000
O O14 0.301657 0.591127 0.359364
O O15 0.176878 0.176891 0.249201
O O16 0.122038 0.144346 0.000000
O O17 0.250000 0.750000 0.768799
O O18 0.229549 0.810582 0.000000
#
# Coordination Sequence:
#
# PCOD8275717 Si02
#       6
#    16  16  16  16  16  16
#     4   9  18  31  47  68  93 121 156 197 239 287
#     4  11  21  34  52  75 105 140 175 208 245 292
#     4  10  19  30  45  66  94 127 160 192 226 271
#     4  10  19  28  42  65  94 126 156 191 235 285
#     4  10  20  33  49  72 100 130 166 206 249 297
#     4   9  18  34  55  76  97 125 162 206 258 308
#
# _framework density 17.724753
#
# number of rings (size 3 to 8) (size 9 to 14) (size 15 to 20)
#    0.000    2.167    0.000    5.000    0.000    6.333 
#    0.000    0.000    0.000    1.000    0.000    2.333 
#    0.000    0.000    0.000    0.000    0.000    0.000 
#
# Total GULP energy -594651.464800 kJ/mol
# GULP energy per Si atom -12388.572183 kJ/mol
# Density = 1.768441 g / cm^3
# Si number density = 17.724753 Si / 1000 Ang^3
#
#
#
# Elastic Constant Matrix: (Units=GPa)
#
#
# Indices 1 2 3 4 5 6 
#
# 1 87.6722 40.3834 43.5392 0.0000 0.0000 0.0000
# 2 40.3834 93.5728 43.5577 0.0000 0.0000 0.0000
# 3 43.5392 43.5577 103.6492 0.0000 0.0000 0.0000
# 4 0.0000 0.0000 0.0000 20.1647 0.0000 0.0000
# 5 0.0000 0.0000 0.0000 0.0000 23.1610 0.0000
# 6 0.0000 0.0000 0.0000 0.0000 0.0000 21.5415
#
#
#
# Elastic Compliance Matrix: (Units=1/GPa)
#
#
# Indices 1 2 3 4 5 6 
#
# 1 0.015898 -0.004665 -0.004718 0.000000 0.000000 0.000000
# 2 -0.004665 0.014655 -0.004199 0.000000 0.000000 0.000000
# 3 -0.004718 -0.004199 0.013394 0.000000 0.000000 0.000000
# 4 0.000000 0.000000 0.000000 0.049592 0.000000 0.000000
# 5 0.000000 0.000000 0.000000 0.000000 0.043176 0.000000
# 6 0.000000 0.000000 0.000000 0.000000 0.000000 0.046422
#
#
# Mechanical properties :
#
#
# Convention : Reuss Voigt Hill
#
# Bulk Modulus (GPa) = 59.58212 59.98387 59.78299
# Shear Modulus (GPa) = 23.15952 23.46771 23.31362
#
# Velocity S-wave (km/s) = 3.61864 3.64264 3.63066
# Velocity P-wave (km/s) = 7.15176 7.18381 7.16780
#
# Compressibility (1/GPa) = 0.01678356
#
# Stress axis : x y z
#
# Youngs Moduli (GPa) = 62.90202 68.23739 74.65920
#
# Poissons Ratio (x) = 0.31833 0.35221
# Poissons Ratio (y) = 0.29344 0.31349
# Poissons Ratio (z) = 0.29675 0.28652
#
# Static dielectric constant tensor:
#      x y z
#    x 3.322950 0.000000 0.000000 
#    y 0.000000 3.351700 0.000000 
#    z 0.000000 0.000000 3.783260 
# 
# 
# High freq. dielectric constant tensor:
#      x y z
#    x 1.677720 0.000000 0.000000 
#    y 0.000000 1.653660 0.000000 
#    z 0.000000 0.000000 1.701560 
# 
# From -- ./inp_files/9287.got.cif
#   From: 2010.03.12/outbox.cif.g09.slc.cpg/sg66_5_cif.got.tgz:9287.got - 2010.04.10 21:57:39.
