data_PCOD8275859
_publ_section_title
;
Structure prediction by ZEFSAII (Michael W. Deem and Ramdas Pophale) SiO2 
 PCOD8275859
Probable space group: C C C M
;
_chemical_formula_sum "Si O2"
_cell_formula_units_Z 96
_cell_length_a 28.579131
_cell_length_b 26.417931
_cell_length_c 8.723053
_cell_angle_alpha 90.000000
_cell_angle_beta 90.000000
_cell_angle_gamma 90.000000
_cell_volume 6585.918194
_symmetry_space_group_name_H-M "C C C M"
_symmetry_group_IT_number 66
_symmetry_cell_setting 'orthorhombic'
loop_
_space_group_symop_operation_xyz
x,y,z
-x,-y,z
x,-y,1/2-z
-x,y,1/2-z
-x,-y,-z
x,y,-z
-x,y,1/2+z
x,-y,1/2+z
1/2+x,1/2+y,z
1/2-x,1/2-y,z
1/2+x,1/2-y,1/2-z
1/2-x,1/2+y,1/2-z
1/2-x,1/2-y,-z
1/2+x,1/2+y,-z
1/2-x,1/2+y,1/2+z
1/2+x,1/2-y,1/2+z
loop_
_atom_site_type_symbol
_atom_site_label
_atom_site_fract_x
_atom_site_fract_y
_atom_site_fract_z
Si Si1 0.307440 0.147639 0.181174
Si Si2 0.217833 0.200889 0.169015
Si Si3 0.356798 0.054223 0.320485
Si Si4 0.451595 0.216432 0.818906
Si Si5 0.640398 0.757651 0.321125
Si Si6 0.547345 0.106923 0.820494
O O1 0.252153 0.155252 0.221657
O O2 0.321549 0.092520 0.238100
O O3 0.338493 0.189210 0.266656
O O4 0.315895 0.153888 0.000000
O O5 0.250000 0.250000 0.163073
O O6 0.174641 0.210359 0.283705
O O7 0.197031 0.190152 0.000000
O O8 0.346075 0.054237 0.500000
O O9 0.410508 0.068703 0.286643
O O10 0.346435 0.000000 0.250000
O O11 0.500000 0.237654 0.750000
O O12 0.409116 0.251780 0.762293
O O13 0.441748 0.159700 0.761494
O O14 0.454787 0.217007 0.000000
O O15 0.631515 0.760507 0.500000
O O16 0.500000 0.082774 0.750000
O O17 0.540533 0.117207 0.000000
#
# Coordination Sequence:
#
# PCOD8275859 Si02
#       6
#    16  16  16  16  16  16
#     4  10  19  32  48  63  83 108 136 173 215 255
#     4   8  16  29  44  64  85 107 134 165 207 252
#     4  11  23  35  48  63  82 106 140 178 221 267
#     4  11  20  30  45  62  84 112 141 175 213 254
#     4  11  19  28  44  66  88 110 138 169 207 252
#     4  10  20  33  47  62  78 102 136 177 220 264
#
# _framework density 14.576555000000001
#
# number of rings (size 3 to 8) (size 9 to 14) (size 15 to 20)
#    0.000    1.833    1.667    6.500    0.000    6.000 
#    0.000    1.667    0.000    0.000    0.000    0.000 
#    0.000    0.000    0.000    0.000    0.000    0.833 
#
# Total GULP energy -595142.022878 kJ/mol
# GULP energy per Si atom -12398.792143 kJ/mol
# Density = 1.454338 g / cm^3
# Si number density = 14.576555 Si / 1000 Ang^3
#
#
#
# Elastic Constant Matrix: (Units=GPa)
#
#
# Indices 1 2 3 4 5 6 
#
# 1 96.6318 45.9424 49.2908 0.0000 0.0000 0.0000
# 2 45.9424 49.5740 27.5688 0.0000 0.0000 0.0000
# 3 49.2908 27.5688 107.4608 0.0000 0.0000 0.0000
# 4 0.0000 0.0000 0.0000 11.4407 0.0000 0.0000
# 5 0.0000 0.0000 0.0000 0.0000 23.0433 0.0000
# 6 0.0000 0.0000 0.0000 0.0000 0.0000 24.7188
#
#
#
# Elastic Compliance Matrix: (Units=1/GPa)
#
#
# Indices 1 2 3 4 5 6 
#
# 1 0.020861 -0.016343 -0.005376 0.000000 0.000000 0.000000
# 2 -0.016343 0.036332 -0.001825 0.000000 0.000000 0.000000
# 3 -0.005376 -0.001825 0.012240 0.000000 0.000000 0.000000
# 4 0.000000 0.000000 0.000000 0.087407 0.000000 0.000000
# 5 0.000000 0.000000 0.000000 0.000000 0.043397 0.000000
# 6 0.000000 0.000000 0.000000 0.000000 0.000000 0.040455
#
#
# Mechanical properties :
#
#
# Convention : Reuss Voigt Hill
#
# Bulk Modulus (GPa) = 44.75111 55.47452 50.11281
# Shear Modulus (GPa) = 16.93612 20.56486 18.75049
#
# Velocity S-wave (km/s) = 3.41232 3.76016 3.59046
# Velocity P-wave (km/s) = 6.80387 7.54929 7.18625
#
# Compressibility (1/GPa) = 0.02234582
#
# Stress axis : x y z
#
# Youngs Moduli (GPa) = 47.93679 27.52366 81.70172
#
# Poissons Ratio (x) = 0.44982 0.43921
# Poissons Ratio (y) = 0.78343 0.14908
# Poissons Ratio (z) = 0.25770 0.05022
#
# Static dielectric constant tensor:
#      x y z
#    x 3.670700 0.000000 0.000000 
#    y 0.000000 2.495780 0.000000 
#    z 0.000000 0.000000 2.961310 
# 
# 
# High freq. dielectric constant tensor:
#      x y z
#    x 1.557260 0.000000 0.000000 
#    y 0.000000 1.499330 0.000000 
#    z 0.000000 0.000000 1.577320 
# 
# From -- ./inp_files/10638.got.cif
#   From: 2010.03.12/outbox.cif.g09.slc.cpg/sg66_6_cif.got.tgz:10638.got - 2010.04.10 21:57:39.
