data_PCOD8275391
_publ_section_title
;
Structure prediction by ZEFSAII (Michael W. Deem and Ramdas Pophale) SiO2 
 PCOD8275391
Probable space group: C C C M
;
_chemical_formula_sum "Si O2"
_cell_formula_units_Z 88
_cell_length_a 25.631800
_cell_length_b 20.038480
_cell_length_c 8.446554
_cell_angle_alpha 90.000000
_cell_angle_beta 90.000000
_cell_angle_gamma 90.000000
_cell_volume 4338.338591
_symmetry_space_group_name_H-M "C C C M"
_symmetry_group_IT_number 66
_symmetry_cell_setting 'orthorhombic'
loop_
_space_group_symop_operation_xyz
x,y,z
-x,-y,z
x,-y,1/2-z
-x,y,1/2-z
-x,-y,-z
x,y,-z
-x,y,1/2+z
x,-y,1/2+z
1/2+x,1/2+y,z
1/2-x,1/2-y,z
1/2+x,1/2-y,1/2-z
1/2-x,1/2+y,1/2-z
1/2-x,1/2-y,-z
1/2+x,1/2+y,-z
1/2-x,1/2+y,1/2+z
1/2+x,1/2-y,1/2+z
loop_
_atom_site_type_symbol
_atom_site_label
_atom_site_fract_x
_atom_site_fract_y
_atom_site_fract_z
Si Si1 0.333911 0.070002 0.183098
Si Si2 0.750000 0.750000 0.717907
Si Si3 0.942756 0.198336 0.686312
Si Si4 0.386882 0.572141 0.812043
Si Si5 0.728699 0.396497 0.829975
Si Si6 0.144037 0.706158 0.187142
O O1 0.271510 0.075976 0.208761
O O2 0.364924 0.128208 0.275994
O O3 0.354695 0.000000 0.250000
O O4 0.347299 0.075325 0.000000
O O5 0.735452 0.681772 0.628345
O O6 0.806158 0.731135 0.798091
O O7 0.940443 0.208993 0.500000
O O8 0.925721 0.123882 0.730475
O O9 0.906620 0.252428 0.771415
O O10 0.000000 0.211982 0.750000
O O11 0.403778 0.500000 0.750000
O O12 0.327946 0.588455 0.756361
O O13 0.392538 0.577531 0.000000
O O14 0.734970 0.433596 0.000000
O O15 0.157664 0.715431 0.000000
#
# Coordination Sequence:
#
# PCOD8275391 Si02
#       6
#    16   8  16  16  16  16
#     4  11  22  36  55  87 126 167 208 250 301 366
#     4  10  17  32  59  90 123 160 199 244 305 368
#     4  12  26  45  67  93 122 160 208 260 310 368
#     4  11  23  40  61  88 121 162 208 260 314 369
#     4  10  19  33  55  84 122 165 205 249 305 366
#     4  11  21  39  64  93 125 163 203 253 311 368
#
# _framework density 20.284262999999999
#
# number of rings (size 3 to 8) (size 9 to 14) (size 15 to 20)
#    0.000    1.091    1.818    7.636    0.000    3.273 
#    0.000    4.091    0.000    0.545    0.000    3.818 
#    0.000    0.000    0.000    0.000    0.000    0.000 
#
# Total GULP energy -545082.931620 kJ/mol
# GULP energy per Si atom -12388.248446 kJ/mol
# Density = 2.023809 g / cm^3
# Si number density = 20.284263 Si / 1000 Ang^3
#
#
#
# Elastic Constant Matrix: (Units=GPa)
#
#
# Indices 1 2 3 4 5 6 
#
# 1 119.5139 60.2622 23.4943 0.0000 0.0000 0.0000
# 2 60.2622 154.5585 33.8443 0.0000 0.0000 0.0000
# 3 23.4943 33.8443 90.3256 0.0000 0.0000 0.0000
# 4 0.0000 0.0000 0.0000 31.9743 0.0000 0.0000
# 5 0.0000 0.0000 0.0000 0.0000 -14.1793 0.0000
# 6 0.0000 0.0000 0.0000 0.0000 0.0000 20.5591
#
#
#
# Elastic Compliance Matrix: (Units=1/GPa)
#
#
# Indices 1 2 3 4 5 6 
#
# 1 0.010555 -0.003828 -0.001311 0.000000 0.000000 0.000000
# 2 -0.003828 0.008437 -0.002165 0.000000 0.000000 0.000000
# 3 -0.001311 -0.002165 0.012223 0.000000 0.000000 0.000000
# 4 0.000000 0.000000 0.000000 0.031275 0.000000 0.000000
# 5 0.000000 0.000000 0.000000 0.000000 -0.070525 0.000000
# 6 0.000000 0.000000 0.000000 0.000000 0.000000 0.048640
#
#
# Mechanical properties :
#
#
# Convention : Reuss Voigt Hill
#
# Bulk Modulus (GPa) = 60.21961 66.62218 63.42090
# Shear Modulus (GPa) = 82.30326 24.12397 53.21361
#
# Velocity S-wave (km/s) = 6.37676 3.45236 5.12746
# Velocity P-wave (km/s) = 9.16350 6.98622 8.14791
#
# Compressibility (1/GPa) = 0.01660589
#
# Stress axis : x y z
#
# Youngs Moduli (GPa) = 94.73862 118.52661 81.81002
#
# Poissons Ratio (x) = 0.45377 0.10726
# Poissons Ratio (y) = 0.36270 0.17716
# Poissons Ratio (z) = 0.12421 0.25666
#
# Static dielectric constant tensor:
#      x y z
#    x 3.650660 0.000000 0.000000 
#    y 0.000000 3.930580 0.000000 
#    z 0.000000 0.000000 3.483980 
# 
# 
# High freq. dielectric constant tensor:
#      x y z
#    x 1.765910 0.000000 0.000000 
#    y 0.000000 1.810500 0.000000 
#    z 0.000000 0.000000 1.781440 
# 
# From -- ./inp_files/8989.got.cif
#   From: 2010.03.12/outbox.cif.g09.slc.cpg/sg66_5_cif.got.tgz:8989.got - 2010.04.10 21:57:39.
