data_PCOD8275027
_publ_section_title
;
Structure prediction by ZEFSAII (Michael W. Deem and Ramdas Pophale) SiO2 
 PCOD8275027
Probable space group: C M M M
;
_chemical_formula_sum "Si O2"
_cell_formula_units_Z 104
_cell_length_a 24.619011
_cell_length_b 19.174906
_cell_length_c 12.840238
_cell_angle_alpha 90.000000
_cell_angle_beta 90.000000
_cell_angle_gamma 90.000000
_cell_volume 6061.455479
_symmetry_space_group_name_H-M "C M M M"
_symmetry_group_IT_number 65
_symmetry_cell_setting 'orthorhombic'
loop_
_space_group_symop_operation_xyz
x,y,z
-x,-y,z
x,-y,-z
-x,y,-z
-x,-y,-z
x,y,-z
-x,y,z
x,-y,z
1/2+x,1/2+y,z
1/2-x,1/2-y,z
1/2+x,1/2-y,-z
1/2-x,1/2+y,-z
1/2-x,1/2-y,-z
1/2+x,1/2+y,-z
1/2-x,1/2+y,z
1/2+x,1/2-y,z
loop_
_atom_site_type_symbol
_atom_site_label
_atom_site_fract_x
_atom_site_fract_y
_atom_site_fract_z
Si Si1 0.438918 0.693856 0.234857
Si Si2 0.935688 0.923563 0.614914
Si Si3 0.236565 0.923271 0.877419
Si Si4 0.846968 0.646144 0.877742
Si Si5 0.835666 0.800262 0.880944
Si Si6 0.937978 0.649397 0.286273
Si Si7 0.564365 0.920833 0.500000
O O1 0.500000 0.676149 0.198043
O O2 0.413010 0.636450 0.311328
O O3 0.400485 0.690832 0.134132
O O4 0.436856 0.767037 0.295295
O O5 0.910559 0.913903 0.500000
O O6 0.000000 0.915983 0.607952
O O7 0.919858 0.000000 0.659093
O O8 0.300027 0.909434 0.855183
O O9 0.199315 0.861983 0.825407
O O10 0.222220 0.000000 0.830498
O O11 0.225906 0.924933 0.000000
O O12 0.822226 0.721661 0.842457
O O13 0.899662 0.625027 0.809382
O O14 0.864011 0.647708 0.000000
O O15 0.820125 0.805319 0.000000
O O16 0.915357 0.618195 0.395171
O O17 0.000000 0.623924 0.264107
O O18 0.500000 0.919781 0.500000
O O19 0.586724 0.000000 0.500000
#
# Coordination Sequence:
#
# PCOD8275027 Si02
#       7
#    16  16  16  16  16  16   8
#     4   9  17  27  42  66  92 121 154 187 222 267
#     4   8  14  24  38  57  81 110 145 185 225 261
#     4   9  17  29  46  67  88 114 155 200 233 267
#     4   9  17  30  48  70  96 123 152 189 233 278
#     4   9  17  29  44  64  92 124 153 185 228 272
#     4   9  18  30  46  71  97 124 156 187 225 272
#     4   9  18  32  48  66  92 125 159 193 224 265
#
# _framework density 17.157596000000002
#
# number of rings (size 3 to 8) (size 9 to 14) (size 15 to 20)
#    0.000    3.154    0.000    0.923    1.077    3.692 
#    0.000    3.077    0.000    0.000    2.000   10.769 
#    0.000    0.000    0.000    0.000    0.000    0.000 
#
# Total GULP energy -644215.507236 kJ/mol
# GULP energy per Si atom -12388.759755 kJ/mol
# Density = 1.711854 g / cm^3
# Si number density = 17.157596 Si / 1000 Ang^3
#
#
#
# Elastic Constant Matrix: (Units=GPa)
#
#
# Indices 1 2 3 4 5 6 
#
# 1 61.4006 28.8337 23.8666 0.0000 0.0000 0.0000
# 2 28.8337 75.1857 17.9511 0.0000 0.0000 0.0000
# 3 23.8666 17.9511 42.9681 0.0000 0.0000 0.0000
# 4 0.0000 0.0000 0.0000 19.5877 0.0000 0.0000
# 5 0.0000 0.0000 0.0000 0.0000 9.0885 0.0000
# 6 0.0000 0.0000 0.0000 0.0000 0.0000 17.3526
#
#
#
# Elastic Compliance Matrix: (Units=1/GPa)
#
#
# Indices 1 2 3 4 5 6 
#
# 1 0.023317 -0.006498 -0.010237 0.000000 0.000000 0.000000
# 2 -0.006498 0.016585 -0.003320 0.000000 0.000000 0.000000
# 3 -0.010237 -0.003320 0.030346 0.000000 0.000000 0.000000
# 4 0.000000 0.000000 0.000000 0.051053 0.000000 0.000000
# 5 0.000000 0.000000 0.000000 0.000000 0.110029 0.000000
# 6 0.000000 0.000000 0.000000 0.000000 0.000000 0.057628
#
#
# Mechanical properties :
#
#
# Convention : Reuss Voigt Hill
#
# Bulk Modulus (GPa) = 33.17915 35.65080 34.41498
# Shear Modulus (GPa) = 14.74435 16.46594 15.60515
#
# Velocity S-wave (km/s) = 2.93464 3.10124 3.01909
# Velocity P-wave (km/s) = 5.55542 5.80062 5.67934
#
# Compressibility (1/GPa) = 0.03013941
#
# Stress axis : x y z
#
# Youngs Moduli (GPa) = 42.88731 60.29576 32.95340
#
# Poissons Ratio (x) = 0.39180 0.33733
# Poissons Ratio (y) = 0.27868 0.10939
# Poissons Ratio (z) = 0.43902 0.20015
#
# Static dielectric constant tensor:
#      x y z
#    x 3.028030 0.000000 0.000000 
#    y 0.000000 3.542100 0.000000 
#    z 0.000000 0.000000 3.064360 
# 
# 
# High freq. dielectric constant tensor:
#      x y z
#    x 1.636230 0.000000 0.000000 
#    y 0.000000 1.675330 0.000000 
#    z 0.000000 0.000000 1.623800 
# 
# From -- ./inp_files/31054.got.cif
#   From: 2010.03.12/outbox.cif.g09.slc.cpg/sg65_16_cif.got.tgz:31054.got - 2010.04.10 20:52:16.
