data_PCOD8275825
_publ_section_title
;
Structure prediction by ZEFSAII (Michael W. Deem and Ramdas Pophale) SiO2 
 PCOD8275825
Probable space group: C C C M
;
_chemical_formula_sum "Si O2"
_cell_formula_units_Z 112
_cell_length_a 19.133728
_cell_length_b 19.323726
_cell_length_c 17.727919
_cell_angle_alpha 90.000000
_cell_angle_beta 90.000000
_cell_angle_gamma 90.000000
_cell_volume 6554.630664
_symmetry_space_group_name_H-M "C C C M"
_symmetry_group_IT_number 66
_symmetry_cell_setting 'orthorhombic'
loop_
_space_group_symop_operation_xyz
x,y,z
-x,-y,z
x,-y,1/2-z
-x,y,1/2-z
-x,-y,-z
x,y,-z
-x,y,1/2+z
x,-y,1/2+z
1/2+x,1/2+y,z
1/2-x,1/2-y,z
1/2+x,1/2-y,1/2-z
1/2-x,1/2+y,1/2-z
1/2-x,1/2-y,-z
1/2+x,1/2+y,-z
1/2-x,1/2+y,1/2+z
1/2+x,1/2-y,1/2+z
loop_
_atom_site_type_symbol
_atom_site_label
_atom_site_fract_x
_atom_site_fract_y
_atom_site_fract_z
Si Si1 0.363326 0.251314 0.088895
Si Si2 0.444498 0.060086 0.584909
Si Si3 0.752358 0.853872 0.587964
Si Si4 0.746560 0.358669 0.588821
Si Si5 0.504295 0.199351 0.161330
Si Si6 0.298332 0.996387 0.910695
Si Si7 0.635948 0.249924 0.911033
O O1 0.327413 0.324465 0.115486
O O2 0.309657 0.191141 0.110597
O O3 0.433695 0.234326 0.132144
O O4 0.378637 0.252318 0.000000
O O5 0.427861 0.087024 0.500000
O O6 0.478659 0.123297 0.629897
O O7 0.374258 0.026538 0.621690
O O8 0.500000 0.000000 0.582861
O O9 0.760467 0.841442 0.500000
O O10 0.755111 0.934444 0.610086
O O11 0.677325 0.820924 0.609961
O O12 0.818241 0.813449 0.622785
O O13 0.741279 0.367136 0.500000
O O14 0.765277 0.433737 0.625517
O O15 0.500000 0.193498 0.250000
O O16 0.564650 0.251720 0.135374
O O17 0.306703 0.006476 0.000000
O O18 0.620004 0.255884 0.000000
#
# Coordination Sequence:
#
# PCOD8275825 Si02
#       7
#    16  16  16  16  16  16  16
#     4   9  17  32  51  70  95 131 170 205 241 290
#     4  10  19  31  50  74 101 133 163 193 241 308
#     4   8  14  25  47  73  96 120 153 205 256 294
#     4   8  15  28  50  76  97 121 162 209 247 287
#     4  12  23  32  45  71 102 138 165 202 245 287
#     4   9  14  24  46  77 101 117 149 202 254 294
#     4   9  16  30  49  70  95 125 162 200 243 298
#
# _framework density 17.087156
#
# number of rings (size 3 to 8) (size 9 to 14) (size 15 to 20)
#    0.000    2.714    1.429    3.857    0.000    2.571 
#    0.000    2.857    0.000    0.857    0.000    6.000 
#    0.000    0.000    0.000    0.000    0.000    0.000 
#
# Total GULP energy -693781.235024 kJ/mol
# GULP energy per Si atom -12388.950625 kJ/mol
# Density = 1.704826 g / cm^3
# Si number density = 17.087156 Si / 1000 Ang^3
#
#
#
# Elastic Constant Matrix: (Units=GPa)
#
#
# Indices 1 2 3 4 5 6 
#
# 1 129.8629 72.5514 41.7865 0.0000 0.0000 0.0000
# 2 72.5514 125.5987 24.5742 0.0000 0.0000 0.0000
# 3 41.7865 24.5742 49.6786 0.0000 0.0000 0.0000
# 4 0.0000 0.0000 0.0000 9.7057 0.0000 0.0000
# 5 0.0000 0.0000 0.0000 0.0000 -3.7948 0.0000
# 6 0.0000 0.0000 0.0000 0.0000 0.0000 26.5432
#
#
#
# Elastic Compliance Matrix: (Units=1/GPa)
#
#
# Indices 1 2 3 4 5 6 
#
# 1 0.014087 -0.006442 -0.008662 0.000000 0.000000 0.000000
# 2 -0.006442 0.011761 -0.000399 0.000000 0.000000 0.000000
# 3 -0.008662 -0.000399 0.027613 0.000000 0.000000 0.000000
# 4 0.000000 0.000000 0.000000 0.103032 0.000000 0.000000
# 5 0.000000 0.000000 0.000000 0.000000 -0.263522 0.000000
# 6 0.000000 0.000000 0.000000 0.000000 0.000000 0.037674
#
#
# Mechanical properties :
#
#
# Convention : Reuss Voigt Hill
#
# Bulk Modulus (GPa) = 44.53554 64.77382 54.65468
# Shear Modulus (GPa) = -162.01056 17.57270 -72.21893
#
# Velocity S-wave (km/s) = -9.74782 3.21037 -6.50821
# Velocity P-wave (km/s) = 10.02861 7.19251 4.94171
#
# Compressibility (1/GPa) = 0.02245398
#
# Stress axis : x y z
#
# Youngs Moduli (GPa) = 70.98777 85.02428 36.21499
#
# Poissons Ratio (x) = 0.54776 0.31370
# Poissons Ratio (y) = 0.45733 0.01445
# Poissons Ratio (z) = 0.61491 0.03392
#
# Static dielectric constant tensor:
#      x y z
#    x 3.324660 0.000000 0.000000 
#    y 0.000000 3.205250 0.000000 
#    z 0.000000 0.000000 2.524460 
# 
# 
# High freq. dielectric constant tensor:
#      x y z
#    x 1.658860 0.000000 0.000000 
#    y 0.000000 1.660200 0.000000 
#    z 0.000000 0.000000 1.604720 
# 
# From -- ./inp_files/41981.got.cif
#   From: 2010.03.12/outbox.cif.g09.slc.cpg/sg66_21_cif.got.tgz:41981.got - 2010.04.10 21:57:39.
