data_PCOD8275250
_publ_section_title
;
Structure prediction by ZEFSAII (Michael W. Deem and Ramdas Pophale) SiO2 
 PCOD8275250
Probable space group: C C C M
;
_chemical_formula_sum "Si O2"
_cell_formula_units_Z 96
_cell_length_a 24.150339
_cell_length_b 14.281400
_cell_length_c 14.043568
_cell_angle_alpha 90.000000
_cell_angle_beta 90.000000
_cell_angle_gamma 90.000000
_cell_volume 4843.635751
_symmetry_space_group_name_H-M "C C C M"
_symmetry_group_IT_number 66
_symmetry_cell_setting 'orthorhombic'
loop_
_space_group_symop_operation_xyz
x,y,z
-x,-y,z
x,-y,1/2-z
-x,y,1/2-z
-x,-y,-z
x,y,-z
-x,y,1/2+z
x,-y,1/2+z
1/2+x,1/2+y,z
1/2-x,1/2-y,z
1/2+x,1/2-y,1/2-z
1/2-x,1/2+y,1/2-z
1/2-x,1/2-y,-z
1/2+x,1/2+y,-z
1/2-x,1/2+y,1/2+z
1/2+x,1/2-y,1/2+z
loop_
_atom_site_type_symbol
_atom_site_label
_atom_site_fract_x
_atom_site_fract_y
_atom_site_fract_z
Si Si1 0.152157 0.099711 0.299319
Si Si2 0.273932 0.096372 0.301509
Si Si3 0.270488 0.985079 0.000000
Si Si4 0.115074 0.398468 0.207322
Si Si5 0.443126 0.282996 0.204506
Si Si6 0.145376 0.634595 0.500000
Si Si7 0.142371 0.975260 0.000000
Si Si8 0.909416 0.821482 0.000000
O O1 0.213901 0.149284 0.298205
O O2 0.109653 0.161227 0.241539
O O3 0.155613 0.000000 0.250000
O O4 0.129670 0.087205 0.407120
O O5 0.291090 0.075588 0.410290
O O6 0.326207 0.143892 0.247934
O O7 0.262171 0.000000 0.250000
O O8 0.293106 0.091738 0.000000
O O9 0.205919 0.004233 0.000000
O O10 0.101547 0.500000 0.250000
O O11 0.066680 0.325395 0.233759
O O12 0.115432 0.406422 0.093319
O O13 0.500000 0.319369 0.250000
O O14 0.447282 0.299406 0.091494
O O15 0.143102 0.748620 0.500000
O O16 0.107993 0.070912 0.000000
#
# Coordination Sequence:
#
# PCOD8275250 Si02
#       8
#    16  16   8  16  16   8   8   8
#     4  10  20  37  58  84 121 155 188 235 294 346
#     4   9  17  30  54  85 117 153 184 228 288 355
#     4  10  16  29  53  88 124 149 191 235 284 355
#     4  10  20  37  61  87 117 154 189 240 296 355
#     4  11  25  42  60  85 116 153 204 250 284 342
#     4  10  18  31  55  88 118 149 189 237 293 345
#     4  10  20  36  58  87 120 158 195 239 289 347
#     4  10  22  40  58  83 116 146 199 256 289 339
#
# _framework density 19.819823
#
# number of rings (size 3 to 8) (size 9 to 14) (size 15 to 20)
#    0.000    2.000    5.000    0.000    0.000    2.333 
#    0.000    7.500    0.000    6.000    0.000    0.000 
#    0.000    0.000    0.000    0.000    0.000    0.000 
#
# Total GULP energy -594748.558196 kJ/mol
# GULP energy per Si atom -12390.594962 kJ/mol
# Density = 1.977471 g / cm^3
# Si number density = 19.819823 Si / 1000 Ang^3
#
#
#
# Elastic Constant Matrix: (Units=GPa)
#
#
# Indices 1 2 3 4 5 6 
#
# 1 75.4135 14.1424 29.4764 0.0000 0.0000 0.0000
# 2 14.1424 36.9844 16.5917 0.0000 0.0000 0.0000
# 3 29.4764 16.5917 149.3408 0.0000 0.0000 0.0000
# 4 0.0000 0.0000 0.0000 17.0662 0.0000 0.0000
# 5 0.0000 0.0000 0.0000 0.0000 61.1663 0.0000
# 6 0.0000 0.0000 0.0000 0.0000 0.0000 17.7866
#
#
#
# Elastic Compliance Matrix: (Units=1/GPa)
#
#
# Indices 1 2 3 4 5 6 
#
# 1 0.015098 -0.004669 -0.002461 0.000000 0.000000 0.000000
# 2 -0.004669 0.029901 -0.002400 0.000000 0.000000 0.000000
# 3 -0.002461 -0.002400 0.007449 0.000000 0.000000 0.000000
# 4 0.000000 0.000000 0.000000 0.058595 0.000000 0.000000
# 5 0.000000 0.000000 0.000000 0.000000 0.016349 0.000000
# 6 0.000000 0.000000 0.000000 0.000000 0.000000 0.056222
#
#
# Mechanical properties :
#
#
# Convention : Reuss Voigt Hill
#
# Bulk Modulus (GPa) = 29.95297 42.46219 36.20758
# Shear Modulus (GPa) = 23.38599 32.63905 28.01252
#
# Velocity S-wave (km/s) = 3.43874 4.06247 3.76354
# Velocity P-wave (km/s) = 5.55985 6.59359 6.09867
#
# Compressibility (1/GPa) = 0.03338567
#
# Stress axis : x y z
#
# Youngs Moduli (GPa) = 66.23472 33.44405 134.25413
#
# Poissons Ratio (x) = 0.15615 0.33043
# Poissons Ratio (y) = 0.30926 0.32226
# Poissons Ratio (z) = 0.16302 0.08028
#
# Static dielectric constant tensor:
#      x y z
#    x 3.448410 0.000000 0.000000 
#    y 0.000000 3.407950 0.000000 
#    z 0.000000 0.000000 4.490120 
# 
# 
# High freq. dielectric constant tensor:
#      x y z
#    x 1.746490 0.000000 0.000000 
#    y 0.000000 1.750150 0.000000 
#    z 0.000000 0.000000 1.794640 
# 
# From -- ./inp_files/32407.got.cif
#   From: 2010.03.12/outbox.cif.g09.slc.cpg/sg66_17_cif.got.tgz:32407.got - 2010.04.10 21:57:39.
