data_PCOD8275937
_publ_section_title
;
Structure prediction by ZEFSAII (Michael W. Deem and Ramdas Pophale) SiO2 
 PCOD8275937
Probable space group: C C C M
;
_chemical_formula_sum "Si O2"
_cell_formula_units_Z 60
_cell_length_a 11.708173
_cell_length_b 20.890189
_cell_length_c 13.484043
_cell_angle_alpha 90.000000
_cell_angle_beta 90.000000
_cell_angle_gamma 90.000000
_cell_volume 3298.007424
_symmetry_space_group_name_H-M "C C C M"
_symmetry_group_IT_number 66
_symmetry_cell_setting 'orthorhombic'
loop_
_space_group_symop_operation_xyz
x,y,z
-x,-y,z
x,-y,1/2-z
-x,y,1/2-z
-x,-y,-z
x,y,-z
-x,y,1/2+z
x,-y,1/2+z
1/2+x,1/2+y,z
1/2-x,1/2-y,z
1/2+x,1/2-y,1/2-z
1/2-x,1/2+y,1/2-z
1/2-x,1/2-y,-z
1/2+x,1/2+y,-z
1/2-x,1/2+y,1/2+z
1/2+x,1/2-y,1/2+z
loop_
_atom_site_type_symbol
_atom_site_label
_atom_site_fract_x
_atom_site_fract_y
_atom_site_fract_z
Si Si1 0.312133 0.444964 0.115008
Si Si2 0.686465 0.186189 0.615078
Si Si3 0.387472 0.042270 0.389420
Si Si4 0.000000 0.000000 0.750000
Si Si5 0.500000 0.138745 0.750000
O O1 0.264014 0.374977 0.138771
O O2 0.218959 0.498804 0.143080
O O3 0.424141 0.454286 0.180924
O O4 0.346149 0.450517 0.000000
O O5 0.654069 0.189024 0.500000
O O6 0.750000 0.250000 0.650275
O O7 0.567421 0.183064 0.673360
O O8 0.367944 0.070797 0.500000
O O9 0.404931 0.097707 0.309236
O O10 0.500000 0.000000 0.390021
#
# Coordination Sequence:
#
# PCOD8275937 Si02
#       5
#    16  16  16   4   8
#     4  10  21  36  53  78 109 141 177 218 271 325
#     4  10  22  38  54  76 108 145 182 222 267 318
#     4  10  19  32  55  88 115 130 163 230 295 328
#     4  12  22  34  54  76 108 148 178 216 256 326
#     4  12  19  31  60  85 108 135 180 226 272 331
#
# _framework density 18.192803000000001
#
# number of rings (size 3 to 8) (size 9 to 14) (size 15 to 20)
#    0.000    1.600    2.667    3.200    0.000    1.067 
#    0.000    0.000    0.000    3.200    0.000    0.000 
#    0.000    0.000    0.000    0.000    0.000    0.000 
#
# Total GULP energy -372060.946811 kJ/mol
# GULP energy per Si atom -12402.031560 kJ/mol
# Density = 1.815140 g / cm^3
# Si number density = 18.192803 Si / 1000 Ang^3
#
#
#
# Elastic Constant Matrix: (Units=GPa)
#
#
# Indices 1 2 3 4 5 6 
#
# 1 120.2876 57.6750 63.0733 0.0000 0.0000 0.0000
# 2 57.6750 106.6946 53.6654 0.0000 0.0000 0.0000
# 3 63.0733 53.6654 94.6756 0.0000 0.0000 0.0000
# 4 0.0000 0.0000 0.0000 27.9791 0.0000 0.0000
# 5 0.0000 0.0000 0.0000 0.0000 46.3781 0.0000
# 6 0.0000 0.0000 0.0000 0.0000 0.0000 19.4076
#
#
#
# Elastic Compliance Matrix: (Units=1/GPa)
#
#
# Indices 1 2 3 4 5 6 
#
# 1 0.013895 -0.003994 -0.006993 0.000000 0.000000 0.000000
# 2 -0.003994 0.014258 -0.005421 0.000000 0.000000 0.000000
# 3 -0.006993 -0.005421 0.018294 0.000000 0.000000 0.000000
# 4 0.000000 0.000000 0.000000 0.035741 0.000000 0.000000
# 5 0.000000 0.000000 0.000000 0.000000 0.021562 0.000000
# 6 0.000000 0.000000 0.000000 0.000000 0.000000 0.051526
#
#
# Mechanical properties :
#
#
# Convention : Reuss Voigt Hill
#
# Bulk Modulus (GPa) = 73.36215 74.49834 73.93024
# Shear Modulus (GPa) = 25.95545 28.56924 27.26235
#
# Velocity S-wave (km/s) = 3.78125 3.96708 3.87528
# Velocity P-wave (km/s) = 7.71208 7.87539 7.79416
#
# Compressibility (1/GPa) = 0.01363101
#
# Stress axis : x y z
#
# Youngs Moduli (GPa) = 71.96686 70.13458 54.66151
#
# Poissons Ratio (x) = 0.28010 0.38226
# Poissons Ratio (y) = 0.28742 0.29634
# Poissons Ratio (z) = 0.50329 0.38023
#
# Static dielectric constant tensor:
#      x y z
#    x 3.128790 0.000000 0.000000 
#    y 0.000000 3.243190 0.000000 
#    z 0.000000 0.000000 3.723190 
# 
# 
# High freq. dielectric constant tensor:
#      x y z
#    x 1.695390 0.000000 0.000000 
#    y 0.000000 1.677930 0.000000 
#    z 0.000000 0.000000 1.729230 
# 
# From -- ./inp_files/26014.got.cif
#   From: 2010.03.12/outbox.cif.g09.slc.cpg/sg66_14_cif.got.tgz:26014.got - 2010.04.10 21:57:39.
