data_PCOD8275876
_publ_section_title
;
Structure prediction by ZEFSAII (Michael W. Deem and Ramdas Pophale) SiO2 
 PCOD8275876
Probable space group: C C C M
;
_chemical_formula_sum "Si O2"
_cell_formula_units_Z 80
_cell_length_a 18.069585
_cell_length_b 27.156656
_cell_length_c 8.884874
_cell_angle_alpha 90.000000
_cell_angle_beta 90.000000
_cell_angle_gamma 90.000000
_cell_volume 4359.892113
_symmetry_space_group_name_H-M "C C C M"
_symmetry_group_IT_number 66
_symmetry_cell_setting 'orthorhombic'
loop_
_space_group_symop_operation_xyz
x,y,z
-x,-y,z
x,-y,1/2-z
-x,y,1/2-z
-x,-y,-z
x,y,-z
-x,y,1/2+z
x,-y,1/2+z
1/2+x,1/2+y,z
1/2-x,1/2-y,z
1/2+x,1/2-y,1/2-z
1/2-x,1/2+y,1/2-z
1/2-x,1/2-y,-z
1/2+x,1/2+y,-z
1/2-x,1/2+y,1/2+z
1/2+x,1/2-y,1/2+z
loop_
_atom_site_type_symbol
_atom_site_label
_atom_site_fract_x
_atom_site_fract_y
_atom_site_fract_z
Si Si1 0.422483 0.091105 0.824558
Si Si2 0.791568 0.848905 0.324100
Si Si3 0.281326 0.951065 0.176517
Si Si4 0.651748 0.806958 0.825588
Si Si5 0.920949 0.205108 0.322321
O O1 0.500000 0.078128 0.750000
O O2 0.361540 0.056647 0.749025
O O3 0.403818 0.148188 0.794229
O O4 0.425827 0.078970 0.000000
O O5 0.803492 0.840466 0.500000
O O6 0.771685 0.905264 0.285486
O O7 0.726518 0.812700 0.269403
O O8 0.866696 0.837400 0.236257
O O9 0.245651 0.000000 0.250000
O O10 0.290933 0.958129 0.000000
O O11 0.610449 0.757984 0.770833
O O12 0.674838 0.803979 0.000000
O O13 0.928575 0.201667 0.500000
O O14 0.000000 0.196073 0.250000
#
# Coordination Sequence:
#
# PCOD8275876 Si02
#       5
#    16  16  16  16  16
#     4  10  19  32  50  74 107 142 176 214 255 299
#     4  10  21  36  55  79 106 136 172 214 258 307
#     4  10  21  37  56  77 100 130 171 216 263 313
#     4   9  19  34  52  76 107 144 180 212 249 297
#     4  11  22  35  53  78 109 142 176 213 255 303
#
# _framework density 18.349077000000001
#
# number of rings (size 3 to 8) (size 9 to 14) (size 15 to 20)
#    0.000    2.000    0.000    3.600    0.000    7.600 
#    0.000    2.000    0.000    0.600    0.000    4.200 
#    0.000    0.000    0.000    0.000    0.000    0.000 
#
# Total GULP energy -496214.526656 kJ/mol
# GULP energy per Si atom -12405.363166 kJ/mol
# Density = 1.830731 g / cm^3
# Si number density = 18.349077 Si / 1000 Ang^3
#
#
#
# Elastic Constant Matrix: (Units=GPa)
#
#
# Indices 1 2 3 4 5 6 
#
# 1 120.2045 55.4628 59.0118 0.0000 0.0000 0.0000
# 2 55.4628 98.8668 50.5221 0.0000 0.0000 0.0000
# 3 59.0118 50.5221 94.2988 0.0000 0.0000 0.0000
# 4 0.0000 0.0000 0.0000 21.8150 0.0000 0.0000
# 5 0.0000 0.0000 0.0000 0.0000 36.3321 0.0000
# 6 0.0000 0.0000 0.0000 0.0000 0.0000 13.9914
#
#
#
# Elastic Compliance Matrix: (Units=1/GPa)
#
#
# Indices 1 2 3 4 5 6 
#
# 1 0.013270 -0.004407 -0.005943 0.000000 0.000000 0.000000
# 2 -0.004407 0.015392 -0.005488 0.000000 0.000000 0.000000
# 3 -0.005943 -0.005488 0.017264 0.000000 0.000000 0.000000
# 4 0.000000 0.000000 0.000000 0.045840 0.000000 0.000000
# 5 0.000000 0.000000 0.000000 0.000000 0.027524 0.000000
# 6 0.000000 0.000000 0.000000 0.000000 0.000000 0.071472
#
#
# Mechanical properties :
#
#
# Convention : Reuss Voigt Hill
#
# Bulk Modulus (GPa) = 70.18222 71.48483 70.83352
# Shear Modulus (GPa) = 22.00800 24.31925 23.16362
#
# Velocity S-wave (km/s) = 3.46700 3.64451 3.55686
# Velocity P-wave (km/s) = 7.37280 7.53344 7.45355
#
# Compressibility (1/GPa) = 0.01424862
#
# Stress axis : x y z
#
# Youngs Moduli (GPa) = 75.35520 64.97021 57.92330
#
# Poissons Ratio (x) = 0.28636 0.34425
# Poissons Ratio (y) = 0.33213 0.31789
# Poissons Ratio (z) = 0.44785 0.35657
#
# Static dielectric constant tensor:
#      x y z
#    x 3.249600 0.000000 0.000000 
#    y 0.000000 3.449020 0.000000 
#    z 0.000000 0.000000 3.443970 
# 
# 
# High freq. dielectric constant tensor:
#      x y z
#    x 1.697440 0.000000 0.000000 
#    y 0.000000 1.709570 0.000000 
#    z 0.000000 0.000000 1.724860 
# 
# From -- ./inp_files/6643.got.cif
#   From: 2010.03.12/outbox.cif.g09.slc.cpg/sg66_4_cif.got.tgz:6643.got - 2010.04.10 21:57:39.
