data_PCOD8275149
_publ_section_title
;
Structure prediction by ZEFSAII (Michael W. Deem and Ramdas Pophale) SiO2 
 PCOD8275149
Probable space group: C M M M
;
_chemical_formula_sum "Si O2"
_cell_formula_units_Z 80
_cell_length_a 19.816647
_cell_length_b 18.171987
_cell_length_c 13.586884
_cell_angle_alpha 90.000000
_cell_angle_beta 90.000000
_cell_angle_gamma 90.000000
_cell_volume 4892.743608
_symmetry_space_group_name_H-M "C M M M"
_symmetry_group_IT_number 65
_symmetry_cell_setting 'orthorhombic'
loop_
_space_group_symop_operation_xyz
x,y,z
-x,-y,z
x,-y,-z
-x,y,-z
-x,-y,-z
x,y,-z
-x,y,z
x,-y,z
1/2+x,1/2+y,z
1/2-x,1/2-y,z
1/2+x,1/2-y,-z
1/2-x,1/2+y,-z
1/2-x,1/2-y,-z
1/2+x,1/2+y,-z
1/2-x,1/2+y,z
1/2+x,1/2-y,z
loop_
_atom_site_type_symbol
_atom_site_label
_atom_site_fract_x
_atom_site_fract_y
_atom_site_fract_z
Si Si1 0.920852 0.227377 0.387004
Si Si2 0.922296 0.920617 0.704141
Si Si3 0.139614 0.140487 0.889751
Si Si4 0.212359 0.416666 0.111353
Si Si5 0.676725 0.778318 0.229327
O O1 0.908396 0.247681 0.500000
O O2 0.894127 0.143930 0.366383
O O3 0.875739 0.281104 0.320138
O O4 0.000000 0.235265 0.358870
O O5 0.913513 0.898371 0.818031
O O6 0.000000 0.929902 0.681498
O O7 0.886951 0.000000 0.681972
O O8 0.207707 0.093833 0.884282
O O9 0.152053 0.224535 0.857340
O O10 0.109915 0.140898 0.000000
O O11 0.194828 0.500000 0.143791
O O12 0.176908 0.360625 0.186337
O O13 0.186919 0.401854 0.000000
O O14 0.750000 0.750000 0.266490
#
# Coordination Sequence:
#
# PCOD8275149 Si02
#       5
#    16  16  16  16  16
#     4   9  18  32  48  64  83 111 146 181 219 262
#     4   9  17  27  39  59  87 117 148 178 207 243
#     4   9  16  26  40  60  89 121 148 173 204 246
#     4   9  16  26  43  66  89 114 143 174 211 255
#     4   9  17  29  46  67  89 113 144 181 215 250
#
# _framework density 16.350745
#
# number of rings (size 3 to 8) (size 9 to 14) (size 15 to 20)
#    0.000    3.000    0.000    1.200    0.000    4.800 
#    0.000    3.000    0.000    3.000    0.000    2.800 
#    0.000    0.000    0.000    0.000    0.000    0.000 
#
# Total GULP energy -495752.216440 kJ/mol
# GULP energy per Si atom -12393.805411 kJ/mol
# Density = 1.631353 g / cm^3
# Si number density = 16.350745 Si / 1000 Ang^3
#
#
#
# Elastic Constant Matrix: (Units=GPa)
#
#
# Indices 1 2 3 4 5 6 
#
# 1 34.5913 27.7584 32.5639 0.0000 0.0000 0.0000
# 2 27.7584 112.6639 43.8099 0.0000 0.0000 0.0000
# 3 32.5639 43.8099 93.6226 0.0000 0.0000 0.0000
# 4 0.0000 0.0000 0.0000 16.3515 0.0000 0.0000
# 5 0.0000 0.0000 0.0000 0.0000 27.0381 0.0000
# 6 0.0000 0.0000 0.0000 0.0000 0.0000 17.3580
#
#
#
# Elastic Compliance Matrix: (Units=1/GPa)
#
#
# Indices 1 2 3 4 5 6 
#
# 1 0.046373 -0.006300 -0.013182 0.000000 0.000000 0.000000
# 2 -0.006300 0.011706 -0.003287 0.000000 0.000000 0.000000
# 3 -0.013182 -0.003287 0.016804 0.000000 0.000000 0.000000
# 4 0.000000 0.000000 0.000000 0.061156 0.000000 0.000000
# 5 0.000000 0.000000 0.000000 0.000000 0.036985 0.000000
# 6 0.000000 0.000000 0.000000 0.000000 0.000000 0.057610
#
#
# Mechanical properties :
#
#
# Convention : Reuss Voigt Hill
#
# Bulk Modulus (GPa) = 34.07462 49.90470 41.98966
# Shear Modulus (GPa) = 17.48535 21.26590 19.37563
#
# Velocity S-wave (km/s) = 3.27370 3.61031 3.44612
# Velocity P-wave (km/s) = 5.93081 6.92580 6.44753
#
# Compressibility (1/GPa) = 0.02934736
#
# Stress axis : x y z
#
# Youngs Moduli (GPa) = 21.56406 85.42533 59.50975
#
# Poissons Ratio (x) = 0.53817 0.78444
# Poissons Ratio (y) = 0.13585 0.19558
# Poissons Ratio (z) = 0.28425 0.28076
#
# Static dielectric constant tensor:
#      x y z
#    x 2.855050 0.000000 0.000000 
#    y 0.000000 3.317140 0.000000 
#    z 0.000000 0.000000 3.024920 
# 
# 
# High freq. dielectric constant tensor:
#      x y z
#    x 1.596370 0.000000 0.000000 
#    y 0.000000 1.625620 0.000000 
#    z 0.000000 0.000000 1.620980 
# 
# From -- ./inp_files/24622.got.cif
#   From: 2010.03.12/outbox.cif.g09.slc.cpg/sg65_13_cif.got.tgz:24622.got - 2010.04.10 20:52:16.
