data_PCOD8275007
_publ_section_title
;
Structure prediction by ZEFSAII (Michael W. Deem and Ramdas Pophale) SiO2 
 PCOD8275007
Probable space group: C M M M
;
_chemical_formula_sum "Si O2"
_cell_formula_units_Z 80
_cell_length_a 37.192628
_cell_length_b 13.562933
_cell_length_c 9.869436
_cell_angle_alpha 90.000000
_cell_angle_beta 90.000000
_cell_angle_gamma 90.000000
_cell_volume 4978.549366
_symmetry_space_group_name_H-M "C M M M"
_symmetry_group_IT_number 65
_symmetry_cell_setting 'orthorhombic'
loop_
_space_group_symop_operation_xyz
x,y,z
-x,-y,z
x,-y,-z
-x,y,-z
-x,-y,-z
x,y,-z
-x,y,z
x,-y,z
1/2+x,1/2+y,z
1/2-x,1/2-y,z
1/2+x,1/2-y,-z
1/2-x,1/2+y,-z
1/2-x,1/2-y,-z
1/2+x,1/2+y,-z
1/2-x,1/2+y,z
1/2+x,1/2-y,z
loop_
_atom_site_type_symbol
_atom_site_label
_atom_site_fract_x
_atom_site_fract_y
_atom_site_fract_z
Si Si1 0.040551 0.609989 0.160882
Si Si2 0.667436 0.110600 0.850488
Si Si3 0.353763 0.385579 0.342881
Si Si4 0.601410 0.746083 0.154645
Si Si5 0.708788 0.236679 0.344032
O O1 0.051278 0.500000 0.215202
O O2 0.066033 0.698658 0.214245
O O3 0.000000 0.634856 0.207343
O O4 0.043647 0.607793 0.000000
O O5 0.631576 0.172039 0.840021
O O6 0.696589 0.143262 0.741720
O O7 0.656000 0.000000 0.818293
O O8 0.684646 0.121304 0.000000
O O9 0.364071 0.369838 0.500000
O O10 0.348415 0.500000 0.307806
O O11 0.386608 0.343897 0.251711
O O12 0.315803 0.332072 0.308764
O O13 0.595751 0.707290 0.000000
O O14 0.704704 0.208309 0.500000
O O15 0.750000 0.250000 0.303765
#
# Coordination Sequence:
#
# PCOD8275007 Si02
#       5
#    16  16  16  16  16
#     4   8  13  22  40  68  97 120 141 168 208 257
#     4   9  17  28  42  62  88 115 139 165 204 253
#     4   9  18  32  47  62  83 113 147 181 218 258
#     4   9  16  27  45  67  89 112 142 179 211 245
#     4   9  18  31  46  64  84 107 139 179 219 257
#
# _framework density 16.068936999999998
#
# number of rings (size 3 to 8) (size 9 to 14) (size 15 to 20)
#    0.000    3.200    0.000    1.200    0.000    4.400 
#    0.000    2.000    0.000    3.000    0.000    5.600 
#    0.000    0.000    0.000    0.000    0.000    0.000 
#
# Total GULP energy -495716.412076 kJ/mol
# GULP energy per Si atom -12392.910302 kJ/mol
# Density = 1.603236 g / cm^3
# Si number density = 16.068937 Si / 1000 Ang^3
#
#
#
# Elastic Constant Matrix: (Units=GPa)
#
#
# Indices 1 2 3 4 5 6 
#
# 1 84.5284 34.2705 31.6456 0.0000 0.0000 0.0000
# 2 34.2705 86.7786 36.4447 0.0000 0.0000 0.0000
# 3 31.6456 36.4447 42.0732 0.0000 0.0000 0.0000
# 4 0.0000 0.0000 0.0000 -7.1427 0.0000 0.0000
# 5 0.0000 0.0000 0.0000 0.0000 16.8854 0.0000
# 6 0.0000 0.0000 0.0000 0.0000 0.0000 19.1408
#
#
#
# Elastic Compliance Matrix: (Units=1/GPa)
#
#
# Indices 1 2 3 4 5 6 
#
# 1 0.016702 -0.002075 -0.010765 0.000000 0.000000 0.000000
# 2 -0.002075 0.018371 -0.014352 0.000000 0.000000 0.000000
# 3 -0.010765 -0.014352 0.044297 0.000000 0.000000 0.000000
# 4 0.000000 0.000000 0.000000 -0.140002 0.000000 0.000000
# 5 0.000000 0.000000 0.000000 0.000000 0.059223 0.000000
# 6 0.000000 0.000000 0.000000 0.000000 0.000000 0.052245
#
#
# Mechanical properties :
#
#
# Convention : Reuss Voigt Hill
#
# Bulk Modulus (GPa) = 40.02368 46.45575 43.23972
# Shear Modulus (GPa) = 44.03443 13.17799 28.60621
#
# Velocity S-wave (km/s) = 5.24051 2.86683 4.22384
# Velocity P-wave (km/s) = 7.84722 6.31912 7.12426
#
# Compressibility (1/GPa) = 0.02498521
#
# Stress axis : x y z
#
# Youngs Moduli (GPa) = 59.87403 54.43494 22.57470
#
# Poissons Ratio (x) = 0.11294 0.24302
# Poissons Ratio (y) = 0.12423 0.32400
# Poissons Ratio (z) = 0.64455 0.78127
#
# Static dielectric constant tensor:
#      x y z
#    x 3.169480 0.000000 0.000000 
#    y 0.000000 3.087280 0.000000 
#    z 0.000000 0.000000 3.062810 
# 
# 
# High freq. dielectric constant tensor:
#      x y z
#    x 1.609660 0.000000 0.000000 
#    y 0.000000 1.609440 0.000000 
#    z 0.000000 0.000000 1.598280 
# 
# From -- ./inp_files/22853.got.cif
#   From: 2010.03.12/outbox.cif.g09.slc.cpg/sg65_12_cif.got.tgz:22853.got - 2010.04.10 20:52:16.
