data_PCOD8275236
_publ_section_title
;
Structure prediction by ZEFSAII (Michael W. Deem and Ramdas Pophale) SiO2 
 PCOD8275236
Probable space group: C C C M
;
_chemical_formula_sum "Si O2"
_cell_formula_units_Z 92
_cell_length_a 20.259637
_cell_length_b 9.333348
_cell_length_c 27.178670
_cell_angle_alpha 90.000000
_cell_angle_beta 90.000000
_cell_angle_gamma 90.000000
_cell_volume 5139.221300
_symmetry_space_group_name_H-M "C C C M"
_symmetry_group_IT_number 66
_symmetry_cell_setting 'orthorhombic'
loop_
_space_group_symop_operation_xyz
x,y,z
-x,-y,z
x,-y,1/2-z
-x,y,1/2-z
-x,-y,-z
x,y,-z
-x,y,1/2+z
x,-y,1/2+z
1/2+x,1/2+y,z
1/2-x,1/2-y,z
1/2+x,1/2-y,1/2-z
1/2-x,1/2+y,1/2-z
1/2-x,1/2-y,-z
1/2+x,1/2+y,-z
1/2-x,1/2+y,1/2+z
1/2+x,1/2-y,1/2+z
loop_
_atom_site_type_symbol
_atom_site_label
_atom_site_fract_x
_atom_site_fract_y
_atom_site_fract_z
Si Si1 0.668625 0.909540 0.608036
Si Si2 0.058829 0.105014 0.894369
Si Si3 0.058875 0.407241 0.844337
Si Si4 0.348800 0.996495 0.500000
Si Si5 0.000000 0.500000 0.750000
Si Si6 0.413783 0.296541 0.000000
Si Si7 0.681315 0.590125 0.396325
Si Si8 0.298507 0.500420 0.000000
O O1 0.659439 0.744383 0.625071
O O2 0.744473 0.954987 0.619004
O O3 0.627452 0.017111 0.641965
O O4 0.644319 0.916044 0.551053
O O5 0.056157 0.245331 0.861653
O O6 0.048524 0.148614 0.951463
O O7 0.128663 0.030689 0.881493
O O8 0.000000 0.000000 0.879010
O O9 0.000000 0.500000 0.869580
O O10 0.047708 0.404416 0.785072
O O11 0.405303 0.874668 0.500000
O O12 0.274738 0.935570 0.500000
O O13 0.340258 0.356330 0.000000
O O14 0.684231 0.604904 0.455155
#
# Coordination Sequence:
#
# PCOD8275236 Si02
#       8
#    16  16  16   8   4   8  16   8
#     4  10  18  33  56  82 120 149 195 222 272 331
#     4  11  21  35  55  83 122 155 192 226 273 330
#     4  10  21  40  62  81 102 144 183 233 286 348
#     4  10  16  27  48  81 110 159 200 225 256 329
#     4   8  24  44  66  82 100 140 180 236 316 338
#     4  10  18  30  44  81 121 160 190 229 266 308
#     4   9  19  31  52  84 117 159 182 231 265 322
#     4   8  16  27  44  70 122 160 193 217 267 309
#
# _framework density 17.901546
#
# number of rings (size 3 to 8) (size 9 to 14) (size 15 to 20)
#    0.522    1.739    1.739    2.087    0.000    2.783 
#    0.000    3.913    0.000    4.174    0.000    0.000 
#    0.000    0.000    0.000    0.000    0.000    0.000 
#
# Total GULP energy -569972.828131 kJ/mol
# GULP energy per Si atom -12390.713655 kJ/mol
# Density = 1.786080 g / cm^3
# Si number density = 17.901546 Si / 1000 Ang^3
#
#
#
# Elastic Constant Matrix: (Units=GPa)
#
#
# Indices 1 2 3 4 5 6 
#
# 1 105.8462 68.8019 41.9377 0.0000 0.0000 0.0000
# 2 68.8019 135.9548 48.1121 0.0000 0.0000 0.0000
# 3 41.9377 48.1121 92.7387 0.0000 0.0000 0.0000
# 4 0.0000 0.0000 0.0000 7.1851 0.0000 0.0000
# 5 0.0000 0.0000 0.0000 0.0000 15.6038 0.0000
# 6 0.0000 0.0000 0.0000 0.0000 0.0000 33.5734
#
#
#
# Elastic Compliance Matrix: (Units=1/GPa)
#
#
# Indices 1 2 3 4 5 6 
#
# 1 0.014938 -0.006332 -0.003471 0.000000 0.000000 0.000000
# 2 -0.006332 0.011693 -0.003203 0.000000 0.000000 0.000000
# 3 -0.003471 -0.003203 0.014014 0.000000 0.000000 0.000000
# 4 0.000000 0.000000 0.000000 0.139177 0.000000 0.000000
# 5 0.000000 0.000000 0.000000 0.000000 0.064087 0.000000
# 6 0.000000 0.000000 0.000000 0.000000 0.000000 0.029785
#
#
# Mechanical properties :
#
#
# Convention : Reuss Voigt Hill
#
# Bulk Modulus (GPa) = 68.32843 72.47145 70.39994
# Shear Modulus (GPa) = 16.41580 22.98498 19.70039
#
# Velocity S-wave (km/s) = 3.03149 3.58713 3.32096
# Velocity P-wave (km/s) = 7.10670 7.59789 7.35639
#
# Compressibility (1/GPa) = 0.01463520
#
# Stress axis : x y z
#
# Youngs Moduli (GPa) = 66.94140 85.52047 71.35656
#
# Poissons Ratio (x) = 0.54149 0.24765
# Poissons Ratio (y) = 0.42385 0.22856
# Poissons Ratio (z) = 0.23232 0.27393
#
# Static dielectric constant tensor:
#      x y z
#    x 3.351480 0.000000 0.000000 
#    y 0.000000 3.184040 0.000000 
#    z 0.000000 0.000000 2.945000 
# 
# 
# High freq. dielectric constant tensor:
#      x y z
#    x 1.696140 0.000000 0.000000 
#    y 0.000000 1.695170 0.000000 
#    z 0.000000 0.000000 1.644660 
# 
# From -- ./inp_files/70171.got.cif
#   From: 2010.03.12/outbox.cif.g09.slc.cpg/sg66_36_cif.got.tgz:70171.got - 2010.04.10 21:57:39.
