data_PCOD8275062
_publ_section_title
;
Structure prediction by ZEFSAII (Michael W. Deem and Ramdas Pophale) SiO2 
 PCOD8275062
Probable space group: C M M M
;
_chemical_formula_sum "Si O2"
_cell_formula_units_Z 64
_cell_length_a 9.335014
_cell_length_b 30.029994
_cell_length_c 12.346855
_cell_angle_alpha 90.000000
_cell_angle_beta 90.000000
_cell_angle_gamma 90.000000
_cell_volume 3461.198979
_symmetry_space_group_name_H-M "C M M M"
_symmetry_group_IT_number 65
_symmetry_cell_setting 'orthorhombic'
loop_
_space_group_symop_operation_xyz
x,y,z
-x,-y,z
x,-y,-z
-x,y,-z
-x,-y,-z
x,y,-z
-x,y,z
x,-y,z
1/2+x,1/2+y,z
1/2-x,1/2-y,z
1/2+x,1/2-y,-z
1/2-x,1/2+y,-z
1/2-x,1/2-y,-z
1/2+x,1/2+y,-z
1/2-x,1/2+y,z
1/2+x,1/2-y,z
loop_
_atom_site_type_symbol
_atom_site_label
_atom_site_fract_x
_atom_site_fract_y
_atom_site_fract_z
Si Si1 0.661260 0.052846 0.000000
Si Si2 0.832897 0.051450 0.208860
Si Si3 0.829979 0.876687 0.620796
Si Si4 0.167789 0.203699 0.235102
Si Si5 0.162261 0.794020 0.000000
O O1 0.744898 0.069519 0.893962
O O2 0.500000 0.072286 0.000000
O O3 0.658985 0.000000 0.000000
O O4 0.782352 0.079563 0.312993
O O5 0.000000 0.058821 0.182691
O O6 0.799595 0.000000 0.234462
O O7 0.764350 0.879399 0.500000
O O8 0.772485 0.832014 0.679005
O O9 0.000000 0.874808 0.615665
O O10 0.250000 0.250000 0.251385
O O11 0.000000 0.213047 0.253230
O O12 0.194830 0.181471 0.114686
O O13 0.250000 0.750000 0.000000
O O14 0.000000 0.778200 0.000000
#
# Coordination Sequence:
#
# PCOD8275062 Si02
#       5
#     8  16  16  16   8
#     4   9  17  30  49  73 101 129 156 192 242 294
#     4   9  17  30  50  74  98 126 161 199 237 282
#     4   9  18  31  47  70  98 127 162 202 241 281
#     4   9  17  30  48  68  92 122 155 194 240 287
#     4   8  14  25  42  64  86 111 145 184 228 277
#
# _framework density 18.490701000000001
#
# number of rings (size 3 to 8) (size 9 to 14) (size 15 to 20)
#    0.000    3.125    0.000    0.375    0.000    3.500 
#    0.000    7.500    0.000    8.250    0.000    3.500 
#    0.000    0.000    0.000    0.000    0.000    0.000 
#
# Total GULP energy -396497.954958 kJ/mol
# GULP energy per Si atom -12390.561092 kJ/mol
# Density = 1.844862 g / cm^3
# Si number density = 18.490701 Si / 1000 Ang^3
#
#
#
# Elastic Constant Matrix: (Units=GPa)
#
#
# Indices 1 2 3 4 5 6 
#
# 1 45.0406 30.3279 45.5554 0.0000 0.0000 0.0000
# 2 30.3279 98.0094 82.4709 0.0000 0.0000 0.0000
# 3 45.5554 82.4709 198.7977 0.0000 0.0000 0.0000
# 4 0.0000 0.0000 0.0000 32.2978 0.0000 0.0000
# 5 0.0000 0.0000 0.0000 0.0000 12.3497 0.0000
# 6 0.0000 0.0000 0.0000 0.0000 0.0000 16.7514
#
#
#
# Elastic Compliance Matrix: (Units=1/GPa)
#
#
# Indices 1 2 3 4 5 6 
#
# 1 0.030718 -0.005503 -0.004756 0.000000 0.000000 0.000000
# 2 -0.005503 0.016661 -0.005651 0.000000 0.000000 0.000000
# 3 -0.004756 -0.005651 0.008464 0.000000 0.000000 0.000000
# 4 0.000000 0.000000 0.000000 0.030962 0.000000 0.000000
# 5 0.000000 0.000000 0.000000 0.000000 0.080974 0.000000
# 6 0.000000 0.000000 0.000000 0.000000 0.000000 0.059697
#
#
# Mechanical properties :
#
#
# Convention : Reuss Voigt Hill
#
# Bulk Modulus (GPa) = 41.62634 73.17290 57.39962
# Shear Modulus (GPa) = 18.70532 24.51267 21.60899
#
# Velocity S-wave (km/s) = 3.18403 3.64493 3.42225
# Velocity P-wave (km/s) = 6.00652 7.57448 6.83561
#
# Compressibility (1/GPa) = 0.02402325
#
# Stress axis : x y z
#
# Youngs Moduli (GPa) = 32.55373 60.02124 118.14346
#
# Poissons Ratio (x) = 0.33032 0.56192
# Poissons Ratio (y) = 0.17915 0.66758
# Poissons Ratio (z) = 0.15483 0.33915
#
# Static dielectric constant tensor:
#      x y z
#    x 3.155380 0.000000 0.000000 
#    y 0.000000 3.136030 0.000000 
#    z 0.000000 0.000000 4.183640 
# 
# 
# High freq. dielectric constant tensor:
#      x y z
#    x 1.682790 0.000000 0.000000 
#    y 0.000000 1.702180 0.000000 
#    z 0.000000 0.000000 1.727600 
# 
# From -- ./inp_files/20988.got.cif
#   From: 2010.03.12/outbox.cif.g09.slc.cpg/sg65_11_cif.got.tgz:20988.got - 2010.04.10 20:52:16.
