data_PCOD8275722
_publ_section_title
;
Structure prediction by ZEFSAII (Michael W. Deem and Ramdas Pophale) SiO2 
 PCOD8275722
Probable space group: C C C M
;
_chemical_formula_sum "Si O2"
_cell_formula_units_Z 112
_cell_length_a 20.710249
_cell_length_b 22.767002
_cell_length_c 15.495213
_cell_angle_alpha 90.000000
_cell_angle_beta 90.000000
_cell_angle_gamma 90.000000
_cell_volume 7306.152227
_symmetry_space_group_name_H-M "C C C M"
_symmetry_group_IT_number 66
_symmetry_cell_setting 'orthorhombic'
loop_
_space_group_symop_operation_xyz
x,y,z
-x,-y,z
x,-y,1/2-z
-x,y,1/2-z
-x,-y,-z
x,y,-z
-x,y,1/2+z
x,-y,1/2+z
1/2+x,1/2+y,z
1/2-x,1/2-y,z
1/2+x,1/2-y,1/2-z
1/2-x,1/2+y,1/2-z
1/2-x,1/2-y,-z
1/2+x,1/2+y,-z
1/2-x,1/2+y,1/2+z
1/2+x,1/2-y,1/2+z
loop_
_atom_site_type_symbol
_atom_site_label
_atom_site_fract_x
_atom_site_fract_y
_atom_site_fract_z
Si Si1 0.459339 0.782217 0.836567
Si Si2 0.651955 0.278219 0.753648
Si Si3 0.274542 0.156796 0.742329
Si Si4 0.867118 0.382658 0.900193
Si Si5 0.912095 0.740873 0.093134
Si Si6 0.070447 0.507291 0.599308
Si Si7 0.152225 0.383075 0.100510
O O1 0.500000 0.796421 0.750000
O O2 0.405335 0.731233 0.823024
O O3 0.425504 0.841332 0.869527
O O4 0.509888 0.757591 0.905980
O O5 0.694714 0.220396 0.750614
O O6 0.697122 0.334794 0.772325
O O7 0.619132 0.286258 0.660013
O O8 0.303389 0.124610 0.658423
O O9 0.287449 0.122460 0.832858
O O10 0.888282 0.449202 0.887547
O O11 0.849841 0.368972 0.000000
O O12 0.892236 0.673813 0.111881
O O13 0.887516 0.761577 0.000000
O O14 0.058427 0.522578 0.500000
O O15 0.110483 0.562227 0.636654
O O16 0.000000 0.500000 0.644328
O O17 0.175275 0.390784 0.000000
#
# Coordination Sequence:
#
# PCOD8275722 Si02
#       7
#    16  16  16  16  16  16  16
#     4   9  16  27  41  57  78 105 133 166 206 242
#     4   8  16  28  40  53  76 103 132 172 207 233
#     4   9  17  30  41  54  75 104 141 174 201 234
#     4  10  19  29  41  57  81 112 142 170 197 229
#     4   9  15  24  41  62  80 100 130 165 205 248
#     4   9  17  28  41  59  83 109 138 172 204 229
#     4   9  17  28  42  59  80 107 137 171 205 235
#
# _framework density 15.329546000000001
#
# number of rings (size 3 to 8) (size 9 to 14) (size 15 to 20)
#    0.000    3.000    0.000    2.143    0.000    3.429 
#    0.000   10.000    0.000    0.000    0.000    0.000 
#    0.000    0.000    0.000   23.143    0.000   85.429 
#
# Total GULP energy -693857.764338 kJ/mol
# GULP energy per Si atom -12390.317220 kJ/mol
# Density = 1.529466 g / cm^3
# Si number density = 15.329546 Si / 1000 Ang^3
#
#
#
# Elastic Constant Matrix: (Units=GPa)
#
#
# Indices 1 2 3 4 5 6 
#
# 1 81.2181 36.2599 33.0836 0.0000 0.0000 0.0000
# 2 36.2599 39.1977 23.0888 0.0000 0.0000 0.0000
# 3 33.0836 23.0888 74.1725 0.0000 0.0000 0.0000
# 4 0.0000 0.0000 0.0000 12.9163 0.0000 0.0000
# 5 0.0000 0.0000 0.0000 0.0000 14.4854 0.0000
# 6 0.0000 0.0000 0.0000 0.0000 0.0000 19.9746
#
#
#
# Elastic Compliance Matrix: (Units=1/GPa)
#
#
# Indices 1 2 3 4 5 6 
#
# 1 0.022023 -0.017862 -0.004263 0.000000 0.000000 0.000000
# 2 -0.017862 0.045726 -0.006267 0.000000 0.000000 0.000000
# 3 -0.004263 -0.006267 0.017334 0.000000 0.000000 0.000000
# 4 0.000000 0.000000 0.000000 0.077422 0.000000 0.000000
# 5 0.000000 0.000000 0.000000 0.000000 0.069035 0.000000
# 6 0.000000 0.000000 0.000000 0.000000 0.000000 0.050063
#
#
# Mechanical properties :
#
#
# Convention : Reuss Voigt Hill
#
# Bulk Modulus (GPa) = 35.33510 42.16143 38.74826
# Shear Modulus (GPa) = 14.37520 16.28566 15.33043
#
# Velocity S-wave (km/s) = 3.06558 3.26294 3.16580
# Velocity P-wave (km/s) = 5.96915 6.46210 6.22051
#
# Compressibility (1/GPa) = 0.02830047
#
# Stress axis : x y z
#
# Youngs Moduli (GPa) = 45.40615 21.86935 57.68874
#
# Poissons Ratio (x) = 0.39062 0.24594
# Poissons Ratio (y) = 0.81103 0.36153
# Poissons Ratio (z) = 0.19358 0.13705
#
# Static dielectric constant tensor:
#      x y z
#    x 3.239030 0.000000 0.000000 
#    y 0.000000 2.681670 0.000000 
#    z 0.000000 0.000000 3.075720 
# 
# 
# High freq. dielectric constant tensor:
#      x y z
#    x 1.573140 0.000000 0.000000 
#    y 0.000000 1.538870 0.000000 
#    z 0.000000 0.000000 1.593980 
# 
# From -- ./inp_files/43030.got.cif
#   From: 2010.03.12/outbox.cif.g09.slc.cpg/sg66_22_cif.got.tgz:43030.got - 2010.04.10 21:57:39.
