data_PCOD8275761
_publ_section_title
;
Structure prediction by ZEFSAII (Michael W. Deem and Ramdas Pophale) SiO2 
 PCOD8275761
Probable space group: C C C M
;
_chemical_formula_sum "Si O2"
_cell_formula_units_Z 80
_cell_length_a 18.543567
_cell_length_b 26.628528
_cell_length_c 8.938998
_cell_angle_alpha 90.000000
_cell_angle_beta 90.000000
_cell_angle_gamma 90.000000
_cell_volume 4413.968989
_symmetry_space_group_name_H-M "C C C M"
_symmetry_group_IT_number 66
_symmetry_cell_setting 'orthorhombic'
loop_
_space_group_symop_operation_xyz
x,y,z
-x,-y,z
x,-y,1/2-z
-x,y,1/2-z
-x,-y,-z
x,y,-z
-x,y,1/2+z
x,-y,1/2+z
1/2+x,1/2+y,z
1/2-x,1/2-y,z
1/2+x,1/2-y,1/2-z
1/2-x,1/2+y,1/2-z
1/2-x,1/2-y,-z
1/2+x,1/2+y,-z
1/2-x,1/2+y,1/2+z
1/2+x,1/2-y,1/2+z
loop_
_atom_site_type_symbol
_atom_site_label
_atom_site_fract_x
_atom_site_fract_y
_atom_site_fract_z
Si Si1 0.291924 0.798957 0.173956
Si Si2 0.924222 0.654000 0.176734
Si Si3 0.352253 0.949347 0.324451
Si Si4 0.721964 0.596802 0.671472
Si Si5 0.428793 0.553381 0.824390
O O1 0.250000 0.750000 0.232802
O O2 0.365756 0.805896 0.265347
O O3 0.239025 0.845424 0.204812
O O4 0.312098 0.793726 0.000000
O O5 0.901377 0.597692 0.226161
O O6 0.000000 0.667581 0.250000
O O7 0.930293 0.658601 0.000000
O O8 0.353364 0.956778 0.500000
O O9 0.270287 0.939829 0.272575
O O10 0.383341 0.000000 0.250000
O O11 0.738574 0.582558 0.500000
O O12 0.638275 0.589478 0.710599
O O13 0.413100 0.500000 0.750000
O O14 0.500000 0.577952 0.750000
O O15 0.441470 0.546172 0.000000
#
# Coordination Sequence:
#
# PCOD8275761 Si02
#       5
#    16  16  16  16  16
#     4   9  18  35  58  79 101 131 166 206 253 302
#     4  10  21  36  54  77 105 136 170 208 251 299
#     4  10  20  32  49  74 102 134 170 206 246 295
#     4   9  18  32  50  72  98 129 166 206 247 297
#     4  10  19  30  45  66  94 127 162 198 240 289
#
# _framework density 18.124278
#
# number of rings (size 3 to 8) (size 9 to 14) (size 15 to 20)
#    0.000    2.400    0.000    3.000    0.000    6.400 
#    0.000    3.000    0.000    2.400    0.000    0.000 
#    0.000    0.000    0.000    0.000    0.000    0.000 
#
# Total GULP energy -496083.618628 kJ/mol
# GULP energy per Si atom -12402.090466 kJ/mol
# Density = 1.808303 g / cm^3
# Si number density = 18.124278 Si / 1000 Ang^3
#
#
#
# Elastic Constant Matrix: (Units=GPa)
#
#
# Indices 1 2 3 4 5 6 
#
# 1 147.6554 53.4176 52.7041 0.0000 0.0000 0.0000
# 2 53.4176 90.4570 36.4896 0.0000 0.0000 0.0000
# 3 52.7041 36.4896 77.6113 0.0000 0.0000 0.0000
# 4 0.0000 0.0000 0.0000 23.1938 0.0000 0.0000
# 5 0.0000 0.0000 0.0000 0.0000 29.3702 0.0000
# 6 0.0000 0.0000 0.0000 0.0000 0.0000 27.9716
#
#
#
# Elastic Compliance Matrix: (Units=1/GPa)
#
#
# Indices 1 2 3 4 5 6 
#
# 1 0.009933 -0.003881 -0.004921 0.000000 0.000000 0.000000
# 2 -0.003881 0.015159 -0.004492 0.000000 0.000000 0.000000
# 3 -0.004921 -0.004492 0.018338 0.000000 0.000000 0.000000
# 4 0.000000 0.000000 0.000000 0.043115 0.000000 0.000000
# 5 0.000000 0.000000 0.000000 0.000000 0.034048 0.000000
# 6 0.000000 0.000000 0.000000 0.000000 0.000000 0.035751
#
#
# Mechanical properties :
#
#
# Convention : Reuss Voigt Hill
#
# Bulk Modulus (GPa) = 59.37020 66.77182 63.07101
# Shear Modulus (GPa) = 26.51909 27.64792 27.08350
#
# Velocity S-wave (km/s) = 3.82930 3.90996 3.86984
# Velocity P-wave (km/s) = 7.23739 7.56999 7.40556
#
# Compressibility (1/GPa) = 0.01684347
#
# Stress axis : x y z
#
# Youngs Moduli (GPa) = 100.67635 65.96941 54.53159
#
# Poissons Ratio (x) = 0.25601 0.26833
# Poissons Ratio (y) = 0.39069 0.24494
# Poissons Ratio (z) = 0.49539 0.29631
#
# Static dielectric constant tensor:
#      x y z
#    x 3.412950 0.000000 0.000000 
#    y 0.000000 3.275750 0.000000 
#    z 0.000000 0.000000 3.370280 
# 
# 
# High freq. dielectric constant tensor:
#      x y z
#    x 1.703520 0.000000 0.000000 
#    y 0.000000 1.684440 0.000000 
#    z 0.000000 0.000000 1.708090 
# 
# From -- ./inp_files/6681.got.cif
#   From: 2010.03.12/outbox.cif.g09.slc.cpg/sg66_4_cif.got.tgz:6681.got - 2010.04.10 21:57:39.
