data_PCOD8275461
_publ_section_title
;
Structure prediction by ZEFSAII (Michael W. Deem and Ramdas Pophale) SiO2 
 PCOD8275461
Probable space group: C C C M
;
_chemical_formula_sum "Si O2"
_cell_formula_units_Z 104
_cell_length_a 23.433416
_cell_length_b 13.954268
_cell_length_c 17.902510
_cell_angle_alpha 90.000000
_cell_angle_beta 90.000000
_cell_angle_gamma 90.000000
_cell_volume 5854.052150
_symmetry_space_group_name_H-M "C C C M"
_symmetry_group_IT_number 66
_symmetry_cell_setting 'orthorhombic'
loop_
_space_group_symop_operation_xyz
x,y,z
-x,-y,z
x,-y,1/2-z
-x,y,1/2-z
-x,-y,-z
x,y,-z
-x,y,1/2+z
x,-y,1/2+z
1/2+x,1/2+y,z
1/2-x,1/2-y,z
1/2+x,1/2-y,1/2-z
1/2-x,1/2+y,1/2-z
1/2-x,1/2-y,-z
1/2+x,1/2+y,-z
1/2-x,1/2+y,1/2+z
1/2+x,1/2-y,1/2+z
loop_
_atom_site_type_symbol
_atom_site_label
_atom_site_fract_x
_atom_site_fract_y
_atom_site_fract_z
Si Si1 0.469160 0.094787 0.587874
Si Si2 0.145410 0.693519 0.914190
Si Si3 0.486407 0.703786 0.584991
Si Si4 0.750000 0.250000 0.822952
Si Si5 0.822546 0.897079 0.234707
Si Si6 0.873808 0.090877 0.583220
Si Si7 0.407592 0.386181 0.361214
O O1 0.464388 0.079189 0.500000
O O2 0.404213 0.120079 0.616718
O O3 0.509734 0.184560 0.608199
O O4 0.500000 0.000000 0.623620
O O5 0.205864 0.685539 0.871233
O O6 0.124739 0.802818 0.906471
O O7 0.157956 0.669990 0.000000
O O8 0.509152 0.691458 0.500000
O O9 0.422029 0.670946 0.592198
O O10 0.525327 0.638518 0.639407
O O11 0.781972 0.181453 0.767152
O O12 0.827387 0.882423 0.145660
O O13 0.884405 0.892950 0.276264
O O14 0.794253 0.000000 0.250000
O O15 0.846901 0.096694 0.500000
O O16 0.898547 0.985211 0.595541
#
# Coordination Sequence:
#
# PCOD8275461 Si02
#       7
#    16  16  16   8  16  16  16
#     4   8  14  26  43  66 100 133 158 191 236 286
#     4   9  16  27  48  76  98 122 158 198 247 298
#     4   9  16  25  42  70  98 126 158 188 224 277
#     4  10  19  34  51  66  92 124 162 216 255 278
#     4   9  20  35  49  67  91 123 157 192 242 291
#     4  10  18  29  46  69  97 125 154 188 228 282
#     4   9  16  28  47  71  99 123 146 184 237 289
#
# _framework density 17.765471000000002
#
# number of rings (size 3 to 8) (size 9 to 14) (size 15 to 20)
#    0.000    2.923    0.000    3.000    0.000    1.846 
#    0.000    5.000    0.000    0.000    0.000    9.692 
#    0.000    0.000    0.000    0.000    0.000    0.769 
#
# Total GULP energy -644337.623452 kJ/mol
# GULP energy per Si atom -12391.108143 kJ/mol
# Density = 1.772504 g / cm^3
# Si number density = 17.765471 Si / 1000 Ang^3
#
#
#
# Elastic Constant Matrix: (Units=GPa)
#
#
# Indices 1 2 3 4 5 6 
#
# 1 78.1717 48.0371 43.5466 0.0000 0.0000 0.0000
# 2 48.0371 99.1559 37.1351 0.0000 0.0000 0.0000
# 3 43.5466 37.1351 103.7319 0.0000 0.0000 0.0000
# 4 0.0000 0.0000 0.0000 17.7179 0.0000 0.0000
# 5 0.0000 0.0000 0.0000 0.0000 2.9091 0.0000
# 6 0.0000 0.0000 0.0000 0.0000 0.0000 21.7916
#
#
#
# Elastic Compliance Matrix: (Units=1/GPa)
#
#
# Indices 1 2 3 4 5 6 
#
# 1 0.020996 -0.007934 -0.005974 0.000000 0.000000 0.000000
# 2 -0.007934 0.014645 -0.001912 0.000000 0.000000 0.000000
# 3 -0.005974 -0.001912 0.012832 0.000000 0.000000 0.000000
# 4 0.000000 0.000000 0.000000 0.056440 0.000000 0.000000
# 5 0.000000 0.000000 0.000000 0.000000 0.343743 0.000000
# 6 0.000000 0.000000 0.000000 0.000000 0.000000 0.045889
#
#
# Mechanical properties :
#
#
# Convention : Reuss Voigt Hill
#
# Bulk Modulus (GPa) = 59.40576 59.83300 59.61938
# Shear Modulus (GPa) = 9.40209 18.63979 14.02094
#
# Velocity S-wave (km/s) = 2.30300 3.24267 2.81236
# Velocity P-wave (km/s) = 6.37050 6.91176 6.64664
#
# Compressibility (1/GPa) = 0.01683338
#
# Stress axis : x y z
#
# Youngs Moduli (GPa) = 47.62864 68.28220 77.92781
#
# Poissons Ratio (x) = 0.54178 0.46551
# Poissons Ratio (y) = 0.37791 0.14899
# Poissons Ratio (z) = 0.28451 0.13055
#
# Static dielectric constant tensor:
#      x y z
#    x 3.224750 0.000000 0.000000 
#    y 0.000000 3.422360 0.000000 
#    z 0.000000 0.000000 3.257220 
# 
# 
# High freq. dielectric constant tensor:
#      x y z
#    x 1.664110 0.000000 0.000000 
#    y 0.000000 1.683460 0.000000 
#    z 0.000000 0.000000 1.670940 
# 
# From -- ./inp_files/44309.got.cif
#   From: 2010.03.12/outbox.cif.g09.slc.cpg/sg66_23_cif.got.tgz:44309.got - 2010.04.10 21:57:39.
