data_PCOD8275373
_publ_section_title
;
Structure prediction by ZEFSAII (Michael W. Deem and Ramdas Pophale) SiO2 
 PCOD8275373
Probable space group: C C C M
;
_chemical_formula_sum "Si O2"
_cell_formula_units_Z 80
_cell_length_a 17.428706
_cell_length_b 9.903133
_cell_length_c 22.804537
_cell_angle_alpha 90.000000
_cell_angle_beta 90.000000
_cell_angle_gamma 90.000000
_cell_volume 3936.035573
_symmetry_space_group_name_H-M "C C C M"
_symmetry_group_IT_number 66
_symmetry_cell_setting 'orthorhombic'
loop_
_space_group_symop_operation_xyz
x,y,z
-x,-y,z
x,-y,1/2-z
-x,y,1/2-z
-x,-y,-z
x,y,-z
-x,y,1/2+z
x,-y,1/2+z
1/2+x,1/2+y,z
1/2-x,1/2-y,z
1/2+x,1/2-y,1/2-z
1/2-x,1/2+y,1/2-z
1/2-x,1/2-y,-z
1/2+x,1/2+y,-z
1/2-x,1/2+y,1/2+z
1/2+x,1/2-y,1/2+z
loop_
_atom_site_type_symbol
_atom_site_label
_atom_site_fract_x
_atom_site_fract_y
_atom_site_fract_z
Si Si1 0.138617 0.059883 0.174087
Si Si2 0.750000 0.750000 0.243033
Si Si3 0.451762 0.872419 0.065638
Si Si4 0.057113 0.116230 0.935300
Si Si5 0.125041 0.746447 0.828159
Si Si6 0.500000 0.664505 0.750000
O O1 0.211049 0.133238 0.203789
O O2 0.126997 0.127108 0.110263
O O3 0.062807 0.074983 0.214529
O O4 0.154123 0.901214 0.164419
O O5 0.813143 0.676925 0.284964
O O6 0.512230 0.753837 0.062677
O O7 0.382282 0.833928 0.110157
O O8 0.500000 0.000000 0.088588
O O9 0.417562 0.898512 0.000000
O O10 0.089218 0.079389 0.000000
O O11 0.000000 0.000000 0.912244
O O12 0.041594 0.740725 0.797588
#
# Coordination Sequence:
#
# PCOD8275373 Si02
#       6
#    16   8  16  16  16   8
#     4  11  19  36  59  87 117 157 203 259 300 361
#     4  10  24  36  52  84 126 166 210 244 300 356
#     4  10  21  38  61  94 126 153 195 257 317 371
#     4  10  18  33  64  97 115 144 201 260 310 366
#     4  11  20  38  58  86 118 165 199 251 305 368
#     4  10  17  30  61  88 111 148 203 250 307 358
#
# _framework density 20.325019000000001
#
# number of rings (size 3 to 8) (size 9 to 14) (size 15 to 20)
#    0.000    1.600    4.000    3.600    0.000    0.000 
#    7.200    1.500    0.000    0.000    0.000    0.000 
#    0.000    0.000    0.000    0.000    0.000    0.000 
#
# Total GULP energy -495736.141443 kJ/mol
# GULP energy per Si atom -12393.403536 kJ/mol
# Density = 2.027876 g / cm^3
# Si number density = 20.325019 Si / 1000 Ang^3
#
#
#
# Elastic Constant Matrix: (Units=GPa)
#
#
# Indices 1 2 3 4 5 6 
#
# 1 93.9322 38.6185 55.2661 0.0000 0.0000 0.0000
# 2 38.6185 94.4464 36.4437 0.0000 0.0000 0.0000
# 3 55.2661 36.4437 155.9732 0.0000 0.0000 0.0000
# 4 0.0000 0.0000 0.0000 23.7268 0.0000 0.0000
# 5 0.0000 0.0000 0.0000 0.0000 41.3977 0.0000
# 6 0.0000 0.0000 0.0000 0.0000 0.0000 20.7763
#
#
#
# Elastic Compliance Matrix: (Units=1/GPa)
#
#
# Indices 1 2 3 4 5 6 
#
# 1 0.015001 -0.004488 -0.004267 0.000000 0.000000 0.000000
# 2 -0.004488 0.012980 -0.001443 0.000000 0.000000 0.000000
# 3 -0.004267 -0.001443 0.008260 0.000000 0.000000 0.000000
# 4 0.000000 0.000000 0.000000 0.042146 0.000000 0.000000
# 5 0.000000 0.000000 0.000000 0.000000 0.024156 0.000000
# 6 0.000000 0.000000 0.000000 0.000000 0.000000 0.048132
#
#
# Mechanical properties :
#
#
# Convention : Reuss Voigt Hill
#
# Bulk Modulus (GPa) = 63.10287 67.22316 65.16302
# Shear Modulus (GPa) = 28.35234 31.44839 29.90037
#
# Velocity S-wave (km/s) = 3.73895 3.93781 3.83967
# Velocity P-wave (km/s) = 7.05365 7.33628 7.19635
#
# Compressibility (1/GPa) = 0.01584714
#
# Stress axis : x y z
#
# Youngs Moduli (GPa) = 66.66021 77.04396 121.06021
#
# Poissons Ratio (x) = 0.34574 0.51656
# Poissons Ratio (y) = 0.29914 0.17465
# Poissons Ratio (z) = 0.28444 0.11115
#
# Static dielectric constant tensor:
#      x y z
#    x 3.507760 0.000000 0.000000 
#    y 0.000000 3.397120 0.000000 
#    z 0.000000 0.000000 4.360310 
# 
# 
# High freq. dielectric constant tensor:
#      x y z
#    x 1.754930 0.000000 0.000000 
#    y 0.000000 1.780290 0.000000 
#    z 0.000000 0.000000 1.817510 
# 
# From -- ./inp_files/65127.got.cif
#   From: 2010.03.12/outbox.cif.g09.slc.cpg/sg66_33_cif.got.tgz:65127.got - 2010.04.10 21:57:39.
