data_PCOD8275657
_publ_section_title
;
Structure prediction by ZEFSAII (Michael W. Deem and Ramdas Pophale) SiO2 
 PCOD8275657
Probable space group: C C C M
;
_chemical_formula_sum "Si O2"
_cell_formula_units_Z 128
_cell_length_a 17.888967
_cell_length_b 21.855582
_cell_length_c 17.994941
_cell_angle_alpha 90.000000
_cell_angle_beta 90.000000
_cell_angle_gamma 90.000000
_cell_volume 7035.550197
_symmetry_space_group_name_H-M "C C C M"
_symmetry_group_IT_number 66
_symmetry_cell_setting 'orthorhombic'
loop_
_space_group_symop_operation_xyz
x,y,z
-x,-y,z
x,-y,1/2-z
-x,y,1/2-z
-x,-y,-z
x,y,-z
-x,y,1/2+z
x,-y,1/2+z
1/2+x,1/2+y,z
1/2-x,1/2-y,z
1/2+x,1/2-y,1/2-z
1/2-x,1/2+y,1/2-z
1/2-x,1/2-y,-z
1/2+x,1/2+y,-z
1/2-x,1/2+y,1/2+z
1/2+x,1/2-y,1/2+z
loop_
_atom_site_type_symbol
_atom_site_label
_atom_site_fract_x
_atom_site_fract_y
_atom_site_fract_z
Si Si1 0.986150 0.259688 0.086966
Si Si2 0.525673 0.640093 0.330511
Si Si3 0.229015 0.849098 0.655154
Si Si4 0.361966 0.767902 0.336266
Si Si5 0.606987 0.423359 0.415954
Si Si6 0.572224 0.153693 0.207303
Si Si7 0.854411 0.036219 0.827372
Si Si8 0.703560 0.935078 0.279376
O O1 0.950756 0.196928 0.117807
O O2 0.949850 0.317747 0.128171
O O3 0.074770 0.257083 0.102232
O O4 0.970051 0.266167 0.000000
O O5 0.500000 0.665274 0.250000
O O6 0.456560 0.603224 0.363716
O O7 0.596968 0.597031 0.323389
O O8 0.303632 0.815258 0.625371
O O9 0.174978 0.796265 0.687615
O O10 0.184706 0.885702 0.591496
O O11 0.251896 0.897780 0.716774
O O12 0.393447 0.793973 0.259358
O O13 0.579144 0.419410 0.500000
O O14 0.618890 0.494174 0.395151
O O15 0.500000 0.125684 0.250000
O O16 0.632103 0.100923 0.189628
O O17 0.767224 0.053815 0.841902
O O18 0.862149 0.000000 0.750000
O O19 0.673180 0.000000 0.250000
#
# Coordination Sequence:
#
# PCOD8275657 Si02
#       8
#    16  16  16  16  16  16  16  16
#     4  11  23  37  54  83 122 155 188 236 293 349
#     4  12  22  35  59  80 112 157 204 239 276 335
#     4  10  18  34  57  87 113 142 187 235 292 338
#     4   9  19  34  59  85 111 147 188 234 287 343
#     4  12  24  36  54  86 121 151 190 242 293 343
#     4   9  20  37  59  89 113 145 191 241 284 341
#     4  11  22  38  57  81 110 156 196 235 282 335
#     4  10  19  36  63  88 108 143 195 242 281 335
#
# _framework density 18.193317
#
# number of rings (size 3 to 8) (size 9 to 14) (size 15 to 20)
#    0.000    1.500    5.000    1.875    1.750    2.250 
#    0.000    1.875    0.000    0.750    0.000    2.625 
#    0.000    0.000    0.000    0.000    0.000    0.000 
#
# Total GULP energy -793512.029216 kJ/mol
# GULP energy per Si atom -12398.625456 kJ/mol
# Density = 1.815191 g / cm^3
# Si number density = 18.193317 Si / 1000 Ang^3
#
#
#
# Elastic Constant Matrix: (Units=GPa)
#
#
# Indices 1 2 3 4 5 6 
#
# 1 102.7344 47.1077 32.6387 0.0000 0.0000 0.0000
# 2 47.1077 97.1755 28.3695 0.0000 0.0000 0.0000
# 3 32.6387 28.3695 96.3960 0.0000 0.0000 0.0000
# 4 0.0000 0.0000 0.0000 19.2671 0.0000 0.0000
# 5 0.0000 0.0000 0.0000 0.0000 15.5729 0.0000
# 6 0.0000 0.0000 0.0000 0.0000 0.0000 38.0109
#
#
#
# Elastic Compliance Matrix: (Units=1/GPa)
#
#
# Indices 1 2 3 4 5 6 
#
# 1 0.013184 -0.005566 -0.002826 0.000000 0.000000 0.000000
# 2 -0.005566 0.013608 -0.002120 0.000000 0.000000 0.000000
# 3 -0.002826 -0.002120 0.011955 0.000000 0.000000 0.000000
# 4 0.000000 0.000000 0.000000 0.051902 0.000000 0.000000
# 5 0.000000 0.000000 0.000000 0.000000 0.064214 0.000000
# 6 0.000000 0.000000 0.000000 0.000000 0.000000 0.026308
#
#
# Mechanical properties :
#
#
# Convention : Reuss Voigt Hill
#
# Bulk Modulus (GPa) = 56.42660 56.94866 56.68763
# Shear Modulus (GPa) = 24.02660 27.11618 25.57139
#
# Velocity S-wave (km/s) = 3.63799 3.86482 3.75312
# Velocity P-wave (km/s) = 6.98061 7.16140 7.07159
#
# Compressibility (1/GPa) = 0.01772214
#
# Stress axis : x y z
#
# Youngs Moduli (GPa) = 75.85004 73.48647 83.64959
#
# Poissons Ratio (x) = 0.40904 0.23638
# Poissons Ratio (y) = 0.42220 0.17735
# Poissons Ratio (z) = 0.21434 0.15580
#
# Static dielectric constant tensor:
#      x y z
#    x 3.641110 0.000000 0.000000 
#    y 0.000000 3.584800 0.000000 
#    z 0.000000 0.000000 3.002020 
# 
# 
# High freq. dielectric constant tensor:
#      x y z
#    x 1.712470 0.000000 0.000000 
#    y 0.000000 1.715920 0.000000 
#    z 0.000000 0.000000 1.667100 
# 
# From -- ./inp_files/42147.got.cif
#   From: 2010.03.12/outbox.cif.g09.slc.cpg/sg66_22_cif.got.tgz:42147.got - 2010.04.10 21:57:39.
