data_PCOD8275644
_publ_section_title
;
Structure prediction by ZEFSAII (Michael W. Deem and Ramdas Pophale) SiO2 
 PCOD8275644
Probable space group: C C C M
;
_chemical_formula_sum "Si O2"
_cell_formula_units_Z 76
_cell_length_a 13.079099
_cell_length_b 16.044033
_cell_length_c 21.339390
_cell_angle_alpha 90.000000
_cell_angle_beta 90.000000
_cell_angle_gamma 90.000000
_cell_volume 4477.889521
_symmetry_space_group_name_H-M "C C C M"
_symmetry_group_IT_number 66
_symmetry_cell_setting 'orthorhombic'
loop_
_space_group_symop_operation_xyz
x,y,z
-x,-y,z
x,-y,1/2-z
-x,y,1/2-z
-x,-y,-z
x,y,-z
-x,y,1/2+z
x,-y,1/2+z
1/2+x,1/2+y,z
1/2-x,1/2-y,z
1/2+x,1/2-y,1/2-z
1/2-x,1/2+y,1/2-z
1/2-x,1/2-y,-z
1/2+x,1/2+y,-z
1/2-x,1/2+y,1/2+z
1/2+x,1/2-y,1/2+z
loop_
_atom_site_type_symbol
_atom_site_label
_atom_site_fract_x
_atom_site_fract_y
_atom_site_fract_z
Si Si1 0.964941 0.594236 0.571677
Si Si2 0.500000 0.500000 0.250000
Si Si3 0.892018 0.143301 0.818316
Si Si4 0.041024 0.297557 0.815172
Si Si5 0.759779 0.847645 0.429659
Si Si6 0.250000 0.750000 0.266080
O O1 0.988798 0.624137 0.500000
O O2 0.844880 0.603898 0.585461
O O3 0.000000 0.500000 0.581005
O O4 0.023972 0.648956 0.622662
O O5 0.572298 0.444109 0.207726
O O6 0.850755 0.119253 0.886689
O O7 0.797980 0.178650 0.777692
O O8 0.985893 0.208025 0.821427
O O9 0.162801 0.287486 0.810806
O O10 0.000000 0.339876 0.750000
O O11 0.794947 0.864920 0.500000
O O12 0.750000 0.750000 0.415919
#
# Coordination Sequence:
#
# PCOD8275644 Si02
#       6
#    16   4  16  16  16   8
#     4  10  21  36  55  85 118 143 181 243 293 326
#     4  12  24  36  54  84 120 152 176 234 300 328
#     4  11  20  37  56  85 116 147 190 238 286 341
#     4  10  19  35  57  80 112 146 189 233 277 339
#     4  10  18  33  62  85 103 148 198 230 275 345
#     4  10  18  34  54  78 108 150 188 224 274 350
#
# _framework density 16.972280999999999
#
# number of rings (size 3 to 8) (size 9 to 14) (size 15 to 20)
#    0.000    1.684    6.316    1.263    0.000    2.105 
#    0.000    1.053    0.000    0.000    0.000    0.000 
#    0.000    0.000    0.000    0.000    0.000    0.000 
#
# Total GULP energy -471113.715560 kJ/mol
# GULP energy per Si atom -12397.729357 kJ/mol
# Density = 1.693365 g / cm^3
# Si number density = 16.972281 Si / 1000 Ang^3
#
#
#
# Elastic Constant Matrix: (Units=GPa)
#
#
# Indices 1 2 3 4 5 6 
#
# 1 127.4406 55.0916 71.0075 0.0000 0.0000 0.0000
# 2 55.0916 98.2760 55.4241 0.0000 0.0000 0.0000
# 3 71.0075 55.4241 134.2289 0.0000 0.0000 0.0000
# 4 0.0000 0.0000 0.0000 30.3861 0.0000 0.0000
# 5 0.0000 0.0000 0.0000 0.0000 41.9856 0.0000
# 6 0.0000 0.0000 0.0000 0.0000 0.0000 33.4445
#
#
#
# Elastic Compliance Matrix: (Units=1/GPa)
#
#
# Indices 1 2 3 4 5 6 
#
# 1 0.012335 -0.004217 -0.004784 0.000000 0.000000 0.000000
# 2 -0.004217 0.014706 -0.003841 0.000000 0.000000 0.000000
# 3 -0.004784 -0.003841 0.011567 0.000000 0.000000 0.000000
# 4 0.000000 0.000000 0.000000 0.032910 0.000000 0.000000
# 5 0.000000 0.000000 0.000000 0.000000 0.023818 0.000000
# 6 0.000000 0.000000 0.000000 0.000000 0.000000 0.029900
#
#
# Mechanical properties :
#
#
# Convention : Reuss Voigt Hill
#
# Bulk Modulus (GPa) = 77.38084 80.33243 78.85663
# Shear Modulus (GPa) = 32.21054 33.05804 32.63429
#
# Velocity S-wave (km/s) = 4.36114 4.41814 4.38973
# Velocity P-wave (km/s) = 8.42916 8.57093 8.50034
#
# Compressibility (1/GPa) = 0.01292310
#
# Stress axis : x y z
#
# Youngs Moduli (GPa) = 81.06736 68.00090 86.45275
#
# Poissons Ratio (x) = 0.28675 0.41362
# Poissons Ratio (y) = 0.34185 0.33210
# Poissons Ratio (z) = 0.38785 0.26122
#
# Static dielectric constant tensor:
#      x y z
#    x 3.418740 0.000000 0.000000 
#    y 0.000000 2.999390 0.000000 
#    z 0.000000 0.000000 3.427010 
# 
# 
# High freq. dielectric constant tensor:
#      x y z
#    x 1.656670 0.000000 0.000000 
#    y 0.000000 1.632710 0.000000 
#    z 0.000000 0.000000 1.666780 
# 
# From -- ./inp_files/56655.got.cif
#   From: 2010.03.12/outbox.cif.g09.slc.cpg/sg66_29_cif.got.tgz:56655.got - 2010.04.10 21:57:39.
