data_PCOD8275345
_publ_section_title
;
Structure prediction by ZEFSAII (Michael W. Deem and Ramdas Pophale) SiO2 
 PCOD8275345
Probable space group: C C C M
;
_chemical_formula_sum "Si O2"
_cell_formula_units_Z 112
_cell_length_a 20.388164
_cell_length_b 18.385742
_cell_length_c 17.106435
_cell_angle_alpha 90.000000
_cell_angle_beta 90.000000
_cell_angle_gamma 90.000000
_cell_volume 6412.373216
_symmetry_space_group_name_H-M "C C C M"
_symmetry_group_IT_number 66
_symmetry_cell_setting 'orthorhombic'
loop_
_space_group_symop_operation_xyz
x,y,z
-x,-y,z
x,-y,1/2-z
-x,y,1/2-z
-x,-y,-z
x,y,-z
-x,y,1/2+z
x,-y,1/2+z
1/2+x,1/2+y,z
1/2-x,1/2-y,z
1/2+x,1/2-y,1/2-z
1/2-x,1/2+y,1/2-z
1/2-x,1/2-y,-z
1/2+x,1/2+y,-z
1/2-x,1/2+y,1/2+z
1/2+x,1/2-y,1/2+z
loop_
_atom_site_type_symbol
_atom_site_label
_atom_site_fract_x
_atom_site_fract_y
_atom_site_fract_z
Si Si1 0.074844 0.422672 0.727097
Si Si2 0.019925 0.917397 0.409808
Si Si3 0.131334 0.839432 0.325168
Si Si4 0.055803 0.805728 0.815649
Si Si5 0.745005 0.164161 0.585000
Si Si6 0.039701 0.337978 0.589507
Si Si7 0.394276 0.176064 0.137983
O O1 0.109037 0.500000 0.750000
O O2 0.076230 0.404968 0.634092
O O3 0.106411 0.355033 0.773789
O O4 0.000000 0.427384 0.750000
O O5 0.031425 0.896788 0.500000
O O6 0.085413 0.902194 0.360499
O O7 0.960958 0.869930 0.375106
O O8 0.000000 0.000000 0.398824
O O9 0.121710 0.830137 0.231388
O O10 0.205672 0.863218 0.346701
O O11 0.110687 0.763125 0.364893
O O12 0.065032 0.734150 0.867110
O O13 0.000000 0.791300 0.750000
O O14 0.767204 0.133708 0.500000
O O15 0.750000 0.250000 0.585423
O O16 0.669814 0.140197 0.598319
O O17 0.062875 0.338279 0.500000
O O18 0.960595 0.346241 0.592821
#
# Coordination Sequence:
#
# PCOD8275345 Si02
#       7
#    16  16  16  16  16  16  16
#     4   9  18  33  50  70 102 134 157 199 249 300
#     4  10  20  31  47  73 102 132 163 209 260 296
#     4  10  18  30  49  71 102 133 168 198 255 302
#     4  10  17  29  47  69  96 132 166 195 245 295
#     4   9  18  29  46  75 102 129 164 213 256 292
#     4  11  18  28  50  78 101 128 163 202 246 300
#     4  10  17  31  50  73 101 134 165 202 252 308
#
# _framework density 17.466232000000002
#
# number of rings (size 3 to 8) (size 9 to 14) (size 15 to 20)
#    0.000    2.143    4.286    1.714    0.000    3.714 
#    0.000    6.429    3.143    0.000    0.000    3.000 
#    0.000    0.000    0.000    0.000    0.000    0.000 
#
# Total GULP energy -693890.572637 kJ/mol
# GULP energy per Si atom -12390.903083 kJ/mol
# Density = 1.742648 g / cm^3
# Si number density = 17.466232 Si / 1000 Ang^3
#
#
#
# Elastic Constant Matrix: (Units=GPa)
#
#
# Indices 1 2 3 4 5 6 
#
# 1 69.7831 16.1952 34.5324 0.0000 0.0000 0.0000
# 2 16.1952 69.4346 44.9336 0.0000 0.0000 0.0000
# 3 34.5324 44.9336 130.1314 0.0000 0.0000 0.0000
# 4 0.0000 0.0000 0.0000 23.1384 0.0000 0.0000
# 5 0.0000 0.0000 0.0000 0.0000 21.9691 0.0000
# 6 0.0000 0.0000 0.0000 0.0000 0.0000 6.6129
#
#
#
# Elastic Compliance Matrix: (Units=1/GPa)
#
#
# Indices 1 2 3 4 5 6 
#
# 1 0.016589 -0.001314 -0.003948 0.000000 0.000000 0.000000
# 2 -0.001314 0.018650 -0.006091 0.000000 0.000000 0.000000
# 3 -0.003948 -0.006091 0.010836 0.000000 0.000000 0.000000
# 4 0.000000 0.000000 0.000000 0.043218 0.000000 0.000000
# 5 0.000000 0.000000 0.000000 0.000000 0.045519 0.000000
# 6 0.000000 0.000000 0.000000 0.000000 0.000000 0.151219
#
#
# Mechanical properties :
#
#
# Convention : Reuss Voigt Hill
#
# Bulk Modulus (GPa) = 42.79435 51.18570 46.99003
# Shear Modulus (GPa) = 15.79643 21.92328 18.85986
#
# Velocity S-wave (km/s) = 3.01058 3.54670 3.28958
# Velocity P-wave (km/s) = 6.05303 6.79273 6.43352
#
# Compressibility (1/GPa) = 0.02336757
#
# Stress axis : x y z
#
# Youngs Moduli (GPa) = 60.28106 53.61831 92.28901
#
# Poissons Ratio (x) = 0.07046 0.36439
# Poissons Ratio (y) = 0.07922 0.56214
# Poissons Ratio (z) = 0.23801 0.32660
#
# Static dielectric constant tensor:
#      x y z
#    x 3.276300 0.000000 0.000000 
#    y 0.000000 3.294410 0.000000 
#    z 0.000000 0.000000 3.504150 
# 
# 
# High freq. dielectric constant tensor:
#      x y z
#    x 1.635360 0.000000 0.000000 
#    y 0.000000 1.655400 0.000000 
#    z 0.000000 0.000000 1.677250 
# 
# From -- ./inp_files/41999.got.cif
#   From: 2010.03.12/outbox.cif.g09.slc.cpg/sg66_21_cif.got.tgz:41999.got - 2010.04.10 21:57:39.
