data_PCOD8275890
_publ_section_title
;
Structure prediction by ZEFSAII (Michael W. Deem and Ramdas Pophale) SiO2 
 PCOD8275890
Probable space group: C C C M
;
_chemical_formula_sum "Si O2"
_cell_formula_units_Z 80
_cell_length_a 18.746934
_cell_length_b 13.556417
_cell_length_c 16.627081
_cell_angle_alpha 90.000000
_cell_angle_beta 90.000000
_cell_angle_gamma 90.000000
_cell_volume 4225.627229
_symmetry_space_group_name_H-M "C C C M"
_symmetry_group_IT_number 66
_symmetry_cell_setting 'orthorhombic'
loop_
_space_group_symop_operation_xyz
x,y,z
-x,-y,z
x,-y,1/2-z
-x,y,1/2-z
-x,-y,-z
x,y,-z
-x,y,1/2+z
x,-y,1/2+z
1/2+x,1/2+y,z
1/2-x,1/2-y,z
1/2+x,1/2-y,1/2-z
1/2-x,1/2+y,1/2-z
1/2-x,1/2-y,-z
1/2+x,1/2+y,-z
1/2-x,1/2+y,1/2+z
1/2+x,1/2-y,1/2+z
loop_
_atom_site_type_symbol
_atom_site_label
_atom_site_fract_x
_atom_site_fract_y
_atom_site_fract_z
Si Si1 0.474943 0.860150 0.159377
Si Si2 0.534047 0.348619 0.095224
Si Si3 0.607336 0.543880 0.095313
Si Si4 0.894524 0.464185 0.407003
Si Si5 0.748597 0.138548 0.404024
O O1 0.500000 0.871105 0.250000
O O2 0.445817 0.751458 0.140837
O O3 0.541583 0.885122 0.101405
O O4 0.411021 0.937233 0.143646
O O5 0.590540 0.432125 0.123503
O O6 0.455213 0.382252 0.123231
O O7 0.537637 0.331819 0.000000
O O8 0.682641 0.580475 0.130715
O O9 0.608921 0.545028 0.000000
O O10 0.886126 0.492972 0.500000
O O11 0.822058 0.416442 0.372683
O O12 0.749491 0.140434 0.500000
O O13 0.750000 0.250000 0.370450
#
# Coordination Sequence:
#
# PCOD8275890 Si02
#       5
#    16  16  16  16  16
#     4  11  21  33  49  70  99 132 163 202 248 293
#     4   9  16  30  53  75  98 128 164 203 242 289
#     4   8  15  28  49  78 102 123 160 209 249 280
#     4  10  19  32  52  74  95 123 165 208 245 292
#     4   9  16  27  48  78 105 126 157 205 252 291
#
# _framework density 18.932100999999999
#
# number of rings (size 3 to 8) (size 9 to 14) (size 15 to 20)
#    0.000    2.600    0.000    6.000    0.000    3.200 
#    0.000    3.000    0.000   16.800    0.000    0.000 
#    0.000    0.000    0.000    0.000    0.000    0.200 
#
# Total GULP energy -495937.773283 kJ/mol
# GULP energy per Si atom -12398.444332 kJ/mol
# Density = 1.888901 g / cm^3
# Si number density = 18.932101 Si / 1000 Ang^3
#
#
#
# Elastic Constant Matrix: (Units=GPa)
#
#
# Indices 1 2 3 4 5 6 
#
# 1 147.3583 86.6542 13.4843 0.0000 0.0000 0.0000
# 2 86.6542 184.8144 34.2191 0.0000 0.0000 0.0000
# 3 13.4843 34.2191 46.6778 0.0000 0.0000 0.0000
# 4 0.0000 0.0000 0.0000 6.6234 0.0000 0.0000
# 5 0.0000 0.0000 0.0000 0.0000 7.6165 0.0000
# 6 0.0000 0.0000 0.0000 0.0000 0.0000 29.6752
#
#
#
# Elastic Compliance Matrix: (Units=1/GPa)
#
#
# Indices 1 2 3 4 5 6 
#
# 1 0.009384 -0.004510 0.000596 0.000000 0.000000 0.000000
# 2 -0.004510 0.008428 -0.004876 0.000000 0.000000 0.000000
# 3 0.000596 -0.004876 0.024826 0.000000 0.000000 0.000000
# 4 0.000000 0.000000 0.000000 0.150979 0.000000 0.000000
# 5 0.000000 0.000000 0.000000 0.000000 0.131294 0.000000
# 6 0.000000 0.000000 0.000000 0.000000 0.000000 0.033698
#
#
# Mechanical properties :
#
#
# Convention : Reuss Voigt Hill
#
# Bulk Modulus (GPa) = 39.90872 71.95175 55.93024
# Shear Modulus (GPa) = 13.00247 25.08255 19.04251
#
# Velocity S-wave (km/s) = 2.62352 3.64382 3.17493
# Velocity P-wave (km/s) = 5.50480 7.46933 6.56101
#
# Compressibility (1/GPa) = 0.02505718
#
# Stress axis : x y z
#
# Youngs Moduli (GPa) = 106.56615 118.64845 40.28055
#
# Poissons Ratio (x) = 0.53511 -0.02399
# Poissons Ratio (y) = 0.48062 0.19640
# Poissons Ratio (z) = -0.06346 0.57851
#
# Static dielectric constant tensor:
#      x y z
#    x 3.689020 0.000000 0.000000 
#    y 0.000000 3.640050 0.000000 
#    z 0.000000 0.000000 2.969720 
# 
# 
# High freq. dielectric constant tensor:
#      x y z
#    x 1.724090 0.000000 0.000000 
#    y 0.000000 1.746010 0.000000 
#    z 0.000000 0.000000 1.692520 
# 
# From -- ./inp_files/41444.got.cif
#   From: 2010.03.12/outbox.cif.g09.slc.cpg/sg66_21_cif.got.tgz:41444.got - 2010.04.10 21:57:39.
