data_PCOD8275512
_publ_section_title
;
Structure prediction by ZEFSAII (Michael W. Deem and Ramdas Pophale) SiO2 
 PCOD8275512
Probable space group: C C C M
;
_chemical_formula_sum "Si O2"
_cell_formula_units_Z 112
_cell_length_a 37.726429
_cell_length_b 5.116067
_cell_length_c 31.651000
_cell_angle_alpha 90.000000
_cell_angle_beta 90.000000
_cell_angle_gamma 90.000000
_cell_volume 6108.989212
_symmetry_space_group_name_H-M "C C C M"
_symmetry_group_IT_number 66
_symmetry_cell_setting 'orthorhombic'
loop_
_space_group_symop_operation_xyz
x,y,z
-x,-y,z
x,-y,1/2-z
-x,y,1/2-z
-x,-y,-z
x,y,-z
-x,y,1/2+z
x,-y,1/2+z
1/2+x,1/2+y,z
1/2-x,1/2-y,z
1/2+x,1/2-y,1/2-z
1/2-x,1/2+y,1/2-z
1/2-x,1/2-y,-z
1/2+x,1/2+y,-z
1/2-x,1/2+y,1/2+z
1/2+x,1/2-y,1/2+z
loop_
_atom_site_type_symbol
_atom_site_label
_atom_site_fract_x
_atom_site_fract_y
_atom_site_fract_z
Si Si1 0.660515 0.111235 0.105253
Si Si2 0.636103 0.388149 0.352710
Si Si3 0.273195 0.004730 0.952961
Si Si4 0.932617 0.891398 0.910017
Si Si5 0.522598 0.260139 0.665935
Si Si6 0.908814 0.385974 0.048772
Si Si7 0.909826 0.756070 0.777492
O O1 0.660753 0.361512 0.136711
O O2 0.695911 0.072585 0.078837
O O3 0.628304 0.132522 0.072753
O O4 0.658251 0.865351 0.135720
O O5 0.600790 0.409624 0.379634
O O6 0.624565 0.355084 0.303815
O O7 0.250000 0.750000 0.956806
O O8 0.250000 0.250000 0.935865
O O9 0.288072 0.076713 0.000000
O O10 0.967137 0.846143 0.881525
O O11 0.928106 0.660001 0.943645
O O12 0.935815 0.162004 0.935410
O O13 0.500000 0.500000 0.686049
O O14 0.557196 0.184784 0.692703
O O15 0.500000 0.000000 0.664040
O O16 0.900225 0.347750 0.000000
O O17 0.900009 0.500000 0.750000
O O18 0.922361 0.000000 0.750000
#
# Coordination Sequence:
#
# PCOD8275512 Si02
#       7
#    16  16  16  16  16  16  16
#     4  10  18  32  51  73 102 136 177 207 239 299
#     4   9  19  33  51  73  98 132 167 205 250 298
#     4  10  20  32  47  73 112 150 178 210 251 288
#     4   9  19  33  48  69  95 124 162 210 255 294
#     4  11  22  36  54  72  96 135 170 193 237 313
#     4  10  18  30  51  73  93 122 166 219 262 291
#     4  11  22  36  54  79 109 129 153 204 262 309
#
# _framework density 18.333639999999999
#
# number of rings (size 3 to 8) (size 9 to 14) (size 15 to 20)
#    0.000    2.000    0.000    4.286    0.000    6.286 
#    0.000    4.286    0.000    8.571    0.000    0.000 
#    0.000   32.000    0.000    0.000    0.000    0.000 
#
# Total GULP energy -694250.184049 kJ/mol
# GULP energy per Si atom -12397.324715 kJ/mol
# Density = 1.829191 g / cm^3
# Si number density = 18.333640 Si / 1000 Ang^3
#
#
#
# Elastic Constant Matrix: (Units=GPa)
#
#
# Indices 1 2 3 4 5 6 
#
# 1 74.1118 39.8845 39.4856 0.0000 0.0000 0.0000
# 2 39.8845 135.9099 30.4198 0.0000 0.0000 0.0000
# 3 39.4856 30.4198 68.7109 0.0000 0.0000 0.0000
# 4 0.0000 0.0000 0.0000 26.2047 0.0000 0.0000
# 5 0.0000 0.0000 0.0000 0.0000 18.5204 0.0000
# 6 0.0000 0.0000 0.0000 0.0000 0.0000 24.6034
#
#
#
# Elastic Compliance Matrix: (Units=1/GPa)
#
#
# Indices 1 2 3 4 5 6 
#
# 1 0.021132 -0.003867 -0.010432 0.000000 0.000000 0.000000
# 2 -0.003867 0.008875 -0.001707 0.000000 0.000000 0.000000
# 3 -0.010432 -0.001707 0.021304 0.000000 0.000000 0.000000
# 4 0.000000 0.000000 0.000000 0.038161 0.000000 0.000000
# 5 0.000000 0.000000 0.000000 0.000000 0.053994 0.000000
# 6 0.000000 0.000000 0.000000 0.000000 0.000000 0.040645
#
#
# Mechanical properties :
#
#
# Convention : Reuss Voigt Hill
#
# Bulk Modulus (GPa) = 51.81388 55.36806 53.59097
# Shear Modulus (GPa) = 22.46632 25.12855 23.79743
#
# Velocity S-wave (km/s) = 3.50439 3.70621 3.60671
# Velocity P-wave (km/s) = 6.68561 6.96997 6.82927
#
# Compressibility (1/GPa) = 0.01929985
#
# Stress axis : x y z
#
# Youngs Moduli (GPa) = 47.32170 112.68158 46.93886
#
# Poissons Ratio (x) = 0.43569 0.48966
# Poissons Ratio (y) = 0.18297 0.08013
# Poissons Ratio (z) = 0.49366 0.19235
#
# Static dielectric constant tensor:
#      x y z
#    x 3.092490 0.000000 0.000000 
#    y 0.000000 3.701190 0.000000 
#    z 0.000000 0.000000 3.451300 
# 
# 
# High freq. dielectric constant tensor:
#      x y z
#    x 1.676770 0.000000 0.000000 
#    y 0.000000 1.735820 0.000000 
#    z 0.000000 0.000000 1.700270 
# 
# From -- ./inp_files/70697.got.cif
#   From: 2010.03.12/outbox.cif.g09.slc.cpg/sg66_36_cif.got.tgz:70697.got - 2010.04.10 21:57:39.
