data_PCOD8275527
_publ_section_title
;
Structure prediction by ZEFSAII (Michael W. Deem and Ramdas Pophale) SiO2 
 PCOD8275527
Probable space group: C C C M
;
_chemical_formula_sum "Si O2"
_cell_formula_units_Z 52
_cell_length_a 7.574941
_cell_length_b 18.816138
_cell_length_c 21.012369
_cell_angle_alpha 90.000000
_cell_angle_beta 90.000000
_cell_angle_gamma 90.000000
_cell_volume 2994.916807
_symmetry_space_group_name_H-M "C C C M"
_symmetry_group_IT_number 66
_symmetry_cell_setting 'orthorhombic'
loop_
_space_group_symop_operation_xyz
x,y,z
-x,-y,z
x,-y,1/2-z
-x,y,1/2-z
-x,-y,-z
x,y,-z
-x,y,1/2+z
x,-y,1/2+z
1/2+x,1/2+y,z
1/2-x,1/2-y,z
1/2+x,1/2-y,1/2-z
1/2-x,1/2+y,1/2-z
1/2-x,1/2-y,-z
1/2+x,1/2+y,-z
1/2-x,1/2+y,1/2+z
1/2+x,1/2-y,1/2+z
loop_
_atom_site_type_symbol
_atom_site_label
_atom_site_fract_x
_atom_site_fract_y
_atom_site_fract_z
Si Si1 0.444971 0.923954 0.074713
Si Si2 0.000000 0.000000 0.250000
Si Si3 0.275905 0.668136 0.574513
Si Si4 0.073228 0.072753 0.371492
O O1 0.592337 0.867714 0.094539
O O2 0.257185 0.899470 0.101463
O O3 0.500000 0.000000 0.103697
O O4 0.424003 0.929463 0.000000
O O5 0.107993 0.946589 0.203254
O O6 0.320147 0.656194 0.500000
O O7 0.250000 0.750000 0.591303
O O8 0.431954 0.635344 0.617242
O O9 0.000000 0.000000 0.405717
#
# Coordination Sequence:
#
# PCOD8275527 Si02
#       4
#    16   4  16  16
#     4  10  18  30  54  85 107 136 177 215 269 331
#     4   8  20  36  56  76 104 138 198 234 258 304
#     4  10  21  35  54  85 119 141 169 223 285 334
#     4  10  19  35  56  76 107 140 185 229 265 312
#
# _framework density 17.362753000000001
#
# number of rings (size 3 to 8) (size 9 to 14) (size 15 to 20)
#    0.923    1.231    3.077    0.923    0.000    2.462 
#    0.000   11.538    6.769    0.000    0.000    0.000 
#    0.000    0.000    0.000    0.000    0.000    0.000 
#
# Total GULP energy -322186.440305 kJ/mol
# GULP energy per Si atom -12391.786166 kJ/mol
# Density = 1.732323 g / cm^3
# Si number density = 17.362753 Si / 1000 Ang^3
#
#
#
# Elastic Constant Matrix: (Units=GPa)
#
#
# Indices 1 2 3 4 5 6 
#
# 1 158.9684 68.9761 49.8756 0.0000 0.0000 0.0000
# 2 68.9761 133.1568 38.0264 0.0000 0.0000 0.0000
# 3 49.8756 38.0264 48.1158 0.0000 0.0000 0.0000
# 4 0.0000 0.0000 0.0000 18.8198 0.0000 0.0000
# 5 0.0000 0.0000 0.0000 0.0000 -0.2839 0.0000
# 6 0.0000 0.0000 0.0000 0.0000 0.0000 27.5495
#
#
#
# Elastic Compliance Matrix: (Units=1/GPa)
#
#
# Indices 1 2 3 4 5 6 
#
# 1 0.010122 -0.002902 -0.008199 0.000000 0.000000 0.000000
# 2 -0.002902 0.010531 -0.005315 0.000000 0.000000 0.000000
# 3 -0.008199 -0.005315 0.033482 0.000000 0.000000 0.000000
# 4 0.000000 0.000000 0.000000 0.053136 0.000000 0.000000
# 5 0.000000 0.000000 0.000000 0.000000 -3.522375 0.000000
# 6 0.000000 0.000000 0.000000 0.000000 0.000000 0.036298
#
#
# Mechanical properties :
#
#
# Convention : Reuss Voigt Hill
#
# Bulk Modulus (GPa) = 46.93888 72.66637 59.80263
# Shear Modulus (GPa) = -1.49751 21.44127 9.97188
#
# Velocity S-wave (km/s) = -0.92971 3.51793 2.39911
# Velocity P-wave (km/s) = 5.09318 7.64486 6.49555
#
# Compressibility (1/GPa) = 0.02130430
#
# Stress axis : x y z
#
# Youngs Moduli (GPa) = 98.79437 94.95885 29.86663
#
# Poissons Ratio (x) = 0.27556 0.24487
# Poissons Ratio (y) = 0.28669 0.15873
# Poissons Ratio (z) = 0.81000 0.50467
#
# Static dielectric constant tensor:
#      x y z
#    x 3.207580 0.000000 0.000000 
#    y 0.000000 3.194660 0.000000 
#    z 0.000000 0.000000 2.963950 
# 
# 
# High freq. dielectric constant tensor:
#      x y z
#    x 1.672780 0.000000 0.000000 
#    y 0.000000 1.664530 0.000000 
#    z 0.000000 0.000000 1.638300 
# 
# From -- ./inp_files/49382.got.cif
#   From: 2010.03.12/outbox.cif.g09.slc.cpg/sg66_25_cif.got.tgz:49382.got - 2010.04.10 21:57:39.
