data_PCOD8275778
_publ_section_title
;
Structure prediction by ZEFSAII (Michael W. Deem and Ramdas Pophale) SiO2 
 PCOD8275778
Probable space group: C C C M
;
_chemical_formula_sum "Si O2"
_cell_formula_units_Z 52
_cell_length_a 5.182966
_cell_length_b 27.028727
_cell_length_c 21.705217
_cell_angle_alpha 90.000000
_cell_angle_beta 90.000000
_cell_angle_gamma 90.000000
_cell_volume 3040.661560
_symmetry_space_group_name_H-M "C C C M"
_symmetry_group_IT_number 66
_symmetry_cell_setting 'orthorhombic'
loop_
_space_group_symop_operation_xyz
x,y,z
-x,-y,z
x,-y,1/2-z
-x,y,1/2-z
-x,-y,-z
x,y,-z
-x,y,1/2+z
x,-y,1/2+z
1/2+x,1/2+y,z
1/2-x,1/2-y,z
1/2+x,1/2-y,1/2-z
1/2-x,1/2+y,1/2-z
1/2-x,1/2-y,-z
1/2+x,1/2+y,-z
1/2-x,1/2+y,1/2+z
1/2+x,1/2-y,1/2+z
loop_
_atom_site_type_symbol
_atom_site_label
_atom_site_fract_x
_atom_site_fract_y
_atom_site_fract_z
Si Si1 0.000000 0.000000 0.250000
Si Si2 0.260130 0.470420 0.132233
Si Si3 0.738688 0.805331 0.573053
Si Si4 0.763766 0.864072 0.073057
O O1 0.817384 0.966251 0.205953
O O2 0.500000 0.500000 0.100629
O O3 0.234372 0.416614 0.104549
O O4 0.000000 0.500000 0.118423
O O5 0.754506 0.802198 0.500000
O O6 0.750000 0.750000 0.600959
O O7 0.474945 0.830589 0.594668
O O8 0.978451 0.837504 0.597536
O O9 0.766743 0.871567 0.000000
#
# Coordination Sequence:
#
# PCOD8275778 Si02
#       4
#     4  16  16  16
#     4   8  22  36  52  68  94 124 174 210 238 288
#     4  10  20  34  51  71 100 125 168 202 242 289
#     4   9  17  30  47  70 104 136 162 192 229 287
#     4  10  19  30  48  76 104 132 161 192 245 295
#
# _framework density 17.101541999999998
#
# number of rings (size 3 to 8) (size 9 to 14) (size 15 to 20)
#    0.923    1.538    0.000    3.231    0.000    4.923 
#    0.000    0.000    0.000    0.000    0.000    4.308 
#    0.000    0.000    0.000    0.000    0.000    0.000 
#
# Total GULP energy -322252.550828 kJ/mol
# GULP energy per Si atom -12394.328878 kJ/mol
# Density = 1.706262 g / cm^3
# Si number density = 17.101542 Si / 1000 Ang^3
#
#
#
# Elastic Constant Matrix: (Units=GPa)
#
#
# Indices 1 2 3 4 5 6 
#
# 1 125.3191 44.4012 24.2358 0.0000 0.0000 0.0000
# 2 44.4012 134.6030 38.5514 0.0000 0.0000 0.0000
# 3 24.2358 38.5514 33.3270 0.0000 0.0000 0.0000
# 4 0.0000 0.0000 0.0000 -10.8160 0.0000 0.0000
# 5 0.0000 0.0000 0.0000 0.0000 -2.4930 0.0000
# 6 0.0000 0.0000 0.0000 0.0000 0.0000 34.4361
#
#
#
# Elastic Compliance Matrix: (Units=1/GPa)
#
#
# Indices 1 2 3 4 5 6 
#
# 1 0.009549 -0.001736 -0.004936 0.000000 0.000000 0.000000
# 2 -0.001736 0.011426 -0.011954 0.000000 0.000000 0.000000
# 3 -0.004936 -0.011954 0.047423 0.000000 0.000000 0.000000
# 4 0.000000 0.000000 0.000000 -0.092456 0.000000 0.000000
# 5 0.000000 0.000000 0.000000 0.000000 -0.401116 0.000000
# 6 0.000000 0.000000 0.000000 0.000000 0.000000 0.029039
#
#
# Mechanical properties :
#
#
# Convention : Reuss Voigt Hill
#
# Bulk Modulus (GPa) = 32.10731 56.40287 44.25509
# Shear Modulus (GPa) = -14.34724 16.62945 1.14111
#
# Velocity S-wave (km/s) = -2.89960 3.12171 0.81774
# Velocity P-wave (km/s) = 2.75773 6.78573 5.17935
#
# Compressibility (1/GPa) = 0.03114555
#
# Stress axis : x y z
#
# Youngs Moduli (GPa) = 104.71873 87.52103 21.08670
#
# Poissons Ratio (x) = 0.15197 0.10408
# Poissons Ratio (y) = 0.18183 0.25208
# Poissons Ratio (z) = 0.51688 1.04625
#
# Static dielectric constant tensor:
#      x y z
#    x 3.583840 0.000000 0.000000 
#    y 0.000000 3.267320 0.000000 
#    z 0.000000 0.000000 2.736170 
# 
# 
# High freq. dielectric constant tensor:
#      x y z
#    x 1.684280 0.000000 0.000000 
#    y 0.000000 1.665010 0.000000 
#    z 0.000000 0.000000 1.601810 
# 
# From -- ./inp_files/52154.got.cif
#   From: 2010.03.12/outbox.cif.g09.slc.cpg/sg66_27_cif.got.tgz:52154.got - 2010.04.10 21:57:39.
