data_PCOD8275554
_publ_section_title
;
Structure prediction by ZEFSAII (Michael W. Deem and Ramdas Pophale) SiO2 
 PCOD8275554
Probable space group: C C C M
;
_chemical_formula_sum "Si O2"
_cell_formula_units_Z 128
_cell_length_a 21.055904
_cell_length_b 19.674591
_cell_length_c 17.860541
_cell_angle_alpha 90.000000
_cell_angle_beta 90.000000
_cell_angle_gamma 90.000000
_cell_volume 7399.020224
_symmetry_space_group_name_H-M "C C C M"
_symmetry_group_IT_number 66
_symmetry_cell_setting 'orthorhombic'
loop_
_space_group_symop_operation_xyz
x,y,z
-x,-y,z
x,-y,1/2-z
-x,y,1/2-z
-x,-y,-z
x,y,-z
-x,y,1/2+z
x,-y,1/2+z
1/2+x,1/2+y,z
1/2-x,1/2-y,z
1/2+x,1/2-y,1/2-z
1/2-x,1/2+y,1/2-z
1/2-x,1/2-y,-z
1/2+x,1/2+y,-z
1/2-x,1/2+y,1/2+z
1/2+x,1/2-y,1/2+z
loop_
_atom_site_type_symbol
_atom_site_label
_atom_site_fract_x
_atom_site_fract_y
_atom_site_fract_z
Si Si1 0.394727 0.226210 0.158184
Si Si2 0.266606 0.858417 0.911713
Si Si3 0.524216 0.224867 0.086765
Si Si4 0.672272 0.973073 0.324555
Si Si5 0.934482 0.633281 0.289136
Si Si6 0.821727 0.605452 0.087180
Si Si7 0.843431 0.768541 0.413859
Si Si8 0.703824 0.687587 0.083144
O O1 0.462143 0.253292 0.127512
O O2 0.401805 0.197048 0.242939
O O3 0.370792 0.165132 0.106275
O O4 0.348064 0.291711 0.147117
O O5 0.277850 0.928861 0.870399
O O6 0.197509 0.831789 0.883192
O O7 0.319433 0.804363 0.881755
O O8 0.270357 0.872475 0.000000
O O9 0.548197 0.156393 0.126890
O O10 0.581334 0.280004 0.097213
O O11 0.511795 0.208618 0.000000
O O12 0.610627 0.931545 0.296619
O O13 0.707238 0.000000 0.250000
O O14 0.652599 0.037869 0.373536
O O15 0.000000 0.610473 0.250000
O O16 0.748753 0.625064 0.110953
O O17 0.824196 0.592286 0.000000
O O18 0.824039 0.763184 0.500000
O O19 0.750000 0.750000 0.071075
O O20 0.673395 0.672091 0.000000
#
# Coordination Sequence:
#
# PCOD8275554 Si02
#       8
#    16  16  16  16  16  16  16  16
#     4  10  18  34  51  74 103 133 161 208 263 304
#     4   9  17  32  52  71  96 127 161 208 258 294
#     4  10  18  31  53  77  99 129 171 207 246 309
#     4  12  22  35  46  68  98 140 172 206 240 291
#     4  10  22  36  48  67 104 140 169 207 254 290
#     4  10  20  34  52  74  98 131 176 213 249 301
#     4   8  15  29  50  76  96 118 158 207 257 299
#     4   8  15  30  52  74  97 124 163 216 261 295
#
# _framework density 17.299586999999999
#
# number of rings (size 3 to 8) (size 9 to 14) (size 15 to 20)
#    0.000    2.375    2.500    3.000    0.000    0.750 
#    2.250    0.000    0.000    2.250    0.000    0.875 
#    0.000    6.000    0.000    0.000    0.000    0.000 
#
# Total GULP energy -792872.578275 kJ/mol
# GULP energy per Si atom -12388.634036 kJ/mol
# Density = 1.726021 g / cm^3
# Si number density = 17.299587 Si / 1000 Ang^3
#
#
#
# Elastic Constant Matrix: (Units=GPa)
#
#
# Indices 1 2 3 4 5 6 
#
# 1 90.8116 24.6845 21.9551 0.0000 0.0000 0.0000
# 2 24.6845 36.6716 15.1570 0.0000 0.0000 0.0000
# 3 21.9551 15.1570 66.2344 0.0000 0.0000 0.0000
# 4 0.0000 0.0000 0.0000 24.4809 0.0000 0.0000
# 5 0.0000 0.0000 0.0000 0.0000 11.5311 0.0000
# 6 0.0000 0.0000 0.0000 0.0000 0.0000 19.1973
#
#
#
# Elastic Compliance Matrix: (Units=1/GPa)
#
#
# Indices 1 2 3 4 5 6 
#
# 1 0.013910 -0.008236 -0.002726 0.000000 0.000000 0.000000
# 2 -0.008236 0.034995 -0.005278 0.000000 0.000000 0.000000
# 3 -0.002726 -0.005278 0.017209 0.000000 0.000000 0.000000
# 4 0.000000 0.000000 0.000000 0.040848 0.000000 0.000000
# 5 0.000000 0.000000 0.000000 0.000000 0.086722 0.000000
# 6 0.000000 0.000000 0.000000 0.000000 0.000000 0.052091
#
#
# Mechanical properties :
#
#
# Convention : Reuss Voigt Hill
#
# Bulk Modulus (GPa) = 29.73258 35.25677 32.49467
# Shear Modulus (GPa) = 17.27318 19.83658 18.55488
#
# Velocity S-wave (km/s) = 3.16329 3.38990 3.27855
# Velocity P-wave (km/s) = 5.52866 5.97881 5.75814
#
# Compressibility (1/GPa) = 0.03363314
#
# Stress axis : x y z
#
# Youngs Moduli (GPa) = 71.89263 28.57586 58.10817
#
# Poissons Ratio (x) = 0.23536 0.15840
# Poissons Ratio (y) = 0.59212 0.30670
# Poissons Ratio (z) = 0.19598 0.15082
#
# Static dielectric constant tensor:
#      x y z
#    x 3.476660 0.000000 0.000000 
#    y 0.000000 3.056630 0.000000 
#    z 0.000000 0.000000 3.293160 
# 
# 
# High freq. dielectric constant tensor:
#      x y z
#    x 1.663290 0.000000 0.000000 
#    y 0.000000 1.624180 0.000000 
#    z 0.000000 0.000000 1.672810 
# 
# From -- ./inp_files/52050.got.cif
#   From: 2010.03.12/outbox.cif.g09.slc.cpg/sg66_27_cif.got.tgz:52050.got - 2010.04.10 21:57:39.
