data_PCOD8275213
_publ_section_title
;
Structure prediction by ZEFSAII (Michael W. Deem and Ramdas Pophale) SiO2 
 PCOD8275213
Probable space group: C C C M
;
_chemical_formula_sum "Si O2"
_cell_formula_units_Z 96
_cell_length_a 16.866015
_cell_length_b 18.173288
_cell_length_c 19.285226
_cell_angle_alpha 90.000000
_cell_angle_beta 90.000000
_cell_angle_gamma 90.000000
_cell_volume 5911.132904
_symmetry_space_group_name_H-M "C C C M"
_symmetry_group_IT_number 66
_symmetry_cell_setting 'orthorhombic'
loop_
_space_group_symop_operation_xyz
x,y,z
-x,-y,z
x,-y,1/2-z
-x,y,1/2-z
-x,-y,-z
x,y,-z
-x,y,1/2+z
x,-y,1/2+z
1/2+x,1/2+y,z
1/2-x,1/2-y,z
1/2+x,1/2-y,1/2-z
1/2-x,1/2+y,1/2-z
1/2-x,1/2-y,-z
1/2+x,1/2+y,-z
1/2-x,1/2+y,1/2+z
1/2+x,1/2-y,1/2+z
loop_
_atom_site_type_symbol
_atom_site_label
_atom_site_fract_x
_atom_site_fract_y
_atom_site_fract_z
Si Si1 0.426440 0.213620 0.289411
Si Si2 0.494038 0.265083 0.923129
Si Si3 0.324620 0.802753 0.424300
Si Si4 0.779809 0.333212 0.718852
Si Si5 0.613457 0.623614 0.749321
Si Si6 0.996228 0.080340 0.865169
O O1 0.500000 0.175351 0.250000
O O2 0.445417 0.224458 0.370688
O O3 0.349210 0.162435 0.277073
O O4 0.412932 0.291418 0.251382
O O5 0.403326 0.244160 0.907203
O O6 0.501219 0.353728 0.920176
O O7 0.519357 0.240033 0.000000
O O8 0.334105 0.843330 0.500000
O O9 0.250000 0.750000 0.430808
O O10 0.311072 0.857266 0.358377
O O11 0.750000 0.250000 0.712518
O O12 0.708363 0.385609 0.743426
O O13 0.571435 0.586064 0.814322
O O14 0.585550 0.584783 0.678631
O O15 0.000000 0.000000 0.901965
#
# Coordination Sequence:
#
# PCOD8275213 Si02
#       6
#    16  16  16  16  16  16
#     4  10  14  25  39  55  76 105 133 160 190 238
#     4  10  18  27  38  56  84 112 137 166 200 235
#     4   9  15  22  34  55  81 108 131 158 199 243
#     4   9  15  22  38  55  76 101 134 165 191 241
#     4   9  15  25  39  57  76 101 133 170 199 228
#     4  10  17  27  42  57  79 106 141 173 199 234
#
# _framework density 16.240542000000001
#
# number of rings (size 3 to 8) (size 9 to 14) (size 15 to 20)
#    0.000    2.500    5.000    3.000    0.000    0.333 
#    0.000    0.000    0.000   12.500    0.000    0.000 
#    0.000    2.667    0.000    0.000    0.000   50.167 
#
# Total GULP energy -594654.302077 kJ/mol
# GULP energy per Si atom -12388.631293 kJ/mol
# Density = 1.620358 g / cm^3
# Si number density = 16.240542 Si / 1000 Ang^3
#
#
#
# Elastic Constant Matrix: (Units=GPa)
#
#
# Indices 1 2 3 4 5 6 
#
# 1 120.0215 25.8342 59.5517 0.0000 0.0000 0.0000
# 2 25.8342 20.6570 13.0658 0.0000 0.0000 0.0000
# 3 59.5517 13.0658 95.3449 0.0000 0.0000 0.0000
# 4 0.0000 0.0000 0.0000 1.9003 0.0000 0.0000
# 5 0.0000 0.0000 0.0000 0.0000 20.5785 0.0000
# 6 0.0000 0.0000 0.0000 0.0000 0.0000 9.2351
#
#
#
# Elastic Compliance Matrix: (Units=1/GPa)
#
#
# Indices 1 2 3 4 5 6 
#
# 1 0.015090 -0.014135 -0.007488 0.000000 0.000000 0.000000
# 2 -0.014135 0.066246 -0.000249 0.000000 0.000000 0.000000
# 3 -0.007488 -0.000249 0.015199 0.000000 0.000000 0.000000
# 4 0.000000 0.000000 0.000000 0.526246 0.000000 0.000000
# 5 0.000000 0.000000 0.000000 0.000000 0.048594 0.000000
# 6 0.000000 0.000000 0.000000 0.000000 0.000000 0.108282
#
#
# Mechanical properties :
#
#
# Convention : Reuss Voigt Hill
#
# Bulk Modulus (GPa) = 18.94312 48.10295 33.52304
# Shear Modulus (GPa) = 5.94531 15.51422 10.72977
#
# Velocity S-wave (km/s) = 1.91539 3.09411 2.57315
# Velocity P-wave (km/s) = 4.07198 6.51522 5.43273
#
# Compressibility (1/GPa) = 0.05278961
#
# Stress axis : x y z
#
# Youngs Moduli (GPa) = 66.27023 15.09532 65.79278
#
# Poissons Ratio (x) = 0.21338 0.49265
# Poissons Ratio (y) = 0.93676 0.01640
# Poissons Ratio (z) = 0.49622 0.00376
#
# Static dielectric constant tensor:
#      x y z
#    x 3.358390 0.000000 0.000000 
#    y 0.000000 2.518240 0.000000 
#    z 0.000000 0.000000 3.265930 
# 
# 
# High freq. dielectric constant tensor:
#      x y z
#    x 1.628720 0.000000 0.000000 
#    y 0.000000 1.548850 0.000000 
#    z 0.000000 0.000000 1.622480 
# 
# From -- ./inp_files/41926.got.cif
#   From: 2010.03.12/outbox.cif.g09.slc.cpg/sg66_21_cif.got.tgz:41926.got - 2010.04.10 21:57:39.
