data_PCOD8275681
_publ_section_title
;
Structure prediction by ZEFSAII (Michael W. Deem and Ramdas Pophale) SiO2 
 PCOD8275681
Probable space group: C C C M
;
_chemical_formula_sum "Si O2"
_cell_formula_units_Z 64
_cell_length_a 14.455593
_cell_length_b 12.462976
_cell_length_c 18.024297
_cell_angle_alpha 90.000000
_cell_angle_beta 90.000000
_cell_angle_gamma 90.000000
_cell_volume 3247.252096
_symmetry_space_group_name_H-M "C C C M"
_symmetry_group_IT_number 66
_symmetry_cell_setting 'orthorhombic'
loop_
_space_group_symop_operation_xyz
x,y,z
-x,-y,z
x,-y,1/2-z
-x,y,1/2-z
-x,-y,-z
x,y,-z
-x,y,1/2+z
x,-y,1/2+z
1/2+x,1/2+y,z
1/2-x,1/2-y,z
1/2+x,1/2-y,1/2-z
1/2-x,1/2+y,1/2-z
1/2-x,1/2-y,-z
1/2+x,1/2+y,-z
1/2-x,1/2+y,1/2+z
1/2+x,1/2-y,1/2+z
loop_
_atom_site_type_symbol
_atom_site_label
_atom_site_fract_x
_atom_site_fract_y
_atom_site_fract_z
Si Si1 0.712809 0.522642 0.415113
Si Si2 0.907199 0.805312 0.660487
Si Si3 0.402519 0.399725 0.194781
Si Si4 0.079823 0.580505 0.085129
O O1 0.684708 0.502982 0.500000
O O2 0.670722 0.636782 0.389319
O O3 0.675287 0.423144 0.366385
O O4 0.822510 0.521979 0.404929
O O5 0.876596 0.802964 0.748020
O O6 0.923379 0.684949 0.635517
O O7 0.002537 0.872626 0.651824
O O8 0.414296 0.500000 0.250000
O O9 0.000000 0.500000 0.112339
O O10 0.063453 0.614740 0.000000
#
# Coordination Sequence:
#
# PCOD8275681 Si02
#       4
#    16  16  16  16
#     4  10  19  34  59  86 110 142 183 228 279 329
#     4  10  18  35  58  82 112 146 185 226 273 329
#     4   9  19  36  56  83 116 142 177 231 281 331
#     4  10  22  39  56  79 114 150 186 229 274 325
#
# _framework density 19.708973
#
# number of rings (size 3 to 8) (size 9 to 14) (size 15 to 20)
#    0.000    2.250    0.000    6.750    0.000    5.000 
#    0.000   26.250    0.000    4.500    0.000    0.000 
#    0.000    0.000    0.000    0.000    0.000    0.000 
#
# Total GULP energy -396613.942349 kJ/mol
# GULP energy per Si atom -12394.185698 kJ/mol
# Density = 1.966411 g / cm^3
# Si number density = 19.708973 Si / 1000 Ang^3
#
#
#
# Elastic Constant Matrix: (Units=GPa)
#
#
# Indices 1 2 3 4 5 6 
#
# 1 120.2111 46.7833 69.1455 0.0000 0.0000 0.0000
# 2 46.7833 95.5064 66.1043 0.0000 0.0000 0.0000
# 3 69.1455 66.1043 127.9367 0.0000 0.0000 0.0000
# 4 0.0000 0.0000 0.0000 37.3971 0.0000 0.0000
# 5 0.0000 0.0000 0.0000 0.0000 11.7405 0.0000
# 6 0.0000 0.0000 0.0000 0.0000 0.0000 11.8400
#
#
#
# Elastic Compliance Matrix: (Units=1/GPa)
#
#
# Indices 1 2 3 4 5 6 
#
# 1 0.012369 -0.002229 -0.005533 0.000000 0.000000 0.000000
# 2 -0.002229 0.016701 -0.007425 0.000000 0.000000 0.000000
# 3 -0.005533 -0.007425 0.014643 0.000000 0.000000 0.000000
# 4 0.000000 0.000000 0.000000 0.026740 0.000000 0.000000
# 5 0.000000 0.000000 0.000000 0.000000 0.085175 0.000000
# 6 0.000000 0.000000 0.000000 0.000000 0.000000 0.084459
#
#
# Mechanical properties :
#
#
# Convention : Reuss Voigt Hill
#
# Bulk Modulus (GPa) = 74.96596 78.63563 76.80079
# Shear Modulus (GPa) = 18.18784 22.97026 20.57905
#
# Velocity S-wave (km/s) = 3.04109 3.41760 3.23483
# Velocity P-wave (km/s) = 7.10282 7.45375 7.28040
#
# Compressibility (1/GPa) = 0.01333939
#
# Stress axis : x y z
#
# Youngs Moduli (GPa) = 80.84784 59.87503 68.29067
#
# Poissons Ratio (x) = 0.13346 0.37787
# Poissons Ratio (y) = 0.18021 0.50705
# Poissons Ratio (z) = 0.44735 0.44456
#
# Static dielectric constant tensor:
#      x y z
#    x 3.599790 0.000000 0.000000 
#    y 0.000000 3.537590 0.000000 
#    z 0.000000 0.000000 4.152190 
# 
# 
# High freq. dielectric constant tensor:
#      x y z
#    x 1.771510 0.000000 0.000000 
#    y 0.000000 1.744450 0.000000 
#    z 0.000000 0.000000 1.771240 
# 
# From -- ./inp_files/39792.got.cif
#   From: 2010.03.12/outbox.cif.g09.slc.cpg/sg66_20_cif.got.tgz:39792.got - 2010.04.10 21:57:39.
