data_PCOD8275776
_publ_section_title
;
Structure prediction by ZEFSAII (Michael W. Deem and Ramdas Pophale) SiO2 
 PCOD8275776
Probable space group: C C C M
;
_chemical_formula_sum "Si O2"
_cell_formula_units_Z 80
_cell_length_a 4.957944
_cell_length_b 33.602699
_cell_length_c 26.071908
_cell_angle_alpha 90.000000
_cell_angle_beta 90.000000
_cell_angle_gamma 90.000000
_cell_volume 4343.587692
_symmetry_space_group_name_H-M "C C C M"
_symmetry_group_IT_number 66
_symmetry_cell_setting 'orthorhombic'
loop_
_space_group_symop_operation_xyz
x,y,z
-x,-y,z
x,-y,1/2-z
-x,y,1/2-z
-x,-y,-z
x,y,-z
-x,y,1/2+z
x,-y,1/2+z
1/2+x,1/2+y,z
1/2-x,1/2-y,z
1/2+x,1/2-y,1/2-z
1/2-x,1/2+y,1/2-z
1/2-x,1/2-y,-z
1/2+x,1/2+y,-z
1/2-x,1/2+y,1/2+z
1/2+x,1/2-y,1/2+z
loop_
_atom_site_type_symbol
_atom_site_label
_atom_site_fract_x
_atom_site_fract_y
_atom_site_fract_z
Si Si1 0.091384 0.544512 0.593789
Si Si2 0.079759 0.089649 0.442051
Si Si3 0.963564 0.866840 0.656481
Si Si4 0.246576 0.794707 0.786257
Si Si5 0.962490 0.411476 0.307923
O O1 0.378205 0.552467 0.566941
O O2 0.128228 0.552456 0.654930
O O3 0.000000 0.500000 0.582916
O O4 0.881959 0.575255 0.568852
O O5 0.059481 0.105487 0.500000
O O6 0.997878 0.126628 0.404711
O O7 0.816006 0.824532 0.666799
O O8 0.762851 0.900369 0.676082
O O9 0.249637 0.874376 0.685931
O O10 0.500000 0.805249 0.750000
O O11 0.250000 0.750000 0.809105
O O12 0.000000 0.800087 0.750000
O O13 0.000000 0.426380 0.250000
#
# Coordination Sequence:
#
# PCOD8275776 Si02
#       5
#    16  16  16  16  16
#     4  10  21  34  49  72  96 121 159 202 245 291
#     4  10  21  35  51  70  92 124 163 203 245 283
#     4  10  19  32  49  70  97 126 161 197 231 282
#     4  10  19  30  48  75 103 129 156 190 236 287
#     4  10  19  31  49  70  95 129 160 190 234 287
#
# _framework density 18.417953000000001
#
# number of rings (size 3 to 8) (size 9 to 14) (size 15 to 20)
#    0.000    2.000    0.000    4.800    0.000    2.800 
#    0.000    0.000    0.000    7.800    0.000    0.000 
#    0.000   14.400    0.000    0.000    0.000    4.000 
#
# Total GULP energy -495701.279124 kJ/mol
# GULP energy per Si atom -12392.531978 kJ/mol
# Density = 1.837603 g / cm^3
# Si number density = 18.417953 Si / 1000 Ang^3
#
#
#
# Elastic Constant Matrix: (Units=GPa)
#
#
# Indices 1 2 3 4 5 6 
#
# 1 91.6056 4.9406 23.3851 0.0000 0.0000 0.0000
# 2 4.9406 76.7310 34.5059 0.0000 0.0000 0.0000
# 3 23.3851 34.5059 139.4536 0.0000 0.0000 0.0000
# 4 0.0000 0.0000 0.0000 14.0088 0.0000 0.0000
# 5 0.0000 0.0000 0.0000 0.0000 21.6257 0.0000
# 6 0.0000 0.0000 0.0000 0.0000 0.0000 23.8749
#
#
#
# Elastic Compliance Matrix: (Units=1/GPa)
#
#
# Indices 1 2 3 4 5 6 
#
# 1 0.011406 0.000141 -0.001948 0.000000 0.000000 0.000000
# 2 0.000141 0.014666 -0.003653 0.000000 0.000000 0.000000
# 3 -0.001948 -0.003653 0.008401 0.000000 0.000000 0.000000
# 4 0.000000 0.000000 0.000000 0.071384 0.000000 0.000000
# 5 0.000000 0.000000 0.000000 0.000000 0.046241 0.000000
# 6 0.000000 0.000000 0.000000 0.000000 0.000000 0.041885
#
#
# Mechanical properties :
#
#
# Convention : Reuss Voigt Hill
#
# Bulk Modulus (GPa) = 42.45292 48.16149 45.30720
# Shear Modulus (GPa) = 23.50147 28.23247 25.86697
#
# Velocity S-wave (km/s) = 3.57600 3.91945 3.75166
# Velocity P-wave (km/s) = 6.33642 6.83291 6.58934
#
# Compressibility (1/GPa) = 0.02355551
#
# Stress axis : x y z
#
# Youngs Moduli (GPa) = 87.67364 68.18484 119.02996
#
# Poissons Ratio (x) = -0.00965 0.23183
# Poissons Ratio (y) = -0.01240 0.43477
# Poissons Ratio (z) = 0.17076 0.24905
#
# Static dielectric constant tensor:
#      x y z
#    x 3.650980 0.000000 0.000000 
#    y 0.000000 2.780270 0.000000 
#    z 0.000000 0.000000 3.529880 
# 
# 
# High freq. dielectric constant tensor:
#      x y z
#    x 1.742950 0.000000 0.000000 
#    y 0.000000 1.675180 0.000000 
#    z 0.000000 0.000000 1.702350 
# 
# From -- ./inp_files/61632.got.cif
#   From: 2010.03.12/outbox.cif.g09.slc.cpg/sg66_31_cif.got.tgz:61632.got - 2010.04.10 21:57:39.
