data_PCOD8275555
_publ_section_title
;
Structure prediction by ZEFSAII (Michael W. Deem and Ramdas Pophale) SiO2 
 PCOD8275555
Probable space group: C C C M
;
_chemical_formula_sum "Si O2"
_cell_formula_units_Z 96
_cell_length_a 19.622944
_cell_length_b 14.285120
_cell_length_c 17.938123
_cell_angle_alpha 90.000000
_cell_angle_beta 90.000000
_cell_angle_gamma 90.000000
_cell_volume 5028.344856
_symmetry_space_group_name_H-M "C C C M"
_symmetry_group_IT_number 66
_symmetry_cell_setting 'orthorhombic'
loop_
_space_group_symop_operation_xyz
x,y,z
-x,-y,z
x,-y,1/2-z
-x,y,1/2-z
-x,-y,-z
x,y,-z
-x,y,1/2+z
x,-y,1/2+z
1/2+x,1/2+y,z
1/2-x,1/2-y,z
1/2+x,1/2-y,1/2-z
1/2-x,1/2+y,1/2-z
1/2-x,1/2-y,-z
1/2+x,1/2+y,-z
1/2-x,1/2+y,1/2+z
1/2+x,1/2-y,1/2+z
loop_
_atom_site_type_symbol
_atom_site_label
_atom_site_fract_x
_atom_site_fract_y
_atom_site_fract_z
Si Si1 0.288829 0.107766 0.382976
Si Si2 0.193840 0.326911 0.768387
Si Si3 0.165637 0.408493 0.919185
Si Si4 0.060309 0.252898 0.699381
Si Si5 0.650029 0.310903 0.917520
Si Si6 0.490887 0.892573 0.415356
O O1 0.293898 0.093037 0.293686
O O2 0.324947 0.204181 0.406644
O O3 0.210131 0.113357 0.408157
O O4 0.327685 0.021228 0.420439
O O5 0.250000 0.250000 0.749379
O O6 0.208570 0.365185 0.851280
O O7 0.117279 0.288587 0.757567
O O8 0.089130 0.372381 0.909000
O O9 0.192913 0.373045 0.000000
O O10 0.091408 0.172381 0.644922
O O11 0.000000 0.210344 0.750000
O O12 0.032980 0.335581 0.645983
O O13 0.619019 0.323023 0.000000
O O14 0.516411 0.870260 0.500000
O O15 0.500000 0.000000 0.395005
#
# Coordination Sequence:
#
# PCOD8275555 Si02
#       6
#    16  16  16  16  16  16
#     4  10  18  33  54  80 108 143 189 233 273 320
#     4  11  21  38  54  76 108 147 189 229 273 327
#     4  11  22  34  52  80 113 149 185 218 270 339
#     4  11  20  34  51  74 106 146 183 225 262 330
#     4  10  18  31  53  78 109 144 183 233 279 318
#     4  10  20  32  48  74 111 146 175 211 263 330
#
# _framework density 19.09177
#
# number of rings (size 3 to 8) (size 9 to 14) (size 15 to 20)
#    0.000    1.500    5.000    5.000    0.000    2.000 
#    0.000    0.000    0.000    0.000    0.000    2.333 
#    0.000    2.667    0.000    0.000    0.000    0.000 
#
# Total GULP energy -594822.350013 kJ/mol
# GULP energy per Si atom -12392.132292 kJ/mol
# Density = 1.904832 g / cm^3
# Si number density = 19.091770 Si / 1000 Ang^3
#
#
#
# Elastic Constant Matrix: (Units=GPa)
#
#
# Indices 1 2 3 4 5 6 
#
# 1 90.8974 16.6826 38.6571 0.0000 0.0000 0.0000
# 2 16.6826 17.3997 10.2854 0.0000 0.0000 0.0000
# 3 38.6571 10.2854 156.1603 0.0000 0.0000 0.0000
# 4 0.0000 0.0000 0.0000 16.4969 0.0000 0.0000
# 5 0.0000 0.0000 0.0000 0.0000 15.7859 0.0000
# 6 0.0000 0.0000 0.0000 0.0000 0.0000 20.1141
#
#
#
# Elastic Compliance Matrix: (Units=1/GPa)
#
#
# Indices 1 2 3 4 5 6 
#
# 1 0.014414 -0.012185 -0.002766 0.000000 0.000000 0.000000
# 2 -0.012185 0.070101 -0.001601 0.000000 0.000000 0.000000
# 3 -0.002766 -0.001601 0.007194 0.000000 0.000000 0.000000
# 4 0.000000 0.000000 0.000000 0.060617 0.000000 0.000000
# 5 0.000000 0.000000 0.000000 0.000000 0.063348 0.000000
# 6 0.000000 0.000000 0.000000 0.000000 0.000000 0.049716
#
#
# Mechanical properties :
#
#
# Convention : Reuss Voigt Hill
#
# Bulk Modulus (GPa) = 17.06308 43.96753 30.51530
# Shear Modulus (GPa) = 15.72187 23.73488 19.72837
#
# Velocity S-wave (km/s) = 2.87276 3.52973 3.21805
# Velocity P-wave (km/s) = 4.46772 6.30012 5.46132
#
# Compressibility (1/GPa) = 0.05860606
#
# Stress axis : x y z
#
# Youngs Moduli (GPa) = 69.37750 14.26509 139.01006
#
# Poissons Ratio (x) = 0.17382 0.38444
# Poissons Ratio (y) = 0.84536 0.22253
# Poissons Ratio (z) = 0.19187 0.02284
#
# Static dielectric constant tensor:
#      x y z
#    x 3.685050 0.000000 0.000000 
#    y 0.000000 2.911820 0.000000 
#    z 0.000000 0.000000 3.932980 
# 
# 
# High freq. dielectric constant tensor:
#      x y z
#    x 1.736390 0.000000 0.000000 
#    y 0.000000 1.672200 0.000000 
#    z 0.000000 0.000000 1.772860 
# 
# From -- ./inp_files/41752.got.cif
#   From: 2010.03.12/outbox.cif.g09.slc.cpg/sg66_21_cif.got.tgz:41752.got - 2010.04.10 21:57:39.
