data_PCOD8275276
_publ_section_title
;
Structure prediction by ZEFSAII (Michael W. Deem and Ramdas Pophale) SiO2 
 PCOD8275276
Probable space group: C C C M
;
_chemical_formula_sum "Si O2"
_cell_formula_units_Z 96
_cell_length_a 30.116220
_cell_length_b 33.578986
_cell_length_c 7.921543
_cell_angle_alpha 90.000000
_cell_angle_beta 90.000000
_cell_angle_gamma 90.000000
_cell_volume 8010.835661
_symmetry_space_group_name_H-M "C C C M"
_symmetry_group_IT_number 66
_symmetry_cell_setting 'orthorhombic'
loop_
_space_group_symop_operation_xyz
x,y,z
-x,-y,z
x,-y,1/2-z
-x,y,1/2-z
-x,-y,-z
x,y,-z
-x,y,1/2+z
x,-y,1/2+z
1/2+x,1/2+y,z
1/2-x,1/2-y,z
1/2+x,1/2-y,1/2-z
1/2-x,1/2+y,1/2-z
1/2-x,1/2-y,-z
1/2+x,1/2+y,-z
1/2-x,1/2+y,1/2+z
1/2+x,1/2-y,1/2+z
loop_
_atom_site_type_symbol
_atom_site_label
_atom_site_fract_x
_atom_site_fract_y
_atom_site_fract_z
Si Si1 0.449534 0.543083 0.196951
Si Si2 0.766620 0.813752 0.500000
Si Si3 0.399570 0.380567 0.299488
Si Si4 0.368924 0.257440 0.186938
Si Si5 0.179893 0.268401 0.500000
Si Si6 0.684025 0.339219 0.687534
Si Si7 0.949669 0.197969 0.197826
O O1 0.430832 0.500000 0.250000
O O2 0.500000 0.548857 0.250000
O O3 0.419254 0.578138 0.274814
O O4 0.447097 0.547124 0.000000
O O5 0.794193 0.773112 0.500000
O O6 0.714215 0.805000 0.500000
O O7 0.777956 0.839238 0.668606
O O8 0.394370 0.380884 0.500000
O O9 0.350929 0.374756 0.219533
O O10 0.433045 0.345485 0.242058
O O11 0.350433 0.227867 0.331549
O O12 0.342242 0.298239 0.201220
O O13 0.420755 0.267308 0.214973
O O14 0.362673 0.238326 0.000000
O O15 0.705183 0.344231 0.500000
O O16 0.000000 0.204227 0.250000
O O17 0.943070 0.202509 0.000000
#
# Coordination Sequence:
#
# PCOD8275276 Si02
#       7
#    16   8  16  16   8  16  16
#     4  10  19  29  39  50  66  86 109 138 168 203
#     4   9  16  26  38  52  72  81 108 128 152 193
#     4   9  17  28  39  49  66  87 105 134 173 205
#     4   9  16  26  36  49  67  86 109 130 156 192
#     4   9  16  26  38  50  66  94 100 128 160 185
#     4   9  16  25  39  53  67  85 103 129 159 193
#     4  10  17  25  36  50  66  84 109 139 169 199
#
# _framework density 11.983768
#
# number of rings (size 3 to 8) (size 9 to 14) (size 15 to 20)
#    0.000    2.667    1.667    2.000    0.000    2.667 
#    0.000    3.333    0.000    0.000    0.000    0.000 
#    0.000    0.000    0.000    0.000    0.000    0.000 
#
# Total GULP energy -594945.068421 kJ/mol
# GULP energy per Si atom -12394.688925 kJ/mol
# Density = 1.195649 g / cm^3
# Si number density = 11.983768 Si / 1000 Ang^3
#
#
#
# Elastic Constant Matrix: (Units=GPa)
#
#
# Indices 1 2 3 4 5 6 
#
# 1 66.3570 35.7106 38.5964 0.0000 0.0000 0.0000
# 2 35.7106 32.3113 23.9056 0.0000 0.0000 0.0000
# 3 38.5964 23.9056 80.1416 0.0000 0.0000 0.0000
# 4 0.0000 0.0000 0.0000 4.9632 0.0000 0.0000
# 5 0.0000 0.0000 0.0000 0.0000 14.5053 0.0000
# 6 0.0000 0.0000 0.0000 0.0000 0.0000 18.4150
#
#
#
# Elastic Compliance Matrix: (Units=1/GPa)
#
#
# Indices 1 2 3 4 5 6 
#
# 1 0.040790 -0.039198 -0.007952 0.000000 0.000000 0.000000
# 2 -0.039198 0.077381 -0.004204 0.000000 0.000000 0.000000
# 3 -0.007952 -0.004204 0.017562 0.000000 0.000000 0.000000
# 4 0.000000 0.000000 0.000000 0.201483 0.000000 0.000000
# 5 0.000000 0.000000 0.000000 0.000000 0.068940 0.000000
# 6 0.000000 0.000000 0.000000 0.000000 0.000000 0.054304
#
#
# Mechanical properties :
#
#
# Convention : Reuss Voigt Hill
#
# Bulk Modulus (GPa) = 30.28089 41.69279 35.98684
# Shear Modulus (GPa) = 8.70813 12.94986 10.82900
#
# Velocity S-wave (km/s) = 2.69859 3.29084 3.00932
# Velocity P-wave (km/s) = 5.91886 7.02183 6.49381
#
# Compressibility (1/GPa) = 0.03302413
#
# Stress axis : x y z
#
# Youngs Moduli (GPa) = 24.51586 12.92306 56.94161
#
# Poissons Ratio (x) = 0.50655 0.45281
# Poissons Ratio (y) = 0.96097 0.23941
# Poissons Ratio (z) = 0.19495 0.05433
#
# Static dielectric constant tensor:
#      x y z
#    x 2.208610 0.000000 0.000000 
#    y 0.000000 1.761590 0.000000 
#    z 0.000000 0.000000 2.696240 
# 
# 
# High freq. dielectric constant tensor:
#      x y z
#    x 1.430000 0.000000 0.000000 
#    y 0.000000 1.395390 0.000000 
#    z 0.000000 0.000000 1.474990 
# 
# From -- ./inp_files/11845.got.cif
#   From: 2010.03.12/outbox.cif.g09.slc.cpg/sg66_6_cif.got.tgz:11845.got - 2010.04.10 21:57:39.
