data_PCOD8275865
_publ_section_title
;
Structure prediction by ZEFSAII (Michael W. Deem and Ramdas Pophale) SiO2 
 PCOD8275865
Probable space group: C C C M
;
_chemical_formula_sum "Si O2"
_cell_formula_units_Z 96
_cell_length_a 32.144410
_cell_length_b 18.907537
_cell_length_c 8.842224
_cell_angle_alpha 90.000000
_cell_angle_beta 90.000000
_cell_angle_gamma 90.000000
_cell_volume 5374.052817
_symmetry_space_group_name_H-M "C C C M"
_symmetry_group_IT_number 66
_symmetry_cell_setting 'orthorhombic'
loop_
_space_group_symop_operation_xyz
x,y,z
-x,-y,z
x,-y,1/2-z
-x,y,1/2-z
-x,-y,-z
x,y,-z
-x,y,1/2+z
x,-y,1/2+z
1/2+x,1/2+y,z
1/2-x,1/2-y,z
1/2+x,1/2-y,1/2-z
1/2-x,1/2+y,1/2-z
1/2-x,1/2-y,-z
1/2+x,1/2+y,-z
1/2-x,1/2+y,1/2+z
1/2+x,1/2-y,1/2+z
loop_
_atom_site_type_symbol
_atom_site_label
_atom_site_fract_x
_atom_site_fract_y
_atom_site_fract_z
Si Si1 0.373777 0.283129 0.677974
Si Si2 0.739616 0.073729 0.820839
Si Si3 0.592132 0.073506 0.820302
Si Si4 0.834853 0.071822 0.176388
Si Si5 0.167524 0.348101 0.820489
Si Si6 0.957025 0.710036 0.675242
O O1 0.365349 0.270546 0.500000
O O2 0.363448 0.362775 0.728916
O O3 0.344183 0.230825 0.770631
O O4 0.421864 0.267624 0.718125
O O5 0.787454 0.087569 0.775689
O O6 0.713316 0.136326 0.744453
O O7 0.724320 0.000000 0.750000
O O8 0.732723 0.072776 0.000000
O O9 0.636456 0.094269 0.750758
O O10 0.558271 0.132413 0.772625
O O11 0.576605 0.000000 0.750000
O O12 0.596848 0.067959 0.000000
O O13 0.851989 0.000000 0.250000
O O14 0.838089 0.060207 0.000000
O O15 0.166813 0.354548 0.000000
O O16 0.965710 0.709581 0.500000
O O17 0.000000 0.732299 0.750000
#
# Coordination Sequence:
#
# PCOD8275865 Si02
#       6
#    16  16  16  16  16  16
#     4   9  19  37  55  74 100 132 164 200 248 301
#     4  10  19  32  49  71 100 136 172 209 248 290
#     4  10  20  34  50  71 100 136 173 211 248 289
#     4   9  19  35  56  77 100 129 164 203 248 298
#     4  11  21  32  48  72 101 136 174 213 247 285
#     4   9  19  34  53  74  99 128 162 202 247 297
#
# _framework density 17.863612
#
# number of rings (size 3 to 8) (size 9 to 14) (size 15 to 20)
#    0.000    2.333    0.000    4.000    0.000    5.667 
#    0.000    5.000    0.000    0.500    0.000    3.500 
#    0.000    0.000    0.000    0.000    0.000    0.000 
#
# Total GULP energy -595270.714580 kJ/mol
# GULP energy per Si atom -12401.473220 kJ/mol
# Density = 1.782295 g / cm^3
# Si number density = 17.863612 Si / 1000 Ang^3
#
#
#
# Elastic Constant Matrix: (Units=GPa)
#
#
# Indices 1 2 3 4 5 6 
#
# 1 103.6283 76.1356 39.9256 0.0000 0.0000 0.0000
# 2 76.1356 124.0594 43.6811 0.0000 0.0000 0.0000
# 3 39.9256 43.6811 74.6175 0.0000 0.0000 0.0000
# 4 0.0000 0.0000 0.0000 26.0064 0.0000 0.0000
# 5 0.0000 0.0000 0.0000 0.0000 27.1151 0.0000
# 6 0.0000 0.0000 0.0000 0.0000 0.0000 18.3829
#
#
#
# Elastic Compliance Matrix: (Units=1/GPa)
#
#
# Indices 1 2 3 4 5 6 
#
# 1 0.018519 -0.009921 -0.004101 0.000000 0.000000 0.000000
# 2 -0.009921 0.015469 -0.003747 0.000000 0.000000 0.000000
# 3 -0.004101 -0.003747 0.017789 0.000000 0.000000 0.000000
# 4 0.000000 0.000000 0.000000 0.038452 0.000000 0.000000
# 5 0.000000 0.000000 0.000000 0.000000 0.036880 0.000000
# 6 0.000000 0.000000 0.000000 0.000000 0.000000 0.054398
#
#
# Mechanical properties :
#
#
# Convention : Reuss Voigt Hill
#
# Bulk Modulus (GPa) = 61.58066 69.08777 65.33421
# Shear Modulus (GPa) = 22.47612 23.80507 23.14060
#
# Velocity S-wave (km/s) = 3.55097 3.65444 3.60308
# Velocity P-wave (km/s) = 7.16659 7.52102 7.34594
#
# Compressibility (1/GPa) = 0.01623887
#
# Stress axis : x y z
#
# Youngs Moduli (GPa) = 53.99848 64.64735 56.21324
#
# Poissons Ratio (x) = 0.64138 0.23054
# Poissons Ratio (y) = 0.53573 0.21062
# Poissons Ratio (z) = 0.22145 0.24222
#
# Static dielectric constant tensor:
#      x y z
#    x 3.301740 0.000000 0.000000 
#    y 0.000000 3.351010 0.000000 
#    z 0.000000 0.000000 3.281350 
# 
# 
# High freq. dielectric constant tensor:
#      x y z
#    x 1.678560 0.000000 0.000000 
#    y 0.000000 1.682680 0.000000 
#    z 0.000000 0.000000 1.695130 
# 
# From -- ./inp_files/10236.got.cif
#   From: 2010.03.12/outbox.cif.g09.slc.cpg/sg66_6_cif.got.tgz:10236.got - 2010.04.10 21:57:39.
