data_PCOD8275916
_publ_section_title
;
Structure prediction by ZEFSAII (Michael W. Deem and Ramdas Pophale) SiO2 
 PCOD8275916
Probable space group: C C C M
;
_chemical_formula_sum "Si O2"
_cell_formula_units_Z 56
_cell_length_a 9.538170
_cell_length_b 15.077514
_cell_length_c 16.681071
_cell_angle_alpha 90.000000
_cell_angle_beta 90.000000
_cell_angle_gamma 90.000000
_cell_volume 2398.936376
_symmetry_space_group_name_H-M "C C C M"
_symmetry_group_IT_number 66
_symmetry_cell_setting 'orthorhombic'
loop_
_space_group_symop_operation_xyz
x,y,z
-x,-y,z
x,-y,1/2-z
-x,y,1/2-z
-x,-y,-z
x,y,-z
-x,y,1/2+z
x,-y,1/2+z
1/2+x,1/2+y,z
1/2-x,1/2-y,z
1/2+x,1/2-y,1/2-z
1/2-x,1/2+y,1/2-z
1/2-x,1/2-y,-z
1/2+x,1/2+y,-z
1/2-x,1/2+y,1/2+z
1/2+x,1/2-y,1/2+z
loop_
_atom_site_type_symbol
_atom_site_label
_atom_site_fract_x
_atom_site_fract_y
_atom_site_fract_z
Si Si1 0.858786 0.948504 0.908150
Si Si2 0.483745 0.740536 0.590486
Si Si3 0.870566 0.607915 0.801770
Si Si4 0.750000 0.250000 0.188359
O O1 0.878793 0.842396 0.903290
O O2 0.728812 0.967235 0.845548
O O3 0.820719 0.976743 0.000000
O O4 0.000000 0.000000 0.881194
O O5 0.520628 0.763242 0.500000
O O6 0.422857 0.829483 0.627354
O O7 0.624796 0.713775 0.634837
O O8 0.780209 0.664970 0.741165
O O9 0.000000 0.566043 0.750000
#
# Coordination Sequence:
#
# PCOD8275916 Si02
#       4
#    16  16  16   8
#     4  10  20  35  58  90 125 165 209 256 314 386
#     4  10  19  33  56  84 119 162 207 256 309 364
#     4  10  19  33  57  86 122 160 211 264 316 363
#     4  10  19  32  53  84 118 150 208 260 311 358
#
# _framework density 23.343679000000002
#
# number of rings (size 3 to 8) (size 9 to 14) (size 15 to 20)
#    0.000    2.000    2.857    1.286    0.000    2.286 
#    0.000    2.857    0.000   12.000    0.000   26.000 
#    0.000   22.857    0.000    0.000    0.000    0.571 
#
# Total GULP energy -347012.671859 kJ/mol
# GULP energy per Si atom -12393.309709 kJ/mol
# Density = 2.329055 g / cm^3
# Si number density = 23.343679 Si / 1000 Ang^3
#
#
#
# Elastic Constant Matrix: (Units=GPa)
#
#
# Indices 1 2 3 4 5 6 
#
# 1 162.0609 18.3935 93.1138 0.0000 0.0000 0.0000
# 2 18.3935 61.8022 28.9590 0.0000 0.0000 0.0000
# 3 93.1138 28.9590 169.1005 0.0000 0.0000 0.0000
# 4 0.0000 0.0000 0.0000 -4.8954 0.0000 0.0000
# 5 0.0000 0.0000 0.0000 0.0000 16.1175 0.0000
# 6 0.0000 0.0000 0.0000 0.0000 0.0000 30.7884
#
#
#
# Elastic Compliance Matrix: (Units=1/GPa)
#
#
# Indices 1 2 3 4 5 6 
#
# 1 0.009035 -0.000389 -0.004908 0.000000 0.000000 0.000000
# 2 -0.000389 0.017609 -0.002801 0.000000 0.000000 0.000000
# 3 -0.004908 -0.002801 0.009096 0.000000 0.000000 0.000000
# 4 0.000000 0.000000 0.000000 -0.204274 0.000000 0.000000
# 5 0.000000 0.000000 0.000000 0.000000 0.062044 0.000000
# 6 0.000000 0.000000 0.000000 0.000000 0.000000 0.032480
#
#
# Mechanical properties :
#
#
# Convention : Reuss Voigt Hill
#
# Bulk Modulus (GPa) = 51.17040 74.87737 63.02388
# Shear Modulus (GPa) = -97.47042 25.23525 -36.11758
#
# Velocity S-wave (km/s) = -6.46878 3.29147 -3.93773
# Velocity P-wave (km/s) = 5.81597 6.82574 2.52638
#
# Compressibility (1/GPa) = 0.01954255
#
# Stress axis : x y z
#
# Youngs Moduli (GPa) = 110.68319 56.78878 109.93700
#
# Poissons Ratio (x) = 0.02209 0.53961
# Poissons Ratio (y) = 0.04306 0.30798
# Poissons Ratio (z) = 0.54327 0.15909
#
# Static dielectric constant tensor:
#      x y z
#    x 4.457480 0.000000 0.000000 
#    y 0.000000 4.599880 0.000000 
#    z 0.000000 0.000000 4.500810 
# 
# 
# High freq. dielectric constant tensor:
#      x y z
#    x 1.930590 0.000000 0.000000 
#    y 0.000000 1.902090 0.000000 
#    z 0.000000 0.000000 1.940580 
# 
# From -- ./inp_files/27531.got.cif
#   From: 2010.03.12/outbox.cif.g09.slc.cpg/sg66_14_cif.got.tgz:27531.got - 2010.04.10 21:57:39.
