data_PCOD8275764
_publ_section_title
;
Structure prediction by ZEFSAII (Michael W. Deem and Ramdas Pophale) SiO2 
 PCOD8275764
Probable space group: C C C M
;
_chemical_formula_sum "Si O2"
_cell_formula_units_Z 88
_cell_length_a 27.825066
_cell_length_b 20.316168
_cell_length_c 9.209457
_cell_angle_alpha 90.000000
_cell_angle_beta 90.000000
_cell_angle_gamma 90.000000
_cell_volume 5206.094212
_symmetry_space_group_name_H-M "C C C M"
_symmetry_group_IT_number 66
_symmetry_cell_setting 'orthorhombic'
loop_
_space_group_symop_operation_xyz
x,y,z
-x,-y,z
x,-y,1/2-z
-x,y,1/2-z
-x,-y,-z
x,y,-z
-x,y,1/2+z
x,-y,1/2+z
1/2+x,1/2+y,z
1/2-x,1/2-y,z
1/2+x,1/2-y,1/2-z
1/2-x,1/2+y,1/2-z
1/2-x,1/2-y,-z
1/2+x,1/2+y,-z
1/2-x,1/2+y,1/2+z
1/2+x,1/2-y,1/2+z
loop_
_atom_site_type_symbol
_atom_site_label
_atom_site_fract_x
_atom_site_fract_y
_atom_site_fract_z
Si Si1 0.725389 0.938832 0.668544
Si Si2 0.868726 0.794076 0.166337
Si Si3 0.685363 0.423126 0.345654
Si Si4 0.702656 0.791274 0.671565
Si Si5 0.099646 0.000000 0.750000
Si Si6 0.049694 0.870257 0.833063
O O1 0.718183 0.948867 0.500000
O O2 0.782205 0.944131 0.708774
O O3 0.707401 0.867562 0.719109
O O4 0.698645 0.000000 0.750000
O O5 0.826169 0.846773 0.172205
O O6 0.845379 0.731088 0.244874
O O7 0.914346 0.819423 0.256360
O O8 0.883800 0.777867 0.000000
O O9 0.712917 0.434200 0.500000
O O10 0.634847 0.461617 0.359405
O O11 0.694412 0.783918 0.500000
O O12 0.750000 0.750000 0.717772
O O13 0.067098 0.946155 0.830987
O O14 0.000000 0.864700 0.750000
O O15 0.043256 0.849033 0.000000
#
# Coordination Sequence:
#
# PCOD8275764 Si02
#       6
#    16  16  16  16   8  16
#     4  11  22  33  48  70 102 139 176 218 263 313
#     4  10  21  35  53  76  99 128 171 220 267 314
#     4  10  19  30  45  68  97 130 172 216 259 306
#     4  10  20  35  53  74 102 138 178 218 266 321
#     4  10  21  32  50  72  98 138 182 224 267 312
#     4  11  23  38  55  74 102 137 178 226 275 323
#
# _framework density 16.903265999999999
#
# number of rings (size 3 to 8) (size 9 to 14) (size 15 to 20)
#    0.000    1.636    2.727    2.455    0.000    7.636 
#    0.000    0.000    0.000    0.000    0.000    0.000 
#    0.000    0.727    0.000    7.636    0.000    4.182 
#
# Total GULP energy -545282.773400 kJ/mol
# GULP energy per Si atom -12392.790305 kJ/mol
# Density = 1.686479 g / cm^3
# Si number density = 16.903266 Si / 1000 Ang^3
#
#
#
# Elastic Constant Matrix: (Units=GPa)
#
#
# Indices 1 2 3 4 5 6 
#
# 1 75.5117 47.7748 41.7821 0.0000 0.0000 0.0000
# 2 47.7748 124.0026 51.1188 0.0000 0.0000 0.0000
# 3 41.7821 51.1188 106.0126 0.0000 0.0000 0.0000
# 4 0.0000 0.0000 0.0000 23.4126 0.0000 0.0000
# 5 0.0000 0.0000 0.0000 0.0000 15.4150 0.0000
# 6 0.0000 0.0000 0.0000 0.0000 0.0000 19.0152
#
#
#
# Elastic Compliance Matrix: (Units=1/GPa)
#
#
# Indices 1 2 3 4 5 6 
#
# 1 0.019470 -0.005414 -0.005063 0.000000 0.000000 0.000000
# 2 -0.005414 0.011571 -0.003445 0.000000 0.000000 0.000000
# 3 -0.005063 -0.003445 0.013090 0.000000 0.000000 0.000000
# 4 0.000000 0.000000 0.000000 0.042712 0.000000 0.000000
# 5 0.000000 0.000000 0.000000 0.000000 0.064872 0.000000
# 6 0.000000 0.000000 0.000000 0.000000 0.000000 0.052590
#
#
# Mechanical properties :
#
#
# Convention : Reuss Voigt Hill
#
# Bulk Modulus (GPa) = 61.40552 65.20871 63.30711
# Shear Modulus (GPa) = 21.04583 22.55863 21.80223
#
# Velocity S-wave (km/s) = 3.53239 3.65714 3.59531
# Velocity P-wave (km/s) = 7.28310 7.51627 7.40060
#
# Compressibility (1/GPa) = 0.01628518
#
# Stress axis : x y z
#
# Youngs Moduli (GPa) = 51.36181 86.42593 76.39632
#
# Poissons Ratio (x) = 0.46791 0.38678
# Poissons Ratio (y) = 0.27808 0.26322
# Poissons Ratio (z) = 0.26004 0.29778
#
# Static dielectric constant tensor:
#      x y z
#    x 2.838110 0.000000 0.000000 
#    y 0.000000 3.331350 0.000000 
#    z 0.000000 0.000000 3.185010 
# 
# 
# High freq. dielectric constant tensor:
#      x y z
#    x 1.607640 0.000000 0.000000 
#    y 0.000000 1.647110 0.000000 
#    z 0.000000 0.000000 1.664440 
# 
# From -- ./inp_files/7801.got.cif
#   From: 2010.03.12/outbox.cif.g09.slc.cpg/sg66_4_cif.got.tgz:7801.got - 2010.04.10 21:57:39.
