data_PCOD8275970
_publ_section_title
;
Structure prediction by ZEFSAII (Michael W. Deem and Ramdas Pophale) SiO2 
 PCOD8275970
Probable space group: C C C M
;
_chemical_formula_sum "Si O2"
_cell_formula_units_Z 128
_cell_length_a 19.993460
_cell_length_b 20.622281
_cell_length_c 17.795026
_cell_angle_alpha 90.000000
_cell_angle_beta 90.000000
_cell_angle_gamma 90.000000
_cell_volume 7337.080521
_symmetry_space_group_name_H-M "C C C M"
_symmetry_group_IT_number 66
_symmetry_cell_setting 'orthorhombic'
loop_
_space_group_symop_operation_xyz
x,y,z
-x,-y,z
x,-y,1/2-z
-x,y,1/2-z
-x,-y,-z
x,y,-z
-x,y,1/2+z
x,-y,1/2+z
1/2+x,1/2+y,z
1/2-x,1/2-y,z
1/2+x,1/2-y,1/2-z
1/2-x,1/2+y,1/2-z
1/2-x,1/2-y,-z
1/2+x,1/2+y,-z
1/2-x,1/2+y,1/2+z
1/2+x,1/2-y,1/2+z
loop_
_atom_site_type_symbol
_atom_site_label
_atom_site_fract_x
_atom_site_fract_y
_atom_site_fract_z
Si Si1 0.476940 0.687078 0.585893
Si Si2 0.189496 0.299331 0.581805
Si Si3 0.939178 0.040404 0.585673
Si Si4 0.230568 0.107300 0.325035
Si Si5 0.610712 0.297206 0.831879
Si Si6 0.744682 0.143256 0.341191
Si Si7 0.857882 0.246624 0.664884
Si Si8 0.791191 0.980834 0.912173
O O1 0.500641 0.700763 0.500000
O O2 0.445166 0.616787 0.592883
O O3 0.535841 0.683825 0.646935
O O4 0.421097 0.740244 0.609003
O O5 0.174017 0.329561 0.500000
O O6 0.250000 0.250000 0.576741
O O7 0.207049 0.354216 0.640961
O O8 0.125407 0.260886 0.610691
O O9 0.937772 0.017138 0.500000
O O10 0.866825 0.024797 0.620115
O O11 0.000000 0.000000 0.625688
O O12 0.159585 0.141249 0.345116
O O13 0.241263 0.106203 0.236470
O O14 0.239024 0.036857 0.360721
O O15 0.617215 0.269364 0.748432
O O16 0.801275 0.195885 0.359147
O O17 0.672965 0.180517 0.340910
O O18 0.749091 0.086024 0.402800
O O19 0.788921 0.999912 0.000000
#
# Coordination Sequence:
#
# PCOD8275970 Si02
#       8
#    16  16  16  16  16  16  16  16
#     4  11  21  33  51  78 109 145 185 223 263 315
#     4   9  16  28  48  76 104 132 172 217 266 320
#     4   9  18  32  47  69 107 149 182 213 254 302
#     4  10  19  33  53  77 107 142 176 219 272 322
#     4  10  19  33  53  77 107 142 176 219 272 322
#     4  10  20  36  55  73 103 145 186 230 272 313
#     4  10  20  36  55  73 103 145 186 230 272 313
#     4  11  21  33  51  78 109 145 185 223 263 315
#
# _framework density 17.445630999999999
#
# number of rings (size 3 to 8) (size 9 to 14) (size 15 to 20)
#    0.000    2.000    2.500    2.250    0.000    3.000 
#    0.000    1.250    0.000    0.000    0.000    0.875 
#    0.000    3.000    0.000    0.000    0.000    0.000 
#
# Total GULP energy -793256.585368 kJ/mol
# GULP energy per Si atom -12394.634146 kJ/mol
# Density = 1.740592 g / cm^3
# Si number density = 17.445631 Si / 1000 Ang^3
#
#
#
# Elastic Constant Matrix: (Units=GPa)
#
#
# Indices 1 2 3 4 5 6 
#
# 1 34.4229 25.5363 16.3353 0.0000 0.0000 0.0000
# 2 25.5363 81.2604 20.3547 0.0000 0.0000 0.0000
# 3 16.3353 20.3547 43.7772 0.0000 0.0000 0.0000
# 4 0.0000 0.0000 0.0000 27.6304 0.0000 0.0000
# 5 0.0000 0.0000 0.0000 0.0000 23.8359 0.0000
# 6 0.0000 0.0000 0.0000 0.0000 0.0000 23.7858
#
#
#
# Elastic Compliance Matrix: (Units=1/GPa)
#
#
# Indices 1 2 3 4 5 6 
#
# 1 0.041939 -0.010480 -0.010777 0.000000 0.000000 0.000000
# 2 -0.010480 0.016547 -0.003783 0.000000 0.000000 0.000000
# 3 -0.010777 -0.003783 0.028623 0.000000 0.000000 0.000000
# 4 0.000000 0.000000 0.000000 0.036192 0.000000 0.000000
# 5 0.000000 0.000000 0.000000 0.000000 0.041954 0.000000
# 6 0.000000 0.000000 0.000000 0.000000 0.000000 0.042042
#
#
# Mechanical properties :
#
#
# Convention : Reuss Voigt Hill
#
# Bulk Modulus (GPa) = 27.00533 31.54590 29.27561
# Shear Modulus (GPa) = 18.53776 21.53270 20.03523
#
# Velocity S-wave (km/s) = 3.26329 3.51704 3.39254
# Velocity P-wave (km/s) = 5.45088 5.88340 5.67126
#
# Compressibility (1/GPa) = 0.03702973
#
# Stress axis : x y z
#
# Youngs Moduli (GPa) = 23.84414 60.43347 34.93667
#
# Poissons Ratio (x) = 0.63335 0.37650
# Poissons Ratio (y) = 0.24989 0.13217
# Poissons Ratio (z) = 0.25696 0.22863
#
# Static dielectric constant tensor:
#      x y z
#    x 3.159690 0.000000 0.000000 
#    y 0.000000 3.152890 0.000000 
#    z 0.000000 0.000000 3.292620 
# 
# 
# High freq. dielectric constant tensor:
#      x y z
#    x 1.649520 0.000000 0.000000 
#    y 0.000000 1.658290 0.000000 
#    z 0.000000 0.000000 1.675780 
# 
# From -- ./inp_files/43189.got.cif
#   From: 2010.03.12/outbox.cif.g09.slc.cpg/sg66_22_cif.got.tgz:43189.got - 2010.04.10 21:57:39.
