data_PCOD8275578
_publ_section_title
;
Structure prediction by ZEFSAII (Michael W. Deem and Ramdas Pophale) SiO2 
 PCOD8275578
Probable space group: C C C M
;
_chemical_formula_sum "Si O2"
_cell_formula_units_Z 88
_cell_length_a 27.949032
_cell_length_b 18.516780
_cell_length_c 9.297730
_cell_angle_alpha 90.000000
_cell_angle_beta 90.000000
_cell_angle_gamma 90.000000
_cell_volume 4811.817730
_symmetry_space_group_name_H-M "C C C M"
_symmetry_group_IT_number 66
_symmetry_cell_setting 'orthorhombic'
loop_
_space_group_symop_operation_xyz
x,y,z
-x,-y,z
x,-y,1/2-z
-x,y,1/2-z
-x,-y,-z
x,y,-z
-x,y,1/2+z
x,-y,1/2+z
1/2+x,1/2+y,z
1/2-x,1/2-y,z
1/2+x,1/2-y,1/2-z
1/2-x,1/2+y,1/2-z
1/2-x,1/2-y,-z
1/2+x,1/2+y,-z
1/2-x,1/2+y,1/2+z
1/2+x,1/2-y,1/2+z
loop_
_atom_site_type_symbol
_atom_site_label
_atom_site_fract_x
_atom_site_fract_y
_atom_site_fract_z
Si Si1 0.687246 0.626779 0.159695
Si Si2 0.623755 0.500000 0.250000
Si Si3 0.542057 0.596050 0.656680
Si Si4 0.452273 0.760175 0.828265
Si Si5 0.771487 0.670558 0.337643
Si Si6 0.358579 0.778818 0.330375
O O1 0.656212 0.553916 0.157763
O O2 0.731339 0.617852 0.270071
O O3 0.654536 0.695340 0.200761
O O4 0.708268 0.638895 0.000000
O O5 0.589721 0.547872 0.351331
O O6 0.500000 0.560117 0.750000
O O7 0.519395 0.601823 0.500000
O O8 0.554263 0.676034 0.711888
O O9 0.500000 0.790042 0.750000
O O10 0.407161 0.799152 0.753954
O O11 0.453563 0.774788 0.000000
O O12 0.783564 0.644955 0.500000
O O13 0.750000 0.750000 0.338830
O O14 0.818334 0.668836 0.237545
O O15 0.364061 0.794523 0.500000
#
# Coordination Sequence:
#
# PCOD8275578 Si02
#       6
#    16   8  16  16  16  16
#     4  10  21  33  47  67  90 118 155 197 241 286
#     4  12  21  34  48  68  90 124 161 204 242 284
#     4  10  22  35  47  61  85 121 163 205 241 279
#     4  10  19  32  47  67  92 121 157 197 239 281
#     4   9  18  32  50  69  88 112 146 191 238 287
#     4  10  18  32  51  69  89 117 152 193 239 287
#
# _framework density 18.288307
#
# number of rings (size 3 to 8) (size 9 to 14) (size 15 to 20)
#    0.000    2.000    1.818    2.455    0.000    7.273 
#    0.000    0.000    0.000    0.000    0.000    0.000 
#    0.000    0.000    0.000    0.818    0.000   12.182 
#
# Total GULP energy -545435.218889 kJ/mol
# GULP energy per Si atom -12396.254975 kJ/mol
# Density = 1.824668 g / cm^3
# Si number density = 18.288307 Si / 1000 Ang^3
#
#
#
# Elastic Constant Matrix: (Units=GPa)
#
#
# Indices 1 2 3 4 5 6 
#
# 1 142.8943 21.3444 73.7436 0.0000 0.0000 0.0000
# 2 21.3444 16.8647 9.1806 0.0000 0.0000 0.0000
# 3 73.7436 9.1806 129.1155 0.0000 0.0000 0.0000
# 4 0.0000 0.0000 0.0000 -5.2709 0.0000 0.0000
# 5 0.0000 0.0000 0.0000 0.0000 37.4590 0.0000
# 6 0.0000 0.0000 0.0000 0.0000 0.0000 26.6566
#
#
#
# Elastic Compliance Matrix: (Units=1/GPa)
#
#
# Indices 1 2 3 4 5 6 
#
# 1 0.011795 -0.011714 -0.005903 0.000000 0.000000 0.000000
# 2 -0.011714 0.073316 0.001477 0.000000 0.000000 0.000000
# 3 -0.005903 0.001477 0.011012 0.000000 0.000000 0.000000
# 4 0.000000 0.000000 0.000000 -0.189722 0.000000 0.000000
# 5 0.000000 0.000000 0.000000 0.000000 0.026696 0.000000
# 6 0.000000 0.000000 0.000000 0.000000 0.000000 0.037514
#
#
# Mechanical properties :
#
#
# Convention : Reuss Voigt Hill
#
# Bulk Modulus (GPa) = 15.66353 55.26796 35.46575
# Shear Modulus (GPa) = 206.85274 24.07600 115.46437
#
# Velocity S-wave (km/s) = 10.64669 3.63226 7.95441
# Velocity P-wave (km/s) = 12.63802 6.91932 10.18814
#
# Compressibility (1/GPa) = 0.06384256
#
# Stress axis : x y z
#
# Youngs Moduli (GPa) = 84.78525 13.63950 90.81247
#
# Poissons Ratio (x) = 0.15977 0.53611
# Poissons Ratio (y) = 0.99316 -0.13415
# Poissons Ratio (z) = 0.50053 -0.02015
#
# Static dielectric constant tensor:
#      x y z
#    x 3.425590 0.000000 0.000000 
#    y 0.000000 2.773240 0.000000 
#    z 0.000000 0.000000 3.421330 
# 
# 
# High freq. dielectric constant tensor:
#      x y z
#    x 1.712930 0.000000 0.000000 
#    y 0.000000 1.633860 0.000000 
#    z 0.000000 0.000000 1.722450 
# 
# From -- ./inp_files/8009.got.cif
#   From: 2010.03.12/outbox.cif.g09.slc.cpg/sg66_5_cif.got.tgz:8009.got - 2010.04.10 21:57:39.
