data_PCOD8275019
_publ_section_title
;
Structure prediction by ZEFSAII (Michael W. Deem and Ramdas Pophale) SiO2 
 PCOD8275019
Probable space group: C M M M
;
_chemical_formula_sum "Si O2"
_cell_formula_units_Z 88
_cell_length_a 22.669270
_cell_length_b 33.628484
_cell_length_c 9.686505
_cell_angle_alpha 90.000000
_cell_angle_beta 90.000000
_cell_angle_gamma 90.000000
_cell_volume 7384.344194
_symmetry_space_group_name_H-M "C M M M"
_symmetry_group_IT_number 65
_symmetry_cell_setting 'orthorhombic'
loop_
_space_group_symop_operation_xyz
x,y,z
-x,-y,z
x,-y,-z
-x,y,-z
-x,-y,-z
x,y,-z
-x,y,z
x,-y,z
1/2+x,1/2+y,z
1/2-x,1/2-y,z
1/2+x,1/2-y,-z
1/2-x,1/2+y,-z
1/2-x,1/2-y,-z
1/2+x,1/2+y,-z
1/2-x,1/2+y,z
1/2+x,1/2-y,z
loop_
_atom_site_type_symbol
_atom_site_label
_atom_site_fract_x
_atom_site_fract_y
_atom_site_fract_z
Si Si1 0.271704 0.312777 0.155111
Si Si2 0.135791 0.153124 0.340364
Si Si3 0.929912 0.000000 0.157125
Si Si4 0.658682 0.769221 0.155253
Si Si5 0.068920 0.926862 0.341052
Si Si6 0.432413 0.267183 0.660582
O O1 0.302838 0.344201 0.256521
O O2 0.306337 0.271712 0.162598
O O3 0.203642 0.304633 0.199560
O O4 0.273649 0.329980 0.000000
O O5 0.152939 0.153997 0.500000
O O6 0.103307 0.112759 0.298853
O O7 0.091906 0.189128 0.302969
O O8 0.907449 0.038641 0.240069
O O9 0.000000 0.000000 0.155852
O O10 0.905178 0.000000 0.000000
O O11 0.603029 0.767137 0.257705
O O12 0.635633 0.776718 0.000000
O O13 0.081038 0.939060 0.500000
O O14 0.000000 0.918612 0.318537
O O15 0.425215 0.257780 0.500000
O O16 0.500000 0.265640 0.707857
#
# Coordination Sequence:
#
# PCOD8275019 Si02
#       6
#    16  16   8  16  16  16
#     4   8  14  24  35  46  61  80 102 129 160 190
#     4   9  16  24  35  50  65  81 103 131 162 197
#     4   9  17  27  37  49  63  79 103 133 160 189
#     4   8  14  24  35  45  59  81 106 129 155 190
#     4   9  16  26  38  49  63  84 106 128 159 198
#     4   9  16  24  33  47  66  84 103 131 165 195
#
# _framework density 11.917104999999999
#
# number of rings (size 3 to 8) (size 9 to 14) (size 15 to 20)
#    0.000    3.364    0.000    1.909    0.000    5.091 
#    0.000    3.636    0.000    3.273    0.000    0.000 
#    0.000    0.000    0.000    0.000    0.000    0.000 
#
# Total GULP energy -545347.658645 kJ/mol
# GULP energy per Si atom -12394.264969 kJ/mol
# Density = 1.188998 g / cm^3
# Si number density = 11.917105 Si / 1000 Ang^3
#
#
#
# Elastic Constant Matrix: (Units=GPa)
#
#
# Indices 1 2 3 4 5 6 
#
# 1 71.5855 40.3112 49.0225 0.0000 0.0000 0.0000
# 2 40.3112 51.6138 41.1072 0.0000 0.0000 0.0000
# 3 49.0225 41.1072 68.7542 0.0000 0.0000 0.0000
# 4 0.0000 0.0000 0.0000 15.5642 0.0000 0.0000
# 5 0.0000 0.0000 0.0000 0.0000 20.5774 0.0000
# 6 0.0000 0.0000 0.0000 0.0000 0.0000 15.0327
#
#
#
# Elastic Compliance Matrix: (Units=1/GPa)
#
#
# Indices 1 2 3 4 5 6 
#
# 1 0.031099 -0.012654 -0.014608 0.000000 0.000000 0.000000
# 2 -0.012654 0.042136 -0.016170 0.000000 0.000000 0.000000
# 3 -0.014608 -0.016170 0.034628 0.000000 0.000000 0.000000
# 4 0.000000 0.000000 0.000000 0.064250 0.000000 0.000000
# 5 0.000000 0.000000 0.000000 0.000000 0.048597 0.000000
# 6 0.000000 0.000000 0.000000 0.000000 0.000000 0.066522
#
#
# Mechanical properties :
#
#
# Convention : Reuss Voigt Hill
#
# Bulk Modulus (GPa) = 47.62238 50.31502 48.96870
# Shear Modulus (GPa) = 13.12005 14.33571 13.72788
#
# Velocity S-wave (km/s) = 3.32165 3.47212 3.39772
# Velocity P-wave (km/s) = 7.39995 7.64112 7.52150
#
# Compressibility (1/GPa) = 0.02099853
#
# Stress axis : x y z
#
# Youngs Moduli (GPa) = 32.15545 23.73246 28.87838
#
# Poissons Ratio (x) = 0.30032 0.42185
# Poissons Ratio (y) = 0.40691 0.46696
# Poissons Ratio (z) = 0.46972 0.38375
#
# Static dielectric constant tensor:
#      x y z
#    x 2.497540 0.000000 0.000000 
#    y 0.000000 2.295380 0.000000 
#    z 0.000000 0.000000 2.606280 
# 
# 
# High freq. dielectric constant tensor:
#      x y z
#    x 1.428010 0.000000 0.000000 
#    y 0.000000 1.412860 0.000000 
#    z 0.000000 0.000000 1.459630 
# 
# From -- ./inp_files/14960.got.cif
#   From: 2010.03.12/outbox.cif.g09.slc.cpg/sg65_8_cif.got.tgz:14960.got - 2010.04.10 20:52:16.
