data_PCOD8275363
_publ_section_title
;
Structure prediction by ZEFSAII (Michael W. Deem and Ramdas Pophale) SiO2 
 PCOD8275363
Probable space group: C C C M
;
_chemical_formula_sum "Si O2"
_cell_formula_units_Z 80
_cell_length_a 22.053350
_cell_length_b 23.473955
_cell_length_c 10.221891
_cell_angle_alpha 90.000000
_cell_angle_beta 90.000000
_cell_angle_gamma 90.000000
_cell_volume 5291.661843
_symmetry_space_group_name_H-M "C C C M"
_symmetry_group_IT_number 66
_symmetry_cell_setting 'orthorhombic'
loop_
_space_group_symop_operation_xyz
x,y,z
-x,-y,z
x,-y,1/2-z
-x,y,1/2-z
-x,-y,-z
x,y,-z
-x,y,1/2+z
x,-y,1/2+z
1/2+x,1/2+y,z
1/2-x,1/2-y,z
1/2+x,1/2-y,1/2-z
1/2-x,1/2+y,1/2-z
1/2-x,1/2-y,-z
1/2+x,1/2+y,-z
1/2-x,1/2+y,1/2+z
1/2+x,1/2-y,1/2+z
loop_
_atom_site_type_symbol
_atom_site_label
_atom_site_fract_x
_atom_site_fract_y
_atom_site_fract_z
Si Si1 0.431609 0.116050 0.500000
Si Si2 0.858046 0.498372 0.500000
Si Si3 0.129343 0.331783 0.257422
Si Si4 0.925879 0.617511 0.000000
Si Si5 0.254328 0.615346 0.843257
Si Si6 0.273765 0.000000 0.250000
Si Si7 0.816938 0.224779 0.144907
O O1 0.415828 0.152212 0.372790
O O2 0.502949 0.108688 0.500000
O O3 0.396789 0.056005 0.500000
O O4 0.903805 0.446638 0.500000
O O5 0.816508 0.492719 0.373913
O O6 0.097863 0.347047 0.122752
O O7 0.191981 0.365230 0.276476
O O8 0.141823 0.263205 0.259506
O O9 0.269798 0.554313 0.778187
O O10 0.309243 0.658940 0.808328
O O11 0.244499 0.611300 0.000000
O O12 0.750000 0.250000 0.136782
O O13 0.846062 0.226777 0.000000
#
# Coordination Sequence:
#
# PCOD8275363 Si02
#       7
#     8   8  16   8  16   8  16
#     4  12  21  36  48  59  83 131 173 194 219 270
#     4  12  21  34  44  58  92 126 164 196 231 258
#     4  11  18  34  47  65  87 114 156 201 234 270
#     4  12  25  30  44  67  93 119 157 206 247 254
#     4  10  17  30  50  69  87 120 157 183 226 284
#     4  12  18  30  49  66  92 122 151 198 224 266
#     4   8  15  28  51  68  80 112 155 188 222 283
#
# _framework density 15.118123000000001
#
# number of rings (size 3 to 8) (size 9 to 14) (size 15 to 20)
#    0.000    1.400    7.000    2.100    0.000    0.000 
#    0.000    8.500    0.000    0.000    0.000    0.000 
#    0.000    0.000    0.000    5.400    0.000    0.000 
#
# Total GULP energy -495728.395009 kJ/mol
# GULP energy per Si atom -12393.209875 kJ/mol
# Density = 1.508371 g / cm^3
# Si number density = 15.118123 Si / 1000 Ang^3
#
#
#
# Elastic Constant Matrix: (Units=GPa)
#
#
# Indices 1 2 3 4 5 6 
#
# 1 30.6641 42.5685 24.1956 0.0000 0.0000 0.0000
# 2 42.5685 141.7084 44.6719 0.0000 0.0000 0.0000
# 3 24.1956 44.6719 98.5804 0.0000 0.0000 0.0000
# 4 0.0000 0.0000 0.0000 31.4485 0.0000 0.0000
# 5 0.0000 0.0000 0.0000 0.0000 6.4679 0.0000
# 6 0.0000 0.0000 0.0000 0.0000 0.0000 12.1967
#
#
#
# Elastic Compliance Matrix: (Units=1/GPa)
#
#
# Indices 1 2 3 4 5 6 
#
# 1 0.060597 -0.015767 -0.007728 0.000000 0.000000 0.000000
# 2 -0.015767 0.012335 -0.001720 0.000000 0.000000 0.000000
# 3 -0.007728 -0.001720 0.012820 0.000000 0.000000 0.000000
# 4 0.000000 0.000000 0.000000 0.031798 0.000000 0.000000
# 5 0.000000 0.000000 0.000000 0.000000 0.154610 0.000000
# 6 0.000000 0.000000 0.000000 0.000000 0.000000 0.081989
#
#
# Mechanical properties :
#
#
# Convention : Reuss Voigt Hill
#
# Bulk Modulus (GPa) = 28.31044 54.86943 41.58994
# Shear Modulus (GPa) = 12.00900 20.65708 16.33304
#
# Velocity S-wave (km/s) = 2.82147 3.70047 3.29045
# Velocity P-wave (km/s) = 5.42043 7.39125 6.48119
#
# Compressibility (1/GPa) = 0.03532266
#
# Stress axis : x y z
#
# Youngs Moduli (GPa) = 16.50241 81.06873 78.00189
#
# Poissons Ratio (x) = 1.27820 0.60282
# Poissons Ratio (y) = 0.26019 0.13416
# Poissons Ratio (z) = 0.12753 0.13943
#
# Static dielectric constant tensor:
#      x y z
#    x 2.614830 0.000000 0.000000 
#    y 0.000000 3.514460 0.000000 
#    z 0.000000 0.000000 2.914540 
# 
# 
# High freq. dielectric constant tensor:
#      x y z
#    x 1.526890 0.000000 0.000000 
#    y 0.000000 1.589190 0.000000 
#    z 0.000000 0.000000 1.580410 
# 
# From -- ./inp_files/6808.got.cif
#   From: 2010.03.12/outbox.cif.g09.slc.cpg/sg66_4_cif.got.tgz:6808.got - 2010.04.10 21:57:39.
