data_PCOD8275198
_publ_section_title
;
Structure prediction by ZEFSAII (Michael W. Deem and Ramdas Pophale) SiO2 
 PCOD8275198
Probable space group: C M M M
;
_chemical_formula_sum "Si O2"
_cell_formula_units_Z 52
_cell_length_a 30.000000
_cell_length_b 9.000000
_cell_length_c 21.000000
_cell_angle_alpha 90.000000
_cell_angle_beta 90.000000
_cell_angle_gamma 90.000000
_cell_volume 5670.000000
_symmetry_space_group_name_H-M "C M M M"
_symmetry_group_IT_number 65
_symmetry_cell_setting 'orthorhombic'
loop_
_space_group_symop_operation_xyz
x,y,z
-x,-y,z
x,-y,-z
-x,y,-z
-x,-y,-z
x,y,-z
-x,y,z
x,-y,z
1/2+x,1/2+y,z
1/2-x,1/2-y,z
1/2+x,1/2-y,-z
1/2-x,1/2+y,-z
1/2-x,1/2-y,-z
1/2+x,1/2+y,-z
1/2-x,1/2+y,z
1/2+x,1/2-y,z
loop_
_atom_site_type_symbol
_atom_site_label
_atom_site_fract_x
_atom_site_fract_y
_atom_site_fract_z
Si Si1 0.792956 0.335260 0.100545
Si Si2 0.412137 0.327607 0.571398
Si Si3 0.552404 0.176367 0.193222
Si Si4 0.000000 0.661617 0.574575
Si Si5 0.609256 0.176192 0.928575
Si Si6 0.882183 0.174870 0.292014
Si Si7 0.293179 0.166752 0.250876
O O1 0.791360 0.500000 0.071202
O O2 0.750000 0.250000 0.071915
O O3 0.840454 0.259734 0.081800
O O4 0.788776 0.342522 0.175833
O O5 0.395791 0.271587 0.500000
O O6 0.422425 0.500000 0.565599
O O7 0.456858 0.250443 0.595333
O O8 0.379869 0.293809 0.631127
O O9 0.500000 0.220934 0.192116
O O10 0.575577 0.233652 0.126931
O O11 0.576302 0.250475 0.254528
O O12 0.558066 0.000000 0.199757
O O13 0.000000 0.500000 0.608341
O O14 0.000000 0.640053 0.500000
O O15 0.611475 0.000000 0.922650
O O16 0.592619 0.222964 0.000000
O O17 0.836664 0.239964 0.266253
O O18 0.884680 0.000000 0.278585
O O19 0.250000 0.250000 0.280078
O O20 0.296285 0.000000 0.279674
#
# Coordination Sequence:
#
# PCOD8275198 Si02
#       7
#    16  16  16   8  16  16  16
#     4   9  17  30  49  74 105 136 167 208 261 316
#     4   9  19  35  52  72 104 144 182 220 266 323
#     4  10  21  37  55  77 106 141 182 229 278 320
#     4   9  17  29  47  73 103 135 174 217 262 315
#     4   9  17  32  53  76 104 138 178 223 269 319
#     4  11  22  35  56  82 108 141 181 222 270 321
#     4  10  19  34  56  82 112 141 175 218 268 320
#
# _framework density 9.1710759999999993
#
# number of rings (size 3 to 8) (size 9 to 14) (size 15 to 20)
#    0.000    2.385    1.538    1.154    1.077    3.692 
#    0.000    1.538    0.000    1.846    0.000    1.077 
#    0.000    0.000    0.000    0.000    0.000    0.000 
#
# Total GULP energy -644289.671684 kJ/mol
# GULP energy per Si atom -12390.185994 kJ/mol
# Density = 0.915020 g / cm^3
# Si number density = 9.171076 Si / 1000 Ang^3
#
#
#
# Elastic Constant Matrix: (Units=GPa)
#
#
# Indices 1 2 3 4 5 6 
#
# 1 133.5077 35.8030 40.8029 0.0000 0.0000 0.0000
# 2 35.8030 46.7421 30.9268 0.0000 0.0000 0.0000
# 3 40.8029 30.9268 100.4891 0.0000 0.0000 0.0000
# 4 0.0000 0.0000 0.0000 16.5298 0.0000 0.0000
# 5 0.0000 0.0000 0.0000 0.0000 17.7016 0.0000
# 6 0.0000 0.0000 0.0000 0.0000 0.0000 55.0133
#
#
#
# Elastic Compliance Matrix: (Units=1/GPa)
#
#
# Indices 1 2 3 4 5 6 
#
# 1 0.009763 -0.006097 -0.002088 0.000000 0.000000 0.000000
# 2 -0.006097 0.030672 -0.006964 0.000000 0.000000 0.000000
# 3 -0.002088 -0.006964 0.012942 0.000000 0.000000 0.000000
# 4 0.000000 0.000000 0.000000 0.060497 0.000000 0.000000
# 5 0.000000 0.000000 0.000000 0.000000 0.056492 0.000000
# 6 0.000000 0.000000 0.000000 0.000000 0.000000 0.018177
#
#
# Mechanical properties :
#
#
# Convention : Reuss Voigt Hill
#
# Bulk Modulus (GPa) = 43.32805 55.08938 49.20871
# Shear Modulus (GPa) = 22.07168 29.39603 25.73385
#
# Velocity S-wave (km/s) = 3.47267 4.00765 3.74971
# Velocity P-wave (km/s) = 6.30497 7.17736 6.75526
#
# Compressibility (1/GPa) = 0.02307974
#
# Stress axis : x y z
#
# Youngs Moduli (GPa) = 102.42377 32.60321 77.26553
#
# Poissons Ratio (x) = 0.19878 0.16132
# Poissons Ratio (y) = 0.62447 0.53808
# Poissons Ratio (z) = 0.21385 0.22705
#
# Static dielectric constant tensor:
#      x y z
#    x 3.618810 0.000000 0.000000 
#    y 0.000000 3.454050 0.000000 
#    z 0.000000 0.000000 3.587120 
# 
# 
# High freq. dielectric constant tensor:
#      x y z
#    x 1.708290 0.000000 0.000000 
#    y 0.000000 1.696450 0.000000 
#    z 0.000000 0.000000 1.715120 
# 
# From -- ./inp_files/66403.got.cif
#   From: 2010.03.12/outbox.ucp.g09.slc.cvg/sg65_34_cif.got.tgz:66403.got - 2010.05.04 19:44:54.
