data_PCOD8275844
_publ_section_title
;
Structure prediction by ZEFSAII (Michael W. Deem and Ramdas Pophale) SiO2 
 PCOD8275844
Probable space group: C C C M
;
_chemical_formula_sum "Si O2"
_cell_formula_units_Z 96
_cell_length_a 17.297280
_cell_length_b 14.463791
_cell_length_c 20.806950
_cell_angle_alpha 90.000000
_cell_angle_beta 90.000000
_cell_angle_gamma 90.000000
_cell_volume 5205.571030
_symmetry_space_group_name_H-M "C C C M"
_symmetry_group_IT_number 66
_symmetry_cell_setting 'orthorhombic'
loop_
_space_group_symop_operation_xyz
x,y,z
-x,-y,z
x,-y,1/2-z
-x,y,1/2-z
-x,-y,-z
x,y,-z
-x,y,1/2+z
x,-y,1/2+z
1/2+x,1/2+y,z
1/2-x,1/2-y,z
1/2+x,1/2-y,1/2-z
1/2-x,1/2+y,1/2-z
1/2-x,1/2-y,-z
1/2+x,1/2+y,-z
1/2-x,1/2+y,1/2+z
1/2+x,1/2-y,1/2+z
loop_
_atom_site_type_symbol
_atom_site_label
_atom_site_fract_x
_atom_site_fract_y
_atom_site_fract_z
Si Si1 0.586454 0.672655 0.360451
Si Si2 0.591351 0.686491 0.138890
Si Si3 0.811889 0.988565 0.000000
Si Si4 0.070320 0.859266 0.000000
Si Si5 0.691551 0.501058 0.139206
Si Si6 0.686663 0.000000 0.250000
Si Si7 0.900774 0.814604 0.000000
Si Si8 0.090882 0.684770 0.754117
O O1 0.496082 0.654466 0.345901
O O2 0.598236 0.696120 0.436168
O O3 0.635597 0.582807 0.339971
O O4 0.614592 0.759248 0.318268
O O5 0.642638 0.594895 0.139444
O O6 0.598931 0.739386 0.068702
O O7 0.620490 0.758010 0.192292
O O8 0.895364 0.038206 0.000000
O O9 0.770901 0.015797 0.067504
O O10 0.825775 0.879222 0.000000
O O11 0.978892 0.875365 0.000000
O O12 0.761924 0.509857 0.187104
O O13 0.633101 0.088199 0.242958
O O14 0.000000 0.665960 0.750000
#
# Coordination Sequence:
#
# PCOD8275844 Si02
#       8
#    16  16   8   8  16   8   8  16
#     4   9  17  31  53  80 107 132 160 197 243 296
#     4   9  17  31  53  80 107 132 160 197 243 296
#     4   8  15  28  44  72 111 140 156 176 230 306
#     4   8  13  24  47  77 105 131 158 191 235 290
#     4  10  19  31  52  81 110 134 156 192 245 304
#     4  12  25  38  51  66  94 136 178 216 249 288
#     4   8  13  24  47  77 105 131 158 191 235 290
#     4  10  22  39  55  69  90 127 175 220 255 288
#
# _framework density 18.441780999999999
#
# number of rings (size 3 to 8) (size 9 to 14) (size 15 to 20)
#    0.000    2.667    0.000    2.000    0.000    6.667 
#    0.000    5.000    0.000    6.000    0.000    7.000 
#    0.000    0.000    0.000    0.000    0.000    0.000 
#
# Total GULP energy -594653.751482 kJ/mol
# GULP energy per Si atom -12388.619823 kJ/mol
# Density = 1.839981 g / cm^3
# Si number density = 18.441781 Si / 1000 Ang^3
#
#
#
# Elastic Constant Matrix: (Units=GPa)
#
#
# Indices 1 2 3 4 5 6 
#
# 1 46.3185 37.8951 41.0692 0.0000 0.0000 0.0000
# 2 37.8951 104.0879 60.7418 0.0000 0.0000 0.0000
# 3 41.0692 60.7418 153.2483 0.0000 0.0000 0.0000
# 4 0.0000 0.0000 0.0000 2.4170 0.0000 0.0000
# 5 0.0000 0.0000 0.0000 0.0000 17.1723 0.0000
# 6 0.0000 0.0000 0.0000 0.0000 0.0000 13.9997
#
#
#
# Elastic Compliance Matrix: (Units=1/GPa)
#
#
# Indices 1 2 3 4 5 6 
#
# 1 0.033930 -0.009167 -0.005460 0.000000 0.000000 0.000000
# 2 -0.009167 0.014975 -0.003479 0.000000 0.000000 0.000000
# 3 -0.005460 -0.003479 0.009367 0.000000 0.000000 0.000000
# 4 0.000000 0.000000 0.000000 0.413729 0.000000 0.000000
# 5 0.000000 0.000000 0.000000 0.000000 0.058233 0.000000
# 6 0.000000 0.000000 0.000000 0.000000 0.000000 0.071430
#
#
# Mechanical properties :
#
#
# Convention : Reuss Voigt Hill
#
# Bulk Modulus (GPa) = 45.32719 64.78522 55.05620
# Shear Modulus (GPa) = 7.74918 17.64769 12.69844
#
# Velocity S-wave (km/s) = 2.05209 3.09680 2.62691
# Velocity P-wave (km/s) = 5.49970 6.92768 6.25458
#
# Compressibility (1/GPa) = 0.02206181
#
# Stress axis : x y z
#
# Youngs Moduli (GPa) = 29.47210 66.77913 106.75393
#
# Poissons Ratio (x) = 0.61216 0.58284
# Poissons Ratio (y) = 0.27017 0.37137
# Poissons Ratio (z) = 0.16091 0.23231
#
# Static dielectric constant tensor:
#      x y z
#    x 3.107330 0.000000 0.000000 
#    y 0.000000 3.049840 0.000000 
#    z 0.000000 0.000000 4.053770 
# 
# 
# High freq. dielectric constant tensor:
#      x y z
#    x 1.685480 0.000000 0.000000 
#    y 0.000000 1.678750 0.000000 
#    z 0.000000 0.000000 1.745610 
# 
# From -- ./inp_files/49946.got.cif
#   From: 2010.03.12/outbox.cif.g09.slc.cpg/sg66_25_cif.got.tgz:49946.got - 2010.04.10 21:57:39.
