data_PCOD8275656
_publ_section_title
;
Structure prediction by ZEFSAII (Michael W. Deem and Ramdas Pophale) SiO2 
 PCOD8275656
Probable space group: C C C M
;
_chemical_formula_sum "Si O2"
_cell_formula_units_Z 112
_cell_length_a 23.901958
_cell_length_b 15.095625
_cell_length_c 14.342415
_cell_angle_alpha 90.000000
_cell_angle_beta 90.000000
_cell_angle_gamma 90.000000
_cell_volume 5174.958393
_symmetry_space_group_name_H-M "C C C M"
_symmetry_group_IT_number 66
_symmetry_cell_setting 'orthorhombic'
loop_
_space_group_symop_operation_xyz
x,y,z
-x,-y,z
x,-y,1/2-z
-x,y,1/2-z
-x,-y,-z
x,y,-z
-x,y,1/2+z
x,-y,1/2+z
1/2+x,1/2+y,z
1/2-x,1/2-y,z
1/2+x,1/2-y,1/2-z
1/2-x,1/2+y,1/2-z
1/2-x,1/2-y,-z
1/2+x,1/2+y,-z
1/2-x,1/2+y,1/2+z
1/2+x,1/2-y,1/2+z
loop_
_atom_site_type_symbol
_atom_site_label
_atom_site_fract_x
_atom_site_fract_y
_atom_site_fract_z
Si Si1 0.719737 0.536524 0.851333
Si Si2 0.024731 0.086395 0.645440
Si Si3 0.951015 0.558209 0.897257
Si Si4 0.030890 0.252157 0.156237
Si Si5 0.155807 0.792229 0.294467
Si Si6 0.666331 0.114283 0.606192
Si Si7 0.851591 0.876304 0.603697
O O1 0.730675 0.500000 0.750000
O O2 0.683250 0.626492 0.850975
O O3 0.779924 0.551905 0.897592
O O4 0.689758 0.459149 0.908738
O O5 0.091117 0.080988 0.641388
O O6 0.000000 0.089702 0.750000
O O7 0.003452 0.177529 0.598277
O O8 0.000000 0.000000 0.593641
O O9 0.967904 0.660911 0.906483
O O10 0.888059 0.559941 0.852261
O O11 0.000000 0.500000 0.844559
O O12 0.945683 0.516032 0.000000
O O13 0.090568 0.210317 0.182235
O O14 0.000000 0.281709 0.250000
O O15 0.181755 0.698882 0.328845
O O16 0.166985 0.804566 0.182446
O O17 0.652013 0.145261 0.500000
O O18 0.857111 0.832393 0.500000
#
# Coordination Sequence:
#
# PCOD8275656 Si02
#       7
#    16  16  16  16  16  16  16
#     4  10  22  38  60  87 122 167 205 266 316 380
#     4  10  19  33  58  82 127 172 205 253 303 366
#     4   9  20  39  61  88 121 152 191 256 322 371
#     4  10  18  34  56  86 114 162 203 249 298 369
#     4  10  20  38  60  87 125 162 207 260 320 365
#     4  10  21  40  67  94 121 155 211 270 321 383
#     4  11  22  36  58  90 127 169 213 254 314 385
#
# _framework density 21.642685
#
# number of rings (size 3 to 8) (size 9 to 14) (size 15 to 20)
#    0.000    2.000    2.857    1.714    4.000    2.857 
#    5.143    2.857    0.000    7.714    0.000    0.000 
#    0.000    0.857    0.000    0.000    0.000    0.000 
#
# Total GULP energy -693761.947435 kJ/mol
# GULP energy per Si atom -12388.606204 kJ/mol
# Density = 2.159343 g / cm^3
# Si number density = 21.642685 Si / 1000 Ang^3
#
#
#
# Elastic Constant Matrix: (Units=GPa)
#
#
# Indices 1 2 3 4 5 6 
#
# 1 141.3277 70.1207 19.2998 0.0000 0.0000 0.0000
# 2 70.1207 109.3410 21.7972 0.0000 0.0000 0.0000
# 3 19.2998 21.7972 84.3571 0.0000 0.0000 0.0000
# 4 0.0000 0.0000 0.0000 -24.3684 0.0000 0.0000
# 5 0.0000 0.0000 0.0000 0.0000 17.6329 0.0000
# 6 0.0000 0.0000 0.0000 0.0000 0.0000 41.1549
#
#
#
# Elastic Compliance Matrix: (Units=1/GPa)
#
#
# Indices 1 2 3 4 5 6 
#
# 1 0.010416 -0.006542 -0.000693 0.000000 0.000000 0.000000
# 2 -0.006542 0.013751 -0.002056 0.000000 0.000000 0.000000
# 3 -0.000693 -0.002056 0.012544 0.000000 0.000000 0.000000
# 4 0.000000 0.000000 0.000000 -0.041037 0.000000 0.000000
# 5 0.000000 0.000000 0.000000 0.000000 0.056712 0.000000
# 6 0.000000 0.000000 0.000000 0.000000 0.000000 0.024298
#
#
# Mechanical properties :
#
#
# Convention : Reuss Voigt Hill
#
# Bulk Modulus (GPa) = 55.15924 61.94013 58.54969
# Shear Modulus (GPa) = 49.35333 21.80442 35.57887
#
# Velocity S-wave (km/s) = 4.78050 3.17751 4.05893
# Velocity P-wave (km/s) = 7.48416 6.49182 7.00558
#
# Compressibility (1/GPa) = 0.01812933
#
# Stress axis : x y z
#
# Youngs Moduli (GPa) = 96.00515 72.72242 79.71800
#
# Poissons Ratio (x) = 0.47573 0.05522
# Poissons Ratio (y) = 0.62805 0.16394
# Poissons Ratio (z) = 0.06651 0.14955
#
# Static dielectric constant tensor:
#      x y z
#    x 4.060840 0.000000 0.000000 
#    y 0.000000 4.159420 0.000000 
#    z 0.000000 0.000000 3.568660 
# 
# 
# High freq. dielectric constant tensor:
#      x y z
#    x 1.859770 0.000000 0.000000 
#    y 0.000000 1.837900 0.000000 
#    z 0.000000 0.000000 1.831880 
# 
# From -- ./inp_files/32514.got.cif
#   From: 2010.03.12/outbox.cif.g09.slc.cpg/sg66_17_cif.got.tgz:32514.got - 2010.04.10 21:57:39.
