data_PCOD8275268
_publ_section_title
;
Structure prediction by ZEFSAII (Michael W. Deem and Ramdas Pophale) SiO2 
 PCOD8275268
Probable space group: C C C M
;
_chemical_formula_sum "Si O2"
_cell_formula_units_Z 56
_cell_length_a 8.104214
_cell_length_b 18.217930
_cell_length_c 15.673901
_cell_angle_alpha 90.000000
_cell_angle_beta 90.000000
_cell_angle_gamma 90.000000
_cell_volume 2314.126144
_symmetry_space_group_name_H-M "C C C M"
_symmetry_group_IT_number 66
_symmetry_cell_setting 'orthorhombic'
loop_
_space_group_symop_operation_xyz
x,y,z
-x,-y,z
x,-y,1/2-z
-x,y,1/2-z
-x,-y,-z
x,y,-z
-x,y,1/2+z
x,-y,1/2+z
1/2+x,1/2+y,z
1/2-x,1/2-y,z
1/2+x,1/2-y,1/2-z
1/2-x,1/2+y,1/2-z
1/2-x,1/2-y,-z
1/2+x,1/2+y,-z
1/2-x,1/2+y,1/2+z
1/2+x,1/2-y,1/2+z
loop_
_atom_site_type_symbol
_atom_site_label
_atom_site_fract_x
_atom_site_fract_y
_atom_site_fract_z
Si Si1 0.582043 0.143655 0.000000
Si Si2 0.616397 0.940442 0.140501
Si Si3 0.075824 0.790225 0.500000
Si Si4 0.851945 0.175373 0.683889
Si Si5 0.813734 0.977812 0.500000
O O1 0.487328 0.116607 0.084030
O O2 0.576613 0.232160 0.000000
O O3 0.770544 0.110814 0.000000
O O4 0.727238 0.892154 0.205531
O O5 0.500000 0.000000 0.188895
O O6 0.733999 0.989200 0.083261
O O7 0.250000 0.750000 0.500000
O O8 0.073796 0.837372 0.587818
O O9 0.750000 0.250000 0.693035
O O10 0.000000 0.174092 0.750000
O O11 0.000000 0.000000 0.500000
#
# Coordination Sequence:
#
# PCOD8275268 Si02
#       5
#     8  16   8  16   8
#     4   9  14  31  62  94 124 177 236 269 360 435
#     4   9  17  34  63  94 124 181 235 280 348 439
#     4  10  16  34  66  94 138 190 236 289 357 447
#     4  11  22  40  66 102 142 184 237 302 364 437
#     4   9  18  31  56  99 132 168 231 303 344 420
#
# _framework density 24.199200999999999
#
# number of rings (size 3 to 8) (size 9 to 14) (size 15 to 20)
#    0.000    2.286    5.714    2.571    0.000    0.000 
#    5.143    0.714    0.000    5.143    0.000    1.000 
#    0.000    0.000    0.000    0.000    0.000    0.000 
#
# Total GULP energy -346912.458185 kJ/mol
# GULP energy per Si atom -12389.730649 kJ/mol
# Density = 2.414412 g / cm^3
# Si number density = 24.199201 Si / 1000 Ang^3
#
#
#
# Elastic Constant Matrix: (Units=GPa)
#
#
# Indices 1 2 3 4 5 6 
#
# 1 151.7990 65.1143 54.0208 0.0000 0.0000 0.0000
# 2 65.1143 149.4538 25.1107 0.0000 0.0000 0.0000
# 3 54.0208 25.1107 124.3664 0.0000 0.0000 0.0000
# 4 0.0000 0.0000 0.0000 -9.3862 0.0000 0.0000
# 5 0.0000 0.0000 0.0000 0.0000 28.7622 0.0000
# 6 0.0000 0.0000 0.0000 0.0000 0.0000 54.2066
#
#
#
# Elastic Compliance Matrix: (Units=1/GPa)
#
#
# Indices 1 2 3 4 5 6 
#
# 1 0.009261 -0.003477 -0.003321 0.000000 0.000000 0.000000
# 2 -0.003477 0.008231 -0.000152 0.000000 0.000000 0.000000
# 3 -0.003321 -0.000152 0.009514 0.000000 0.000000 0.000000
# 4 0.000000 0.000000 0.000000 -0.106540 0.000000 0.000000
# 5 0.000000 0.000000 0.000000 0.000000 0.034768 0.000000
# 6 0.000000 0.000000 0.000000 0.000000 0.000000 0.018448
#
#
# Mechanical properties :
#
#
# Convention : Reuss Voigt Hill
#
# Bulk Modulus (GPa) = 76.29214 79.34563 77.81889
# Shear Modulus (GPa) = -621.06959 33.47474 -293.79743
#
# Velocity S-wave (km/s) = -16.03764 3.72331 -11.03048
# Velocity P-wave (km/s) = 17.64500 7.16546 11.40181
#
# Compressibility (1/GPa) = 0.01310751
#
# Stress axis : x y z
#
# Youngs Moduli (GPa) = 107.98274 121.48723 105.11101
#
# Poissons Ratio (x) = 0.42239 0.34903
# Poissons Ratio (y) = 0.37544 0.01595
# Poissons Ratio (z) = 0.35856 0.01844
#
# Static dielectric constant tensor:
#      x y z
#    x 4.610670 0.000000 0.000000 
#    y 0.000000 4.514070 0.000000 
#    z 0.000000 0.000000 4.248110 
# 
# 
# High freq. dielectric constant tensor:
#      x y z
#    x 1.959230 0.000000 0.000000 
#    y 0.000000 1.966240 0.000000 
#    z 0.000000 0.000000 1.941670 
# 
# From -- ./inp_files/36095.got.cif
#   From: 2010.03.12/outbox.cif.g09.slc.cpg/sg66_19_cif.got.tgz:36095.got - 2010.04.10 21:57:39.
