data_PCOD8275484
_publ_section_title
;
Structure prediction by ZEFSAII (Michael W. Deem and Ramdas Pophale) SiO2 
 PCOD8275484
Probable space group: C C C M
;
_chemical_formula_sum "Si O2"
_cell_formula_units_Z 128
_cell_length_a 21.852734
_cell_length_b 21.622181
_cell_length_c 16.880179
_cell_angle_alpha 90.000000
_cell_angle_beta 90.000000
_cell_angle_gamma 90.000000
_cell_volume 7975.948214
_symmetry_space_group_name_H-M "C C C M"
_symmetry_group_IT_number 66
_symmetry_cell_setting 'orthorhombic'
loop_
_space_group_symop_operation_xyz
x,y,z
-x,-y,z
x,-y,1/2-z
-x,y,1/2-z
-x,-y,-z
x,y,-z
-x,y,1/2+z
x,-y,1/2+z
1/2+x,1/2+y,z
1/2-x,1/2-y,z
1/2+x,1/2-y,1/2-z
1/2-x,1/2+y,1/2-z
1/2-x,1/2-y,-z
1/2+x,1/2+y,-z
1/2-x,1/2+y,1/2+z
1/2+x,1/2-y,1/2+z
loop_
_atom_site_type_symbol
_atom_site_label
_atom_site_fract_x
_atom_site_fract_y
_atom_site_fract_z
Si Si1 0.572357 0.387154 0.910750
Si Si2 0.569429 0.760116 0.589153
Si Si3 0.200479 0.069053 0.407098
Si Si4 0.652770 0.771370 0.727179
Si Si5 0.768157 0.149839 0.771389
Si Si6 0.671529 0.543573 0.176745
Si Si7 0.938689 0.891210 0.094824
Si Si8 0.042033 0.766646 0.676978
O O1 0.573799 0.313617 0.904203
O O2 0.632089 0.416741 0.870505
O O3 0.507305 0.412442 0.878643
O O4 0.578370 0.409592 0.000000
O O5 0.577398 0.784620 0.500000
O O6 0.623454 0.789377 0.641946
O O7 0.501363 0.776726 0.621758
O O8 0.210186 0.082960 0.500000
O O9 0.242706 0.115126 0.355749
O O10 0.212025 0.996954 0.385983
O O11 0.702906 0.821522 0.752595
O O12 0.681407 0.703162 0.720244
O O13 0.598926 0.773621 0.792058
O O14 0.788390 0.102486 0.702654
O O15 0.654750 0.500000 0.250000
O O16 0.609219 0.562670 0.133544
O O17 0.928225 0.822356 0.127505
O O18 0.931534 0.890405 0.000000
O O19 0.000000 0.791679 0.750000
#
# Coordination Sequence:
#
# PCOD8275484 Si02
#       8
#    16  16  16  16  16  16  16  16
#     4   8  15  26  41  62  88 115 149 193 231 262
#     4   9  16  28  47  72  97 119 149 190 236 279
#     4  10  19  33  48  63  89 122 161 206 243 269
#     4  10  18  30  49  67  94 126 155 192 232 278
#     4  10  20  32  45  66  92 125 163 197 228 274
#     4  10  21  33  45  61  88 125 164 202 237 270
#     4  10  18  30  47  64  87 121 162 201 232 263
#     4   9  17  28  47  69  93 122 150 184 234 282
#
# _framework density 16.048248999999998
#
# number of rings (size 3 to 8) (size 9 to 14) (size 15 to 20)
#    0.000    2.500    2.500    1.500    0.000    1.000 
#    0.000    5.000    0.000    3.750    0.000    0.000 
#    0.000   40.500    0.000   20.250    0.000    0.000 
#
# Total GULP energy -793039.115208 kJ/mol
# GULP energy per Si atom -12391.236175 kJ/mol
# Density = 1.601172 g / cm^3
# Si number density = 16.048249 Si / 1000 Ang^3
#
#
#
# Elastic Constant Matrix: (Units=GPa)
#
#
# Indices 1 2 3 4 5 6 
#
# 1 76.1434 31.4073 30.0624 0.0000 0.0000 0.0000
# 2 31.4073 51.0089 18.7904 0.0000 0.0000 0.0000
# 3 30.0624 18.7904 64.9444 0.0000 0.0000 0.0000
# 4 0.0000 0.0000 0.0000 13.8866 0.0000 0.0000
# 5 0.0000 0.0000 0.0000 0.0000 19.5887 0.0000
# 6 0.0000 0.0000 0.0000 0.0000 0.0000 21.8185
#
#
#
# Elastic Compliance Matrix: (Units=1/GPa)
#
#
# Indices 1 2 3 4 5 6 
#
# 1 0.019642 -0.009788 -0.006260 0.000000 0.000000 0.000000
# 2 -0.009788 0.026821 -0.003229 0.000000 0.000000 0.000000
# 3 -0.006260 -0.003229 0.019230 0.000000 0.000000 0.000000
# 4 0.000000 0.000000 0.000000 0.072012 0.000000 0.000000
# 5 0.000000 0.000000 0.000000 0.000000 0.051050 0.000000
# 6 0.000000 0.000000 0.000000 0.000000 0.000000 0.045833
#
#
# Mechanical properties :
#
#
# Convention : Reuss Voigt Hill
#
# Bulk Modulus (GPa) = 36.84899 39.17965 38.01432
# Shear Modulus (GPa) = 17.71869 18.51453 18.11661
#
# Velocity S-wave (km/s) = 3.32639 3.40027 3.36353
# Velocity P-wave (km/s) = 6.14527 6.31525 6.23084
#
# Compressibility (1/GPa) = 0.02713778
#
# Stress axis : x y z
#
# Youngs Moduli (GPa) = 50.91123 37.28470 52.00226
#
# Poissons Ratio (x) = 0.36494 0.32555
# Poissons Ratio (y) = 0.49832 0.16793
# Poissons Ratio (z) = 0.31872 0.12040
#
# Static dielectric constant tensor:
#      x y z
#    x 2.976090 0.000000 0.000000 
#    y 0.000000 2.754300 0.000000 
#    z 0.000000 0.000000 3.185570 
# 
# 
# High freq. dielectric constant tensor:
#      x y z
#    x 1.599210 0.000000 0.000000 
#    y 0.000000 1.575410 0.000000 
#    z 0.000000 0.000000 1.622710 
# 
# From -- ./inp_files/43186.got.cif
#   From: 2010.03.12/outbox.cif.g09.slc.cpg/sg66_22_cif.got.tgz:43186.got - 2010.04.10 21:57:39.
