data_PCOD8275587
_publ_section_title
;
Structure prediction by ZEFSAII (Michael W. Deem and Ramdas Pophale) SiO2 
 PCOD8275587
Probable space group: C C C M
;
_chemical_formula_sum "Si O2"
_cell_formula_units_Z 96
_cell_length_a 9.427287
_cell_length_b 22.695160
_cell_length_c 22.648158
_cell_angle_alpha 90.000000
_cell_angle_beta 90.000000
_cell_angle_gamma 90.000000
_cell_volume 4845.659169
_symmetry_space_group_name_H-M "C C C M"
_symmetry_group_IT_number 66
_symmetry_cell_setting 'orthorhombic'
loop_
_space_group_symop_operation_xyz
x,y,z
-x,-y,z
x,-y,1/2-z
-x,y,1/2-z
-x,-y,-z
x,y,-z
-x,y,1/2+z
x,-y,1/2+z
1/2+x,1/2+y,z
1/2-x,1/2-y,z
1/2+x,1/2-y,1/2-z
1/2-x,1/2+y,1/2-z
1/2-x,1/2-y,-z
1/2+x,1/2+y,-z
1/2-x,1/2+y,1/2+z
1/2+x,1/2-y,1/2+z
loop_
_atom_site_type_symbol
_atom_site_label
_atom_site_fract_x
_atom_site_fract_y
_atom_site_fract_z
Si Si1 0.842490 0.899679 0.380605
Si Si2 0.108810 0.771330 0.391097
Si Si3 0.335142 0.996457 0.067707
Si Si4 0.210617 0.833706 0.000000
Si Si5 0.379590 0.596774 0.431648
Si Si6 0.619528 0.705964 0.300064
Si Si7 0.014720 0.721887 0.000000
O O1 0.724407 0.950201 0.384103
O O2 0.841831 0.861548 0.439772
O O3 0.822243 0.858220 0.322337
O O4 0.999986 0.928645 0.386425
O O5 0.250000 0.750000 0.355795
O O6 0.144749 0.835781 0.414948
O O7 0.966502 0.765093 0.353411
O O8 0.087632 0.724739 0.443838
O O9 0.500000 0.000000 0.080578
O O10 0.264445 0.060020 0.078788
O O11 0.305314 0.975153 0.000000
O O12 0.133236 0.771740 0.000000
O O13 0.384149 0.835661 0.000000
O O14 0.427490 0.590989 0.500000
O O15 0.500000 0.696351 0.250000
O O16 0.750000 0.750000 0.282602
#
# Coordination Sequence:
#
# PCOD8275587 Si02
#       7
#    16  16  16   8  16  16   8
#     4  11  19  36  58  82 113 158 197 235 290 361
#     4  11  21  35  55  87 120 157 191 239 296 357
#     4  10  21  34  51  85 125 160 195 239 290 352
#     4  11  18  30  53  83 116 156 193 233 288 366
#     4  10  18  32  52  78 116 157 196 229 275 343
#     4  11  24  42  62  85 113 150 199 251 297 354
#     4  11  19  30  49  84 123 151 185 231 292 356
#
# _framework density 19.811544999999999
#
# number of rings (size 3 to 8) (size 9 to 14) (size 15 to 20)
#    0.000    1.333    5.833    2.250    0.000    4.000 
#    0.000    0.000    0.000    8.000    0.000    4.667 
#    0.000    0.000    0.000    0.000    0.000    0.000 
#
# Total GULP energy -594634.658736 kJ/mol
# GULP energy per Si atom -12388.222057 kJ/mol
# Density = 1.976645 g / cm^3
# Si number density = 19.811545 Si / 1000 Ang^3
#
#
#
# Elastic Constant Matrix: (Units=GPa)
#
#
# Indices 1 2 3 4 5 6 
#
# 1 132.0823 50.8284 23.9136 0.0000 0.0000 0.0000
# 2 50.8284 55.3623 27.9955 0.0000 0.0000 0.0000
# 3 23.9136 27.9955 69.8614 0.0000 0.0000 0.0000
# 4 0.0000 0.0000 0.0000 10.7846 0.0000 0.0000
# 5 0.0000 0.0000 0.0000 0.0000 24.5584 0.0000
# 6 0.0000 0.0000 0.0000 0.0000 0.0000 32.3288
#
#
#
# Elastic Compliance Matrix: (Units=1/GPa)
#
#
# Indices 1 2 3 4 5 6 
#
# 1 0.011715 -0.010946 0.000376 0.000000 0.000000 0.000000
# 2 -0.010946 0.032881 -0.009429 0.000000 0.000000 0.000000
# 3 0.000376 -0.009429 0.017964 0.000000 0.000000 0.000000
# 4 0.000000 0.000000 0.000000 0.092725 0.000000 0.000000
# 5 0.000000 0.000000 0.000000 0.000000 0.040719 0.000000
# 6 0.000000 0.000000 0.000000 0.000000 0.000000 0.030932
#
#
# Mechanical properties :
#
#
# Convention : Reuss Voigt Hill
#
# Bulk Modulus (GPa) = 44.32343 51.42010 47.87177
# Shear Modulus (GPa) = 18.21793 23.83893 21.02843
#
# Velocity S-wave (km/s) = 3.03572 3.47260 3.26148
# Velocity P-wave (km/s) = 5.89139 6.48765 6.19670
#
# Compressibility (1/GPa) = 0.02256143
#
# Stress axis : x y z
#
# Youngs Moduli (GPa) = 85.35897 30.41294 55.66724
#
# Poissons Ratio (x) = 0.33290 -0.02095
# Poissons Ratio (y) = 0.93435 0.52491
# Poissons Ratio (z) = -0.03212 0.28678
#
# Static dielectric constant tensor:
#      x y z
#    x 4.024180 0.000000 0.000000 
#    y 0.000000 3.616970 0.000000 
#    z 0.000000 0.000000 3.430560 
# 
# 
# High freq. dielectric constant tensor:
#      x y z
#    x 1.793950 0.000000 0.000000 
#    y 0.000000 1.758920 0.000000 
#    z 0.000000 0.000000 1.726130 
# 
# From -- ./inp_files/55822.got.cif
#   From: 2010.03.12/outbox.cif.g09.slc.cpg/sg66_28_cif.got.tgz:55822.got - 2010.04.10 21:57:39.
