data_PCOD8275042
_publ_section_title
;
Structure prediction by ZEFSAII (Michael W. Deem and Ramdas Pophale) SiO2 
 PCOD8275042
Probable space group: C M M M
;
_chemical_formula_sum "Si O2"
_cell_formula_units_Z 80
_cell_length_a 37.112661
_cell_length_b 9.427128
_cell_length_c 13.962472
_cell_angle_alpha 90.000000
_cell_angle_beta 90.000000
_cell_angle_gamma 90.000000
_cell_volume 4884.991515
_symmetry_space_group_name_H-M "C M M M"
_symmetry_group_IT_number 65
_symmetry_cell_setting 'orthorhombic'
loop_
_space_group_symop_operation_xyz
x,y,z
-x,-y,z
x,-y,-z
-x,y,-z
-x,-y,-z
x,y,-z
-x,y,z
x,-y,z
1/2+x,1/2+y,z
1/2-x,1/2-y,z
1/2+x,1/2-y,-z
1/2-x,1/2+y,-z
1/2-x,1/2-y,-z
1/2+x,1/2+y,-z
1/2-x,1/2+y,z
1/2+x,1/2-y,z
loop_
_atom_site_type_symbol
_atom_site_label
_atom_site_fract_x
_atom_site_fract_y
_atom_site_fract_z
Si Si1 0.285637 0.832372 0.286824
Si Si2 0.601069 0.167915 0.787515
Si Si3 0.856729 0.668137 0.394242
Si Si4 0.958388 0.164016 0.890969
Si Si5 0.828136 0.331860 0.894544
O O1 0.250000 0.750000 0.317891
O O2 0.317285 0.783807 0.358594
O O3 0.297079 0.784349 0.179319
O O4 0.278607 0.000000 0.292461
O O5 0.612253 0.216813 0.679970
O O6 0.564336 0.243814 0.816564
O O7 0.632674 0.219021 0.859016
O O8 0.595156 0.000000 0.792861
O O9 0.864303 0.732330 0.500000
O O10 0.856790 0.500000 0.397522
O O11 0.000000 0.190997 0.866764
O O12 0.948472 0.000000 0.877415
O O13 0.950160 0.211303 0.000000
O O14 0.828834 0.500000 0.897924
O O15 0.820285 0.267326 0.000000
#
# Coordination Sequence:
#
# PCOD8275042 Si02
#       5
#    16  16  16  16  16
#     4   9  17  28  42  60  82 110 142 175 214 259
#     4   9  16  27  47  70  86 107 146 190 219 244
#     4   8  15  29  47  65  86 113 143 177 224 273
#     4   9  18  31  45  64  94 127 147 162 201 259
#     4   8  14  25  40  58  82 111 140 172 214 259
#
# _framework density 16.376691999999998
#
# number of rings (size 3 to 8) (size 9 to 14) (size 15 to 20)
#    0.000    3.400    0.000    3.600    0.000    2.400 
#    0.000    5.000    0.000    3.600    0.000    4.200 
#    0.000    0.000    0.000    0.000    0.000    0.000 
#
# Total GULP energy -495732.370951 kJ/mol
# GULP energy per Si atom -12393.309274 kJ/mol
# Density = 1.633942 g / cm^3
# Si number density = 16.376692 Si / 1000 Ang^3
#
#
#
# Elastic Constant Matrix: (Units=GPa)
#
#
# Indices 1 2 3 4 5 6 
#
# 1 100.5999 39.0105 56.3743 0.0000 0.0000 0.0000
# 2 39.0105 34.3680 28.4874 0.0000 0.0000 0.0000
# 3 56.3743 28.4874 134.6036 0.0000 0.0000 0.0000
# 4 0.0000 0.0000 0.0000 13.0430 0.0000 0.0000
# 5 0.0000 0.0000 0.0000 0.0000 19.9062 0.0000
# 6 0.0000 0.0000 0.0000 0.0000 0.0000 29.1022
#
#
#
# Elastic Compliance Matrix: (Units=1/GPa)
#
#
# Indices 1 2 3 4 5 6 
#
# 1 0.019564 -0.018695 -0.004237 0.000000 0.000000 0.000000
# 2 -0.018695 0.053151 -0.003419 0.000000 0.000000 0.000000
# 3 -0.004237 -0.003419 0.009928 0.000000 0.000000 0.000000
# 4 0.000000 0.000000 0.000000 0.076669 0.000000 0.000000
# 5 0.000000 0.000000 0.000000 0.000000 0.050236 0.000000
# 6 0.000000 0.000000 0.000000 0.000000 0.000000 0.034362
#
#
# Mechanical properties :
#
#
# Convention : Reuss Voigt Hill
#
# Bulk Modulus (GPa) = 33.39976 57.47956 45.43966
# Shear Modulus (GPa) = 16.30829 22.12356 19.21593
#
# Velocity S-wave (km/s) = 3.15909 3.67947 3.42917
# Velocity P-wave (km/s) = 5.80908 7.29561 6.59437
#
# Compressibility (1/GPa) = 0.02994033
#
# Stress axis : x y z
#
# Youngs Moduli (GPa) = 51.11333 18.81430 100.73020
#
# Poissons Ratio (x) = 0.35173 0.42683
# Poissons Ratio (y) = 0.95556 0.34441
# Poissons Ratio (z) = 0.21658 0.06433
#
# Static dielectric constant tensor:
#      x y z
#    x 2.939490 0.000000 0.000000 
#    y 0.000000 2.631830 0.000000 
#    z 0.000000 0.000000 3.609010 
# 
# 
# High freq. dielectric constant tensor:
#      x y z
#    x 1.621560 0.000000 0.000000 
#    y 0.000000 1.587990 0.000000 
#    z 0.000000 0.000000 1.631740 
# 
# From -- ./inp_files/38531.got.cif
#   From: 2010.03.12/outbox.cif.g09.slc.cpg/sg65_20_cif.got.tgz:38531.got - 2010.04.10 20:52:16.
