data_PCOD8275878
_publ_section_title
;
Structure prediction by ZEFSAII (Michael W. Deem and Ramdas Pophale) SiO2 
 PCOD8275878
Probable space group: C C C M
;
_chemical_formula_sum "Si O2"
_cell_formula_units_Z 96
_cell_length_a 18.419257
_cell_length_b 19.017288
_cell_length_c 15.673600
_cell_angle_alpha 90.000000
_cell_angle_beta 90.000000
_cell_angle_gamma 90.000000
_cell_volume 5490.216241
_symmetry_space_group_name_H-M "C C C M"
_symmetry_group_IT_number 66
_symmetry_cell_setting 'orthorhombic'
loop_
_space_group_symop_operation_xyz
x,y,z
-x,-y,z
x,-y,1/2-z
-x,y,1/2-z
-x,-y,-z
x,y,-z
-x,y,1/2+z
x,-y,1/2+z
1/2+x,1/2+y,z
1/2-x,1/2-y,z
1/2+x,1/2-y,1/2-z
1/2-x,1/2+y,1/2-z
1/2-x,1/2-y,-z
1/2+x,1/2+y,-z
1/2-x,1/2+y,1/2+z
1/2+x,1/2-y,1/2+z
loop_
_atom_site_type_symbol
_atom_site_label
_atom_site_fract_x
_atom_site_fract_y
_atom_site_fract_z
Si Si1 0.666734 0.915799 0.095495
Si Si2 0.091572 0.273281 0.093345
Si Si3 0.853439 0.572965 0.402101
Si Si4 0.830406 0.219307 0.249579
Si Si5 0.234882 0.921021 0.242604
Si Si6 0.951911 0.689487 0.332198
O O1 0.606549 0.856146 0.106897
O O2 0.726246 0.902402 0.168172
O O3 0.626732 0.990653 0.107809
O O4 0.702042 0.911968 0.000000
O O5 0.140236 0.226326 0.154783
O O6 0.004931 0.265970 0.106274
O O7 0.112863 0.246637 0.000000
O O8 0.830909 0.590634 0.500000
O O9 0.787495 0.588614 0.338171
O O10 0.923490 0.618257 0.375885
O O11 0.750000 0.250000 0.240075
O O12 0.829274 0.135721 0.229257
O O13 0.883781 0.260032 0.186124
O O14 0.203000 0.000000 0.250000
O O15 0.000000 0.669366 0.250000
#
# Coordination Sequence:
#
# PCOD8275878 Si02
#       6
#    16  16  16  16  16  16
#     4   9  18  31  50  77 108 139 172 207 248 309
#     4  10  20  33  51  77 106 137 170 213 266 309
#     4  10  19  32  50  75 108 143 175 203 242 308
#     4  11  19  34  54  78 102 133 178 219 256 307
#     4  10  19  34  53  76 106 136 169 213 266 310
#     4  10  20  34  50  70 105 143 175 214 255 305
#
# _framework density 17.48565
#
# number of rings (size 3 to 8) (size 9 to 14) (size 15 to 20)
#    0.000    2.000    3.333    1.500    0.000    1.667 
#    0.000    7.500    0.000    4.500    0.000    1.167 
#    0.000    0.000    0.000    0.000    0.000    0.000 
#
# Total GULP energy -594936.773343 kJ/mol
# GULP energy per Si atom -12394.516111 kJ/mol
# Density = 1.744585 g / cm^3
# Si number density = 17.485650 Si / 1000 Ang^3
#
#
#
# Elastic Constant Matrix: (Units=GPa)
#
#
# Indices 1 2 3 4 5 6 
#
# 1 76.1518 45.4324 26.2889 0.0000 0.0000 0.0000
# 2 45.4324 85.8606 34.3020 0.0000 0.0000 0.0000
# 3 26.2889 34.3020 87.9397 0.0000 0.0000 0.0000
# 4 0.0000 0.0000 0.0000 21.3443 0.0000 0.0000
# 5 0.0000 0.0000 0.0000 0.0000 11.0879 0.0000
# 6 0.0000 0.0000 0.0000 0.0000 0.0000 24.7187
#
#
#
# Elastic Compliance Matrix: (Units=1/GPa)
#
#
# Indices 1 2 3 4 5 6 
#
# 1 0.019524 -0.009476 -0.002140 0.000000 0.000000 0.000000
# 2 -0.009476 0.018396 -0.004343 0.000000 0.000000 0.000000
# 3 -0.002140 -0.004343 0.013705 0.000000 0.000000 0.000000
# 4 0.000000 0.000000 0.000000 0.046851 0.000000 0.000000
# 5 0.000000 0.000000 0.000000 0.000000 0.090189 0.000000
# 6 0.000000 0.000000 0.000000 0.000000 0.000000 0.040455
#
#
# Mechanical properties :
#
#
# Convention : Reuss Voigt Hill
#
# Bulk Modulus (GPa) = 50.74339 51.33317 51.03828
# Shear Modulus (GPa) = 18.68417 21.02545 19.85481
#
# Velocity S-wave (km/s) = 3.27240 3.47138 3.37336
# Velocity P-wave (km/s) = 6.58492 6.74451 6.66519
#
# Compressibility (1/GPa) = 0.01970700
#
# Stress axis : x y z
#
# Youngs Moduli (GPa) = 51.21947 54.36023 72.96488
#
# Poissons Ratio (x) = 0.51511 0.15617
# Poissons Ratio (y) = 0.48534 0.31687
# Poissons Ratio (z) = 0.10963 0.23608
#
# Static dielectric constant tensor:
#      x y z
#    x 3.017110 0.000000 0.000000 
#    y 0.000000 3.361330 0.000000 
#    z 0.000000 0.000000 3.564530 
# 
# 
# High freq. dielectric constant tensor:
#      x y z
#    x 1.642740 0.000000 0.000000 
#    y 0.000000 1.668680 0.000000 
#    z 0.000000 0.000000 1.690630 
# 
# From -- ./inp_files/41715.got.cif
#   From: 2010.03.12/outbox.cif.g09.slc.cpg/sg66_21_cif.got.tgz:41715.got - 2010.04.10 21:57:39.
