data_PCOD8275107
_publ_section_title
;
Structure prediction by ZEFSAII (Michael W. Deem and Ramdas Pophale) SiO2 
 PCOD8275107
Probable space group: C M M M
;
_chemical_formula_sum "Si O2"
_cell_formula_units_Z 56
_cell_length_a 10.440516
_cell_length_b 33.635238
_cell_length_c 9.333837
_cell_angle_alpha 90.000000
_cell_angle_beta 90.000000
_cell_angle_gamma 90.000000
_cell_volume 3277.756450
_symmetry_space_group_name_H-M "C M M M"
_symmetry_group_IT_number 65
_symmetry_cell_setting 'orthorhombic'
loop_
_space_group_symop_operation_xyz
x,y,z
-x,-y,z
x,-y,-z
-x,y,-z
-x,-y,-z
x,y,-z
-x,y,z
x,-y,z
1/2+x,1/2+y,z
1/2-x,1/2-y,z
1/2+x,1/2-y,-z
1/2-x,1/2+y,-z
1/2-x,1/2-y,-z
1/2+x,1/2+y,-z
1/2-x,1/2+y,z
1/2+x,1/2-y,z
loop_
_atom_site_type_symbol
_atom_site_label
_atom_site_fract_x
_atom_site_fract_y
_atom_site_fract_z
Si Si1 0.259751 0.339150 0.329580
Si Si2 0.652440 0.500000 0.838187
Si Si3 0.000000 0.210381 0.328994
Si Si4 0.000000 0.300394 0.670918
Si Si5 0.849438 0.924139 0.334871
O O1 0.263516 0.337249 0.500000
O O2 0.374182 0.311774 0.268684
O O3 0.125262 0.322908 0.269373
O O4 0.277785 0.384625 0.279682
O O5 0.500000 0.500000 0.833348
O O6 0.703682 0.460799 0.758063
O O7 0.704587 0.500000 0.000000
O O8 0.000000 0.209784 0.500000
O O9 0.000000 0.255382 0.271187
O O10 0.000000 0.300577 0.500000
O O11 0.818186 0.933388 0.500000
O O12 0.000000 0.917276 0.313435
#
# Coordination Sequence:
#
# PCOD8275107 Si02
#       5
#    16   8   8   8  16
#     4   9  15  23  35  54  81 113 144 172 205 250
#     4   9  17  27  41  64  89 106 132 178 221 252
#     4   9  14  22  34  51  79 114 146 173 207 249
#     4   9  16  22  32  53  83 114 142 175 211 243
#     4   9  15  25  41  60  84 113 142 170 208 256
#
# _framework density 17.084858000000001
#
# number of rings (size 3 to 8) (size 9 to 14) (size 15 to 20)
#    0.000    3.000    1.429    1.286    0.000    5.143 
#    0.000    0.000    0.000    0.857    0.000    7.000 
#    0.000    6.857    0.000    0.000    0.000    0.000 
#
# Total GULP energy -347123.982634 kJ/mol
# GULP energy per Si atom -12397.285094 kJ/mol
# Density = 1.704597 g / cm^3
# Si number density = 17.084858 Si / 1000 Ang^3
#
#
#
# Elastic Constant Matrix: (Units=GPa)
#
#
# Indices 1 2 3 4 5 6 
#
# 1 111.4346 78.6178 19.3092 0.0000 0.0000 0.0000
# 2 78.6178 196.5692 47.0001 0.0000 0.0000 0.0000
# 3 19.3092 47.0001 40.1243 0.0000 0.0000 0.0000
# 4 0.0000 0.0000 0.0000 1.8029 0.0000 0.0000
# 5 0.0000 0.0000 0.0000 0.0000 4.0106 0.0000
# 6 0.0000 0.0000 0.0000 0.0000 0.0000 11.8457
#
#
#
# Elastic Compliance Matrix: (Units=1/GPa)
#
#
# Indices 1 2 3 4 5 6 
#
# 1 0.012503 -0.004948 -0.000221 0.000000 0.000000 0.000000
# 2 -0.004948 0.009024 -0.008190 0.000000 0.000000 0.000000
# 3 -0.000221 -0.008190 0.034622 0.000000 0.000000 0.000000
# 4 0.000000 0.000000 0.000000 0.554669 0.000000 0.000000
# 5 0.000000 0.000000 0.000000 0.000000 0.249337 0.000000
# 6 0.000000 0.000000 0.000000 0.000000 0.000000 0.084419
#
#
# Mechanical properties :
#
#
# Convention : Reuss Voigt Hill
#
# Bulk Modulus (GPa) = 33.97674 70.88692 52.43183
# Shear Modulus (GPa) = 5.09631 17.07857 11.08744
#
# Velocity S-wave (km/s) = 1.72899 3.16513 2.55024
# Velocity P-wave (km/s) = 4.89041 7.41205 6.27912
#
# Compressibility (1/GPa) = 0.02943190
#
# Stress axis : x y z
#
# Youngs Moduli (GPa) = 79.98234 110.81312 28.88323
#
# Poissons Ratio (x) = 0.54825 0.00639
# Poissons Ratio (y) = 0.39572 0.23654
# Poissons Ratio (z) = 0.01771 0.90752
#
# Static dielectric constant tensor:
#      x y z
#    x 3.125680 0.000000 0.000000 
#    y 0.000000 3.438750 0.000000 
#    z 0.000000 0.000000 2.624460 
# 
# 
# High freq. dielectric constant tensor:
#      x y z
#    x 1.633260 0.000000 0.000000 
#    y 0.000000 1.679680 0.000000 
#    z 0.000000 0.000000 1.589330 
# 
# From -- ./inp_files/4776.got.cif
#   From: 2010.03.12/outbox.cif.g09.slc.cpg/sg65_3_cif.got.tgz:4776.got - 2010.04.10 20:52:16.
