data_PCOD8275091
_publ_section_title
;
Structure prediction by ZEFSAII (Michael W. Deem and Ramdas Pophale) SiO2 
 PCOD8275091
Probable space group: C M M M
;
_chemical_formula_sum "Si O2"
_cell_formula_units_Z 72
_cell_length_a 7.768842
_cell_length_b 19.610071
_cell_length_c 26.774171
_cell_angle_alpha 90.000000
_cell_angle_beta 90.000000
_cell_angle_gamma 90.000000
_cell_volume 4078.979173
_symmetry_space_group_name_H-M "C M M M"
_symmetry_group_IT_number 65
_symmetry_cell_setting 'orthorhombic'
loop_
_space_group_symop_operation_xyz
x,y,z
-x,-y,z
x,-y,-z
-x,y,-z
-x,-y,-z
x,y,-z
-x,y,z
x,-y,z
1/2+x,1/2+y,z
1/2-x,1/2-y,z
1/2+x,1/2-y,-z
1/2-x,1/2+y,-z
1/2-x,1/2-y,-z
1/2+x,1/2+y,-z
1/2-x,1/2+y,z
1/2+x,1/2-y,z
loop_
_atom_site_type_symbol
_atom_site_label
_atom_site_fract_x
_atom_site_fract_y
_atom_site_fract_z
Si Si1 0.500000 0.919492 0.284339
Si Si2 0.198956 0.920183 0.643260
Si Si3 0.298432 0.324611 0.444884
Si Si4 0.194788 0.418927 0.000000
Si Si5 0.810703 0.080935 0.106061
Si Si6 0.000000 0.581586 0.172728
O O1 0.675299 0.896153 0.312124
O O2 0.500000 0.888012 0.228725
O O3 0.500000 0.000000 0.280239
O O4 0.266383 0.881371 0.593905
O O5 0.000000 0.902020 0.656893
O O6 0.218888 0.000000 0.632240
O O7 0.214187 0.336193 0.500000
O O8 0.500000 0.331339 0.449972
O O9 0.250000 0.250000 0.424229
O O10 0.284679 0.389995 0.049986
O O11 0.205031 0.500000 0.000000
O O12 0.000000 0.393335 0.000000
O O13 0.668497 0.110085 0.144153
O O14 0.000000 0.102824 0.125143
O O15 0.792154 0.000000 0.104187
O O16 0.000000 0.500000 0.173548
#
# Coordination Sequence:
#
# PCOD8275091 Si02
#       6
#     8  16  16   8  16   8
#     4   9  18  30  44  60  80 110 147 185 225 261
#     4   9  18  32  48  66  89 118 151 184 222 269
#     4   9  18  31  48  71  96 120 145 179 224 269
#     4   9  13  19  29  40  61  89 120 163 213 261
#     4   9  15  21  30  44  63  90 124 166 216 261
#     4   9  16  25  34  48  68  91 128 176 217 255
#
# _framework density 17.651475999999999
#
# number of rings (size 3 to 8) (size 9 to 14) (size 15 to 20)
#    0.000    3.000    1.111    0.333    1.556    2.667 
#    0.000    6.667    0.000    2.000    0.000    0.000 
#    0.000    0.000    0.000    0.000    0.000    0.000 
#
# Total GULP energy -446139.510846 kJ/mol
# GULP energy per Si atom -12392.764190 kJ/mol
# Density = 1.761130 g / cm^3
# Si number density = 17.651476 Si / 1000 Ang^3
#
#
#
# Elastic Constant Matrix: (Units=GPa)
#
#
# Indices 1 2 3 4 5 6 
#
# 1 120.2158 18.7605 77.6898 0.0000 0.0000 0.0000
# 2 18.7605 26.4696 34.5899 0.0000 0.0000 0.0000
# 3 77.6898 34.5899 160.3886 0.0000 0.0000 0.0000
# 4 0.0000 0.0000 0.0000 2.6036 0.0000 0.0000
# 5 0.0000 0.0000 0.0000 0.0000 21.2423 0.0000
# 6 0.0000 0.0000 0.0000 0.0000 0.0000 11.3722
#
#
#
# Elastic Compliance Matrix: (Units=1/GPa)
#
#
# Indices 1 2 3 4 5 6 
#
# 1 0.012140 -0.001281 -0.005604 0.000000 0.000000 0.000000
# 2 -0.001281 0.052740 -0.010754 0.000000 0.000000 0.000000
# 3 -0.005604 -0.010754 0.011269 0.000000 0.000000 0.000000
# 4 0.000000 0.000000 0.000000 0.384089 0.000000 0.000000
# 5 0.000000 0.000000 0.000000 0.000000 0.047076 0.000000
# 6 0.000000 0.000000 0.000000 0.000000 0.000000 0.087933
#
#
# Mechanical properties :
#
#
# Convention : Reuss Voigt Hill
#
# Bulk Modulus (GPa) = 24.46723 63.23940 43.85331
# Shear Modulus (GPa) = 7.76220 18.77920 13.27070
#
# Velocity S-wave (km/s) = 2.09929 3.26527 2.74490
# Velocity P-wave (km/s) = 4.44606 7.07958 5.91134
#
# Compressibility (1/GPa) = 0.04087099
#
# Stress axis : x y z
#
# Youngs Moduli (GPa) = 82.37241 18.96105 88.74212
#
# Poissons Ratio (x) = 0.02429 0.49733
# Poissons Ratio (y) = 0.10551 0.95430
# Poissons Ratio (z) = 0.46163 0.20390
#
# Static dielectric constant tensor:
#      x y z
#    x 3.439870 0.000000 0.000000 
#    y 0.000000 2.557700 0.000000 
#    z 0.000000 0.000000 3.674570 
# 
# 
# High freq. dielectric constant tensor:
#      x y z
#    x 1.696060 0.000000 0.000000 
#    y 0.000000 1.601760 0.000000 
#    z 0.000000 0.000000 1.684930 
# 
# From -- ./inp_files/67268.got.cif
#   From: 2010.03.12/outbox.cif.g09.slc.cpg/sg65_34_cif.got.tgz:67268.got - 2010.04.10 20:52:16.
