data_PCOD8275838
_publ_section_title
;
Structure prediction by ZEFSAII (Michael W. Deem and Ramdas Pophale) SiO2 
 PCOD8275838
Probable space group: C C C M
;
_chemical_formula_sum "Si O2"
_cell_formula_units_Z 88
_cell_length_a 13.173206
_cell_length_b 23.706346
_cell_length_c 15.165481
_cell_angle_alpha 90.000000
_cell_angle_beta 90.000000
_cell_angle_gamma 90.000000
_cell_volume 4736.006517
_symmetry_space_group_name_H-M "C C C M"
_symmetry_group_IT_number 66
_symmetry_cell_setting 'orthorhombic'
loop_
_space_group_symop_operation_xyz
x,y,z
-x,-y,z
x,-y,1/2-z
-x,y,1/2-z
-x,-y,-z
x,y,-z
-x,y,1/2+z
x,-y,1/2+z
1/2+x,1/2+y,z
1/2-x,1/2-y,z
1/2+x,1/2-y,1/2-z
1/2-x,1/2+y,1/2-z
1/2-x,1/2-y,-z
1/2+x,1/2+y,-z
1/2-x,1/2+y,1/2+z
1/2+x,1/2-y,1/2+z
loop_
_atom_site_type_symbol
_atom_site_label
_atom_site_fract_x
_atom_site_fract_y
_atom_site_fract_z
Si Si1 0.620698 0.935577 0.746788
Si Si2 0.400705 0.683499 0.790496
Si Si3 0.235537 0.370501 0.398904
Si Si4 0.750000 0.750000 0.833997
Si Si5 0.629317 0.147283 0.599809
Si Si6 0.063777 0.712233 0.902339
O O1 0.500000 0.931053 0.750000
O O2 0.668504 0.914689 0.655315
O O3 0.666282 0.899620 0.829527
O O4 0.656473 0.000000 0.750000
O O5 0.500000 0.651898 0.750000
O O6 0.346102 0.639271 0.855943
O O7 0.320753 0.708494 0.722046
O O8 0.453336 0.735512 0.839805
O O9 0.246772 0.391648 0.500000
O O10 0.178806 0.310196 0.395144
O O11 0.686340 0.792806 0.893963
O O12 0.642597 0.123597 0.500000
O O13 0.511515 0.160690 0.621782
O O14 0.039670 0.733944 0.000000
#
# Coordination Sequence:
#
# PCOD8275838 Si02
#       6
#    16  16  16   8  16  16
#     4  11  23  39  61  90 121 154 199 249 296 353
#     4  12  21  32  55  83 117 154 196 241 291 351
#     4  11  22  38  58  83 116 156 199 242 293 353
#     4  12  21  34  57  82 120 160 195 236 299 364
#     4  11  22  37  56  85 123 161 195 236 292 357
#     4  10  19  31  51  81 118 156 191 229 280 346
#
# _framework density 18.581056
#
# number of rings (size 3 to 8) (size 9 to 14) (size 15 to 20)
#    0.000    0.909    7.273    0.818    0.000    2.182 
#    0.000    1.818    0.000    0.545    0.000    1.273 
#    0.000    0.000    0.000    0.000    0.000    0.000 
#
# Total GULP energy -545449.908386 kJ/mol
# GULP energy per Si atom -12396.588827 kJ/mol
# Density = 1.853876 g / cm^3
# Si number density = 18.581056 Si / 1000 Ang^3
#
#
#
# Elastic Constant Matrix: (Units=GPa)
#
#
# Indices 1 2 3 4 5 6 
#
# 1 90.7665 19.5486 48.4357 0.0000 0.0000 0.0000
# 2 19.5486 77.5904 49.8222 0.0000 0.0000 0.0000
# 3 48.4357 49.8222 121.2183 0.0000 0.0000 0.0000
# 4 0.0000 0.0000 0.0000 13.1068 0.0000 0.0000
# 5 0.0000 0.0000 0.0000 0.0000 31.2220 0.0000
# 6 0.0000 0.0000 0.0000 0.0000 0.0000 18.2976
#
#
#
# Elastic Compliance Matrix: (Units=1/GPa)
#
#
# Indices 1 2 3 4 5 6 
#
# 1 0.014004 0.000088 -0.005632 0.000000 0.000000 0.000000
# 2 0.000088 0.017510 -0.007232 0.000000 0.000000 0.000000
# 3 -0.005632 -0.007232 0.013472 0.000000 0.000000 0.000000
# 4 0.000000 0.000000 0.000000 0.076296 0.000000 0.000000
# 5 0.000000 0.000000 0.000000 0.000000 0.032029 0.000000
# 6 0.000000 0.000000 0.000000 0.000000 0.000000 0.054652
#
#
# Mechanical properties :
#
#
# Convention : Reuss Voigt Hill
#
# Bulk Modulus (GPa) = 51.45483 58.35425 54.90454
# Shear Modulus (GPa) = 20.83405 23.97651 22.40528
#
# Velocity S-wave (km/s) = 3.35214 3.59607 3.47625
# Velocity P-wave (km/s) = 6.53718 6.97967 6.76204
#
# Compressibility (1/GPa) = 0.01943452
#
# Stress axis : x y z
#
# Youngs Moduli (GPa) = 71.41056 57.11103 74.22667
#
# Poissons Ratio (x) = -0.00503 0.41802
# Poissons Ratio (y) = -0.00629 0.53680
# Poissons Ratio (z) = 0.40216 0.41302
#
# Static dielectric constant tensor:
#      x y z
#    x 3.554920 0.000000 0.000000 
#    y 0.000000 3.100260 0.000000 
#    z 0.000000 0.000000 3.586480 
# 
# 
# High freq. dielectric constant tensor:
#      x y z
#    x 1.715150 0.000000 0.000000 
#    y 0.000000 1.675310 0.000000 
#    z 0.000000 0.000000 1.736110 
# 
# From -- ./inp_files/26541.got.cif
#   From: 2010.03.12/outbox.cif.g09.slc.cpg/sg66_14_cif.got.tgz:26541.got - 2010.04.10 21:57:39.
