data_PCOD8275731
_publ_section_title
;
Structure prediction by ZEFSAII (Michael W. Deem and Ramdas Pophale) SiO2 
 PCOD8275731
Probable space group: C C C M
;
_chemical_formula_sum "Si O2"
_cell_formula_units_Z 96
_cell_length_a 20.894826
_cell_length_b 30.303054
_cell_length_c 9.193109
_cell_angle_alpha 90.000000
_cell_angle_beta 90.000000
_cell_angle_gamma 90.000000
_cell_volume 5820.865551
_symmetry_space_group_name_H-M "C C C M"
_symmetry_group_IT_number 66
_symmetry_cell_setting 'orthorhombic'
loop_
_space_group_symop_operation_xyz
x,y,z
-x,-y,z
x,-y,1/2-z
-x,y,1/2-z
-x,-y,-z
x,y,-z
-x,y,1/2+z
x,-y,1/2+z
1/2+x,1/2+y,z
1/2-x,1/2-y,z
1/2+x,1/2-y,1/2-z
1/2-x,1/2+y,1/2-z
1/2-x,1/2-y,-z
1/2+x,1/2+y,-z
1/2-x,1/2+y,1/2+z
1/2+x,1/2-y,1/2+z
loop_
_atom_site_type_symbol
_atom_site_label
_atom_site_fract_x
_atom_site_fract_y
_atom_site_fract_z
Si Si1 0.798276 0.456510 0.171677
Si Si2 0.734513 0.871259 0.834633
Si Si3 0.562091 0.252511 0.331046
Si Si4 0.559701 0.068679 0.169373
Si Si5 0.802151 0.784352 0.827226
Si Si6 0.590513 0.152396 0.663359
O O1 0.770547 0.500000 0.250000
O O2 0.760700 0.413855 0.230854
O O3 0.873316 0.453482 0.213880
O O4 0.787713 0.459802 0.000000
O O5 0.785864 0.834762 0.783221
O O6 0.666858 0.846815 0.822309
O O7 0.747228 0.886908 0.000000
O O8 0.500000 0.272272 0.250000
O O9 0.555091 0.263634 0.500000
O O10 0.626885 0.274174 0.266547
O O11 0.564607 0.200494 0.301669
O O12 0.500000 0.044611 0.250000
O O13 0.560233 0.119618 0.219102
O O14 0.547263 0.065835 0.000000
O O15 0.750000 0.750000 0.761195
O O16 0.801734 0.778649 0.000000
O O17 0.571312 0.137076 0.500000
#
# Coordination Sequence:
#
# PCOD8275731 Si02
#       6
#    16  16  16  16  16  16
#     4  10  21  35  49  66  89 115 147 191 241 288
#     4   9  16  29  51  72  89 116 157 200 237 274
#     4  10  19  29  43  66  96 128 162 199 236 275
#     4  10  20  31  43  60  84 115 152 193 235 280
#     4   9  15  28  50  72  93 124 167 203 231 275
#     4   9  16  27  44  64  87 118 156 197 236 273
#
# _framework density 16.492391999999999
#
# number of rings (size 3 to 8) (size 9 to 14) (size 15 to 20)
#    0.000    2.500    1.667    1.500    0.000    4.333 
#    0.000    2.500    0.000    1.000    0.000    0.000 
#    0.000    0.667    0.000    7.667    0.000    2.333 
#
# Total GULP energy -595093.041915 kJ/mol
# GULP energy per Si atom -12397.771707 kJ/mol
# Density = 1.645485 g / cm^3
# Si number density = 16.492392 Si / 1000 Ang^3
#
#
#
# Elastic Constant Matrix: (Units=GPa)
#
#
# Indices 1 2 3 4 5 6 
#
# 1 86.0325 44.7496 26.9162 0.0000 0.0000 0.0000
# 2 44.7496 79.8234 38.3946 0.0000 0.0000 0.0000
# 3 26.9162 38.3946 55.3095 0.0000 0.0000 0.0000
# 4 0.0000 0.0000 0.0000 17.7406 0.0000 0.0000
# 5 0.0000 0.0000 0.0000 0.0000 18.0505 0.0000
# 6 0.0000 0.0000 0.0000 0.0000 0.0000 8.9568
#
#
#
# Elastic Compliance Matrix: (Units=1/GPa)
#
#
# Indices 1 2 3 4 5 6 
#
# 1 0.016623 -0.008149 -0.002433 0.000000 0.000000 0.000000
# 2 -0.008149 0.022802 -0.011863 0.000000 0.000000 0.000000
# 3 -0.002433 -0.011863 0.027499 0.000000 0.000000 0.000000
# 4 0.000000 0.000000 0.000000 0.056368 0.000000 0.000000
# 5 0.000000 0.000000 0.000000 0.000000 0.055400 0.000000
# 6 0.000000 0.000000 0.000000 0.000000 0.000000 0.111647
#
#
# Mechanical properties :
#
#
# Convention : Reuss Voigt Hill
#
# Bulk Modulus (GPa) = 45.38280 49.03179 47.20729
# Shear Modulus (GPa) = 14.59538 16.35658 15.47598
#
# Velocity S-wave (km/s) = 2.97808 3.15265 3.06661
# Velocity P-wave (km/s) = 6.27714 6.56100 6.42064
#
# Compressibility (1/GPa) = 0.02203478
#
# Stress axis : x y z
#
# Youngs Moduli (GPa) = 60.15645 43.85568 36.36491
#
# Poissons Ratio (x) = 0.35738 0.08847
# Poissons Ratio (y) = 0.49021 0.43140
# Poissons Ratio (z) = 0.14635 0.52026
#
# Static dielectric constant tensor:
#      x y z
#    x 3.073500 0.000000 0.000000 
#    y 0.000000 2.965080 0.000000 
#    z 0.000000 0.000000 2.920730 
# 
# 
# High freq. dielectric constant tensor:
#      x y z
#    x 1.607040 0.000000 0.000000 
#    y 0.000000 1.620780 0.000000 
#    z 0.000000 0.000000 1.619990 
# 
# From -- ./inp_files/9293.got.cif
#   From: 2010.03.12/outbox.cif.g09.slc.cpg/sg66_5_cif.got.tgz:9293.got - 2010.04.10 21:57:39.
