data_PCOD8275914
_publ_section_title
;
Structure prediction by ZEFSAII (Michael W. Deem and Ramdas Pophale) SiO2 
 PCOD8275914
Probable space group: C C C M
;
_chemical_formula_sum "Si O2"
_cell_formula_units_Z 52
_cell_length_a 7.119482
_cell_length_b 12.672529
_cell_length_c 26.888552
_cell_angle_alpha 90.000000
_cell_angle_beta 90.000000
_cell_angle_gamma 90.000000
_cell_volume 2425.934693
_symmetry_space_group_name_H-M "C C C M"
_symmetry_group_IT_number 66
_symmetry_cell_setting 'orthorhombic'
loop_
_space_group_symop_operation_xyz
x,y,z
-x,-y,z
x,-y,1/2-z
-x,y,1/2-z
-x,-y,-z
x,y,-z
-x,y,1/2+z
x,-y,1/2+z
1/2+x,1/2+y,z
1/2-x,1/2-y,z
1/2+x,1/2-y,1/2-z
1/2-x,1/2+y,1/2-z
1/2-x,1/2-y,-z
1/2+x,1/2+y,-z
1/2-x,1/2+y,1/2+z
1/2+x,1/2-y,1/2+z
loop_
_atom_site_type_symbol
_atom_site_label
_atom_site_fract_x
_atom_site_fract_y
_atom_site_fract_z
Si Si1 0.000000 0.500000 0.913187
Si Si2 0.500000 0.000000 0.750000
Si Si3 0.635512 0.404540 0.945047
Si Si4 0.391337 0.848913 0.331052
Si Si5 0.750000 0.250000 0.865730
O O1 0.146194 0.561568 0.947435
O O2 0.128801 0.419571 0.880581
O O3 0.364423 0.925289 0.716521
O O4 0.500000 0.500000 0.931334
O O5 0.613624 0.319169 0.901407
O O6 0.584903 0.358875 0.000000
O O7 0.250000 0.750000 0.329626
O O8 0.610198 0.812960 0.329881
#
# Coordination Sequence:
#
# PCOD8275914 Si02
#       5
#     8   4  16  16   8
#     4   9  19  35  53  80 112 152 189 233 283 335
#     4  10  24  40  60  90 110 138 198 240 290 364
#     4  10  19  32  53  82 115 151 194 233 273 330
#     4  10  21  39  59  80 113 146 186 239 291 348
#     4  10  21  36  58  82 112 154 188 232 287 340
#
# _framework density 21.435037000000001
#
# number of rings (size 3 to 8) (size 9 to 14) (size 15 to 20)
#    0.000    2.154    0.000    2.769    2.154    0.000 
#    0.000    1.538    0.000   14.769    0.000    0.000 
#    0.000    0.000    0.000    0.000    0.000    0.000 
#
# Total GULP energy -322228.057992 kJ/mol
# GULP energy per Si atom -12393.386846 kJ/mol
# Density = 2.138625 g / cm^3
# Si number density = 21.435037 Si / 1000 Ang^3
#
#
#
# Elastic Constant Matrix: (Units=GPa)
#
#
# Indices 1 2 3 4 5 6 
#
# 1 57.7176 31.6869 31.5610 0.0000 0.0000 0.0000
# 2 31.6869 113.2700 42.0630 0.0000 0.0000 0.0000
# 3 31.5610 42.0630 84.6140 0.0000 0.0000 0.0000
# 4 0.0000 0.0000 0.0000 -138.7355 0.0000 0.0000
# 5 0.0000 0.0000 0.0000 0.0000 15.2721 0.0000
# 6 0.0000 0.0000 0.0000 0.0000 0.0000 51.9072
#
#
#
# Elastic Compliance Matrix: (Units=1/GPa)
#
#
# Indices 1 2 3 4 5 6 
#
# 1 0.023162 -0.004012 -0.006645 0.000000 0.000000 0.000000
# 2 -0.004012 0.011522 -0.004231 0.000000 0.000000 0.000000
# 3 -0.006645 -0.004231 0.016400 0.000000 0.000000 0.000000
# 4 0.000000 0.000000 0.000000 -0.007208 0.000000 0.000000
# 5 0.000000 0.000000 0.000000 0.000000 0.065479 0.000000
# 6 0.000000 0.000000 0.000000 0.000000 0.000000 0.019265
#
#
# Mechanical properties :
#
#
# Convention : Reuss Voigt Hill
#
# Bulk Modulus (GPa) = 46.93092 51.80258 49.36675
# Shear Modulus (GPa) = 30.21159 -4.29184 12.95988
#
# Velocity S-wave (km/s) = 3.75834 -1.41655 2.46155
# Velocity P-wave (km/s) = 6.38557 4.64158 5.58210
#
# Compressibility (1/GPa) = 0.02130791
#
# Stress axis : x y z
#
# Youngs Moduli (GPa) = 43.17454 86.78973 60.97386
#
# Poissons Ratio (x) = 0.34818 0.40517
# Poissons Ratio (y) = 0.17321 0.25801
# Poissons Ratio (z) = 0.28689 0.36724
#
# Static dielectric constant tensor:
#      x y z
#    x 3.490030 0.000000 0.000000 
#    y 0.000000 4.088770 0.000000 
#    z 0.000000 0.000000 3.728090 
# 
# 
# High freq. dielectric constant tensor:
#      x y z
#    x 1.816540 0.000000 0.000000 
#    y 0.000000 1.851650 0.000000 
#    z 0.000000 0.000000 1.837420 
# 
# From -- ./inp_files/61897.got.cif
#   From: 2010.03.12/outbox.cif.g09.slc.cpg/sg66_31_cif.got.tgz:61897.got - 2010.04.10 21:57:39.
