data_PCOD8275479
_publ_section_title
;
Structure prediction by ZEFSAII (Michael W. Deem and Ramdas Pophale) SiO2 
 PCOD8275479
Probable space group: C C C M
;
_chemical_formula_sum "Si O2"
_cell_formula_units_Z 96
_cell_length_a 26.742111
_cell_length_b 28.381588
_cell_length_c 8.998721
_cell_angle_alpha 90.000000
_cell_angle_beta 90.000000
_cell_angle_gamma 90.000000
_cell_volume 6829.881450
_symmetry_space_group_name_H-M "C C C M"
_symmetry_group_IT_number 66
_symmetry_cell_setting 'orthorhombic'
loop_
_space_group_symop_operation_xyz
x,y,z
-x,-y,z
x,-y,1/2-z
-x,y,1/2-z
-x,-y,-z
x,y,-z
-x,y,1/2+z
x,-y,1/2+z
1/2+x,1/2+y,z
1/2-x,1/2-y,z
1/2+x,1/2-y,1/2-z
1/2-x,1/2+y,1/2-z
1/2-x,1/2-y,-z
1/2+x,1/2+y,-z
1/2-x,1/2+y,1/2+z
1/2+x,1/2-y,1/2+z
loop_
_atom_site_type_symbol
_atom_site_label
_atom_site_fract_x
_atom_site_fract_y
_atom_site_fract_z
Si Si1 0.714689 0.547932 0.824973
Si Si2 0.149431 0.804208 0.674119
Si Si3 0.703356 0.784867 0.835970
Si Si4 0.598683 0.452926 0.673550
Si Si5 0.761558 0.141137 0.175364
Si Si6 0.051049 0.856662 0.325643
O O1 0.734233 0.500000 0.750000
O O2 0.656475 0.555507 0.786297
O O3 0.745483 0.590622 0.752589
O O4 0.724555 0.546058 0.000000
O O5 0.160513 0.814880 0.500000
O O6 0.156209 0.748311 0.709592
O O7 0.187291 0.835350 0.769704
O O8 0.093174 0.818378 0.716742
O O9 0.750000 0.750000 0.839841
O O10 0.713516 0.826804 0.719839
O O11 0.695078 0.806886 0.000000
O O12 0.577606 0.500000 0.750000
O O13 0.591551 0.459570 0.500000
O O14 0.567788 0.408128 0.733231
O O15 0.763031 0.134957 0.000000
O O16 0.042495 0.858457 0.500000
O O17 0.000000 0.840487 0.250000
#
# Coordination Sequence:
#
# PCOD8275479 Si02
#       6
#    16  16  16  16  16  16
#     4  10  18  30  44  59  80 106 136 166 201 243
#     4   9  17  32  46  56  77 105 132 163 202 246
#     4   8  15  27  44  60  76 103 130 156 196 241
#     4   9  18  31  45  56  72  96 128 168 208 246
#     4  11  19  26  41  64  85 103 127 162 201 240
#     4  10  20  33  45  59  76 100 131 169 211 252
#
# _framework density 14.05588
#
# number of rings (size 3 to 8) (size 9 to 14) (size 15 to 20)
#    0.000    2.500    1.667    3.000    0.000    5.333 
#    0.000    1.667    0.000    0.000    0.000    0.000 
#    0.000    0.000    0.000    0.000    0.000    0.833 
#
# Total GULP energy -595065.305245 kJ/mol
# GULP energy per Si atom -12397.193859 kJ/mol
# Density = 1.402389 g / cm^3
# Si number density = 14.055880 Si / 1000 Ang^3
#
#
#
# Elastic Constant Matrix: (Units=GPa)
#
#
# Indices 1 2 3 4 5 6 
#
# 1 58.2767 52.1036 24.9489 0.0000 0.0000 0.0000
# 2 52.1036 99.6012 48.6744 0.0000 0.0000 0.0000
# 3 24.9489 48.6744 70.0183 0.0000 0.0000 0.0000
# 4 0.0000 0.0000 0.0000 22.5777 0.0000 0.0000
# 5 0.0000 0.0000 0.0000 0.0000 14.5693 0.0000
# 6 0.0000 0.0000 0.0000 0.0000 0.0000 20.1454
#
#
#
# Elastic Compliance Matrix: (Units=1/GPa)
#
#
# Indices 1 2 3 4 5 6 
#
# 1 0.032243 -0.017042 0.000358 0.000000 0.000000 0.000000
# 2 -0.017042 0.024214 -0.010760 0.000000 0.000000 0.000000
# 3 0.000358 -0.010760 0.021634 0.000000 0.000000 0.000000
# 4 0.000000 0.000000 0.000000 0.044292 0.000000 0.000000
# 5 0.000000 0.000000 0.000000 0.000000 0.068637 0.000000
# 6 0.000000 0.000000 0.000000 0.000000 0.000000 0.049639
#
#
# Mechanical properties :
#
#
# Convention : Reuss Voigt Hill
#
# Bulk Modulus (GPa) = 43.09749 53.26110 48.17930
# Shear Modulus (GPa) = 16.48637 18.26977 17.37807
#
# Velocity S-wave (km/s) = 3.42850 3.60918 3.52000
# Velocity P-wave (km/s) = 6.81182 7.43928 7.13245
#
# Compressibility (1/GPa) = 0.02320321
#
# Stress axis : x y z
#
# Youngs Moduli (GPa) = 31.01444 41.29924 46.22298
#
# Poissons Ratio (x) = 0.70383 -0.01656
# Poissons Ratio (y) = 0.52855 0.49736
# Poissons Ratio (z) = -0.01111 0.44438
#
# Static dielectric constant tensor:
#      x y z
#    x 2.583010 0.000000 0.000000 
#    y 0.000000 2.981020 0.000000 
#    z 0.000000 0.000000 2.726820 
# 
# 
# High freq. dielectric constant tensor:
#      x y z
#    x 1.485320 0.000000 0.000000 
#    y 0.000000 1.532370 0.000000 
#    z 0.000000 0.000000 1.539880 
# 
# From -- ./inp_files/9313.got.cif
#   From: 2010.03.12/outbox.cif.g09.slc.cpg/sg66_5_cif.got.tgz:9313.got - 2010.04.10 21:57:39.
