data_PCOD8275933
_publ_section_title
;
Structure prediction by ZEFSAII (Michael W. Deem and Ramdas Pophale) SiO2 
 PCOD8275933
Probable space group: C C C M
;
_chemical_formula_sum "Si O2"
_cell_formula_units_Z 112
_cell_length_a 24.987975
_cell_length_b 12.456392
_cell_length_c 18.851971
_cell_angle_alpha 90.000000
_cell_angle_beta 90.000000
_cell_angle_gamma 90.000000
_cell_volume 5867.864718
_symmetry_space_group_name_H-M "C C C M"
_symmetry_group_IT_number 66
_symmetry_cell_setting 'orthorhombic'
loop_
_space_group_symop_operation_xyz
x,y,z
-x,-y,z
x,-y,1/2-z
-x,y,1/2-z
-x,-y,-z
x,y,-z
-x,y,1/2+z
x,-y,1/2+z
1/2+x,1/2+y,z
1/2-x,1/2-y,z
1/2+x,1/2-y,1/2-z
1/2-x,1/2+y,1/2-z
1/2-x,1/2-y,-z
1/2+x,1/2+y,-z
1/2-x,1/2+y,1/2+z
1/2+x,1/2-y,1/2+z
loop_
_atom_site_type_symbol
_atom_site_label
_atom_site_fract_x
_atom_site_fract_y
_atom_site_fract_z
Si Si1 0.144995 0.492206 0.169390
Si Si2 0.105659 0.855699 0.084169
Si Si3 0.882096 0.903078 0.917803
Si Si4 0.691151 0.217737 0.836094
Si Si5 0.811043 0.260898 0.671683
Si Si6 0.489656 0.708208 0.417784
Si Si7 0.448786 0.070641 0.922269
O O1 0.125736 0.500000 0.250000
O O2 0.185985 0.589371 0.154638
O O3 0.172915 0.380609 0.149669
O O4 0.092097 0.500611 0.122589
O O5 0.147031 0.771102 0.114751
O O6 0.046287 0.829553 0.115639
O O7 0.125788 0.974103 0.106351
O O8 0.104478 0.846486 0.000000
O O9 0.846469 0.826327 0.869086
O O10 0.945370 0.883271 0.906637
O O11 0.866110 0.884363 0.000000
O O12 0.750000 0.250000 0.862742
O O13 0.681950 0.257227 0.755652
O O14 0.750000 0.250000 0.647926
O O15 0.499924 0.733387 0.500000
O O16 0.465687 0.817871 0.383359
O O17 0.500000 0.000000 0.932775
O O18 0.423312 0.095366 0.000000
#
# Coordination Sequence:
#
# PCOD8275933 Si02
#       7
#    16  16  16  16  16  16  16
#     4  10  21  38  57  83 112 144 190 235 282 332
#     4  10  21  37  58  86 118 151 188 230 278 338
#     4  10  20  36  60  88 115 147 187 232 285 337
#     4  10  23  40  58  81 112 154 193 231 284 339
#     4  10  22  39  61  84 111 147 190 239 284 336
#     4   9  17  33  56  83 115 147 181 224 281 338
#     4  10  19  32  55  84 112 148 187 225 275 334
#
# _framework density 19.087012000000001
#
# number of rings (size 3 to 8) (size 9 to 14) (size 15 to 20)
#    0.000    2.143    1.429    1.286    2.000    4.857 
#    0.000    0.714    0.000    1.714    0.000    0.000 
#    0.000    0.000    0.000    0.000    0.000    0.000 
#
# Total GULP energy -694327.534813 kJ/mol
# GULP energy per Si atom -12398.705979 kJ/mol
# Density = 1.904357 g / cm^3
# Si number density = 19.087012 Si / 1000 Ang^3
#
#
#
# Elastic Constant Matrix: (Units=GPa)
#
#
# Indices 1 2 3 4 5 6 
#
# 1 124.2619 41.8297 40.1281 0.0000 0.0000 0.0000
# 2 41.8297 101.5402 37.3023 0.0000 0.0000 0.0000
# 3 40.1281 37.3023 41.5307 0.0000 0.0000 0.0000
# 4 0.0000 0.0000 0.0000 32.3705 0.0000 0.0000
# 5 0.0000 0.0000 0.0000 0.0000 10.4194 0.0000
# 6 0.0000 0.0000 0.0000 0.0000 0.0000 30.5054
#
#
#
# Elastic Compliance Matrix: (Units=1/GPa)
#
#
# Indices 1 2 3 4 5 6 
#
# 1 0.011765 -0.001001 -0.010469 0.000000 0.000000 0.000000
# 2 -0.001001 0.014783 -0.012311 0.000000 0.000000 0.000000
# 3 -0.010469 -0.012311 0.045252 0.000000 0.000000 0.000000
# 4 0.000000 0.000000 0.000000 0.030892 0.000000 0.000000
# 5 0.000000 0.000000 0.000000 0.000000 0.095974 0.000000
# 6 0.000000 0.000000 0.000000 0.000000 0.000000 0.032781
#
#
# Mechanical properties :
#
#
# Convention : Reuss Voigt Hill
#
# Bulk Modulus (GPa) = 41.25694 56.20588 48.73141
# Shear Modulus (GPa) = 17.41621 24.53059 20.97340
#
# Velocity S-wave (km/s) = 3.02398 3.58885 3.31846
# Velocity P-wave (km/s) = 5.81848 6.83259 6.34583
#
# Compressibility (1/GPa) = 0.02423834
#
# Stress axis : x y z
#
# Youngs Moduli (GPa) = 84.99682 67.64410 22.09867
#
# Poissons Ratio (x) = 0.06770 0.23135
# Poissons Ratio (y) = 0.08506 0.27206
# Poissons Ratio (z) = 0.88983 0.83278
#
# Static dielectric constant tensor:
#      x y z
#    x 3.498790 0.000000 0.000000 
#    y 0.000000 3.763320 0.000000 
#    z 0.000000 0.000000 3.279120 
# 
# 
# High freq. dielectric constant tensor:
#      x y z
#    x 1.744410 0.000000 0.000000 
#    y 0.000000 1.759010 0.000000 
#    z 0.000000 0.000000 1.713980 
# 
# From -- ./inp_files/48996.got.cif
#   From: 2010.03.12/outbox.cif.g09.slc.cpg/sg66_25_cif.got.tgz:48996.got - 2010.04.10 21:57:39.
