data_PCOD8275829
_publ_section_title
;
Structure prediction by ZEFSAII (Michael W. Deem and Ramdas Pophale) SiO2 
 PCOD8275829
Probable space group: C C C M
;
_chemical_formula_sum "Si O2"
_cell_formula_units_Z 96
_cell_length_a 25.177944
_cell_length_b 23.804120
_cell_length_c 8.809900
_cell_angle_alpha 90.000000
_cell_angle_beta 90.000000
_cell_angle_gamma 90.000000
_cell_volume 5280.114897
_symmetry_space_group_name_H-M "C C C M"
_symmetry_group_IT_number 66
_symmetry_cell_setting 'orthorhombic'
loop_
_space_group_symop_operation_xyz
x,y,z
-x,-y,z
x,-y,1/2-z
-x,y,1/2-z
-x,-y,-z
x,y,-z
-x,y,1/2+z
x,-y,1/2+z
1/2+x,1/2+y,z
1/2-x,1/2-y,z
1/2+x,1/2-y,1/2-z
1/2-x,1/2+y,1/2-z
1/2-x,1/2-y,-z
1/2+x,1/2+y,-z
1/2-x,1/2+y,1/2+z
1/2+x,1/2-y,1/2+z
loop_
_atom_site_type_symbol
_atom_site_label
_atom_site_fract_x
_atom_site_fract_y
_atom_site_fract_z
Si Si1 0.189531 0.751894 0.162918
Si Si2 0.338656 0.142561 0.172160
Si Si3 0.445780 0.192152 0.825295
Si Si4 0.752240 0.939549 0.822037
Si Si5 0.845536 0.142666 0.323445
Si Si6 0.943671 0.810996 0.679180
O O1 0.250000 0.750000 0.125159
O O2 0.175808 0.689980 0.211675
O O3 0.178315 0.795746 0.296309
O O4 0.160476 0.767054 0.000000
O O5 0.403262 0.140543 0.183967
O O6 0.305607 0.087081 0.220760
O O7 0.321764 0.158157 0.000000
O O8 0.500000 0.170202 0.750000
O O9 0.425171 0.249030 0.740012
O O10 0.456495 0.208869 0.000000
O O11 0.802185 0.902362 0.762484
O O12 0.756069 0.000000 0.750000
O O13 0.757467 0.946283 0.000000
O O14 0.857326 0.133665 0.500000
O O15 0.901183 0.141259 0.230905
O O16 0.949621 0.810318 0.500000
O O17 0.000000 0.827267 0.750000
#
# Coordination Sequence:
#
# PCOD8275829 Si02
#       6
#    16  16  16  16  16  16
#     4  11  21  30  47  80 112 140 176 219 267 323
#     4  10  20  35  54  76 107 147 181 217 270 330
#     4  10  19  31  50  76 111 148 181 217 263 321
#     4  10  23  40  58  79 104 140 184 229 278 327
#     4  11  21  35  55  78 109 147 180 217 271 330
#     4  11  21  33  51  79 114 148 182 218 263 317
#
# _framework density 18.181422000000001
#
# number of rings (size 3 to 8) (size 9 to 14) (size 15 to 20)
#    0.000    1.500    3.333    4.000    0.000    3.333 
#    0.000    0.000    0.000    1.000    0.000    7.000 
#    0.000    0.000    0.000    0.000    0.000    0.000 
#
# Total GULP energy -594697.028611 kJ/mol
# GULP energy per Si atom -12389.521429 kJ/mol
# Density = 1.814004 g / cm^3
# Si number density = 18.181422 Si / 1000 Ang^3
#
#
#
# Elastic Constant Matrix: (Units=GPa)
#
#
# Indices 1 2 3 4 5 6 
#
# 1 136.3371 58.7267 49.1321 0.0000 0.0000 0.0000
# 2 58.7267 85.2556 31.6884 0.0000 0.0000 0.0000
# 3 49.1321 31.6884 93.0931 0.0000 0.0000 0.0000
# 4 0.0000 0.0000 0.0000 24.9365 0.0000 0.0000
# 5 0.0000 0.0000 0.0000 0.0000 23.8343 0.0000
# 6 0.0000 0.0000 0.0000 0.0000 0.0000 15.4686
#
#
#
# Elastic Compliance Matrix: (Units=1/GPa)
#
#
# Indices 1 2 3 4 5 6 
#
# 1 0.011532 -0.006504 -0.003872 0.000000 0.000000 0.000000
# 2 -0.006504 0.017097 -0.002387 0.000000 0.000000 0.000000
# 3 -0.003872 -0.002387 0.013598 0.000000 0.000000 0.000000
# 4 0.000000 0.000000 0.000000 0.040102 0.000000 0.000000
# 5 0.000000 0.000000 0.000000 0.000000 0.041956 0.000000
# 6 0.000000 0.000000 0.000000 0.000000 0.000000 0.064647
#
#
# Mechanical properties :
#
#
# Convention : Reuss Voigt Hill
#
# Bulk Modulus (GPa) = 59.87982 65.97558 62.92770
# Shear Modulus (GPa) = 22.72463 24.52380 23.62422
#
# Velocity S-wave (km/s) = 3.53920 3.67664 3.60857
# Velocity P-wave (km/s) = 7.05035 7.37494 7.21447
#
# Compressibility (1/GPa) = 0.01670012
#
# Stress axis : x y z
#
# Youngs Moduli (GPa) = 86.71609 58.48982 73.53973
#
# Poissons Ratio (x) = 0.38043 0.28476
# Poissons Ratio (y) = 0.56403 0.17554
# Poissons Ratio (z) = 0.33578 0.13961
#
# Static dielectric constant tensor:
#      x y z
#    x 3.797060 0.000000 0.000000 
#    y 0.000000 3.057930 0.000000 
#    z 0.000000 0.000000 3.435000 
# 
# 
# High freq. dielectric constant tensor:
#      x y z
#    x 1.727940 0.000000 0.000000 
#    y 0.000000 1.644590 0.000000 
#    z 0.000000 0.000000 1.719150 
# 
# From -- ./inp_files/7963.got.cif
#   From: 2010.03.12/outbox.cif.g09.slc.cpg/sg66_4_cif.got.tgz:7963.got - 2010.04.10 21:57:39.
