data_PCOD8275266
_publ_section_title
;
Structure prediction by ZEFSAII (Michael W. Deem and Ramdas Pophale) SiO2 
 PCOD8275266
Probable space group: C C C M
;
_chemical_formula_sum "Si O2"
_cell_formula_units_Z 44
_cell_length_a 27.047318
_cell_length_b 8.647349
_cell_length_c 9.714747
_cell_angle_alpha 90.000000
_cell_angle_beta 90.000000
_cell_angle_gamma 90.000000
_cell_volume 2272.158844
_symmetry_space_group_name_H-M "C C C M"
_symmetry_group_IT_number 66
_symmetry_cell_setting 'orthorhombic'
loop_
_space_group_symop_operation_xyz
x,y,z
-x,-y,z
x,-y,1/2-z
-x,y,1/2-z
-x,-y,-z
x,y,-z
-x,y,1/2+z
x,-y,1/2+z
1/2+x,1/2+y,z
1/2-x,1/2-y,z
1/2+x,1/2-y,1/2-z
1/2-x,1/2+y,1/2-z
1/2-x,1/2-y,-z
1/2+x,1/2+y,-z
1/2-x,1/2+y,1/2+z
1/2+x,1/2-y,1/2+z
loop_
_atom_site_type_symbol
_atom_site_label
_atom_site_fract_x
_atom_site_fract_y
_atom_site_fract_z
Si Si1 0.000000 0.500000 0.750000
Si Si2 0.331027 0.162008 0.500000
Si Si3 0.563973 0.073809 0.000000
Si Si4 0.142031 0.328990 0.000000
Si Si5 0.700056 0.318684 0.273004
O O1 0.966774 0.399176 0.857737
O O2 0.390518 0.194327 0.500000
O O3 0.305036 0.234905 0.370821
O O4 0.321290 0.977680 0.500000
O O5 0.585609 0.895394 0.000000
O O6 0.152812 0.223656 0.133063
O O7 0.703046 0.500000 0.250000
O O8 0.750000 0.250000 0.341984
#
# Coordination Sequence:
#
# PCOD8275266 Si02
#       5
#     4   8   8   8  16
#     4  10  16  34  56 102 102 142 176 246 302 350
#     4  10  21  38  55  81 116 149 186 243 285 324
#     4   9  20  32  62  82 124 132 190 240 296 335
#     4  10  21  38  55  81 116 149 186 243 285 324
#     4  12  23  36  55  81 114 160 200 236 274 331
#
# _framework density 19.364843
#
# number of rings (size 3 to 8) (size 9 to 14) (size 15 to 20)
#    1.091    0.364    0.000    7.636    0.000    0.000 
#    0.000    0.000    0.000    0.000    0.000   89.091 
#    0.000    0.000    0.000    0.000    0.000    0.000 
#
# Total GULP energy -272569.999915 kJ/mol
# GULP energy per Si atom -12389.545451 kJ/mol
# Density = 1.932077 g / cm^3
# Si number density = 19.364843 Si / 1000 Ang^3
#
#
#
# Elastic Constant Matrix: (Units=GPa)
#
#
# Indices 1 2 3 4 5 6 
#
# 1 83.0877 15.5850 18.3878 0.0000 0.0000 0.0000
# 2 15.5850 117.1447 18.5014 0.0000 0.0000 0.0000
# 3 18.3878 18.5014 127.6202 0.0000 0.0000 0.0000
# 4 0.0000 0.0000 0.0000 17.4219 0.0000 0.0000
# 5 0.0000 0.0000 0.0000 0.0000 34.6318 0.0000
# 6 0.0000 0.0000 0.0000 0.0000 0.0000 13.6914
#
#
#
# Elastic Compliance Matrix: (Units=1/GPa)
#
#
# Indices 1 2 3 4 5 6 
#
# 1 0.012661 -0.001429 -0.001617 0.000000 0.000000 0.000000
# 2 -0.001429 0.008898 -0.001084 0.000000 0.000000 0.000000
# 3 -0.001617 -0.001084 0.008226 0.000000 0.000000 0.000000
# 4 0.000000 0.000000 0.000000 0.057399 0.000000 0.000000
# 5 0.000000 0.000000 0.000000 0.000000 0.028875 0.000000
# 6 0.000000 0.000000 0.000000 0.000000 0.000000 0.073039
#
#
# Mechanical properties :
#
#
# Convention : Reuss Voigt Hill
#
# Bulk Modulus (GPa) = 46.45834 48.08900 47.27367
# Shear Modulus (GPa) = 24.44590 31.50758 27.97674
#
# Velocity S-wave (km/s) = 3.55686 4.03805 3.80507
# Velocity P-wave (km/s) = 6.39621 6.82848 6.61588
#
# Compressibility (1/GPa) = 0.02152466
#
# Stress axis : x y z
#
# Youngs Moduli (GPa) = 78.98020 112.38750 121.56724
#
# Poissons Ratio (x) = 0.16061 0.19659
# Poissons Ratio (y) = 0.11287 0.13178
# Poissons Ratio (z) = 0.12772 0.12183
#
# Static dielectric constant tensor:
#      x y z
#    x 3.526490 0.000000 0.000000 
#    y 0.000000 3.412950 0.000000 
#    z 0.000000 0.000000 3.582950 
# 
# 
# High freq. dielectric constant tensor:
#      x y z
#    x 1.749540 0.000000 0.000000 
#    y 0.000000 1.714670 0.000000 
#    z 0.000000 0.000000 1.774160 
# 
# From -- ./inp_files/2721.got.cif
#   From: 2010.03.12/outbox.cif.g09.slc.cpg/sg66_2_cif.got.tgz:2721.got - 2010.04.10 21:57:39.
