data_PCOD8275626
_publ_section_title
;
Structure prediction by ZEFSAII (Michael W. Deem and Ramdas Pophale) SiO2 
 PCOD8275626
Probable space group: C C C M
;
_chemical_formula_sum "Si O2"
_cell_formula_units_Z 96
_cell_length_a 10.300086
_cell_length_b 28.364828
_cell_length_c 17.142608
_cell_angle_alpha 90.000000
_cell_angle_beta 90.000000
_cell_angle_gamma 90.000000
_cell_volume 5008.387229
_symmetry_space_group_name_H-M "C C C M"
_symmetry_group_IT_number 66
_symmetry_cell_setting 'orthorhombic'
loop_
_space_group_symop_operation_xyz
x,y,z
-x,-y,z
x,-y,1/2-z
-x,y,1/2-z
-x,-y,-z
x,y,-z
-x,y,1/2+z
x,-y,1/2+z
1/2+x,1/2+y,z
1/2-x,1/2-y,z
1/2+x,1/2-y,1/2-z
1/2-x,1/2+y,1/2-z
1/2-x,1/2-y,-z
1/2+x,1/2+y,-z
1/2-x,1/2+y,1/2+z
1/2+x,1/2-y,1/2+z
loop_
_atom_site_type_symbol
_atom_site_label
_atom_site_fract_x
_atom_site_fract_y
_atom_site_fract_z
Si Si1 0.602210 0.244498 0.408278
Si Si2 0.495709 0.661086 0.342468
Si Si3 0.741404 0.403435 0.658965
Si Si4 0.741800 0.397823 0.844184
Si Si5 0.353080 0.502175 0.843063
Si Si6 0.506014 0.147956 0.342699
O O1 0.606147 0.237395 0.500000
O O2 0.750000 0.250000 0.375538
O O3 0.516768 0.289354 0.385433
O O4 0.526538 0.200903 0.370917
O O5 0.500000 0.669063 0.250000
O O6 0.376920 0.628589 0.370213
O O7 0.626765 0.636354 0.372015
O O8 0.743938 0.401804 0.751701
O O9 0.724558 0.456414 0.626477
O O10 0.875559 0.383526 0.625102
O O11 0.717638 0.450928 0.875909
O O12 0.875030 0.375555 0.876932
O O13 0.500000 0.500000 0.874915
O O14 0.356080 0.500000 0.750000
O O15 0.500000 0.148441 0.250000
#
# Coordination Sequence:
#
# PCOD8275626 Si02
#       6
#    16  16  16  16  16  16
#     4  11  23  38  56  77 101 138 183 222 265 318
#     4  10  18  33  54  78 104 137 176 213 259 312
#     4   9  16  28  49  74 109 141 170 210 255 313
#     4   9  18  28  48  78 107 139 168 210 266 307
#     4   9  14  24  44  75 110 139 169 208 255 309
#     4  10  20  35  51  78 111 137 173 220 265 311
#
# _framework density 19.167847999999999
#
# number of rings (size 3 to 8) (size 9 to 14) (size 15 to 20)
#    0.000    2.333    3.333    0.500    0.000    1.333 
#    0.000    5.000    0.000    0.000    0.000    7.000 
#    0.000    0.000    0.000    0.000    0.000    0.000 
#
# Total GULP energy -595106.646736 kJ/mol
# GULP energy per Si atom -12398.055140 kJ/mol
# Density = 1.912422 g / cm^3
# Si number density = 19.167848 Si / 1000 Ang^3
#
#
#
# Elastic Constant Matrix: (Units=GPa)
#
#
# Indices 1 2 3 4 5 6 
#
# 1 177.9861 97.0645 10.5498 0.0000 0.0000 0.0000
# 2 97.0645 185.4187 4.1046 0.0000 0.0000 0.0000
# 3 10.5498 4.1046 9.0689 0.0000 0.0000 0.0000
# 4 0.0000 0.0000 0.0000 -3.4445 0.0000 0.0000
# 5 0.0000 0.0000 0.0000 0.0000 7.1665 0.0000
# 6 0.0000 0.0000 0.0000 0.0000 0.0000 40.5428
#
#
#
# Elastic Compliance Matrix: (Units=1/GPa)
#
#
# Indices 1 2 3 4 5 6 
#
# 1 0.008381 -0.004214 -0.007843 0.000000 0.000000 0.000000
# 2 -0.004214 0.007566 0.001477 0.000000 0.000000 0.000000
# 3 -0.007843 0.001477 0.118722 0.000000 0.000000 0.000000
# 4 0.000000 0.000000 0.000000 -0.290318 0.000000 0.000000
# 5 0.000000 0.000000 0.000000 0.000000 0.139538 0.000000
# 6 0.000000 0.000000 0.000000 0.000000 0.000000 0.024665
#
#
# Mechanical properties :
#
#
# Convention : Reuss Voigt Hill
#
# Bulk Modulus (GPa) = 8.80971 66.21237 37.51104
# Shear Modulus (GPa) = 74.01841 26.23662 50.12751
#
# Velocity S-wave (km/s) = 6.22091 3.70372 5.11944
# Velocity P-wave (km/s) = 7.49705 7.27382 7.38628
#
# Compressibility (1/GPa) = 0.11351111
#
# Stress axis : x y z
#
# Youngs Moduli (GPa) = 119.31280 132.16276 8.42306
#
# Poissons Ratio (x) = 0.55692 0.06606
# Poissons Ratio (y) = 0.50277 -0.01244
# Poissons Ratio (z) = 0.93573 -0.19526
#
# Static dielectric constant tensor:
#      x y z
#    x 3.804690 0.000000 0.000000 
#    y 0.000000 3.728700 0.000000 
#    z 0.000000 0.000000 2.838010 
# 
# 
# High freq. dielectric constant tensor:
#      x y z
#    x 1.751540 0.000000 0.000000 
#    y 0.000000 1.763840 0.000000 
#    z 0.000000 0.000000 1.681660 
# 
# From -- ./inp_files/47355.got.cif
#   From: 2010.03.12/outbox.cif.g09.slc.cpg/sg66_24_cif.got.tgz:47355.got - 2010.04.10 21:57:39.
