data_PCOD8275265
_publ_section_title
;
Structure prediction by ZEFSAII (Michael W. Deem and Ramdas Pophale) SiO2 
 PCOD8275265
Probable space group: C C C M
;
_chemical_formula_sum "Si O2"
_cell_formula_units_Z 84
_cell_length_a 22.892039
_cell_length_b 11.133268
_cell_length_c 21.534605
_cell_angle_alpha 90.000000
_cell_angle_beta 90.000000
_cell_angle_gamma 90.000000
_cell_volume 5488.378454
_symmetry_space_group_name_H-M "C C C M"
_symmetry_group_IT_number 66
_symmetry_cell_setting 'orthorhombic'
loop_
_space_group_symop_operation_xyz
x,y,z
-x,-y,z
x,-y,1/2-z
-x,y,1/2-z
-x,-y,-z
x,y,-z
-x,y,1/2+z
x,-y,1/2+z
1/2+x,1/2+y,z
1/2-x,1/2-y,z
1/2+x,1/2-y,1/2-z
1/2-x,1/2+y,1/2-z
1/2-x,1/2-y,-z
1/2+x,1/2+y,-z
1/2-x,1/2+y,1/2+z
1/2+x,1/2-y,1/2+z
loop_
_atom_site_type_symbol
_atom_site_label
_atom_site_fract_x
_atom_site_fract_y
_atom_site_fract_z
Si Si1 0.787720 0.433087 0.571141
Si Si2 0.800393 0.417319 0.808485
Si Si3 0.605399 0.431886 0.676068
Si Si4 0.832171 0.157174 0.209610
Si Si5 0.000000 0.000000 0.750000
Si Si6 0.836965 0.175151 0.430981
O O1 0.791742 0.484949 0.500000
O O2 0.810797 0.524213 0.623602
O O3 0.828131 0.316490 0.576158
O O4 0.721434 0.397169 0.587305
O O5 0.819583 0.500000 0.750000
O O6 0.840099 0.297064 0.807525
O O7 0.733328 0.383518 0.802173
O O8 0.653662 0.363493 0.717907
O O9 0.622733 0.573508 0.670680
O O10 0.540967 0.417949 0.705781
O O11 0.608155 0.368571 0.609721
O O12 0.855314 0.142042 0.500000
#
# Coordination Sequence:
#
# PCOD8275265 Si02
#       6
#    16  16  16  16   4  16
#     4   9  17  27  40  65  95 124 147 168 202 258
#     4  11  16  25  39  63  84 119 146 172 198 262
#     4  10  16  34  42  64  85 111 139 193 221 258
#     4   9  18  24  40  59  86 112 144 169 219 248
#     4   8  20  28  50  60  82 108 140 182 244 256
#     4   9  16  27  45  63  88 121 148 172 208 252
#
# _framework density 15.305066
#
# number of rings (size 3 to 8) (size 9 to 14) (size 15 to 20)
#    0.000    2.667    3.810    2.286    0.000    3.048 
#    0.000    3.333    0.000    0.000    0.000   42.667 
#    0.000   12.190    0.000    0.000    0.000    0.000 
#
# Total GULP energy -520421.235107 kJ/mol
# GULP energy per Si atom -12390.981788 kJ/mol
# Density = 1.527023 g / cm^3
# Si number density = 15.305066 Si / 1000 Ang^3
#
#
#
# Elastic Constant Matrix: (Units=GPa)
#
#
# Indices 1 2 3 4 5 6 
#
# 1 54.2538 23.3544 32.2062 0.0000 0.0000 0.0000
# 2 23.3544 94.1842 53.9240 0.0000 0.0000 0.0000
# 3 32.2062 53.9240 116.7195 0.0000 0.0000 0.0000
# 4 0.0000 0.0000 0.0000 22.9691 0.0000 0.0000
# 5 0.0000 0.0000 0.0000 0.0000 19.9250 0.0000
# 6 0.0000 0.0000 0.0000 0.0000 0.0000 7.9352
#
#
#
# Elastic Compliance Matrix: (Units=1/GPa)
#
#
# Indices 1 2 3 4 5 6 
#
# 1 0.022558 -0.002760 -0.004949 0.000000 0.000000 0.000000
# 2 -0.002760 0.014774 -0.006064 0.000000 0.000000 0.000000
# 3 -0.004949 -0.006064 0.012735 0.000000 0.000000 0.000000
# 4 0.000000 0.000000 0.000000 0.043537 0.000000 0.000000
# 5 0.000000 0.000000 0.000000 0.000000 0.050188 0.000000
# 6 0.000000 0.000000 0.000000 0.000000 0.000000 0.126021
#
#
# Mechanical properties :
#
#
# Convention : Reuss Voigt Hill
#
# Bulk Modulus (GPa) = 44.40470 53.79186 49.09828
# Shear Modulus (GPa) = 16.40071 20.54407 18.47239
#
# Velocity S-wave (km/s) = 3.27706 3.66772 3.47788
# Velocity P-wave (km/s) = 6.58748 7.29102 6.94816
#
# Compressibility (1/GPa) = 0.02252014
#
# Stress axis : x y z
#
# Youngs Moduli (GPa) = 44.33033 67.68825 78.52591
#
# Poissons Ratio (x) = 0.18681 0.38865
# Poissons Ratio (y) = 0.12235 0.47617
# Poissons Ratio (z) = 0.21940 0.41045
#
# Static dielectric constant tensor:
#      x y z
#    x 2.561610 0.000000 0.000000 
#    y 0.000000 3.048300 0.000000 
#    z 0.000000 0.000000 3.018210 
# 
# 
# High freq. dielectric constant tensor:
#      x y z
#    x 1.535310 0.000000 0.000000 
#    y 0.000000 1.578940 0.000000 
#    z 0.000000 0.000000 1.591850 
# 
# From -- ./inp_files/48902.got.cif
#   From: 2010.03.12/outbox.cif.g09.slc.cpg/sg66_25_cif.got.tgz:48902.got - 2010.04.10 21:57:39.
