data_PCOD8275807
_publ_section_title
;
Structure prediction by ZEFSAII (Michael W. Deem and Ramdas Pophale) SiO2 
 PCOD8275807
Probable space group: C C C M
;
_chemical_formula_sum "Si O2"
_cell_formula_units_Z 96
_cell_length_a 30.943270
_cell_length_b 18.581424
_cell_length_c 10.275561
_cell_angle_alpha 90.000000
_cell_angle_beta 90.000000
_cell_angle_gamma 90.000000
_cell_volume 5908.139512
_symmetry_space_group_name_H-M "C C C M"
_symmetry_group_IT_number 66
_symmetry_cell_setting 'orthorhombic'
loop_
_space_group_symop_operation_xyz
x,y,z
-x,-y,z
x,-y,1/2-z
-x,y,1/2-z
-x,-y,-z
x,y,-z
-x,y,1/2+z
x,-y,1/2+z
1/2+x,1/2+y,z
1/2-x,1/2-y,z
1/2+x,1/2-y,1/2-z
1/2-x,1/2+y,1/2-z
1/2-x,1/2-y,-z
1/2+x,1/2+y,-z
1/2-x,1/2+y,1/2+z
1/2+x,1/2-y,1/2+z
loop_
_atom_site_type_symbol
_atom_site_label
_atom_site_fract_x
_atom_site_fract_y
_atom_site_fract_z
Si Si1 0.624139 0.717081 0.847245
Si Si2 0.344647 0.437819 0.149556
Si Si3 0.536490 0.790274 0.152323
Si Si4 0.744566 0.058856 0.353524
Si Si5 0.791136 0.289149 0.651399
Si Si6 0.454399 0.041879 0.138604
O O1 0.627572 0.632555 0.813212
O O2 0.579443 0.750254 0.796620
O O3 0.664356 0.760929 0.783715
O O4 0.625725 0.729195 0.000000
O O5 0.358688 0.500000 0.250000
O O6 0.294306 0.417732 0.167093
O O7 0.353781 0.461969 0.000000
O O8 0.500000 0.760394 0.250000
O O9 0.540446 0.875273 0.175192
O O10 0.525954 0.773394 0.000000
O O11 0.738500 0.028697 0.500000
O O12 0.713103 0.125772 0.328760
O O13 0.730042 0.000000 0.250000
O O14 0.791625 0.267717 0.500000
O O15 0.750000 0.250000 0.717863
O O16 0.500000 0.000000 0.129136
O O17 0.426836 0.000000 0.250000
O O18 0.430100 0.035671 0.000000
#
# Coordination Sequence:
#
# PCOD8275807 Si02
#       6
#    16  16  16  16  16  16
#     4   9  17  29  47  72  95 119 159 199 230 271
#     4   9  16  28  47  71  94 118 151 192 230 273
#     4  10  19  31  48  69  93 122 156 196 235 273
#     4   9  16  26  45  68  93 125 157 189 228 273
#     4   9  14  25  46  70  94 121 155 195 231 266
#     4   9  15  25  43  64  85 113 151 187 221 263
#
# _framework density 16.248768999999999
#
# number of rings (size 3 to 8) (size 9 to 14) (size 15 to 20)
#    0.000    2.833    3.333    0.000    0.000    0.000 
#    0.000    1.667    0.000    3.000    0.000    3.500 
#    0.000    0.000    0.000    0.000    0.000    0.000 
#
# Total GULP energy -594720.542067 kJ/mol
# GULP energy per Si atom -12390.011293 kJ/mol
# Density = 1.621179 g / cm^3
# Si number density = 16.248769 Si / 1000 Ang^3
#
#
#
# Elastic Constant Matrix: (Units=GPa)
#
#
# Indices 1 2 3 4 5 6 
#
# 1 98.1491 59.8327 38.4878 0.0000 0.0000 0.0000
# 2 59.8327 96.5432 45.5265 0.0000 0.0000 0.0000
# 3 38.4878 45.5265 78.8589 0.0000 0.0000 0.0000
# 4 0.0000 0.0000 0.0000 23.1774 0.0000 0.0000
# 5 0.0000 0.0000 0.0000 0.0000 14.7722 0.0000
# 6 0.0000 0.0000 0.0000 0.0000 0.0000 21.5099
#
#
#
# Elastic Compliance Matrix: (Units=1/GPa)
#
#
# Indices 1 2 3 4 5 6 
#
# 1 0.016884 -0.009039 -0.003022 0.000000 0.000000 0.000000
# 2 -0.009039 0.019072 -0.006599 0.000000 0.000000 0.000000
# 3 -0.003022 -0.006599 0.017966 0.000000 0.000000 0.000000
# 4 0.000000 0.000000 0.000000 0.043146 0.000000 0.000000
# 5 0.000000 0.000000 0.000000 0.000000 0.067695 0.000000
# 6 0.000000 0.000000 0.000000 0.000000 0.000000 0.046490
#
#
# Mechanical properties :
#
#
# Convention : Reuss Voigt Hill
#
# Bulk Modulus (GPa) = 60.23559 62.36058 61.29808
# Shear Modulus (GPa) = 19.67696 20.53884 20.10790
#
# Velocity S-wave (km/s) = 3.48369 3.55917 3.52163
# Velocity P-wave (km/s) = 7.30293 7.43991 7.37174
#
# Compressibility (1/GPa) = 0.01660148
#
# Stress axis : x y z
#
# Youngs Moduli (GPa) = 59.22893 52.43422 55.66211
#
# Poissons Ratio (x) = 0.47393 0.16822
# Poissons Ratio (y) = 0.53534 0.36731
# Poissons Ratio (z) = 0.17900 0.34601
#
# Static dielectric constant tensor:
#      x y z
#    x 3.028310 0.000000 0.000000 
#    y 0.000000 3.027200 0.000000 
#    z 0.000000 0.000000 3.589430 
# 
# 
# High freq. dielectric constant tensor:
#      x y z
#    x 1.594280 0.000000 0.000000 
#    y 0.000000 1.623440 0.000000 
#    z 0.000000 0.000000 1.600940 
# 
# From -- ./inp_files/17965.got.cif
#   From: 2010.03.12/outbox.cif.g09.slc.cpg/sg66_9_cif.got.tgz:17965.got - 2010.04.10 21:57:39.
