data_PCOD8275874
_publ_section_title
;
Structure prediction by ZEFSAII (Michael W. Deem and Ramdas Pophale) SiO2 
 PCOD8275874
Probable space group: C C C M
;
_chemical_formula_sum "Si O2"
_cell_formula_units_Z 116
_cell_length_a 26.670540
_cell_length_b 26.677765
_cell_length_c 9.026145
_cell_angle_alpha 90.000000
_cell_angle_beta 90.000000
_cell_angle_gamma 90.000000
_cell_volume 6422.196026
_symmetry_space_group_name_H-M "C C C M"
_symmetry_group_IT_number 66
_symmetry_cell_setting 'orthorhombic'
loop_
_space_group_symop_operation_xyz
x,y,z
-x,-y,z
x,-y,1/2-z
-x,y,1/2-z
-x,-y,-z
x,y,-z
-x,y,1/2+z
x,-y,1/2+z
1/2+x,1/2+y,z
1/2-x,1/2-y,z
1/2+x,1/2-y,1/2-z
1/2-x,1/2+y,1/2-z
1/2-x,1/2-y,-z
1/2+x,1/2+y,-z
1/2-x,1/2+y,1/2+z
1/2+x,1/2-y,1/2+z
loop_
_atom_site_type_symbol
_atom_site_label
_atom_site_fract_x
_atom_site_fract_y
_atom_site_fract_z
Si Si1 0.579041 0.078932 0.334907
Si Si2 0.821017 0.291524 0.830724
Si Si3 0.500000 0.000000 0.750000
Si Si4 0.313835 0.049612 0.826510
Si Si5 0.920477 0.312469 0.325545
Si Si6 0.245281 0.143698 0.827041
Si Si7 0.655423 0.322852 0.833014
Si Si8 0.548670 0.712865 0.324608
O O1 0.596507 0.091670 0.500000
O O2 0.536098 0.036455 0.342715
O O3 0.630654 0.061172 0.255841
O O4 0.558540 0.132482 0.274110
O O5 0.862150 0.313616 0.718475
O O6 0.768334 0.311430 0.770107
O O7 0.820419 0.231930 0.825841
O O8 0.830545 0.309606 0.000000
O O9 0.274434 0.092958 0.788473
O O10 0.292508 0.000000 0.750000
O O11 0.317416 0.039469 0.000000
O O12 0.927042 0.301316 0.500000
O O13 0.948745 0.270026 0.232813
O O14 0.187046 0.140269 0.774193
O O15 0.247605 0.156492 0.000000
O O16 0.597606 0.319054 0.778037
O O17 0.657194 0.344060 0.000000
O O18 0.500000 0.687096 0.250000
O O19 0.543175 0.714944 0.500000
#
# Coordination Sequence:
#
# PCOD8275874 Si02
#       8
#    16  16   4  16  16  16  16  16
#     4  10  21  37  51  67  95 125 166 224 277 318
#     4  10  19  32  50  74 103 135 170 210 258 318
#     4  12  22  36  52  70  88 128 178 228 284 320
#     4  10  21  39  55  74 100 131 171 219 270 325
#     4  10  19  34  52  71  99 132 170 222 267 312
#     4  11  21  33  52  76 103 134 171 213 265 320
#     4   9  20  35  50  74 108 136 171 212 250 305
#     4  10  21  37  54  77 106 140 174 209 250 303
#
# _framework density 18.062358
#
# number of rings (size 3 to 8) (size 9 to 14) (size 15 to 20)
#    0.000    1.931    2.069    3.103    0.966    6.069 
#    0.000    2.069    0.000    0.000    0.000    0.000 
#    0.000    0.552    0.000    6.069    0.000    4.414 
#
# Total GULP energy -718847.854886 kJ/mol
# GULP energy per Si atom -12393.928533 kJ/mol
# Density = 1.802125 g / cm^3
# Si number density = 18.062358 Si / 1000 Ang^3
#
#
#
# Elastic Constant Matrix: (Units=GPa)
#
#
# Indices 1 2 3 4 5 6 
#
# 1 130.5970 44.9140 42.3743 0.0000 0.0000 0.0000
# 2 44.9140 46.9027 23.5581 0.0000 0.0000 0.0000
# 3 42.3743 23.5581 69.0791 0.0000 0.0000 0.0000
# 4 0.0000 0.0000 0.0000 23.0460 0.0000 0.0000
# 5 0.0000 0.0000 0.0000 0.0000 29.1092 0.0000
# 6 0.0000 0.0000 0.0000 0.0000 0.0000 25.2191
#
#
#
# Elastic Compliance Matrix: (Units=1/GPa)
#
#
# Indices 1 2 3 4 5 6 
#
# 1 0.012387 -0.009708 -0.004288 0.000000 0.000000 0.000000
# 2 -0.009708 0.033336 -0.005414 0.000000 0.000000 0.000000
# 3 -0.004288 -0.005414 0.018952 0.000000 0.000000 0.000000
# 4 0.000000 0.000000 0.000000 0.043391 0.000000 0.000000
# 5 0.000000 0.000000 0.000000 0.000000 0.034353 0.000000
# 6 0.000000 0.000000 0.000000 0.000000 0.000000 0.039653
#
#
# Mechanical properties :
#
#
# Convention : Reuss Voigt Hill
#
# Bulk Modulus (GPa) = 38.67412 52.03020 45.35216
# Shear Modulus (GPa) = 21.78539 24.52368 23.15454
#
# Velocity S-wave (km/s) = 3.47669 3.68873 3.58428
# Velocity P-wave (km/s) = 6.12980 6.85643 6.50327
#
# Compressibility (1/GPa) = 0.02585708
#
# Stress axis : x y z
#
# Youngs Moduli (GPa) = 80.72863 29.99715 52.76360
#
# Poissons Ratio (x) = 0.29122 0.22623
# Poissons Ratio (y) = 0.78374 0.28564
# Poissons Ratio (z) = 0.34614 0.16239
#
# Static dielectric constant tensor:
#      x y z
#    x 3.448920 0.000000 0.000000 
#    y 0.000000 3.057470 0.000000 
#    z 0.000000 0.000000 3.252380 
# 
# 
# High freq. dielectric constant tensor:
#      x y z
#    x 1.700790 0.000000 0.000000 
#    y 0.000000 1.658960 0.000000 
#    z 0.000000 0.000000 1.696990 
# 
# From -- ./inp_files/10631.got.cif
#   From: 2010.03.12/outbox.cif.g09.slc.cpg/sg66_6_cif.got.tgz:10631.got - 2010.04.10 21:57:39.
