data_PCOD8275543
_publ_section_title
;
Structure prediction by ZEFSAII (Michael W. Deem and Ramdas Pophale) SiO2 
 PCOD8275543
Probable space group: C C C M
;
_chemical_formula_sum "Si O2"
_cell_formula_units_Z 96
_cell_length_a 25.220177
_cell_length_b 25.346439
_cell_length_c 8.650009
_cell_angle_alpha 90.000000
_cell_angle_beta 90.000000
_cell_angle_gamma 90.000000
_cell_volume 5529.446267
_symmetry_space_group_name_H-M "C C C M"
_symmetry_group_IT_number 66
_symmetry_cell_setting 'orthorhombic'
loop_
_space_group_symop_operation_xyz
x,y,z
-x,-y,z
x,-y,1/2-z
-x,y,1/2-z
-x,-y,-z
x,y,-z
-x,y,1/2+z
x,-y,1/2+z
1/2+x,1/2+y,z
1/2-x,1/2-y,z
1/2+x,1/2-y,1/2-z
1/2-x,1/2+y,1/2-z
1/2-x,1/2-y,-z
1/2+x,1/2+y,-z
1/2-x,1/2+y,1/2+z
1/2+x,1/2-y,1/2+z
loop_
_atom_site_type_symbol
_atom_site_label
_atom_site_fract_x
_atom_site_fract_y
_atom_site_fract_z
Si Si1 0.441794 0.643107 0.816988
Si Si2 0.558803 0.249874 0.316498
Si Si3 0.865436 0.441759 0.680895
Si Si4 0.143279 0.941913 0.818385
Si Si5 0.748441 0.442865 0.678670
Si Si6 0.558275 0.143297 0.817586
O O1 0.500000 0.632699 0.750000
O O2 0.414827 0.696460 0.747900
O O3 0.405182 0.594625 0.764223
O O4 0.445612 0.648830 0.000000
O O5 0.500000 0.249430 0.250000
O O6 0.559403 0.249963 0.500000
O O7 0.585801 0.196207 0.253324
O O8 0.869256 0.500000 0.750000
O O9 0.880086 0.443534 0.500000
O O10 0.806276 0.416607 0.704330
O O11 0.906129 0.406199 0.773897
O O12 0.198541 0.914469 0.761439
O O13 0.134981 0.000000 0.750000
O O14 0.144995 0.946657 0.000000
O O15 0.752578 0.500000 0.750000
O O16 0.734320 0.447409 0.500000
O O17 0.500000 0.133894 0.750000
O O18 0.554040 0.149275 0.000000
#
# Coordination Sequence:
#
# PCOD8275543 Si02
#       6
#    16  16  16  16  16  16
#     4  10  20  33  49  72  99 130 164 202 244 290
#     4  10  18  31  51  72  95 126 163 203 240 285
#     4  10  20  34  51  75 102 130 164 201 242 290
#     4  10  20  32  49  72 100 130 164 202 243 290
#     4   9  17  30  50  71  95 126 163 202 239 283
#     4  11  21  34  52  74 101 132 163 200 242 288
#
# _framework density 17.361592999999999
#
# number of rings (size 3 to 8) (size 9 to 14) (size 15 to 20)
#    0.000    2.000    0.000    8.000    0.000    5.333 
#    0.000    3.333    0.000    1.000    0.000    7.000 
#    0.000    0.000    0.000    0.000    0.000    0.000 
#
# Total GULP energy -594882.464748 kJ/mol
# GULP energy per Si atom -12393.384682 kJ/mol
# Density = 1.732208 g / cm^3
# Si number density = 17.361593 Si / 1000 Ang^3
#
#
#
# Elastic Constant Matrix: (Units=GPa)
#
#
# Indices 1 2 3 4 5 6 
#
# 1 94.8736 57.9058 41.8013 0.0000 0.0000 0.0000
# 2 57.9058 105.3156 45.1256 0.0000 0.0000 0.0000
# 3 41.8013 45.1256 113.6616 0.0000 0.0000 0.0000
# 4 0.0000 0.0000 0.0000 20.1276 0.0000 0.0000
# 5 0.0000 0.0000 0.0000 0.0000 49.8153 0.0000
# 6 0.0000 0.0000 0.0000 0.0000 0.0000 8.4273
#
#
#
# Elastic Compliance Matrix: (Units=1/GPa)
#
#
# Indices 1 2 3 4 5 6 
#
# 1 0.016674 -0.007881 -0.003003 0.000000 0.000000 0.000000
# 2 -0.007881 0.015167 -0.003123 0.000000 0.000000 0.000000
# 3 -0.003003 -0.003123 0.011142 0.000000 0.000000 0.000000
# 4 0.000000 0.000000 0.000000 0.049683 0.000000 0.000000
# 5 0.000000 0.000000 0.000000 0.000000 0.020074 0.000000
# 6 0.000000 0.000000 0.000000 0.000000 0.000000 0.118661
#
#
# Mechanical properties :
#
#
# Convention : Reuss Voigt Hill
#
# Bulk Modulus (GPa) = 66.80746 67.05735 66.93241
# Shear Modulus (GPa) = 18.91040 26.94193 22.92616
#
# Velocity S-wave (km/s) = 3.30390 3.94358 3.63782
# Velocity P-wave (km/s) = 7.28820 7.70996 7.50205
#
# Compressibility (1/GPa) = 0.01496839
#
# Stress axis : x y z
#
# Youngs Moduli (GPa) = 59.97506 65.93452 89.74695
#
# Poissons Ratio (x) = 0.51962 0.26953
# Poissons Ratio (y) = 0.47265 0.28028
# Poissons Ratio (z) = 0.18012 0.20592
#
# Static dielectric constant tensor:
#      x y z
#    x 3.564420 0.000000 0.000000 
#    y 0.000000 3.709340 0.000000 
#    z 0.000000 0.000000 3.424180 
# 
# 
# High freq. dielectric constant tensor:
#      x y z
#    x 1.654860 0.000000 0.000000 
#    y 0.000000 1.656880 0.000000 
#    z 0.000000 0.000000 1.694910 
# 
# From -- ./inp_files/9104.got.cif
#   From: 2010.03.12/outbox.cif.g09.slc.cpg/sg66_5_cif.got.tgz:9104.got - 2010.04.10 21:57:39.
