data_PCOD8275720
_publ_section_title
;
Structure prediction by ZEFSAII (Michael W. Deem and Ramdas Pophale) SiO2 
 PCOD8275720
Probable space group: C C C M
;
_chemical_formula_sum "Si O2"
_cell_formula_units_Z 96
_cell_length_a 30.724939
_cell_length_b 27.811696
_cell_length_c 8.772255
_cell_angle_alpha 90.000000
_cell_angle_beta 90.000000
_cell_angle_gamma 90.000000
_cell_volume 7496.002981
_symmetry_space_group_name_H-M "C C C M"
_symmetry_group_IT_number 66
_symmetry_cell_setting 'orthorhombic'
loop_
_space_group_symop_operation_xyz
x,y,z
-x,-y,z
x,-y,1/2-z
-x,y,1/2-z
-x,-y,-z
x,y,-z
-x,y,1/2+z
x,-y,1/2+z
1/2+x,1/2+y,z
1/2-x,1/2-y,z
1/2+x,1/2-y,1/2-z
1/2-x,1/2+y,1/2-z
1/2-x,1/2-y,-z
1/2+x,1/2+y,-z
1/2-x,1/2+y,1/2+z
1/2+x,1/2-y,1/2+z
loop_
_atom_site_type_symbol
_atom_site_label
_atom_site_fract_x
_atom_site_fract_y
_atom_site_fract_z
Si Si1 0.374917 0.396228 0.180378
Si Si2 0.046591 0.948958 0.817781
Si Si3 0.793387 0.050970 0.818005
Si Si4 0.335190 0.308221 0.330836
Si Si5 0.257204 0.140949 0.332144
Si Si6 0.796380 0.724117 0.169734
O O1 0.419882 0.408635 0.263117
O O2 0.338311 0.432188 0.243191
O O3 0.364636 0.340795 0.220301
O O4 0.378893 0.402517 0.000000
O O5 0.000000 0.934524 0.750000
O O6 0.061895 0.000000 0.750000
O O7 0.044423 0.951890 0.000000
O O8 0.754215 0.087431 0.771881
O O9 0.779698 0.000000 0.750000
O O10 0.799679 0.049427 0.000000
O O11 0.355837 0.306923 0.500000
O O12 0.287487 0.330145 0.338632
O O13 0.331560 0.253808 0.268188
O O14 0.277954 0.138108 0.500000
O O15 0.291682 0.169121 0.227342
O O16 0.750000 0.750000 0.175853
O O17 0.814799 0.721982 0.000000
#
# Coordination Sequence:
#
# PCOD8275720 Si02
#       6
#    16  16  16  16  16  16
#     4  11  20  30  42  56  72  89 110 138 172 209
#     4  11  21  34  47  59  72  88 111 138 171 209
#     4  10  19  29  39  52  69  90 115 143 175 208
#     4   9  16  26  38  52  69  88 108 132 164 201
#     4   8  15  25  35  47  65  88 111 135 165 200
#     4   9  15  22  34  51  68  86 108 133 161 196
#
# _framework density 12.806825
#
# number of rings (size 3 to 8) (size 9 to 14) (size 15 to 20)
#    0.000    2.333    0.000    6.500    0.000    6.667 
#    0.000    0.000    0.000    0.000    0.000    0.000 
#    0.000    0.000    0.000    0.000    0.000    0.000 
#
# Total GULP energy -595010.737339 kJ/mol
# GULP energy per Si atom -12396.057028 kJ/mol
# Density = 1.277768 g / cm^3
# Si number density = 12.806825 Si / 1000 Ang^3
#
#
#
# Elastic Constant Matrix: (Units=GPa)
#
#
# Indices 1 2 3 4 5 6 
#
# 1 28.8799 35.8260 22.3361 0.0000 0.0000 0.0000
# 2 35.8260 88.4222 42.6005 0.0000 0.0000 0.0000
# 3 22.3361 42.6005 102.9599 0.0000 0.0000 0.0000
# 4 0.0000 0.0000 0.0000 21.8921 0.0000 0.0000
# 5 0.0000 0.0000 0.0000 0.0000 15.3276 0.0000
# 6 0.0000 0.0000 0.0000 0.0000 0.0000 14.9106
#
#
#
# Elastic Compliance Matrix: (Units=1/GPa)
#
#
# Indices 1 2 3 4 5 6 
#
# 1 0.071166 -0.026723 -0.004382 0.000000 0.000000 0.000000
# 2 -0.026723 0.024160 -0.004199 0.000000 0.000000 0.000000
# 3 -0.004382 -0.004199 0.012400 0.000000 0.000000 0.000000
# 4 0.000000 0.000000 0.000000 0.045679 0.000000 0.000000
# 5 0.000000 0.000000 0.000000 0.000000 0.065242 0.000000
# 6 0.000000 0.000000 0.000000 0.000000 0.000000 0.067066
#
#
# Mechanical properties :
#
#
# Convention : Reuss Voigt Hill
#
# Bulk Modulus (GPa) = 26.94101 46.86524 36.90312
# Shear Modulus (GPa) = 13.56141 18.39268 15.97704
#
# Velocity S-wave (km/s) = 3.25764 3.79378 3.53589
# Velocity P-wave (km/s) = 5.93563 7.47421 6.74891
#
# Compressibility (1/GPa) = 0.03711814
#
# Stress axis : x y z
#
# Youngs Moduli (GPa) = 14.05172 41.39112 80.64209
#
# Poissons Ratio (x) = 1.10610 0.35336
# Poissons Ratio (y) = 0.37551 0.33861
# Poissons Ratio (z) = 0.06157 0.17380
#
# Static dielectric constant tensor:
#      x y z
#    x 2.234430 0.000000 0.000000 
#    y 0.000000 2.717950 0.000000 
#    z 0.000000 0.000000 2.805320 
# 
# 
# High freq. dielectric constant tensor:
#      x y z
#    x 1.424360 0.000000 0.000000 
#    y 0.000000 1.477650 0.000000 
#    z 0.000000 0.000000 1.508450 
# 
# From -- ./inp_files/10642.got.cif
#   From: 2010.03.12/outbox.cif.g09.slc.cpg/sg66_6_cif.got.tgz:10642.got - 2010.04.10 21:57:39.
