data_PCOD8275307
_publ_section_title
;
Structure prediction by ZEFSAII (Michael W. Deem and Ramdas Pophale) SiO2 
 PCOD8275307
Probable space group: C C C M
;
_chemical_formula_sum "Si O2"
_cell_formula_units_Z 96
_cell_length_a 19.671170
_cell_length_b 30.530964
_cell_length_c 8.823376
_cell_angle_alpha 90.000000
_cell_angle_beta 90.000000
_cell_angle_gamma 90.000000
_cell_volume 5299.141244
_symmetry_space_group_name_H-M "C C C M"
_symmetry_group_IT_number 66
_symmetry_cell_setting 'orthorhombic'
loop_
_space_group_symop_operation_xyz
x,y,z
-x,-y,z
x,-y,1/2-z
-x,y,1/2-z
-x,-y,-z
x,y,-z
-x,y,1/2+z
x,-y,1/2+z
1/2+x,1/2+y,z
1/2-x,1/2-y,z
1/2+x,1/2-y,1/2-z
1/2-x,1/2+y,1/2-z
1/2-x,1/2-y,-z
1/2+x,1/2+y,-z
1/2-x,1/2+y,1/2+z
1/2+x,1/2-y,1/2+z
loop_
_atom_site_type_symbol
_atom_site_label
_atom_site_fract_x
_atom_site_fract_y
_atom_site_fract_z
Si Si1 0.570405 0.700448 0.679250
Si Si2 0.181075 0.458875 0.823471
Si Si3 0.171872 0.362659 0.828135
Si Si4 0.330935 0.367407 0.177582
Si Si5 0.827671 0.043650 0.820765
Si Si6 0.068869 0.300392 0.323693
O O1 0.500000 0.683188 0.750000
O O2 0.567920 0.694460 0.500000
O O3 0.632477 0.673674 0.747730
O O4 0.582818 0.750698 0.728588
O O5 0.138686 0.500000 0.750000
O O6 0.142937 0.412327 0.805494
O O7 0.249041 0.456737 0.724701
O O8 0.198695 0.467066 0.000000
O O9 0.251277 0.361693 0.787724
O O10 0.132948 0.329911 0.718901
O O11 0.159819 0.347227 0.000000
O O12 0.360195 0.412138 0.251297
O O13 0.345643 0.369125 0.000000
O O14 0.863060 0.000000 0.750000
O O15 0.837364 0.043703 0.000000
O O16 0.057366 0.302845 0.500000
O O17 0.000000 0.318966 0.250000
#
# Coordination Sequence:
#
# PCOD8275307 Si02
#       6
#    16  16  16  16  16  16
#     4  10  21  37  55  76 100 132 171 210 252 304
#     4   9  16  27  44  69 100 134 168 205 248 298
#     4   9  19  33  50  75 106 135 168 208 254 300
#     4  10  20  34  52  77 106 136 169 210 255 299
#     4  10  17  27  45  70 101 135 169 207 248 296
#     4  10  21  36  55  75  99 132 171 210 253 305
#
# _framework density 18.116142
#
# number of rings (size 3 to 8) (size 9 to 14) (size 15 to 20)
#    0.000    2.333    0.000    5.500    0.000    6.667 
#    0.000    3.333    0.000    1.000    0.000    7.000 
#    0.000    0.000    0.000    0.000    0.000    0.000 
#
# Total GULP energy -595019.661501 kJ/mol
# GULP energy per Si atom -12396.242948 kJ/mol
# Density = 1.807491 g / cm^3
# Si number density = 18.116142 Si / 1000 Ang^3
#
#
#
# Elastic Constant Matrix: (Units=GPa)
#
#
# Indices 1 2 3 4 5 6 
#
# 1 48.2373 47.0322 31.2223 0.0000 0.0000 0.0000
# 2 47.0322 119.8556 55.5589 0.0000 0.0000 0.0000
# 3 31.2223 55.5589 106.0066 0.0000 0.0000 0.0000
# 4 0.0000 0.0000 0.0000 37.1134 0.0000 0.0000
# 5 0.0000 0.0000 0.0000 0.0000 27.7028 0.0000
# 6 0.0000 0.0000 0.0000 0.0000 0.0000 2.9584
#
#
#
# Elastic Compliance Matrix: (Units=1/GPa)
#
#
# Indices 1 2 3 4 5 6 
#
# 1 0.034873 -0.011787 -0.004094 0.000000 0.000000 0.000000
# 2 -0.011787 0.015005 -0.004393 0.000000 0.000000 0.000000
# 3 -0.004094 -0.004393 0.012941 0.000000 0.000000 0.000000
# 4 0.000000 0.000000 0.000000 0.026944 0.000000 0.000000
# 5 0.000000 0.000000 0.000000 0.000000 0.036097 0.000000
# 6 0.000000 0.000000 0.000000 0.000000 0.000000 0.338022
#
#
# Mechanical properties :
#
#
# Convention : Reuss Voigt Hill
#
# Bulk Modulus (GPa) = 44.89751 60.19181 52.54466
# Shear Modulus (GPa) = 9.76845 22.90733 16.33789
#
# Velocity S-wave (km/s) = 2.32461 3.55980 3.00633
# Velocity P-wave (km/s) = 5.66057 7.08476 6.41233
#
# Compressibility (1/GPa) = 0.02227295
#
# Stress axis : x y z
#
# Youngs Moduli (GPa) = 28.67569 66.64573 77.27236
#
# Poissons Ratio (x) = 0.78553 0.31632
# Poissons Ratio (y) = 0.33799 0.33942
# Poissons Ratio (z) = 0.11739 0.29274
#
# Static dielectric constant tensor:
#      x y z
#    x 2.903290 0.000000 0.000000 
#    y 0.000000 3.973570 0.000000 
#    z 0.000000 0.000000 3.437710 
# 
# 
# High freq. dielectric constant tensor:
#      x y z
#    x 1.648320 0.000000 0.000000 
#    y 0.000000 1.721070 0.000000 
#    z 0.000000 0.000000 1.717850 
# 
# From -- ./inp_files/7955.got.cif
#   From: 2010.03.12/outbox.cif.g09.slc.cpg/sg66_4_cif.got.tgz:7955.got - 2010.04.10 21:57:39.
