data_PCOD8275160
_publ_section_title
;
Structure prediction by ZEFSAII (Michael W. Deem and Ramdas Pophale) SiO2 
 PCOD8275160
Probable space group: C M M M
;
_chemical_formula_sum "Si O2"
_cell_formula_units_Z 80
_cell_length_a 27.193662
_cell_length_b 8.869787
_cell_length_c 17.182527
_cell_angle_alpha 90.000000
_cell_angle_beta 90.000000
_cell_angle_gamma 90.000000
_cell_volume 4144.459700
_symmetry_space_group_name_H-M "C M M M"
_symmetry_group_IT_number 65
_symmetry_cell_setting 'orthorhombic'
loop_
_space_group_symop_operation_xyz
x,y,z
-x,-y,z
x,-y,-z
-x,y,-z
-x,-y,-z
x,y,-z
-x,y,z
x,-y,z
1/2+x,1/2+y,z
1/2-x,1/2-y,z
1/2+x,1/2-y,-z
1/2-x,1/2+y,-z
1/2-x,1/2-y,-z
1/2+x,1/2+y,-z
1/2-x,1/2+y,z
1/2+x,1/2-y,z
loop_
_atom_site_type_symbol
_atom_site_label
_atom_site_fract_x
_atom_site_fract_y
_atom_site_fract_z
Si Si1 0.202896 0.168509 0.156241
Si Si2 0.943042 0.668146 0.000000
Si Si3 0.000000 0.679056 0.411935
Si Si4 0.200673 0.169060 0.659384
Si Si5 0.901438 0.320153 0.325546
Si Si6 0.895088 0.677639 0.848796
O O1 0.250000 0.250000 0.120052
O O2 0.206361 0.162320 0.248685
O O3 0.159357 0.274960 0.128737
O O4 0.197311 0.000000 0.122299
O O5 0.927470 0.748881 0.919035
O O6 0.919554 0.500000 0.000000
O O7 0.000000 0.658871 0.000000
O O8 0.949798 0.738139 0.371378
O O9 0.000000 0.500000 0.408485
O O10 0.000000 0.739211 0.500000
O O11 0.250000 0.250000 0.624886
O O12 0.149323 0.253926 0.637991
O O13 0.198287 0.000000 0.624607
O O14 0.896409 0.500000 0.329070
O O15 0.909253 0.260127 0.236875
O O16 0.901269 0.500000 0.845200
#
# Coordination Sequence:
#
# PCOD8275160 Si02
#       6
#    16   8   8  16  16  16
#     4   9  16  27  45  68  95 125 158 196 239 284
#     4   9  18  30  46  67  92 121 156 203 246 277
#     4   9  18  32  51  76 104 132 163 201 243 287
#     4   9  16  27  46  73 103 131 162 202 246 291
#     4   9  17  29  49  74  99 130 167 203 240 288
#     4   9  17  29  46  69  95 123 159 198 237 281
#
# _framework density 19.302876999999999
#
# number of rings (size 3 to 8) (size 9 to 14) (size 15 to 20)
#    0.000    3.000    0.000    1.200    1.400    4.800 
#    0.000    1.500    0.000    3.000    0.000    0.000 
#    0.000    0.000    0.000    0.000    0.000    0.000 
#
# Total GULP energy -495556.616274 kJ/mol
# GULP energy per Si atom -12388.915407 kJ/mol
# Density = 1.925894 g / cm^3
# Si number density = 19.302877 Si / 1000 Ang^3
#
#
#
# Elastic Constant Matrix: (Units=GPa)
#
#
# Indices 1 2 3 4 5 6 
#
# 1 158.3649 23.9631 64.2047 0.0000 0.0000 0.0000
# 2 23.9631 33.5535 15.9115 0.0000 0.0000 0.0000
# 3 64.2047 15.9115 82.7668 0.0000 0.0000 0.0000
# 4 0.0000 0.0000 0.0000 8.3265 0.0000 0.0000
# 5 0.0000 0.0000 0.0000 0.0000 1.3934 0.0000
# 6 0.0000 0.0000 0.0000 0.0000 0.0000 26.2462
#
#
#
# Elastic Compliance Matrix: (Units=1/GPa)
#
#
# Indices 1 2 3 4 5 6 
#
# 1 0.009603 -0.003659 -0.006746 0.000000 0.000000 0.000000
# 2 -0.003659 0.034187 -0.003734 0.000000 0.000000 0.000000
# 3 -0.006746 -0.003734 0.018033 0.000000 0.000000 0.000000
# 4 0.000000 0.000000 0.000000 0.120098 0.000000 0.000000
# 5 0.000000 0.000000 0.000000 0.000000 0.717695 0.000000
# 6 0.000000 0.000000 0.000000 0.000000 0.000000 0.038101
#
#
# Mechanical properties :
#
#
# Convention : Reuss Voigt Hill
#
# Bulk Modulus (GPa) = 29.81038 53.64930 41.72984
# Shear Modulus (GPa) = 5.11678 18.56693 11.84186
#
# Velocity S-wave (km/s) = 1.62989 3.10477 2.47953
# Velocity P-wave (km/s) = 4.36109 6.38017 5.46469
#
# Compressibility (1/GPa) = 0.03354536
#
# Stress axis : x y z
#
# Youngs Moduli (GPa) = 104.13152 29.25077 55.45386
#
# Poissons Ratio (x) = 0.10704 0.37409
# Poissons Ratio (y) = 0.38106 0.20704
# Poissons Ratio (z) = 0.70247 0.10921
#
# Static dielectric constant tensor:
#      x y z
#    x 3.774580 0.000000 0.000000 
#    y 0.000000 3.481150 0.000000 
#    z 0.000000 0.000000 3.422460 
# 
# 
# High freq. dielectric constant tensor:
#      x y z
#    x 1.762000 0.000000 0.000000 
#    y 0.000000 1.720720 0.000000 
#    z 0.000000 0.000000 1.716800 
# 
# From -- ./inp_files/57304.got.cif
#   From: 2010.03.12/outbox.cif.g09.slc.cpg/sg65_29_cif.got.tgz:57304.got - 2010.04.10 20:52:16.
