data_PCOD8275131
_publ_section_title
;
Structure prediction by ZEFSAII (Michael W. Deem and Ramdas Pophale) SiO2 
 PCOD8275131
Probable space group: C M M M
;
_chemical_formula_sum "Si O2"
_cell_formula_units_Z 88
_cell_length_a 28.050901
_cell_length_b 18.383655
_cell_length_c 9.247039
_cell_angle_alpha 90.000000
_cell_angle_beta 90.000000
_cell_angle_gamma 90.000000
_cell_volume 4768.495377
_symmetry_space_group_name_H-M "C M M M"
_symmetry_group_IT_number 65
_symmetry_cell_setting 'orthorhombic'
loop_
_space_group_symop_operation_xyz
x,y,z
-x,-y,z
x,-y,-z
-x,y,-z
-x,-y,-z
x,y,-z
-x,y,z
x,-y,z
1/2+x,1/2+y,z
1/2-x,1/2-y,z
1/2+x,1/2-y,-z
1/2-x,1/2+y,-z
1/2-x,1/2-y,-z
1/2+x,1/2+y,-z
1/2-x,1/2+y,z
1/2+x,1/2-y,z
loop_
_atom_site_type_symbol
_atom_site_label
_atom_site_fract_x
_atom_site_fract_y
_atom_site_fract_z
Si Si1 0.444822 0.865654 0.659426
Si Si2 0.942891 0.500000 0.837996
Si Si3 0.346583 0.312213 0.833770
Si Si4 0.737034 0.416503 0.170161
Si Si5 0.947843 0.220990 0.165093
Si Si6 0.294305 0.196470 0.663277
O O1 0.420870 0.864319 0.500000
O O2 0.500000 0.883893 0.642339
O O3 0.437512 0.788867 0.734148
O O4 0.421820 0.929371 0.756111
O O5 0.000000 0.500000 0.843067
O O6 0.922140 0.500000 0.000000
O O7 0.313554 0.379606 0.784960
O O8 0.402839 0.333726 0.812316
O O9 0.337115 0.238525 0.743092
O O10 0.335463 0.293327 0.000000
O O11 0.734623 0.500000 0.219923
O O12 0.780506 0.377426 0.252922
O O13 0.746267 0.409430 0.000000
O O14 0.000000 0.185326 0.202568
O O15 0.948717 0.248702 0.000000
O O16 0.309691 0.176971 0.500000
O O17 0.250000 0.250000 0.665602
#
# Coordination Sequence:
#
# PCOD8275131 Si02
#       6
#    16   8  16  16  16  16
#     4   9  16  25  38  57  80 107 143 189 237 279
#     4   9  15  23  37  55  75 101 135 177 227 281
#     4   9  17  30  49  71  97 130 165 199 237 284
#     4   9  17  30  50  75 101 129 160 194 235 288
#     4   9  17  29  45  65  90 123 164 205 240 276
#     4   9  17  29  47  72  99 125 154 192 240 291
#
# _framework density 18.454457999999999
#
# number of rings (size 3 to 8) (size 9 to 14) (size 15 to 20)
#    0.000    3.000    0.000    1.364    0.000    6.545 
#    0.000    0.000    2.000    0.545    0.000    3.818 
#    0.000    0.000    0.000   13.636    0.000   14.182 
#
# Total GULP energy -545202.693064 kJ/mol
# GULP energy per Si atom -12390.970297 kJ/mol
# Density = 1.841245 g / cm^3
# Si number density = 18.454458 Si / 1000 Ang^3
#
#
#
# Elastic Constant Matrix: (Units=GPa)
#
#
# Indices 1 2 3 4 5 6 
#
# 1 87.0856 31.3909 18.9909 0.0000 0.0000 0.0000
# 2 31.3909 87.2832 32.9177 0.0000 0.0000 0.0000
# 3 18.9909 32.9177 86.3253 0.0000 0.0000 0.0000
# 4 0.0000 0.0000 0.0000 13.0968 0.0000 0.0000
# 5 0.0000 0.0000 0.0000 0.0000 9.7865 0.0000
# 6 0.0000 0.0000 0.0000 0.0000 0.0000 15.1838
#
#
#
# Elastic Compliance Matrix: (Units=1/GPa)
#
#
# Indices 1 2 3 4 5 6 
#
# 1 0.013315 -0.004303 -0.001288 0.000000 0.000000 0.000000
# 2 -0.004303 0.014772 -0.004686 0.000000 0.000000 0.000000
# 3 -0.001288 -0.004686 0.013654 0.000000 0.000000 0.000000
# 4 0.000000 0.000000 0.000000 0.076355 0.000000 0.000000
# 5 0.000000 0.000000 0.000000 0.000000 0.102181 0.000000
# 6 0.000000 0.000000 0.000000 0.000000 0.000000 0.065860
#
#
# Mechanical properties :
#
#
# Convention : Reuss Voigt Hill
#
# Bulk Modulus (GPa) = 47.20018 47.47703 47.33861
# Shear Modulus (GPa) = 15.93609 19.43974 17.68791
#
# Velocity S-wave (km/s) = 2.94179 3.24912 3.09926
# Velocity P-wave (km/s) = 6.09679 6.31333 6.20601
#
# Compressibility (1/GPa) = 0.02118636
#
# Stress axis : x y z
#
# Youngs Moduli (GPa) = 75.10387 67.69678 73.23595
#
# Poissons Ratio (x) = 0.29128 0.09436
# Poissons Ratio (y) = 0.32315 0.34320
# Poissons Ratio (z) = 0.09677 0.31724
#
# Static dielectric constant tensor:
#      x y z
#    x 3.389250 0.000000 0.000000 
#    y 0.000000 3.117110 0.000000 
#    z 0.000000 0.000000 3.574540 
# 
# 
# High freq. dielectric constant tensor:
#      x y z
#    x 1.702450 0.000000 0.000000 
#    y 0.000000 1.675280 0.000000 
#    z 0.000000 0.000000 1.721510 
# 
# From -- ./inp_files/18343.got.cif
#   From: 2010.03.12/outbox.cif.g09.slc.cpg/sg65_10_cif.got.tgz:18343.got - 2010.04.10 20:52:16.
