data_PCOD8275800
_publ_section_title
;
Structure prediction by ZEFSAII (Michael W. Deem and Ramdas Pophale) SiO2 
 PCOD8275800
Probable space group: C C C M
;
_chemical_formula_sum "Si O2"
_cell_formula_units_Z 80
_cell_length_a 14.711455
_cell_length_b 32.542539
_cell_length_c 9.139488
_cell_angle_alpha 90.000000
_cell_angle_beta 90.000000
_cell_angle_gamma 90.000000
_cell_volume 4375.512497
_symmetry_space_group_name_H-M "C C C M"
_symmetry_group_IT_number 66
_symmetry_cell_setting 'orthorhombic'
loop_
_space_group_symop_operation_xyz
x,y,z
-x,-y,z
x,-y,1/2-z
-x,y,1/2-z
-x,-y,-z
x,y,-z
-x,y,1/2+z
x,-y,1/2+z
1/2+x,1/2+y,z
1/2-x,1/2-y,z
1/2+x,1/2-y,1/2-z
1/2-x,1/2+y,1/2-z
1/2-x,1/2-y,-z
1/2+x,1/2+y,-z
1/2-x,1/2+y,1/2+z
1/2+x,1/2-y,1/2+z
loop_
_atom_site_type_symbol
_atom_site_label
_atom_site_fract_x
_atom_site_fract_y
_atom_site_fract_z
Si Si1 0.085914 0.861018 0.328375
Si Si2 0.165106 0.304980 0.662131
Si Si3 0.406298 0.958051 0.325896
Si Si4 0.213913 0.619062 0.670154
Si Si5 0.625264 0.716994 0.335685
O O1 0.074389 0.866009 0.500000
O O2 0.181496 0.880459 0.272431
O O3 0.079826 0.812972 0.282788
O O4 0.000000 0.883634 0.250000
O O5 0.132642 0.317363 0.500000
O O6 0.151194 0.344858 0.762972
O O7 0.269015 0.292313 0.660821
O O8 0.108890 0.264509 0.714673
O O9 0.500000 0.943933 0.250000
O O10 0.420594 0.963995 0.500000
O O11 0.329344 0.924646 0.290940
O O12 0.372725 0.000000 0.250000
O O13 0.214557 0.628057 0.500000
O O14 0.585940 0.709534 0.500000
#
# Coordination Sequence:
#
# PCOD8275800 Si02
#       5
#    16  16  16  16  16
#     4  10  19  31  47  69  97 133 173 211 245 283
#     4   8  14  25  44  67  92 123 162 203 243 284
#     4  10  20  36  57  81 104 126 153 190 238 297
#     4   9  19  33  50  73 102 131 162 201 246 292
#     4   8  14  26  42  63  91 125 164 206 245 282
#
# _framework density 18.283571999999999
#
# number of rings (size 3 to 8) (size 9 to 14) (size 15 to 20)
#    0.000    3.000    0.000    3.000    0.000    3.200 
#    0.000    5.000    0.000    3.000    0.000    4.200 
#    0.000    0.000    0.000    0.000    0.000    0.000 
#
# Total GULP energy -495590.714918 kJ/mol
# GULP energy per Si atom -12389.767873 kJ/mol
# Density = 1.824196 g / cm^3
# Si number density = 18.283572 Si / 1000 Ang^3
#
#
#
# Elastic Constant Matrix: (Units=GPa)
#
#
# Indices 1 2 3 4 5 6 
#
# 1 78.0444 55.9056 36.3055 0.0000 0.0000 0.0000
# 2 55.9056 108.8148 47.4939 0.0000 0.0000 0.0000
# 3 36.3055 47.4939 73.1163 0.0000 0.0000 0.0000
# 4 0.0000 0.0000 0.0000 26.0603 0.0000 0.0000
# 5 0.0000 0.0000 0.0000 0.0000 19.9769 0.0000
# 6 0.0000 0.0000 0.0000 0.0000 0.0000 17.1424
#
#
#
# Elastic Compliance Matrix: (Units=1/GPa)
#
#
# Indices 1 2 3 4 5 6 
#
# 1 0.021452 -0.008893 -0.004875 0.000000 0.000000 0.000000
# 2 -0.008893 0.016513 -0.006311 0.000000 0.000000 0.000000
# 3 -0.004875 -0.006311 0.020197 0.000000 0.000000 0.000000
# 4 0.000000 0.000000 0.000000 0.038373 0.000000 0.000000
# 5 0.000000 0.000000 0.000000 0.000000 0.050058 0.000000
# 6 0.000000 0.000000 0.000000 0.000000 0.000000 0.058335
#
#
# Mechanical properties :
#
#
# Convention : Reuss Voigt Hill
#
# Bulk Modulus (GPa) = 55.54346 59.93173 57.73760
# Shear Modulus (GPa) = 19.91352 20.65395 20.28374
#
# Velocity S-wave (km/s) = 3.30380 3.36467 3.33437
# Velocity P-wave (km/s) = 6.70808 6.92422 6.81701
#
# Compressibility (1/GPa) = 0.01800392
#
# Stress axis : x y z
#
# Youngs Moduli (GPa) = 46.61666 60.55664 49.51343
#
# Poissons Ratio (x) = 0.53856 0.24137
# Poissons Ratio (y) = 0.41458 0.31246
# Poissons Ratio (z) = 0.22724 0.38215
#
# Static dielectric constant tensor:
#      x y z
#    x 3.539040 0.000000 0.000000 
#    y 0.000000 3.403430 0.000000 
#    z 0.000000 0.000000 3.440380 
# 
# 
# High freq. dielectric constant tensor:
#      x y z
#    x 1.698970 0.000000 0.000000 
#    y 0.000000 1.684060 0.000000 
#    z 0.000000 0.000000 1.709060 
# 
# From -- ./inp_files/6901.got.cif
#   From: 2010.03.12/outbox.cif.g09.slc.cpg/sg66_4_cif.got.tgz:6901.got - 2010.04.10 21:57:39.
