data_PCOD8275284
_publ_section_title
;
Structure prediction by ZEFSAII (Michael W. Deem and Ramdas Pophale) SiO2 
 PCOD8275284
Probable space group: C C C M
;
_chemical_formula_sum "Si O2"
_cell_formula_units_Z 96
_cell_length_a 27.748776
_cell_length_b 31.481425
_cell_length_c 8.944268
_cell_angle_alpha 90.000000
_cell_angle_beta 90.000000
_cell_angle_gamma 90.000000
_cell_volume 7813.453235
_symmetry_space_group_name_H-M "C C C M"
_symmetry_group_IT_number 66
_symmetry_cell_setting 'orthorhombic'
loop_
_space_group_symop_operation_xyz
x,y,z
-x,-y,z
x,-y,1/2-z
-x,y,1/2-z
-x,-y,-z
x,y,-z
-x,y,1/2+z
x,-y,1/2+z
1/2+x,1/2+y,z
1/2-x,1/2-y,z
1/2+x,1/2-y,1/2-z
1/2-x,1/2+y,1/2-z
1/2-x,1/2-y,-z
1/2+x,1/2+y,-z
1/2-x,1/2+y,1/2+z
1/2+x,1/2-y,1/2+z
loop_
_atom_site_type_symbol
_atom_site_label
_atom_site_fract_x
_atom_site_fract_y
_atom_site_fract_z
Si Si1 0.210502 0.957117 0.324881
Si Si2 0.448891 0.370583 0.177826
Si Si3 0.134962 0.174789 0.668128
Si Si4 0.720665 0.708490 0.823373
Si Si5 0.726549 0.626114 0.667816
Si Si6 0.098424 0.042381 0.174017
O O1 0.220719 0.958587 0.500000
O O2 0.238909 0.917304 0.254090
O O3 0.154365 0.951838 0.286542
O O4 0.230718 0.000000 0.250000
O O5 0.500000 0.360964 0.250000
O O6 0.412817 0.334510 0.237643
O O7 0.430967 0.416854 0.232216
O O8 0.451458 0.367492 0.000000
O O9 0.121424 0.189555 0.500000
O O10 0.166811 0.211320 0.751376
O O11 0.168351 0.132391 0.662417
O O12 0.750000 0.750000 0.775939
O O13 0.748458 0.666910 0.756723
O O14 0.716056 0.703593 0.000000
O O15 0.747993 0.624196 0.500000
O O16 0.077315 0.000000 0.250000
O O17 0.090711 0.036620 0.000000
#
# Coordination Sequence:
#
# PCOD8275284 Si02
#       6
#    16  16  16  16  16  16
#     4  10  17  26  39  53  69  90 117 146 182 220
#     4  11  21  32  42  52  66  87 115 144 180 219
#     4   9  18  29  42  56  72  90 111 140 174 212
#     4   9  16  26  42  61  78  95 112 134 173 220
#     4   9  17  26  39  55  73  92 113 141 175 213
#     4   9  18  28  38  48  60  79 104 141 180 216
#
# _framework density 12.286500999999999
#
# number of rings (size 3 to 8) (size 9 to 14) (size 15 to 20)
#    1.000    1.500    1.667    2.000    0.000    3.667 
#    0.000    1.667    0.000    0.000    0.000    0.000 
#    0.000    0.000    0.000    0.000    0.000    0.000 
#
# Total GULP energy -594811.698678 kJ/mol
# GULP energy per Si atom -12391.910389 kJ/mol
# Density = 1.225854 g / cm^3
# Si number density = 12.286501 Si / 1000 Ang^3
#
#
#
# Elastic Constant Matrix: (Units=GPa)
#
#
# Indices 1 2 3 4 5 6 
#
# 1 35.0560 36.5698 25.2259 0.0000 0.0000 0.0000
# 2 36.5698 89.9354 47.6965 0.0000 0.0000 0.0000
# 3 25.2259 47.6965 79.0325 0.0000 0.0000 0.0000
# 4 0.0000 0.0000 0.0000 20.3809 0.0000 0.0000
# 5 0.0000 0.0000 0.0000 0.0000 13.7338 0.0000
# 6 0.0000 0.0000 0.0000 0.0000 0.0000 16.9951
#
#
#
# Elastic Compliance Matrix: (Units=1/GPa)
#
#
# Indices 1 2 3 4 5 6 
#
# 1 0.051143 -0.017853 -0.005550 0.000000 0.000000 0.000000
# 2 -0.017853 0.022585 -0.007932 0.000000 0.000000 0.000000
# 3 -0.005550 -0.007932 0.019211 0.000000 0.000000 0.000000
# 4 0.000000 0.000000 0.000000 0.049066 0.000000 0.000000
# 5 0.000000 0.000000 0.000000 0.000000 0.072813 0.000000
# 6 0.000000 0.000000 0.000000 0.000000 0.000000 0.058840
#
#
# Mechanical properties :
#
#
# Convention : Reuss Voigt Hill
#
# Bulk Modulus (GPa) = 33.03533 47.00091 40.01812
# Shear Modulus (GPa) = 14.43347 16.52408 15.47877
#
# Velocity S-wave (km/s) = 3.43117 3.67126 3.55324
# Velocity P-wave (km/s) = 6.53017 7.50387 7.03389
#
# Compressibility (1/GPa) = 0.03027062
#
# Stress axis : x y z
#
# Youngs Moduli (GPa) = 19.55308 44.27724 52.05247
#
# Poissons Ratio (x) = 0.79046 0.28888
# Poissons Ratio (y) = 0.34907 0.41288
# Poissons Ratio (z) = 0.10852 0.35120
#
# Static dielectric constant tensor:
#      x y z
#    x 2.109200 0.000000 0.000000 
#    y 0.000000 2.418630 0.000000 
#    z 0.000000 0.000000 2.590310 
# 
# 
# High freq. dielectric constant tensor:
#      x y z
#    x 1.405500 0.000000 0.000000 
#    y 0.000000 1.449310 0.000000 
#    z 0.000000 0.000000 1.486240 
# 
# From -- ./inp_files/10641.got.cif
#   From: 2010.03.12/outbox.cif.g09.slc.cpg/sg66_6_cif.got.tgz:10641.got - 2010.04.10 21:57:39.
