data_PCOD8275120
_publ_section_title
;
Structure prediction by ZEFSAII (Michael W. Deem and Ramdas Pophale) SiO2 
 PCOD8275120
Probable space group: C M M M
;
_chemical_formula_sum "Si O2"
_cell_formula_units_Z 88
_cell_length_a 35.958215
_cell_length_b 9.072288
_cell_length_c 20.689188
_cell_angle_alpha 90.000000
_cell_angle_beta 90.000000
_cell_angle_gamma 90.000000
_cell_volume 6749.294821
_symmetry_space_group_name_H-M "C M M M"
_symmetry_group_IT_number 65
_symmetry_cell_setting 'orthorhombic'
loop_
_space_group_symop_operation_xyz
x,y,z
-x,-y,z
x,-y,-z
-x,y,-z
-x,-y,-z
x,y,-z
-x,y,z
x,-y,z
1/2+x,1/2+y,z
1/2-x,1/2-y,z
1/2+x,1/2-y,-z
1/2-x,1/2+y,-z
1/2-x,1/2-y,-z
1/2+x,1/2+y,-z
1/2-x,1/2+y,z
1/2+x,1/2-y,z
loop_
_atom_site_type_symbol
_atom_site_label
_atom_site_fract_x
_atom_site_fract_y
_atom_site_fract_z
Si Si1 0.789071 0.171108 0.667360
Si Si2 0.289843 0.172196 0.070299
Si Si3 0.146265 0.827116 0.574479
Si Si4 0.000000 0.833560 0.422854
Si Si5 0.289556 0.671756 0.189759
Si Si6 0.572332 0.833979 0.423106
O O1 0.750000 0.250000 0.656388
O O2 0.818751 0.230971 0.615634
O O3 0.806890 0.197287 0.738990
O O4 0.781078 0.000000 0.656135
O O5 0.250000 0.250000 0.067167
O O6 0.312270 0.249372 0.130369
O O7 0.285000 0.000000 0.084961
O O8 0.309674 0.195407 0.000000
O O9 0.154211 0.787805 0.500000
O O10 0.109658 0.745821 0.600902
O O11 0.139682 0.000000 0.584261
O O12 0.963518 0.751583 0.395557
O O13 0.000000 0.832044 0.500000
O O14 0.000000 0.000000 0.396530
O O15 0.285557 0.500000 0.173989
O O16 0.250000 0.750000 0.192314
O O17 0.570974 0.832753 0.500000
O O18 0.571750 0.000000 0.396122
#
# Coordination Sequence:
#
# PCOD8275120 Si02
#       6
#    16  16  16   8  16  16
#     4   9  18  29  39  51  65  84 113 148 183 216
#     4   9  15  21  30  45  63  80  98 122 154 193
#     4   9  17  29  41  51  66  88 113 143 180 218
#     4   9  15  23  37  55  73  93 111 125 152 199
#     4   9  15  23  34  46  61  80 103 132 165 201
#     4   9  16  25  37  54  73  89 107 134 166 200
#
# _framework density 13.038399
#
# number of rings (size 3 to 8) (size 9 to 14) (size 15 to 20)
#    0.000    3.000    0.000    3.000    0.000    6.182 
#    0.000    0.000    0.000    0.000    0.000    0.000 
#    0.000    0.000    0.000    0.000    0.000    0.000 
#
# Total GULP energy -545096.996543 kJ/mol
# GULP energy per Si atom -12388.568103 kJ/mol
# Density = 1.300872 g / cm^3
# Si number density = 13.038399 Si / 1000 Ang^3
#
#
#
# Elastic Constant Matrix: (Units=GPa)
#
#
# Indices 1 2 3 4 5 6 
#
# 1 76.9920 40.4151 40.5576 0.0000 0.0000 0.0000
# 2 40.4151 84.2929 37.3964 0.0000 0.0000 0.0000
# 3 40.5576 37.3964 72.4895 0.0000 0.0000 0.0000
# 4 0.0000 0.0000 0.0000 15.5136 0.0000 0.0000
# 5 0.0000 0.0000 0.0000 0.0000 0.4940 0.0000
# 6 0.0000 0.0000 0.0000 0.0000 0.0000 16.9243
#
#
#
# Elastic Compliance Matrix: (Units=1/GPa)
#
#
# Indices 1 2 3 4 5 6 
#
# 1 0.020638 -0.006189 -0.008354 0.000000 0.000000 0.000000
# 2 -0.006189 0.017240 -0.005432 0.000000 0.000000 0.000000
# 3 -0.008354 -0.005432 0.021271 0.000000 0.000000 0.000000
# 4 0.000000 0.000000 0.000000 0.064460 0.000000 0.000000
# 5 0.000000 0.000000 0.000000 0.000000 2.024150 0.000000
# 6 0.000000 0.000000 0.000000 0.000000 0.000000 0.059087
#
#
# Mechanical properties :
#
#
# Convention : Reuss Voigt Hill
#
# Bulk Modulus (GPa) = 52.08140 52.27918 52.18029
# Shear Modulus (GPa) = 2.21907 14.28006 8.24957
#
# Velocity S-wave (km/s) = 1.30600 3.31302 2.51811
# Velocity P-wave (km/s) = 6.50427 7.40393 6.96863
#
# Compressibility (1/GPa) = 0.01920071
#
# Stress axis : x y z
#
# Youngs Moduli (GPa) = 48.45502 58.00361 47.01190
#
# Poissons Ratio (x) = 0.35897 0.39274
# Poissons Ratio (y) = 0.29987 0.25535
# Poissons Ratio (z) = 0.40480 0.31505
#
# Static dielectric constant tensor:
#      x y z
#    x 2.370170 0.000000 0.000000 
#    y 0.000000 2.781940 0.000000 
#    z 0.000000 0.000000 3.302300 
# 
# 
# High freq. dielectric constant tensor:
#      x y z
#    x 1.445450 0.000000 0.000000 
#    y 0.000000 1.512900 0.000000 
#    z 0.000000 0.000000 1.476750 
# 
# From -- ./inp_files/68404.got.cif
#   From: 2010.03.12/outbox.cif.g09.slc.cpg/sg65_35_cif.got.tgz:68404.got - 2010.04.10 20:52:16.
