data_PCOD8275139
_publ_section_title
;
Structure prediction by ZEFSAII (Michael W. Deem and Ramdas Pophale) SiO2 
 PCOD8275139
Probable space group: C M M M
;
_chemical_formula_sum "Si O2"
_cell_formula_units_Z 104
_cell_length_a 14.462566
_cell_length_b 32.936654
_cell_length_c 14.451615
_cell_angle_alpha 90.000000
_cell_angle_beta 90.000000
_cell_angle_gamma 90.000000
_cell_volume 6884.005595
_symmetry_space_group_name_H-M "C M M M"
_symmetry_group_IT_number 65
_symmetry_cell_setting 'orthorhombic'
loop_
_space_group_symop_operation_xyz
x,y,z
-x,-y,z
x,-y,-z
-x,y,-z
-x,-y,-z
x,y,-z
-x,y,z
x,-y,z
1/2+x,1/2+y,z
1/2-x,1/2-y,z
1/2+x,1/2-y,-z
1/2-x,1/2+y,-z
1/2-x,1/2-y,-z
1/2+x,1/2+y,-z
1/2-x,1/2+y,z
1/2+x,1/2-y,z
loop_
_atom_site_type_symbol
_atom_site_label
_atom_site_fract_x
_atom_site_fract_y
_atom_site_fract_z
Si Si1 0.286055 0.078322 0.108412
Si Si2 0.607114 0.688538 0.259033
Si Si3 0.393740 0.154407 0.895810
Si Si4 0.105051 0.879043 0.107096
Si Si5 0.605457 0.219453 0.250067
Si Si6 0.256618 0.798131 0.602347
Si Si7 0.607438 0.000000 0.110559
O O1 0.335707 0.117997 0.150298
O O2 0.175590 0.083494 0.128614
O O3 0.334275 0.038298 0.151184
O O4 0.305591 0.076508 0.000000
O O5 0.500000 0.685126 0.287022
O O6 0.629651 0.659008 0.173041
O O7 0.636815 0.734293 0.230772
O O8 0.667766 0.679586 0.350767
O O9 0.500000 0.141225 0.890256
O O10 0.374103 0.196326 0.844582
O O11 0.361002 0.162125 0.000000
O O12 0.000000 0.894244 0.125100
O O13 0.116872 0.864946 0.000000
O O14 0.500000 0.218484 0.280185
O O15 0.655677 0.194900 0.332032
O O16 0.269793 0.817418 0.500000
O O17 0.250000 0.750000 0.592051
O O18 0.500000 0.000000 0.145398
O O19 0.607748 0.000000 0.000000
#
# Coordination Sequence:
#
# PCOD8275139 Si02
#       7
#    16  16  16  16  16  16   8
#     4   9  16  26  39  55  76 103 134 166 198 231
#     4   9  17  28  41  57  77 103 137 172 201 233
#     4   9  16  25  38  57  81 107 133 163 200 238
#     4   9  17  28  41  57  79 108 138 165 196 235
#     4   9  17  27  39  57  79 104 136 169 201 240
#     4   9  17  28  40  53  71  97 131 172 212 243
#     4   9  16  26  41  59  77  99 131 168 200 232
#
# _framework density 15.107483999999999
#
# number of rings (size 3 to 8) (size 9 to 14) (size 15 to 20)
#    0.000    3.000    0.000    1.385    0.000    3.077 
#    0.000    6.538    0.000    7.846    0.000    0.000 
#    0.000    0.000    0.000   11.077    0.000   68.923 
#
# Total GULP energy -644254.062325 kJ/mol
# GULP energy per Si atom -12389.501199 kJ/mol
# Density = 1.507310 g / cm^3
# Si number density = 15.107484 Si / 1000 Ang^3
#
#
#
# Elastic Constant Matrix: (Units=GPa)
#
#
# Indices 1 2 3 4 5 6 
#
# 1 87.5696 46.8733 36.2562 0.0000 0.0000 0.0000
# 2 46.8733 63.3581 25.6172 0.0000 0.0000 0.0000
# 3 36.2562 25.6172 64.4640 0.0000 0.0000 0.0000
# 4 0.0000 0.0000 0.0000 2.5346 0.0000 0.0000
# 5 0.0000 0.0000 0.0000 0.0000 18.9806 0.0000
# 6 0.0000 0.0000 0.0000 0.0000 0.0000 24.2631
#
#
#
# Elastic Compliance Matrix: (Units=1/GPa)
#
#
# Indices 1 2 3 4 5 6 
#
# 1 0.021116 -0.012891 -0.006753 0.000000 0.000000 0.000000
# 2 -0.012891 0.026675 -0.003350 0.000000 0.000000 0.000000
# 3 -0.006753 -0.003350 0.020642 0.000000 0.000000 0.000000
# 4 0.000000 0.000000 0.000000 0.394537 0.000000 0.000000
# 5 0.000000 0.000000 0.000000 0.000000 0.052685 0.000000
# 6 0.000000 0.000000 0.000000 0.000000 0.000000 0.041215
#
#
# Mechanical properties :
#
#
# Convention : Reuss Voigt Hill
#
# Bulk Modulus (GPa) = 44.55570 48.09834 46.32702
# Shear Modulus (GPa) = 8.19215 16.26532 12.22873
#
# Velocity S-wave (km/s) = 2.33117 3.28478 2.84817
# Velocity P-wave (km/s) = 6.06649 6.80389 6.44574
#
# Compressibility (1/GPa) = 0.02244382
#
# Stress axis : x y z
#
# Youngs Moduli (GPa) = 47.35780 37.48834 48.44504
#
# Poissons Ratio (x) = 0.48327 0.32716
# Poissons Ratio (y) = 0.61050 0.16229
# Poissons Ratio (z) = 0.31982 0.12558
#
# Static dielectric constant tensor:
#      x y z
#    x 3.143540 0.000000 0.000000 
#    y 0.000000 2.806890 0.000000 
#    z 0.000000 0.000000 2.812770 
# 
# 
# High freq. dielectric constant tensor:
#      x y z
#    x 1.599240 0.000000 0.000000 
#    y 0.000000 1.543670 0.000000 
#    z 0.000000 0.000000 1.539790 
# 
# From -- ./inp_files/41358.got.cif
#   From: 2010.03.12/outbox.cif.g09.slc.cpg/sg65_21_cif.got.tgz:41358.got - 2010.04.10 20:52:16.
