data_PCOD8275895
_publ_section_title
;
Structure prediction by ZEFSAII (Michael W. Deem and Ramdas Pophale) SiO2 
 PCOD8275895
Probable space group: C C C M
;
_chemical_formula_sum "Si O2"
_cell_formula_units_Z 112
_cell_length_a 23.747165
_cell_length_b 14.900060
_cell_length_c 17.052580
_cell_angle_alpha 90.000000
_cell_angle_beta 90.000000
_cell_angle_gamma 90.000000
_cell_volume 6033.785718
_symmetry_space_group_name_H-M "C C C M"
_symmetry_group_IT_number 66
_symmetry_cell_setting 'orthorhombic'
loop_
_space_group_symop_operation_xyz
x,y,z
-x,-y,z
x,-y,1/2-z
-x,y,1/2-z
-x,-y,-z
x,y,-z
-x,y,1/2+z
x,-y,1/2+z
1/2+x,1/2+y,z
1/2-x,1/2-y,z
1/2+x,1/2-y,1/2-z
1/2-x,1/2+y,1/2-z
1/2-x,1/2-y,-z
1/2+x,1/2+y,-z
1/2-x,1/2+y,1/2+z
1/2+x,1/2-y,1/2+z
loop_
_atom_site_type_symbol
_atom_site_label
_atom_site_fract_x
_atom_site_fract_y
_atom_site_fract_z
Si Si1 0.036338 0.414390 0.908913
Si Si2 0.023496 0.772522 0.663654
Si Si3 0.221651 0.962452 0.589835
Si Si4 0.847129 0.806252 0.168488
Si Si5 0.150508 0.922299 0.809254
Si Si6 0.459484 0.577572 0.089874
Si Si7 0.162381 0.623320 0.589747
O O1 0.016075 0.331831 0.856117
O O2 0.103358 0.427908 0.894159
O O3 0.000000 0.500000 0.881039
O O4 0.024369 0.394091 0.000000
O O5 0.086447 0.808667 0.653814
O O6 0.000000 0.792553 0.750000
O O7 0.988961 0.826684 0.598970
O O8 0.209774 0.985487 0.500000
O O9 0.183825 0.876511 0.611973
O O10 0.287635 0.946268 0.605074
O O11 0.205951 0.048592 0.642445
O O12 0.835761 0.831561 0.260037
O O13 0.826070 0.706329 0.148445
O O14 0.099755 0.912442 0.868379
O O15 0.132194 0.000000 0.750000
O O16 0.500000 0.500000 0.126043
O O17 0.447081 0.555316 0.000000
O O18 0.163639 0.659450 0.500000
#
# Coordination Sequence:
#
# PCOD8275895 Si02
#       7
#    16  16  16  16  16  16  16
#     4   9  19  37  61  85 111 143 180 230 286 341
#     4  11  21  34  55  79 111 150 187 232 282 330
#     4  10  19  32  54  82 112 142 181 231 278 330
#     4  10  19  32  52  76 110 144 182 222 282 332
#     4  10  20  32  49  71 106 149 180 220 276 327
#     4  11  22  33  50  78 110 150 194 228 267 331
#     4   9  18  33  58  87 110 138 179 231 285 333
#
# _framework density 18.562144
#
# number of rings (size 3 to 8) (size 9 to 14) (size 15 to 20)
#    0.000    2.000    1.429    3.429    0.000    4.286 
#    0.000    0.000   22.000    0.000    0.000    0.000 
#    0.000   37.714    0.000    0.000    0.000    0.000 
#
# Total GULP energy -694304.646479 kJ/mol
# GULP energy per Si atom -12398.297259 kJ/mol
# Density = 1.851990 g / cm^3
# Si number density = 18.562144 Si / 1000 Ang^3
#
#
#
# Elastic Constant Matrix: (Units=GPa)
#
#
# Indices 1 2 3 4 5 6 
#
# 1 104.2333 58.6243 44.7901 0.0000 0.0000 0.0000
# 2 58.6243 89.7100 43.6631 0.0000 0.0000 0.0000
# 3 44.7901 43.6631 86.0404 0.0000 0.0000 0.0000
# 4 0.0000 0.0000 0.0000 33.9083 0.0000 0.0000
# 5 0.0000 0.0000 0.0000 0.0000 25.1689 0.0000
# 6 0.0000 0.0000 0.0000 0.0000 0.0000 24.4967
#
#
#
# Elastic Compliance Matrix: (Units=1/GPa)
#
#
# Indices 1 2 3 4 5 6 
#
# 1 0.016170 -0.008592 -0.004057 0.000000 0.000000 0.000000
# 2 -0.008592 0.019369 -0.005356 0.000000 0.000000 0.000000
# 3 -0.004057 -0.005356 0.016453 0.000000 0.000000 0.000000
# 4 0.000000 0.000000 0.000000 0.029491 0.000000 0.000000
# 5 0.000000 0.000000 0.000000 0.000000 0.039732 0.000000
# 6 0.000000 0.000000 0.000000 0.000000 0.000000 0.040822
#
#
# Mechanical properties :
#
#
# Convention : Reuss Voigt Hill
#
# Bulk Modulus (GPa) = 62.57831 63.79319 63.18575
# Shear Modulus (GPa) = 24.58525 25.57519 25.08022
#
# Velocity S-wave (km/s) = 3.64329 3.71592 3.67979
# Velocity P-wave (km/s) = 7.17525 7.26999 7.22277
#
# Compressibility (1/GPa) = 0.01597998
#
# Stress axis : x y z
#
# Youngs Moduli (GPa) = 61.84390 51.62945 60.77999
#
# Poissons Ratio (x) = 0.44360 0.24660
# Poissons Ratio (y) = 0.53136 0.32556
# Poissons Ratio (z) = 0.25092 0.27655
#
# Static dielectric constant tensor:
#      x y z
#    x 3.481780 0.000000 0.000000 
#    y 0.000000 3.305620 0.000000 
#    z 0.000000 0.000000 3.531500 
# 
# 
# High freq. dielectric constant tensor:
#      x y z
#    x 1.725580 0.000000 0.000000 
#    y 0.000000 1.696670 0.000000 
#    z 0.000000 0.000000 1.720310 
# 
# From -- ./inp_files/33307.got.cif
#   From: 2010.03.12/outbox.cif.g09.slc.cpg/sg66_17_cif.got.tgz:33307.got - 2010.04.10 21:57:39.
