data_PCOD8275579
_publ_section_title
;
Structure prediction by ZEFSAII (Michael W. Deem and Ramdas Pophale) SiO2 
 PCOD8275579
Probable space group: C C C M
;
_chemical_formula_sum "Si O2"
_cell_formula_units_Z 128
_cell_length_a 21.638899
_cell_length_b 21.723413
_cell_length_c 17.112031
_cell_angle_alpha 90.000000
_cell_angle_beta 90.000000
_cell_angle_gamma 90.000000
_cell_volume 8043.865072
_symmetry_space_group_name_H-M "C C C M"
_symmetry_group_IT_number 66
_symmetry_cell_setting 'orthorhombic'
loop_
_space_group_symop_operation_xyz
x,y,z
-x,-y,z
x,-y,1/2-z
-x,y,1/2-z
-x,-y,-z
x,y,-z
-x,y,1/2+z
x,-y,1/2+z
1/2+x,1/2+y,z
1/2-x,1/2-y,z
1/2+x,1/2-y,1/2-z
1/2-x,1/2+y,1/2-z
1/2-x,1/2-y,-z
1/2+x,1/2+y,-z
1/2-x,1/2+y,1/2+z
1/2+x,1/2-y,1/2+z
loop_
_atom_site_type_symbol
_atom_site_label
_atom_site_fract_x
_atom_site_fract_y
_atom_site_fract_z
Si Si1 0.847654 0.729731 0.764697
Si Si2 0.698414 0.427928 0.910651
Si Si3 0.076368 0.246609 0.911444
Si Si4 0.065602 0.881889 0.088456
Si Si5 0.232555 0.849550 0.233451
Si Si6 0.177788 0.041228 0.822773
Si Si7 0.539662 0.264641 0.177065
Si Si8 0.431196 0.600278 0.412598
O O1 0.869791 0.727187 0.855268
O O2 0.816179 0.795074 0.745966
O O3 0.801644 0.673936 0.748333
O O4 0.906797 0.719011 0.708052
O O5 0.623967 0.426252 0.901078
O O6 0.729115 0.376469 0.854893
O O7 0.715030 0.497886 0.884649
O O8 0.719602 0.415548 0.000000
O O9 0.076642 0.173276 0.905498
O O10 0.007630 0.268650 0.883438
O O11 0.088638 0.269587 0.000000
O O12 0.075684 0.822276 0.141209
O O13 0.001960 0.917385 0.109552
O O14 0.059985 0.857476 0.000000
O O15 0.221601 0.902804 0.297183
O O16 0.113783 0.066818 0.854130
O O17 0.158506 0.000000 0.750000
O O18 0.500000 0.289738 0.250000
O O19 0.414961 0.578086 0.500000
#
# Coordination Sequence:
#
# PCOD8275579 Si02
#       8
#    16  16  16  16  16  16  16  16
#     4  10  18  32  51  69  96 127 159 199 238 284
#     4  10  20  34  48  64  91 126 167 211 243 273
#     4   9  17  30  49  73  98 122 153 195 238 284
#     4   9  17  28  43  62  89 121 158 202 239 270
#     4  10  20  34  47  67  94 127 166 204 235 280
#     4  10  20  32  46  61  87 125 166 206 243 274
#     4   9  16  26  47  69  92 123 153 188 239 284
#     4   9  16  28  44  63  89 121 159 202 240 273
#
# _framework density 15.912749
#
# number of rings (size 3 to 8) (size 9 to 14) (size 15 to 20)
#    0.000    2.500    2.500    1.500    0.000    0.500 
#    0.000    8.750    0.000    0.000    0.000    0.000 
#    0.000   40.500    0.000   20.250    0.000    0.000 
#
# Total GULP energy -793239.586379 kJ/mol
# GULP energy per Si atom -12394.368537 kJ/mol
# Density = 1.587653 g / cm^3
# Si number density = 15.912749 Si / 1000 Ang^3
#
#
#
# Elastic Constant Matrix: (Units=GPa)
#
#
# Indices 1 2 3 4 5 6 
#
# 1 84.2756 45.7412 52.9313 0.0000 0.0000 0.0000
# 2 45.7412 64.3841 43.2883 0.0000 0.0000 0.0000
# 3 52.9313 43.2883 110.9393 0.0000 0.0000 0.0000
# 4 0.0000 0.0000 0.0000 13.3176 0.0000 0.0000
# 5 0.0000 0.0000 0.0000 0.0000 20.2037 0.0000
# 6 0.0000 0.0000 0.0000 0.0000 0.0000 17.8720
#
#
#
# Elastic Compliance Matrix: (Units=1/GPa)
#
#
# Indices 1 2 3 4 5 6 
#
# 1 0.021849 -0.011541 -0.005921 0.000000 0.000000 0.000000
# 2 -0.011541 0.027152 -0.005088 0.000000 0.000000 0.000000
# 3 -0.005921 -0.005088 0.013824 0.000000 0.000000 0.000000
# 4 0.000000 0.000000 0.000000 0.075089 0.000000 0.000000
# 5 0.000000 0.000000 0.000000 0.000000 0.049496 0.000000
# 6 0.000000 0.000000 0.000000 0.000000 0.000000 0.055953
#
#
# Mechanical properties :
#
#
# Convention : Reuss Voigt Hill
#
# Bulk Modulus (GPa) = 56.41969 60.39116 58.40543
# Shear Modulus (GPa) = 16.98525 18.12120 17.55323
#
# Velocity S-wave (km/s) = 3.27065 3.37825 3.32489
# Velocity P-wave (km/s) = 7.05659 7.29730 7.17796
#
# Compressibility (1/GPa) = 0.01772431
#
# Stress axis : x y z
#
# Youngs Moduli (GPa) = 45.76891 36.82937 72.33580
#
# Poissons Ratio (x) = 0.42506 0.42831
# Poissons Ratio (y) = 0.52823 0.36806
# Poissons Ratio (z) = 0.27100 0.18739
#
# Static dielectric constant tensor:
#      x y z
#    x 2.955830 0.000000 0.000000 
#    y 0.000000 2.741660 0.000000 
#    z 0.000000 0.000000 3.311170 
# 
# 
# High freq. dielectric constant tensor:
#      x y z
#    x 1.591330 0.000000 0.000000 
#    y 0.000000 1.569690 0.000000 
#    z 0.000000 0.000000 1.627170 
# 
# From -- ./inp_files/43194.got.cif
#   From: 2010.03.12/outbox.cif.g09.slc.cpg/sg66_22_cif.got.tgz:43194.got - 2010.04.10 21:57:39.
