data_PCOD8275291
_publ_section_title
;
Structure prediction by ZEFSAII (Michael W. Deem and Ramdas Pophale) SiO2 
 PCOD8275291
Probable space group: C C C M
;
_chemical_formula_sum "Si O2"
_cell_formula_units_Z 112
_cell_length_a 25.348443
_cell_length_b 17.188954
_cell_length_c 15.550669
_cell_angle_alpha 90.000000
_cell_angle_beta 90.000000
_cell_angle_gamma 90.000000
_cell_volume 6775.632074
_symmetry_space_group_name_H-M "C C C M"
_symmetry_group_IT_number 66
_symmetry_cell_setting 'orthorhombic'
loop_
_space_group_symop_operation_xyz
x,y,z
-x,-y,z
x,-y,1/2-z
-x,y,1/2-z
-x,-y,-z
x,y,-z
-x,y,1/2+z
x,-y,1/2+z
1/2+x,1/2+y,z
1/2-x,1/2-y,z
1/2+x,1/2-y,1/2-z
1/2-x,1/2+y,1/2-z
1/2-x,1/2-y,-z
1/2+x,1/2+y,-z
1/2-x,1/2+y,1/2+z
1/2+x,1/2-y,1/2+z
loop_
_atom_site_type_symbol
_atom_site_label
_atom_site_fract_x
_atom_site_fract_y
_atom_site_fract_z
Si Si1 0.842397 0.732056 0.205693
Si Si2 0.610008 0.612464 0.405701
Si Si3 0.596546 0.567051 0.903201
Si Si4 0.559048 0.322148 0.737197
Si Si5 0.783665 0.588590 0.236964
Si Si6 0.284736 0.681751 0.859438
Si Si7 0.207480 0.150565 0.095970
O O1 0.904293 0.753404 0.197933
O O2 0.836520 0.639726 0.220119
O O3 0.816051 0.778994 0.282415
O O4 0.806420 0.760422 0.124582
O O5 0.584267 0.627492 0.500000
O O6 0.605154 0.522608 0.380441
O O7 0.579677 0.658410 0.332192
O O8 0.671358 0.638966 0.416694
O O9 0.558910 0.605458 0.830231
O O10 0.652794 0.605962 0.897052
O O11 0.572617 0.577503 0.000000
O O12 0.500000 0.290870 0.750000
O O13 0.800990 0.500000 0.250000
O O14 0.754631 0.615986 0.323638
O O15 0.746785 0.601501 0.154853
O O16 0.250000 0.750000 0.906906
O O17 0.230383 0.152129 0.000000
#
# Coordination Sequence:
#
# PCOD8275291 Si02
#       7
#    16  16  16  16  16  16  16
#     4   8  17  30  43  63  87 113 147 185 220 255
#     4  10  19  29  43  66  94 119 145 180 216 252
#     4   9  18  30  44  67  95 116 141 180 220 260
#     4  10  20  34  49  60  79 116 154 187 228 274
#     4  10  17  26  44  66  90 119 147 177 216 262
#     4   8  15  28  43  61  88 123 153 168 192 247
#     4   9  16  27  45  69  96 123 148 174 212 266
#
# _framework density 16.529823
#
# number of rings (size 3 to 8) (size 9 to 14) (size 15 to 20)
#    0.000    2.857    0.000    3.429    0.000    3.143 
#    0.000    1.429    0.000    3.857    0.000    0.000 
#    0.000    0.000    0.000   20.000    0.000    0.000 
#
# Total GULP energy -693804.921099 kJ/mol
# GULP energy per Si atom -12389.373591 kJ/mol
# Density = 1.649220 g / cm^3
# Si number density = 16.529823 Si / 1000 Ang^3
#
#
#
# Elastic Constant Matrix: (Units=GPa)
#
#
# Indices 1 2 3 4 5 6 
#
# 1 78.8253 39.0929 20.2957 0.0000 0.0000 0.0000
# 2 39.0929 105.0948 23.7295 0.0000 0.0000 0.0000
# 3 20.2957 23.7295 78.1842 0.0000 0.0000 0.0000
# 4 0.0000 0.0000 0.0000 13.5804 0.0000 0.0000
# 5 0.0000 0.0000 0.0000 0.0000 -2.3222 0.0000
# 6 0.0000 0.0000 0.0000 0.0000 0.0000 10.0754
#
#
#
# Elastic Compliance Matrix: (Units=1/GPa)
#
#
# Indices 1 2 3 4 5 6 
#
# 1 0.016006 -0.005385 -0.002521 0.000000 0.000000 0.000000
# 2 -0.005385 0.012027 -0.002252 0.000000 0.000000 0.000000
# 3 -0.002521 -0.002252 0.014128 0.000000 0.000000 0.000000
# 4 0.000000 0.000000 0.000000 0.073636 0.000000 0.000000
# 5 0.000000 0.000000 0.000000 0.000000 -0.430629 0.000000
# 6 0.000000 0.000000 0.000000 0.000000 0.000000 0.099251
#
#
# Mechanical properties :
#
#
# Convention : Reuss Voigt Hill
#
# Bulk Modulus (GPa) = 45.77626 47.59340 46.68483
# Shear Modulus (GPa) = -26.59805 16.19914 -5.19946
#
# Velocity S-wave (km/s) = -4.01570 3.13388 -1.77548
# Velocity P-wave (km/s) = 2.50042 6.47687 4.90928
#
# Compressibility (1/GPa) = 0.02184539
#
# Stress axis : x y z
#
# Youngs Moduli (GPa) = 62.47754 83.14792 70.78013
#
# Poissons Ratio (x) = 0.44772 0.17841
# Poissons Ratio (y) = 0.33642 0.15943
# Poissons Ratio (z) = 0.15748 0.18728
#
# Static dielectric constant tensor:
#      x y z
#    x 3.074030 0.000000 0.000000 
#    y 0.000000 3.124530 0.000000 
#    z 0.000000 0.000000 3.273610 
# 
# 
# High freq. dielectric constant tensor:
#      x y z
#    x 1.610290 0.000000 0.000000 
#    y 0.000000 1.614920 0.000000 
#    z 0.000000 0.000000 1.640010 
# 
# From -- ./inp_files/33338.got.cif
#   From: 2010.03.12/outbox.cif.g09.slc.cpg/sg66_17_cif.got.tgz:33338.got - 2010.04.10 21:57:39.
