data_PCOD8275013
_publ_section_title
;
Structure prediction by ZEFSAII (Michael W. Deem and Ramdas Pophale) SiO2 
 PCOD8275013
Probable space group: C M M M
;
_chemical_formula_sum "Si O2"
_cell_formula_units_Z 120
_cell_length_a 9.171866
_cell_length_b 37.053499
_cell_length_c 19.563566
_cell_angle_alpha 90.000000
_cell_angle_beta 90.000000
_cell_angle_gamma 90.000000
_cell_volume 6648.672577
_symmetry_space_group_name_H-M "C M M M"
_symmetry_group_IT_number 65
_symmetry_cell_setting 'orthorhombic'
loop_
_space_group_symop_operation_xyz
x,y,z
-x,-y,z
x,-y,-z
-x,y,-z
-x,-y,-z
x,y,-z
-x,y,z
x,-y,z
1/2+x,1/2+y,z
1/2-x,1/2-y,z
1/2+x,1/2-y,-z
1/2-x,1/2+y,-z
1/2-x,1/2-y,-z
1/2+x,1/2+y,-z
1/2-x,1/2+y,z
1/2+x,1/2-y,z
loop_
_atom_site_type_symbol
_atom_site_label
_atom_site_fract_x
_atom_site_fract_y
_atom_site_fract_z
Si Si1 0.673300 0.571206 0.651825
Si Si2 0.329014 0.286262 0.186346
Si Si3 0.326335 0.500000 0.423008
Si Si4 0.329072 0.713189 0.657162
Si Si5 0.327188 0.658583 0.924726
Si Si6 0.826490 0.040211 0.208273
Si Si7 0.673644 0.642719 0.422142
Si Si8 0.673615 0.422086 0.074917
O O1 0.500000 0.571981 0.645553
O O2 0.735145 0.536210 0.612265
O O3 0.722450 0.567289 0.731018
O O4 0.736792 0.608182 0.619436
O O5 0.500000 0.280729 0.175757
O O6 0.250000 0.250000 0.164508
O O7 0.292775 0.296686 0.264383
O O8 0.264370 0.316753 0.136002
O O9 0.500000 0.500000 0.418551
O O10 0.269539 0.500000 0.500000
O O11 0.500000 0.719335 0.646085
O O12 0.250000 0.750000 0.634198
O O13 0.269953 0.679872 0.611889
O O14 0.500000 0.657444 0.919179
O O15 0.265447 0.618307 0.914897
O O16 0.280994 0.673306 0.000000
O O17 0.761287 0.053502 0.135777
O O18 0.000000 0.039325 0.204931
O O19 0.767023 0.000000 0.223077
O O20 0.730316 0.640809 0.500000
O O21 0.500000 0.642010 0.419672
O O22 0.500000 0.421728 0.078877
O O23 0.722274 0.436931 0.000000
#
# Coordination Sequence:
#
# PCOD8275013 Si02
#       8
#    16  16   8  16  16  16  16  16
#     4   9  15  22  31  47  69  95 129 165 199 240
#     4   9  17  28  42  60  81 105 134 168 205 245
#     4   9  14  20  30  42  63  95 126 158 197 239
#     4   9  18  31  46  64  85 110 140 174 213 254
#     4   8  14  24  37  53  72  96 129 167 204 242
#     4   9  15  21  29  43  64  92 128 166 200 236
#     4   9  17  27  39  56  76 100 133 170 206 247
#     4   8  14  22  31  44  63  90 125 164 202 235
#
# _framework density 18.048715000000001
#
# number of rings (size 3 to 8) (size 9 to 14) (size 15 to 20)
#    0.000    3.267    0.667    1.200    1.867    2.400 
#    0.000    1.333    0.000    0.000    0.000    0.000 
#    0.000    0.000    0.000    0.600    0.000    6.467 
#
# Total GULP energy -743545.152605 kJ/mol
# GULP energy per Si atom -12392.419210 kJ/mol
# Density = 1.800763 g / cm^3
# Si number density = 18.048715 Si / 1000 Ang^3
#
#
#
# Elastic Constant Matrix: (Units=GPa)
#
#
# Indices 1 2 3 4 5 6 
#
# 1 4.7638 11.7459 8.8178 0.0000 0.0000 0.0000
# 2 11.7459 149.6763 96.4906 0.0000 0.0000 0.0000
# 3 8.8178 96.4906 160.9632 0.0000 0.0000 0.0000
# 4 0.0000 0.0000 0.0000 41.5474 0.0000 0.0000
# 5 0.0000 0.0000 0.0000 0.0000 6.4158 0.0000
# 6 0.0000 0.0000 0.0000 0.0000 0.0000 12.0252
#
#
#
# Elastic Compliance Matrix: (Units=1/GPa)
#
#
# Indices 1 2 3 4 5 6 
#
# 1 0.261347 -0.018384 -0.003297 0.000000 0.000000 0.000000
# 2 -0.018384 0.012182 -0.006296 0.000000 0.000000 0.000000
# 3 -0.003297 -0.006296 0.010167 0.000000 0.000000 0.000000
# 4 0.000000 0.000000 0.000000 0.024069 0.000000 0.000000
# 5 0.000000 0.000000 0.000000 0.000000 0.155865 0.000000
# 6 0.000000 0.000000 0.000000 0.000000 0.000000 0.083158
#
#
# Mechanical properties :
#
#
# Convention : Reuss Voigt Hill
#
# Bulk Modulus (GPa) = 4.39090 61.05687 32.72389
# Shear Modulus (GPa) = 7.36751 25.22096 16.29423
#
# Velocity S-wave (km/s) = 2.02259 3.74221 3.00791
# Velocity P-wave (km/s) = 2.80937 7.25083 5.49851
#
# Compressibility (1/GPa) = 0.22774361
#
# Stress axis : x y z
#
# Youngs Moduli (GPa) = 3.82634 82.08574 98.35548
#
# Poissons Ratio (x) = 1.50907 0.32423
# Poissons Ratio (y) = 0.07034 0.61922
# Poissons Ratio (z) = 0.01261 0.51679
#
# Static dielectric constant tensor:
#      x y z
#    x 2.505100 0.000000 0.000000 
#    y 0.000000 3.579370 0.000000 
#    z 0.000000 0.000000 3.680590 
# 
# 
# High freq. dielectric constant tensor:
#      x y z
#    x 1.602150 0.000000 0.000000 
#    y 0.000000 1.705760 0.000000 
#    z 0.000000 0.000000 1.716640 
# 
# From -- ./inp_files/62047.got.cif
#   From: 2010.03.12/outbox.cif.g09.slc.cpg/sg65_32_cif.got.tgz:62047.got - 2010.04.10 20:52:16.
