data_PCOD8275271
_publ_section_title
;
Structure prediction by ZEFSAII (Michael W. Deem and Ramdas Pophale) SiO2 
 PCOD8275271
Probable space group: C C C M
;
_chemical_formula_sum "Si O2"
_cell_formula_units_Z 80
_cell_length_a 21.718708
_cell_length_b 13.944847
_cell_length_c 17.053894
_cell_angle_alpha 90.000000
_cell_angle_beta 90.000000
_cell_angle_gamma 90.000000
_cell_volume 5165.011577
_symmetry_space_group_name_H-M "C C C M"
_symmetry_group_IT_number 66
_symmetry_cell_setting 'orthorhombic'
loop_
_space_group_symop_operation_xyz
x,y,z
-x,-y,z
x,-y,1/2-z
-x,y,1/2-z
-x,-y,-z
x,y,-z
-x,y,1/2+z
x,-y,1/2+z
1/2+x,1/2+y,z
1/2-x,1/2-y,z
1/2+x,1/2-y,1/2-z
1/2-x,1/2+y,1/2-z
1/2-x,1/2-y,-z
1/2+x,1/2+y,-z
1/2-x,1/2+y,1/2+z
1/2+x,1/2-y,1/2+z
loop_
_atom_site_type_symbol
_atom_site_label
_atom_site_fract_x
_atom_site_fract_y
_atom_site_fract_z
Si Si1 0.616253 0.312253 0.650203
Si Si2 0.299126 0.472721 0.909897
Si Si3 0.491147 0.386694 0.410388
Si Si4 0.380378 0.411199 0.697136
Si Si5 0.199556 0.667528 0.588037
O O1 0.649930 0.388321 0.593144
O O2 0.543946 0.326037 0.633689
O O3 0.635352 0.328620 0.740753
O O4 0.638648 0.202781 0.634243
O O5 0.319120 0.557595 0.850962
O O6 0.232453 0.430763 0.881970
O O7 0.296758 0.509103 0.000000
O O8 0.500000 0.500000 0.407719
O O9 0.485342 0.350804 0.500000
O O10 0.428588 0.367007 0.363722
O O11 0.406780 0.500000 0.750000
O O12 0.177903 0.649976 0.500000
O O13 0.250000 0.750000 0.594054
#
# Coordination Sequence:
#
# PCOD8275271 Si02
#       5
#    16  16  16  16  16
#     4  10  17  23  33  49  71  96 126 159 190 221
#     4   9  15  24  36  48  66  92 127 164 192 222
#     4  11  18  23  32  45  69 101 128 152 178 218
#     4  10  18  23  32  49  74  97 124 156 189 226
#     4   8  14  24  36  48  64  91 128 164 192 220
#
# _framework density 15.488832
#
# number of rings (size 3 to 8) (size 9 to 14) (size 15 to 20)
#    0.000    2.400    4.000    4.200    0.000    0.000 
#    0.000    0.000    0.000    0.000    0.000    0.000 
#    0.000  123.200    0.000    0.000    0.000  262.000 
#
# Total GULP energy -495521.982048 kJ/mol
# GULP energy per Si atom -12388.049551 kJ/mol
# Density = 1.545358 g / cm^3
# Si number density = 15.488832 Si / 1000 Ang^3
#
#
#
# Elastic Constant Matrix: (Units=GPa)
#
#
# Indices 1 2 3 4 5 6 
#
# 1 80.7281 45.0717 47.7914 0.0000 0.0000 0.0000
# 2 45.0717 31.8403 38.2345 0.0000 0.0000 0.0000
# 3 47.7914 38.2345 111.3912 0.0000 0.0000 0.0000
# 4 0.0000 0.0000 0.0000 7.6635 0.0000 0.0000
# 5 0.0000 0.0000 0.0000 0.0000 13.6681 0.0000
# 6 0.0000 0.0000 0.0000 0.0000 0.0000 23.5403
#
#
#
# Elastic Compliance Matrix: (Units=1/GPa)
#
#
# Indices 1 2 3 4 5 6 
#
# 1 0.061295 -0.093884 0.005927 0.000000 0.000000 0.000000
# 2 -0.093884 0.197228 -0.027417 0.000000 0.000000 0.000000
# 3 0.005927 -0.027417 0.015845 0.000000 0.000000 0.000000
# 4 0.000000 0.000000 0.000000 0.130489 0.000000 0.000000
# 5 0.000000 0.000000 0.000000 0.000000 0.073163 0.000000
# 6 0.000000 0.000000 0.000000 0.000000 0.000000 0.042480
#
#
# Mechanical properties :
#
#
# Convention : Reuss Voigt Hill
#
# Bulk Modulus (GPa) = 22.92541 54.01719 38.47130
# Shear Modulus (GPa) = 6.52920 15.16516 10.84718
#
# Velocity S-wave (km/s) = 2.05538 3.13246 2.64923
# Velocity P-wave (km/s) = 4.52395 6.93063 5.85234
#
# Compressibility (1/GPa) = 0.04361973
#
# Stress axis : x y z
#
# Youngs Moduli (GPa) = 16.31447 5.07027 63.11014
#
# Poissons Ratio (x) = 0.47602 -0.37406
# Poissons Ratio (y) = 1.53167 1.73032
# Poissons Ratio (z) = -0.09670 0.13901
#
# Static dielectric constant tensor:
#      x y z
#    x 3.048330 0.000000 0.000000 
#    y 0.000000 2.585620 0.000000 
#    z 0.000000 0.000000 3.153030 
# 
# 
# High freq. dielectric constant tensor:
#      x y z
#    x 1.572390 0.000000 0.000000 
#    y 0.000000 1.515360 0.000000 
#    z 0.000000 0.000000 1.606500 
# 
# From -- ./inp_files/28507.got.cif
#   From: 2010.03.12/outbox.cif.g09.slc.cpg/sg66_15_cif.got.tgz:28507.got - 2010.04.10 21:57:39.
