data_PCOD8275310
_publ_section_title
;
Structure prediction by ZEFSAII (Michael W. Deem and Ramdas Pophale) SiO2 
 PCOD8275310
Probable space group: C C C M
;
_chemical_formula_sum "Si O2"
_cell_formula_units_Z 80
_cell_length_a 25.886719
_cell_length_b 17.947583
_cell_length_c 8.545973
_cell_angle_alpha 90.000000
_cell_angle_beta 90.000000
_cell_angle_gamma 90.000000
_cell_volume 3970.493563
_symmetry_space_group_name_H-M "C C C M"
_symmetry_group_IT_number 66
_symmetry_cell_setting 'orthorhombic'
loop_
_space_group_symop_operation_xyz
x,y,z
-x,-y,z
x,-y,1/2-z
-x,y,1/2-z
-x,-y,-z
x,y,-z
-x,y,1/2+z
x,-y,1/2+z
1/2+x,1/2+y,z
1/2-x,1/2-y,z
1/2+x,1/2-y,1/2-z
1/2-x,1/2+y,1/2-z
1/2-x,1/2-y,-z
1/2+x,1/2+y,-z
1/2-x,1/2+y,1/2+z
1/2+x,1/2-y,1/2+z
loop_
_atom_site_type_symbol
_atom_site_label
_atom_site_fract_x
_atom_site_fract_y
_atom_site_fract_z
Si Si1 0.236141 0.920595 0.816811
Si Si2 0.345704 0.857450 0.818494
Si Si3 0.447545 0.309720 0.683341
Si Si4 0.157685 0.194790 0.816758
Si Si5 0.550750 0.855048 0.816298
O O1 0.296531 0.908509 0.781678
O O2 0.204893 0.858014 0.725106
O O3 0.219177 0.000000 0.750000
O O4 0.223545 0.915232 0.000000
O O5 0.333412 0.773369 0.767381
O O6 0.394668 0.893999 0.725707
O O7 0.359554 0.857148 0.000000
O O8 0.500000 0.347697 0.750000
O O9 0.445274 0.322976 0.500000
O O10 0.396003 0.344207 0.761412
O O11 0.447854 0.222714 0.724353
O O12 0.155449 0.209749 0.000000
O O13 0.500000 0.899135 0.750000
O O14 0.545600 0.842370 0.000000
#
# Coordination Sequence:
#
# PCOD8275310 Si02
#       5
#    16  16  16  16  16
#     4  11  24  40  57  77 105 141 179 222 270 319
#     4  10  20  35  55  80 109 140 177 220 266 314
#     4  10  17  28  47  74 108 140 173 214 262 311
#     4  11  21  34  55  82 110 141 179 220 263 313
#     4  10  17  27  46  74 107 139 172 212 261 312
#
# _framework density 20.148627999999999
#
# number of rings (size 3 to 8) (size 9 to 14) (size 15 to 20)
#    0.000    1.600    0.000   10.800    0.000    5.600 
#    0.000    0.000    0.000    1.200    0.000    8.400 
#    0.000    0.000    0.000    0.000    0.000    0.000 
#
# Total GULP energy -495918.412869 kJ/mol
# GULP energy per Si atom -12397.960322 kJ/mol
# Density = 2.010277 g / cm^3
# Si number density = 20.148628 Si / 1000 Ang^3
#
#
#
# Elastic Constant Matrix: (Units=GPa)
#
#
# Indices 1 2 3 4 5 6 
#
# 1 90.6173 -3.1960 42.6570 0.0000 0.0000 0.0000
# 2 -3.1960 24.2665 1.4427 0.0000 0.0000 0.0000
# 3 42.6570 1.4427 62.4333 0.0000 0.0000 0.0000
# 4 0.0000 0.0000 0.0000 11.6856 0.0000 0.0000
# 5 0.0000 0.0000 0.0000 0.0000 39.8688 0.0000
# 6 0.0000 0.0000 0.0000 0.0000 0.0000 -26.3387
#
#
#
# Elastic Compliance Matrix: (Units=1/GPa)
#
#
# Indices 1 2 3 4 5 6 
#
# 1 0.016461 0.002840 -0.011312 0.000000 0.000000 0.000000
# 2 0.002840 0.041756 -0.002906 0.000000 0.000000 0.000000
# 3 -0.011312 -0.002906 0.023813 0.000000 0.000000 0.000000
# 4 0.000000 0.000000 0.000000 0.085575 0.000000 0.000000
# 5 0.000000 0.000000 0.000000 0.000000 0.025082 0.000000
# 6 0.000000 0.000000 0.000000 0.000000 0.000000 -0.037967
#
#
# Mechanical properties :
#
#
# Convention : Reuss Voigt Hill
#
# Bulk Modulus (GPa) = 16.87049 28.79160 22.83105
# Shear Modulus (GPa) = 25.35063 14.13738 19.74401
#
# Velocity S-wave (km/s) = 3.55093 2.65175 3.13376
# Velocity P-wave (km/s) = 5.02030 4.86789 4.94468
#
# Compressibility (1/GPa) = 0.05927511
#
# Stress axis : x y z
#
# Youngs Moduli (GPa) = 60.75061 23.94869 41.99343
#
# Poissons Ratio (x) = -0.06803 0.47504
# Poissons Ratio (y) = -0.17256 0.12202
# Poissons Ratio (z) = 0.68723 0.06959
#
# Static dielectric constant tensor:
#      x y z
#    x 4.820280 0.000000 0.000000 
#    y 0.000000 3.028850 0.000000 
#    z 0.000000 0.000000 3.723160 
# 
# 
# High freq. dielectric constant tensor:
#      x y z
#    x 1.819150 0.000000 0.000000 
#    y 0.000000 1.716760 0.000000 
#    z 0.000000 0.000000 1.806290 
# 
# From -- ./inp_files/10081.got.cif
#   From: 2010.03.12/outbox.cif.g09.slc.cpg/sg66_6_cif.got.tgz:10081.got - 2010.04.10 21:57:39.
