data_PCOD8275795
_publ_section_title
;
Structure prediction by ZEFSAII (Michael W. Deem and Ramdas Pophale) SiO2 
 PCOD8275795
Probable space group: C C C M
;
_chemical_formula_sum "Si O2"
_cell_formula_units_Z 128
_cell_length_a 17.585978
_cell_length_b 17.509917
_cell_length_c 24.803670
_cell_angle_alpha 90.000000
_cell_angle_beta 90.000000
_cell_angle_gamma 90.000000
_cell_volume 7637.769675
_symmetry_space_group_name_H-M "C C C M"
_symmetry_group_IT_number 66
_symmetry_cell_setting 'orthorhombic'
loop_
_space_group_symop_operation_xyz
x,y,z
-x,-y,z
x,-y,1/2-z
-x,y,1/2-z
-x,-y,-z
x,y,-z
-x,y,1/2+z
x,-y,1/2+z
1/2+x,1/2+y,z
1/2-x,1/2-y,z
1/2+x,1/2-y,1/2-z
1/2-x,1/2+y,1/2-z
1/2-x,1/2-y,-z
1/2+x,1/2+y,-z
1/2-x,1/2+y,1/2+z
1/2+x,1/2-y,1/2+z
loop_
_atom_site_type_symbol
_atom_site_label
_atom_site_fract_x
_atom_site_fract_y
_atom_site_fract_z
Si Si1 0.687975 0.313444 0.172461
Si Si2 0.215559 0.589406 0.246123
Si Si3 0.039054 0.172757 0.940046
Si Si4 0.131510 0.258187 0.136425
Si Si5 0.750196 0.128485 0.635885
Si Si6 0.366069 0.366419 0.560289
Si Si7 0.589823 0.215204 0.754793
Si Si8 0.847302 0.041526 0.561397
O O1 0.750000 0.250000 0.184317
O O2 0.720783 0.390771 0.200460
O O3 0.680808 0.326575 0.108227
O O4 0.610146 0.279482 0.199461
O O5 0.194934 0.500000 0.250000
O O6 0.257226 0.610709 0.301381
O O7 0.137030 0.636403 0.235812
O O8 0.058203 0.243037 0.900409
O O9 0.080658 0.094115 0.922389
O O10 0.949937 0.165293 0.937322
O O11 0.065727 0.194970 0.000000
O O12 0.193647 0.196242 0.119642
O O13 0.163950 0.343129 0.123861
O O14 0.113840 0.247016 0.198841
O O15 0.773258 0.057026 0.598659
O O16 0.330970 0.350379 0.500000
O O17 0.372539 0.455716 0.571624
O O18 0.500000 0.196808 0.750000
O O19 0.822362 0.055410 0.500000
#
# Coordination Sequence:
#
# PCOD8275795 Si02
#       8
#    16  16  16  16  16  16  16  16
#     4  10  20  34  51  70  91 123 160 193 236 281
#     4  10  19  32  50  70  94 123 156 194 236 282
#     4   9  17  28  44  66  92 123 153 184 226 276
#     4   9  16  28  45  65  90 118 150 188 231 277
#     4   9  16  28  45  65  90 118 150 188 231 277
#     4  10  19  31  46  65  91 121 156 194 230 269
#     4  10  19  32  50  70  94 123 156 194 236 282
#     4   9  17  28  44  66  92 123 153 184 226 276
#
# _framework density 16.758818999999999
#
# number of rings (size 3 to 8) (size 9 to 14) (size 15 to 20)
#    0.000    2.500    1.250    1.875    0.000    2.500 
#    0.000    2.500    0.000    0.000    0.000    0.000 
#    0.000    0.000    0.000   46.500    0.000    0.500 
#
# Total GULP energy -793024.385585 kJ/mol
# GULP energy per Si atom -12391.006025 kJ/mol
# Density = 1.672068 g / cm^3
# Si number density = 16.758819 Si / 1000 Ang^3
#
#
#
# Elastic Constant Matrix: (Units=GPa)
#
#
# Indices 1 2 3 4 5 6 
#
# 1 61.1462 22.1560 27.7151 0.0000 0.0000 0.0000
# 2 22.1560 54.2287 26.3871 0.0000 0.0000 0.0000
# 3 27.7151 26.3871 89.0216 0.0000 0.0000 0.0000
# 4 0.0000 0.0000 0.0000 24.4784 0.0000 0.0000
# 5 0.0000 0.0000 0.0000 0.0000 24.7373 0.0000
# 6 0.0000 0.0000 0.0000 0.0000 0.0000 13.6190
#
#
#
# Elastic Compliance Matrix: (Units=1/GPa)
#
#
# Indices 1 2 3 4 5 6 
#
# 1 0.020691 -0.006216 -0.004599 0.000000 0.000000 0.000000
# 2 -0.006216 0.023416 -0.005006 0.000000 0.000000 0.000000
# 3 -0.004599 -0.005006 0.014149 0.000000 0.000000 0.000000
# 4 0.000000 0.000000 0.000000 0.040852 0.000000 0.000000
# 5 0.000000 0.000000 0.000000 0.000000 0.040425 0.000000
# 6 0.000000 0.000000 0.000000 0.000000 0.000000 0.073427
#
#
# Mechanical properties :
#
#
# Convention : Reuss Voigt Hill
#
# Bulk Modulus (GPa) = 37.57366 39.65700 38.61533
# Shear Modulus (GPa) = 19.72601 21.10950 20.41775
#
# Velocity S-wave (km/s) = 3.43454 3.55294 3.49424
# Velocity P-wave (km/s) = 6.18037 6.36757 6.27467
#
# Compressibility (1/GPa) = 0.02661439
#
# Stress axis : x y z
#
# Youngs Moduli (GPa) = 48.32980 42.70655 70.67710
#
# Poissons Ratio (x) = 0.26545 0.32507
# Poissons Ratio (y) = 0.30040 0.35378
# Poissons Ratio (z) = 0.22229 0.21377
#
# Static dielectric constant tensor:
#      x y z
#    x 3.085530 0.000000 0.000000 
#    y 0.000000 3.094170 0.000000 
#    z 0.000000 0.000000 3.320250 
# 
# 
# High freq. dielectric constant tensor:
#      x y z
#    x 1.627450 0.000000 0.000000 
#    y 0.000000 1.627700 0.000000 
#    z 0.000000 0.000000 1.653760 
# 
# From -- ./inp_files/59021.got.cif
#   From: 2010.03.12/outbox.cif.g09.slc.cpg/sg66_30_cif.got.tgz:59021.got - 2010.04.10 21:57:39.
