data_PCOD8275394
_publ_section_title
;
Structure prediction by ZEFSAII (Michael W. Deem and Ramdas Pophale) SiO2 
 PCOD8275394
Probable space group: C C C M
;
_chemical_formula_sum "Si O2"
_cell_formula_units_Z 72
_cell_length_a 13.646739
_cell_length_b 15.638719
_cell_length_c 17.774547
_cell_angle_alpha 90.000000
_cell_angle_beta 90.000000
_cell_angle_gamma 90.000000
_cell_volume 3793.399677
_symmetry_space_group_name_H-M "C C C M"
_symmetry_group_IT_number 66
_symmetry_cell_setting 'orthorhombic'
loop_
_space_group_symop_operation_xyz
x,y,z
-x,-y,z
x,-y,1/2-z
-x,y,1/2-z
-x,-y,-z
x,y,-z
-x,y,1/2+z
x,-y,1/2+z
1/2+x,1/2+y,z
1/2-x,1/2-y,z
1/2+x,1/2-y,1/2-z
1/2-x,1/2+y,1/2-z
1/2-x,1/2-y,-z
1/2+x,1/2+y,-z
1/2-x,1/2+y,1/2+z
1/2+x,1/2-y,1/2+z
loop_
_atom_site_type_symbol
_atom_site_label
_atom_site_fract_x
_atom_site_fract_y
_atom_site_fract_z
Si Si1 0.463846 0.745062 0.835022
Si Si2 0.453432 0.917967 0.333053
Si Si3 0.944683 0.913405 0.087739
Si Si4 0.250000 0.750000 0.791900
Si Si5 0.730898 0.420435 0.698258
O O1 0.500000 0.726737 0.750000
O O2 0.520271 0.827132 0.871014
O O3 0.486549 0.663832 0.885831
O O4 0.347601 0.765647 0.840844
O O5 0.500000 0.912627 0.250000
O O6 0.338785 0.935239 0.333111
O O7 0.500000 0.000000 0.375964
O O8 0.840328 0.912768 0.127821
O O9 0.923981 0.904736 0.000000
O O10 0.000000 0.000000 0.108471
O O11 0.274060 0.667810 0.742423
O O12 0.698476 0.500000 0.750000
#
# Coordination Sequence:
#
# PCOD8275394 Si02
#       5
#    16  16  16   8  16
#     4  11  20  36  61  88 123 154 199 248 299 354
#     4  10  17  33  55  92 123 148 188 258 301 343
#     4  11  26  43  57  85 128 165 199 248 308 363
#     4  12  20  32  58  98 114 146 212 252 284 354
#     4  12  20  33  63  91 113 157 204 247 299 352
#
# _framework density 18.980336000000001
#
# number of rings (size 3 to 8) (size 9 to 14) (size 15 to 20)
#    0.000    0.889    8.889    1.333    0.000    0.000 
#    0.000    5.556    0.000    6.667    0.000    0.000 
#    0.000    0.000    0.000    0.000    0.000    0.000 
#
# Total GULP energy -446378.548239 kJ/mol
# GULP energy per Si atom -12399.404118 kJ/mol
# Density = 1.893714 g / cm^3
# Si number density = 18.980336 Si / 1000 Ang^3
#
#
#
# Elastic Constant Matrix: (Units=GPa)
#
#
# Indices 1 2 3 4 5 6 
#
# 1 138.3057 26.3841 47.3183 0.0000 0.0000 0.0000
# 2 26.3841 171.1724 50.1933 0.0000 0.0000 0.0000
# 3 47.3183 50.1933 46.8303 0.0000 0.0000 0.0000
# 4 0.0000 0.0000 0.0000 7.0348 0.0000 0.0000
# 5 0.0000 0.0000 0.0000 0.0000 18.6806 0.0000
# 6 0.0000 0.0000 0.0000 0.0000 0.0000 32.1959
#
#
#
# Elastic Compliance Matrix: (Units=1/GPa)
#
#
# Indices 1 2 3 4 5 6 
#
# 1 0.011703 0.002426 -0.014425 0.000000 0.000000 0.000000
# 2 0.002426 0.009023 -0.012122 0.000000 0.000000 0.000000
# 3 -0.014425 -0.012122 0.048921 0.000000 0.000000 0.000000
# 4 0.000000 0.000000 0.000000 0.142151 0.000000 0.000000
# 5 0.000000 0.000000 0.000000 0.000000 0.053531 0.000000
# 6 0.000000 0.000000 0.000000 0.000000 0.000000 0.031060
#
#
# Mechanical properties :
#
#
# Convention : Reuss Voigt Hill
#
# Bulk Modulus (GPa) = 46.71775 67.12220 56.91997
# Shear Modulus (GPa) = 14.21403 27.07645 20.64524
#
# Velocity S-wave (km/s) = 2.73954 3.78107 3.30163
# Velocity P-wave (km/s) = 5.88846 7.38260 6.67745
#
# Compressibility (1/GPa) = 0.02140514
#
# Stress axis : x y z
#
# Youngs Moduli (GPa) = 85.45023 110.83217 20.44099
#
# Poissons Ratio (x) = -0.26888 0.29486
# Poissons Ratio (y) = -0.20730 0.24778
# Poissons Ratio (z) = 1.23261 1.34350
#
# Static dielectric constant tensor:
#      x y z
#    x 3.821730 0.000000 0.000000 
#    y 0.000000 4.254810 0.000000 
#    z 0.000000 0.000000 2.943660 
# 
# 
# High freq. dielectric constant tensor:
#      x y z
#    x 1.758090 0.000000 0.000000 
#    y 0.000000 1.772480 0.000000 
#    z 0.000000 0.000000 1.671470 
# 
# From -- ./inp_files/40043.got.cif
#   From: 2010.03.12/outbox.cif.g09.slc.cpg/sg66_21_cif.got.tgz:40043.got - 2010.04.10 21:57:39.
