data_PCOD8275138
_publ_section_title
;
Structure prediction by ZEFSAII (Michael W. Deem and Ramdas Pophale) SiO2 
 PCOD8275138
Probable space group: C M M M
;
_chemical_formula_sum "Si O2"
_cell_formula_units_Z 120
_cell_length_a 9.915187
_cell_length_b 27.011895
_cell_length_c 25.188877
_cell_angle_alpha 90.000000
_cell_angle_beta 90.000000
_cell_angle_gamma 90.000000
_cell_volume 6746.286301
_symmetry_space_group_name_H-M "C M M M"
_symmetry_group_IT_number 65
_symmetry_cell_setting 'orthorhombic'
loop_
_space_group_symop_operation_xyz
x,y,z
-x,-y,z
x,-y,-z
-x,y,-z
-x,-y,-z
x,y,-z
-x,y,z
x,-y,z
1/2+x,1/2+y,z
1/2-x,1/2-y,z
1/2+x,1/2-y,-z
1/2-x,1/2+y,-z
1/2-x,1/2-y,-z
1/2+x,1/2+y,-z
1/2-x,1/2+y,z
1/2+x,1/2-y,z
loop_
_atom_site_type_symbol
_atom_site_label
_atom_site_fract_x
_atom_site_fract_y
_atom_site_fract_z
Si Si1 0.342613 0.101098 0.057298
Si Si2 0.343425 0.203488 0.437448
Si Si3 0.660417 0.000000 0.440083
Si Si4 0.838991 0.399817 0.384177
Si Si5 0.346850 0.206896 0.902617
Si Si6 0.347156 0.893534 0.267118
Si Si7 0.148864 0.709456 0.218142
Si Si8 0.654303 0.942209 0.836155
O O1 0.500000 0.087748 0.057277
O O2 0.319372 0.159588 0.061264
O O3 0.274491 0.074260 0.108367
O O4 0.281207 0.083816 0.000000
O O5 0.328763 0.195458 0.500000
O O6 0.500000 0.214506 0.422245
O O7 0.250000 0.250000 0.418853
O O8 0.291235 0.152004 0.410769
O O9 0.715725 0.050838 0.413611
O O10 0.500000 0.000000 0.437295
O O11 0.713304 0.000000 0.500000
O O12 0.779580 0.404152 0.324124
O O13 0.000000 0.399359 0.383984
O O14 0.500000 0.225445 0.908570
O O15 0.250000 0.250000 0.923241
O O16 0.313889 0.192251 0.841577
O O17 0.500000 0.913694 0.269164
O O18 0.342342 0.835140 0.258888
O O19 0.273768 0.919996 0.216718
O O20 0.250000 0.750000 0.240282
O O21 0.000000 0.732902 0.218437
O O22 0.500000 0.922020 0.837403
O O23 0.661878 0.000000 0.831407
#
# Coordination Sequence:
#
# PCOD8275138 Si02
#       8
#    16  16   8  16  16  16  16  16
#     4   9  16  26  39  56  80 109 141 176 215 258
#     4   9  17  30  47  67  93 124 157 192 229 270
#     4   9  16  26  40  60  89 121 150 184 228 274
#     4   9  17  26  40  63  89 118 151 187 227 273
#     4   9  16  27  42  60  83 112 142 172 210 255
#     4   9  16  26  39  58  85 114 144 179 220 263
#     4   9  16  27  43  61  86 117 146 177 215 259
#     4   9  16  25  38  55  79 112 144 176 216 261
#
# _framework density 17.787564
#
# number of rings (size 3 to 8) (size 9 to 14) (size 15 to 20)
#    0.000    3.000    1.333    0.400    0.933    2.667 
#    0.000    1.333    0.000    0.000    0.000    0.467 
#    0.000    4.800    0.000    1.200    0.000    1.333 
#
# Total GULP energy -743404.914338 kJ/mol
# GULP energy per Si atom -12390.081906 kJ/mol
# Density = 1.774708 g / cm^3
# Si number density = 17.787564 Si / 1000 Ang^3
#
#
#
# Elastic Constant Matrix: (Units=GPa)
#
#
# Indices 1 2 3 4 5 6 
#
# 1 24.7488 23.7517 17.0735 0.0000 0.0000 0.0000
# 2 23.7517 103.9877 66.4607 0.0000 0.0000 0.0000
# 3 17.0735 66.4607 146.5139 0.0000 0.0000 0.0000
# 4 0.0000 0.0000 0.0000 14.5097 0.0000 0.0000
# 5 0.0000 0.0000 0.0000 0.0000 5.1596 0.0000
# 6 0.0000 0.0000 0.0000 0.0000 0.0000 16.3780
#
#
#
# Elastic Compliance Matrix: (Units=1/GPa)
#
#
# Indices 1 2 3 4 5 6 
#
# 1 0.051842 -0.011238 -0.000943 0.000000 0.000000 0.000000
# 2 -0.011238 0.015979 -0.005939 0.000000 0.000000 0.000000
# 3 -0.000943 -0.005939 0.009629 0.000000 0.000000 0.000000
# 4 0.000000 0.000000 0.000000 0.068920 0.000000 0.000000
# 5 0.000000 0.000000 0.000000 0.000000 0.193812 0.000000
# 6 0.000000 0.000000 0.000000 0.000000 0.000000 0.061057
#
#
# Mechanical properties :
#
#
# Convention : Reuss Voigt Hill
#
# Bulk Modulus (GPa) = 24.26619 54.42471 39.34545
# Shear Modulus (GPa) = 11.08114 18.40709 14.74412
#
# Velocity S-wave (km/s) = 2.49865 3.22037 2.88219
# Velocity P-wave (km/s) = 4.69001 6.67017 5.76573
#
# Compressibility (1/GPa) = 0.04120960
#
# Stress axis : x y z
#
# Youngs Moduli (GPa) = 19.28928 62.58230 103.85191
#
# Poissons Ratio (x) = 0.70332 0.09798
# Poissons Ratio (y) = 0.21678 0.61674
# Poissons Ratio (z) = 0.01820 0.37166
#
# Static dielectric constant tensor:
#      x y z
#    x 2.707270 0.000000 0.000000 
#    y 0.000000 3.279110 0.000000 
#    z 0.000000 0.000000 3.610250 
# 
# 
# High freq. dielectric constant tensor:
#      x y z
#    x 1.598510 0.000000 0.000000 
#    y 0.000000 1.690770 0.000000 
#    z 0.000000 0.000000 1.705050 
# 
# From -- ./inp_files/69304.got.cif
#   From: 2010.03.12/outbox.cif.g09.slc.cpg/sg65_35_cif.got.tgz:69304.got - 2010.04.10 20:52:16.
