data_PCOD8275385
_publ_section_title
;
Structure prediction by ZEFSAII (Michael W. Deem and Ramdas Pophale) SiO2 
 PCOD8275385
Probable space group: C C C M
;
_chemical_formula_sum "Si O2"
_cell_formula_units_Z 96
_cell_length_a 14.070825
_cell_length_b 18.376952
_cell_length_c 20.630864
_cell_angle_alpha 90.000000
_cell_angle_beta 90.000000
_cell_angle_gamma 90.000000
_cell_volume 5334.705616
_symmetry_space_group_name_H-M "C C C M"
_symmetry_group_IT_number 66
_symmetry_cell_setting 'orthorhombic'
loop_
_space_group_symop_operation_xyz
x,y,z
-x,-y,z
x,-y,1/2-z
-x,y,1/2-z
-x,-y,-z
x,y,-z
-x,y,1/2+z
x,-y,1/2+z
1/2+x,1/2+y,z
1/2-x,1/2-y,z
1/2+x,1/2-y,1/2-z
1/2-x,1/2+y,1/2-z
1/2-x,1/2-y,-z
1/2+x,1/2+y,-z
1/2-x,1/2+y,1/2+z
1/2+x,1/2-y,1/2+z
loop_
_atom_site_type_symbol
_atom_site_label
_atom_site_fract_x
_atom_site_fract_y
_atom_site_fract_z
Si Si1 0.682816 0.414693 0.640900
Si Si2 0.644206 0.566317 0.000000
Si Si3 0.792937 0.082309 0.140288
Si Si4 0.296797 0.591782 0.000000
Si Si5 0.295019 0.829453 0.744319
Si Si6 0.490949 0.334874 0.360933
Si Si7 0.019854 0.831779 0.000000
Si Si8 0.500000 0.778305 0.750000
O O1 0.699484 0.404480 0.563799
O O2 0.696126 0.498537 0.661281
O O3 0.758664 0.366149 0.678623
O O4 0.578122 0.386170 0.660876
O O5 0.637963 0.479889 0.000000
O O6 0.534775 0.590668 0.000000
O O7 0.740227 0.091425 0.069057
O O8 0.729995 0.123052 0.192957
O O9 0.898311 0.114884 0.135059
O O10 0.366584 0.660619 0.000000
O O11 0.250000 0.750000 0.752063
O O12 0.408562 0.827855 0.736801
O O13 0.509534 0.295055 0.431316
O O14 0.474493 0.270990 0.311025
#
# Coordination Sequence:
#
# PCOD8275385 Si02
#       8
#    16   8  16   8  16  16   8   8
#     4  10  19  34  57  84 109 138 176 220 268 316
#     4   8  15  28  50  80 111 135 165 214 269 318
#     4  10  19  34  57  84 109 138 176 220 268 316
#     4   8  15  28  50  80 111 135 165 214 269 318
#     4  12  23  38  53  76 107 145 181 219 261 314
#     4  10  17  32  54  83 112 137 168 216 269 322
#     4   8  15  24  46  80 112 138 161 200 268 328
#     4  12  24  38  52  70 110 148 178 214 266 308
#
# _framework density 17.995370000000001
#
# number of rings (size 3 to 8) (size 9 to 14) (size 15 to 20)
#    0.000    2.000    3.333    1.250    0.000    4.000 
#    0.000    6.667    0.000    0.000    0.000    3.500 
#    0.000    0.000    0.000    0.000    0.000    0.000 
#
# Total GULP energy -594694.651592 kJ/mol
# GULP energy per Si atom -12389.471908 kJ/mol
# Density = 1.795441 g / cm^3
# Si number density = 17.995370 Si / 1000 Ang^3
#
#
#
# Elastic Constant Matrix: (Units=GPa)
#
#
# Indices 1 2 3 4 5 6 
#
# 1 73.4637 20.5929 16.5006 0.0000 0.0000 0.0000
# 2 20.5929 57.5685 31.3701 0.0000 0.0000 0.0000
# 3 16.5006 31.3701 106.0558 0.0000 0.0000 0.0000
# 4 0.0000 0.0000 0.0000 -15.9804 0.0000 0.0000
# 5 0.0000 0.0000 0.0000 0.0000 15.2836 0.0000
# 6 0.0000 0.0000 0.0000 0.0000 0.0000 26.0733
#
#
#
# Elastic Compliance Matrix: (Units=1/GPa)
#
#
# Indices 1 2 3 4 5 6 
#
# 1 0.015201 -0.004946 -0.000902 0.000000 0.000000 0.000000
# 2 -0.004946 0.022318 -0.005832 0.000000 0.000000 0.000000
# 3 -0.000902 -0.005832 0.011294 0.000000 0.000000 0.000000
# 4 0.000000 0.000000 0.000000 -0.062577 0.000000 0.000000
# 5 0.000000 0.000000 0.000000 0.000000 0.065430 0.000000
# 6 0.000000 0.000000 0.000000 0.000000 0.000000 0.038353
#
#
# Mechanical properties :
#
#
# Convention : Reuss Voigt Hill
#
# Bulk Modulus (GPa) = 39.28752 41.55723 40.42238
# Shear Modulus (GPa) = 41.02936 16.31693 28.67314
#
# Velocity S-wave (km/s) = 4.78011 3.01446 3.99602
# Velocity P-wave (km/s) = 7.23501 5.93796 6.61834
#
# Compressibility (1/GPa) = 0.02545337
#
# Stress axis : x y z
#
# Youngs Moduli (GPa) = 65.78416 44.80749 88.54006
#
# Poissons Ratio (x) = 0.22162 0.07987
# Poissons Ratio (y) = 0.32537 0.51635
# Poissons Ratio (z) = 0.05934 0.26131
#
# Static dielectric constant tensor:
#      x y z
#    x 3.019600 0.000000 0.000000 
#    y 0.000000 3.116400 0.000000 
#    z 0.000000 0.000000 3.890800 
# 
# 
# High freq. dielectric constant tensor:
#      x y z
#    x 1.656020 0.000000 0.000000 
#    y 0.000000 1.670670 0.000000 
#    z 0.000000 0.000000 1.727760 
# 
# From -- ./inp_files/48864.got.cif
#   From: 2010.03.12/outbox.cif.g09.slc.cpg/sg66_25_cif.got.tgz:48864.got - 2010.04.10 21:57:39.
