data_PCOD8275473
_publ_section_title
;
Structure prediction by ZEFSAII (Michael W. Deem and Ramdas Pophale) SiO2 
 PCOD8275473
Probable space group: C C C M
;
_chemical_formula_sum "Si O2"
_cell_formula_units_Z 80
_cell_length_a 13.636896
_cell_length_b 17.602422
_cell_length_c 18.313958
_cell_angle_alpha 90.000000
_cell_angle_beta 90.000000
_cell_angle_gamma 90.000000
_cell_volume 4396.126398
_symmetry_space_group_name_H-M "C C C M"
_symmetry_group_IT_number 66
_symmetry_cell_setting 'orthorhombic'
loop_
_space_group_symop_operation_xyz
x,y,z
-x,-y,z
x,-y,1/2-z
-x,y,1/2-z
-x,-y,-z
x,y,-z
-x,y,1/2+z
x,-y,1/2+z
1/2+x,1/2+y,z
1/2-x,1/2-y,z
1/2+x,1/2-y,1/2-z
1/2-x,1/2+y,1/2-z
1/2-x,1/2-y,-z
1/2+x,1/2+y,-z
1/2-x,1/2+y,1/2+z
1/2+x,1/2-y,1/2+z
loop_
_atom_site_type_symbol
_atom_site_label
_atom_site_fract_x
_atom_site_fract_y
_atom_site_fract_z
Si Si1 0.786329 0.171527 0.290578
Si Si2 0.661082 0.145673 0.918469
Si Si3 0.529156 0.584356 0.833565
Si Si4 0.103170 0.585958 0.772250
Si Si5 0.365751 0.689567 0.131514
O O1 0.750000 0.250000 0.330903
O O2 0.857819 0.115593 0.338661
O O3 0.690724 0.124346 0.271220
O O4 0.841426 0.198994 0.217201
O O5 0.615726 0.088185 0.859836
O O6 0.616277 0.228489 0.902995
O O7 0.778483 0.147099 0.910532
O O8 0.633004 0.118909 0.000000
O O9 0.500000 0.500000 0.863361
O O10 0.500000 0.586288 0.750000
O O11 0.464223 0.641997 0.880830
O O12 0.101459 0.500000 0.750000
O O13 0.000000 0.625319 0.750000
#
# Coordination Sequence:
#
# PCOD8275473 Si02
#       5
#    16  16  16  16  16
#     4  10  18  29  50  80 113 145 182 233 287 338
#     4  10  19  33  57  81 107 145 186 232 277 329
#     4   9  19  28  47  80 115 151 181 230 289 345
#     4  10  22  36  54  81 112 143 183 237 284 328
#     4   9  16  30  49  78 112 141 184 226 276 326
#
# _framework density 18.197839999999999
#
# number of rings (size 3 to 8) (size 9 to 14) (size 15 to 20)
#    0.000    2.400    4.000    1.200   11.200    0.000 
#    0.000    2.000    0.000    2.400    0.000    1.400 
#    0.000    0.000    0.000    0.000    0.000    0.000 
#
# Total GULP energy -495601.439791 kJ/mol
# GULP energy per Si atom -12390.035995 kJ/mol
# Density = 1.815642 g / cm^3
# Si number density = 18.197840 Si / 1000 Ang^3
#
#
#
# Elastic Constant Matrix: (Units=GPa)
#
#
# Indices 1 2 3 4 5 6 
#
# 1 134.5448 73.4240 32.7897 0.0000 0.0000 0.0000
# 2 73.4240 83.0053 41.0399 0.0000 0.0000 0.0000
# 3 32.7897 41.0399 74.0297 0.0000 0.0000 0.0000
# 4 0.0000 0.0000 0.0000 10.1365 0.0000 0.0000
# 5 0.0000 0.0000 0.0000 0.0000 10.5371 0.0000
# 6 0.0000 0.0000 0.0000 0.0000 0.0000 31.3000
#
#
#
# Elastic Compliance Matrix: (Units=1/GPa)
#
#
# Indices 1 2 3 4 5 6 
#
# 1 0.014416 -0.013218 0.000942 0.000000 0.000000 0.000000
# 2 -0.013218 0.028716 -0.010065 0.000000 0.000000 0.000000
# 3 0.000942 -0.010065 0.018670 0.000000 0.000000 0.000000
# 4 0.000000 0.000000 0.000000 0.098653 0.000000 0.000000
# 5 0.000000 0.000000 0.000000 0.000000 0.094903 0.000000
# 6 0.000000 0.000000 0.000000 0.000000 0.000000 0.031949
#
#
# Mechanical properties :
#
#
# Convention : Reuss Voigt Hill
#
# Bulk Modulus (GPa) = 58.40533 65.12077 61.76305
# Shear Modulus (GPa) = 14.80626 20.01647 17.41137
#
# Velocity S-wave (km/s) = 2.85551 3.32013 3.09655
# Velocity P-wave (km/s) = 6.56020 7.11057 6.84092
#
# Compressibility (1/GPa) = 0.01712172
#
# Stress axis : x y z
#
# Youngs Moduli (GPa) = 69.36643 34.82382 53.56121
#
# Poissons Ratio (x) = 0.46030 -0.05048
# Poissons Ratio (y) = 0.91689 0.53908
# Poissons Ratio (z) = -0.06537 0.35049
#
# Static dielectric constant tensor:
#      x y z
#    x 4.096850 0.000000 0.000000 
#    y 0.000000 3.511200 0.000000 
#    z 0.000000 0.000000 2.902700 
# 
# 
# High freq. dielectric constant tensor:
#      x y z
#    x 1.707630 0.000000 0.000000 
#    y 0.000000 1.706520 0.000000 
#    z 0.000000 0.000000 1.647430 
# 
# From -- ./inp_files/40199.got.cif
#   From: 2010.03.12/outbox.cif.g09.slc.cpg/sg66_21_cif.got.tgz:40199.got - 2010.04.10 21:57:39.
