data_PCOD8275920
_publ_section_title
;
Structure prediction by ZEFSAII (Michael W. Deem and Ramdas Pophale) SiO2 
 PCOD8275920
Probable space group: C C C M
;
_chemical_formula_sum "Si O2"
_cell_formula_units_Z 80
_cell_length_a 8.421868
_cell_length_b 16.791201
_cell_length_c 27.110735
_cell_angle_alpha 90.000000
_cell_angle_beta 90.000000
_cell_angle_gamma 90.000000
_cell_volume 3833.817916
_symmetry_space_group_name_H-M "C C C M"
_symmetry_group_IT_number 66
_symmetry_cell_setting 'orthorhombic'
loop_
_space_group_symop_operation_xyz
x,y,z
-x,-y,z
x,-y,1/2-z
-x,y,1/2-z
-x,-y,-z
x,y,-z
-x,y,1/2+z
x,-y,1/2+z
1/2+x,1/2+y,z
1/2-x,1/2-y,z
1/2+x,1/2-y,1/2-z
1/2-x,1/2+y,1/2-z
1/2-x,1/2-y,-z
1/2+x,1/2+y,-z
1/2-x,1/2+y,1/2+z
1/2+x,1/2-y,1/2+z
loop_
_atom_site_type_symbol
_atom_site_label
_atom_site_fract_x
_atom_site_fract_y
_atom_site_fract_z
Si Si1 0.541164 0.376512 0.555578
Si Si2 0.576003 0.769343 0.120986
Si Si3 0.645508 0.452084 0.144243
Si Si4 0.866601 0.441978 0.589612
Si Si5 0.882325 0.194239 0.792848
O O1 0.475375 0.380655 0.500000
O O2 0.551660 0.284409 0.572062
O O3 0.416599 0.420506 0.590989
O O4 0.716220 0.417770 0.555823
O O5 0.750000 0.750000 0.141945
O O6 0.547273 0.861565 0.107776
O O7 0.457522 0.746877 0.164057
O O8 0.500000 0.500000 0.169021
O O9 0.797251 0.508971 0.136500
O O10 0.694623 0.383458 0.182148
O O11 0.000000 0.500000 0.564055
O O12 0.750000 0.250000 0.767866
O O13 0.000000 0.167157 0.750000
#
# Coordination Sequence:
#
# PCOD8275920 Si02
#       5
#    16  16  16  16  16
#     4   9  19  36  55  75 106 150 187 213 256 322
#     4   9  19  36  57  78 107 143 181 219 262 317
#     4   9  20  37  57  78 106 144 179 216 263 320
#     4  10  19  32  54  81 109 136 173 228 274 303
#     4  11  22  37  58  81 106 138 176 216 264 321
#
# _framework density 20.866927
#
# number of rings (size 3 to 8) (size 9 to 14) (size 15 to 20)
#    0.000    2.400    0.000    3.000    0.000    8.000 
#    0.000    0.000    0.000   24.600    0.000    0.000 
#    0.000    0.000    0.000    0.000    0.000    0.000 
#
# Total GULP energy -495760.061241 kJ/mol
# GULP energy per Si atom -12394.001531 kJ/mol
# Density = 2.081943 g / cm^3
# Si number density = 20.866927 Si / 1000 Ang^3
#
#
#
# Elastic Constant Matrix: (Units=GPa)
#
#
# Indices 1 2 3 4 5 6 
#
# 1 39.3813 26.5338 6.6478 0.0000 0.0000 0.0000
# 2 26.5338 157.2268 36.6359 0.0000 0.0000 0.0000
# 3 6.6478 36.6359 84.4509 0.0000 0.0000 0.0000
# 4 0.0000 0.0000 0.0000 -5.4378 0.0000 0.0000
# 5 0.0000 0.0000 0.0000 0.0000 11.1600 0.0000
# 6 0.0000 0.0000 0.0000 0.0000 0.0000 32.8638
#
#
#
# Elastic Compliance Matrix: (Units=1/GPa)
#
#
# Indices 1 2 3 4 5 6 
#
# 1 0.028653 -0.004795 -0.000176 0.000000 0.000000 0.000000
# 2 -0.004795 0.007878 -0.003040 0.000000 0.000000 0.000000
# 3 -0.000176 -0.003040 0.013174 0.000000 0.000000 0.000000
# 4 0.000000 0.000000 0.000000 -0.183899 0.000000 0.000000
# 5 0.000000 0.000000 0.000000 0.000000 0.089606 0.000000
# 6 0.000000 0.000000 0.000000 0.000000 0.000000 0.030429
#
#
# Mechanical properties :
#
#
# Convention : Reuss Voigt Hill
#
# Bulk Modulus (GPa) = 29.68764 46.74378 38.21571
# Shear Modulus (GPa) = 382.02352 21.79997 201.91175
#
# Velocity S-wave (km/s) = 13.54524 3.23571 9.84742
# Velocity P-wave (km/s) = 16.09004 6.03401 12.15110
#
# Compressibility (1/GPa) = 0.03368405
#
# Stress axis : x y z
#
# Youngs Moduli (GPa) = 34.90061 126.93973 75.90808
#
# Poissons Ratio (x) = 0.60862 0.01332
# Poissons Ratio (y) = 0.16733 0.23076
# Poissons Ratio (z) = 0.00613 0.38590
#
# Static dielectric constant tensor:
#      x y z
#    x 3.525670 0.000000 0.000000 
#    y 0.000000 4.128270 0.000000 
#    z 0.000000 0.000000 3.290700 
# 
# 
# High freq. dielectric constant tensor:
#      x y z
#    x 1.807870 0.000000 0.000000 
#    y 0.000000 1.838880 0.000000 
#    z 0.000000 0.000000 1.777130 
# 
# From -- ./inp_files/62390.got.cif
#   From: 2010.03.12/outbox.cif.g09.slc.cpg/sg66_32_cif.got.tgz:62390.got - 2010.04.10 21:57:39.
