data_PCOD8275995
_publ_section_title
;
Structure prediction by ZEFSAII (Michael W. Deem and Ramdas Pophale) SiO2 
 PCOD8275995
Probable space group: C C C M
;
_chemical_formula_sum "Si O2"
_cell_formula_units_Z 120
_cell_length_a 25.506189
_cell_length_b 15.988444
_cell_length_c 14.294367
_cell_angle_alpha 90.000000
_cell_angle_beta 90.000000
_cell_angle_gamma 90.000000
_cell_volume 5829.303964
_symmetry_space_group_name_H-M "C C C M"
_symmetry_group_IT_number 66
_symmetry_cell_setting 'orthorhombic'
loop_
_space_group_symop_operation_xyz
x,y,z
-x,-y,z
x,-y,1/2-z
-x,y,1/2-z
-x,-y,-z
x,y,-z
-x,y,1/2+z
x,-y,1/2+z
1/2+x,1/2+y,z
1/2-x,1/2-y,z
1/2+x,1/2-y,1/2-z
1/2-x,1/2+y,1/2-z
1/2-x,1/2-y,-z
1/2+x,1/2+y,-z
1/2-x,1/2+y,1/2+z
1/2+x,1/2-y,1/2+z
loop_
_atom_site_type_symbol
_atom_site_label
_atom_site_fract_x
_atom_site_fract_y
_atom_site_fract_z
Si Si1 0.533592 0.160854 0.105924
Si Si2 0.873101 0.595626 0.273666
Si Si3 0.639803 0.618304 0.393854
Si Si4 0.026888 0.151123 0.649039
Si Si5 0.414913 0.812374 0.607486
Si Si6 0.195133 0.712568 0.107974
Si Si7 0.365106 0.500000 0.750000
Si Si8 0.580396 0.382299 0.601313
O O1 0.571516 0.106781 0.172304
O O2 0.545998 0.258735 0.113508
O O3 0.472413 0.149727 0.131987
O O4 0.544702 0.131228 0.000000
O O5 0.861766 0.500000 0.250000
O O6 0.873568 0.642679 0.174372
O O7 0.824592 0.632626 0.333907
O O8 0.651626 0.590763 0.500000
O O9 0.579626 0.596668 0.363268
O O10 0.652264 0.715000 0.379384
O O11 0.670640 0.557349 0.320361
O O12 0.000000 0.155923 0.750000
O O13 0.982364 0.108849 0.585456
O O14 0.400715 0.831140 0.500000
O O15 0.410591 0.714416 0.629777
O O16 0.250000 0.750000 0.145508
O O17 0.201271 0.684853 0.000000
O O18 0.399237 0.561326 0.684702
O O19 0.606685 0.403347 0.500000
#
# Coordination Sequence:
#
# PCOD8275995 Si02
#       8
#    16  16  16  16  16  16   8  16
#     4  10  19  33  55  84 124 168 206 241 282 345
#     4  12  23  36  61  97 125 154 199 252 308 361
#     4  11  22  37  60  85 112 157 204 246 303 364
#     4  11  18  32  53  78 112 158 208 237 277 338
#     4   9  20  37  56  83 125 175 210 234 279 359
#     4  10  23  46  71  90 113 150 201 259 319 379
#     4  12  22  35  50  86 122 154 192 252 301 348
#     4  10  20  33  49  72 112 161 200 235 276 333
#
# _framework density 20.585647999999999
#
# number of rings (size 3 to 8) (size 9 to 14) (size 15 to 20)
#    0.000    1.467    2.667    5.600    0.000    3.200 
#    1.200    2.667    0.000    0.400    0.000    0.000 
#    0.000    0.000    0.000    0.000    0.000    0.000 
#
# Total GULP energy -743473.149761 kJ/mol
# GULP energy per Si atom -12391.219163 kJ/mol
# Density = 2.053879 g / cm^3
# Si number density = 20.585648 Si / 1000 Ang^3
#
#
#
# Elastic Constant Matrix: (Units=GPa)
#
#
# Indices 1 2 3 4 5 6 
#
# 1 57.0839 26.9860 38.0323 0.0000 0.0000 0.0000
# 2 26.9860 100.4411 70.2078 0.0000 0.0000 0.0000
# 3 38.0323 70.2078 140.0180 0.0000 0.0000 0.0000
# 4 0.0000 0.0000 0.0000 4.7480 0.0000 0.0000
# 5 0.0000 0.0000 0.0000 0.0000 28.1990 0.0000
# 6 0.0000 0.0000 0.0000 0.0000 0.0000 13.7823
#
#
#
# Elastic Compliance Matrix: (Units=1/GPa)
#
#
# Indices 1 2 3 4 5 6 
#
# 1 0.021837 -0.002650 -0.004603 0.000000 0.000000 0.000000
# 2 -0.002650 0.015650 -0.007128 0.000000 0.000000 0.000000
# 3 -0.004603 -0.007128 0.011966 0.000000 0.000000 0.000000
# 4 0.000000 0.000000 0.000000 0.210615 0.000000 0.000000
# 5 0.000000 0.000000 0.000000 0.000000 0.035462 0.000000
# 6 0.000000 0.000000 0.000000 0.000000 0.000000 0.072557
#
#
# Mechanical properties :
#
#
# Convention : Reuss Voigt Hill
#
# Bulk Modulus (GPa) = 48.32503 63.11056 55.71780
# Shear Modulus (GPa) = 12.38404 20.16700 16.27552
#
# Velocity S-wave (km/s) = 2.45539 3.13335 2.81486
# Velocity P-wave (km/s) = 5.61824 6.61926 6.13919
#
# Compressibility (1/GPa) = 0.02069321
#
# Stress axis : x y z
#
# Youngs Moduli (GPa) = 45.79290 63.89727 83.56936
#
# Poissons Ratio (x) = 0.16931 0.38467
# Poissons Ratio (y) = 0.12134 0.59564
# Poissons Ratio (z) = 0.21078 0.45543
#
# Static dielectric constant tensor:
#      x y z
#    x 3.331760 0.000000 0.000000 
#    y 0.000000 3.672350 0.000000 
#    z 0.000000 0.000000 4.196420 
# 
# 
# High freq. dielectric constant tensor:
#      x y z
#    x 1.748360 0.000000 0.000000 
#    y 0.000000 1.794010 0.000000 
#    z 0.000000 0.000000 1.830610 
# 
# From -- ./inp_files/34007.got.cif
#   From: 2010.03.12/outbox.cif.g09.slc.cpg/sg66_18_cif.got.tgz:34007.got - 2010.04.10 21:57:39.
