data_PCOD8275260
_publ_section_title
;
Structure prediction by ZEFSAII (Michael W. Deem and Ramdas Pophale) SiO2 
 PCOD8275260
Probable space group: C C C M
;
_chemical_formula_sum "Si O2"
_cell_formula_units_Z 92
_cell_length_a 21.010330
_cell_length_b 24.502780
_cell_length_c 9.362507
_cell_angle_alpha 90.000000
_cell_angle_beta 90.000000
_cell_angle_gamma 90.000000
_cell_volume 4819.926214
_symmetry_space_group_name_H-M "C C C M"
_symmetry_group_IT_number 66
_symmetry_cell_setting 'orthorhombic'
loop_
_space_group_symop_operation_xyz
x,y,z
-x,-y,z
x,-y,1/2-z
-x,y,1/2-z
-x,-y,-z
x,y,-z
-x,y,1/2+z
x,-y,1/2+z
1/2+x,1/2+y,z
1/2-x,1/2-y,z
1/2+x,1/2-y,1/2-z
1/2-x,1/2+y,1/2-z
1/2-x,1/2-y,-z
1/2+x,1/2+y,-z
1/2-x,1/2+y,1/2+z
1/2+x,1/2-y,1/2+z
loop_
_atom_site_type_symbol
_atom_site_label
_atom_site_fract_x
_atom_site_fract_y
_atom_site_fract_z
Si Si1 0.685297 0.353562 0.842732
Si Si2 0.562451 0.700477 0.328732
Si Si3 0.750000 0.250000 0.247467
Si Si4 0.880641 0.704487 0.840734
Si Si5 0.230303 0.551195 0.829032
Si Si6 0.109550 0.422345 0.840260
Si Si7 0.000000 0.500000 0.750000
O O1 0.616069 0.342773 0.774251
O O2 0.720338 0.295670 0.853736
O O3 0.729291 0.397993 0.764723
O O4 0.674583 0.376870 0.000000
O O5 0.500000 0.679274 0.250000
O O6 0.555755 0.701521 0.500000
O O7 0.580129 0.760984 0.275143
O O8 0.805291 0.279991 0.339406
O O9 0.897815 0.641831 0.804571
O O10 0.905446 0.718295 0.000000
O O11 0.262559 0.500000 0.750000
O O12 0.157405 0.554641 0.778371
O O13 0.230815 0.546199 0.000000
O O14 0.044448 0.457825 0.838565
O O15 0.138428 0.428047 0.000000
#
# Coordination Sequence:
#
# PCOD8275260 Si02
#       7
#    16  16   8  16  16  16   4
#     4   9  19  34  57  85 116 150 189 236 292 354
#     4  10  21  38  58  84 116 152 190 230 284 355
#     4  10  16  32  56  86 115 146 185 238 299 356
#     4  10  21  35  54  83 117 150 188 239 294 350
#     4  11  22  39  61  87 114 148 190 242 294 344
#     4  11  24  41  57  79 110 152 202 248 290 337
#     4  12  26  40  60  78 110 164 212 256 276 328
#
# _framework density 19.087429
#
# number of rings (size 3 to 8) (size 9 to 14) (size 15 to 20)
#    0.000    1.739    2.609    1.826    1.217    2.087 
#    0.000    2.609    0.000    0.522    0.000    3.652 
#    0.000    0.000    0.000    0.000    0.000    0.000 
#
# Total GULP energy -569864.411724 kJ/mol
# GULP energy per Si atom -12388.356777 kJ/mol
# Density = 1.904399 g / cm^3
# Si number density = 19.087429 Si / 1000 Ang^3
#
#
#
# Elastic Constant Matrix: (Units=GPa)
#
#
# Indices 1 2 3 4 5 6 
#
# 1 127.9257 66.1151 35.9494 0.0000 0.0000 0.0000
# 2 66.1151 127.8904 36.3077 0.0000 0.0000 0.0000
# 3 35.9494 36.3077 93.2921 0.0000 0.0000 0.0000
# 4 0.0000 0.0000 0.0000 21.1590 0.0000 0.0000
# 5 0.0000 0.0000 0.0000 0.0000 20.8128 0.0000
# 6 0.0000 0.0000 0.0000 0.0000 0.0000 33.9676
#
#
#
# Elastic Compliance Matrix: (Units=1/GPa)
#
#
# Indices 1 2 3 4 5 6 
#
# 1 0.011088 -0.005080 -0.002295 0.000000 0.000000 0.000000
# 2 -0.005080 0.011118 -0.002369 0.000000 0.000000 0.000000
# 3 -0.002295 -0.002369 0.012526 0.000000 0.000000 0.000000
# 4 0.000000 0.000000 0.000000 0.047261 0.000000 0.000000
# 5 0.000000 0.000000 0.000000 0.000000 0.048047 0.000000
# 6 0.000000 0.000000 0.000000 0.000000 0.000000 0.029440
#
#
# Mechanical properties :
#
#
# Convention : Reuss Voigt Hill
#
# Bulk Modulus (GPa) = 65.61065 69.53918 67.57492
# Shear Modulus (GPa) = 27.16644 29.23693 28.20168
#
# Velocity S-wave (km/s) = 3.77671 3.91799 3.84800
# Velocity P-wave (km/s) = 7.31207 7.54841 7.43118
#
# Compressibility (1/GPa) = 0.01524143
#
# Stress axis : x y z
#
# Youngs Moduli (GPa) = 90.18985 89.94249 79.83622
#
# Poissons Ratio (x) = 0.45694 0.18325
# Poissons Ratio (y) = 0.45819 0.18916
# Poissons Ratio (z) = 0.20702 0.21311
#
# Static dielectric constant tensor:
#      x y z
#    x 3.619180 0.000000 0.000000 
#    y 0.000000 3.746180 0.000000 
#    z 0.000000 0.000000 3.295400 
# 
# 
# High freq. dielectric constant tensor:
#      x y z
#    x 1.735770 0.000000 0.000000 
#    y 0.000000 1.742250 0.000000 
#    z 0.000000 0.000000 1.732550 
# 
# From -- ./inp_files/8100.got.cif
#   From: 2010.03.12/outbox.cif.g09.slc.cpg/sg66_5_cif.got.tgz:8100.got - 2010.04.10 21:57:39.
