data_PCOD8275741
_publ_section_title
;
Structure prediction by ZEFSAII (Michael W. Deem and Ramdas Pophale) SiO2 
 PCOD8275741
Probable space group: C C C M
;
_chemical_formula_sum "Si O2"
_cell_formula_units_Z 96
_cell_length_a 9.176199
_cell_length_b 25.040840
_cell_length_c 22.816363
_cell_angle_alpha 90.000000
_cell_angle_beta 90.000000
_cell_angle_gamma 90.000000
_cell_volume 5242.737752
_symmetry_space_group_name_H-M "C C C M"
_symmetry_group_IT_number 66
_symmetry_cell_setting 'orthorhombic'
loop_
_space_group_symop_operation_xyz
x,y,z
-x,-y,z
x,-y,1/2-z
-x,y,1/2-z
-x,-y,-z
x,y,-z
-x,y,1/2+z
x,-y,1/2+z
1/2+x,1/2+y,z
1/2-x,1/2-y,z
1/2+x,1/2-y,1/2-z
1/2-x,1/2+y,1/2-z
1/2-x,1/2-y,-z
1/2+x,1/2+y,-z
1/2-x,1/2+y,1/2+z
1/2+x,1/2-y,1/2+z
loop_
_atom_site_type_symbol
_atom_site_label
_atom_site_fract_x
_atom_site_fract_y
_atom_site_fract_z
Si Si1 0.038251 0.560565 0.931871
Si Si2 0.537975 0.334110 0.646565
Si Si3 0.531779 0.213667 0.376129
Si Si4 0.291691 0.137554 0.647945
Si Si5 0.225277 0.636676 0.564944
Si Si6 0.723880 0.809370 0.764857
O O1 0.155388 0.582779 0.883829
O O2 0.000000 0.500000 0.917269
O O3 0.887704 0.590317 0.920714
O O4 0.092095 0.567736 0.000000
O O5 0.517395 0.276405 0.616969
O O6 0.382086 0.361596 0.647482
O O7 0.636102 0.371767 0.606048
O O8 0.619938 0.328307 0.708844
O O9 0.373877 0.186074 0.385708
O O10 0.645245 0.193484 0.425020
O O11 0.599079 0.195671 0.313579
O O12 0.329179 0.147120 0.716943
O O13 0.285983 0.633455 0.500000
O O14 0.750000 0.750000 0.736035
#
# Coordination Sequence:
#
# PCOD8275741 Si02
#       6
#    16  16  16  16  16  16
#     4   9  20  40  59  72  90 122 170 224 270 311
#     4  10  19  29  46  78 113 138 162 197 244 297
#     4   9  18  30  47  73 107 145 174 194 228 289
#     4  11  19  29  51  77  99 127 171 215 246 285
#     4   9  18  33  52  71  96 134 171 202 247 303
#     4   9  17  30  48  73 108 145 170 190 233 301
#
# _framework density 18.311043000000002
#
# number of rings (size 3 to 8) (size 9 to 14) (size 15 to 20)
#    0.000    2.500    0.000    4.000    0.000    4.667 
#    0.000    0.833    0.000   28.500    0.000    9.333 
#    0.000    0.000    0.000    0.000    0.000    0.000 
#
# Total GULP energy -594645.805561 kJ/mol
# GULP energy per Si atom -12388.454283 kJ/mol
# Density = 1.826937 g / cm^3
# Si number density = 18.311043 Si / 1000 Ang^3
#
#
#
# Elastic Constant Matrix: (Units=GPa)
#
#
# Indices 1 2 3 4 5 6 
#
# 1 100.1419 25.8063 45.9080 0.0000 0.0000 0.0000
# 2 25.8063 91.0236 46.9929 0.0000 0.0000 0.0000
# 3 45.9080 46.9929 74.6587 0.0000 0.0000 0.0000
# 4 0.0000 0.0000 0.0000 27.7258 0.0000 0.0000
# 5 0.0000 0.0000 0.0000 0.0000 22.4254 0.0000
# 6 0.0000 0.0000 0.0000 0.0000 0.0000 15.4044
#
#
#
# Elastic Compliance Matrix: (Units=1/GPa)
#
#
# Indices 1 2 3 4 5 6 
#
# 1 0.013936 0.000701 -0.009010 0.000000 0.000000 0.000000
# 2 0.000701 0.016310 -0.010697 0.000000 0.000000 0.000000
# 3 -0.009010 -0.010697 0.025668 0.000000 0.000000 0.000000
# 4 0.000000 0.000000 0.000000 0.036068 0.000000 0.000000
# 5 0.000000 0.000000 0.000000 0.000000 0.044592 0.000000
# 6 0.000000 0.000000 0.000000 0.000000 0.000000 0.064917
#
#
# Mechanical properties :
#
#
# Convention : Reuss Voigt Hill
#
# Bulk Modulus (GPa) = 55.86400 55.91539 55.88969
# Shear Modulus (GPa) = 20.36907 22.91891 21.64399
#
# Velocity S-wave (km/s) = 3.33887 3.54170 3.44178
# Velocity P-wave (km/s) = 6.74082 6.87950 6.81052
#
# Compressibility (1/GPa) = 0.01790062
#
# Stress axis : x y z
#
# Youngs Moduli (GPa) = 71.75754 61.31183 38.95925
#
# Poissons Ratio (x) = -0.04297 0.35103
# Poissons Ratio (y) = -0.05029 0.41675
# Poissons Ratio (z) = 0.64656 0.65586
#
# Static dielectric constant tensor:
#      x y z
#    x 3.494100 0.000000 0.000000 
#    y 0.000000 3.168490 0.000000 
#    z 0.000000 0.000000 3.481510 
# 
# 
# High freq. dielectric constant tensor:
#      x y z
#    x 1.719620 0.000000 0.000000 
#    y 0.000000 1.666420 0.000000 
#    z 0.000000 0.000000 1.703110 
# 
# From -- ./inp_files/55612.got.cif
#   From: 2010.03.12/outbox.cif.g09.slc.cpg/sg66_28_cif.got.tgz:55612.got - 2010.04.10 21:57:39.
