data_PCOD8275774
_publ_section_title
;
Structure prediction by ZEFSAII (Michael W. Deem and Ramdas Pophale) SiO2 
 PCOD8275774
Probable space group: C C C M
;
_chemical_formula_sum "Si O2"
_cell_formula_units_Z 104
_cell_length_a 26.672544
_cell_length_b 21.028151
_cell_length_c 9.169585
_cell_angle_alpha 90.000000
_cell_angle_beta 90.000000
_cell_angle_gamma 90.000000
_cell_volume 5142.984410
_symmetry_space_group_name_H-M "C C C M"
_symmetry_group_IT_number 66
_symmetry_cell_setting 'orthorhombic'
loop_
_space_group_symop_operation_xyz
x,y,z
-x,-y,z
x,-y,1/2-z
-x,y,1/2-z
-x,-y,-z
x,y,-z
-x,y,1/2+z
x,-y,1/2+z
1/2+x,1/2+y,z
1/2-x,1/2-y,z
1/2+x,1/2-y,1/2-z
1/2-x,1/2+y,1/2-z
1/2-x,1/2-y,-z
1/2+x,1/2+y,-z
1/2-x,1/2+y,1/2+z
1/2+x,1/2-y,1/2+z
loop_
_atom_site_type_symbol
_atom_site_label
_atom_site_fract_x
_atom_site_fract_y
_atom_site_fract_z
Si Si1 0.103018 0.436707 0.168680
Si Si2 0.217811 0.565937 0.672800
Si Si3 0.051824 0.692514 0.672458
Si Si4 0.046098 0.922559 0.155864
Si Si5 0.130525 0.000000 0.250000
Si Si6 0.306208 0.613518 0.171998
Si Si7 0.605312 0.700084 0.331737
O O1 0.085030 0.500000 0.250000
O O2 0.160109 0.417988 0.206521
O O3 0.067653 0.378759 0.216451
O O4 0.097539 0.452133 0.000000
O O5 0.232716 0.500000 0.750000
O O6 0.228559 0.563102 0.500000
O O7 0.251200 0.620038 0.754565
O O8 0.046307 0.700262 0.500000
O O9 0.094802 0.739824 0.729580
O O10 0.000000 0.710005 0.750000
O O11 0.070455 0.858331 0.221643
O O12 0.000000 0.947673 0.250000
O O13 0.089897 0.975822 0.129484
O O14 0.022686 0.906671 0.000000
O O15 0.166444 0.060437 0.225113
O O16 0.336289 0.679704 0.186268
O O17 0.303636 0.593044 0.000000
O O18 0.594335 0.717459 0.500000
#
# Coordination Sequence:
#
# PCOD8275774 Si02
#       7
#    16  16  16  16   8  16  16
#     4   9  21  40  61  89 120 148 181 225 277 339
#     4  10  19  33  56  83 114 151 188 228 281 338
#     4  11  23  40  62  87 115 147 187 231 280 340
#     4  10  21  34  48  69 100 140 185 236 283 328
#     4  10  19  30  48  70 102 138 181 230 282 328
#     4  10  20  34  53  80 112 146 190 240 281 328
#     4   9  20  38  56  78 110 148 191 235 279 332
#
# _framework density 20.221722
#
# number of rings (size 3 to 8) (size 9 to 14) (size 15 to 20)
#    0.000    2.154    0.769    3.000    0.000    7.077 
#    0.000    6.923    0.000    4.615    0.000    0.000 
#    0.000    0.000    0.000    0.000    0.000    0.000 
#
# Total GULP energy -644200.360205 kJ/mol
# GULP energy per Si atom -12388.468465 kJ/mol
# Density = 2.017570 g / cm^3
# Si number density = 20.221722 Si / 1000 Ang^3
#
#
#
# Elastic Constant Matrix: (Units=GPa)
#
#
# Indices 1 2 3 4 5 6 
#
# 1 47.6844 16.9816 26.0074 0.0000 0.0000 0.0000
# 2 16.9816 89.8469 42.3560 0.0000 0.0000 0.0000
# 3 26.0074 42.3560 78.3643 0.0000 0.0000 0.0000
# 4 0.0000 0.0000 0.0000 25.1632 0.0000 0.0000
# 5 0.0000 0.0000 0.0000 0.0000 18.8498 0.0000
# 6 0.0000 0.0000 0.0000 0.0000 0.0000 27.5742
#
#
#
# Elastic Compliance Matrix: (Units=1/GPa)
#
#
# Indices 1 2 3 4 5 6 
#
# 1 0.025690 -0.001122 -0.007920 0.000000 0.000000 0.000000
# 2 -0.001122 0.014985 -0.007727 0.000000 0.000000 0.000000
# 3 -0.007920 -0.007727 0.019566 0.000000 0.000000 0.000000
# 4 0.000000 0.000000 0.000000 0.039740 0.000000 0.000000
# 5 0.000000 0.000000 0.000000 0.000000 0.053051 0.000000
# 6 0.000000 0.000000 0.000000 0.000000 0.000000 0.036266
#
#
# Mechanical properties :
#
#
# Convention : Reuss Voigt Hill
#
# Bulk Modulus (GPa) = 37.44822 42.95395 40.20108
# Shear Modulus (GPa) = 21.57626 23.02081 22.29854
#
# Velocity S-wave (km/s) = 3.27002 3.37771 3.32430
# Velocity P-wave (km/s) = 5.72856 6.04148 5.88710
#
# Compressibility (1/GPa) = 0.02670354
#
# Stress axis : x y z
#
# Youngs Moduli (GPa) = 38.92532 66.73446 51.11007
#
# Poissons Ratio (x) = 0.07489 0.40477
# Poissons Ratio (y) = 0.04368 0.39492
# Poissons Ratio (z) = 0.30827 0.51565
#
# Static dielectric constant tensor:
#      x y z
#    x 3.777260 0.000000 0.000000 
#    y 0.000000 3.478940 0.000000 
#    z 0.000000 0.000000 3.588520 
# 
# 
# High freq. dielectric constant tensor:
#      x y z
#    x 1.794060 0.000000 0.000000 
#    y 0.000000 1.766060 0.000000 
#    z 0.000000 0.000000 1.781600 
# 
# From -- ./inp_files/10370.got.cif
#   From: 2010.03.12/outbox.cif.g09.slc.cpg/sg66_6_cif.got.tgz:10370.got - 2010.04.10 21:57:39.
