data_PCOD8275971
_publ_section_title
;
Structure prediction by ZEFSAII (Michael W. Deem and Ramdas Pophale) SiO2 
 PCOD8275971
Probable space group: C C C M
;
_chemical_formula_sum "Si O2"
_cell_formula_units_Z 116
_cell_length_a 26.168541
_cell_length_b 26.701714
_cell_length_c 8.891617
_cell_angle_alpha 90.000000
_cell_angle_beta 90.000000
_cell_angle_gamma 90.000000
_cell_volume 6212.972010
_symmetry_space_group_name_H-M "C C C M"
_symmetry_group_IT_number 66
_symmetry_cell_setting 'orthorhombic'
loop_
_space_group_symop_operation_xyz
x,y,z
-x,-y,z
x,-y,1/2-z
-x,y,1/2-z
-x,-y,-z
x,y,-z
-x,y,1/2+z
x,-y,1/2+z
1/2+x,1/2+y,z
1/2-x,1/2-y,z
1/2+x,1/2-y,1/2-z
1/2-x,1/2+y,1/2-z
1/2-x,1/2-y,-z
1/2+x,1/2+y,-z
1/2-x,1/2+y,1/2+z
1/2+x,1/2-y,1/2+z
loop_
_atom_site_type_symbol
_atom_site_label
_atom_site_fract_x
_atom_site_fract_y
_atom_site_fract_z
Si Si1 0.857254 0.746563 0.325978
Si Si2 0.174452 0.654862 0.670363
Si Si3 0.448466 0.679039 0.823737
Si Si4 0.816438 0.078086 0.822114
Si Si5 0.000000 0.000000 0.750000
Si Si6 0.082904 0.076200 0.831841
Si Si7 0.208333 0.822432 0.328120
Si Si8 0.710862 0.049290 0.321538
O O1 0.842884 0.748585 0.500000
O O2 0.862894 0.688353 0.274403
O O3 0.907930 0.777504 0.289335
O O4 0.810786 0.768686 0.227900
O O5 0.154598 0.658320 0.500000
O O6 0.231271 0.676056 0.686610
O O7 0.175804 0.596822 0.724008
O O8 0.500000 0.699731 0.750000
O O9 0.434752 0.626213 0.751216
O O10 0.455534 0.669824 0.000000
O O11 0.868569 0.053288 0.758844
O O12 0.818559 0.136775 0.779508
O O13 0.767756 0.052855 0.744871
O O14 0.813310 0.070839 0.000000
O O15 0.962948 0.036001 0.654100
O O16 0.100239 0.090007 0.000000
O O17 0.191672 0.832156 0.500000
O O18 0.715747 0.045410 0.500000
O O19 0.684648 0.000000 0.250000
#
# Coordination Sequence:
#
# PCOD8275971 Si02
#       8
#    16  16  16  16   4  16  16  16
#     4  11  22  34  53  81 110 140 177 222 275 329
#     4   9  20  35  52  78 111 144 182 220 261 323
#     4  11  24  41  60  82 107 138 181 229 281 340
#     4  11  22  36  55  78 105 137 180 227 273 332
#     4  12  30  44  60  78 102 128 186 244 296 336
#     4  12  25  42  61  77 100 135 178 233 293 342
#     4  10  19  33  53  77 107 143 179 218 269 326
#     4  10  21  38  57  80 110 146 185 223 265 316
#
# _framework density 18.670612999999999
#
# number of rings (size 3 to 8) (size 9 to 14) (size 15 to 20)
#    0.000    1.379    2.069    4.759    0.966    8.276 
#    0.000    0.000    0.000    0.000    0.000    0.000 
#    0.000    0.552    0.000    6.069    0.000    4.414 
#
# Total GULP energy -719153.126689 kJ/mol
# GULP energy per Si atom -12399.191839 kJ/mol
# Density = 1.862812 g / cm^3
# Si number density = 18.670613 Si / 1000 Ang^3
#
#
#
# Elastic Constant Matrix: (Units=GPa)
#
#
# Indices 1 2 3 4 5 6 
#
# 1 40.0378 40.0349 32.2963 0.0000 0.0000 0.0000
# 2 40.0349 133.3620 56.0754 0.0000 0.0000 0.0000
# 3 32.2963 56.0754 118.7759 0.0000 0.0000 0.0000
# 4 0.0000 0.0000 0.0000 28.1037 0.0000 0.0000
# 5 0.0000 0.0000 0.0000 0.0000 23.4264 0.0000
# 6 0.0000 0.0000 0.0000 0.0000 0.0000 28.5248
#
#
#
# Elastic Compliance Matrix: (Units=1/GPa)
#
#
# Indices 1 2 3 4 5 6 
#
# 1 0.039203 -0.009091 -0.006368 0.000000 0.000000 0.000000
# 2 -0.009091 0.011464 -0.002940 0.000000 0.000000 0.000000
# 3 -0.006368 -0.002940 0.011539 0.000000 0.000000 0.000000
# 4 0.000000 0.000000 0.000000 0.035583 0.000000 0.000000
# 5 0.000000 0.000000 0.000000 0.000000 0.042687 0.000000
# 6 0.000000 0.000000 0.000000 0.000000 0.000000 0.035057
#
#
# Mechanical properties :
#
#
# Convention : Reuss Voigt Hill
#
# Bulk Modulus (GPa) = 39.35818 60.99876 50.17847
# Shear Modulus (GPa) = 22.64489 26.92891 24.78690
#
# Velocity S-wave (km/s) = 3.48640 3.80190 3.64756
# Velocity P-wave (km/s) = 6.11005 7.21211 6.68383
#
# Compressibility (1/GPa) = 0.02540768
#
# Stress axis : x y z
#
# Youngs Moduli (GPa) = 25.50796 87.23071 86.66447
#
# Poissons Ratio (x) = 0.79304 0.55185
# Poissons Ratio (y) = 0.23190 0.25481
# Poissons Ratio (z) = 0.16243 0.25648
#
# Static dielectric constant tensor:
#      x y z
#    x 2.858820 0.000000 0.000000 
#    y 0.000000 3.652360 0.000000 
#    z 0.000000 0.000000 3.469510 
# 
# 
# High freq. dielectric constant tensor:
#      x y z
#    x 1.681040 0.000000 0.000000 
#    y 0.000000 1.728260 0.000000 
#    z 0.000000 0.000000 1.736500 
# 
# From -- ./inp_files/10900.got.cif
#   From: 2010.03.12/outbox.cif.g09.slc.cpg/sg66_6_cif.got.tgz:10900.got - 2010.04.10 21:57:39.
