data_PCOD8275309
_publ_section_title
;
Structure prediction by ZEFSAII (Michael W. Deem and Ramdas Pophale) SiO2 
 PCOD8275309
Probable space group: C C C M
;
_chemical_formula_sum "Si O2"
_cell_formula_units_Z 72
_cell_length_a 9.087680
_cell_length_b 30.434895
_cell_length_c 13.927186
_cell_angle_alpha 90.000000
_cell_angle_beta 90.000000
_cell_angle_gamma 90.000000
_cell_volume 3852.017128
_symmetry_space_group_name_H-M "C C C M"
_symmetry_group_IT_number 66
_symmetry_cell_setting 'orthorhombic'
loop_
_space_group_symop_operation_xyz
x,y,z
-x,-y,z
x,-y,1/2-z
-x,y,1/2-z
-x,-y,-z
x,y,-z
-x,y,1/2+z
x,-y,1/2+z
1/2+x,1/2+y,z
1/2-x,1/2-y,z
1/2+x,1/2-y,1/2-z
1/2-x,1/2+y,1/2-z
1/2-x,1/2-y,-z
1/2+x,1/2+y,-z
1/2-x,1/2+y,1/2+z
1/2+x,1/2-y,1/2+z
loop_
_atom_site_type_symbol
_atom_site_label
_atom_site_fract_x
_atom_site_fract_y
_atom_site_fract_z
Si Si1 0.263389 0.302252 0.500000
Si Si2 0.341991 0.135005 0.798205
Si Si3 0.599205 0.043450 0.000000
Si Si4 0.532110 0.137968 0.500000
Si Si5 0.346194 0.293334 0.703104
Si Si6 0.668080 0.044618 0.785416
O O1 0.250000 0.250000 0.500000
O O2 0.355531 0.314503 0.595775
O O3 0.106881 0.328476 0.500000
O O4 0.500000 0.141294 0.750000
O O5 0.362635 0.143943 0.909885
O O6 0.227044 0.171444 0.770634
O O7 0.268958 0.088280 0.766306
O O8 0.691770 0.045600 0.099037
O O9 0.500000 0.000000 0.000000
O O10 0.505655 0.087068 0.000000
O O11 0.500000 0.280405 0.750000
O O12 0.250000 0.250000 0.698531
O O13 0.500000 0.042347 0.750000
O O14 0.749319 0.000000 0.750000
#
# Coordination Sequence:
#
# PCOD8275309 Si02
#       6
#     8  16   8   8  16  16
#     4  10  22  37  59  81 110 150 185 227 285 349
#     4  11  20  35  56  83 112 149 186 234 284 331
#     4  12  16  24  45  77 113 148 182 228 284 334
#     4  12  20  33  58  85 116 149 190 234 288 341
#     4  11  24  41  61  82 112 145 190 236 285 340
#     4  10  17  27  45  77 115 146 184 229 279 333
#
# _framework density 18.691506
#
# number of rings (size 3 to 8) (size 9 to 14) (size 15 to 20)
#    0.000    1.111    8.889    0.667    3.111    0.889 
#    0.000    1.111    0.000    0.667    0.000    0.000 
#    0.000   10.667    0.000    0.000    0.000    0.000 
#
# Total GULP energy -445973.033621 kJ/mol
# GULP energy per Si atom -12388.139823 kJ/mol
# Density = 1.864896 g / cm^3
# Si number density = 18.691506 Si / 1000 Ang^3
#
#
#
# Elastic Constant Matrix: (Units=GPa)
#
#
# Indices 1 2 3 4 5 6 
#
# 1 56.5773 33.8922 44.5982 0.0000 0.0000 0.0000
# 2 33.8922 119.4201 41.5509 0.0000 0.0000 0.0000
# 3 44.5982 41.5509 205.9617 0.0000 0.0000 0.0000
# 4 0.0000 0.0000 0.0000 67.8324 0.0000 0.0000
# 5 0.0000 0.0000 0.0000 0.0000 17.3998 0.0000
# 6 0.0000 0.0000 0.0000 0.0000 0.0000 10.1012
#
#
#
# Elastic Compliance Matrix: (Units=1/GPa)
#
#
# Indices 1 2 3 4 5 6 
#
# 1 0.024190 -0.005424 -0.004144 0.000000 0.000000 0.000000
# 2 -0.005424 0.010222 -0.000888 0.000000 0.000000 0.000000
# 3 -0.004144 -0.000888 0.005932 0.000000 0.000000 0.000000
# 4 0.000000 0.000000 0.000000 0.014742 0.000000 0.000000
# 5 0.000000 0.000000 0.000000 0.000000 0.057472 0.000000
# 6 0.000000 0.000000 0.000000 0.000000 0.000000 0.098998
#
#
# Mechanical properties :
#
#
# Convention : Reuss Voigt Hill
#
# Bulk Modulus (GPa) = 51.45765 69.11576 60.28670
# Shear Modulus (GPa) = 20.92533 36.52787 28.72660
#
# Velocity S-wave (km/s) = 3.34954 4.42549 3.92456
# Velocity P-wave (km/s) = 6.52295 7.94799 7.27047
#
# Compressibility (1/GPa) = 0.01943346
#
# Stress axis : x y z
#
# Youngs Moduli (GPa) = 41.33865 97.82886 168.58593
#
# Poissons Ratio (x) = 0.53058 0.69861
# Poissons Ratio (y) = 0.22420 0.14967
# Poissons Ratio (z) = 0.17131 0.08685
#
# Static dielectric constant tensor:
#      x y z
#    x 2.678570 0.000000 0.000000 
#    y 0.000000 -4.660170 0.000000 
#    z 0.000000 0.000000 4.069730 
# 
# 
# High freq. dielectric constant tensor:
#      x y z
#    x 1.646610 0.000000 0.000000 
#    y 0.000000 1.751310 0.000000 
#    z 0.000000 0.000000 1.755760 
# 
# From -- ./inp_files/24653.got.cif
#   From: 2010.03.12/outbox.cif.g09.slc.cpg/sg66_13_cif.got.tgz:24653.got - 2010.04.10 21:57:39.
