data_PCOD8275621
_publ_section_title
;
Structure prediction by ZEFSAII (Michael W. Deem and Ramdas Pophale) SiO2 
 PCOD8275621
Probable space group: C C C M
;
_chemical_formula_sum "Si O2"
_cell_formula_units_Z 60
_cell_length_a 23.624884
_cell_length_b 9.060729
_cell_length_c 17.163535
_cell_angle_alpha 90.000000
_cell_angle_beta 90.000000
_cell_angle_gamma 90.000000
_cell_volume 3674.003502
_symmetry_space_group_name_H-M "C C C M"
_symmetry_group_IT_number 66
_symmetry_cell_setting 'orthorhombic'
loop_
_space_group_symop_operation_xyz
x,y,z
-x,-y,z
x,-y,1/2-z
-x,y,1/2-z
-x,-y,-z
x,y,-z
-x,y,1/2+z
x,-y,1/2+z
1/2+x,1/2+y,z
1/2-x,1/2-y,z
1/2+x,1/2-y,1/2-z
1/2-x,1/2+y,1/2-z
1/2-x,1/2-y,-z
1/2+x,1/2+y,-z
1/2-x,1/2+y,1/2+z
1/2+x,1/2-y,1/2+z
loop_
_atom_site_type_symbol
_atom_site_label
_atom_site_fract_x
_atom_site_fract_y
_atom_site_fract_z
Si Si1 0.081624 0.392621 0.500000
Si Si2 0.074685 0.642171 0.623733
Si Si3 0.015967 0.170145 0.000000
Si Si4 0.291395 0.114248 0.500000
Si Si5 0.500000 0.000000 0.250000
Si Si6 0.698170 0.158653 0.411945
O O1 0.068554 0.492710 0.574503
O O2 0.144619 0.327810 0.500000
O O3 0.043609 0.250716 0.500000
O O4 0.050267 0.783809 0.577694
O O5 0.040096 0.612087 0.702199
O O6 0.141584 0.673204 0.640484
O O7 0.000000 0.000000 0.000000
O O8 0.250000 0.250000 0.500000
O O9 0.282516 0.012815 0.422330
O O10 0.683692 0.218964 0.500000
O O11 0.750000 0.250000 0.373745
#
# Coordination Sequence:
#
# PCOD8275621 Si02
#       6
#     8  16   8   8   4  16
#     4   9  16  32  49  67 109 125 179 220 236 307
#     4  10  18  33  51  77  95 138 181 207 252 309
#     4  11  19  30  50  79 104 127 161 226 275 296
#     4   8  14  22  43  74  95 121 153 214 260 285
#     4  12  20  30  62  68 100 146 186 214 240 322
#     4   8  15  28  49  72  98 125 163 212 251 306
#
# _framework density 16.330957999999999
#
# number of rings (size 3 to 8) (size 9 to 14) (size 15 to 20)
#    0.800    1.867    5.333    0.800    0.000    2.133 
#    0.000    0.667    0.000    6.400    0.000    0.000 
#    0.000    0.000    0.000    0.000    0.000    0.000 
#
# Total GULP energy -371652.795827 kJ/mol
# GULP energy per Si atom -12388.426528 kJ/mol
# Density = 1.629379 g / cm^3
# Si number density = 16.330958 Si / 1000 Ang^3
#
#
#
# Elastic Constant Matrix: (Units=GPa)
#
#
# Indices 1 2 3 4 5 6 
#
# 1 153.6285 77.7045 40.8300 0.0000 0.0000 0.0000
# 2 77.7045 112.1053 20.6646 0.0000 0.0000 0.0000
# 3 40.8300 20.6646 59.3087 0.0000 0.0000 0.0000
# 4 0.0000 0.0000 0.0000 7.1710 0.0000 0.0000
# 5 0.0000 0.0000 0.0000 0.0000 21.4559 0.0000
# 6 0.0000 0.0000 0.0000 0.0000 0.0000 36.4955
#
#
#
# Elastic Compliance Matrix: (Units=1/GPa)
#
#
# Indices 1 2 3 4 5 6 
#
# 1 0.011480 -0.006946 -0.005483 0.000000 0.000000 0.000000
# 2 -0.006946 0.013736 -0.000004 0.000000 0.000000 0.000000
# 3 -0.005483 -0.000004 0.020637 0.000000 0.000000 0.000000
# 4 0.000000 0.000000 0.000000 0.139451 0.000000 0.000000
# 5 0.000000 0.000000 0.000000 0.000000 0.046607 0.000000
# 6 0.000000 0.000000 0.000000 0.000000 0.000000 0.027401
#
#
# Mechanical properties :
#
#
# Convention : Reuss Voigt Hill
#
# Bulk Modulus (GPa) = 47.64984 67.04896 57.34940
# Shear Modulus (GPa) = 17.17192 25.41405 21.29299
#
# Velocity S-wave (km/s) = 3.24619 3.94913 3.61479
# Velocity P-wave (km/s) = 6.57961 7.87018 7.25366
#
# Compressibility (1/GPa) = 0.02098643
#
# Stress axis : x y z
#
# Youngs Moduli (GPa) = 87.10899 72.80274 48.45731
#
# Poissons Ratio (x) = 0.50572 0.26568
# Poissons Ratio (y) = 0.60510 0.00018
# Poissons Ratio (z) = 0.47760 0.00027
#
# Static dielectric constant tensor:
#      x y z
#    x 3.353710 0.000000 0.000000 
#    y 0.000000 2.809030 0.000000 
#    z 0.000000 0.000000 2.674290 
# 
# 
# High freq. dielectric constant tensor:
#      x y z
#    x 1.650890 0.000000 0.000000 
#    y 0.000000 1.602730 0.000000 
#    z 0.000000 0.000000 1.574010 
# 
# From -- ./inp_files/43396.got.cif
#   From: 2010.03.12/outbox.cif.g09.slc.cpg/sg66_22_cif.got.tgz:43396.got - 2010.04.10 21:57:39.
