data_PCOD8275585
_publ_section_title
;
Structure prediction by ZEFSAII (Michael W. Deem and Ramdas Pophale) SiO2 
 PCOD8275585
Probable space group: C C C M
;
_chemical_formula_sum "Si O2"
_cell_formula_units_Z 120
_cell_length_a 20.102346
_cell_length_b 13.520685
_cell_length_c 23.465364
_cell_angle_alpha 90.000000
_cell_angle_beta 90.000000
_cell_angle_gamma 90.000000
_cell_volume 6377.826991
_symmetry_space_group_name_H-M "C C C M"
_symmetry_group_IT_number 66
_symmetry_cell_setting 'orthorhombic'
loop_
_space_group_symop_operation_xyz
x,y,z
-x,-y,z
x,-y,1/2-z
-x,y,1/2-z
-x,-y,-z
x,y,-z
-x,y,1/2+z
x,-y,1/2+z
1/2+x,1/2+y,z
1/2-x,1/2-y,z
1/2+x,1/2-y,1/2-z
1/2-x,1/2+y,1/2-z
1/2-x,1/2-y,-z
1/2+x,1/2+y,-z
1/2-x,1/2+y,1/2+z
1/2+x,1/2-y,1/2+z
loop_
_atom_site_type_symbol
_atom_site_label
_atom_site_fract_x
_atom_site_fract_y
_atom_site_fract_z
Si Si1 0.201152 0.844415 0.661592
Si Si2 0.576030 0.116462 0.744192
Si Si3 0.763893 0.000000 0.750000
Si Si4 0.896550 0.299881 0.626784
Si Si5 0.787294 0.588718 0.936617
Si Si6 0.010265 0.610331 0.935545
Si Si7 0.336704 0.131002 0.562463
Si Si8 0.302418 0.831653 0.185250
O O1 0.250000 0.750000 0.674583
O O2 0.125823 0.809474 0.647304
O O3 0.226282 0.905761 0.607032
O O4 0.194059 0.918020 0.715473
O O5 0.500000 0.156310 0.750000
O O6 0.606624 0.131161 0.681984
O O7 0.622820 0.177711 0.788784
O O8 0.577972 0.000000 0.750000
O O9 0.719613 0.941780 0.703694
O O10 0.843122 0.332403 0.579887
O O11 0.969555 0.306930 0.599551
O O12 0.822372 0.483945 0.934684
O O13 0.760740 0.612841 0.000000
O O14 0.085010 0.646331 0.931796
O O15 0.000000 0.500000 0.908823
O O16 0.983295 0.607630 0.000000
O O17 0.313052 0.173138 0.500000
O O18 0.302785 0.183267 0.616592
O O19 0.250000 0.750000 0.209021
#
# Coordination Sequence:
#
# PCOD8275585 Si02
#       8
#    16  16   8  16  16  16  16  16
#     4  10  22  34  51  81 111 156 194 240 285 348
#     4  11  23  35  54  82 115 150 186 232 291 346
#     4  12  20  38  55  76 117 150 196 242 288 348
#     4  11  20  32  48  77 113 149 194 225 275 350
#     4  10  18  32  52  77 115 151 184 228 285 352
#     4  10  19  30  52  81 114 156 188 222 287 360
#     4  10  20  35  54  81 113 150 191 235 288 345
#     4  12  23  37  59  84 115 159 194 235 291 351
#
# _framework density 18.815186000000001
#
# number of rings (size 3 to 8) (size 9 to 14) (size 15 to 20)
#    0.000    1.333    3.333    4.800    1.867    3.200 
#    0.000    0.000    0.000    0.000    0.000   16.800 
#    0.000    2.133    0.000    0.000    0.000    0.000 
#
# Total GULP energy -743537.222904 kJ/mol
# GULP energy per Si atom -12392.287048 kJ/mol
# Density = 1.877236 g / cm^3
# Si number density = 18.815186 Si / 1000 Ang^3
#
#
#
# Elastic Constant Matrix: (Units=GPa)
#
#
# Indices 1 2 3 4 5 6 
#
# 1 94.9395 49.2299 43.5301 0.0000 0.0000 0.0000
# 2 49.2299 63.1870 36.8720 0.0000 0.0000 0.0000
# 3 43.5301 36.8720 135.1789 0.0000 0.0000 0.0000
# 4 0.0000 0.0000 0.0000 23.5235 0.0000 0.0000
# 5 0.0000 0.0000 0.0000 0.0000 13.7151 0.0000
# 6 0.0000 0.0000 0.0000 0.0000 0.0000 31.1315
#
#
#
# Elastic Compliance Matrix: (Units=1/GPa)
#
#
# Indices 1 2 3 4 5 6 
#
# 1 0.018296 -0.012864 -0.002383 0.000000 0.000000 0.000000
# 2 -0.012864 0.027867 -0.003459 0.000000 0.000000 0.000000
# 3 -0.002383 -0.003459 0.009108 0.000000 0.000000 0.000000
# 4 0.000000 0.000000 0.000000 0.042511 0.000000 0.000000
# 5 0.000000 0.000000 0.000000 0.000000 0.072912 0.000000
# 6 0.000000 0.000000 0.000000 0.000000 0.000000 0.032122
#
#
# Mechanical properties :
#
#
# Convention : Reuss Voigt Hill
#
# Bulk Modulus (GPa) = 55.99078 61.39660 58.69369
# Shear Modulus (GPa) = 20.31023 24.58557 22.44790
#
# Velocity S-wave (km/s) = 3.28908 3.61874 3.45784
# Velocity P-wave (km/s) = 6.65184 7.08255 6.87057
#
# Compressibility (1/GPa) = 0.01786008
#
# Stress axis : x y z
#
# Youngs Moduli (GPa) = 54.65600 35.88460 109.79027
#
# Poissons Ratio (x) = 0.46164 0.26160
# Poissons Ratio (y) = 0.70312 0.37972
# Poissons Ratio (z) = 0.13023 0.12411
#
# Static dielectric constant tensor:
#      x y z
#    x 3.444660 0.000000 0.000000 
#    y 0.000000 3.200260 0.000000 
#    z 0.000000 0.000000 3.910470 
# 
# 
# High freq. dielectric constant tensor:
#      x y z
#    x 1.708800 0.000000 0.000000 
#    y 0.000000 1.686160 0.000000 
#    z 0.000000 0.000000 1.757570 
# 
# From -- ./inp_files/59614.got.cif
#   From: 2010.03.12/outbox.cif.g09.slc.cpg/sg66_30_cif.got.tgz:59614.got - 2010.04.10 21:57:39.
