data_PCOD8275270
_publ_section_title
;
Structure prediction by ZEFSAII (Michael W. Deem and Ramdas Pophale) SiO2 
 PCOD8275270
Probable space group: C C C M
;
_chemical_formula_sum "Si O2"
_cell_formula_units_Z 48
_cell_length_a 12.975346
_cell_length_b 12.505480
_cell_length_c 14.981260
_cell_angle_alpha 90.000000
_cell_angle_beta 90.000000
_cell_angle_gamma 90.000000
_cell_volume 2430.903141
_symmetry_space_group_name_H-M "C C C M"
_symmetry_group_IT_number 66
_symmetry_cell_setting 'orthorhombic'
loop_
_space_group_symop_operation_xyz
x,y,z
-x,-y,z
x,-y,1/2-z
-x,y,1/2-z
-x,-y,-z
x,y,-z
-x,y,1/2+z
x,-y,1/2+z
1/2+x,1/2+y,z
1/2-x,1/2-y,z
1/2+x,1/2-y,1/2-z
1/2-x,1/2+y,1/2-z
1/2-x,1/2-y,-z
1/2+x,1/2+y,-z
1/2-x,1/2+y,1/2+z
1/2+x,1/2-y,1/2+z
loop_
_atom_site_type_symbol
_atom_site_label
_atom_site_fract_x
_atom_site_fract_y
_atom_site_fract_z
Si Si1 0.406850 0.676405 0.308705
Si Si2 0.321095 0.100649 0.806386
Si Si3 0.289544 0.125055 0.000000
Si Si4 0.929561 0.102384 0.500000
O O1 0.500000 0.628003 0.250000
O O2 0.380159 0.794548 0.271538
O O3 0.302953 0.607273 0.297396
O O4 0.445281 0.675678 0.411786
O O5 0.362067 0.000000 0.750000
O O6 0.352332 0.093545 0.911342
O O7 0.250000 0.250000 0.000000
O O8 0.185696 0.054521 0.000000
O O9 0.000000 0.000000 0.500000
#
# Coordination Sequence:
#
# PCOD8275270 Si02
#       4
#    16  16   8   8
#     4  10  21  36  54  84 115 142 190 239 281 338
#     4  10  20  36  58  82 111 155 192 229 288 348
#     4  10  16  38  57  78 117 153 184 233 287 342
#     4  10  20  32  55  86 111 145 185 234 295 340
#
# _framework density 19.745747999999999
#
# number of rings (size 3 to 8) (size 9 to 14) (size 15 to 20)
#    0.000    2.000    6.667    0.000    9.333    0.667 
#    0.000    1.667    0.000    8.000    0.000    0.000 
#    0.000    0.000    0.000    0.000    0.000    0.000 
#
# Total GULP energy -297320.864218 kJ/mol
# GULP energy per Si atom -12388.369342 kJ/mol
# Density = 1.970081 g / cm^3
# Si number density = 19.745748 Si / 1000 Ang^3
#
#
#
# Elastic Constant Matrix: (Units=GPa)
#
#
# Indices 1 2 3 4 5 6 
#
# 1 49.8170 -0.8493 5.9731 0.0000 0.0000 0.0000
# 2 -0.8493 101.1328 32.8780 0.0000 0.0000 0.0000
# 3 5.9731 32.8780 120.1416 0.0000 0.0000 0.0000
# 4 0.0000 0.0000 0.0000 36.8967 0.0000 0.0000
# 5 0.0000 0.0000 0.0000 0.0000 7.3091 0.0000
# 6 0.0000 0.0000 0.0000 0.0000 0.0000 20.4595
#
#
#
# Elastic Compliance Matrix: (Units=1/GPa)
#
#
# Indices 1 2 3 4 5 6 
#
# 1 0.020221 0.000545 -0.001155 0.000000 0.000000 0.000000
# 2 0.000545 0.010868 -0.003001 0.000000 0.000000 0.000000
# 3 -0.001155 -0.003001 0.009202 0.000000 0.000000 0.000000
# 4 0.000000 0.000000 0.000000 0.027103 0.000000 0.000000
# 5 0.000000 0.000000 0.000000 0.000000 0.136816 0.000000
# 6 0.000000 0.000000 0.000000 0.000000 0.000000 0.048877
#
#
# Mechanical properties :
#
#
# Convention : Reuss Voigt Hill
#
# Bulk Modulus (GPa) = 30.23859 38.56612 34.40235
# Shear Modulus (GPa) = 18.42760 28.47235 23.44998
#
# Velocity S-wave (km/s) = 3.05822 3.80142 3.44989
# Velocity P-wave (km/s) = 5.27423 6.23229 5.77317
#
# Compressibility (1/GPa) = 0.03307033
#
# Stress axis : x y z
#
# Youngs Moduli (GPa) = 49.45304 92.01080 108.66906
#
# Poissons Ratio (x) = -0.05016 0.12546
# Poissons Ratio (y) = -0.02696 0.32615
# Poissons Ratio (z) = 0.05709 0.27615
#
# Static dielectric constant tensor:
#      x y z
#    x 3.521990 0.000000 0.000000 
#    y 0.000000 3.265720 0.000000 
#    z 0.000000 0.000000 3.741490 
# 
# 
# High freq. dielectric constant tensor:
#      x y z
#    x 1.748760 0.000000 0.000000 
#    y 0.000000 1.742830 0.000000 
#    z 0.000000 0.000000 1.773910 
# 
# From -- ./inp_files/15557.got.cif
#   From: 2010.03.12/outbox.cif.g09.slc.cpg/sg66_8_cif.got.tgz:15557.got - 2010.04.10 21:57:39.
