data_PCOD8275286
_publ_section_title
;
Structure prediction by ZEFSAII (Michael W. Deem and Ramdas Pophale) SiO2 
 PCOD8275286
Probable space group: C C C M
;
_chemical_formula_sum "Si O2"
_cell_formula_units_Z 96
_cell_length_a 18.275964
_cell_length_b 14.565954
_cell_length_c 19.205283
_cell_angle_alpha 90.000000
_cell_angle_beta 90.000000
_cell_angle_gamma 90.000000
_cell_volume 5112.577909
_symmetry_space_group_name_H-M "C C C M"
_symmetry_group_IT_number 66
_symmetry_cell_setting 'orthorhombic'
loop_
_space_group_symop_operation_xyz
x,y,z
-x,-y,z
x,-y,1/2-z
-x,y,1/2-z
-x,-y,-z
x,y,-z
-x,y,1/2+z
x,-y,1/2+z
1/2+x,1/2+y,z
1/2-x,1/2-y,z
1/2+x,1/2-y,1/2-z
1/2-x,1/2+y,1/2-z
1/2-x,1/2-y,-z
1/2+x,1/2+y,-z
1/2-x,1/2+y,1/2+z
1/2+x,1/2-y,1/2+z
loop_
_atom_site_type_symbol
_atom_site_label
_atom_site_fract_x
_atom_site_fract_y
_atom_site_fract_z
Si Si1 0.773598 0.854453 0.781492
Si Si2 0.446956 0.081582 0.577810
Si Si3 0.925779 0.717762 0.923746
Si Si4 0.868175 0.406688 0.784434
Si Si5 0.922240 0.216035 0.723109
Si Si6 0.226342 0.644945 0.425503
O O1 0.750000 0.750000 0.793461
O O2 0.719856 0.901844 0.725993
O O3 0.857204 0.853676 0.752796
O O4 0.764158 0.902888 0.858039
O O5 0.414570 0.065855 0.500000
O O6 0.494447 0.173616 0.580173
O O7 0.381174 0.091640 0.632719
O O8 0.500000 0.000000 0.600462
O O9 0.920000 0.790017 0.860964
O O10 0.861969 0.640866 0.914962
O O11 0.916204 0.765956 0.000000
O O12 0.899194 0.500000 0.750000
O O13 0.909396 0.320327 0.749248
O O14 0.000000 0.178924 0.750000
O O15 0.246691 0.596600 0.500000
O O16 0.250000 0.750000 0.430731
#
# Coordination Sequence:
#
# PCOD8275286 Si02
#       6
#    16  16  16  16  16  16
#     4   9  18  31  43  67  94 123 164 195 235 289
#     4  10  21  32  43  66 101 133 160 190 232 289
#     4  10  17  26  40  63  95 125 152 187 229 282
#     4  11  21  31  49  70  98 127 161 196 236 290
#     4  11  19  31  49  70  94 126 162 199 244 286
#     4   9  14  23  40  61  89 121 145 181 231 277
#
# _framework density 18.77722
#
# number of rings (size 3 to 8) (size 9 to 14) (size 15 to 20)
#    0.000    2.000    6.667    1.000    0.000    0.000 
#    0.000    0.000    0.000    6.000    0.000    0.000 
#    0.000    0.000    0.000    4.500    0.000    0.000 
#
# Total GULP energy -594643.471765 kJ/mol
# GULP energy per Si atom -12388.405662 kJ/mol
# Density = 1.873448 g / cm^3
# Si number density = 18.777220 Si / 1000 Ang^3
#
#
#
# Elastic Constant Matrix: (Units=GPa)
#
#
# Indices 1 2 3 4 5 6 
#
# 1 132.2591 12.5376 70.9135 0.0000 0.0000 0.0000
# 2 12.5376 14.6911 20.9958 0.0000 0.0000 0.0000
# 3 70.9135 20.9958 144.2005 0.0000 0.0000 0.0000
# 4 0.0000 0.0000 0.0000 9.4365 0.0000 0.0000
# 5 0.0000 0.0000 0.0000 0.0000 -776.4175 0.0000
# 6 0.0000 0.0000 0.0000 0.0000 0.0000 13.3423
#
#
#
# Elastic Compliance Matrix: (Units=1/GPa)
#
#
# Indices 1 2 3 4 5 6 
#
# 1 0.010313 -0.001961 -0.004786 0.000000 0.000000 0.000000
# 2 -0.001961 0.086328 -0.011605 0.000000 0.000000 0.000000
# 3 -0.004786 -0.011605 0.010978 0.000000 0.000000 0.000000
# 4 0.000000 0.000000 0.000000 0.105971 0.000000 0.000000
# 5 0.000000 0.000000 0.000000 0.000000 -0.001288 0.000000
# 6 0.000000 0.000000 0.000000 0.000000 0.000000 0.074949
#
#
# Mechanical properties :
#
#
# Convention : Reuss Voigt Hill
#
# Bulk Modulus (GPa) = 14.10155 55.56050 34.83102
# Shear Modulus (GPa) = 14.38459 -138.28082 -61.94812
#
# Velocity S-wave (km/s) = 2.77079 -8.59085 -5.75002
# Velocity P-wave (km/s) = 4.21457 8.29157 5.04913
#
# Compressibility (1/GPa) = 0.07091421
#
# Stress axis : x y z
#
# Youngs Moduli (GPa) = 96.96520 11.58377 91.09021
#
# Poissons Ratio (x) = 0.02272 0.43596
# Poissons Ratio (y) = 0.19018 1.05710
# Poissons Ratio (z) = 0.46408 0.13443
#
# Static dielectric constant tensor:
#      x y z
#    x 3.666330 0.000000 0.000000 
#    y 0.000000 2.893800 0.000000 
#    z 0.000000 0.000000 3.806710 
# 
# 
# High freq. dielectric constant tensor:
#      x y z
#    x 1.722220 0.000000 0.000000 
#    y 0.000000 1.647820 0.000000 
#    z 0.000000 0.000000 1.743750 
# 
# From -- ./inp_files/51165.got.cif
#   From: 2010.03.12/outbox.cif.g09.slc.cpg/sg66_26_cif.got.tgz:51165.got - 2010.04.10 21:57:39.
