data_PCOD8275818
_publ_section_title
;
Structure prediction by ZEFSAII (Michael W. Deem and Ramdas Pophale) SiO2 
 PCOD8275818
Probable space group: C C C M
;
_chemical_formula_sum "Si O2"
_cell_formula_units_Z 88
_cell_length_a 16.574151
_cell_length_b 28.581928
_cell_length_c 9.465161
_cell_angle_alpha 90.000000
_cell_angle_beta 90.000000
_cell_angle_gamma 90.000000
_cell_volume 4483.847338
_symmetry_space_group_name_H-M "C C C M"
_symmetry_group_IT_number 66
_symmetry_cell_setting 'orthorhombic'
loop_
_space_group_symop_operation_xyz
x,y,z
-x,-y,z
x,-y,1/2-z
-x,y,1/2-z
-x,-y,-z
x,y,-z
-x,y,1/2+z
x,-y,1/2+z
1/2+x,1/2+y,z
1/2-x,1/2-y,z
1/2+x,1/2-y,1/2-z
1/2-x,1/2+y,1/2-z
1/2-x,1/2-y,-z
1/2+x,1/2+y,-z
1/2-x,1/2+y,1/2+z
1/2+x,1/2-y,1/2+z
loop_
_atom_site_type_symbol
_atom_site_label
_atom_site_fract_x
_atom_site_fract_y
_atom_site_fract_z
Si Si1 0.580585 0.759064 0.666178
Si Si2 0.000000 0.119751 0.750000
Si Si3 0.250532 0.609828 0.835469
Si Si4 0.146769 0.179706 0.837822
Si Si5 0.423683 0.133392 0.340091
Si Si6 0.614049 0.457574 0.846040
O O1 0.500000 0.746817 0.750000
O O2 0.572056 0.746533 0.500000
O O3 0.646980 0.726528 0.741537
O O4 0.602622 0.813132 0.689376
O O5 0.061141 0.152376 0.837202
O O6 0.052190 0.085940 0.649419
O O7 0.282361 0.649001 0.729064
O O8 0.155181 0.602173 0.806415
O O9 0.297347 0.561487 0.801932
O O10 0.264743 0.624684 0.000000
O O11 0.167767 0.192069 0.000000
O O12 0.500000 0.116618 0.250000
O O13 0.452279 0.127456 0.500000
O O14 0.584622 0.500000 0.750000
O O15 0.617740 0.479981 0.000000
#
# Coordination Sequence:
#
# PCOD8275818 Si02
#       6
#    16   8  16  16  16  16
#     4  10  19  31  49  73 103 139 179 220 263 307
#     4  10  21  34  52  74 108 148 186 212 255 304
#     4   9  20  38  55  74 104 139 173 212 269 325
#     4  11  21  32  50  75 106 143 184 222 256 300
#     4   9  19  36  57  78 101 134 174 219 268 322
#     4  10  21  36  55  78 105 138 174 216 262 316
#
# _framework density 19.626003999999998
#
# number of rings (size 3 to 8) (size 9 to 14) (size 15 to 20)
#    0.000    2.182    0.909    1.909    0.000    8.000 
#    0.000    3.636    0.000    0.545    0.000    3.818 
#    0.000    0.000    0.000    0.000    0.000    0.000 
#
# Total GULP energy -545399.775959 kJ/mol
# GULP energy per Si atom -12395.449454 kJ/mol
# Density = 1.958133 g / cm^3
# Si number density = 19.626004 Si / 1000 Ang^3
#
#
#
# Elastic Constant Matrix: (Units=GPa)
#
#
# Indices 1 2 3 4 5 6 
#
# 1 98.6040 15.0717 29.3387 0.0000 0.0000 0.0000
# 2 15.0717 35.9020 10.6691 0.0000 0.0000 0.0000
# 3 29.3387 10.6691 98.6278 0.0000 0.0000 0.0000
# 4 0.0000 0.0000 0.0000 16.6108 0.0000 0.0000
# 5 0.0000 0.0000 0.0000 0.0000 27.2059 0.0000
# 6 0.0000 0.0000 0.0000 0.0000 0.0000 16.2017
#
#
#
# Elastic Compliance Matrix: (Units=1/GPa)
#
#
# Indices 1 2 3 4 5 6 
#
# 1 0.011655 -0.003991 -0.003035 0.000000 0.000000 0.000000
# 2 -0.003991 0.030145 -0.002074 0.000000 0.000000 0.000000
# 3 -0.003035 -0.002074 0.011266 0.000000 0.000000 0.000000
# 4 0.000000 0.000000 0.000000 0.060202 0.000000 0.000000
# 5 0.000000 0.000000 0.000000 0.000000 0.036757 0.000000
# 6 0.000000 0.000000 0.000000 0.000000 0.000000 0.061722
#
#
# Mechanical properties :
#
#
# Convention : Reuss Voigt Hill
#
# Bulk Modulus (GPa) = 28.68061 38.14362 33.41212
# Shear Modulus (GPa) = 20.69809 23.87397 22.28603
#
# Velocity S-wave (km/s) = 3.25102 3.49154 3.37343
# Velocity P-wave (km/s) = 5.36074 5.97762 5.67756
#
# Compressibility (1/GPa) = 0.03486676
#
# Stress axis : x y z
#
# Youngs Moduli (GPa) = 85.80270 33.17279 88.75990
#
# Poissons Ratio (x) = 0.13238 0.26940
# Poissons Ratio (y) = 0.34241 0.18408
# Poissons Ratio (z) = 0.26043 0.06880
#
# Static dielectric constant tensor:
#      x y z
#    x 3.526350 0.000000 0.000000 
#    y 0.000000 3.399710 0.000000 
#    z 0.000000 0.000000 3.495320 
# 
# 
# High freq. dielectric constant tensor:
#      x y z
#    x 1.756850 0.000000 0.000000 
#    y 0.000000 1.737260 0.000000 
#    z 0.000000 0.000000 1.765580 
# 
# From -- ./inp_files/7037.got.cif
#   From: 2010.03.12/outbox.cif.g09.slc.cpg/sg66_4_cif.got.tgz:7037.got - 2010.04.10 21:57:39.
