data_PCOD8275636
_publ_section_title
;
Structure prediction by ZEFSAII (Michael W. Deem and Ramdas Pophale) SiO2 
 PCOD8275636
Probable space group: C C C M
;
_chemical_formula_sum "Si O2"
_cell_formula_units_Z 96
_cell_length_a 19.393507
_cell_length_b 19.418192
_cell_length_c 14.286141
_cell_angle_alpha 90.000000
_cell_angle_beta 90.000000
_cell_angle_gamma 90.000000
_cell_volume 5379.972730
_symmetry_space_group_name_H-M "C C C M"
_symmetry_group_IT_number 66
_symmetry_cell_setting 'orthorhombic'
loop_
_space_group_symop_operation_xyz
x,y,z
-x,-y,z
x,-y,1/2-z
-x,y,1/2-z
-x,-y,-z
x,y,-z
-x,y,1/2+z
x,-y,1/2+z
1/2+x,1/2+y,z
1/2-x,1/2-y,z
1/2+x,1/2-y,1/2-z
1/2-x,1/2+y,1/2-z
1/2-x,1/2-y,-z
1/2+x,1/2+y,-z
1/2-x,1/2+y,1/2+z
1/2+x,1/2-y,1/2+z
loop_
_atom_site_type_symbol
_atom_site_label
_atom_site_fract_x
_atom_site_fract_y
_atom_site_fract_z
Si Si1 0.566349 0.282874 0.804414
Si Si2 0.986184 0.773515 0.500000
Si Si3 0.932354 0.619950 0.697185
Si Si4 0.519530 0.110558 0.000000
Si Si5 0.636782 0.908090 0.000000
Si Si6 0.858042 0.758065 0.000000
Si Si7 0.800797 0.567077 0.803965
Si Si8 0.200038 0.808198 0.695720
O O1 0.500000 0.311191 0.750000
O O2 0.571900 0.201466 0.793515
O O3 0.634292 0.317758 0.762726
O O4 0.555755 0.303602 0.912285
O O5 0.990738 0.691806 0.500000
O O6 0.066658 0.793715 0.500000
O O7 0.864377 0.591913 0.742923
O O8 0.000000 0.592430 0.750000
O O9 0.936542 0.590994 0.591499
O O10 0.444769 0.073606 0.000000
O O11 0.643989 0.825023 0.000000
O O12 0.672713 0.942969 0.089891
O O13 0.819518 0.784906 0.091448
O O14 0.772614 0.500000 0.750000
O O15 0.737546 0.619182 0.805769
O O16 0.250000 0.750000 0.739430
#
# Coordination Sequence:
#
# PCOD8275636 Si02
#       8
#    16   8  16   8   8   8  16  16
#     4  10  18  33  57  86 119 147 186 249 298 353
#     4   9  18  30  54  95 117 141 189 243 308 347
#     4  10  18  34  54  81 117 154 197 237 287 350
#     4   9  18  30  56  82 116 153 198 243 277 342
#     4  11  19  39  60  86 118 150 199 261 293 336
#     4  11  18  34  68  99 113 133 199 278 302 327
#     4  12  26  39  55  84 124 162 198 240 298 356
#     4  12  21  36  61  92 120 151 195 246 307 349
#
# _framework density 17.843957
#
# number of rings (size 3 to 8) (size 9 to 14) (size 15 to 20)
#    0.000    1.333    6.667    0.750    0.000    1.000 
#    0.000    2.917    0.000    0.500    0.000    1.167 
#    0.000    0.000    0.000    0.000    0.000    0.000 
#
# Total GULP energy -595108.185144 kJ/mol
# GULP energy per Si atom -12398.087190 kJ/mol
# Density = 1.780334 g / cm^3
# Si number density = 17.843957 Si / 1000 Ang^3
#
#
#
# Elastic Constant Matrix: (Units=GPa)
#
#
# Indices 1 2 3 4 5 6 
#
# 1 106.6168 20.5820 51.0073 0.0000 0.0000 0.0000
# 2 20.5820 37.3467 29.0747 0.0000 0.0000 0.0000
# 3 51.0073 29.0747 147.7056 0.0000 0.0000 0.0000
# 4 0.0000 0.0000 0.0000 3.1292 0.0000 0.0000
# 5 0.0000 0.0000 0.0000 0.0000 -2.1667 0.0000
# 6 0.0000 0.0000 0.0000 0.0000 0.0000 16.3011
#
#
#
# Elastic Compliance Matrix: (Units=1/GPa)
#
#
# Indices 1 2 3 4 5 6 
#
# 1 0.011698 -0.003899 -0.003272 0.000000 0.000000 0.000000
# 2 -0.003899 0.032922 -0.005134 0.000000 0.000000 0.000000
# 3 -0.003272 -0.005134 0.008911 0.000000 0.000000 0.000000
# 4 0.000000 0.000000 0.000000 0.319574 0.000000 0.000000
# 5 0.000000 0.000000 0.000000 0.000000 -0.461541 0.000000
# 6 0.000000 0.000000 0.000000 0.000000 0.000000 0.061346
#
#
# Mechanical properties :
#
#
# Convention : Reuss Voigt Hill
#
# Bulk Modulus (GPa) = 34.57844 54.77744 44.67794
# Shear Modulus (GPa) = 698.47737 16.18639 357.33188
#
# Velocity S-wave (km/s) = 19.80621 3.01509 14.16646
# Velocity P-wave (km/s) = 23.29095 6.54872 17.10781
#
# Compressibility (1/GPa) = 0.02891975
#
# Stress axis : x y z
#
# Youngs Moduli (GPa) = 85.48835 30.37502 112.22474
#
# Poissons Ratio (x) = 0.11844 0.36720
# Poissons Ratio (y) = 0.33335 0.57614
# Poissons Ratio (z) = 0.27971 0.15594
#
# Static dielectric constant tensor:
#      x y z
#    x 3.380790 0.000000 0.000000 
#    y 0.000000 3.099140 0.000000 
#    z 0.000000 0.000000 3.724860 
# 
# 
# High freq. dielectric constant tensor:
#      x y z
#    x 1.693030 0.000000 0.000000 
#    y 0.000000 1.641680 0.000000 
#    z 0.000000 0.000000 1.707730 
# 
# From -- ./inp_files/28495.got.cif
#   From: 2010.03.12/outbox.cif.g09.slc.cpg/sg66_15_cif.got.tgz:28495.got - 2010.04.10 21:57:39.
