data_PCOD8275629
_publ_section_title
;
Structure prediction by ZEFSAII (Michael W. Deem and Ramdas Pophale) SiO2 
 PCOD8275629
Probable space group: C C C M
;
_chemical_formula_sum "Si O2"
_cell_formula_units_Z 128
_cell_length_a 16.643135
_cell_length_b 25.421279
_cell_length_c 16.884221
_cell_angle_alpha 90.000000
_cell_angle_beta 90.000000
_cell_angle_gamma 90.000000
_cell_volume 7143.541319
_symmetry_space_group_name_H-M "C C C M"
_symmetry_group_IT_number 66
_symmetry_cell_setting 'orthorhombic'
loop_
_space_group_symop_operation_xyz
x,y,z
-x,-y,z
x,-y,1/2-z
-x,y,1/2-z
-x,-y,-z
x,y,-z
-x,y,1/2+z
x,-y,1/2+z
1/2+x,1/2+y,z
1/2-x,1/2-y,z
1/2+x,1/2-y,1/2-z
1/2-x,1/2+y,1/2-z
1/2-x,1/2-y,-z
1/2+x,1/2+y,-z
1/2-x,1/2+y,1/2+z
1/2+x,1/2-y,1/2+z
loop_
_atom_site_type_symbol
_atom_site_label
_atom_site_fract_x
_atom_site_fract_y
_atom_site_fract_z
Si Si1 0.313885 0.704023 0.910379
Si Si2 0.585328 0.479240 0.661690
Si Si3 0.247740 0.507359 0.908968
Si Si4 0.408836 0.843077 0.729039
Si Si5 0.184849 0.394615 0.909084
Si Si6 0.229428 0.388452 0.326450
Si Si7 0.090808 0.222678 0.743736
Si Si8 0.334930 0.625569 0.321873
O O1 0.250000 0.750000 0.901973
O O2 0.272496 0.648485 0.890898
O O3 0.384268 0.716564 0.848080
O O4 0.348821 0.701663 0.000000
O O5 0.500000 0.500000 0.626308
O O6 0.593698 0.500000 0.750000
O O7 0.657832 0.501936 0.610044
O O8 0.591756 0.415006 0.659724
O O9 0.195668 0.456053 0.887133
O O10 0.208262 0.555321 0.862456
O O11 0.240119 0.520450 0.000000
O O12 0.500000 0.857490 0.750000
O O13 0.384246 0.869436 0.645671
O O14 0.354353 0.862962 0.800781
O O15 0.395542 0.780705 0.722345
O O16 0.272619 0.368473 0.894774
O O17 0.159518 0.385990 0.000000
O O18 0.286474 0.398810 0.251780
O O19 0.138650 0.184254 0.801762
O O20 0.000000 0.204853 0.750000
#
# Coordination Sequence:
#
# PCOD8275629 Si02
#       8
#    16  16  16  16  16  16  16  16
#     4  10  19  33  54  80 108 138 174 218 268 316
#     4  10  19  30  50  78 111 143 182 209 254 313
#     4  10  20  35  53  79 107 139 177 220 269 316
#     4  10  21  38  57  79 104 138 181 223 276 331
#     4   9  20  38  58  78 107 140 178 224 267 316
#     4  10  18  33  55  78 106 138 178 217 264 323
#     4  10  21  36  54  80 109 144 182 225 269 316
#     4   9  19  32  55  77 107 145 182 217 253 312
#
# _framework density 17.918282999999999
#
# number of rings (size 3 to 8) (size 9 to 14) (size 15 to 20)
#    0.000    2.250    2.500    0.375    1.750    0.250 
#    0.000    6.875    0.000    1.500    0.000    0.000 
#    0.000    0.000    0.000    0.000    0.000    0.000 
#
# Total GULP energy -793458.065743 kJ/mol
# GULP energy per Si atom -12397.782277 kJ/mol
# Density = 1.787750 g / cm^3
# Si number density = 17.918283 Si / 1000 Ang^3
#
#
#
# Elastic Constant Matrix: (Units=GPa)
#
#
# Indices 1 2 3 4 5 6 
#
# 1 99.0410 42.9532 41.0660 0.0000 0.0000 0.0000
# 2 42.9532 81.4405 41.7885 0.0000 0.0000 0.0000
# 3 41.0660 41.7885 82.2139 0.0000 0.0000 0.0000
# 4 0.0000 0.0000 0.0000 15.1733 0.0000 0.0000
# 5 0.0000 0.0000 0.0000 0.0000 18.0189 0.0000
# 6 0.0000 0.0000 0.0000 0.0000 0.0000 26.6459
#
#
#
# Elastic Compliance Matrix: (Units=1/GPa)
#
#
# Indices 1 2 3 4 5 6 
#
# 1 0.014198 -0.005208 -0.004445 0.000000 0.000000 0.000000
# 2 -0.005208 0.018521 -0.006813 0.000000 0.000000 0.000000
# 3 -0.004445 -0.006813 0.017847 0.000000 0.000000 0.000000
# 4 0.000000 0.000000 0.000000 0.065905 0.000000 0.000000
# 5 0.000000 0.000000 0.000000 0.000000 0.055497 0.000000
# 6 0.000000 0.000000 0.000000 0.000000 0.000000 0.037529
#
#
# Mechanical properties :
#
#
# Convention : Reuss Voigt Hill
#
# Bulk Modulus (GPa) = 56.70551 57.14562 56.92556
# Shear Modulus (GPa) = 20.13626 21.09346 20.61486
#
# Velocity S-wave (km/s) = 3.35592 3.43476 3.39557
# Velocity P-wave (km/s) = 6.83606 6.90592 6.87108
#
# Compressibility (1/GPa) = 0.01763497
#
# Stress axis : x y z
#
# Youngs Moduli (GPa) = 70.43012 53.99167 56.03261
#
# Poissons Ratio (x) = 0.28117 0.24907
# Poissons Ratio (y) = 0.36677 0.38175
# Poissons Ratio (z) = 0.31307 0.36785
#
# Static dielectric constant tensor:
#      x y z
#    x 3.144590 0.000000 0.000000 
#    y 0.000000 3.429160 0.000000 
#    z 0.000000 0.000000 3.326450 
# 
# 
# High freq. dielectric constant tensor:
#      x y z
#    x 1.675720 0.000000 0.000000 
#    y 0.000000 1.704940 0.000000 
#    z 0.000000 0.000000 1.687220 
# 
# From -- ./inp_files/42177.got.cif
#   From: 2010.03.12/outbox.cif.g09.slc.cpg/sg66_22_cif.got.tgz:42177.got - 2010.04.10 21:57:39.
