data_PCOD8275153
_publ_section_title
;
Structure prediction by ZEFSAII (Michael W. Deem and Ramdas Pophale) SiO2 
 PCOD8275153
Probable space group: C M M M
;
_chemical_formula_sum "Si O2"
_cell_formula_units_Z 120
_cell_length_a 27.390267
_cell_length_b 26.991906
_cell_length_c 9.620627
_cell_angle_alpha 90.000000
_cell_angle_beta 90.000000
_cell_angle_gamma 90.000000
_cell_volume 7112.678778
_symmetry_space_group_name_H-M "C M M M"
_symmetry_group_IT_number 65
_symmetry_cell_setting 'orthorhombic'
loop_
_space_group_symop_operation_xyz
x,y,z
-x,-y,z
x,-y,-z
-x,y,-z
-x,-y,-z
x,y,-z
-x,y,z
x,-y,z
1/2+x,1/2+y,z
1/2-x,1/2-y,z
1/2+x,1/2-y,-z
1/2-x,1/2+y,-z
1/2-x,1/2-y,-z
1/2+x,1/2+y,-z
1/2-x,1/2+y,z
1/2+x,1/2-y,z
loop_
_atom_site_type_symbol
_atom_site_label
_atom_site_fract_x
_atom_site_fract_y
_atom_site_fract_z
Si Si1 0.781507 0.111488 0.339682
Si Si2 0.239613 0.694425 0.160646
Si Si3 0.055878 0.712395 0.160649
Si Si4 0.359189 0.140297 0.839887
Si Si5 0.183940 0.443383 0.338152
Si Si6 0.943279 0.192868 0.660791
Si Si7 0.109404 0.095406 0.663181
Si Si8 0.944788 0.000000 0.666088
O O1 0.779389 0.127648 0.500000
O O2 0.775445 0.160401 0.249003
O O3 0.739956 0.071148 0.305114
O O4 0.833689 0.088288 0.301365
O O5 0.250000 0.750000 0.209894
O O6 0.183519 0.679999 0.190544
O O7 0.253113 0.687288 0.000000
O O8 0.089612 0.665705 0.200489
O O9 0.071962 0.759049 0.252206
O O10 0.000000 0.697101 0.191325
O O11 0.063590 0.726991 0.000000
O O12 0.352984 0.091165 0.747559
O O13 0.358396 0.123542 0.000000
O O14 0.172209 0.436173 0.500000
O O15 0.176121 0.500000 0.291732
O O16 0.931084 0.203742 0.500000
O O17 0.912168 0.146933 0.721868
O O18 0.000000 0.179886 0.681094
O O19 0.099642 0.096065 0.500000
O O20 0.081394 0.048606 0.728814
O O21 0.941545 0.000000 0.500000
O O22 0.000000 0.000000 0.718915
#
# Coordination Sequence:
#
# PCOD8275153 Si02
#       8
#    16  16  16  16  16  16  16   8
#     4   9  18  30  44  67  94 121 153 190 233 273
#     4   9  18  31  46  65  92 124 154 186 224 271
#     4   9  18  32  50  72  96 122 154 190 227 272
#     4   9  18  32  49  70  94 122 155 189 229 276
#     4   9  18  32  50  70  94 122 153 192 233 278
#     4   9  17  29  44  65  94 124 155 193 234 274
#     4   9  17  27  42  65  92 122 157 198 239 279
#     4   9  16  26  42  64  91 125 161 199 244 285
#
# _framework density 16.871279999999999
#
# number of rings (size 3 to 8) (size 9 to 14) (size 15 to 20)
#    0.000    3.000    0.000    0.400    2.800    2.667 
#    0.000    0.000    0.000    0.400    0.000    4.200 
#    0.000    4.267    0.000    0.000    0.000    0.000 
#
# Total GULP energy -743996.266440 kJ/mol
# GULP energy per Si atom -12399.937774 kJ/mol
# Density = 1.683288 g / cm^3
# Si number density = 16.871280 Si / 1000 Ang^3
#
#
#
# Elastic Constant Matrix: (Units=GPa)
#
#
# Indices 1 2 3 4 5 6 
#
# 1 96.8380 73.5814 35.9943 0.0000 0.0000 0.0000
# 2 73.5814 157.3833 56.9068 0.0000 0.0000 0.0000
# 3 35.9943 56.9068 44.9849 0.0000 0.0000 0.0000
# 4 0.0000 0.0000 0.0000 15.7089 0.0000 0.0000
# 5 0.0000 0.0000 0.0000 0.0000 17.9840 0.0000
# 6 0.0000 0.0000 0.0000 0.0000 0.0000 26.7359
#
#
#
# Elastic Compliance Matrix: (Units=1/GPa)
#
#
# Indices 1 2 3 4 5 6 
#
# 1 0.017000 -0.005583 -0.006539 0.000000 0.000000 0.000000
# 2 -0.005583 0.013544 -0.012666 0.000000 0.000000 0.000000
# 3 -0.006539 -0.012666 0.043485 0.000000 0.000000 0.000000
# 4 0.000000 0.000000 0.000000 0.063658 0.000000 0.000000
# 5 0.000000 0.000000 0.000000 0.000000 0.055605 0.000000
# 6 0.000000 0.000000 0.000000 0.000000 0.000000 0.037403
#
#
# Mechanical properties :
#
#
# Convention : Reuss Voigt Hill
#
# Bulk Modulus (GPa) = 40.89735 70.24124 55.56930
# Shear Modulus (GPa) = 17.33574 20.93401 19.13488
#
# Velocity S-wave (km/s) = 3.20899 3.52633 3.37140
# Velocity P-wave (km/s) = 6.16633 7.63571 6.94001
#
# Compressibility (1/GPa) = 0.02445146
#
# Stress axis : x y z
#
# Youngs Moduli (GPa) = 58.82517 73.83246 22.99668
#
# Poissons Ratio (x) = 0.41224 0.15037
# Poissons Ratio (y) = 0.32845 0.29128
# Poissons Ratio (z) = 0.38465 0.93517
#
# Static dielectric constant tensor:
#      x y z
#    x 3.169770 0.000000 0.000000 
#    y 0.000000 3.174970 0.000000 
#    z 0.000000 0.000000 2.979110 
# 
# 
# High freq. dielectric constant tensor:
#      x y z
#    x 1.648410 0.000000 0.000000 
#    y 0.000000 1.646890 0.000000 
#    z 0.000000 0.000000 1.625860 
# 
# From -- ./inp_files/17115.got.cif
#   From: 2010.03.12/outbox.cif.g09.slc.cpg/sg65_9_cif.got.tgz:17115.got - 2010.04.10 20:52:16.
