data_PCOD8275852
_publ_section_title
;
Structure prediction by ZEFSAII (Michael W. Deem and Ramdas Pophale) SiO2 
 PCOD8275852
Probable space group: C C C M
;
_chemical_formula_sum "Si O2"
_cell_formula_units_Z 116
_cell_length_a 12.477320
_cell_length_b 28.434719
_cell_length_c 14.189569
_cell_angle_alpha 90.000000
_cell_angle_beta 90.000000
_cell_angle_gamma 90.000000
_cell_volume 5034.304246
_symmetry_space_group_name_H-M "C C C M"
_symmetry_group_IT_number 66
_symmetry_cell_setting 'orthorhombic'
loop_
_space_group_symop_operation_xyz
x,y,z
-x,-y,z
x,-y,1/2-z
-x,y,1/2-z
-x,-y,-z
x,y,-z
-x,y,1/2+z
x,-y,1/2+z
1/2+x,1/2+y,z
1/2-x,1/2-y,z
1/2+x,1/2-y,1/2-z
1/2-x,1/2+y,1/2-z
1/2-x,1/2-y,-z
1/2+x,1/2+y,-z
1/2-x,1/2+y,1/2+z
1/2+x,1/2-y,1/2+z
loop_
_atom_site_type_symbol
_atom_site_label
_atom_site_fract_x
_atom_site_fract_y
_atom_site_fract_z
Si Si1 0.373505 0.126430 0.888199
Si Si2 0.795974 0.799426 0.112426
Si Si3 0.112755 0.482211 0.854051
Si Si4 0.217114 0.141913 0.388537
Si Si5 0.000000 0.000000 0.250000
Si Si6 0.324922 0.462764 0.606250
Si Si7 0.570044 0.187705 0.112613
Si Si8 0.467001 0.707834 0.112264
O O1 0.268638 0.154599 0.852180
O O2 0.378175 0.073783 0.850044
O O3 0.473060 0.156249 0.848838
O O4 0.376092 0.123480 0.000000
O O5 0.750000 0.750000 0.151755
O O6 0.916203 0.806142 0.150335
O O7 0.791704 0.797362 0.000000
O O8 0.108577 0.500000 0.750000
O O9 0.222776 0.502137 0.898851
O O10 0.000000 0.500000 0.903840
O O11 0.218686 0.148239 0.500000
O O12 0.217795 0.087627 0.360463
O O13 0.322706 0.165226 0.344606
O O14 0.115311 0.169578 0.346381
O O15 0.079804 0.972603 0.179928
O O16 0.373614 0.461204 0.500000
O O17 0.562230 0.240640 0.151014
O O18 0.569317 0.187620 0.000000
O O19 0.465563 0.708192 0.000000
#
# Coordination Sequence:
#
# PCOD8275852 Si02
#       8
#    16  16  16  16   4  16  16  16
#     4  10  19  31  55  88 121 165 212 261 328 401
#     4   9  15  26  44  74 120 160 197 251 315 387
#     4  11  24  43  65  95 132 174 228 291 353 410
#     4   9  18  30  50  84 119 164 216 258 314 387
#     4  12  26  48  70  98 132 168 226 286 344 406
#     4  11  24  45  71  97 134 179 227 286 342 403
#     4   9  15  26  47  81 126 165 204 260 321 388
#     4   9  15  25  44  77 124 163 200 259 317 379
#
# _framework density 23.041913999999998
#
# number of rings (size 3 to 8) (size 9 to 14) (size 15 to 20)
#    0.000    2.207    2.069    1.862    0.000    4.966 
#    0.000    2.759    0.000    0.000    0.000   11.586 
#    0.000    0.000    0.000    0.000    0.000    0.276 
#
# Total GULP energy -718878.027514 kJ/mol
# GULP energy per Si atom -12394.448750 kJ/mol
# Density = 2.298947 g / cm^3
# Si number density = 23.041914 Si / 1000 Ang^3
#
#
#
# Elastic Constant Matrix: (Units=GPa)
#
#
# Indices 1 2 3 4 5 6 
#
# 1 188.3612 66.1449 12.7240 0.0000 0.0000 0.0000
# 2 66.1449 165.1081 5.0319 0.0000 0.0000 0.0000
# 3 12.7240 5.0319 43.0979 0.0000 0.0000 0.0000
# 4 0.0000 0.0000 0.0000 -2.1573 0.0000 0.0000
# 5 0.0000 0.0000 0.0000 0.0000 7.9319 0.0000
# 6 0.0000 0.0000 0.0000 0.0000 0.0000 45.1157
#
#
#
# Elastic Compliance Matrix: (Units=1/GPa)
#
#
# Indices 1 2 3 4 5 6 
#
# 1 0.006282 -0.002469 -0.001566 0.000000 0.000000 0.000000
# 2 -0.002469 0.007049 -0.000094 0.000000 0.000000 0.000000
# 3 -0.001566 -0.000094 0.023676 0.000000 0.000000 0.000000
# 4 0.000000 0.000000 0.000000 -0.463543 0.000000 0.000000
# 5 0.000000 0.000000 0.000000 0.000000 0.126073 0.000000
# 6 0.000000 0.000000 0.000000 0.000000 0.000000 0.022165
#
#
# Mechanical properties :
#
#
# Convention : Reuss Voigt Hill
#
# Bulk Modulus (GPa) = 34.78475 62.70765 48.74620
# Shear Modulus (GPa) = -19.19701 31.02249 5.91274
#
# Velocity S-wave (km/s) = -2.88954 3.67325 1.60364
# Velocity P-wave (km/s) = 1.99912 6.72785 4.96289
#
# Compressibility (1/GPa) = 0.02874823
#
# Stress axis : x y z
#
# Youngs Moduli (GPa) = 159.19243 141.87313 42.23612
#
# Poissons Ratio (x) = 0.35026 0.06616
# Poissons Ratio (y) = 0.39302 0.00397
# Poissons Ratio (z) = 0.24935 0.01335
#
# Static dielectric constant tensor:
#      x y z
#    x 4.796240 0.000000 0.000000 
#    y 0.000000 4.552420 0.000000 
#    z 0.000000 0.000000 3.611330 
# 
# 
# High freq. dielectric constant tensor:
#      x y z
#    x 1.921120 0.000000 0.000000 
#    y 0.000000 1.910520 0.000000 
#    z 0.000000 0.000000 1.895860 
# 
# From -- ./inp_files/39156.got.cif
#   From: 2010.03.12/outbox.cif.g09.slc.cpg/sg66_20_cif.got.tgz:39156.got - 2010.04.10 21:57:39.
