data_PCOD8275991
_publ_section_title
;
Structure prediction by ZEFSAII (Michael W. Deem and Ramdas Pophale) SiO2 
 PCOD8275991
Probable space group: C C C M
;
_chemical_formula_sum "Si O2"
_cell_formula_units_Z 80
_cell_length_a 8.636195
_cell_length_b 28.536860
_cell_length_c 16.632120
_cell_angle_alpha 90.000000
_cell_angle_beta 90.000000
_cell_angle_gamma 90.000000
_cell_volume 4098.984105
_symmetry_space_group_name_H-M "C C C M"
_symmetry_group_IT_number 66
_symmetry_cell_setting 'orthorhombic'
loop_
_space_group_symop_operation_xyz
x,y,z
-x,-y,z
x,-y,1/2-z
-x,y,1/2-z
-x,-y,-z
x,y,-z
-x,y,1/2+z
x,-y,1/2+z
1/2+x,1/2+y,z
1/2-x,1/2-y,z
1/2+x,1/2-y,1/2-z
1/2-x,1/2+y,1/2-z
1/2-x,1/2-y,-z
1/2+x,1/2+y,-z
1/2-x,1/2+y,1/2+z
1/2+x,1/2-y,1/2+z
loop_
_atom_site_type_symbol
_atom_site_label
_atom_site_fract_x
_atom_site_fract_y
_atom_site_fract_z
Si Si1 0.837172 0.795455 0.595013
Si Si2 0.322285 0.445741 0.736424
Si Si3 0.316155 0.698481 0.590841
Si Si4 0.107162 0.624053 0.675579
Si Si5 0.689478 0.106493 0.907960
O O1 0.846460 0.788797 0.500000
O O2 0.750000 0.750000 0.632485
O O3 0.744472 0.841879 0.619278
O O4 0.011578 0.800056 0.628525
O O5 0.289004 0.500000 0.750000
O O6 0.500000 0.432689 0.750000
O O7 0.219570 0.418140 0.800591
O O8 0.275904 0.432295 0.645475
O O9 0.317858 0.677686 0.500000
O O10 0.250000 0.750000 0.589407
O O11 0.208307 0.667567 0.647294
O O12 0.000000 0.639937 0.750000
O O13 0.995760 0.605200 0.604567
O O14 0.730972 0.095607 0.000000
#
# Coordination Sequence:
#
# PCOD8275991 Si02
#       5
#    16  16  16  16  16
#     4   9  17  30  52  82 114 145 178 223 273 318
#     4  10  22  42  62  81 111 148 183 229 289 341
#     4  10  19  33  55  82 113 148 188 229 269 320
#     4  10  21  36  55  81 112 148 184 227 279 333
#     4  10  20  36  59  86 115 147 188 231 274 330
#
# _framework density 19.517030999999999
#
# number of rings (size 3 to 8) (size 9 to 14) (size 15 to 20)
#    0.000    2.200    0.000    3.000    0.000    6.800 
#    0.000   15.000    0.000    0.000    0.000    0.000 
#    0.000    0.000    0.000    0.000    0.000    0.200 
#
# Total GULP energy -496057.678024 kJ/mol
# GULP energy per Si atom -12401.441951 kJ/mol
# Density = 1.947261 g / cm^3
# Si number density = 19.517031 Si / 1000 Ang^3
#
#
#
# Elastic Constant Matrix: (Units=GPa)
#
#
# Indices 1 2 3 4 5 6 
#
# 1 167.8195 76.9221 49.5198 0.0000 0.0000 0.0000
# 2 76.9221 121.6560 61.4613 0.0000 0.0000 0.0000
# 3 49.5198 61.4613 72.1922 0.0000 0.0000 0.0000
# 4 0.0000 0.0000 0.0000 19.1450 0.0000 0.0000
# 5 0.0000 0.0000 0.0000 0.0000 23.8872 0.0000
# 6 0.0000 0.0000 0.0000 0.0000 0.0000 37.0959
#
#
#
# Elastic Compliance Matrix: (Units=1/GPa)
#
#
# Indices 1 2 3 4 5 6 
#
# 1 0.008590 -0.004307 -0.002225 0.000000 0.000000 0.000000
# 2 -0.004307 0.016583 -0.011164 0.000000 0.000000 0.000000
# 3 -0.002225 -0.011164 0.024883 0.000000 0.000000 0.000000
# 4 0.000000 0.000000 0.000000 0.052233 0.000000 0.000000
# 5 0.000000 0.000000 0.000000 0.000000 0.041863 0.000000
# 6 0.000000 0.000000 0.000000 0.000000 0.000000 0.026957
#
#
# Mechanical properties :
#
#
# Convention : Reuss Voigt Hill
#
# Bulk Modulus (GPa) = 68.19701 81.94155 75.06928
# Shear Modulus (GPa) = 23.65311 27.60993 25.63152
#
# Velocity S-wave (km/s) = 3.48504 3.76527 3.62787
# Velocity P-wave (km/s) = 7.15627 7.80890 7.48969
#
# Compressibility (1/GPa) = 0.01466340
#
# Stress axis : x y z
#
# Youngs Moduli (GPa) = 116.42109 60.30209 40.18843
#
# Poissons Ratio (x) = 0.25971 0.08943
# Poissons Ratio (y) = 0.50141 0.44866
# Poissons Ratio (z) = 0.25907 0.67321
#
# Static dielectric constant tensor:
#      x y z
#    x 3.912100 0.000000 0.000000 
#    y 0.000000 3.426170 0.000000 
#    z 0.000000 0.000000 3.508200 
# 
# 
# High freq. dielectric constant tensor:
#      x y z
#    x 1.782900 0.000000 0.000000 
#    y 0.000000 1.749760 0.000000 
#    z 0.000000 0.000000 1.745360 
# 
# From -- ./inp_files/37141.got.cif
#   From: 2010.03.12/outbox.cif.g09.slc.cpg/sg66_19_cif.got.tgz:37141.got - 2010.04.10 21:57:39.
