data_PCOD8275648
_publ_section_title
;
Structure prediction by ZEFSAII (Michael W. Deem and Ramdas Pophale) SiO2 
 PCOD8275648
Probable space group: C C C M
;
_chemical_formula_sum "Si O2"
_cell_formula_units_Z 80
_cell_length_a 5.406837
_cell_length_b 31.005839
_cell_length_c 27.231854
_cell_angle_alpha 90.000000
_cell_angle_beta 90.000000
_cell_angle_gamma 90.000000
_cell_volume 4565.243793
_symmetry_space_group_name_H-M "C C C M"
_symmetry_group_IT_number 66
_symmetry_cell_setting 'orthorhombic'
loop_
_space_group_symop_operation_xyz
x,y,z
-x,-y,z
x,-y,1/2-z
-x,y,1/2-z
-x,-y,-z
x,y,-z
-x,y,1/2+z
x,-y,1/2+z
1/2+x,1/2+y,z
1/2-x,1/2-y,z
1/2+x,1/2-y,1/2-z
1/2-x,1/2+y,1/2-z
1/2-x,1/2-y,-z
1/2+x,1/2+y,-z
1/2-x,1/2+y,1/2+z
1/2+x,1/2-y,1/2+z
loop_
_atom_site_type_symbol
_atom_site_label
_atom_site_fract_x
_atom_site_fract_y
_atom_site_fract_z
Si Si1 0.500159 0.548543 0.691699
Si Si2 0.001430 0.404265 0.808390
Si Si3 0.383470 0.184903 0.648005
Si Si4 0.250000 0.750000 0.392358
Si Si5 0.750000 0.250000 0.219571
Si Si6 0.129507 0.203070 0.553987
O O1 0.500000 0.500000 0.670666
O O2 0.500000 0.547622 0.750000
O O3 0.248052 0.571228 0.672983
O O4 0.749399 0.572433 0.673078
O O5 0.000000 0.400638 0.750000
O O6 0.017984 0.357211 0.831985
O O7 0.561764 0.226175 0.643195
O O8 0.195483 0.205698 0.687788
O O9 0.262719 0.173440 0.594941
O O10 0.352182 0.711877 0.427714
O O11 0.500000 0.242046 0.250000
O O12 0.134622 0.180818 0.500000
O O13 0.250000 0.250000 0.551833
#
# Coordination Sequence:
#
# PCOD8275648 Si02
#       6
#    16  16  16   8   8  16
#     4   9  18  34  53  73  99 133 171 212 262 311
#     4  10  21  32  50  76 105 139 172 211 253 305
#     4  11  22  34  49  73 106 139 184 219 256 301
#     4  10  18  34  51  70 102 141 178 221 267 300
#     4  12  25  36  50  68 105 155 190 211 242 296
#     4   9  18  33  53  72  95 132 180 229 276 308
#
# _framework density 17.523709
#
# number of rings (size 3 to 8) (size 9 to 14) (size 15 to 20)
#    0.000    2.000    3.000    2.100    2.800    5.600 
#    0.000    0.000    0.000    0.000    0.000    0.000 
#    0.000    4.800    0.000    0.000    0.000    0.000 
#
# Total GULP energy -495605.609784 kJ/mol
# GULP energy per Si atom -12390.140245 kJ/mol
# Density = 1.748382 g / cm^3
# Si number density = 17.523709 Si / 1000 Ang^3
#
#
#
# Elastic Constant Matrix: (Units=GPa)
#
#
# Indices 1 2 3 4 5 6 
#
# 1 115.1782 43.2312 28.0355 0.0000 0.0000 0.0000
# 2 43.2312 96.9125 37.1334 0.0000 0.0000 0.0000
# 3 28.0355 37.1334 71.3081 0.0000 0.0000 0.0000
# 4 0.0000 0.0000 0.0000 34.2876 0.0000 0.0000
# 5 0.0000 0.0000 0.0000 0.0000 6.0880 0.0000
# 6 0.0000 0.0000 0.0000 0.0000 0.0000 27.3260
#
#
#
# Elastic Compliance Matrix: (Units=1/GPa)
#
#
# Indices 1 2 3 4 5 6 
#
# 1 0.010685 -0.003944 -0.002147 0.000000 0.000000 0.000000
# 2 -0.003944 0.014346 -0.005920 0.000000 0.000000 0.000000
# 3 -0.002147 -0.005920 0.017951 0.000000 0.000000 0.000000
# 4 0.000000 0.000000 0.000000 0.029165 0.000000 0.000000
# 5 0.000000 0.000000 0.000000 0.000000 0.164259 0.000000
# 6 0.000000 0.000000 0.000000 0.000000 0.000000 0.036595
#
#
# Mechanical properties :
#
#
# Convention : Reuss Voigt Hill
#
# Bulk Modulus (GPa) = 52.74344 55.57767 54.16056
# Shear Modulus (GPa) = 16.48296 25.20689 20.84492
#
# Velocity S-wave (km/s) = 3.07026 3.79680 3.45269
# Velocity P-wave (km/s) = 6.53700 7.14181 6.84609
#
# Compressibility (1/GPa) = 0.01895970
#
# Stress axis : x y z
#
# Youngs Moduli (GPa) = 93.58816 69.70471 55.70778
#
# Poissons Ratio (x) = 0.27489 0.11962
# Poissons Ratio (y) = 0.36908 0.32980
# Poissons Ratio (z) = 0.20096 0.41267
#
# Static dielectric constant tensor:
#      x y z
#    x 3.595710 0.000000 0.000000 
#    y 0.000000 3.040090 0.000000 
#    z 0.000000 0.000000 3.293280 
# 
# 
# High freq. dielectric constant tensor:
#      x y z
#    x 1.693050 0.000000 0.000000 
#    y 0.000000 1.640920 0.000000 
#    z 0.000000 0.000000 1.647790 
# 
# From -- ./inp_files/61646.got.cif
#   From: 2010.03.12/outbox.cif.g09.slc.cpg/sg66_31_cif.got.tgz:61646.got - 2010.04.10 21:57:39.
