data_PCOD8275166
_publ_section_title
;
Structure prediction by ZEFSAII (Michael W. Deem and Ramdas Pophale) SiO2 
 PCOD8275166
Probable space group: C M M M
;
_chemical_formula_sum "Si O2"
_cell_formula_units_Z 72
_cell_length_a 32.674635
_cell_length_b 14.009975
_cell_length_c 7.529638
_cell_angle_alpha 90.000000
_cell_angle_beta 90.000000
_cell_angle_gamma 90.000000
_cell_volume 3446.848558
_symmetry_space_group_name_H-M "C M M M"
_symmetry_group_IT_number 65
_symmetry_cell_setting 'orthorhombic'
loop_
_space_group_symop_operation_xyz
x,y,z
-x,-y,z
x,-y,-z
-x,y,-z
-x,-y,-z
x,y,-z
-x,y,z
x,-y,z
1/2+x,1/2+y,z
1/2-x,1/2-y,z
1/2+x,1/2-y,-z
1/2-x,1/2+y,-z
1/2-x,1/2-y,-z
1/2+x,1/2+y,-z
1/2-x,1/2+y,z
1/2+x,1/2-y,z
loop_
_atom_site_type_symbol
_atom_site_label
_atom_site_fract_x
_atom_site_fract_y
_atom_site_fract_z
Si Si1 0.621656 0.392495 0.203730
Si Si2 0.919064 0.294684 0.794232
Si Si3 0.663701 0.112773 0.201921
Si Si4 0.000000 0.390802 0.212042
Si Si5 0.184335 0.111993 0.500000
Si Si6 0.725111 0.113819 0.500000
O O1 0.607225 0.500000 0.253031
O O2 0.583823 0.320024 0.237740
O O3 0.659758 0.358385 0.323029
O O4 0.636426 0.386352 0.000000
O O5 0.878161 0.343567 0.717727
O O6 0.960147 0.337347 0.706219
O O7 0.920921 0.320627 0.000000
O O8 0.701039 0.148616 0.324451
O O9 0.658936 0.000000 0.210306
O O10 0.671886 0.147679 0.000000
O O11 0.000000 0.500000 0.277001
O O12 0.000000 0.384489 0.000000
O O13 0.229301 0.160674 0.500000
O O14 0.190907 0.000000 0.500000
O O15 0.728127 0.000000 0.500000
#
# Coordination Sequence:
#
# PCOD8275166 Si02
#       6
#    16  16  16   8   8   8
#     4   9  18  33  52  73 100 134 170 210 253 295
#     4   9  17  30  49  75 103 133 171 207 247 303
#     4   9  17  30  48  70 100 135 166 203 253 304
#     4   9  16  28  51  82 111 136 166 206 247 295
#     4   9  18  33  53  75  98 131 175 214 252 300
#     4   9  18  31  49  75 101 129 170 212 253 304
#
# _framework density 20.888646999999999
#
# number of rings (size 3 to 8) (size 9 to 14) (size 15 to 20)
#    0.000    3.000    0.000    0.667    0.000    4.444 
#    0.000    7.222    0.000   10.000    0.000    7.778 
#    0.000    0.000    0.000    0.000    0.000    0.000 
#
# Total GULP energy -446198.767460 kJ/mol
# GULP energy per Si atom -12394.410207 kJ/mol
# Density = 2.084110 g / cm^3
# Si number density = 20.888647 Si / 1000 Ang^3
#
#
#
# Elastic Constant Matrix: (Units=GPa)
#
#
# Indices 1 2 3 4 5 6 
#
# 1 175.8329 75.8617 52.6323 0.0000 0.0000 0.0000
# 2 75.8617 90.9101 26.6856 0.0000 0.0000 0.0000
# 3 52.6323 26.6856 85.7552 0.0000 0.0000 0.0000
# 4 0.0000 0.0000 0.0000 8.1787 0.0000 0.0000
# 5 0.0000 0.0000 0.0000 0.0000 -81.2918 0.0000
# 6 0.0000 0.0000 0.0000 0.0000 0.0000 33.1364
#
#
#
# Elastic Compliance Matrix: (Units=1/GPa)
#
#
# Indices 1 2 3 4 5 6 
#
# 1 0.009931 -0.007151 -0.003870 0.000000 0.000000 0.000000
# 2 -0.007151 0.017255 -0.000981 0.000000 0.000000 0.000000
# 3 -0.003870 -0.000981 0.014341 0.000000 0.000000 0.000000
# 4 0.000000 0.000000 0.000000 0.122268 0.000000 0.000000
# 5 0.000000 0.000000 0.000000 0.000000 -0.012301 0.000000
# 6 0.000000 0.000000 0.000000 0.000000 0.000000 0.030178
#
#
# Mechanical properties :
#
#
# Convention : Reuss Voigt Hill
#
# Bulk Modulus (GPa) = 57.06301 73.65081 65.35691
# Shear Modulus (GPa) = 23.63883 5.15926 14.39904
#
# Velocity S-wave (km/s) = 3.36766 1.57329 2.62835
# Velocity P-wave (km/s) = 6.51909 6.21576 6.36923
#
# Compressibility (1/GPa) = 0.01752449
#
# Stress axis : x y z
#
# Youngs Moduli (GPa) = 100.69670 57.95419 69.72869
#
# Poissons Ratio (x) = 0.41443 0.26983
# Poissons Ratio (y) = 0.72009 0.06837
# Poissons Ratio (z) = 0.38967 0.05683
#
# Static dielectric constant tensor:
#      x y z
#    x 3.972540 0.000000 0.000000 
#    y 0.000000 3.818830 0.000000 
#    z 0.000000 0.000000 3.720760 
# 
# 
# High freq. dielectric constant tensor:
#      x y z
#    x 1.798170 0.000000 0.000000 
#    y 0.000000 1.824290 0.000000 
#    z 0.000000 0.000000 1.803810 
# 
# From -- ./inp_files/15808.got.cif
#   From: 2010.03.12/outbox.cif.g09.slc.cpg/sg65_8_cif.got.tgz:15808.got - 2010.04.10 20:52:16.
