data_PCOD8275959
_publ_section_title
;
Structure prediction by ZEFSAII (Michael W. Deem and Ramdas Pophale) SiO2 
 PCOD8275959
Probable space group: C C C M
;
_chemical_formula_sum "Si O2"
_cell_formula_units_Z 88
_cell_length_a 11.245838
_cell_length_b 23.368691
_cell_length_c 16.248608
_cell_angle_alpha 90.000000
_cell_angle_beta 90.000000
_cell_angle_gamma 90.000000
_cell_volume 4270.142522
_symmetry_space_group_name_H-M "C C C M"
_symmetry_group_IT_number 66
_symmetry_cell_setting 'orthorhombic'
loop_
_space_group_symop_operation_xyz
x,y,z
-x,-y,z
x,-y,1/2-z
-x,y,1/2-z
-x,-y,-z
x,y,-z
-x,y,1/2+z
x,-y,1/2+z
1/2+x,1/2+y,z
1/2-x,1/2-y,z
1/2+x,1/2-y,1/2-z
1/2-x,1/2+y,1/2-z
1/2-x,1/2-y,-z
1/2+x,1/2+y,-z
1/2-x,1/2+y,1/2+z
1/2+x,1/2-y,1/2+z
loop_
_atom_site_type_symbol
_atom_site_label
_atom_site_fract_x
_atom_site_fract_y
_atom_site_fract_z
Si Si1 0.100149 0.161602 0.316070
Si Si2 0.741737 0.925878 0.598114
Si Si3 0.250000 0.250000 0.219753
Si Si4 0.955214 0.253400 0.591585
Si Si5 0.379310 0.964013 0.408731
Si Si6 0.489218 0.134329 0.658195
O O1 0.142976 0.103284 0.360421
O O2 0.211355 0.195803 0.275558
O O3 0.000000 0.144381 0.250000
O O4 0.041725 0.201653 0.385350
O O5 0.739858 0.914809 0.500000
O O6 0.628402 0.901096 0.643776
O O7 0.732172 0.994643 0.616467
O O8 0.143430 0.266175 0.159916
O O9 0.904400 0.241730 0.500000
O O10 0.023810 0.313720 0.593371
O O11 0.356157 0.940575 0.500000
O O12 0.394941 0.907306 0.353292
O O13 0.500000 0.000000 0.406552
O O14 0.500000 0.159354 0.750000
#
# Coordination Sequence:
#
# PCOD8275959 Si02
#       6
#    16  16   8  16  16  16
#     4  10  20  34  53  78 110 146 187 234 281 334
#     4  10  19  33  52  76 110 147 182 223 275 332
#     4  10  21  36  49  72 108 142 178 228 285 332
#     4  11  21  34  53  77 107 145 187 226 276 343
#     4   8  16  30  47  71 104 138 171 212 263 322
#     4  11  20  31  50  80 114 143 177 224 277 333
#
# _framework density 20.608211000000001
#
# number of rings (size 3 to 8) (size 9 to 14) (size 15 to 20)
#    0.000    2.000    0.000    7.364    0.000    3.273 
#    0.000    2.727    0.000    0.000    0.000   21.636 
#    0.000   49.455    0.000    0.000    0.000    0.000 
#
# Total GULP energy -545158.772100 kJ/mol
# GULP energy per Si atom -12389.972093 kJ/mol
# Density = 2.056131 g / cm^3
# Si number density = 20.608211 Si / 1000 Ang^3
#
#
#
# Elastic Constant Matrix: (Units=GPa)
#
#
# Indices 1 2 3 4 5 6 
#
# 1 67.9920 35.1552 31.6867 0.0000 0.0000 0.0000
# 2 35.1552 100.6794 37.0722 0.0000 0.0000 0.0000
# 3 31.6867 37.0722 111.0395 0.0000 0.0000 0.0000
# 4 0.0000 0.0000 0.0000 15.4025 0.0000 0.0000
# 5 0.0000 0.0000 0.0000 0.0000 14.2647 0.0000
# 6 0.0000 0.0000 0.0000 0.0000 0.0000 36.1415
#
#
#
# Elastic Compliance Matrix: (Units=1/GPa)
#
#
# Indices 1 2 3 4 5 6 
#
# 1 0.019190 -0.005341 -0.003693 0.000000 0.000000 0.000000
# 2 -0.005341 0.012811 -0.002753 0.000000 0.000000 0.000000
# 3 -0.003693 -0.002753 0.010979 0.000000 0.000000 0.000000
# 4 0.000000 0.000000 0.000000 0.064925 0.000000 0.000000
# 5 0.000000 0.000000 0.000000 0.000000 0.070103 0.000000
# 6 0.000000 0.000000 0.000000 0.000000 0.000000 0.027669
#
#
# Mechanical properties :
#
#
# Convention : Reuss Voigt Hill
#
# Bulk Modulus (GPa) = 51.53029 54.17101 52.85065
# Shear Modulus (GPa) = 21.21160 24.88152 23.04656
#
# Velocity S-wave (km/s) = 3.21172 3.47848 3.34776
# Velocity P-wave (km/s) = 6.22997 6.51738 6.37530
#
# Compressibility (1/GPa) = 0.01940606
#
# Stress axis : x y z
#
# Youngs Moduli (GPa) = 52.10978 78.05657 91.08436
#
# Poissons Ratio (x) = 0.41690 0.33638
# Poissons Ratio (y) = 0.27832 0.25076
# Poissons Ratio (z) = 0.19244 0.21490
#
# Static dielectric constant tensor:
#      x y z
#    x 3.595100 0.000000 0.000000 
#    y 0.000000 3.965370 0.000000 
#    z 0.000000 0.000000 3.759840 
# 
# 
# High freq. dielectric constant tensor:
#      x y z
#    x 1.771240 0.000000 0.000000 
#    y 0.000000 1.802870 0.000000 
#    z 0.000000 0.000000 1.812580 
# 
# From -- ./inp_files/26778.got.cif
#   From: 2010.03.12/outbox.cif.g09.slc.cpg/sg66_14_cif.got.tgz:26778.got - 2010.04.10 21:57:39.
