data_PCOD8275400
_publ_section_title
;
Structure prediction by ZEFSAII (Michael W. Deem and Ramdas Pophale) SiO2 
 PCOD8275400
Probable space group: C C C M
;
_chemical_formula_sum "Si O2"
_cell_formula_units_Z 116
_cell_length_a 25.526898
_cell_length_b 9.045323
_cell_length_c 29.730419
_cell_angle_alpha 90.000000
_cell_angle_beta 90.000000
_cell_angle_gamma 90.000000
_cell_volume 6864.725134
_symmetry_space_group_name_H-M "C C C M"
_symmetry_group_IT_number 66
_symmetry_cell_setting 'orthorhombic'
loop_
_space_group_symop_operation_xyz
x,y,z
-x,-y,z
x,-y,1/2-z
-x,y,1/2-z
-x,-y,-z
x,y,-z
-x,y,1/2+z
x,-y,1/2+z
1/2+x,1/2+y,z
1/2-x,1/2-y,z
1/2+x,1/2-y,1/2-z
1/2-x,1/2+y,1/2-z
1/2-x,1/2-y,-z
1/2+x,1/2+y,-z
1/2-x,1/2+y,1/2+z
1/2+x,1/2-y,1/2+z
loop_
_atom_site_type_symbol
_atom_site_label
_atom_site_fract_x
_atom_site_fract_y
_atom_site_fract_z
Si Si1 0.035263 0.696459 0.549632
Si Si2 0.883005 0.466581 0.391405
Si Si3 0.309779 0.224997 0.052611
Si Si4 0.000000 0.000000 0.250000
Si Si5 0.935406 0.240895 0.903669
Si Si6 0.106754 0.034472 0.949930
Si Si7 0.985056 0.743614 0.688325
Si Si8 0.581617 0.952976 0.797301
O O1 0.046722 0.628671 0.500000
O O2 0.063590 0.600996 0.588007
O O3 0.055767 0.863365 0.551104
O O4 0.972645 0.700900 0.556186
O O5 0.831974 0.411809 0.418267
O O6 0.889154 0.642599 0.394211
O O7 0.877830 0.424661 0.338258
O O8 0.250000 0.250000 0.066116
O O9 0.342153 0.371973 0.064942
O O10 0.316433 0.185601 0.000000
O O11 0.967303 0.887128 0.282192
O O12 0.976572 0.208508 0.863263
O O13 0.902478 0.095622 0.915004
O O14 0.115639 0.969870 0.000000
O O15 0.950775 0.599441 0.693346
O O16 0.043891 0.692823 0.703600
O O17 0.609639 0.000000 0.750000
#
# Coordination Sequence:
#
# PCOD8275400 Si02
#       8
#    16  16  16   4  16  16  16  16
#     4  10  19  30  43  66 103 144 174 198 235 297
#     4  10  20  31  51  75  95 131 181 209 247 307
#     4   9  19  38  58  74  96 128 171 222 270 319
#     4  12  20  26  40  68  86 134 180 208 240 270
#     4  11  20  29  44  72 105 138 168 204 248 293
#     4   9  19  32  46  69 101 135 168 205 253 301
#     4  10  20  29  44  65 100 139 176 204 238 284
#     4  10  17  35  47  64 100 139 172 211 245 288
#
# _framework density 16.897981999999999
#
# number of rings (size 3 to 8) (size 9 to 14) (size 15 to 20)
#    0.000    2.069    2.759    2.897    1.931    3.862 
#    0.000    0.690    0.000    2.483    0.000    3.862 
#    0.000    0.000    0.000    0.000    0.000    0.000 
#
# Total GULP energy -718519.222096 kJ/mol
# GULP energy per Si atom -12388.262450 kJ/mol
# Density = 1.685952 g / cm^3
# Si number density = 16.897982 Si / 1000 Ang^3
#
#
#
# Elastic Constant Matrix: (Units=GPa)
#
#
# Indices 1 2 3 4 5 6 
#
# 1 74.9876 21.8672 30.2280 0.0000 0.0000 0.0000
# 2 21.8672 80.2975 42.5963 0.0000 0.0000 0.0000
# 3 30.2280 42.5963 117.6738 0.0000 0.0000 0.0000
# 4 0.0000 0.0000 0.0000 30.7494 0.0000 0.0000
# 5 0.0000 0.0000 0.0000 0.0000 17.5643 0.0000
# 6 0.0000 0.0000 0.0000 0.0000 0.0000 11.6639
#
#
#
# Elastic Compliance Matrix: (Units=1/GPa)
#
#
# Indices 1 2 3 4 5 6 
#
# 1 0.015295 -0.002575 -0.002997 0.000000 0.000000 0.000000
# 2 -0.002575 0.015847 -0.005075 0.000000 0.000000 0.000000
# 3 -0.002997 -0.005075 0.011105 0.000000 0.000000 0.000000
# 4 0.000000 0.000000 0.000000 0.032521 0.000000 0.000000
# 5 0.000000 0.000000 0.000000 0.000000 0.056934 0.000000
# 6 0.000000 0.000000 0.000000 0.000000 0.000000 0.085735
#
#
# Mechanical properties :
#
#
# Convention : Reuss Voigt Hill
#
# Bulk Modulus (GPa) = 47.72651 51.37131 49.54891
# Shear Modulus (GPa) = 20.34888 23.88002 22.11445
#
# Velocity S-wave (km/s) = 3.47395 3.76332 3.62153
# Velocity P-wave (km/s) = 6.66306 7.02497 6.84641
#
# Compressibility (1/GPa) = 0.02095272
#
# Stress axis : x y z
#
# Youngs Moduli (GPa) = 65.38292 63.10267 90.05074
#
# Poissons Ratio (x) = 0.16252 0.26984
# Poissons Ratio (y) = 0.16839 0.45700
# Poissons Ratio (z) = 0.19592 0.32024
#
# Static dielectric constant tensor:
#      x y z
#    x 2.726080 0.000000 0.000000 
#    y 0.000000 3.204530 0.000000 
#    z 0.000000 0.000000 3.679220 
# 
# 
# High freq. dielectric constant tensor:
#      x y z
#    x 1.584490 0.000000 0.000000 
#    y 0.000000 1.654270 0.000000 
#    z 0.000000 0.000000 1.665110 
# 
# From -- ./inp_files/70586.got.cif
#   From: 2010.03.12/outbox.cif.g09.slc.cpg/sg66_36_cif.got.tgz:70586.got - 2010.04.10 21:57:39.
