data_PCOD8275106
_publ_section_title
;
Structure prediction by ZEFSAII (Michael W. Deem and Ramdas Pophale) SiO2 
 PCOD8275106
Probable space group: C M M M
;
_chemical_formula_sum "Si O2"
_cell_formula_units_Z 104
_cell_length_a 9.392295
_cell_length_b 25.930578
_cell_length_c 26.097310
_cell_angle_alpha 90.000000
_cell_angle_beta 90.000000
_cell_angle_gamma 90.000000
_cell_volume 6355.938211
_symmetry_space_group_name_H-M "C M M M"
_symmetry_group_IT_number 65
_symmetry_cell_setting 'orthorhombic'
loop_
_space_group_symop_operation_xyz
x,y,z
-x,-y,z
x,-y,-z
-x,y,-z
-x,-y,-z
x,y,-z
-x,y,z
x,-y,z
1/2+x,1/2+y,z
1/2-x,1/2-y,z
1/2+x,1/2-y,-z
1/2-x,1/2+y,-z
1/2-x,1/2-y,-z
1/2+x,1/2+y,-z
1/2-x,1/2+y,z
1/2+x,1/2-y,z
loop_
_atom_site_type_symbol
_atom_site_label
_atom_site_fract_x
_atom_site_fract_y
_atom_site_fract_z
Si Si1 0.169870 0.000000 0.886104
Si Si2 0.660949 0.061361 0.500000
Si Si3 0.334451 0.300253 0.120979
Si Si4 0.664163 0.439430 0.597234
Si Si5 0.669511 0.398298 0.057840
Si Si6 0.170163 0.000000 0.229826
Si Si7 0.168936 0.903222 0.706918
Si Si8 0.165676 0.199723 0.760215
O O1 0.229506 0.050395 0.915020
O O2 0.227624 0.000000 0.828137
O O3 0.000000 0.000000 0.886345
O O4 0.500000 0.082513 0.500000
O O5 0.741466 0.081809 0.550424
O O6 0.664689 0.000000 0.500000
O O7 0.500000 0.290259 0.110371
O O8 0.250000 0.250000 0.102538
O O9 0.275778 0.348476 0.088657
O O10 0.305487 0.312369 0.180367
O O11 0.500000 0.427402 0.584576
O O12 0.685971 0.500000 0.606570
O O13 0.716900 0.409992 0.648098
O O14 0.500000 0.399697 0.058341
O O15 0.728272 0.395862 0.000000
O O16 0.231255 0.949458 0.258415
O O17 0.000000 0.000000 0.230872
O O18 0.225156 0.848635 0.727910
O O19 0.000000 0.905451 0.710887
O O20 0.250000 0.250000 0.741698
O O21 0.000000 0.209483 0.749652
#
# Coordination Sequence:
#
# PCOD8275106 Si02
#       8
#     8   8  16  16  16   8  16  16
#     4   9  15  22  35  56  84 115 140 168 213 264
#     4   9  17  27  39  57  86 123 152 173 202 244
#     4   9  17  29  44  62  84 111 141 176 216 258
#     4   9  15  25  41  62  86 112 143 176 211 249
#     4   9  16  25  37  56  83 112 141 174 214 259
#     4   9  14  21  36  60  86 109 137 174 217 260
#     4   9  15  24  40  63  88 111 139 179 218 253
#     4   9  17  29  44  62  85 113 145 177 213 257
#
# _framework density 16.362649999999999
#
# number of rings (size 3 to 8) (size 9 to 14) (size 15 to 20)
#    0.000    3.000    0.769    1.385    0.000    5.846 
#    0.000    0.769    0.000    0.000    0.000    1.077 
#    0.000    7.385    0.000    0.000    0.000    0.000 
#
# Total GULP energy -644728.600473 kJ/mol
# GULP energy per Si atom -12398.626932 kJ/mol
# Density = 1.632541 g / cm^3
# Si number density = 16.362650 Si / 1000 Ang^3
#
#
#
# Elastic Constant Matrix: (Units=GPa)
#
#
# Indices 1 2 3 4 5 6 
#
# 1 34.5323 33.9731 37.2932 0.0000 0.0000 0.0000
# 2 33.9731 141.7298 85.5201 0.0000 0.0000 0.0000
# 3 37.2932 85.5201 141.0495 0.0000 0.0000 0.0000
# 4 0.0000 0.0000 0.0000 17.3474 0.0000 0.0000
# 5 0.0000 0.0000 0.0000 0.0000 10.2501 0.0000
# 6 0.0000 0.0000 0.0000 0.0000 0.0000 18.4471
#
#
#
# Elastic Compliance Matrix: (Units=1/GPa)
#
#
# Indices 1 2 3 4 5 6 
#
# 1 0.043037 -0.005440 -0.008080 0.000000 0.000000 0.000000
# 2 -0.005440 0.011814 -0.005724 0.000000 0.000000 0.000000
# 3 -0.008080 -0.005724 0.012697 0.000000 0.000000 0.000000
# 4 0.000000 0.000000 0.000000 0.057646 0.000000 0.000000
# 5 0.000000 0.000000 0.000000 0.000000 0.097560 0.000000
# 6 0.000000 0.000000 0.000000 0.000000 0.000000 0.054209
#
#
# Mechanical properties :
#
#
# Convention : Reuss Voigt Hill
#
# Bulk Modulus (GPa) = 34.41450 70.09825 52.25638
# Shear Modulus (GPa) = 15.37805 19.91061 17.64433
#
# Velocity S-wave (km/s) = 3.06898 3.49210 3.28736
# Velocity P-wave (km/s) = 5.79967 7.69370 6.81283
#
# Compressibility (1/GPa) = 0.02905752
#
# Stress axis : x y z
#
# Youngs Moduli (GPa) = 23.23573 84.64571 78.75898
#
# Poissons Ratio (x) = 0.46051 0.63640
# Poissons Ratio (y) = 0.12641 0.45086
# Poissons Ratio (z) = 0.18775 0.48455
#
# Static dielectric constant tensor:
#      x y z
#    x 2.659990 0.000000 0.000000 
#    y 0.000000 3.112780 0.000000 
#    z 0.000000 0.000000 3.222500 
# 
# 
# High freq. dielectric constant tensor:
#      x y z
#    x 1.577230 0.000000 0.000000 
#    y 0.000000 1.618150 0.000000 
#    z 0.000000 0.000000 1.635900 
# 
# From -- ./inp_files/73854.got.cif
#   From: 2010.03.12/outbox.cif.g09.slc.cpg/sg65_37_cif.got.tgz:73854.got - 2010.04.10 20:52:16.
