data_PCOD8275197
_publ_section_title
;
Structure prediction by ZEFSAII (Michael W. Deem and Ramdas Pophale) SiO2 
 PCOD8275197
Probable space group: C M M M
;
_chemical_formula_sum "Si O2"
_cell_formula_units_Z 40
_cell_length_a 18.000000
_cell_length_b 9.000000
_cell_length_c 27.000000
_cell_angle_alpha 90.000000
_cell_angle_beta 90.000000
_cell_angle_gamma 90.000000
_cell_volume 4374.000000
_symmetry_space_group_name_H-M "C M M M"
_symmetry_group_IT_number 65
_symmetry_cell_setting 'orthorhombic'
loop_
_space_group_symop_operation_xyz
x,y,z
-x,-y,z
x,-y,-z
-x,y,-z
-x,-y,-z
x,y,-z
-x,y,z
x,-y,z
1/2+x,1/2+y,z
1/2-x,1/2-y,z
1/2+x,1/2-y,-z
1/2-x,1/2+y,-z
1/2-x,1/2-y,-z
1/2+x,1/2+y,-z
1/2-x,1/2+y,z
1/2+x,1/2-y,z
loop_
_atom_site_type_symbol
_atom_site_label
_atom_site_fract_x
_atom_site_fract_y
_atom_site_fract_z
Si Si1 0.330401 0.678897 0.599435
Si Si2 0.830501 0.676998 0.900288
Si Si3 0.915744 0.323878 0.000000
Si Si4 0.830409 0.321305 0.298863
Si Si5 0.583411 0.324244 0.500000
Si Si6 0.916133 0.675875 0.198843
O O1 0.326128 0.500000 0.604532
O O2 0.250000 0.750000 0.591748
O O3 0.364849 0.749768 0.650326
O O4 0.376881 0.728798 0.550840
O O5 0.821995 0.500000 0.900026
O O6 0.750000 0.750000 0.901211
O O7 0.874433 0.730684 0.949762
O O8 0.872399 0.732749 0.850190
O O9 0.918359 0.500000 0.000000
O O10 0.000000 0.260370 0.000000
O O11 0.825389 0.500000 0.304379
O O12 0.750000 0.250000 0.290487
O O13 0.878387 0.273904 0.250690
O O14 0.581695 0.500000 0.500000
O O15 0.500000 0.258766 0.500000
O O16 0.918544 0.500000 0.196950
O O17 0.000000 0.740456 0.197453
#
# Coordination Sequence:
#
# PCOD8275197 Si02
#       6
#    16  16   8  16   8  16
#     4  10  19  33  54  75  98 128 162 200 239 286
#     4  10  19  32  52  75 100 130 165 206 247 291
#     4   9  17  30  51  77 100 127 168 210 244 287
#     4  10  19  32  51  73  98 127 161 201 242 288
#     4   9  19  34  51  73 100 129 160 196 242 291
#     4   9  18  32  50  72  98 130 166 203 244 288
#
# _framework density 9.1449470000000002
#
# number of rings (size 3 to 8) (size 9 to 14) (size 15 to 20)
#    0.000    2.400    0.000    4.200    0.000    3.200 
#    0.000    2.500    0.000   11.400    0.000    0.000 
#    0.000    0.000    0.000    0.000    0.000    0.000 
#
# Total GULP energy -495772.951221 kJ/mol
# GULP energy per Si atom -12394.323781 kJ/mol
# Density = 0.912413 g / cm^3
# Si number density = 9.144947 Si / 1000 Ang^3
#
#
#
# Elastic Constant Matrix: (Units=GPa)
#
#
# Indices 1 2 3 4 5 6 
#
# 1 145.6633 26.6702 100.7026 0.0000 0.0000 0.0000
# 2 26.6702 60.6714 34.2188 0.0000 0.0000 0.0000
# 3 100.7026 34.2188 237.4953 0.0000 0.0000 0.0000
# 4 0.0000 0.0000 0.0000 27.3085 0.0000 0.0000
# 5 0.0000 0.0000 0.0000 0.0000 43.4469 0.0000
# 6 0.0000 0.0000 0.0000 0.0000 0.0000 24.8985
#
#
#
# Elastic Compliance Matrix: (Units=1/GPa)
#
#
# Indices 1 2 3 4 5 6 
#
# 1 0.009969 -0.002175 -0.003914 0.000000 0.000000 0.000000
# 2 -0.002175 0.018415 -0.001731 0.000000 0.000000 0.000000
# 3 -0.003914 -0.001731 0.006120 0.000000 0.000000 0.000000
# 4 0.000000 0.000000 0.000000 0.036619 0.000000 0.000000
# 5 0.000000 0.000000 0.000000 0.000000 0.023017 0.000000
# 6 0.000000 0.000000 0.000000 0.000000 0.000000 0.040163
#
#
# Mechanical properties :
#
#
# Convention : Reuss Voigt Hill
#
# Bulk Modulus (GPa) = 53.01130 85.22369 69.11750
# Shear Modulus (GPa) = 32.00438 37.94667 34.97553
#
# Velocity S-wave (km/s) = 4.18765 4.55987 4.37771
# Velocity P-wave (km/s) = 7.24077 8.62673 7.96395
#
# Compressibility (1/GPa) = 0.01886390
#
# Stress axis : x y z
#
# Youngs Moduli (GPa) = 100.31036 54.30483 163.41176
#
# Poissons Ratio (x) = 0.11811 0.63955
# Poissons Ratio (y) = 0.21816 0.28287
# Poissons Ratio (z) = 0.39259 0.09400
#
# Static dielectric constant tensor:
#      x y z
#    x 3.553720 0.000000 0.000000 
#    y 0.000000 3.169050 0.000000 
#    z 0.000000 0.000000 4.142630 
# 
# 
# High freq. dielectric constant tensor:
#      x y z
#    x 1.715460 0.000000 0.000000 
#    y 0.000000 1.683480 0.000000 
#    z 0.000000 0.000000 1.755000 
# 
# From -- ./inp_files/75116.got.cif
#   From: 2010.03.12/outbox.ucp.g09.slc.cvg/sg65_38_cif.got.tgz:75116.got - 2010.05.04 19:44:54.
