data_PCOD8275249
_publ_section_title
;
Structure prediction by ZEFSAII (Michael W. Deem and Ramdas Pophale) SiO2 
 PCOD8275249
Probable space group: C C C M
;
_chemical_formula_sum "Si O2"
_cell_formula_units_Z 96
_cell_length_a 12.143637
_cell_length_b 26.500265
_cell_length_c 17.880147
_cell_angle_alpha 90.000000
_cell_angle_beta 90.000000
_cell_angle_gamma 90.000000
_cell_volume 5754.002928
_symmetry_space_group_name_H-M "C C C M"
_symmetry_group_IT_number 66
_symmetry_cell_setting 'orthorhombic'
loop_
_space_group_symop_operation_xyz
x,y,z
-x,-y,z
x,-y,1/2-z
-x,y,1/2-z
-x,-y,-z
x,y,-z
-x,y,1/2+z
x,-y,1/2+z
1/2+x,1/2+y,z
1/2-x,1/2-y,z
1/2+x,1/2-y,1/2-z
1/2-x,1/2+y,1/2-z
1/2-x,1/2-y,-z
1/2+x,1/2+y,-z
1/2-x,1/2+y,1/2+z
1/2+x,1/2-y,1/2+z
loop_
_atom_site_type_symbol
_atom_site_label
_atom_site_fract_x
_atom_site_fract_y
_atom_site_fract_z
Si Si1 0.357773 0.221083 0.179882
Si Si2 0.888964 0.393496 0.336456
Si Si3 0.404665 0.246126 0.649534
Si Si4 0.629151 0.009244 0.581591
Si Si5 0.742158 0.327041 0.913662
Si Si6 0.355179 0.086384 0.670671
O O1 0.250000 0.250000 0.151123
O O2 0.348157 0.163531 0.151596
O O3 0.368310 0.224510 0.269498
O O4 0.463869 0.247014 0.141761
O O5 0.841884 0.432888 0.397120
O O6 0.838527 0.413229 0.258935
O O7 0.020945 0.393986 0.343106
O O8 0.359254 0.302119 0.632609
O O9 0.349486 0.209094 0.588871
O O10 0.681639 0.998855 0.500000
O O11 0.500000 0.000000 0.577808
O O12 0.672863 0.969902 0.642788
O O13 0.768490 0.379211 0.873097
O O14 0.710179 0.336432 0.000000
#
# Coordination Sequence:
#
# PCOD8275249 Si02
#       6
#    16  16  16  16  16  16
#     4  11  18  31  51  69  99 134 170 203 234 294
#     4  10  17  29  45  65  99 128 163 202 238 294
#     4  10  18  31  44  73  98 126 168 200 244 290
#     4   9  18  28  41  65  94 125 160 199 249 301
#     4  11  19  30  49  71 101 128 159 210 255 293
#     4  10  16  29  46  71  91 128 163 199 249 298
#
# _framework density 16.684038000000001
#
# number of rings (size 3 to 8) (size 9 to 14) (size 15 to 20)
#    0.000    1.833    5.000    3.000    0.000    2.667 
#    0.000    0.000    0.000    4.500    0.000    1.167 
#    0.000    8.000    0.000    0.000    0.000    0.000 
#
# Total GULP energy -594919.325671 kJ/mol
# GULP energy per Si atom -12394.152618 kJ/mol
# Density = 1.664606 g / cm^3
# Si number density = 16.684038 Si / 1000 Ang^3
#
#
#
# Elastic Constant Matrix: (Units=GPa)
#
#
# Indices 1 2 3 4 5 6 
#
# 1 77.2084 44.7359 21.5469 0.0000 0.0000 0.0000
# 2 44.7359 124.7552 42.4353 0.0000 0.0000 0.0000
# 3 21.5469 42.4353 68.8289 0.0000 0.0000 0.0000
# 4 0.0000 0.0000 0.0000 18.6116 0.0000 0.0000
# 5 0.0000 0.0000 0.0000 0.0000 12.2572 0.0000
# 6 0.0000 0.0000 0.0000 0.0000 0.0000 20.8548
#
#
#
# Elastic Compliance Matrix: (Units=1/GPa)
#
#
# Indices 1 2 3 4 5 6 
#
# 1 0.016548 -0.005279 -0.001926 0.000000 0.000000 0.000000
# 2 -0.005279 0.011827 -0.005639 0.000000 0.000000 0.000000
# 3 -0.001926 -0.005639 0.018608 0.000000 0.000000 0.000000
# 4 0.000000 0.000000 0.000000 0.053730 0.000000 0.000000
# 5 0.000000 0.000000 0.000000 0.000000 0.081585 0.000000
# 6 0.000000 0.000000 0.000000 0.000000 0.000000 0.047951
#
#
# Mechanical properties :
#
#
# Convention : Reuss Voigt Hill
#
# Bulk Modulus (GPa) = 46.95774 54.24764 50.60269
# Shear Modulus (GPa) = 19.00893 21.14969 20.07931
#
# Velocity S-wave (km/s) = 3.37909 3.56428 3.47292
# Velocity P-wave (km/s) = 6.59020 7.03734 6.81743
#
# Compressibility (1/GPa) = 0.02129574
#
# Stress axis : x y z
#
# Youngs Moduli (GPa) = 60.42990 84.55383 53.73949
#
# Poissons Ratio (x) = 0.44635 0.10349
# Poissons Ratio (y) = 0.31901 0.30304
# Poissons Ratio (z) = 0.11637 0.47680
#
# Static dielectric constant tensor:
#      x y z
#    x 2.845720 0.000000 0.000000 
#    y 0.000000 3.220900 0.000000 
#    z 0.000000 0.000000 3.183940 
# 
# 
# High freq. dielectric constant tensor:
#      x y z
#    x 1.585510 0.000000 0.000000 
#    y 0.000000 1.647200 0.000000 
#    z 0.000000 0.000000 1.638310 
# 
# From -- ./inp_files/39009.got.cif
#   From: 2010.03.12/outbox.cif.g09.slc.cpg/sg66_20_cif.got.tgz:39009.got - 2010.04.10 21:57:39.
