data_PCOD8275407
_publ_section_title
;
Structure prediction by ZEFSAII (Michael W. Deem and Ramdas Pophale) SiO2 
 PCOD8275407
Probable space group: C C C M
;
_chemical_formula_sum "Si O2"
_cell_formula_units_Z 96
_cell_length_a 30.399625
_cell_length_b 16.465043
_cell_length_c 14.275355
_cell_angle_alpha 90.000000
_cell_angle_beta 90.000000
_cell_angle_gamma 90.000000
_cell_volume 7145.259609
_symmetry_space_group_name_H-M "C C C M"
_symmetry_group_IT_number 66
_symmetry_cell_setting 'orthorhombic'
loop_
_space_group_symop_operation_xyz
x,y,z
-x,-y,z
x,-y,1/2-z
-x,y,1/2-z
-x,-y,-z
x,y,-z
-x,y,1/2+z
x,-y,1/2+z
1/2+x,1/2+y,z
1/2-x,1/2-y,z
1/2+x,1/2-y,1/2-z
1/2-x,1/2+y,1/2-z
1/2-x,1/2-y,-z
1/2+x,1/2+y,-z
1/2-x,1/2+y,1/2+z
1/2+x,1/2-y,1/2+z
loop_
_atom_site_type_symbol
_atom_site_label
_atom_site_fract_x
_atom_site_fract_y
_atom_site_fract_z
Si Si1 0.428377 0.404061 0.750000
Si Si2 0.166457 0.830540 0.750000
Si Si3 0.267594 0.403953 0.106809
Si Si4 0.785996 0.679799 0.750000
Si Si5 0.000000 0.903933 0.603643
Si Si6 0.267594 0.596047 0.106809
O O1 0.418229 0.500000 0.750000
O O2 0.384066 0.353486 0.750000
O O3 0.456070 0.377500 0.658588
O O4 0.456070 0.377500 0.841412
O O5 0.189737 0.866499 0.657411
O O6 0.168358 0.730579 0.750000
O O7 0.189737 0.866499 0.842589
O O8 0.222300 0.374779 0.157283
O O9 0.270726 0.500000 0.113735
O O10 0.266880 0.373738 0.000000
O O11 0.750000 0.750000 0.750000
O O12 0.777700 0.625220 0.657283
O O13 0.000000 0.864427 0.500000
O O14 0.000000 0.000000 0.597110
O O15 0.266880 0.626262 0.000000
#
# Coordination Sequence:
#
# PCOD8275407 Si02
#       6
#    16  16  16  16  16  16
#     4   9  16  26  38  52  71  91 118 153 178 206
#     4  10  18  25  36  55  76  95 118 153 188 214
#     4   9  16  26  39  52  69  97 129 155 178 207
#     4   8  16  26  36  50  72  97 120 149 183 217
#     4   8  15  27  40  51  65  90 119 145 177 212
#     4   9  16  26  39  52  69  97 129 155 178 207
#
# _framework density 13.435480999999999
#
# number of rings (size 3 to 8) (size 9 to 14) (size 15 to 20)
#    0.000    3.500    0.000    4.000    0.000    7.333 
#    0.000    3.333    0.000    0.000    0.000    0.000 
#    0.000    0.000    0.000   12.000    0.000   30.667 
#
# Total GULP energy -594687.406917 kJ/mol
# GULP energy per Si atom -12389.320977 kJ/mol
# Density = 1.340490 g / cm^3
# Si number density = 13.435481 Si / 1000 Ang^3
#
#
#
# Elastic Constant Matrix: (Units=GPa)
#
#
# Indices 1 2 3 4 5 6 
#
# 1 98.5998 34.2935 48.6251 0.0000 0.0000 0.0000
# 2 34.2935 35.2277 33.0480 0.0000 0.0000 0.0000
# 3 48.6251 33.0480 140.5401 0.0000 0.0000 0.0000
# 4 0.0000 0.0000 0.0000 9.0214 0.0000 0.0000
# 5 0.0000 0.0000 0.0000 0.0000 7.4737 0.0000
# 6 0.0000 0.0000 0.0000 0.0000 0.0000 23.3790
#
#
#
# Elastic Compliance Matrix: (Units=1/GPa)
#
#
# Indices 1 2 3 4 5 6 
#
# 1 0.015938 -0.013269 -0.002394 0.000000 0.000000 0.000000
# 2 -0.013269 0.047469 -0.006571 0.000000 0.000000 0.000000
# 3 -0.002394 -0.006571 0.009489 0.000000 0.000000 0.000000
# 4 0.000000 0.000000 0.000000 0.110848 0.000000 0.000000
# 5 0.000000 0.000000 0.000000 0.000000 0.133802 0.000000
# 6 0.000000 0.000000 0.000000 0.000000 0.000000 0.042773
#
#
# Mechanical properties :
#
#
# Convention : Reuss Voigt Hill
#
# Bulk Modulus (GPa) = 35.17850 56.25562 45.71706
# Shear Modulus (GPa) = 12.06962 18.53489 15.30226
#
# Velocity S-wave (km/s) = 3.00048 3.71826 3.37849
# Velocity P-wave (km/s) = 6.18417 7.77147 7.02281
#
# Compressibility (1/GPa) = 0.02842646
#
# Stress axis : x y z
#
# Youngs Moduli (GPa) = 62.74428 21.06646 105.38577
#
# Poissons Ratio (x) = 0.27953 0.25229
# Poissons Ratio (y) = 0.83257 0.69252
# Poissons Ratio (z) = 0.15021 0.13843
#
# Static dielectric constant tensor:
#      x y z
#    x 2.606660 0.000000 0.000000 
#    y 0.000000 2.931550 0.000000 
#    z 0.000000 0.000000 3.139390 
# 
# 
# High freq. dielectric constant tensor:
#      x y z
#    x 1.476710 0.000000 0.000000 
#    y 0.000000 1.487060 0.000000 
#    z 0.000000 0.000000 1.526330 
# 
# From -- ./inp_files/33908.got.cif
#   From: 2010.03.12/outbox.cif.g09.slc.cpg/sg66_17_cif.got.tgz:33908.got - 2010.04.10 21:57:39.
