data_PCOD8275439
_publ_section_title
;
Structure prediction by ZEFSAII (Michael W. Deem and Ramdas Pophale) SiO2 
 PCOD8275439
Probable space group: C C C M
;
_chemical_formula_sum "Si O2"
_cell_formula_units_Z 80
_cell_length_a 19.142302
_cell_length_b 16.338344
_cell_length_c 13.860805
_cell_angle_alpha 90.000000
_cell_angle_beta 90.000000
_cell_angle_gamma 90.000000
_cell_volume 4335.015485
_symmetry_space_group_name_H-M "C C C M"
_symmetry_group_IT_number 66
_symmetry_cell_setting 'orthorhombic'
loop_
_space_group_symop_operation_xyz
x,y,z
-x,-y,z
x,-y,1/2-z
-x,y,1/2-z
-x,-y,-z
x,y,-z
-x,y,1/2+z
x,-y,1/2+z
1/2+x,1/2+y,z
1/2-x,1/2-y,z
1/2+x,1/2-y,1/2-z
1/2-x,1/2+y,1/2-z
1/2-x,1/2-y,-z
1/2+x,1/2+y,-z
1/2-x,1/2+y,1/2+z
1/2+x,1/2-y,1/2+z
loop_
_atom_site_type_symbol
_atom_site_label
_atom_site_fract_x
_atom_site_fract_y
_atom_site_fract_z
Si Si1 0.654878 0.226218 0.608099
Si Si2 0.401809 0.025679 0.606094
Si Si3 0.722200 0.624806 0.807213
Si Si4 0.255694 0.450130 0.387894
Si Si5 0.474116 0.870513 0.651657
O O1 0.684758 0.231209 0.500000
O O2 0.660194 0.315531 0.657400
O O3 0.702136 0.163956 0.669984
O O4 0.574216 0.197293 0.601327
O O5 0.395698 0.984229 0.500000
O O6 0.326343 0.056884 0.637268
O O7 0.456374 0.101256 0.594859
O O8 0.428399 0.952544 0.675505
O O9 0.711227 0.611439 0.691445
O O10 0.715936 0.540822 0.867039
O O11 0.271958 0.425679 0.500000
O O12 0.500000 0.830075 0.750000
#
# Coordination Sequence:
#
# PCOD8275439 Si02
#       5
#    16  16  16  16  16
#     4  11  20  34  50  71 104 144 187 227 260 315
#     4  10  18  28  45  72 104 139 172 208 258 316
#     4  10  20  31  52  76 101 141 185 221 270 313
#     4  10  19  33  52  78 108 137 176 225 274 324
#     4  11  20  28  45  70 103 139 174 210 260 310
#
# _framework density 18.454376
#
# number of rings (size 3 to 8) (size 9 to 14) (size 15 to 20)
#    0.000    1.600    2.000    7.200    2.800    0.000 
#    0.000    2.000    0.000    3.600    0.000    2.800 
#    0.000    8.000    0.000    0.000    0.000    0.000 
#
# Total GULP energy -495601.189899 kJ/mol
# GULP energy per Si atom -12390.029747 kJ/mol
# Density = 1.841237 g / cm^3
# Si number density = 18.454376 Si / 1000 Ang^3
#
#
#
# Elastic Constant Matrix: (Units=GPa)
#
#
# Indices 1 2 3 4 5 6 
#
# 1 58.5173 36.9637 13.2691 0.0000 0.0000 0.0000
# 2 36.9637 92.2935 44.6120 0.0000 0.0000 0.0000
# 3 13.2691 44.6120 125.4941 0.0000 0.0000 0.0000
# 4 0.0000 0.0000 0.0000 24.0873 0.0000 0.0000
# 5 0.0000 0.0000 0.0000 0.0000 16.5277 0.0000
# 6 0.0000 0.0000 0.0000 0.0000 0.0000 34.2134
#
#
#
# Elastic Compliance Matrix: (Units=1/GPa)
#
#
# Indices 1 2 3 4 5 6 
#
# 1 0.022983 -0.009696 0.001017 0.000000 0.000000 0.000000
# 2 -0.009696 0.017174 -0.005080 0.000000 0.000000 0.000000
# 3 0.001017 -0.005080 0.009667 0.000000 0.000000 0.000000
# 4 0.000000 0.000000 0.000000 0.041516 0.000000 0.000000
# 5 0.000000 0.000000 0.000000 0.000000 0.060505 0.000000
# 6 0.000000 0.000000 0.000000 0.000000 0.000000 0.029228
#
#
# Mechanical properties :
#
#
# Convention : Reuss Voigt Hill
#
# Bulk Modulus (GPa) = 44.83272 51.77719 48.30495
# Shear Modulus (GPa) = 23.14531 27.06301 25.10416
#
# Velocity S-wave (km/s) = 3.54530 3.83362 3.69228
# Velocity P-wave (km/s) = 6.41135 6.90748 6.66403
#
# Compressibility (1/GPa) = 0.02230514
#
# Stress axis : x y z
#
# Youngs Moduli (GPa) = 43.50987 58.22792 103.44624
#
# Poissons Ratio (x) = 0.56460 -0.10519
# Poissons Ratio (y) = 0.42189 0.52550
# Poissons Ratio (z) = -0.04424 0.29579
#
# Static dielectric constant tensor:
#      x y z
#    x 3.146720 0.000000 0.000000 
#    y 0.000000 3.197550 0.000000 
#    z 0.000000 0.000000 3.695430 
# 
# 
# High freq. dielectric constant tensor:
#      x y z
#    x 1.676940 0.000000 0.000000 
#    y 0.000000 1.679160 0.000000 
#    z 0.000000 0.000000 1.736470 
# 
# From -- ./inp_files/29951.got.cif
#   From: 2010.03.12/outbox.cif.g09.slc.cpg/sg66_15_cif.got.tgz:29951.got - 2010.04.10 21:57:39.
