data_PCOD8275412
_publ_section_title
;
Structure prediction by ZEFSAII (Michael W. Deem and Ramdas Pophale) SiO2 
 PCOD8275412
Probable space group: C C C M
;
_chemical_formula_sum "Si O2"
_cell_formula_units_Z 80
_cell_length_a 24.655793
_cell_length_b 12.241697
_cell_length_c 13.728892
_cell_angle_alpha 90.000000
_cell_angle_beta 90.000000
_cell_angle_gamma 90.000000
_cell_volume 4143.774273
_symmetry_space_group_name_H-M "C C C M"
_symmetry_group_IT_number 66
_symmetry_cell_setting 'orthorhombic'
loop_
_space_group_symop_operation_xyz
x,y,z
-x,-y,z
x,-y,1/2-z
-x,y,1/2-z
-x,-y,-z
x,y,-z
-x,y,1/2+z
x,-y,1/2+z
1/2+x,1/2+y,z
1/2-x,1/2-y,z
1/2+x,1/2-y,1/2-z
1/2-x,1/2+y,1/2-z
1/2-x,1/2-y,-z
1/2+x,1/2+y,-z
1/2-x,1/2+y,1/2+z
1/2+x,1/2-y,1/2+z
loop_
_atom_site_type_symbol
_atom_site_label
_atom_site_fract_x
_atom_site_fract_y
_atom_site_fract_z
Si Si1 0.065613 0.004183 0.391655
Si Si2 0.979471 0.776704 0.892926
Si Si3 0.798977 0.173649 0.200148
Si Si4 0.417481 0.280288 0.708384
Si Si5 0.684004 0.444102 0.608183
O O1 0.066421 0.061263 0.500000
O O2 0.016431 0.912218 0.385808
O O3 0.119252 0.927107 0.385690
O O4 0.072230 0.088915 0.301807
O O5 0.934928 0.737153 0.815249
O O6 0.039400 0.728226 0.868726
O O7 0.961461 0.738135 0.000000
O O8 0.750000 0.250000 0.166748
O O9 0.854578 0.245321 0.188179
O O10 0.789761 0.136299 0.312054
O O11 0.800816 0.070015 0.129375
O O12 0.705736 0.414441 0.500000
#
# Coordination Sequence:
#
# PCOD8275412 Si02
#       5
#    16  16  16  16  16
#     4   9  15  25  41  60  86 120 153 184 222 272
#     4  10  18  26  39  59  87 120 154 187 225 275
#     4  10  20  33  49  69  95 130 169 204 240 284
#     4  10  18  27  39  60  89 121 156 190 225 270
#     4   9  18  33  49  68  95 126 164 206 241 281
#
# _framework density 19.306070999999999
#
# number of rings (size 3 to 8) (size 9 to 14) (size 15 to 20)
#    0.000    2.400    2.000    1.800    0.000    4.800 
#    0.000    0.000    0.000    0.000    0.000    0.000 
#    0.000   12.800    0.000   14.400    0.000    0.000 
#
# Total GULP energy -495639.507323 kJ/mol
# GULP energy per Si atom -12390.987683 kJ/mol
# Density = 1.926213 g / cm^3
# Si number density = 19.306071 Si / 1000 Ang^3
#
#
#
# Elastic Constant Matrix: (Units=GPa)
#
#
# Indices 1 2 3 4 5 6 
#
# 1 120.6374 21.1144 14.3614 0.0000 0.0000 0.0000
# 2 21.1144 15.2035 1.3857 0.0000 0.0000 0.0000
# 3 14.3614 1.3857 100.9260 0.0000 0.0000 0.0000
# 4 0.0000 0.0000 0.0000 7.8241 0.0000 0.0000
# 5 0.0000 0.0000 0.0000 0.0000 18.8170 0.0000
# 6 0.0000 0.0000 0.0000 0.0000 0.0000 22.9636
#
#
#
# Elastic Compliance Matrix: (Units=1/GPa)
#
#
# Indices 1 2 3 4 5 6 
#
# 1 0.011138 -0.015344 -0.001374 0.000000 0.000000 0.000000
# 2 -0.015344 0.086993 0.000989 0.000000 0.000000 0.000000
# 3 -0.001374 0.000989 0.010090 0.000000 0.000000 0.000000
# 4 0.000000 0.000000 0.000000 0.127810 0.000000 0.000000
# 5 0.000000 0.000000 0.000000 0.000000 0.053143 0.000000
# 6 0.000000 0.000000 0.000000 0.000000 0.000000 0.043547
#
#
# Mechanical properties :
#
#
# Convention : Reuss Voigt Hill
#
# Bulk Modulus (GPa) = 13.02692 34.49887 23.76290
# Shear Modulus (GPa) = 12.82810 23.24796 18.03803
#
# Velocity S-wave (km/s) = 2.58051 3.47389 3.05998
# Velocity P-wave (km/s) = 3.95486 5.83085 4.98195
#
# Compressibility (1/GPa) = 0.07676413
#
# Stress axis : x y z
#
# Youngs Moduli (GPa) = 89.77941 11.49512 99.10575
#
# Poissons Ratio (x) = 0.17638 0.13620
# Poissons Ratio (y) = 1.37754 -0.09801
# Poissons Ratio (z) = 0.12338 -0.01137
#
# Static dielectric constant tensor:
#      x y z
#    x 3.528850 0.000000 0.000000 
#    y 0.000000 2.563680 0.000000 
#    z 0.000000 0.000000 3.760890 
# 
# 
# High freq. dielectric constant tensor:
#      x y z
#    x 1.752210 0.000000 0.000000 
#    y 0.000000 1.637100 0.000000 
#    z 0.000000 0.000000 1.776380 
# 
# From -- ./inp_files/28120.got.cif
#   From: 2010.03.12/outbox.cif.g09.slc.cpg/sg66_15_cif.got.tgz:28120.got - 2010.04.10 21:57:39.
