data_PCOD8275023
_publ_section_title
;
Structure prediction by ZEFSAII (Michael W. Deem and Ramdas Pophale) SiO2 
 PCOD8275023
Probable space group: C M M M
;
_chemical_formula_sum "Si O2"
_cell_formula_units_Z 96
_cell_length_a 30.057850
_cell_length_b 20.652087
_cell_length_c 9.946516
_cell_angle_alpha 90.000000
_cell_angle_beta 90.000000
_cell_angle_gamma 90.000000
_cell_volume 6174.372747
_symmetry_space_group_name_H-M "C M M M"
_symmetry_group_IT_number 65
_symmetry_cell_setting 'orthorhombic'
loop_
_space_group_symop_operation_xyz
x,y,z
-x,-y,z
x,-y,-z
-x,y,-z
-x,-y,-z
x,y,-z
-x,y,z
x,-y,z
1/2+x,1/2+y,z
1/2-x,1/2-y,z
1/2+x,1/2-y,-z
1/2-x,1/2+y,-z
1/2-x,1/2-y,-z
1/2+x,1/2+y,-z
1/2-x,1/2+y,z
1/2+x,1/2-y,z
loop_
_atom_site_type_symbol
_atom_site_label
_atom_site_fract_x
_atom_site_fract_y
_atom_site_fract_z
Si Si1 0.719445 0.428063 0.340104
Si Si2 0.450556 0.376732 0.150488
Si Si3 0.277443 0.189014 0.660091
Si Si4 0.374544 0.776705 0.346601
Si Si5 0.950546 0.722808 0.150699
Si Si6 0.625200 0.376833 0.346568
O O1 0.719869 0.425436 0.500000
O O2 0.731355 0.500000 0.287367
O O3 0.755709 0.377271 0.283505
O O4 0.670280 0.408714 0.290654
O O5 0.500000 0.401814 0.188868
O O6 0.450037 0.299737 0.156217
O O7 0.415078 0.404612 0.256399
O O8 0.438111 0.400122 0.000000
O O9 0.275201 0.191783 0.500000
O O10 0.250000 0.250000 0.719015
O O11 0.328676 0.191866 0.706571
O O12 0.384642 0.796793 0.500000
O O13 0.414405 0.804945 0.255247
O O14 0.369650 0.699908 0.334252
O O15 0.000000 0.697942 0.190701
O O16 0.938587 0.699238 0.000000
O O17 0.615573 0.397299 0.500000
#
# Coordination Sequence:
#
# PCOD8275023 Si02
#       6
#    16  16  16  16  16  16
#     4   9  16  25  38  57  80 105 133 164 197 236
#     4   8  14  24  37  53  74 101 131 162 199 241
#     4   9  14  23  38  56  80 107 132 161 199 239
#     4   9  15  22  37  59  79 102 132 164 196 230
#     4   8  14  24  36  52  79 110 131 154 196 242
#     4   9  15  23  37  57  77  98 129 167 200 229
#
# _framework density 15.548138
#
# number of rings (size 3 to 8) (size 9 to 14) (size 15 to 20)
#    0.000    3.333    1.667    1.000    0.000    0.667 
#    0.000    3.333    0.000    2.500    0.000    3.500 
#    0.000    0.667    0.000    8.333    0.000    1.667 
#
# Total GULP energy -594867.958736 kJ/mol
# GULP energy per Si atom -12393.082474 kJ/mol
# Density = 1.551275 g / cm^3
# Si number density = 15.548138 Si / 1000 Ang^3
#
#
#
# Elastic Constant Matrix: (Units=GPa)
#
#
# Indices 1 2 3 4 5 6 
#
# 1 149.1786 44.8762 64.0778 0.0000 0.0000 0.0000
# 2 44.8762 47.4564 18.5288 0.0000 0.0000 0.0000
# 3 64.0778 18.5288 58.2202 0.0000 0.0000 0.0000
# 4 0.0000 0.0000 0.0000 4.1586 0.0000 0.0000
# 5 0.0000 0.0000 0.0000 0.0000 9.3721 0.0000
# 6 0.0000 0.0000 0.0000 0.0000 0.0000 10.1156
#
#
#
# Elastic Compliance Matrix: (Units=1/GPa)
#
#
# Indices 1 2 3 4 5 6 
#
# 1 0.015569 -0.009172 -0.014216 0.000000 0.000000 0.000000
# 2 -0.009172 0.029465 0.000717 0.000000 0.000000 0.000000
# 3 -0.014216 0.000717 0.032595 0.000000 0.000000 0.000000
# 4 0.000000 0.000000 0.000000 0.240468 0.000000 0.000000
# 5 0.000000 0.000000 0.000000 0.000000 0.106700 0.000000
# 6 0.000000 0.000000 0.000000 0.000000 0.000000 0.098857
#
#
# Mechanical properties :
#
#
# Convention : Reuss Voigt Hill
#
# Bulk Modulus (GPa) = 30.97248 56.64673 43.80961
# Shear Modulus (GPa) = 8.62429 13.22074 10.92251
#
# Velocity S-wave (km/s) = 2.35773 2.91917 2.65334
# Velocity P-wave (km/s) = 5.23216 6.91913 6.13391
#
# Compressibility (1/GPa) = 0.03228672
#
# Stress axis : x y z
#
# Youngs Moduli (GPa) = 64.23057 33.93847 30.67993
#
# Poissons Ratio (x) = 0.31128 0.43616
# Poissons Ratio (y) = 0.58911 -0.02200
# Poissons Ratio (z) = 0.91312 -0.02434
#
# Static dielectric constant tensor:
#      x y z
#    x 3.275280 0.000000 0.000000 
#    y 0.000000 2.679280 0.000000 
#    z 0.000000 0.000000 2.831380 
# 
# 
# High freq. dielectric constant tensor:
#      x y z
#    x 1.606840 0.000000 0.000000 
#    y 0.000000 1.544580 0.000000 
#    z 0.000000 0.000000 1.562680 
# 
# From -- ./inp_files/14569.got.cif
#   From: 2010.03.12/outbox.cif.g09.slc.cpg/sg65_8_cif.got.tgz:14569.got - 2010.04.10 20:52:16.
