data_PCOD8275541
_publ_section_title
;
Structure prediction by ZEFSAII (Michael W. Deem and Ramdas Pophale) SiO2 
 PCOD8275541
Probable space group: C C C M
;
_chemical_formula_sum "Si O2"
_cell_formula_units_Z 72
_cell_length_a 4.880085
_cell_length_b 31.370329
_cell_length_c 23.284519
_cell_angle_alpha 90.000000
_cell_angle_beta 90.000000
_cell_angle_gamma 90.000000
_cell_volume 3564.624033
_symmetry_space_group_name_H-M "C C C M"
_symmetry_group_IT_number 66
_symmetry_cell_setting 'orthorhombic'
loop_
_space_group_symop_operation_xyz
x,y,z
-x,-y,z
x,-y,1/2-z
-x,y,1/2-z
-x,-y,-z
x,y,-z
-x,y,1/2+z
x,-y,1/2+z
1/2+x,1/2+y,z
1/2-x,1/2-y,z
1/2+x,1/2-y,1/2-z
1/2-x,1/2+y,1/2-z
1/2-x,1/2-y,-z
1/2+x,1/2+y,-z
1/2-x,1/2+y,1/2+z
1/2+x,1/2-y,1/2+z
loop_
_atom_site_type_symbol
_atom_site_label
_atom_site_fract_x
_atom_site_fract_y
_atom_site_fract_z
Si Si1 0.476176 0.442388 0.000000
Si Si2 0.930014 0.161111 0.316439
Si Si3 0.750000 0.750000 0.210252
Si Si4 0.270564 0.472669 0.614667
Si Si5 0.070025 0.621832 0.873147
Si Si6 0.533357 0.888818 0.500000
O O1 0.567100 0.468149 0.944743
O O2 0.151087 0.432201 0.000000
O O3 0.642237 0.397926 0.000000
O O4 0.831348 0.209505 0.328616
O O5 0.697614 0.127260 0.333937
O O6 0.000000 0.154149 0.250000
O O7 0.198976 0.155018 0.354603
O O8 0.500000 0.765196 0.250000
O O9 0.500000 0.500000 0.652163
O O10 0.186388 0.425996 0.637764
O O11 0.000000 0.500000 0.607095
O O12 0.977803 0.633922 0.938825
#
# Coordination Sequence:
#
# PCOD8275541 Si02
#       6
#     8  16   8  16  16   8
#     4  10  18  31  50  78 110 147 196 251 298 320
#     4  11  22  39  64  90 115 143 186 241 293 344
#     4  10  20  38  64  95 116 133 178 248 306 334
#     4  11  20  32  51  79 115 152 198 245 282 325
#     4  11  22  37  58  86 120 157 191 233 286 343
#     4  10  20  35  54  83 120 154 190 230 284 349
#
# _framework density 20.198484000000001
#
# number of rings (size 3 to 8) (size 9 to 14) (size 15 to 20)
#    0.000    1.333    0.000   10.667    0.000    0.000 
#    0.000    0.000    0.000   14.000    0.000    0.000 
#    0.000    0.000    0.000    0.000    0.000    0.000 
#
# Total GULP energy -445983.133758 kJ/mol
# GULP energy per Si atom -12388.420382 kJ/mol
# Density = 2.015251 g / cm^3
# Si number density = 20.198484 Si / 1000 Ang^3
#
#
#
# Elastic Constant Matrix: (Units=GPa)
#
#
# Indices 1 2 3 4 5 6 
#
# 1 120.8368 28.5628 54.3987 0.0000 0.0000 0.0000
# 2 28.5628 78.1530 64.4004 0.0000 0.0000 0.0000
# 3 54.3987 64.4004 89.7329 0.0000 0.0000 0.0000
# 4 0.0000 0.0000 0.0000 40.1355 0.0000 0.0000
# 5 0.0000 0.0000 0.0000 0.0000 -248.2704 0.0000
# 6 0.0000 0.0000 0.0000 0.0000 0.0000 44.1284
#
#
#
# Elastic Compliance Matrix: (Units=1/GPa)
#
#
# Indices 1 2 3 4 5 6 
#
# 1 0.011845 0.003887 -0.009971 0.000000 0.000000 0.000000
# 2 0.003887 0.032591 -0.025746 0.000000 0.000000 0.000000
# 3 -0.009971 -0.025746 0.035666 0.000000 0.000000 0.000000
# 4 0.000000 0.000000 0.000000 0.024916 0.000000 0.000000
# 5 0.000000 0.000000 0.000000 0.000000 -0.004028 0.000000
# 6 0.000000 0.000000 0.000000 0.000000 0.000000 0.022661
#
#
# Mechanical properties :
#
#
# Convention : Reuss Voigt Hill
#
# Bulk Modulus (GPa) = 60.81793 64.82737 62.82265
# Shear Modulus (GPa) = 25.93467 -23.37723 1.27872
#
# Velocity S-wave (km/s) = 3.58717 -3.40571 0.79652
# Velocity P-wave (km/s) = 6.87987 4.08652 5.65828
#
# Compressibility (1/GPa) = 0.01644252
#
# Stress axis : x y z
#
# Youngs Moduli (GPa) = 84.42038 30.68378 28.03752
#
# Poissons Ratio (x) = -0.11927 0.27955
# Poissons Ratio (y) = -0.32814 0.72186
# Poissons Ratio (z) = 0.84173 0.78999
#
# Static dielectric constant tensor:
#      x y z
#    x 4.102590 0.000000 0.000000 
#    y 0.000000 3.715400 0.000000 
#    z 0.000000 0.000000 3.501750 
# 
# 
# High freq. dielectric constant tensor:
#      x y z
#    x 1.824420 0.000000 0.000000 
#    y 0.000000 1.776680 0.000000 
#    z 0.000000 0.000000 1.749440 
# 
# From -- ./inp_files/54335.got.cif
#   From: 2010.03.12/outbox.cif.g09.slc.cpg/sg66_28_cif.got.tgz:54335.got - 2010.04.10 21:57:39.
