data_PCOD8275396
_publ_section_title
;
Structure prediction by ZEFSAII (Michael W. Deem and Ramdas Pophale) SiO2 
 PCOD8275396
Probable space group: C C C M
;
_chemical_formula_sum "Si O2"
_cell_formula_units_Z 80
_cell_length_a 10.334522
_cell_length_b 25.294868
_cell_length_c 14.743267
_cell_angle_alpha 90.000000
_cell_angle_beta 90.000000
_cell_angle_gamma 90.000000
_cell_volume 3854.042879
_symmetry_space_group_name_H-M "C C C M"
_symmetry_group_IT_number 66
_symmetry_cell_setting 'orthorhombic'
loop_
_space_group_symop_operation_xyz
x,y,z
-x,-y,z
x,-y,1/2-z
-x,y,1/2-z
-x,-y,-z
x,y,-z
-x,y,1/2+z
x,-y,1/2+z
1/2+x,1/2+y,z
1/2-x,1/2-y,z
1/2+x,1/2-y,1/2-z
1/2-x,1/2+y,1/2-z
1/2-x,1/2-y,-z
1/2+x,1/2+y,-z
1/2-x,1/2+y,1/2+z
1/2+x,1/2-y,1/2+z
loop_
_atom_site_type_symbol
_atom_site_label
_atom_site_fract_x
_atom_site_fract_y
_atom_site_fract_z
Si Si1 0.127412 0.965507 0.000000
Si Si2 0.383331 0.592183 0.807918
Si Si3 0.874257 0.537387 0.000000
Si Si4 0.969582 0.171969 0.402295
Si Si5 0.716377 0.884587 0.852730
Si Si6 0.881410 0.272291 0.315068
O O1 0.135567 0.932775 0.093312
O O2 0.249842 0.001997 0.000000
O O3 0.000000 0.000000 0.000000
O O4 0.500000 0.564191 0.750000
O O5 0.426211 0.653774 0.826309
O O6 0.250755 0.592679 0.748628
O O7 0.868149 0.573453 0.090609
O O8 0.000000 0.500000 0.000000
O O9 0.036408 0.166587 0.500000
O O10 0.852319 0.129279 0.399771
O O11 0.915092 0.231289 0.395263
O O12 0.629954 0.831937 0.849416
O O13 0.750000 0.250000 0.268155
O O14 0.000000 0.269150 0.250000
#
# Coordination Sequence:
#
# PCOD8275396 Si02
#       6
#     8  16   8  16  16  16
#     4  12  24  42  69  98 128 160 225 288 335 386
#     4  10  21  38  65 101 131 166 208 274 338 387
#     4  12  28  46  62  94 128 172 228 278 314 388
#     4  10  17  33  64 102 133 157 203 266 326 389
#     4  10  22  40  64  87 131 176 218 253 326 394
#     4  10  21  36  62  95 130 168 213 254 317 393
#
# _framework density 20.757422999999999
#
# number of rings (size 3 to 8) (size 9 to 14) (size 15 to 20)
#    0.000    1.600    2.000    5.400    1.400    5.600 
#    0.000    1.000    2.200    1.800    0.000    0.000 
#    0.000    0.000    0.000    0.000    0.000    0.000 
#
# Total GULP energy -495541.168544 kJ/mol
# GULP energy per Si atom -12388.529214 kJ/mol
# Density = 2.071018 g / cm^3
# Si number density = 20.757423 Si / 1000 Ang^3
#
#
#
# Elastic Constant Matrix: (Units=GPa)
#
#
# Indices 1 2 3 4 5 6 
#
# 1 101.3914 60.4029 47.6584 0.0000 0.0000 0.0000
# 2 60.4029 134.4071 68.1527 0.0000 0.0000 0.0000
# 3 47.6584 68.1527 155.6190 0.0000 0.0000 0.0000
# 4 0.0000 0.0000 0.0000 26.0512 0.0000 0.0000
# 5 0.0000 0.0000 0.0000 0.0000 19.2381 0.0000
# 6 0.0000 0.0000 0.0000 0.0000 0.0000 31.1281
#
#
#
# Elastic Compliance Matrix: (Units=1/GPa)
#
#
# Indices 1 2 3 4 5 6 
#
# 1 0.013918 -0.005262 -0.001958 0.000000 0.000000 0.000000
# 2 -0.005262 0.011553 -0.003448 0.000000 0.000000 0.000000
# 3 -0.001958 -0.003448 0.008536 0.000000 0.000000 0.000000
# 4 0.000000 0.000000 0.000000 0.038386 0.000000 0.000000
# 5 0.000000 0.000000 0.000000 0.000000 0.051980 0.000000
# 6 0.000000 0.000000 0.000000 0.000000 0.000000 0.032125
#
#
# Mechanical properties :
#
#
# Convention : Reuss Voigt Hill
#
# Bulk Modulus (GPa) = 78.92250 82.64950 80.78600
# Shear Modulus (GPa) = 27.46380 29.63039 28.54709
#
# Velocity S-wave (km/s) = 3.64137 3.78227 3.71249
# Velocity P-wave (km/s) = 7.46882 7.67967 7.57498
#
# Compressibility (1/GPa) = 0.01267066
#
# Stress axis : x y z
#
# Youngs Moduli (GPa) = 71.85045 86.55557 117.15498
#
# Poissons Ratio (x) = 0.45545 0.22938
# Poissons Ratio (y) = 0.37807 0.40398
# Poissons Ratio (z) = 0.14068 0.29846
#
# Static dielectric constant tensor:
#      x y z
#    x 3.588870 0.000000 0.000000 
#    y 0.000000 4.223210 0.000000 
#    z 0.000000 0.000000 3.905870 
# 
# 
# High freq. dielectric constant tensor:
#      x y z
#    x 1.782360 0.000000 0.000000 
#    y 0.000000 1.816280 0.000000 
#    z 0.000000 0.000000 1.819000 
# 
# From -- ./inp_files/26436.got.cif
#   From: 2010.03.12/outbox.cif.g09.slc.cpg/sg66_14_cif.got.tgz:26436.got - 2010.04.10 21:57:39.
