data_PCOD8275388
_publ_section_title
;
Structure prediction by ZEFSAII (Michael W. Deem and Ramdas Pophale) SiO2 
 PCOD8275388
Probable space group: C C C M
;
_chemical_formula_sum "Si O2"
_cell_formula_units_Z 88
_cell_length_a 19.001486
_cell_length_b 15.870028
_cell_length_c 15.171831
_cell_angle_alpha 90.000000
_cell_angle_beta 90.000000
_cell_angle_gamma 90.000000
_cell_volume 4575.128068
_symmetry_space_group_name_H-M "C C C M"
_symmetry_group_IT_number 66
_symmetry_cell_setting 'orthorhombic'
loop_
_space_group_symop_operation_xyz
x,y,z
-x,-y,z
x,-y,1/2-z
-x,y,1/2-z
-x,-y,-z
x,y,-z
-x,y,1/2+z
x,-y,1/2+z
1/2+x,1/2+y,z
1/2-x,1/2-y,z
1/2+x,1/2-y,1/2-z
1/2-x,1/2+y,1/2-z
1/2-x,1/2-y,-z
1/2+x,1/2+y,-z
1/2-x,1/2+y,1/2+z
1/2+x,1/2-y,1/2+z
loop_
_atom_site_type_symbol
_atom_site_label
_atom_site_fract_x
_atom_site_fract_y
_atom_site_fract_z
Si Si1 0.000000 0.640271 0.250000
Si Si2 0.092361 0.443001 0.598138
Si Si3 0.216609 0.328956 0.641209
Si Si4 0.130949 0.261359 0.805205
Si Si5 0.811105 0.405974 0.599507
Si Si6 0.185536 0.911655 0.269653
O O1 0.963135 0.583600 0.326313
O O2 0.947586 0.704822 0.202997
O O3 0.056894 0.444563 0.500000
O O4 0.159589 0.381415 0.587138
O O5 0.121483 0.535302 0.625196
O O6 0.250000 0.250000 0.585953
O O7 0.178262 0.287858 0.724055
O O8 0.280428 0.386299 0.676030
O O9 0.166094 0.308020 0.889329
O O10 0.133341 0.159329 0.810898
O O11 0.787729 0.422785 0.500000
O O12 0.747043 0.431531 0.661151
O O13 0.144690 0.000000 0.250000
#
# Coordination Sequence:
#
# PCOD8275388 Si02
#       6
#     8  16  16  16  16  16
#     4  10  22  39  53  72 118 154 191 232 274 323
#     4  10  20  33  52  79 109 149 190 224 275 344
#     4   8  15  29  49  74 101 130 175 229 280 323
#     4   9  20  32  51  75 102 149 186 222 276 335
#     4  10  20  33  52  83 114 139 180 234 294 352
#     4  10  17  32  55  77 105 140 182 228 285 339
#
# _framework density 19.234434
#
# number of rings (size 3 to 8) (size 9 to 14) (size 15 to 20)
#    0.000    2.545    1.818    1.636    0.000    4.000 
#    0.000    2.273    0.000    0.000    0.000    0.000 
#    0.000    8.000    0.000    0.000    0.000    0.000 
#
# Total GULP energy -545076.561431 kJ/mol
# GULP energy per Si atom -12388.103669 kJ/mol
# Density = 1.919066 g / cm^3
# Si number density = 19.234434 Si / 1000 Ang^3
#
#
#
# Elastic Constant Matrix: (Units=GPa)
#
#
# Indices 1 2 3 4 5 6 
#
# 1 51.8985 36.0321 22.4949 0.0000 0.0000 0.0000
# 2 36.0321 161.2692 34.0837 0.0000 0.0000 0.0000
# 3 22.4949 34.0837 81.5203 0.0000 0.0000 0.0000
# 4 0.0000 0.0000 0.0000 14.8273 0.0000 0.0000
# 5 0.0000 0.0000 0.0000 0.0000 -1.8979 0.0000
# 6 0.0000 0.0000 0.0000 0.0000 0.0000 26.2721
#
#
#
# Elastic Compliance Matrix: (Units=1/GPa)
#
#
# Indices 1 2 3 4 5 6 
#
# 1 0.024469 -0.004432 -0.004899 0.000000 0.000000 0.000000
# 2 -0.004432 0.007604 -0.001957 0.000000 0.000000 0.000000
# 3 -0.004899 -0.001957 0.014437 0.000000 0.000000 0.000000
# 4 0.000000 0.000000 0.000000 0.067443 0.000000 0.000000
# 5 0.000000 0.000000 0.000000 0.000000 -0.526905 0.000000
# 6 0.000000 0.000000 0.000000 0.000000 0.000000 0.038063
#
#
# Mechanical properties :
#
#
# Convention : Reuss Voigt Hill
#
# Bulk Modulus (GPa) = 41.77914 53.32327 47.55121
# Shear Modulus (GPa) = -14.52070 21.31212 3.39571
#
# Velocity S-wave (km/s) = -2.75058 3.33230 1.33014
# Velocity P-wave (km/s) = 3.41768 6.52600 5.20909
#
# Compressibility (1/GPa) = 0.02393539
#
# Stress axis : x y z
#
# Youngs Moduli (GPa) = 40.86877 131.50173 69.26740
#
# Poissons Ratio (x) = 0.58276 0.33935
# Poissons Ratio (y) = 0.18111 0.13553
# Poissons Ratio (z) = 0.20022 0.25729
#
# Static dielectric constant tensor:
#      x y z
#    x 3.464570 0.000000 0.000000 
#    y 0.000000 4.053340 0.000000 
#    z 0.000000 0.000000 3.271690 
# 
# 
# High freq. dielectric constant tensor:
#      x y z
#    x 1.714680 0.000000 0.000000 
#    y 0.000000 1.759340 0.000000 
#    z 0.000000 0.000000 1.731720 
# 
# From -- ./inp_files/41546.got.cif
#   From: 2010.03.12/outbox.cif.g09.slc.cpg/sg66_21_cif.got.tgz:41546.got - 2010.04.10 21:57:39.
