data_PCOD8275606
_publ_section_title
;
Structure prediction by ZEFSAII (Michael W. Deem and Ramdas Pophale) SiO2 
 PCOD8275606
Probable space group: C C C M
;
_chemical_formula_sum "Si O2"
_cell_formula_units_Z 80
_cell_length_a 16.200133
_cell_length_b 8.533387
_cell_length_c 29.179672
_cell_angle_alpha 90.000000
_cell_angle_beta 90.000000
_cell_angle_gamma 90.000000
_cell_volume 4033.856343
_symmetry_space_group_name_H-M "C C C M"
_symmetry_group_IT_number 66
_symmetry_cell_setting 'orthorhombic'
loop_
_space_group_symop_operation_xyz
x,y,z
-x,-y,z
x,-y,1/2-z
-x,y,1/2-z
-x,-y,-z
x,y,-z
-x,y,1/2+z
x,-y,1/2+z
1/2+x,1/2+y,z
1/2-x,1/2-y,z
1/2+x,1/2-y,1/2-z
1/2-x,1/2+y,1/2-z
1/2-x,1/2-y,-z
1/2+x,1/2+y,-z
1/2-x,1/2+y,1/2+z
1/2+x,1/2-y,1/2+z
loop_
_atom_site_type_symbol
_atom_site_label
_atom_site_fract_x
_atom_site_fract_y
_atom_site_fract_z
Si Si1 0.422622 0.390380 0.376366
Si Si2 0.157269 0.692301 0.201796
Si Si3 0.839703 0.673203 0.197132
Si Si4 0.343108 0.692270 0.394769
Si Si5 0.990584 0.319074 0.447023
O O1 0.500000 0.500000 0.364458
O O2 0.400472 0.289989 0.331763
O O3 0.346931 0.502543 0.392661
O O4 0.441569 0.275715 0.418397
O O5 0.250000 0.750000 0.199251
O O6 0.160626 0.511396 0.188270
O O7 0.120227 0.713050 0.253440
O O8 0.750000 0.750000 0.196422
O O9 0.885396 0.747463 0.153176
O O10 0.250000 0.750000 0.401991
O O11 0.398062 0.760669 0.435839
O O12 0.008549 0.286483 0.500000
O O13 0.000000 0.500000 0.434479
#
# Coordination Sequence:
#
# PCOD8275606 Si02
#       5
#    16  16  16  16  16
#     4  10  22  37  57  84 114 150 184 228 282 332
#     4  10  18  32  56  82 113 152 192 230 270 324
#     4   9  18  31  52  84 116 147 185 232 279 321
#     4  10  20  36  58  84 113 144 186 231 271 325
#     4  10  22  41  61  80 108 145 182 228 288 341
#
# _framework density 19.832139000000002
#
# number of rings (size 3 to 8) (size 9 to 14) (size 15 to 20)
#    0.000    2.200    0.000    3.600    0.000    6.400 
#    0.000    7.000    0.000   13.800    0.000    0.000 
#    0.000    0.000    0.000    0.000    0.000    0.000 
#
# Total GULP energy -495789.170684 kJ/mol
# GULP energy per Si atom -12394.729267 kJ/mol
# Density = 1.978700 g / cm^3
# Si number density = 19.832139 Si / 1000 Ang^3
#
#
#
# Elastic Constant Matrix: (Units=GPa)
#
#
# Indices 1 2 3 4 5 6 
#
# 1 55.8881 40.0284 29.8674 0.0000 0.0000 0.0000
# 2 40.0284 155.9682 74.6683 0.0000 0.0000 0.0000
# 3 29.8674 74.6683 107.9434 0.0000 0.0000 0.0000
# 4 0.0000 0.0000 0.0000 36.4912 0.0000 0.0000
# 5 0.0000 0.0000 0.0000 0.0000 32.0934 0.0000
# 6 0.0000 0.0000 0.0000 0.0000 0.0000 35.8414
#
#
#
# Elastic Compliance Matrix: (Units=1/GPa)
#
#
# Indices 1 2 3 4 5 6 
#
# 1 0.022713 -0.004217 -0.003367 0.000000 0.000000 0.000000
# 2 -0.004217 0.010369 -0.006006 0.000000 0.000000 0.000000
# 3 -0.003367 -0.006006 0.014350 0.000000 0.000000 0.000000
# 4 0.000000 0.000000 0.000000 0.027404 0.000000 0.000000
# 5 0.000000 0.000000 0.000000 0.000000 0.031159 0.000000
# 6 0.000000 0.000000 0.000000 0.000000 0.000000 0.027901
#
#
# Mechanical properties :
#
#
# Convention : Reuss Voigt Hill
#
# Bulk Modulus (GPa) = 49.37878 67.65865 58.51871
# Shear Modulus (GPa) = 29.79261 32.56759 31.18010
#
# Velocity S-wave (km/s) = 3.88008 4.05676 3.96940
# Velocity P-wave (km/s) = 6.71012 7.49218 7.11191
#
# Compressibility (1/GPa) = 0.02025161
#
# Stress axis : x y z
#
# Youngs Moduli (GPa) = 44.02803 96.44078 69.68482
#
# Poissons Ratio (x) = 0.40669 0.23466
# Poissons Ratio (y) = 0.18566 0.41852
# Poissons Ratio (z) = 0.14826 0.57921
#
# Static dielectric constant tensor:
#      x y z
#    x 3.309310 0.000000 0.000000 
#    y 0.000000 3.439440 0.000000 
#    z 0.000000 0.000000 3.899840 
# 
# 
# High freq. dielectric constant tensor:
#      x y z
#    x 1.747450 0.000000 0.000000 
#    y 0.000000 1.794830 0.000000 
#    z 0.000000 0.000000 1.777190 
# 
# From -- ./inp_files/65040.got.cif
#   From: 2010.03.12/outbox.cif.g09.slc.cpg/sg66_33_cif.got.tgz:65040.got - 2010.04.10 21:57:39.
