data_PCOD8275877
_publ_section_title
;
Structure prediction by ZEFSAII (Michael W. Deem and Ramdas Pophale) SiO2 
 PCOD8275877
Probable space group: C C C M
;
_chemical_formula_sum "Si O2"
_cell_formula_units_Z 96
_cell_length_a 20.066487
_cell_length_b 30.323210
_cell_length_c 8.955105
_cell_angle_alpha 90.000000
_cell_angle_beta 90.000000
_cell_angle_gamma 90.000000
_cell_volume 5449.004970
_symmetry_space_group_name_H-M "C C C M"
_symmetry_group_IT_number 66
_symmetry_cell_setting 'orthorhombic'
loop_
_space_group_symop_operation_xyz
x,y,z
-x,-y,z
x,-y,1/2-z
-x,y,1/2-z
-x,-y,-z
x,y,-z
-x,y,1/2+z
x,-y,1/2+z
1/2+x,1/2+y,z
1/2-x,1/2-y,z
1/2+x,1/2-y,1/2-z
1/2-x,1/2+y,1/2-z
1/2-x,1/2-y,-z
1/2+x,1/2+y,-z
1/2-x,1/2+y,1/2+z
1/2+x,1/2-y,1/2+z
loop_
_atom_site_type_symbol
_atom_site_label
_atom_site_fract_x
_atom_site_fract_y
_atom_site_fract_z
Si Si1 0.431263 0.200557 0.323548
Si Si2 0.933022 0.802021 0.326731
Si Si3 0.182928 0.867578 0.822759
Si Si4 0.175946 0.638172 0.679223
Si Si5 0.332566 0.041531 0.163501
Si Si6 0.325472 0.542748 0.332428
O O1 0.500000 0.184279 0.250000
O O2 0.433251 0.191738 0.500000
O O3 0.418322 0.251480 0.283814
O O4 0.371690 0.174395 0.247932
O O5 0.945825 0.807245 0.500000
O O6 0.870533 0.830906 0.275194
O O7 0.000000 0.819555 0.250000
O O8 0.250775 0.853143 0.742968
O O9 0.155800 0.914291 0.763346
O O10 0.194088 0.870243 0.000000
O O11 0.178573 0.640804 0.500000
O O12 0.150112 0.589591 0.732318
O O13 0.253423 0.037389 0.157492
O O14 0.364189 0.000000 0.250000
O O15 0.363969 0.038498 0.000000
O O16 0.356419 0.500000 0.250000
O O17 0.355141 0.546576 0.500000
#
# Coordination Sequence:
#
# PCOD8275877 Si02
#       6
#    16  16  16  16  16  16
#     4  10  20  36  55  74  97 130 168 207 250 302
#     4   9  20  36  54  74  98 130 169 207 250 303
#     4  10  19  32  50  75 104 133 165 207 253 296
#     4  10  20  33  49  75 105 133 166 206 249 296
#     4   8  15  26  42  65  95 126 159 195 235 283
#     4   9  16  27  44  69  99 132 166 202 244 294
#
# _framework density 17.617895999999998
#
# number of rings (size 3 to 8) (size 9 to 14) (size 15 to 20)
#    0.000    2.667    0.000    3.000    0.000    7.333 
#    0.000    3.333    0.000    1.000    0.000    7.000 
#    0.000    0.000    0.000    0.000    0.000    0.000 
#
# Total GULP energy -595047.778394 kJ/mol
# GULP energy per Si atom -12396.828717 kJ/mol
# Density = 1.757780 g / cm^3
# Si number density = 17.617896 Si / 1000 Ang^3
#
#
#
# Elastic Constant Matrix: (Units=GPa)
#
#
# Indices 1 2 3 4 5 6 
#
# 1 88.8779 72.4281 49.9258 0.0000 0.0000 0.0000
# 2 72.4281 120.1671 57.2652 0.0000 0.0000 0.0000
# 3 49.9258 57.2652 94.7051 0.0000 0.0000 0.0000
# 4 0.0000 0.0000 0.0000 30.9656 0.0000 0.0000
# 5 0.0000 0.0000 0.0000 0.0000 23.5239 0.0000
# 6 0.0000 0.0000 0.0000 0.0000 0.0000 -1.2239
#
#
#
# Elastic Compliance Matrix: (Units=1/GPa)
#
#
# Indices 1 2 3 4 5 6 
#
# 1 0.023980 -0.011841 -0.005482 0.000000 0.000000 0.000000
# 2 -0.011841 0.017538 -0.004362 0.000000 0.000000 0.000000
# 3 -0.005482 -0.004362 0.016086 0.000000 0.000000 0.000000
# 4 0.000000 0.000000 0.000000 0.032294 0.000000 0.000000
# 5 0.000000 0.000000 0.000000 0.000000 0.042510 0.000000
# 6 0.000000 0.000000 0.000000 0.000000 0.000000 -0.817032
#
#
# Mechanical properties :
#
#
# Convention : Reuss Voigt Hill
#
# Bulk Modulus (GPa) = 70.25271 73.66535 71.95903
# Shear Modulus (GPa) = -7.85535 18.92850 5.53658
#
# Velocity S-wave (km/s) = -2.11386 3.28135 1.77466
# Velocity P-wave (km/s) = 5.83133 7.50066 6.71805
#
# Compressibility (1/GPa) = 0.01423433
#
# Stress axis : x y z
#
# Youngs Moduli (GPa) = 41.70078 57.02046 62.16428
#
# Poissons Ratio (x) = 0.67520 0.34076
# Poissons Ratio (y) = 0.49379 0.27116
# Poissons Ratio (z) = 0.22859 0.24872
#
# Static dielectric constant tensor:
#      x y z
#    x 2.948830 0.000000 0.000000 
#    y 0.000000 3.548910 0.000000 
#    z 0.000000 0.000000 3.454210 
# 
# 
# High freq. dielectric constant tensor:
#      x y z
#    x 1.638900 0.000000 0.000000 
#    y 0.000000 1.692250 0.000000 
#    z 0.000000 0.000000 1.693610 
# 
# From -- ./inp_files/8050.got.cif
#   From: 2010.03.12/outbox.cif.g09.slc.cpg/sg66_5_cif.got.tgz:8050.got - 2010.04.10 21:57:39.
