data_PCOD8275180
_publ_section_title
;
Structure prediction by ZEFSAII (Michael W. Deem and Ramdas Pophale) SiO2 
 PCOD8275180
Probable space group: C M M M
;
_chemical_formula_sum "Si O2"
_cell_formula_units_Z 80
_cell_length_a 37.091677
_cell_length_b 9.647894
_cell_length_c 13.639261
_cell_angle_alpha 90.000000
_cell_angle_beta 90.000000
_cell_angle_gamma 90.000000
_cell_volume 4880.899131
_symmetry_space_group_name_H-M "C M M M"
_symmetry_group_IT_number 65
_symmetry_cell_setting 'orthorhombic'
loop_
_space_group_symop_operation_xyz
x,y,z
-x,-y,z
x,-y,-z
-x,y,-z
-x,-y,-z
x,y,-z
-x,y,z
x,-y,z
1/2+x,1/2+y,z
1/2-x,1/2-y,z
1/2+x,1/2-y,-z
1/2-x,1/2+y,-z
1/2-x,1/2-y,-z
1/2+x,1/2+y,-z
1/2-x,1/2+y,z
1/2+x,1/2-y,z
loop_
_atom_site_type_symbol
_atom_site_label
_atom_site_fract_x
_atom_site_fract_y
_atom_site_fract_z
Si Si1 0.645245 0.839957 0.270245
Si Si2 0.040243 0.841332 0.769045
Si Si3 0.074108 0.660058 0.611958
Si Si4 0.890393 0.161827 0.887702
Si Si5 0.284022 0.839201 0.612725
O O1 0.614332 0.811723 0.349847
O O2 0.638953 0.747307 0.174013
O O3 0.682603 0.795098 0.319689
O O4 0.645749 0.000000 0.237867
O O5 0.045429 0.748668 0.672746
O O6 0.069056 0.800879 0.852657
O O7 0.000000 0.816176 0.811141
O O8 0.045628 0.000000 0.736902
O O9 0.072357 0.708610 0.500000
O O10 0.063495 0.500000 0.623351
O O11 0.882165 0.000000 0.873874
O O12 0.887000 0.207665 0.000000
O O13 0.293979 0.806654 0.500000
O O14 0.250000 0.750000 0.647709
O O15 0.274433 0.000000 0.626272
#
# Coordination Sequence:
#
# PCOD8275180 Si02
#       5
#    16  16  16  16  16
#     4   9  17  30  48  68  91 119 150 184 220 261
#     4   9  18  31  45  63  88 116 146 182 225 271
#     4   9  17  29  45  64  87 118 153 184 216 258
#     4   9  18  32  49  68  88 112 146 188 231 271
#     4   9  17  29  46  70  99 127 152 178 212 256
#
# _framework density 16.390422999999998
#
# number of rings (size 3 to 8) (size 9 to 14) (size 15 to 20)
#    0.000    3.000    0.000    0.600    0.000    5.200 
#    0.000    4.000    0.000    4.200    0.000    5.600 
#    0.000    0.000    0.000    0.000    0.000    0.000 
#
# Total GULP energy -496018.756137 kJ/mol
# GULP energy per Si atom -12400.468903 kJ/mol
# Density = 1.635312 g / cm^3
# Si number density = 16.390423 Si / 1000 Ang^3
#
#
#
# Elastic Constant Matrix: (Units=GPa)
#
#
# Indices 1 2 3 4 5 6 
#
# 1 111.4903 47.3930 54.9961 0.0000 0.0000 0.0000
# 2 47.3930 54.8531 51.5627 0.0000 0.0000 0.0000
# 3 54.9961 51.5627 118.8282 0.0000 0.0000 0.0000
# 4 0.0000 0.0000 0.0000 28.4955 0.0000 0.0000
# 5 0.0000 0.0000 0.0000 0.0000 19.2550 0.0000
# 6 0.0000 0.0000 0.0000 0.0000 0.0000 28.0310
#
#
#
# Elastic Compliance Matrix: (Units=1/GPa)
#
#
# Indices 1 2 3 4 5 6 
#
# 1 0.014494 -0.010500 -0.002152 0.000000 0.000000 0.000000
# 2 -0.010500 0.038396 -0.011801 0.000000 0.000000 0.000000
# 3 -0.002152 -0.011801 0.014532 0.000000 0.000000 0.000000
# 4 0.000000 0.000000 0.000000 0.035093 0.000000 0.000000
# 5 0.000000 0.000000 0.000000 0.000000 0.051935 0.000000
# 6 0.000000 0.000000 0.000000 0.000000 0.000000 0.035675
#
#
# Mechanical properties :
#
#
# Convention : Reuss Voigt Hill
#
# Bulk Modulus (GPa) = 54.00795 65.89724 59.95260
# Shear Modulus (GPa) = 20.39112 23.90429 22.14770
#
# Velocity S-wave (km/s) = 3.53099 3.82308 3.67994
# Velocity P-wave (km/s) = 7.04601 7.73175 7.39683
#
# Compressibility (1/GPa) = 0.01851579
#
# Stress axis : x y z
#
# Youngs Moduli (GPa) = 68.99195 26.04426 68.81177
#
# Poissons Ratio (x) = 0.27347 0.14808
# Poissons Ratio (y) = 0.72444 0.81207
# Poissons Ratio (z) = 0.14847 0.30736
#
# Static dielectric constant tensor:
#      x y z
#    x 3.069230 0.000000 0.000000 
#    y 0.000000 3.099730 0.000000 
#    z 0.000000 0.000000 3.015240 
# 
# 
# High freq. dielectric constant tensor:
#      x y z
#    x 1.624440 0.000000 0.000000 
#    y 0.000000 1.630190 0.000000 
#    z 0.000000 0.000000 1.617650 
# 
# From -- ./inp_files/22843.got.cif
#   From: 2010.03.12/outbox.cif.g09.slc.cpg/sg65_12_cif.got.tgz:22843.got - 2010.04.10 20:52:16.
