data_PCOD8275638
_publ_section_title
;
Structure prediction by ZEFSAII (Michael W. Deem and Ramdas Pophale) SiO2 
 PCOD8275638
Probable space group: C C C M
;
_chemical_formula_sum "Si O2"
_cell_formula_units_Z 64
_cell_length_a 15.166302
_cell_length_b 8.368803
_cell_length_c 23.167617
_cell_angle_alpha 90.000000
_cell_angle_beta 90.000000
_cell_angle_gamma 90.000000
_cell_volume 2940.521840
_symmetry_space_group_name_H-M "C C C M"
_symmetry_group_IT_number 66
_symmetry_cell_setting 'orthorhombic'
loop_
_space_group_symop_operation_xyz
x,y,z
-x,-y,z
x,-y,1/2-z
-x,y,1/2-z
-x,-y,-z
x,y,-z
-x,y,1/2+z
x,-y,1/2+z
1/2+x,1/2+y,z
1/2-x,1/2-y,z
1/2+x,1/2-y,1/2-z
1/2-x,1/2+y,1/2-z
1/2-x,1/2-y,-z
1/2+x,1/2+y,-z
1/2-x,1/2+y,1/2+z
1/2+x,1/2-y,1/2+z
loop_
_atom_site_type_symbol
_atom_site_label
_atom_site_fract_x
_atom_site_fract_y
_atom_site_fract_z
Si Si1 0.014154 0.812181 0.000000
Si Si2 0.238920 0.562454 0.385407
Si Si3 0.912584 0.567260 0.314245
Si Si4 0.420893 0.622368 0.880507
Si Si5 0.669682 0.872750 0.000000
O O1 0.923332 0.715933 0.000000
O O2 0.065936 0.775449 0.059813
O O3 0.000000 0.000000 0.000000
O O4 0.250000 0.750000 0.377008
O O5 0.181267 0.497664 0.333651
O O6 0.332776 0.479172 0.386920
O O7 0.182560 0.520311 0.443069
O O8 0.920090 0.500000 0.250000
O O9 0.913579 0.758758 0.325467
O O10 0.000000 0.500000 0.347221
O O11 0.500000 0.500000 0.868598
O O12 0.750000 0.750000 0.000000
#
# Coordination Sequence:
#
# PCOD8275638 Si02
#       5
#     8  16  16  16   8
#     4  10  18  33  62  99 137 172 208 253 319 399
#     4  11  22  39  64  95 130 168 211 261 317 383
#     4  11  25  45  64  89 123 164 217 274 322 379
#     4  11  22  41  67  99 133 172 212 263 326 393
#     4  10  18  33  58  93 133 172 206 255 315 379
#
# _framework density 21.764844
#
# number of rings (size 3 to 8) (size 9 to 14) (size 15 to 20)
#    0.000    1.250    0.000   10.500    0.000    3.000 
#    0.000   12.500    0.000    0.000    0.000    0.000 
#    0.000    0.000    0.000    0.000    0.000    0.000 
#
# Total GULP energy -396485.032636 kJ/mol
# GULP energy per Si atom -12390.157270 kJ/mol
# Density = 2.171531 g / cm^3
# Si number density = 21.764844 Si / 1000 Ang^3
#
#
#
# Elastic Constant Matrix: (Units=GPa)
#
#
# Indices 1 2 3 4 5 6 
#
# 1 206.7119 74.4079 57.9422 0.0000 0.0000 0.0000
# 2 74.4079 132.1061 63.6774 0.0000 0.0000 0.0000
# 3 57.9422 63.6774 118.1478 0.0000 0.0000 0.0000
# 4 0.0000 0.0000 0.0000 1497.3207 0.0000 0.0000
# 5 0.0000 0.0000 0.0000 0.0000 57.4663 0.0000
# 6 0.0000 0.0000 0.0000 0.0000 0.0000 52.9441
#
#
#
# Elastic Compliance Matrix: (Units=1/GPa)
#
#
# Indices 1 2 3 4 5 6 
#
# 1 0.006280 -0.002773 -0.001585 0.000000 0.000000 0.000000
# 2 -0.002773 0.011451 -0.004812 0.000000 0.000000 0.000000
# 3 -0.001585 -0.004812 0.011835 0.000000 0.000000 0.000000
# 4 0.000000 0.000000 0.000000 0.000668 0.000000 0.000000
# 5 0.000000 0.000000 0.000000 0.000000 0.017401 0.000000
# 6 0.000000 0.000000 0.000000 0.000000 0.000000 0.018888
#
#
# Mechanical properties :
#
#
# Convention : Reuss Voigt Hill
#
# Bulk Modulus (GPa) = 89.08133 94.33565 91.70849
# Shear Modulus (GPa) = 56.43008 338.94211 197.68610
#
# Velocity S-wave (km/s) = 5.09740 12.49269 9.54072
# Velocity P-wave (km/s) = 8.69842 15.85960 12.79041
#
# Compressibility (1/GPa) = 0.01122570
#
# Stress axis : x y z
#
# Youngs Moduli (GPa) = 159.22934 87.32928 84.49695
#
# Poissons Ratio (x) = 0.24218 0.13396
# Poissons Ratio (y) = 0.44157 0.40657
# Poissons Ratio (z) = 0.25243 0.42019
#
# Static dielectric constant tensor:
#      x y z
#    x 3.735840 0.000000 0.000000 
#    y 0.000000 3.852760 0.000000 
#    z 0.000000 0.000000 4.666760 
# 
# 
# High freq. dielectric constant tensor:
#      x y z
#    x 1.880880 0.000000 0.000000 
#    y 0.000000 1.848920 0.000000 
#    z 0.000000 0.000000 1.847450 
# 
# From -- ./inp_files/57721.got.cif
#   From: 2010.03.12/outbox.cif.g09.slc.cpg/sg66_29_cif.got.tgz:57721.got - 2010.04.10 21:57:39.
