data_PCOD8275247
_publ_section_title
;
Structure prediction by ZEFSAII (Michael W. Deem and Ramdas Pophale) SiO2 
 PCOD8275247
Probable space group: C C C M
;
_chemical_formula_sum "Si O2"
_cell_formula_units_Z 104
_cell_length_a 9.457031
_cell_length_b 22.718504
_cell_length_c 23.965729
_cell_angle_alpha 90.000000
_cell_angle_beta 90.000000
_cell_angle_gamma 90.000000
_cell_volume 5149.027208
_symmetry_space_group_name_H-M "C C C M"
_symmetry_group_IT_number 66
_symmetry_cell_setting 'orthorhombic'
loop_
_space_group_symop_operation_xyz
x,y,z
-x,-y,z
x,-y,1/2-z
-x,y,1/2-z
-x,-y,-z
x,y,-z
-x,y,1/2+z
x,-y,1/2+z
1/2+x,1/2+y,z
1/2-x,1/2-y,z
1/2+x,1/2-y,1/2-z
1/2-x,1/2+y,1/2-z
1/2-x,1/2-y,-z
1/2+x,1/2+y,-z
1/2-x,1/2+y,1/2+z
1/2+x,1/2-y,1/2+z
loop_
_atom_site_type_symbol
_atom_site_label
_atom_site_fract_x
_atom_site_fract_y
_atom_site_fract_z
Si Si1 0.338141 0.481216 0.000000
Si Si2 0.660601 0.992500 0.315807
Si Si3 0.322252 0.100097 0.500000
Si Si4 0.463961 0.324950 0.386938
Si Si5 0.386084 0.552851 0.383885
Si Si6 0.840115 0.626306 0.621383
Si Si7 0.118765 0.203644 0.500000
Si Si8 0.087379 0.270487 0.305169
O O1 0.500000 0.500000 0.000000
O O2 0.225769 0.533154 0.000000
O O3 0.312654 0.443769 0.944451
O O4 0.760961 0.043281 0.339869
O O5 0.500000 0.000000 0.335282
O O6 0.676807 0.000000 0.250000
O O7 0.705445 0.929941 0.341553
O O8 0.406381 0.111608 0.559138
O O9 0.178736 0.137358 0.500000
O O10 0.548579 0.383777 0.373111
O O11 0.298667 0.336941 0.390495
O O12 0.487134 0.291774 0.446544
O O13 0.497659 0.280710 0.336954
O O14 0.500000 0.500000 0.379111
O O15 0.934655 0.669780 0.658614
O O16 0.250000 0.250000 0.500000
O O17 0.250000 0.250000 0.293686
O O18 0.000000 0.283422 0.250000
#
# Coordination Sequence:
#
# PCOD8275247 Si02
#       8
#     8  16   8  16  16  16   8  16
#     4  10  16  28  54  85 118 150 185 237 312 360
#     4  11  25  40  56  84 116 163 209 251 310 377
#     4  10  16  30  58  83 116 149 198 245 297 363
#     4  10  19  34  58  92 122 149 205 249 311 367
#     4  11  19  36  58  87 121 156 192 256 311 369
#     4  10  19  39  58  87 119 155 201 252 304 367
#     4  10  16  28  54  92 127 159 191 254 310 364
#     4  10  23  39  61  86 118 159 205 253 302 367
#
# _framework density 20.197989
#
# number of rings (size 3 to 8) (size 9 to 14) (size 15 to 20)
#    0.000    1.692    3.077    5.538    2.154    2.769 
#    0.000    1.538    0.000    0.000    0.000    1.077 
#    0.000    0.000    0.000    0.000    0.000    0.000 
#
# Total GULP energy -644209.464862 kJ/mol
# GULP energy per Si atom -12388.643555 kJ/mol
# Density = 2.015202 g / cm^3
# Si number density = 20.197989 Si / 1000 Ang^3
#
#
#
# Elastic Constant Matrix: (Units=GPa)
#
#
# Indices 1 2 3 4 5 6 
#
# 1 59.1194 22.8157 49.0846 0.0000 0.0000 0.0000
# 2 22.8157 111.4335 67.3973 0.0000 0.0000 0.0000
# 3 49.0846 67.3973 176.9261 0.0000 0.0000 0.0000
# 4 0.0000 0.0000 0.0000 16.3153 0.0000 0.0000
# 5 0.0000 0.0000 0.0000 0.0000 24.6085 0.0000
# 6 0.0000 0.0000 0.0000 0.0000 0.0000 28.9218
#
#
#
# Elastic Compliance Matrix: (Units=1/GPa)
#
#
# Indices 1 2 3 4 5 6 
#
# 1 0.022073 -0.001060 -0.005720 0.000000 0.000000 0.000000
# 2 -0.001060 0.011711 -0.004167 0.000000 0.000000 0.000000
# 3 -0.005720 -0.004167 0.008826 0.000000 0.000000 0.000000
# 4 0.000000 0.000000 0.000000 0.061292 0.000000 0.000000
# 5 0.000000 0.000000 0.000000 0.000000 0.040636 0.000000
# 6 0.000000 0.000000 0.000000 0.000000 0.000000 0.034576
#
#
# Mechanical properties :
#
#
# Convention : Reuss Voigt Hill
#
# Bulk Modulus (GPa) = 48.27019 69.56381 58.91700
# Shear Modulus (GPa) = 24.04828 27.84787 25.94807
#
# Velocity S-wave (km/s) = 3.45429 3.71717 3.58814
# Velocity P-wave (km/s) = 6.31347 7.27591 6.81171
#
# Compressibility (1/GPa) = 0.02071672
#
# Stress axis : x y z
#
# Youngs Moduli (GPa) = 45.30416 85.38689 113.29601
#
# Poissons Ratio (x) = 0.09049 0.64805
# Poissons Ratio (y) = 0.04801 0.47213
# Poissons Ratio (z) = 0.25914 0.35583
#
# Static dielectric constant tensor:
#      x y z
#    x 3.071460 0.000000 0.000000 
#    y 0.000000 3.855690 0.000000 
#    z 0.000000 0.000000 4.303990 
# 
# 
# High freq. dielectric constant tensor:
#      x y z
#    x 1.735110 0.000000 0.000000 
#    y 0.000000 1.789020 0.000000 
#    z 0.000000 0.000000 1.814170 
# 
# From -- ./inp_files/62712.got.cif
#   From: 2010.03.12/outbox.cif.g09.slc.cpg/sg66_32_cif.got.tgz:62712.got - 2010.04.10 21:57:39.
