data_PCOD8275529
_publ_section_title
;
Structure prediction by ZEFSAII (Michael W. Deem and Ramdas Pophale) SiO2 
 PCOD8275529
Probable space group: C C C M
;
_chemical_formula_sum "Si O2"
_cell_formula_units_Z 80
_cell_length_a 14.610503
_cell_length_b 17.464893
_cell_length_c 17.954024
_cell_angle_alpha 90.000000
_cell_angle_beta 90.000000
_cell_angle_gamma 90.000000
_cell_volume 4581.343952
_symmetry_space_group_name_H-M "C C C M"
_symmetry_group_IT_number 66
_symmetry_cell_setting 'orthorhombic'
loop_
_space_group_symop_operation_xyz
x,y,z
-x,-y,z
x,-y,1/2-z
-x,y,1/2-z
-x,-y,-z
x,y,-z
-x,y,1/2+z
x,-y,1/2+z
1/2+x,1/2+y,z
1/2-x,1/2-y,z
1/2+x,1/2-y,1/2-z
1/2-x,1/2+y,1/2-z
1/2-x,1/2-y,-z
1/2+x,1/2+y,-z
1/2-x,1/2+y,1/2+z
1/2+x,1/2-y,1/2+z
loop_
_atom_site_type_symbol
_atom_site_label
_atom_site_fract_x
_atom_site_fract_y
_atom_site_fract_z
Si Si1 0.811145 0.822166 0.917007
Si Si2 0.490053 0.765866 0.417354
Si Si3 0.848338 0.222662 0.187673
Si Si4 0.219106 0.083693 0.223687
Si Si5 0.587541 0.145566 0.710002
O O1 0.750000 0.750000 0.886712
O O2 0.917192 0.801901 0.922013
O O3 0.804814 0.894400 0.861571
O O4 0.775092 0.844835 0.000000
O O5 0.516907 0.794439 0.500000
O O6 0.579820 0.730004 0.379084
O O7 0.443446 0.838381 0.375131
O O8 0.750000 0.250000 0.157597
O O9 0.835100 0.137117 0.218295
O O10 0.885454 0.271580 0.256998
O O11 0.329325 0.088346 0.224695
O O12 0.188746 0.000000 0.250000
O O13 0.500000 0.108543 0.750000
#
# Coordination Sequence:
#
# PCOD8275529 Si02
#       5
#    16  16  16  16  16
#     4  10  18  32  55  81 104 131 180 233 267 303
#     4  10  18  30  56  81  99 130 178 230 269 304
#     4   9  18  34  51  74 104 137 179 222 263 318
#     4  11  20  32  51  78 110 145 173 212 278 330
#     4   9  17  32  54  75 101 129 178 233 260 307
#
# _framework density 17.462125
#
# number of rings (size 3 to 8) (size 9 to 14) (size 15 to 20)
#    0.000    2.200    4.000    0.600    0.000    0.800 
#    0.000    3.000    0.000    7.200    0.000   14.000 
#    0.000    0.000    0.000    0.000    0.000    0.000 
#
# Total GULP energy -495685.779462 kJ/mol
# GULP energy per Si atom -12392.144487 kJ/mol
# Density = 1.742238 g / cm^3
# Si number density = 17.462125 Si / 1000 Ang^3
#
#
#
# Elastic Constant Matrix: (Units=GPa)
#
#
# Indices 1 2 3 4 5 6 
#
# 1 82.9165 2.8841 30.1759 0.0000 0.0000 0.0000
# 2 2.8841 72.5250 32.7316 0.0000 0.0000 0.0000
# 3 30.1759 32.7316 124.3308 0.0000 0.0000 0.0000
# 4 0.0000 0.0000 0.0000 20.0515 0.0000 0.0000
# 5 0.0000 0.0000 0.0000 0.0000 27.1699 0.0000
# 6 0.0000 0.0000 0.0000 0.0000 0.0000 14.1127
#
#
#
# Elastic Compliance Matrix: (Units=1/GPa)
#
#
# Indices 1 2 3 4 5 6 
#
# 1 0.013299 0.001053 -0.003505 0.000000 0.000000 0.000000
# 2 0.001053 0.015731 -0.004397 0.000000 0.000000 0.000000
# 3 -0.003505 -0.004397 0.010051 0.000000 0.000000 0.000000
# 4 0.000000 0.000000 0.000000 0.049871 0.000000 0.000000
# 5 0.000000 0.000000 0.000000 0.000000 0.036805 0.000000
# 6 0.000000 0.000000 0.000000 0.000000 0.000000 0.070858
#
#
# Mechanical properties :
#
#
# Convention : Reuss Voigt Hill
#
# Bulk Modulus (GPa) = 39.39558 45.70616 42.55087
# Shear Modulus (GPa) = 22.85446 26.53220 24.69333
#
# Velocity S-wave (km/s) = 3.62166 3.90220 3.76454
# Velocity P-wave (km/s) = 6.33231 6.82159 6.58150
#
# Compressibility (1/GPa) = 0.02538356
#
# Stress axis : x y z
#
# Youngs Moduli (GPa) = 75.19194 63.56929 99.48966
#
# Poissons Ratio (x) = -0.06694 0.34872
# Poissons Ratio (y) = -0.07918 0.43745
# Poissons Ratio (z) = 0.26355 0.27951
#
# Static dielectric constant tensor:
#      x y z
#    x 3.624030 0.000000 0.000000 
#    y 0.000000 2.704460 0.000000 
#    z 0.000000 0.000000 3.370250 
# 
# 
# High freq. dielectric constant tensor:
#      x y z
#    x 1.692420 0.000000 0.000000 
#    y 0.000000 1.617000 0.000000 
#    z 0.000000 0.000000 1.677290 
# 
# From -- ./inp_files/40191.got.cif
#   From: 2010.03.12/outbox.cif.g09.slc.cpg/sg66_21_cif.got.tgz:40191.got - 2010.04.10 21:57:39.
