data_PCOD8275928
_publ_section_title
;
Structure prediction by ZEFSAII (Michael W. Deem and Ramdas Pophale) SiO2 
 PCOD8275928
Probable space group: C C C M
;
_chemical_formula_sum "Si O2"
_cell_formula_units_Z 64
_cell_length_a 30.784460
_cell_length_b 14.737748
_cell_length_c 7.703181
_cell_angle_alpha 90.000000
_cell_angle_beta 90.000000
_cell_angle_gamma 90.000000
_cell_volume 3494.884026
_symmetry_space_group_name_H-M "C C C M"
_symmetry_group_IT_number 66
_symmetry_cell_setting 'orthorhombic'
loop_
_space_group_symop_operation_xyz
x,y,z
-x,-y,z
x,-y,1/2-z
-x,y,1/2-z
-x,-y,-z
x,y,-z
-x,y,1/2+z
x,-y,1/2+z
1/2+x,1/2+y,z
1/2-x,1/2-y,z
1/2+x,1/2-y,1/2-z
1/2-x,1/2+y,1/2-z
1/2-x,1/2-y,-z
1/2+x,1/2+y,-z
1/2-x,1/2+y,1/2+z
1/2+x,1/2-y,1/2+z
loop_
_atom_site_type_symbol
_atom_site_label
_atom_site_fract_x
_atom_site_fract_y
_atom_site_fract_z
Si Si1 0.655689 0.592332 0.700124
Si Si2 0.311420 0.170677 0.000000
Si Si3 0.718336 0.625075 0.000000
Si Si4 0.870944 0.709876 0.694155
Si Si5 0.951064 0.397053 0.298952
O O1 0.628631 0.500000 0.750000
O O2 0.670652 0.592054 0.500000
O O3 0.698047 0.585182 0.823339
O O4 0.627691 0.682594 0.741817
O O5 0.340633 0.154911 0.171775
O O6 0.291204 0.269142 0.000000
O O7 0.270074 0.103110 0.000000
O O8 0.852058 0.696670 0.500000
O O9 0.919663 0.671514 0.698119
O O10 0.939968 0.500000 0.250000
O O11 0.943267 0.382301 0.500000
O O12 0.000000 0.371995 0.250000
#
# Coordination Sequence:
#
# PCOD8275928 Si02
#       5
#    16   8   8  16  16
#     4  10  19  32  55  79 108 144 183 225 261 316
#     4   9  18  34  52  75 102 144 174 227 268 314
#     4   9  18  32  52  74 104 136 188 219 270 310
#     4  10  20  35  55  82 109 140 180 222 270 318
#     4  11  21  36  58  82 109 140 176 219 266 323
#
# _framework density 18.312480999999998
#
# number of rings (size 3 to 8) (size 9 to 14) (size 15 to 20)
#    0.000    2.000    2.500    3.000    0.000    1.000 
#    0.000    6.250    0.000    0.750    0.000    5.250 
#    0.000    0.000    0.000    0.000    0.000    0.000 
#
# Total GULP energy -396602.447613 kJ/mol
# GULP energy per Si atom -12393.826488 kJ/mol
# Density = 1.827080 g / cm^3
# Si number density = 18.312481 Si / 1000 Ang^3
#
#
#
# Elastic Constant Matrix: (Units=GPa)
#
#
# Indices 1 2 3 4 5 6 
#
# 1 105.3124 61.0048 38.5814 0.0000 0.0000 0.0000
# 2 61.0048 85.1337 31.3944 0.0000 0.0000 0.0000
# 3 38.5814 31.3944 129.4335 0.0000 0.0000 0.0000
# 4 0.0000 0.0000 0.0000 24.1425 0.0000 0.0000
# 5 0.0000 0.0000 0.0000 0.0000 23.1362 0.0000
# 6 0.0000 0.0000 0.0000 0.0000 0.0000 20.6134
#
#
#
# Elastic Compliance Matrix: (Units=1/GPa)
#
#
# Indices 1 2 3 4 5 6 
#
# 1 0.016834 -0.011216 -0.002298 0.000000 0.000000 0.000000
# 2 -0.011216 0.020373 -0.001598 0.000000 0.000000 0.000000
# 3 -0.002298 -0.001598 0.008798 0.000000 0.000000 0.000000
# 4 0.000000 0.000000 0.000000 0.041421 0.000000 0.000000
# 5 0.000000 0.000000 0.000000 0.000000 0.043222 0.000000
# 6 0.000000 0.000000 0.000000 0.000000 0.000000 0.048512
#
#
# Mechanical properties :
#
#
# Convention : Reuss Voigt Hill
#
# Bulk Modulus (GPa) = 63.36239 64.64899 64.00569
# Shear Modulus (GPa) = 23.29433 26.17168 24.73300
#
# Velocity S-wave (km/s) = 3.57045 3.78454 3.67905
# Velocity P-wave (km/s) = 7.18841 7.38084 7.28526
#
# Compressibility (1/GPa) = 0.01578223
#
# Stress axis : x y z
#
# Youngs Moduli (GPa) = 59.40251 49.08550 113.65615
#
# Poissons Ratio (x) = 0.55053 0.26113
# Poissons Ratio (y) = 0.66625 0.18165
# Poissons Ratio (z) = 0.13648 0.07845
#
# Static dielectric constant tensor:
#      x y z
#    x 3.358510 0.000000 0.000000 
#    y 0.000000 3.492450 0.000000 
#    z 0.000000 0.000000 3.610520 
# 
# 
# High freq. dielectric constant tensor:
#      x y z
#    x 1.675000 0.000000 0.000000 
#    y 0.000000 1.704300 0.000000 
#    z 0.000000 0.000000 1.736100 
# 
# From -- ./inp_files/10026.got.cif
#   From: 2010.03.12/outbox.cif.g09.slc.cpg/sg66_6_cif.got.tgz:10026.got - 2010.04.10 21:57:39.
