data_PCOD8275550
_publ_section_title
;
Structure prediction by ZEFSAII (Michael W. Deem and Ramdas Pophale) SiO2 
 PCOD8275550
Probable space group: C C C M
;
_chemical_formula_sum "Si O2"
_cell_formula_units_Z 64
_cell_length_a 9.689656
_cell_length_b 41.385610
_cell_length_c 8.508001
_cell_angle_alpha 90.000000
_cell_angle_beta 90.000000
_cell_angle_gamma 90.000000
_cell_volume 3411.813256
_symmetry_space_group_name_H-M "C C C M"
_symmetry_group_IT_number 66
_symmetry_cell_setting 'orthorhombic'
loop_
_space_group_symop_operation_xyz
x,y,z
-x,-y,z
x,-y,1/2-z
-x,y,1/2-z
-x,-y,-z
x,y,-z
-x,y,1/2+z
x,-y,1/2+z
1/2+x,1/2+y,z
1/2-x,1/2-y,z
1/2+x,1/2-y,1/2-z
1/2-x,1/2+y,1/2-z
1/2-x,1/2-y,-z
1/2+x,1/2+y,-z
1/2-x,1/2+y,1/2+z
1/2+x,1/2-y,1/2+z
loop_
_atom_site_type_symbol
_atom_site_label
_atom_site_fract_x
_atom_site_fract_y
_atom_site_fract_z
Si Si1 0.653699 0.845250 0.185728
Si Si2 0.652117 0.220549 0.814966
Si Si3 0.845576 0.411242 0.185575
Si Si4 0.852293 0.034882 0.314795
O O1 0.500000 0.842529 0.250000
O O2 0.723258 0.811504 0.238369
O O3 0.723459 0.876888 0.264543
O O4 0.656898 0.849570 0.000000
O O5 0.500000 0.227786 0.750000
O O6 0.750000 0.250000 0.767630
O O7 0.642226 0.215339 0.000000
O O8 0.762143 0.439940 0.263521
O O9 0.000000 0.412836 0.250000
O O10 0.844331 0.415147 0.000000
O O11 0.861332 0.032860 0.500000
O O12 0.000000 0.046136 0.250000
O O13 0.809306 0.000000 0.250000
#
# Coordination Sequence:
#
# PCOD8275550 Si02
#       4
#    16  16  16  16
#     4  10  18  31  52  77 105 139 176 216 265 319
#     4  10  20  34  53  77 105 138 176 217 263 315
#     4  11  21  36  57  83 111 141 179 225 270 316
#     4  11  22  39  59  82 110 145 182 218 265 320
#
# _framework density 18.758355000000002
#
# number of rings (size 3 to 8) (size 9 to 14) (size 15 to 20)
#    0.000    1.500    0.000   11.250    0.000    2.500 
#    0.000    3.750    0.000    3.000    0.000    0.000 
#    0.000    0.000    0.000    0.000    0.000    0.000 
#
# Total GULP energy -396768.937329 kJ/mol
# GULP energy per Si atom -12399.029292 kJ/mol
# Density = 1.871566 g / cm^3
# Si number density = 18.758355 Si / 1000 Ang^3
#
#
#
# Elastic Constant Matrix: (Units=GPa)
#
#
# Indices 1 2 3 4 5 6 
#
# 1 60.2606 60.6005 27.1504 0.0000 0.0000 0.0000
# 2 60.6005 150.9598 51.9459 0.0000 0.0000 0.0000
# 3 27.1504 51.9459 155.6915 0.0000 0.0000 0.0000
# 4 0.0000 0.0000 0.0000 41.5036 0.0000 0.0000
# 5 0.0000 0.0000 0.0000 0.0000 26.5949 0.0000
# 6 0.0000 0.0000 0.0000 0.0000 0.0000 28.2187
#
#
#
# Elastic Compliance Matrix: (Units=1/GPa)
#
#
# Indices 1 2 3 4 5 6 
#
# 1 0.028054 -0.010821 -0.001282 0.000000 0.000000 0.000000
# 2 -0.010821 0.011657 -0.002002 0.000000 0.000000 0.000000
# 3 -0.001282 -0.002002 0.007315 0.000000 0.000000 0.000000
# 4 0.000000 0.000000 0.000000 0.024094 0.000000 0.000000
# 5 0.000000 0.000000 0.000000 0.000000 0.037601 0.000000
# 6 0.000000 0.000000 0.000000 0.000000 0.000000 0.035438
#
#
# Mechanical properties :
#
#
# Convention : Reuss Voigt Hill
#
# Bulk Modulus (GPa) = 53.14736 71.81172 62.47954
# Shear Modulus (GPa) = 27.98919 34.41112 31.20015
#
# Velocity S-wave (km/s) = 3.86695 4.28769 4.08274
# Velocity P-wave (km/s) = 6.95211 7.92956 7.45687
#
# Compressibility (1/GPa) = 0.01881561
#
# Stress axis : x y z
#
# Youngs Moduli (GPa) = 35.64569 85.78452 136.71306
#
# Poissons Ratio (x) = 0.92825 0.17525
# Poissons Ratio (y) = 0.38571 0.27375
# Poissons Ratio (z) = 0.04569 0.17177
#
# Static dielectric constant tensor:
#      x y z
#    x 3.133490 0.000000 0.000000 
#    y 0.000000 4.247000 0.000000 
#    z 0.000000 0.000000 3.664120 
# 
# 
# High freq. dielectric constant tensor:
#      x y z
#    x 1.688200 0.000000 0.000000 
#    y 0.000000 1.754410 0.000000 
#    z 0.000000 0.000000 1.755230 
# 
# From -- ./inp_files/3969.got.cif
#   From: 2010.03.12/outbox.cif.g09.slc.cpg/sg66_2_cif.got.tgz:3969.got - 2010.04.10 21:57:39.
