data_PCOD8275962
_publ_section_title
;
Structure prediction by ZEFSAII (Michael W. Deem and Ramdas Pophale) SiO2 
 PCOD8275962
Probable space group: C C C M
;
_chemical_formula_sum "Si O2"
_cell_formula_units_Z 96
_cell_length_a 11.428382
_cell_length_b 25.362933
_cell_length_c 16.718971
_cell_angle_alpha 90.000000
_cell_angle_beta 90.000000
_cell_angle_gamma 90.000000
_cell_volume 4846.115575
_symmetry_space_group_name_H-M "C C C M"
_symmetry_group_IT_number 66
_symmetry_cell_setting 'orthorhombic'
loop_
_space_group_symop_operation_xyz
x,y,z
-x,-y,z
x,-y,1/2-z
-x,y,1/2-z
-x,-y,-z
x,y,-z
-x,y,1/2+z
x,-y,1/2+z
1/2+x,1/2+y,z
1/2-x,1/2-y,z
1/2+x,1/2-y,1/2-z
1/2-x,1/2+y,1/2-z
1/2-x,1/2-y,-z
1/2+x,1/2+y,-z
1/2-x,1/2+y,1/2+z
1/2+x,1/2-y,1/2+z
loop_
_atom_site_type_symbol
_atom_site_label
_atom_site_fract_x
_atom_site_fract_y
_atom_site_fract_z
Si Si1 0.989178 0.374162 0.907701
Si Si2 0.171380 0.901172 0.331756
Si Si3 0.843899 0.529318 0.909197
Si Si4 0.220615 0.574609 0.161367
Si Si5 0.963667 0.940607 0.590248
Si Si6 0.792013 0.691112 0.092627
O O1 0.868174 0.376333 0.856579
O O2 0.058197 0.427771 0.887001
O O3 0.071549 0.323272 0.886155
O O4 0.953279 0.371810 0.000000
O O5 0.220102 0.941252 0.399373
O O6 0.222232 0.920393 0.247814
O O7 0.208711 0.841742 0.349372
O O8 0.031416 0.904623 0.343580
O O9 0.853346 0.479508 0.849526
O O10 0.858084 0.509063 0.000000
O O11 0.326087 0.571056 0.098177
O O12 0.998733 0.925206 0.500000
O O13 0.000000 0.000000 0.610551
O O14 0.750000 0.750000 0.109449
O O15 0.771810 0.675645 0.000000
#
# Coordination Sequence:
#
# PCOD8275962 Si02
#       6
#    16  16  16  16  16  16
#     4   9  19  35  57  86 119 153 200 247 288 350
#     4  11  22  35  55  85 118 149 194 251 290 348
#     4  10  19  33  52  79 117 162 198 230 277 347
#     4  12  22  32  53  82 123 158 189 234 302 354
#     4  11  22  36  57  79 114 167 208 236 278 350
#     4   9  19  39  67  88 106 145 199 248 291 343
#
# _framework density 19.809681000000001
#
# number of rings (size 3 to 8) (size 9 to 14) (size 15 to 20)
#    0.000    1.667    1.667    5.500    0.000    4.667 
#    0.000    3.333    7.333    0.000    0.000    4.667 
#    0.000    0.000    0.000    0.000    0.000    0.000 
#
# Total GULP energy -594823.967852 kJ/mol
# GULP energy per Si atom -12392.165997 kJ/mol
# Density = 1.976459 g / cm^3
# Si number density = 19.809681 Si / 1000 Ang^3
#
#
#
# Elastic Constant Matrix: (Units=GPa)
#
#
# Indices 1 2 3 4 5 6 
#
# 1 123.5012 44.1565 32.7605 0.0000 0.0000 0.0000
# 2 44.1565 92.2103 42.7069 0.0000 0.0000 0.0000
# 3 32.7605 42.7069 82.0415 0.0000 0.0000 0.0000
# 4 0.0000 0.0000 0.0000 18.2883 0.0000 0.0000
# 5 0.0000 0.0000 0.0000 0.0000 21.9637 0.0000
# 6 0.0000 0.0000 0.0000 0.0000 0.0000 23.4677
#
#
#
# Elastic Compliance Matrix: (Units=1/GPa)
#
#
# Indices 1 2 3 4 5 6 
#
# 1 0.010008 -0.003876 -0.001979 0.000000 0.000000 0.000000
# 2 -0.003876 0.015791 -0.006672 0.000000 0.000000 0.000000
# 3 -0.001979 -0.006672 0.016452 0.000000 0.000000 0.000000
# 4 0.000000 0.000000 0.000000 0.054680 0.000000 0.000000
# 5 0.000000 0.000000 0.000000 0.000000 0.045530 0.000000
# 6 0.000000 0.000000 0.000000 0.000000 0.000000 0.042612
#
#
# Mechanical properties :
#
#
# Convention : Reuss Voigt Hill
#
# Bulk Modulus (GPa) = 58.14859 59.66676 58.90767
# Shear Modulus (GPa) = 23.16328 24.61921 23.89125
#
# Velocity S-wave (km/s) = 3.42320 3.52914 3.47657
# Velocity P-wave (km/s) = 6.71131 6.84046 6.77619
#
# Compressibility (1/GPa) = 0.01719732
#
# Stress axis : x y z
#
# Youngs Moduli (GPa) = 99.92242 63.32657 60.78154
#
# Poissons Ratio (x) = 0.24545 0.12026
# Poissons Ratio (y) = 0.38730 0.40556
# Poissons Ratio (z) = 0.19771 0.42254
#
# Static dielectric constant tensor:
#      x y z
#    x 3.928120 0.000000 0.000000 
#    y 0.000000 3.289530 0.000000 
#    z 0.000000 0.000000 3.454860 
# 
# 
# High freq. dielectric constant tensor:
#      x y z
#    x 1.784790 0.000000 0.000000 
#    y 0.000000 1.724440 0.000000 
#    z 0.000000 0.000000 1.766430 
# 
# From -- ./inp_files/38830.got.cif
#   From: 2010.03.12/outbox.cif.g09.slc.cpg/sg66_20_cif.got.tgz:38830.got - 2010.04.10 21:57:39.
