data_PCOD8275448
_publ_section_title
;
Structure prediction by ZEFSAII (Michael W. Deem and Ramdas Pophale) SiO2 
 PCOD8275448
Probable space group: C C C M
;
_chemical_formula_sum "Si O2"
_cell_formula_units_Z 96
_cell_length_a 15.839565
_cell_length_b 11.918208
_cell_length_c 26.664834
_cell_angle_alpha 90.000000
_cell_angle_beta 90.000000
_cell_angle_gamma 90.000000
_cell_volume 5033.766839
_symmetry_space_group_name_H-M "C C C M"
_symmetry_group_IT_number 66
_symmetry_cell_setting 'orthorhombic'
loop_
_space_group_symop_operation_xyz
x,y,z
-x,-y,z
x,-y,1/2-z
-x,y,1/2-z
-x,-y,-z
x,y,-z
-x,y,1/2+z
x,-y,1/2+z
1/2+x,1/2+y,z
1/2-x,1/2-y,z
1/2+x,1/2-y,1/2-z
1/2-x,1/2+y,1/2-z
1/2-x,1/2-y,-z
1/2+x,1/2+y,-z
1/2-x,1/2+y,1/2+z
1/2+x,1/2-y,1/2+z
loop_
_atom_site_type_symbol
_atom_site_label
_atom_site_fract_x
_atom_site_fract_y
_atom_site_fract_z
Si Si1 0.809755 0.351876 0.357900
Si Si2 0.401699 0.132343 0.246035
Si Si3 0.767122 0.079769 0.889203
Si Si4 0.016419 0.631317 0.398911
Si Si5 0.128737 0.266532 0.652761
Si Si6 0.755330 0.383085 0.000000
Si Si7 0.948706 0.613142 0.500000
O O1 0.750000 0.250000 0.370364
O O2 0.856726 0.333143 0.305256
O O3 0.751938 0.462340 0.362151
O O4 0.883325 0.351785 0.399592
O O5 0.500000 0.166088 0.250000
O O6 0.351687 0.199171 0.289815
O O7 0.390582 0.000000 0.250000
O O8 0.845782 0.137512 0.859256
O O9 0.683955 0.156899 0.884807
O O10 0.787819 0.067853 0.949013
O O11 0.000000 0.500000 0.388090
O O12 0.969994 0.705765 0.356433
O O13 0.976786 0.679473 0.450410
O O14 0.750000 0.250000 0.000000
O O15 0.851865 0.420807 0.000000
O O16 0.000000 0.500000 0.500000
#
# Coordination Sequence:
#
# PCOD8275448 Si02
#       7
#    16  16  16  16  16   8   8
#     4  12  26  40  58  88 129 165 202 251 308 373
#     4  11  21  36  63  91 118 159 204 250 306 365
#     4  11  22  37  58  95 128 153 201 263 310 354
#     4  11  18  37  58  85 115 154 204 251 299 354
#     4  11  20  35  61  87 122 153 198 255 304 354
#     4  12  18  34  62  97 122 153 202 267 317 348
#     4  10  18  28  54  85 112 147 194 249 298 352
#
# _framework density 19.071206
#
# number of rings (size 3 to 8) (size 9 to 14) (size 15 to 20)
#    0.000    0.833    8.333    1.000    2.333    0.000 
#    0.000    2.500    0.000    1.000    0.000    3.500 
#    0.000    0.000    0.000    0.000    0.000    0.000 
#
# Total GULP energy -594984.811928 kJ/mol
# GULP energy per Si atom -12395.516915 kJ/mol
# Density = 1.902780 g / cm^3
# Si number density = 19.071206 Si / 1000 Ang^3
#
#
#
# Elastic Constant Matrix: (Units=GPa)
#
#
# Indices 1 2 3 4 5 6 
#
# 1 94.3045 59.2958 22.2458 0.0000 0.0000 0.0000
# 2 59.2958 94.9117 30.3036 0.0000 0.0000 0.0000
# 3 22.2458 30.3036 123.9014 0.0000 0.0000 0.0000
# 4 0.0000 0.0000 0.0000 5.4366 0.0000 0.0000
# 5 0.0000 0.0000 0.0000 0.0000 14.0584 0.0000
# 6 0.0000 0.0000 0.0000 0.0000 0.0000 34.7788
#
#
#
# Elastic Compliance Matrix: (Units=1/GPa)
#
#
# Indices 1 2 3 4 5 6 
#
# 1 0.017494 -0.010767 -0.000507 0.000000 0.000000 0.000000
# 2 -0.010767 0.018056 -0.002483 0.000000 0.000000 0.000000
# 3 -0.000507 -0.002483 0.008769 0.000000 0.000000 0.000000
# 4 0.000000 0.000000 0.000000 0.183938 0.000000 0.000000
# 5 0.000000 0.000000 0.000000 0.000000 0.071132 0.000000
# 6 0.000000 0.000000 0.000000 0.000000 0.000000 0.028753
#
#
# Mechanical properties :
#
#
# Convention : Reuss Voigt Hill
#
# Bulk Modulus (GPa) = 59.51071 59.64533 59.57802
# Shear Modulus (GPa) = 13.84053 24.27291 19.05672
#
# Velocity S-wave (km/s) = 2.69686 3.57144 3.16451
# Velocity P-wave (km/s) = 6.40075 6.95340 6.68279
#
# Compressibility (1/GPa) = 0.01680370
#
# Stress axis : x y z
#
# Youngs Moduli (GPa) = 57.16347 55.38465 114.03428
#
# Poissons Ratio (x) = 0.59633 0.05787
# Poissons Ratio (y) = 0.61548 0.28313
# Poissons Ratio (z) = 0.02901 0.13751
#
# Static dielectric constant tensor:
#      x y z
#    x 3.558690 0.000000 0.000000 
#    y 0.000000 3.240470 0.000000 
#    z 0.000000 0.000000 4.728130 
# 
# 
# High freq. dielectric constant tensor:
#      x y z
#    x 1.731100 0.000000 0.000000 
#    y 0.000000 1.698090 0.000000 
#    z 0.000000 0.000000 1.759560 
# 
# From -- ./inp_files/65237.got.cif
#   From: 2010.03.12/outbox.cif.g09.slc.cpg/sg66_33_cif.got.tgz:65237.got - 2010.04.10 21:57:39.
