data_PCOD8275684
_publ_section_title
;
Structure prediction by ZEFSAII (Michael W. Deem and Ramdas Pophale) SiO2 
 PCOD8275684
Probable space group: C C C M
;
_chemical_formula_sum "Si O2"
_cell_formula_units_Z 72
_cell_length_a 8.502528
_cell_length_b 16.298912
_cell_length_c 25.194372
_cell_angle_alpha 90.000000
_cell_angle_beta 90.000000
_cell_angle_gamma 90.000000
_cell_volume 3491.485343
_symmetry_space_group_name_H-M "C C C M"
_symmetry_group_IT_number 66
_symmetry_cell_setting 'orthorhombic'
loop_
_space_group_symop_operation_xyz
x,y,z
-x,-y,z
x,-y,1/2-z
-x,y,1/2-z
-x,-y,-z
x,y,-z
-x,y,1/2+z
x,-y,1/2+z
1/2+x,1/2+y,z
1/2-x,1/2-y,z
1/2+x,1/2-y,1/2-z
1/2-x,1/2+y,1/2-z
1/2-x,1/2-y,-z
1/2+x,1/2+y,-z
1/2-x,1/2+y,1/2+z
1/2+x,1/2-y,1/2+z
loop_
_atom_site_type_symbol
_atom_site_label
_atom_site_fract_x
_atom_site_fract_y
_atom_site_fract_z
Si Si1 0.144393 0.380411 0.500000
Si Si2 0.500000 0.000000 0.917028
Si Si3 0.000000 0.343347 0.750000
Si Si4 0.750000 0.750000 0.322466
Si Si5 0.533585 0.296427 0.382949
Si Si6 0.033966 0.194096 0.500000
Si Si7 0.331805 0.123622 0.849738
O O1 0.084700 0.428651 0.449072
O O2 0.087422 0.287674 0.500000
O O3 0.331846 0.375241 0.500000
O O4 0.363447 0.041427 0.882403
O O5 0.122586 0.291429 0.715375
O O6 0.106461 0.395809 0.790256
O O7 0.646908 0.691295 0.362220
O O8 0.560691 0.319625 0.445117
O O9 0.578711 0.201421 0.375025
O O10 0.645922 0.356500 0.348977
#
# Coordination Sequence:
#
# PCOD8275684 Si02
#       7
#     8   8   8   8  16   8  16
#     4  10  22  36  63  91 125 169 203 247 317 377
#     4  11  22  41  58  90 132 163 202 257 312 382
#     4  10  20  35  62  88 118 165 212 256 322 359
#     4  10  18  35  60  92 126 151 214 282 308 354
#     4  10  21  36  63  94 124 158 213 259 304 374
#     4  11  20  37  64  96 119 167 203 254 309 382
#     4  10  22  38  59  91 123 166 206 259 309 373
#
# _framework density 20.621596
#
# number of rings (size 3 to 8) (size 9 to 14) (size 15 to 20)
#    0.000    1.778    2.222    4.000    3.111    4.000 
#    0.000    2.222    0.000    0.000    5.778    0.000 
#    0.000    0.000    0.000    0.000    0.000    0.000 
#
# Total GULP energy -446051.336658 kJ/mol
# GULP energy per Si atom -12390.314907 kJ/mol
# Density = 2.057466 g / cm^3
# Si number density = 20.621596 Si / 1000 Ang^3
#
#
#
# Elastic Constant Matrix: (Units=GPa)
#
#
# Indices 1 2 3 4 5 6 
#
# 1 135.3472 32.4920 60.4293 0.0000 0.0000 0.0000
# 2 32.4920 64.7184 23.3745 0.0000 0.0000 0.0000
# 3 60.4293 23.3745 153.4610 0.0000 0.0000 0.0000
# 4 0.0000 0.0000 0.0000 104.2959 0.0000 0.0000
# 5 0.0000 0.0000 0.0000 0.0000 -2.4968 0.0000
# 6 0.0000 0.0000 0.0000 0.0000 0.0000 25.4228
#
#
#
# Elastic Compliance Matrix: (Units=1/GPa)
#
#
# Indices 1 2 3 4 5 6 
#
# 1 0.009739 -0.003708 -0.003270 0.000000 0.000000 0.000000
# 2 -0.003708 0.017763 -0.001245 0.000000 0.000000 0.000000
# 3 -0.003270 -0.001245 0.007994 0.000000 0.000000 0.000000
# 4 0.000000 0.000000 0.000000 0.009588 0.000000 0.000000
# 5 0.000000 0.000000 0.000000 0.000000 -0.400521 0.000000
# 6 0.000000 0.000000 0.000000 0.000000 0.000000 0.039335
#
#
# Mechanical properties :
#
#
# Convention : Reuss Voigt Hill
#
# Bulk Modulus (GPa) = 52.49875 65.12427 58.81151
# Shear Modulus (GPa) = -17.04706 41.25978 12.10636
#
# Velocity S-wave (km/s) = -2.87829 4.47789 2.42559
# Velocity P-wave (km/s) = 3.80360 7.64097 6.03539
#
# Compressibility (1/GPa) = 0.01904807
#
# Stress axis : x y z
#
# Youngs Moduli (GPa) = 102.68411 56.29657 125.09922
#
# Poissons Ratio (x) = 0.20876 0.40908
# Poissons Ratio (y) = 0.38078 0.15579
# Poissons Ratio (z) = 0.33578 0.07011
#
# Static dielectric constant tensor:
#      x y z
#    x 4.079320 0.000000 0.000000 
#    y 0.000000 3.327540 0.000000 
#    z 0.000000 0.000000 4.220240 
# 
# 
# High freq. dielectric constant tensor:
#      x y z
#    x 1.808300 0.000000 0.000000 
#    y 0.000000 1.761800 0.000000 
#    z 0.000000 0.000000 1.828690 
# 
# From -- ./inp_files/55313.got.cif
#   From: 2010.03.12/outbox.cif.g09.slc.cpg/sg66_28_cif.got.tgz:55313.got - 2010.04.10 21:57:39.
