data_PCOD8275429
_publ_section_title
;
Structure prediction by ZEFSAII (Michael W. Deem and Ramdas Pophale) SiO2 
 PCOD8275429
Probable space group: C C C M
;
_chemical_formula_sum "Si O2"
_cell_formula_units_Z 80
_cell_length_a 34.407757
_cell_length_b 17.246627
_cell_length_c 9.592032
_cell_angle_alpha 90.000000
_cell_angle_beta 90.000000
_cell_angle_gamma 90.000000
_cell_volume 5692.082056
_symmetry_space_group_name_H-M "C C C M"
_symmetry_group_IT_number 66
_symmetry_cell_setting 'orthorhombic'
loop_
_space_group_symop_operation_xyz
x,y,z
-x,-y,z
x,-y,1/2-z
-x,y,1/2-z
-x,-y,-z
x,y,-z
-x,y,1/2+z
x,-y,1/2+z
1/2+x,1/2+y,z
1/2-x,1/2-y,z
1/2+x,1/2-y,1/2-z
1/2-x,1/2+y,1/2-z
1/2-x,1/2-y,-z
1/2+x,1/2+y,-z
1/2-x,1/2+y,1/2+z
1/2+x,1/2-y,1/2+z
loop_
_atom_site_type_symbol
_atom_site_label
_atom_site_fract_x
_atom_site_fract_y
_atom_site_fract_z
Si Si1 0.460401 0.589244 0.500000
Si Si2 0.671691 0.320507 0.340805
Si Si3 0.405165 0.591624 0.258240
Si Si4 0.288670 0.800387 0.159731
Si Si5 0.046713 0.905640 0.000000
Si Si6 0.751688 0.922998 0.161990
O O1 0.436403 0.618349 0.369897
O O2 0.503067 0.629307 0.500000
O O3 0.461374 0.496725 0.500000
O O4 0.664692 0.292225 0.500000
O O5 0.635593 0.368067 0.282941
O O6 0.677554 0.247666 0.237894
O O7 0.708639 0.375839 0.336774
O O8 0.397352 0.500000 0.250000
O O9 0.426531 0.623602 0.123707
O O10 0.250000 0.750000 0.154483
O O11 0.281742 0.876227 0.254968
O O12 0.301050 0.821729 0.000000
O O13 0.759117 0.000000 0.250000
O O14 0.739342 0.939080 0.000000
#
# Coordination Sequence:
#
# PCOD8275429 Si02
#       6
#     8  16  16  16   8  16
#     4   9  16  30  40  54  77 106 137 177 214 253
#     4  10  19  30  42  59  84 111 138 175 216 249
#     4  10  18  28  40  59  80 106 142 180 216 250
#     4   9  18  31  45  61  80 106 137 170 208 252
#     4   9  18  26  42  56  75 104 141 177 214 249
#     4  10  19  31  46  63  83 108 139 173 209 248
#
# _framework density 14.054612000000001
#
# number of rings (size 3 to 8) (size 9 to 14) (size 15 to 20)
#    0.000    2.400    1.000    2.400    1.400    5.600 
#    0.000    0.000    0.000    0.000    0.000    0.000 
#    0.000    0.000    0.000    0.000    0.000    6.000 
#
# Total GULP energy -495622.414742 kJ/mol
# GULP energy per Si atom -12390.560369 kJ/mol
# Density = 1.402262 g / cm^3
# Si number density = 14.054612 Si / 1000 Ang^3
#
#
#
# Elastic Constant Matrix: (Units=GPa)
#
#
# Indices 1 2 3 4 5 6 
#
# 1 77.4438 17.7577 45.3871 0.0000 0.0000 0.0000
# 2 17.7577 22.0510 25.9494 0.0000 0.0000 0.0000
# 3 45.3871 25.9494 141.8645 0.0000 0.0000 0.0000
# 4 0.0000 0.0000 0.0000 22.8992 0.0000 0.0000
# 5 0.0000 0.0000 0.0000 0.0000 29.7849 0.0000
# 6 0.0000 0.0000 0.0000 0.0000 0.0000 12.8243
#
#
#
# Elastic Compliance Matrix: (Units=1/GPa)
#
#
# Indices 1 2 3 4 5 6 
#
# 1 0.017314 -0.009461 -0.003809 0.000000 0.000000 0.000000
# 2 -0.009461 0.062959 -0.008489 0.000000 0.000000 0.000000
# 3 -0.003809 -0.008489 0.009820 0.000000 0.000000 0.000000
# 4 0.000000 0.000000 0.000000 0.043670 0.000000 0.000000
# 5 0.000000 0.000000 0.000000 0.000000 0.033574 0.000000
# 6 0.000000 0.000000 0.000000 0.000000 0.000000 0.077977
#
#
# Mechanical properties :
#
#
# Convention : Reuss Voigt Hill
#
# Bulk Modulus (GPa) = 21.47078 46.61642 34.04360
# Shear Modulus (GPa) = 16.42807 23.25269 19.84038
#
# Velocity S-wave (km/s) = 3.42259 4.07191 3.76129
# Velocity P-wave (km/s) = 5.56135 7.43958 6.56795
#
# Compressibility (1/GPa) = 0.04657493
#
# Stress axis : x y z
#
# Youngs Moduli (GPa) = 57.75614 15.88345 101.82911
#
# Poissons Ratio (x) = 0.15027 0.38785
# Poissons Ratio (y) = 0.54643 0.86446
# Poissons Ratio (z) = 0.21998 0.13484
#
# Static dielectric constant tensor:
#      x y z
#    x 2.694120 0.000000 0.000000 
#    y 0.000000 2.498430 0.000000 
#    z 0.000000 0.000000 3.182860 
# 
# 
# High freq. dielectric constant tensor:
#      x y z
#    x 1.519140 0.000000 0.000000 
#    y 0.000000 1.487330 0.000000 
#    z 0.000000 0.000000 1.564700 
# 
# From -- ./inp_files/6926.got.cif
#   From: 2010.03.12/outbox.cif.g09.slc.cpg/sg66_4_cif.got.tgz:6926.got - 2010.04.10 21:57:39.
