data_PCOD8275039
_publ_section_title
;
Structure prediction by ZEFSAII (Michael W. Deem and Ramdas Pophale) SiO2 
 PCOD8275039
Probable space group: C M M M
;
_chemical_formula_sum "Si O2"
_cell_formula_units_Z 80
_cell_length_a 28.338843
_cell_length_b 17.605831
_cell_length_c 9.431254
_cell_angle_alpha 90.000000
_cell_angle_beta 90.000000
_cell_angle_gamma 90.000000
_cell_volume 4705.525001
_symmetry_space_group_name_H-M "C M M M"
_symmetry_group_IT_number 65
_symmetry_cell_setting 'orthorhombic'
loop_
_space_group_symop_operation_xyz
x,y,z
-x,-y,z
x,-y,-z
-x,y,-z
-x,-y,-z
x,y,-z
-x,y,z
x,-y,z
1/2+x,1/2+y,z
1/2-x,1/2-y,z
1/2+x,1/2-y,-z
1/2-x,1/2+y,-z
1/2-x,1/2-y,-z
1/2+x,1/2+y,-z
1/2-x,1/2+y,z
1/2+x,1/2-y,z
loop_
_atom_site_type_symbol
_atom_site_label
_atom_site_fract_x
_atom_site_fract_y
_atom_site_fract_z
Si Si1 0.780743 0.413209 0.835380
Si Si2 0.447702 0.724402 0.836366
Si Si3 0.351299 0.216647 0.163508
Si Si4 0.055916 0.083008 0.657811
Si Si5 0.787069 0.817360 0.659734
O O1 0.793506 0.500000 0.799792
O O2 0.826820 0.363031 0.794902
O O3 0.735645 0.388464 0.742697
O O4 0.767515 0.402509 0.000000
O O5 0.500000 0.749509 0.779116
O O6 0.408145 0.789818 0.810929
O O7 0.427389 0.648762 0.762731
O O8 0.452007 0.704111 0.000000
O O9 0.332706 0.286720 0.257668
O O10 0.340247 0.236255 0.000000
O O11 0.075054 0.100832 0.500000
O O12 0.000000 0.080686 0.655794
O O13 0.075040 0.000000 0.707621
O O14 0.800825 0.842483 0.500000
O O15 0.750000 0.750000 0.656434
#
# Coordination Sequence:
#
# PCOD8275039 Si02
#       5
#    16  16  16  16  16
#     4   9  17  30  49  70  91 118 151 184 221 269
#     4   9  17  28  43  64  89 119 155 191 223 256
#     4   9  17  30  47  66  91 122 153 185 222 265
#     4   8  14  25  40  57  78 105 138 178 222 262
#     4   9  17  29  46  68  91 113 140 178 224 271
#
# _framework density 17.001290999999998
#
# number of rings (size 3 to 8) (size 9 to 14) (size 15 to 20)
#    0.000    3.200    0.000    1.200    0.000    4.000 
#    0.000    3.000    0.000    1.800    0.000    4.200 
#    0.000    0.000    0.000   15.000    0.000   15.600 
#
# Total GULP energy -495611.873873 kJ/mol
# GULP energy per Si atom -12390.296847 kJ/mol
# Density = 1.696260 g / cm^3
# Si number density = 17.001291 Si / 1000 Ang^3
#
#
#
# Elastic Constant Matrix: (Units=GPa)
#
#
# Indices 1 2 3 4 5 6 
#
# 1 94.0756 49.2222 37.3340 0.0000 0.0000 0.0000
# 2 49.2222 92.0077 39.2488 0.0000 0.0000 0.0000
# 3 37.3340 39.2488 66.6631 0.0000 0.0000 0.0000
# 4 0.0000 0.0000 0.0000 16.8083 0.0000 0.0000
# 5 0.0000 0.0000 0.0000 0.0000 12.4104 0.0000
# 6 0.0000 0.0000 0.0000 0.0000 0.0000 18.2845
#
#
#
# Elastic Compliance Matrix: (Units=1/GPa)
#
#
# Indices 1 2 3 4 5 6 
#
# 1 0.016027 -0.006337 -0.005245 0.000000 0.000000 0.000000
# 2 -0.006337 0.017019 -0.006472 0.000000 0.000000 0.000000
# 3 -0.005245 -0.006472 0.021748 0.000000 0.000000 0.000000
# 4 0.000000 0.000000 0.000000 0.059494 0.000000 0.000000
# 5 0.000000 0.000000 0.000000 0.000000 0.080578 0.000000
# 6 0.000000 0.000000 0.000000 0.000000 0.000000 0.054691
#
#
# Mechanical properties :
#
#
# Convention : Reuss Voigt Hill
#
# Bulk Modulus (GPa) = 53.50945 56.03959 54.77452
# Shear Modulus (GPa) = 17.12958 17.96339 17.54649
#
# Velocity S-wave (km/s) = 3.17763 3.25405 3.21607
# Velocity P-wave (km/s) = 6.70859 6.86673 6.78812
#
# Compressibility (1/GPa) = 0.01868829
#
# Stress axis : x y z
#
# Youngs Moduli (GPa) = 62.39647 58.75705 45.98048
#
# Poissons Ratio (x) = 0.37232 0.24116
# Poissons Ratio (y) = 0.39538 0.29757
# Poissons Ratio (z) = 0.32726 0.38025
#
# Static dielectric constant tensor:
#      x y z
#    x 3.179620 0.000000 0.000000 
#    y 0.000000 3.146700 0.000000 
#    z 0.000000 0.000000 3.357010 
# 
# 
# High freq. dielectric constant tensor:
#      x y z
#    x 1.643050 0.000000 0.000000 
#    y 0.000000 1.626700 0.000000 
#    z 0.000000 0.000000 1.655950 
# 
# From -- ./inp_files/9580.got.cif
#   From: 2010.03.12/outbox.cif.g09.slc.cpg/sg65_5_cif.got.tgz:9580.got - 2010.04.10 20:52:16.
