data_PCOD8275113
_publ_section_title
;
Structure prediction by ZEFSAII (Michael W. Deem and Ramdas Pophale) SiO2 
 PCOD8275113
Probable space group: C M M M
;
_chemical_formula_sum "Si O2"
_cell_formula_units_Z 104
_cell_length_a 19.833394
_cell_length_b 32.896126
_cell_length_c 9.759207
_cell_angle_alpha 90.000000
_cell_angle_beta 90.000000
_cell_angle_gamma 90.000000
_cell_volume 6367.314855
_symmetry_space_group_name_H-M "C M M M"
_symmetry_group_IT_number 65
_symmetry_cell_setting 'orthorhombic'
loop_
_space_group_symop_operation_xyz
x,y,z
-x,-y,z
x,-y,-z
-x,y,-z
-x,-y,-z
x,y,-z
-x,y,z
x,-y,z
1/2+x,1/2+y,z
1/2-x,1/2-y,z
1/2+x,1/2-y,-z
1/2-x,1/2+y,-z
1/2-x,1/2-y,-z
1/2+x,1/2+y,-z
1/2-x,1/2+y,z
1/2+x,1/2-y,z
loop_
_atom_site_type_symbol
_atom_site_label
_atom_site_fract_x
_atom_site_fract_y
_atom_site_fract_z
Si Si1 0.365228 0.914349 0.340990
Si Si2 0.318728 0.153443 0.846271
Si Si3 0.775746 0.046738 0.659253
Si Si4 0.675210 0.382196 0.842326
Si Si5 0.000000 0.455471 0.336887
Si Si6 0.575689 0.687043 0.162569
Si Si7 0.323601 0.754301 0.841614
O O1 0.370642 0.903834 0.500000
O O2 0.359651 0.872338 0.262184
O O3 0.302913 0.944471 0.311437
O O4 0.432912 0.934100 0.282736
O O5 0.238745 0.147921 0.820285
O O6 0.344932 0.199072 0.824628
O O7 0.335662 0.138758 0.000000
O O8 0.792779 0.054279 0.500000
O O9 0.821081 0.077272 0.749488
O O10 0.790908 0.000000 0.700290
O O11 0.609900 0.356063 0.798118
O O12 0.670379 0.396458 0.000000
O O13 0.000000 0.500000 0.272755
O O14 0.000000 0.457312 0.500000
O O15 0.500000 0.688442 0.224908
O O16 0.619939 0.724553 0.224473
O O17 0.572018 0.691366 0.000000
O O18 0.250000 0.750000 0.770601
O O19 0.316116 0.741404 0.000000
#
# Coordination Sequence:
#
# PCOD8275113 Si02
#       7
#    16  16  16  16   8  16  16
#     4   9  17  29  45  64  87 115 147 185 224 262
#     4   9  16  27  44  65  89 116 147 182 220 262
#     4   9  17  29  46  68  90 111 142 185 225 262
#     4   9  16  27  45  67  90 116 144 179 223 264
#     4   9  16  28  47  65  81 113 159 191 215 261
#     4   9  16  26  42  66  92 117 151 190 223 258
#     4   9  14  24  43  64  88 119 152 183 215 258
#
# _framework density 16.333416
#
# number of rings (size 3 to 8) (size 9 to 14) (size 15 to 20)
#    0.000    3.000    1.538    0.462    0.000    2.154 
#    1.385    0.385    0.000    4.154    0.000    3.231 
#    0.000    0.000    0.000    0.000    0.000    0.000 
#
# Total GULP energy -644526.006085 kJ/mol
# GULP energy per Si atom -12394.730886 kJ/mol
# Density = 1.629624 g / cm^3
# Si number density = 16.333416 Si / 1000 Ang^3
#
#
#
# Elastic Constant Matrix: (Units=GPa)
#
#
# Indices 1 2 3 4 5 6 
#
# 1 118.1817 69.9714 29.2758 0.0000 0.0000 0.0000
# 2 69.9714 123.2577 43.1618 0.0000 0.0000 0.0000
# 3 29.2758 43.1618 36.4610 0.0000 0.0000 0.0000
# 4 0.0000 0.0000 0.0000 16.8589 0.0000 0.0000
# 5 0.0000 0.0000 0.0000 0.0000 13.0620 0.0000
# 6 0.0000 0.0000 0.0000 0.0000 0.0000 25.0991
#
#
#
# Elastic Compliance Matrix: (Units=1/GPa)
#
#
# Indices 1 2 3 4 5 6 
#
# 1 0.012921 -0.006323 -0.002889 0.000000 0.000000 0.000000
# 2 -0.006323 0.016952 -0.014990 0.000000 0.000000 0.000000
# 3 -0.002889 -0.014990 0.047492 0.000000 0.000000 0.000000
# 4 0.000000 0.000000 0.000000 0.059316 0.000000 0.000000
# 5 0.000000 0.000000 0.000000 0.000000 0.076558 0.000000
# 6 0.000000 0.000000 0.000000 0.000000 0.000000 0.039842
#
#
# Mechanical properties :
#
#
# Convention : Reuss Voigt Hill
#
# Bulk Modulus (GPa) = 34.53163 62.52426 48.52795
# Shear Modulus (GPa) = 16.06997 20.03674 18.05336
#
# Velocity S-wave (km/s) = 3.14007 3.50627 3.32822
# Velocity P-wave (km/s) = 5.85955 7.39966 6.67418
#
# Compressibility (1/GPa) = 0.02895895
#
# Stress axis : x y z
#
# Youngs Moduli (GPa) = 77.39256 58.99045 21.05637
#
# Poissons Ratio (x) = 0.37302 0.06084
# Poissons Ratio (y) = 0.48938 0.31564
# Poissons Ratio (z) = 0.22362 0.88427
#
# Static dielectric constant tensor:
#      x y z
#    x 3.148160 0.000000 0.000000 
#    y 0.000000 3.105900 0.000000 
#    z 0.000000 0.000000 2.730370 
# 
# 
# High freq. dielectric constant tensor:
#      x y z
#    x 1.614880 0.000000 0.000000 
#    y 0.000000 1.633530 0.000000 
#    z 0.000000 0.000000 1.583890 
# 
# From -- ./inp_files/27681.got.cif
#   From: 2010.03.12/outbox.cif.g09.slc.cpg/sg65_14_cif.got.tgz:27681.got - 2010.04.10 20:52:16.
