data_PCOD8275633
_publ_section_title
;
Structure prediction by ZEFSAII (Michael W. Deem and Ramdas Pophale) SiO2 
 PCOD8275633
Probable space group: C C C M
;
_chemical_formula_sum "Si O2"
_cell_formula_units_Z 56
_cell_length_a 11.723060
_cell_length_b 14.293226
_cell_length_c 15.925805
_cell_angle_alpha 90.000000
_cell_angle_beta 90.000000
_cell_angle_gamma 90.000000
_cell_volume 2668.533396
_symmetry_space_group_name_H-M "C C C M"
_symmetry_group_IT_number 66
_symmetry_cell_setting 'orthorhombic'
loop_
_space_group_symop_operation_xyz
x,y,z
-x,-y,z
x,-y,1/2-z
-x,y,1/2-z
-x,-y,-z
x,y,-z
-x,y,1/2+z
x,-y,1/2+z
1/2+x,1/2+y,z
1/2-x,1/2-y,z
1/2+x,1/2-y,1/2-z
1/2-x,1/2+y,1/2-z
1/2-x,1/2-y,-z
1/2+x,1/2+y,-z
1/2-x,1/2+y,1/2+z
1/2+x,1/2-y,1/2+z
loop_
_atom_site_type_symbol
_atom_site_label
_atom_site_fract_x
_atom_site_fract_y
_atom_site_fract_z
Si Si1 0.089793 0.713736 0.366147
Si Si2 0.151641 0.314846 0.316096
Si Si3 0.737796 0.500000 0.250000
Si Si4 0.195612 0.101152 0.090763
O O1 0.118494 0.737559 0.269675
O O2 0.112911 0.809469 0.415342
O O3 0.171921 0.631755 0.399786
O O4 0.958181 0.682246 0.377566
O O5 0.250000 0.250000 0.358313
O O6 0.185268 0.420640 0.293566
O O7 0.661448 0.538324 0.171924
O O8 0.183137 0.048596 0.000000
#
# Coordination Sequence:
#
# PCOD8275633 Si02
#       4
#    16  16   8  16
#     4   9  17  32  56  86 115 149 202 237 297 356
#     4  10  18  33  55  87 119 157 195 244 292 355
#     4  10  20  37  59  94 118 156 203 243 304 352
#     4  10  19  36  59  86 116 154 204 249 289 354
#
# _framework density 20.985308
#
# number of rings (size 3 to 8) (size 9 to 14) (size 15 to 20)
#    0.000    2.286    5.714    1.714    0.000    9.143 
#    0.000    7.143    0.000    9.429    0.000    0.000 
#    0.000    0.000    0.000    0.000    0.000    0.000 
#
# Total GULP energy -346872.038083 kJ/mol
# GULP energy per Si atom -12388.287074 kJ/mol
# Density = 2.093754 g / cm^3
# Si number density = 20.985308 Si / 1000 Ang^3
#
#
#
# Elastic Constant Matrix: (Units=GPa)
#
#
# Indices 1 2 3 4 5 6 
#
# 1 49.4593 26.4949 -13.5015 0.0000 0.0000 0.0000
# 2 26.4949 93.7992 24.3096 0.0000 0.0000 0.0000
# 3 -13.5015 24.3096 121.2454 0.0000 0.0000 0.0000
# 4 0.0000 0.0000 0.0000 19.0401 0.0000 0.0000
# 5 0.0000 0.0000 0.0000 0.0000 11.6556 0.0000
# 6 0.0000 0.0000 0.0000 0.0000 0.0000 14.0055
#
#
#
# Elastic Compliance Matrix: (Units=1/GPa)
#
#
# Indices 1 2 3 4 5 6 
#
# 1 0.026065 -0.008559 0.004619 0.000000 0.000000 0.000000
# 2 -0.008559 0.014056 -0.003771 0.000000 0.000000 0.000000
# 3 0.004619 -0.003771 0.009518 0.000000 0.000000 0.000000
# 4 0.000000 0.000000 0.000000 0.052521 0.000000 0.000000
# 5 0.000000 0.000000 0.000000 0.000000 0.085796 0.000000
# 6 0.000000 0.000000 0.000000 0.000000 0.000000 0.071401
#
#
# Mechanical properties :
#
#
# Convention : Reuss Voigt Hill
#
# Bulk Modulus (GPa) = 29.22711 37.67888 33.45300
# Shear Modulus (GPa) = 17.47121 24.08697 20.77909
#
# Velocity S-wave (km/s) = 2.88852 3.39160 3.15012
# Velocity P-wave (km/s) = 5.00823 5.77331 5.40432
#
# Compressibility (1/GPa) = 0.03421481
#
# Stress axis : x y z
#
# Youngs Moduli (GPa) = 38.36622 71.14305 105.06182
#
# Poissons Ratio (x) = 0.60894 -0.48524
# Poissons Ratio (y) = 0.32839 0.39623
# Poissons Ratio (z) = -0.17720 0.26831
#
# Static dielectric constant tensor:
#      x y z
#    x 3.857940 0.000000 0.000000 
#    y 0.000000 3.562210 0.000000 
#    z 0.000000 0.000000 3.777340 
# 
# 
# High freq. dielectric constant tensor:
#      x y z
#    x 1.797920 0.000000 0.000000 
#    y 0.000000 1.798880 0.000000 
#    z 0.000000 0.000000 1.804770 
# 
# From -- ./inp_files/37835.got.cif
#   From: 2010.03.12/outbox.cif.g09.slc.cpg/sg66_19_cif.got.tgz:37835.got - 2010.04.10 21:57:39.
