data_PCOD8275858
_publ_section_title
;
Structure prediction by ZEFSAII (Michael W. Deem and Ramdas Pophale) SiO2 
 PCOD8275858
Probable space group: C C C M
;
_chemical_formula_sum "Si O2"
_cell_formula_units_Z 116
_cell_length_a 22.288971
_cell_length_b 31.572699
_cell_length_c 8.964212
_cell_angle_alpha 90.000000
_cell_angle_beta 90.000000
_cell_angle_gamma 90.000000
_cell_volume 6308.321914
_symmetry_space_group_name_H-M "C C C M"
_symmetry_group_IT_number 66
_symmetry_cell_setting 'orthorhombic'
loop_
_space_group_symop_operation_xyz
x,y,z
-x,-y,z
x,-y,1/2-z
-x,y,1/2-z
-x,-y,-z
x,y,-z
-x,y,1/2+z
x,-y,1/2+z
1/2+x,1/2+y,z
1/2-x,1/2-y,z
1/2+x,1/2-y,1/2-z
1/2-x,1/2+y,1/2-z
1/2-x,1/2-y,-z
1/2+x,1/2+y,-z
1/2-x,1/2+y,1/2+z
1/2+x,1/2-y,1/2+z
loop_
_atom_site_type_symbol
_atom_site_label
_atom_site_fract_x
_atom_site_fract_y
_atom_site_fract_z
Si Si1 0.328696 0.602498 0.676600
Si Si2 0.562070 0.545078 0.179200
Si Si3 0.500000 0.000000 0.750000
Si Si4 0.093935 0.567389 0.333774
Si Si5 0.299133 0.306577 0.822417
Si Si6 0.560443 0.841425 0.177842
Si Si7 0.831651 0.283933 0.322922
Si Si8 0.277499 0.042811 0.822952
O O1 0.330175 0.603562 0.500000
O O2 0.387260 0.577882 0.733487
O O3 0.328893 0.650416 0.741673
O O4 0.267482 0.579764 0.728705
O O5 0.578908 0.500000 0.250000
O O6 0.500000 0.561571 0.250000
O O7 0.557223 0.541279 0.000000
O O8 0.456553 0.969271 0.656472
O O9 0.112339 0.580204 0.500000
O O10 0.070341 0.610681 0.258551
O O11 0.155709 0.552110 0.256424
O O12 0.230800 0.303311 0.763156
O O13 0.336810 0.265241 0.769892
O O14 0.297571 0.308108 0.000000
O O15 0.500000 0.823408 0.250000
O O16 0.613565 0.811589 0.239821
O O17 0.554885 0.840212 0.000000
O O18 0.832332 0.286024 0.500000
O O19 0.253115 0.000000 0.750000
O O20 0.278142 0.036922 0.000000
#
# Coordination Sequence:
#
# PCOD8275858 Si02
#       8
#    16  16   4  16  16  16  16  16
#     4   9  17  28  46  69  96 121 152 191 237 278
#     4  10  19  32  49  70  93 126 158 190 226 275
#     4  12  18  32  44  62  88 132 164 188 230 272
#     4  10  20  31  46  64  91 127 164 196 231 271
#     4   8  13  25  45  71  94 118 148 190 234 277
#     4  10  19  32  47  69  94 122 155 194 233 275
#     4   8  14  25  46  70  94 118 151 191 233 274
#     4  10  19  32  47  68  94 125 157 197 237 274
#
# _framework density 18.388408999999999
#
# number of rings (size 3 to 8) (size 9 to 14) (size 15 to 20)
#    0.000    2.621    1.379    3.103    0.000    3.310 
#    0.000    2.069    0.000    0.000    0.000    5.793 
#    0.000    0.000    0.000    0.000    0.000    0.000 
#
# Total GULP energy -718760.073192 kJ/mol
# GULP energy per Si atom -12392.415055 kJ/mol
# Density = 1.834656 g / cm^3
# Si number density = 18.388409 Si / 1000 Ang^3
#
#
#
# Elastic Constant Matrix: (Units=GPa)
#
#
# Indices 1 2 3 4 5 6 
#
# 1 139.7374 93.5279 15.9738 0.0000 0.0000 0.0000
# 2 93.5279 164.1342 15.9628 0.0000 0.0000 0.0000
# 3 15.9738 15.9628 27.4261 0.0000 0.0000 0.0000
# 4 0.0000 0.0000 0.0000 13.1602 0.0000 0.0000
# 5 0.0000 0.0000 0.0000 0.0000 18.8600 0.0000
# 6 0.0000 0.0000 0.0000 0.0000 0.0000 30.3741
#
#
#
# Elastic Compliance Matrix: (Units=1/GPa)
#
#
# Indices 1 2 3 4 5 6 
#
# 1 0.011818 -0.006429 -0.003142 0.000000 0.000000 0.000000
# 2 -0.006429 0.009955 -0.002050 0.000000 0.000000 0.000000
# 3 -0.003142 -0.002050 0.039485 0.000000 0.000000 0.000000
# 4 0.000000 0.000000 0.000000 0.075987 0.000000 0.000000
# 5 0.000000 0.000000 0.000000 0.000000 0.053022 0.000000
# 6 0.000000 0.000000 0.000000 0.000000 0.000000 0.032923
#
#
# Mechanical properties :
#
#
# Convention : Reuss Voigt Hill
#
# Bulk Modulus (GPa) = 26.30371 64.69184 45.49777
# Shear Modulus (GPa) = 19.29735 26.20107 22.74921
#
# Velocity S-wave (km/s) = 3.24301 3.77884 3.52113
# Velocity P-wave (km/s) = 5.32525 7.36863 6.42865
#
# Compressibility (1/GPa) = 0.03801745
#
# Stress axis : x y z
#
# Youngs Moduli (GPa) = 84.61449 100.44946 25.32639
#
# Poissons Ratio (x) = 0.64577 0.07956
# Poissons Ratio (y) = 0.54397 0.05192
# Poissons Ratio (z) = 0.26582 0.20591
#
# Static dielectric constant tensor:
#      x y z
#    x 3.554380 0.000000 0.000000 
#    y 0.000000 3.732680 0.000000 
#    z 0.000000 0.000000 2.802040 
# 
# 
# High freq. dielectric constant tensor:
#      x y z
#    x 1.717010 0.000000 0.000000 
#    y 0.000000 1.721280 0.000000 
#    z 0.000000 0.000000 1.653650 
# 
# From -- ./inp_files/9610.got.cif
#   From: 2010.03.12/outbox.cif.g09.slc.cpg/sg66_5_cif.got.tgz:9610.got - 2010.04.10 21:57:39.
