data_PCOD8275287
_publ_section_title
;
Structure prediction by ZEFSAII (Michael W. Deem and Ramdas Pophale) SiO2 
 PCOD8275287
Probable space group: C C C M
;
_chemical_formula_sum "Si O2"
_cell_formula_units_Z 96
_cell_length_a 26.308033
_cell_length_b 28.669141
_cell_length_c 9.111756
_cell_angle_alpha 90.000000
_cell_angle_beta 90.000000
_cell_angle_gamma 90.000000
_cell_volume 6872.347951
_symmetry_space_group_name_H-M "C C C M"
_symmetry_group_IT_number 66
_symmetry_cell_setting 'orthorhombic'
loop_
_space_group_symop_operation_xyz
x,y,z
-x,-y,z
x,-y,1/2-z
-x,y,1/2-z
-x,-y,-z
x,y,-z
-x,y,1/2+z
x,-y,1/2+z
1/2+x,1/2+y,z
1/2-x,1/2-y,z
1/2+x,1/2-y,1/2-z
1/2-x,1/2+y,1/2-z
1/2-x,1/2-y,-z
1/2+x,1/2+y,-z
1/2-x,1/2+y,1/2+z
1/2+x,1/2-y,1/2+z
loop_
_atom_site_type_symbol
_atom_site_label
_atom_site_fract_x
_atom_site_fract_y
_atom_site_fract_z
Si Si1 0.285856 0.454998 0.331102
Si Si2 0.149401 0.806820 0.329358
Si Si3 0.449116 0.636445 0.673260
Si Si4 0.758566 0.145693 0.828843
Si Si5 0.700618 0.782361 0.162554
Si Si6 0.097117 0.952626 0.825353
O O1 0.262842 0.500000 0.250000
O O2 0.283623 0.467694 0.500000
O O3 0.252325 0.409319 0.294072
O O4 0.343907 0.445171 0.284182
O O5 0.163984 0.812801 0.500000
O O6 0.092709 0.823758 0.296286
O O7 0.188554 0.837904 0.239176
O O8 0.154433 0.751662 0.285949
O O9 0.500000 0.655433 0.750000
O O10 0.456683 0.627844 0.500000
O O11 0.434388 0.588627 0.752216
O O12 0.709340 0.173200 0.767396
O O13 0.762155 0.155316 0.000000
O O14 0.750000 0.750000 0.165372
O O15 0.690350 0.802119 0.000000
O O16 0.077306 0.000000 0.750000
O O17 0.087778 0.953817 0.000000
#
# Coordination Sequence:
#
# PCOD8275287 Si02
#       6
#    16  16  16  16  16  16
#     4   9  18  28  40  58  80 104 131 161 195 234
#     4   9  18  31  44  57  77 102 128 157 194 239
#     4  11  22  34  47  61  76 100 130 167 209 248
#     4  10  17  26  41  63  83 100 125 160 196 230
#     4   8  15  27  41  59  79 101 126 152 186 233
#     4  10  19  33  47  60  76  98 129 168 208 248
#
# _framework density 13.969025
#
# number of rings (size 3 to 8) (size 9 to 14) (size 15 to 20)
#    0.000    2.500    1.667    2.500    0.000    6.000 
#    0.000    1.667    0.000    0.000    0.000    0.000 
#    0.000    0.000    0.000    0.000    0.000    0.833 
#
# Total GULP energy -594985.709697 kJ/mol
# GULP energy per Si atom -12395.535619 kJ/mol
# Density = 1.393723 g / cm^3
# Si number density = 13.969025 Si / 1000 Ang^3
#
#
#
# Elastic Constant Matrix: (Units=GPa)
#
#
# Indices 1 2 3 4 5 6 
#
# 1 51.7680 52.3760 32.7925 0.0000 0.0000 0.0000
# 2 52.3760 99.2891 54.4887 0.0000 0.0000 0.0000
# 3 32.7925 54.4887 76.1967 0.0000 0.0000 0.0000
# 4 0.0000 0.0000 0.0000 24.7309 0.0000 0.0000
# 5 0.0000 0.0000 0.0000 0.0000 13.0806 0.0000
# 6 0.0000 0.0000 0.0000 0.0000 0.0000 19.5255
#
#
#
# Elastic Compliance Matrix: (Units=1/GPa)
#
#
# Indices 1 2 3 4 5 6 
#
# 1 0.042043 -0.020160 -0.003677 0.000000 0.000000 0.000000
# 2 -0.020160 0.026244 -0.010091 0.000000 0.000000 0.000000
# 3 -0.003677 -0.010091 0.021923 0.000000 0.000000 0.000000
# 4 0.000000 0.000000 0.000000 0.040435 0.000000 0.000000
# 5 0.000000 0.000000 0.000000 0.000000 0.076449 0.000000
# 6 0.000000 0.000000 0.000000 0.000000 0.000000 0.051215
#
#
# Mechanical properties :
#
#
# Convention : Reuss Voigt Hill
#
# Bulk Modulus (GPa) = 44.73684 56.28536 50.51110
# Shear Modulus (GPa) = 14.98722 17.30718 16.14720
#
# Velocity S-wave (km/s) = 3.27905 3.52372 3.40358
# Velocity P-wave (km/s) = 6.81407 7.54559 7.18914
#
# Compressibility (1/GPa) = 0.02235294
#
# Stress axis : x y z
#
# Youngs Moduli (GPa) = 23.78507 38.10377 45.61471
#
# Poissons Ratio (x) = 0.76818 0.16774
# Poissons Ratio (y) = 0.47951 0.46030
# Poissons Ratio (z) = 0.08747 0.38451
#
# Static dielectric constant tensor:
#      x y z
#    x 2.608460 0.000000 0.000000 
#    y 0.000000 2.961200 0.000000 
#    z 0.000000 0.000000 2.852210 
# 
# 
# High freq. dielectric constant tensor:
#      x y z
#    x 1.481740 0.000000 0.000000 
#    y 0.000000 1.528490 0.000000 
#    z 0.000000 0.000000 1.546070 
# 
# From -- ./inp_files/10636.got.cif
#   From: 2010.03.12/outbox.cif.g09.slc.cpg/sg66_6_cif.got.tgz:10636.got - 2010.04.10 21:57:39.
