data_PCOD8275990
_publ_section_title
;
Structure prediction by ZEFSAII (Michael W. Deem and Ramdas Pophale) SiO2 
 PCOD8275990
Probable space group: C C C M
;
_chemical_formula_sum "Si O2"
_cell_formula_units_Z 64
_cell_length_a 34.948397
_cell_length_b 4.940779
_cell_length_c 17.087232
_cell_angle_alpha 90.000000
_cell_angle_beta 90.000000
_cell_angle_gamma 90.000000
_cell_volume 2950.491752
_symmetry_space_group_name_H-M "C C C M"
_symmetry_group_IT_number 66
_symmetry_cell_setting 'orthorhombic'
loop_
_space_group_symop_operation_xyz
x,y,z
-x,-y,z
x,-y,1/2-z
-x,y,1/2-z
-x,-y,-z
x,y,-z
-x,y,1/2+z
x,-y,1/2+z
1/2+x,1/2+y,z
1/2-x,1/2-y,z
1/2+x,1/2-y,1/2-z
1/2-x,1/2+y,1/2-z
1/2-x,1/2-y,-z
1/2+x,1/2+y,-z
1/2-x,1/2+y,1/2+z
1/2+x,1/2-y,1/2+z
loop_
_atom_site_type_symbol
_atom_site_label
_atom_site_fract_x
_atom_site_fract_y
_atom_site_fract_z
Si Si1 0.787465 0.378644 0.587300
Si Si2 0.837347 0.136602 0.088129
Si Si3 0.581501 0.420228 0.161104
Si Si4 0.043743 0.571122 0.589903
O O1 0.773917 0.465610 0.500000
O O2 0.750000 0.250000 0.631351
O O3 0.806909 0.647094 0.625876
O O4 0.819848 0.157194 0.584261
O O5 0.873881 0.089653 0.141737
O O6 0.848689 0.234784 0.000000
O O7 0.575219 0.500000 0.250000
O O8 0.555746 0.619777 0.107676
O O9 0.567968 0.115624 0.147390
O O10 0.053796 0.509515 0.500000
O O11 0.000000 0.500000 0.607331
#
# Coordination Sequence:
#
# PCOD8275990 Si02
#       4
#    16  16  16  16
#     4   9  17  30  52  83 113 144 191 247 293 337
#     4  10  19  33  55  81 114 154 194 239 290 350
#     4  12  25  40  61  91 126 162 202 251 308 369
#     4  11  24  43  66  90 119 158 205 255 307 368
#
# _framework density 21.691300999999999
#
# number of rings (size 3 to 8) (size 9 to 14) (size 15 to 20)
#    0.000    1.500    0.000    6.000    0.000   10.000 
#    0.000    0.000    0.000    3.000    0.000    0.000 
#    0.000    0.000    0.000    0.000    0.000    0.250 
#
# Total GULP energy -396664.146766 kJ/mol
# GULP energy per Si atom -12395.754586 kJ/mol
# Density = 2.164193 g / cm^3
# Si number density = 21.691301 Si / 1000 Ang^3
#
#
#
# Elastic Constant Matrix: (Units=GPa)
#
#
# Indices 1 2 3 4 5 6 
#
# 1 94.3845 8.2585 23.2107 0.0000 0.0000 0.0000
# 2 8.2585 86.5737 0.3707 0.0000 0.0000 0.0000
# 3 23.2107 0.3707 64.6139 0.0000 0.0000 0.0000
# 4 0.0000 0.0000 0.0000 18.8865 0.0000 0.0000
# 5 0.0000 0.0000 0.0000 0.0000 1.6783 0.0000
# 6 0.0000 0.0000 0.0000 0.0000 0.0000 52.7542
#
#
#
# Elastic Compliance Matrix: (Units=1/GPa)
#
#
# Indices 1 2 3 4 5 6 
#
# 1 0.011726 -0.001101 -0.004206 0.000000 0.000000 0.000000
# 2 -0.001101 0.011654 0.000328 0.000000 0.000000 0.000000
# 3 -0.004206 0.000328 0.016985 0.000000 0.000000 0.000000
# 4 0.000000 0.000000 0.000000 0.052948 0.000000 0.000000
# 5 0.000000 0.000000 0.000000 0.000000 0.595837 0.000000
# 6 0.000000 0.000000 0.000000 0.000000 0.000000 0.018956
#
#
# Mechanical properties :
#
#
# Convention : Reuss Voigt Hill
#
# Bulk Modulus (GPa) = 32.88412 34.36131 33.62271
# Shear Modulus (GPa) = 6.86627 28.91261 17.88944
#
# Velocity S-wave (km/s) = 1.78110 3.65487 2.87492
# Velocity P-wave (km/s) = 4.40712 5.80398 5.15310
#
# Compressibility (1/GPa) = 0.03040981
#
# Stress axis : x y z
#
# Youngs Moduli (GPa) = 85.28409 85.80431 58.87394
#
# Poissons Ratio (x) = 0.09443 0.24761
# Poissons Ratio (y) = 0.09386 -0.01934
# Poissons Ratio (z) = 0.35868 -0.02818
#
# Static dielectric constant tensor:
#      x y z
#    x 4.064260 0.000000 0.000000 
#    y 0.000000 4.151130 0.000000 
#    z 0.000000 0.000000 3.537110 
# 
# 
# High freq. dielectric constant tensor:
#      x y z
#    x 1.866800 0.000000 0.000000 
#    y 0.000000 1.872670 0.000000 
#    z 0.000000 0.000000 1.802470 
# 
# From -- ./inp_files/44479.got.cif
#   From: 2010.03.12/outbox.cif.g09.slc.cpg/sg66_23_cif.got.tgz:44479.got - 2010.04.10 21:57:39.
