data_PCOD8275186
_publ_section_title
;
Structure prediction by ZEFSAII (Michael W. Deem and Ramdas Pophale) SiO2 
 PCOD8275186
Probable space group: C M M M
;
_chemical_formula_sum "Si O2"
_cell_formula_units_Z 104
_cell_length_a 26.384011
_cell_length_b 23.829569
_cell_length_c 9.424614
_cell_angle_alpha 90.000000
_cell_angle_beta 90.000000
_cell_angle_gamma 90.000000
_cell_volume 5925.439644
_symmetry_space_group_name_H-M "C M M M"
_symmetry_group_IT_number 65
_symmetry_cell_setting 'orthorhombic'
loop_
_space_group_symop_operation_xyz
x,y,z
-x,-y,z
x,-y,-z
-x,y,-z
-x,-y,-z
x,y,-z
-x,y,z
x,-y,z
1/2+x,1/2+y,z
1/2-x,1/2-y,z
1/2+x,1/2-y,-z
1/2-x,1/2+y,-z
1/2-x,1/2-y,-z
1/2+x,1/2+y,-z
1/2-x,1/2+y,z
1/2+x,1/2-y,z
loop_
_atom_site_type_symbol
_atom_site_label
_atom_site_fract_x
_atom_site_fract_y
_atom_site_fract_z
Si Si1 0.133590 0.563825 0.335514
Si Si2 0.000000 0.066758 0.660054
Si Si3 0.404622 0.564692 0.836021
Si Si4 0.321302 0.347233 0.166639
Si Si5 0.790498 0.367663 0.163933
Si Si6 0.632906 0.232248 0.835995
Si Si7 0.441894 0.161022 0.334132
O O1 0.147280 0.570477 0.500000
O O2 0.119102 0.500000 0.297196
O O3 0.183111 0.581768 0.248006
O O4 0.085612 0.602512 0.294547
O O5 0.049534 0.088732 0.741726
O O6 0.000000 0.090350 0.500000
O O7 0.000000 0.000000 0.662218
O O8 0.393125 0.500000 0.802072
O O9 0.354521 0.598630 0.794958
O O10 0.419653 0.573274 0.000000
O O11 0.265316 0.357289 0.229727
O O12 0.348137 0.291512 0.228274
O O13 0.315408 0.337727 0.000000
O O14 0.821107 0.310522 0.184717
O O15 0.787726 0.385840 0.000000
O O16 0.583764 0.212435 0.749167
O O17 0.616722 0.237337 0.000000
O O18 0.437324 0.174086 0.500000
O O19 0.500000 0.155629 0.285754
#
# Coordination Sequence:
#
# PCOD8275186 Si02
#       7
#    16   8  16  16  16  16  16
#     4   9  18  32  49  71  99 130 164 199 238 287
#     4   9  17  31  49  65  85 115 147 181 226 275
#     4   9  17  30  48  68  90 118 153 191 229 273
#     4   9  17  30  49  73  96 122 159 197 233 280
#     4   9  17  30  50  72  96 126 159 196 237 280
#     4   9  17  31  50  71  95 125 160 197 238 284
#     4   9  18  33  51  70  96 129 163 202 245 286
#
# _framework density 17.551441000000001
#
# number of rings (size 3 to 8) (size 9 to 14) (size 15 to 20)
#    0.000    3.000    0.000    0.692    0.000    4.308 
#    1.385    5.385    0.000    5.538    0.000    4.308 
#    0.000    0.000    0.000    0.000    0.000    0.000 
#
# Total GULP energy -644804.269180 kJ/mol
# GULP energy per Si atom -12400.082100 kJ/mol
# Density = 1.751149 g / cm^3
# Si number density = 17.551441 Si / 1000 Ang^3
#
#
#
# Elastic Constant Matrix: (Units=GPa)
#
#
# Indices 1 2 3 4 5 6 
#
# 1 156.8014 68.8273 53.2559 0.0000 0.0000 0.0000
# 2 68.8273 89.7992 34.3942 0.0000 0.0000 0.0000
# 3 53.2559 34.3942 51.1804 0.0000 0.0000 0.0000
# 4 0.0000 0.0000 0.0000 20.8440 0.0000 0.0000
# 5 0.0000 0.0000 0.0000 0.0000 22.7366 0.0000
# 6 0.0000 0.0000 0.0000 0.0000 0.0000 17.9384
#
#
#
# Elastic Compliance Matrix: (Units=1/GPa)
#
#
# Indices 1 2 3 4 5 6 
#
# 1 0.011762 -0.005827 -0.008323 0.000000 0.000000 0.000000
# 2 -0.005827 0.017883 -0.005954 0.000000 0.000000 0.000000
# 3 -0.008323 -0.005954 0.032201 0.000000 0.000000 0.000000
# 4 0.000000 0.000000 0.000000 0.047975 0.000000 0.000000
# 5 0.000000 0.000000 0.000000 0.000000 0.043982 0.000000
# 6 0.000000 0.000000 0.000000 0.000000 0.000000 0.055746
#
#
# Mechanical properties :
#
#
# Convention : Reuss Voigt Hill
#
# Bulk Modulus (GPa) = 46.21761 67.85954 57.03857
# Shear Modulus (GPa) = 19.45749 21.72404 20.59076
#
# Velocity S-wave (km/s) = 3.33317 3.52196 3.42887
# Velocity P-wave (km/s) = 6.41897 7.43546 6.94584
#
# Compressibility (1/GPa) = 0.02163678
#
# Stress axis : x y z
#
# Youngs Moduli (GPa) = 85.01757 55.91959 31.05540
#
# Poissons Ratio (x) = 0.32587 0.25848
# Poissons Ratio (y) = 0.49543 0.18490
# Poissons Ratio (z) = 0.70761 0.33294
#
# Static dielectric constant tensor:
#      x y z
#    x 3.339060 0.000000 0.000000 
#    y 0.000000 3.222260 0.000000 
#    z 0.000000 0.000000 3.139740 
# 
# 
# High freq. dielectric constant tensor:
#      x y z
#    x 1.681820 0.000000 0.000000 
#    y 0.000000 1.672330 0.000000 
#    z 0.000000 0.000000 1.656050 
# 
# From -- ./inp_files/14761.got.cif
#   From: 2010.03.12/outbox.cif.g09.slc.cpg/sg65_8_cif.got.tgz:14761.got - 2010.04.10 20:52:16.
