data_PCOD8275836
_publ_section_title
;
Structure prediction by ZEFSAII (Michael W. Deem and Ramdas Pophale) SiO2 
 PCOD8275836
Probable space group: C C C M
;
_chemical_formula_sum "Si O2"
_cell_formula_units_Z 112
_cell_length_a 17.936369
_cell_length_b 36.053470
_cell_length_c 9.342324
_cell_angle_alpha 90.000000
_cell_angle_beta 90.000000
_cell_angle_gamma 90.000000
_cell_volume 6041.385168
_symmetry_space_group_name_H-M "C C C M"
_symmetry_group_IT_number 66
_symmetry_cell_setting 'orthorhombic'
loop_
_space_group_symop_operation_xyz
x,y,z
-x,-y,z
x,-y,1/2-z
-x,y,1/2-z
-x,-y,-z
x,y,-z
-x,y,1/2+z
x,-y,1/2+z
1/2+x,1/2+y,z
1/2-x,1/2-y,z
1/2+x,1/2-y,1/2-z
1/2-x,1/2+y,1/2-z
1/2-x,1/2-y,-z
1/2+x,1/2+y,-z
1/2-x,1/2+y,1/2+z
1/2+x,1/2-y,1/2+z
loop_
_atom_site_type_symbol
_atom_site_label
_atom_site_fract_x
_atom_site_fract_y
_atom_site_fract_z
Si Si1 0.923404 0.746160 0.830132
Si Si2 0.821105 0.321463 0.330654
Si Si3 0.821109 0.964338 0.833868
Si Si4 0.345553 0.678610 0.330116
Si Si5 0.649829 0.964213 0.833246
Si Si6 0.424652 0.888020 0.669107
Si Si7 0.075969 0.895967 0.668881
O O1 0.865627 0.714751 0.779447
O O2 0.890430 0.785373 0.778349
O O3 0.000000 0.738446 0.750000
O O4 0.937040 0.745056 0.000000
O O5 0.814748 0.321211 0.500000
O O6 0.737906 0.320825 0.264326
O O7 0.862760 0.358620 0.279523
O O8 0.735535 0.956384 0.792804
O O9 0.867231 0.928384 0.788651
O O10 0.852173 0.000000 0.750000
O O11 0.830178 0.973171 0.000000
O O12 0.339885 0.677860 0.500000
O O13 0.389078 0.642462 0.274663
O O14 0.602331 0.928768 0.785083
O O15 0.618752 0.000000 0.750000
O O16 0.640574 0.972221 0.000000
O O17 0.500000 0.878057 0.750000
O O18 0.438274 0.885136 0.500000
O O19 0.060845 0.894720 0.500000
O O20 0.000000 0.903953 0.750000
#
# Coordination Sequence:
#
# PCOD8275836 Si02
#       7
#    16  16  16  16  16  16  16
#     4  10  19  31  51  77 103 130 160 198 242 286
#     4   9  17  31  52  75  97 126 167 206 236 276
#     4   9  18  33  52  72  94 124 162 201 241 285
#     4   9  17  31  52  75  97 126 167 206 236 276
#     4   9  18  33  52  72  94 124 162 201 241 285
#     4  10  20  33  50  72  99 129 160 198 243 289
#     4  10  20  33  50  72  99 129 160 198 243 289
#
# _framework density 18.538796000000001
#
# number of rings (size 3 to 8) (size 9 to 14) (size 15 to 20)
#    0.000    2.571    0.000    2.143    0.000    6.857 
#    0.000    2.857    0.000    6.000    0.000    0.000 
#    0.000    0.000    0.000    0.000    0.000    0.000 
#
# Total GULP energy -694494.448239 kJ/mol
# GULP energy per Si atom -12401.686576 kJ/mol
# Density = 1.849660 g / cm^3
# Si number density = 18.538796 Si / 1000 Ang^3
#
#
#
# Elastic Constant Matrix: (Units=GPa)
#
#
# Indices 1 2 3 4 5 6 
#
# 1 65.9889 5.5863 17.7359 0.0000 0.0000 0.0000
# 2 5.5863 96.7678 18.9127 0.0000 0.0000 0.0000
# 3 17.7359 18.9127 21.6704 0.0000 0.0000 0.0000
# 4 0.0000 0.0000 0.0000 21.2375 0.0000 0.0000
# 5 0.0000 0.0000 0.0000 0.0000 28.8723 0.0000
# 6 0.0000 0.0000 0.0000 0.0000 0.0000 21.5012
#
#
#
# Elastic Compliance Matrix: (Units=1/GPa)
#
#
# Indices 1 2 3 4 5 6 
#
# 1 0.019899 0.002453 -0.018427 0.000000 0.000000 0.000000
# 2 0.002453 0.012761 -0.013145 0.000000 0.000000 0.000000
# 3 -0.018427 -0.013145 0.072699 0.000000 0.000000 0.000000
# 4 0.000000 0.000000 0.000000 0.047086 0.000000 0.000000
# 5 0.000000 0.000000 0.000000 0.000000 0.034635 0.000000
# 6 0.000000 0.000000 0.000000 0.000000 0.000000 0.046509
#
#
# Mechanical properties :
#
#
# Convention : Reuss Voigt Hill
#
# Bulk Modulus (GPa) = 21.22156 29.87741 25.54949
# Shear Modulus (GPa) = 16.25832 23.80171 20.03001
#
# Velocity S-wave (km/s) = 2.96461 3.58702 3.29057
# Velocity P-wave (km/s) = 4.81566 5.77120 5.31495
#
# Compressibility (1/GPa) = 0.04712188
#
# Stress axis : x y z
#
# Youngs Moduli (GPa) = 50.25391 78.36071 13.75536
#
# Poissons Ratio (x) = -0.19219 0.25346
# Poissons Ratio (y) = -0.12325 0.18081
# Poissons Ratio (z) = 0.92601 1.03004
#
# Static dielectric constant tensor:
#      x y z
#    x 3.480390 0.000000 0.000000 
#    y 0.000000 3.648230 0.000000 
#    z 0.000000 0.000000 3.016450 
# 
# 
# High freq. dielectric constant tensor:
#      x y z
#    x 1.726860 0.000000 0.000000 
#    y 0.000000 1.737810 0.000000 
#    z 0.000000 0.000000 1.676860 
# 
# From -- ./inp_files/16790.got.cif
#   From: 2010.03.12/outbox.cif.g09.slc.cpg/sg66_9_cif.got.tgz:16790.got - 2010.04.10 21:57:39.
