data_PCOD8275122
_publ_section_title
;
Structure prediction by ZEFSAII (Michael W. Deem and Ramdas Pophale) SiO2 
 PCOD8275122
Probable space group: C M M M
;
_chemical_formula_sum "Si O2"
_cell_formula_units_Z 88
_cell_length_a 27.548992
_cell_length_b 25.391614
_cell_length_c 9.201113
_cell_angle_alpha 90.000000
_cell_angle_beta 90.000000
_cell_angle_gamma 90.000000
_cell_volume 6436.301571
_symmetry_space_group_name_H-M "C M M M"
_symmetry_group_IT_number 65
_symmetry_cell_setting 'orthorhombic'
loop_
_space_group_symop_operation_xyz
x,y,z
-x,-y,z
x,-y,-z
-x,y,-z
-x,-y,-z
x,y,-z
-x,y,z
x,-y,z
1/2+x,1/2+y,z
1/2-x,1/2-y,z
1/2+x,1/2-y,-z
1/2-x,1/2+y,-z
1/2-x,1/2-y,-z
1/2+x,1/2+y,-z
1/2-x,1/2+y,z
1/2+x,1/2-y,z
loop_
_atom_site_type_symbol
_atom_site_label
_atom_site_fract_x
_atom_site_fract_y
_atom_site_fract_z
Si Si1 0.000000 0.559255 0.327063
Si Si2 0.355915 0.281396 0.835984
Si Si3 0.085644 0.367165 0.330679
Si Si4 0.233580 0.189750 0.335516
Si Si5 0.676702 0.838994 0.835514
Si Si6 0.445099 0.749210 0.667190
O O1 0.951674 0.588845 0.272181
O O2 0.000000 0.500000 0.265245
O O3 0.000000 0.560365 0.500000
O O4 0.317956 0.316558 0.745306
O O5 0.338924 0.221431 0.832856
O O6 0.409122 0.285831 0.764662
O O7 0.358218 0.302977 0.000000
O O8 0.097859 0.374440 0.500000
O O9 0.135424 0.373919 0.241630
O O10 0.061165 0.310924 0.300955
O O11 0.228492 0.168944 0.500000
O O12 0.250000 0.250000 0.335015
O O13 0.273018 0.154214 0.251500
O O14 0.684059 0.858883 0.000000
O O15 0.432846 0.737327 0.500000
O O16 0.500000 0.732932 0.706001
#
# Coordination Sequence:
#
# PCOD8275122 Si02
#       6
#     8  16  16  16  16  16
#     4   9  16  26  41  57  69  83 107 141 177 211
#     4   9  16  23  31  45  64  83 102 127 158 191
#     4   9  15  25  38  51  64  80 104 133 165 204
#     4   9  15  23  34  47  62  81 102 123 150 188
#     4   9  16  24  34  48  64  81  99 124 157 193
#     4   9  15  23  34  46  61  83 110 138 165 195
#
# _framework density 13.672447999999999
#
# number of rings (size 3 to 8) (size 9 to 14) (size 15 to 20)
#    0.000    3.000    0.909    1.636    0.000    6.909 
#    0.000    0.455    0.000    1.091    0.000    0.000 
#    0.000    0.000    0.000    0.000    0.000    0.000 
#
# Total GULP energy -545482.875409 kJ/mol
# GULP energy per Si atom -12397.338077 kJ/mol
# Density = 1.364133 g / cm^3
# Si number density = 13.672448 Si / 1000 Ang^3
#
#
#
# Elastic Constant Matrix: (Units=GPa)
#
#
# Indices 1 2 3 4 5 6 
#
# 1 131.8607 30.5095 71.3518 0.0000 0.0000 0.0000
# 2 30.5095 20.0454 18.2083 0.0000 0.0000 0.0000
# 3 71.3518 18.2083 104.2000 0.0000 0.0000 0.0000
# 4 0.0000 0.0000 0.0000 5.0975 0.0000 0.0000
# 5 0.0000 0.0000 0.0000 0.0000 19.3239 0.0000
# 6 0.0000 0.0000 0.0000 0.0000 0.0000 9.7414
#
#
#
# Elastic Compliance Matrix: (Units=1/GPa)
#
#
# Indices 1 2 3 4 5 6 
#
# 1 0.015698 -0.016795 -0.007815 0.000000 0.000000 0.000000
# 2 -0.016795 0.077267 -0.002002 0.000000 0.000000 0.000000
# 3 -0.007815 -0.002002 0.015298 0.000000 0.000000 0.000000
# 4 0.000000 0.000000 0.000000 0.196175 0.000000 0.000000
# 5 0.000000 0.000000 0.000000 0.000000 0.051749 0.000000
# 6 0.000000 0.000000 0.000000 0.000000 0.000000 0.102655
#
#
# Mechanical properties :
#
#
# Convention : Reuss Voigt Hill
#
# Bulk Modulus (GPa) = 18.16828 55.13837 36.65333
# Shear Modulus (GPa) = 9.42664 15.90164 12.66414
#
# Velocity S-wave (km/s) = 2.62861 3.41404 3.04674
# Velocity P-wave (km/s) = 4.74657 7.48041 6.26444
#
# Compressibility (1/GPa) = 0.05504098
#
# Stress axis : x y z
#
# Youngs Moduli (GPa) = 63.70087 12.94216 65.36814
#
# Poissons Ratio (x) = 0.21736 0.51084
# Poissons Ratio (y) = 1.06983 0.13084
# Poissons Ratio (z) = 0.49781 0.02591
#
# Static dielectric constant tensor:
#      x y z
#    x 2.882470 0.000000 0.000000 
#    y 0.000000 2.122120 0.000000 
#    z 0.000000 0.000000 2.801730 
# 
# 
# High freq. dielectric constant tensor:
#      x y z
#    x 1.532700 0.000000 0.000000 
#    y 0.000000 1.428190 0.000000 
#    z 0.000000 0.000000 1.527760 
# 
# From -- ./inp_files/16933.got.cif
#   From: 2010.03.12/outbox.cif.g09.slc.cpg/sg65_9_cif.got.tgz:16933.got - 2010.04.10 20:52:16.
