data_PCOD8275446
_publ_section_title
;
Structure prediction by ZEFSAII (Michael W. Deem and Ramdas Pophale) SiO2 
 PCOD8275446
Probable space group: C C C M
;
_chemical_formula_sum "Si O2"
_cell_formula_units_Z 84
_cell_length_a 9.036370
_cell_length_b 25.981410
_cell_length_c 20.710635
_cell_angle_alpha 90.000000
_cell_angle_beta 90.000000
_cell_angle_gamma 90.000000
_cell_volume 4862.393881
_symmetry_space_group_name_H-M "C C C M"
_symmetry_group_IT_number 66
_symmetry_cell_setting 'orthorhombic'
loop_
_space_group_symop_operation_xyz
x,y,z
-x,-y,z
x,-y,1/2-z
-x,y,1/2-z
-x,-y,-z
x,y,-z
-x,y,1/2+z
x,-y,1/2+z
1/2+x,1/2+y,z
1/2-x,1/2-y,z
1/2+x,1/2-y,1/2-z
1/2-x,1/2+y,1/2-z
1/2-x,1/2-y,-z
1/2+x,1/2+y,-z
1/2-x,1/2+y,1/2+z
1/2+x,1/2-y,1/2+z
loop_
_atom_site_type_symbol
_atom_site_label
_atom_site_fract_x
_atom_site_fract_y
_atom_site_fract_z
Si Si1 0.914013 0.650697 0.076735
Si Si2 0.575477 0.354403 0.423501
Si Si3 0.000000 0.000000 0.750000
Si Si4 0.910372 0.952449 0.626625
Si Si5 0.419051 0.949480 0.076541
Si Si6 0.916638 0.249770 0.923308
O O1 0.744741 0.649008 0.099394
O O2 0.997979 0.600652 0.104338
O O3 0.993591 0.701507 0.105077
O O4 0.921478 0.651867 0.000000
O O5 0.560664 0.363607 0.500000
O O6 0.498866 0.400427 0.385683
O O7 0.496936 0.302102 0.401182
O O8 0.100807 0.963489 0.796125
O O9 0.749511 0.948264 0.597240
O O10 0.000000 0.000000 0.593348
O O11 0.500000 0.000000 0.104594
O O12 0.426838 0.949424 0.000000
O O13 0.750000 0.250000 0.895589
O O14 0.913600 0.253383 0.000000
#
# Coordination Sequence:
#
# PCOD8275446 Si02
#       6
#    16  16   4  16  16  16
#     4   9  17  28  42  70 112 139 161 195 240 307
#     4  10  18  28  49  76 100 135 167 202 257 304
#     4   8  24  40  52  68  92 128 182 218 258 284
#     4  10  20  36  52  67  98 127 172 210 256 297
#     4  10  19  30  49  79 109 134 160 202 255 308
#     4   9  16  26  41  68 106 141 168 193 235 303
#
# _framework density 17.275442000000002
#
# number of rings (size 3 to 8) (size 9 to 14) (size 15 to 20)
#    0.571    1.905    0.000    3.429    0.000    8.381 
#    0.000    0.476    0.000    0.000    0.000    8.000 
#    0.000    0.000    0.000    0.000    0.000    0.000 
#
# Total GULP energy -520647.978924 kJ/mol
# GULP energy per Si atom -12396.380451 kJ/mol
# Density = 1.723612 g / cm^3
# Si number density = 17.275442 Si / 1000 Ang^3
#
#
#
# Elastic Constant Matrix: (Units=GPa)
#
#
# Indices 1 2 3 4 5 6 
#
# 1 167.1569 97.6245 6.1209 0.0000 0.0000 0.0000
# 2 97.6245 189.0092 23.8784 0.0000 0.0000 0.0000
# 3 6.1209 23.8784 15.7035 0.0000 0.0000 0.0000
# 4 0.0000 0.0000 0.0000 13.3456 0.0000 0.0000
# 5 0.0000 0.0000 0.0000 0.0000 2.2814 0.0000
# 6 0.0000 0.0000 0.0000 0.0000 0.0000 40.7277
#
#
#
# Elastic Compliance Matrix: (Units=1/GPa)
#
#
# Indices 1 2 3 4 5 6 
#
# 1 0.008796 -0.005087 0.004307 0.000000 0.000000 0.000000
# 2 -0.005087 0.009491 -0.012449 0.000000 0.000000 0.000000
# 3 0.004307 -0.012449 0.080931 0.000000 0.000000 0.000000
# 4 0.000000 0.000000 0.000000 0.074931 0.000000 0.000000
# 5 0.000000 0.000000 0.000000 0.000000 0.438335 0.000000
# 6 0.000000 0.000000 0.000000 0.000000 0.000000 0.024553
#
#
# Mechanical properties :
#
#
# Convention : Reuss Voigt Hill
#
# Bulk Modulus (GPa) = 13.74389 69.67967 41.71178
# Shear Modulus (GPa) = 7.27009 27.55398 17.41204
#
# Velocity S-wave (km/s) = 2.05365 3.99805 3.17820
# Velocity P-wave (km/s) = 3.68732 7.85714 6.13722
#
# Compressibility (1/GPa) = 0.07275960
#
# Stress axis : x y z
#
# Youngs Moduli (GPa) = 113.69112 105.36224 12.35620
#
# Poissons Ratio (x) = 0.53600 -0.05322
# Poissons Ratio (y) = 0.57837 0.15382
# Poissons Ratio (z) = -0.48968 1.31166
#
# Static dielectric constant tensor:
#      x y z
#    x 3.408480 0.000000 0.000000 
#    y 0.000000 3.578780 0.000000 
#    z 0.000000 0.000000 2.586610 
# 
# 
# High freq. dielectric constant tensor:
#      x y z
#    x 1.683180 0.000000 0.000000 
#    y 0.000000 1.689180 0.000000 
#    z 0.000000 0.000000 1.588680 
# 
# From -- ./inp_files/62753.got.cif
#   From: 2010.03.12/outbox.cif.g09.slc.cpg/sg66_32_cif.got.tgz:62753.got - 2010.04.10 21:57:39.
