data_PCOD8275998
_publ_section_title
;
Structure prediction by ZEFSAII (Michael W. Deem and Ramdas Pophale) SiO2 
 PCOD8275998
Probable space group: C C C M
;
_chemical_formula_sum "Si O2"
_cell_formula_units_Z 112
_cell_length_a 14.090768
_cell_length_b 13.929583
_cell_length_c 25.582780
_cell_angle_alpha 90.000000
_cell_angle_beta 90.000000
_cell_angle_gamma 90.000000
_cell_volume 5021.350257
_symmetry_space_group_name_H-M "C C C M"
_symmetry_group_IT_number 66
_symmetry_cell_setting 'orthorhombic'
loop_
_space_group_symop_operation_xyz
x,y,z
-x,-y,z
x,-y,1/2-z
-x,y,1/2-z
-x,-y,-z
x,y,-z
-x,y,1/2+z
x,-y,1/2+z
1/2+x,1/2+y,z
1/2-x,1/2-y,z
1/2+x,1/2-y,1/2-z
1/2-x,1/2+y,1/2-z
1/2-x,1/2-y,-z
1/2+x,1/2+y,-z
1/2-x,1/2+y,1/2+z
1/2+x,1/2-y,1/2+z
loop_
_atom_site_type_symbol
_atom_site_label
_atom_site_fract_x
_atom_site_fract_y
_atom_site_fract_z
Si Si1 0.196914 0.657686 0.939753
Si Si2 0.471291 0.350188 0.086103
Si Si3 0.985842 0.643869 0.941453
Si Si4 0.562132 0.709489 0.199391
Si Si5 0.293559 0.450907 0.804284
Si Si6 0.919680 0.423977 0.335616
Si Si7 0.146059 0.975450 0.908652
O O1 0.250000 0.750000 0.913329
O O2 0.092067 0.642304 0.916504
O O3 0.253698 0.558963 0.931359
O O4 0.181284 0.681330 0.000000
O O5 0.452975 0.253938 0.053798
O O6 0.487223 0.329942 0.147369
O O7 0.381661 0.417831 0.071563
O O8 0.568887 0.400782 0.069501
O O9 0.922771 0.587153 0.899151
O O10 0.977464 0.597804 0.000000
O O11 0.500000 0.681234 0.250000
O O12 0.666408 0.658406 0.200728
O O13 0.567857 0.824240 0.195098
O O14 0.311062 0.500000 0.750000
O O15 0.184376 0.459522 0.821101
O O16 0.351902 0.515208 0.845833
O O17 0.000000 0.500000 0.316775
#
# Coordination Sequence:
#
# PCOD8275998 Si02
#       7
#    16  16  16  16  16  16  16
#     4  10  19  33  55  86 121 155 204 266 323 389
#     4   9  19  34  58  90 122 159 208 261 322 394
#     4  10  21  40  63  87 122 169 215 267 331 391
#     4  10  22  41  66  92 127 169 214 269 331 393
#     4  11  24  41  64  94 129 170 218 271 324 399
#     4  11  25  43  63  93 131 173 221 274 325 395
#     4  10  19  35  57  87 126 163 201 260 327 388
#
# _framework density 22.304758
#
# number of rings (size 3 to 8) (size 9 to 14) (size 15 to 20)
#    0.000    1.857    1.429    2.143    2.000    2.286 
#    0.000    2.143    0.000   11.143    0.000    0.000 
#    0.000    0.000    0.000    0.000    0.000    0.000 
#
# Total GULP energy -694068.654401 kJ/mol
# GULP energy per Si atom -12394.083114 kJ/mol
# Density = 2.225399 g / cm^3
# Si number density = 22.304758 Si / 1000 Ang^3
#
#
#
# Elastic Constant Matrix: (Units=GPa)
#
#
# Indices 1 2 3 4 5 6 
#
# 1 81.9509 37.8818 12.2594 0.0000 0.0000 0.0000
# 2 37.8818 113.3922 1.0151 0.0000 0.0000 0.0000
# 3 12.2594 1.0151 59.6238 0.0000 0.0000 0.0000
# 4 0.0000 0.0000 0.0000 5.0941 0.0000 0.0000
# 5 0.0000 0.0000 0.0000 0.0000 -39.5429 0.0000
# 6 0.0000 0.0000 0.0000 0.0000 0.0000 40.8907
#
#
#
# Elastic Compliance Matrix: (Units=1/GPa)
#
#
# Indices 1 2 3 4 5 6 
#
# 1 0.014945 -0.004966 -0.002988 0.000000 0.000000 0.000000
# 2 -0.004966 0.010470 0.000843 0.000000 0.000000 0.000000
# 3 -0.002988 0.000843 0.017372 0.000000 0.000000 0.000000
# 4 0.000000 0.000000 0.000000 0.196305 0.000000 0.000000
# 5 0.000000 0.000000 0.000000 0.000000 -0.025289 0.000000
# 6 0.000000 0.000000 0.000000 0.000000 0.000000 0.024455
#
#
# Mechanical properties :
#
#
# Convention : Reuss Voigt Hill
#
# Bulk Modulus (GPa) = 35.00877 39.69771 37.35324
# Shear Modulus (GPa) = 19.08372 14.87576 16.97974
#
# Velocity S-wave (km/s) = 2.92822 2.58530 2.76209
# Velocity P-wave (km/s) = 5.21175 5.17187 5.19185
#
# Compressibility (1/GPa) = 0.02856427
#
# Stress axis : x y z
#
# Youngs Moduli (GPa) = 66.91191 95.50692 57.56417
#
# Poissons Ratio (x) = 0.47429 0.17202
# Poissons Ratio (y) = 0.33229 -0.04852
# Poissons Ratio (z) = 0.19996 -0.08050
#
# Static dielectric constant tensor:
#      x y z
#    x 3.980160 0.000000 0.000000 
#    y 0.000000 4.125610 0.000000 
#    z 0.000000 0.000000 3.846080 
# 
# 
# High freq. dielectric constant tensor:
#      x y z
#    x 1.870100 0.000000 0.000000 
#    y 0.000000 1.885730 0.000000 
#    z 0.000000 0.000000 1.866100 
# 
# From -- ./inp_files/64652.got.cif
#   From: 2010.03.12/outbox.cif.g09.slc.cpg/sg66_33_cif.got.tgz:64652.got - 2010.04.10 21:57:39.
