data_PCOD8275753
_publ_section_title
;
Structure prediction by ZEFSAII (Michael W. Deem and Ramdas Pophale) SiO2 
 PCOD8275753
Probable space group: C C C M
;
_chemical_formula_sum "Si O2"
_cell_formula_units_Z 64
_cell_length_a 13.579642
_cell_length_b 34.612521
_cell_length_c 8.592390
_cell_angle_alpha 90.000000
_cell_angle_beta 90.000000
_cell_angle_gamma 90.000000
_cell_volume 4038.643642
_symmetry_space_group_name_H-M "C C C M"
_symmetry_group_IT_number 66
_symmetry_cell_setting 'orthorhombic'
loop_
_space_group_symop_operation_xyz
x,y,z
-x,-y,z
x,-y,1/2-z
-x,y,1/2-z
-x,-y,-z
x,y,-z
-x,y,1/2+z
x,-y,1/2+z
1/2+x,1/2+y,z
1/2-x,1/2-y,z
1/2+x,1/2-y,1/2-z
1/2-x,1/2+y,1/2-z
1/2-x,1/2-y,-z
1/2+x,1/2+y,-z
1/2-x,1/2+y,1/2+z
1/2+x,1/2-y,1/2+z
loop_
_atom_site_type_symbol
_atom_site_label
_atom_site_fract_x
_atom_site_fract_y
_atom_site_fract_z
Si Si1 0.786355 0.306039 0.183426
Si Si2 0.609216 0.877483 0.182735
Si Si3 0.392322 0.962713 0.320285
Si Si4 0.604101 0.735284 0.184303
O O1 0.817479 0.349064 0.228439
O O2 0.684322 0.296690 0.269530
O O3 0.870416 0.276434 0.238772
O O4 0.771080 0.302156 0.000000
O O5 0.500000 0.873094 0.250000
O O6 0.654313 0.920505 0.213486
O O7 0.605600 0.867858 0.000000
O O8 0.500000 0.961913 0.250000
O O9 0.401341 0.970367 0.500000
O O10 0.333134 0.000000 0.250000
O O11 0.500000 0.720991 0.250000
O O12 0.600766 0.740152 0.000000
#
# Coordination Sequence:
#
# PCOD8275753 Si02
#       4
#    16  16  16  16
#     4  11  21  33  48  68  90 116 150 186 221 262
#     4  10  19  30  43  63  89 120 152 186 223 262
#     4   9  16  25  39  57  82 113 147 180 216 259
#     4  11  21  35  51  67  89 117 147 183 223 265
#
# _framework density 15.846905
#
# number of rings (size 3 to 8) (size 9 to 14) (size 15 to 20)
#    0.000    1.750    0.000    9.000    0.000    3.000 
#    0.000    0.000    0.000    0.000    0.000    0.000 
#    0.000    1.000    0.000   10.500    0.000    5.750 
#
# Total GULP energy -396664.933760 kJ/mol
# GULP energy per Si atom -12395.779180 kJ/mol
# Density = 1.581084 g / cm^3
# Si number density = 15.846905 Si / 1000 Ang^3
#
#
#
# Elastic Constant Matrix: (Units=GPa)
#
#
# Indices 1 2 3 4 5 6 
#
# 1 61.7398 30.1181 14.3002 0.0000 0.0000 0.0000
# 2 30.1181 119.6163 36.4983 0.0000 0.0000 0.0000
# 3 14.3002 36.4983 94.3533 0.0000 0.0000 0.0000
# 4 0.0000 0.0000 0.0000 29.0908 0.0000 0.0000
# 5 0.0000 0.0000 0.0000 0.0000 22.7538 0.0000
# 6 0.0000 0.0000 0.0000 0.0000 0.0000 14.7641
#
#
#
# Elastic Compliance Matrix: (Units=1/GPa)
#
#
# Indices 1 2 3 4 5 6 
#
# 1 0.018573 -0.004328 -0.001141 0.000000 0.000000 0.000000
# 2 -0.004328 0.010488 -0.003401 0.000000 0.000000 0.000000
# 3 -0.001141 -0.003401 0.012087 0.000000 0.000000 0.000000
# 4 0.000000 0.000000 0.000000 0.034375 0.000000 0.000000
# 5 0.000000 0.000000 0.000000 0.000000 0.043949 0.000000
# 6 0.000000 0.000000 0.000000 0.000000 0.000000 0.067732
#
#
# Mechanical properties :
#
#
# Convention : Reuss Voigt Hill
#
# Bulk Modulus (GPa) = 42.72128 48.61586 45.66857
# Shear Modulus (GPa) = 23.50232 26.30792 24.90512
#
# Velocity S-wave (km/s) = 3.85526 4.07889 3.96865
# Velocity P-wave (km/s) = 6.84359 7.27518 7.06268
#
# Compressibility (1/GPa) = 0.02340754
#
# Stress axis : x y z
#
# Youngs Moduli (GPa) = 53.84255 95.35057 82.73438
#
# Poissons Ratio (x) = 0.41271 0.09436
# Poissons Ratio (y) = 0.23305 0.28137
# Poissons Ratio (z) = 0.06141 0.32428
#
# Static dielectric constant tensor:
#      x y z
#    x 2.767020 0.000000 0.000000 
#    y 0.000000 3.827520 0.000000 
#    z 0.000000 0.000000 3.239880 
# 
# 
# High freq. dielectric constant tensor:
#      x y z
#    x 1.555910 0.000000 0.000000 
#    y 0.000000 1.616890 0.000000 
#    z 0.000000 0.000000 1.636320 
# 
# From -- ./inp_files/5472.got.cif
#   From: 2010.03.12/outbox.cif.g09.slc.cpg/sg66_3_cif.got.tgz:5472.got - 2010.04.10 21:57:39.
