data_PCOD8275918
_publ_section_title
;
Structure prediction by ZEFSAII (Michael W. Deem and Ramdas Pophale) SiO2 
 PCOD8275918
Probable space group: C C C M
;
_chemical_formula_sum "Si O2"
_cell_formula_units_Z 112
_cell_length_a 37.818861
_cell_length_b 5.098954
_cell_length_c 28.097501
_cell_angle_alpha 90.000000
_cell_angle_beta 90.000000
_cell_angle_gamma 90.000000
_cell_volume 5418.227477
_symmetry_space_group_name_H-M "C C C M"
_symmetry_group_IT_number 66
_symmetry_cell_setting 'orthorhombic'
loop_
_space_group_symop_operation_xyz
x,y,z
-x,-y,z
x,-y,1/2-z
-x,y,1/2-z
-x,-y,-z
x,y,-z
-x,y,1/2+z
x,-y,1/2+z
1/2+x,1/2+y,z
1/2-x,1/2-y,z
1/2+x,1/2-y,1/2-z
1/2-x,1/2+y,1/2-z
1/2-x,1/2-y,-z
1/2+x,1/2+y,-z
1/2-x,1/2+y,1/2+z
1/2+x,1/2-y,1/2+z
loop_
_atom_site_type_symbol
_atom_site_label
_atom_site_fract_x
_atom_site_fract_y
_atom_site_fract_z
Si Si1 0.958317 0.976547 0.695155
Si Si2 0.075116 0.478194 0.851224
Si Si3 0.194586 0.028711 0.696541
Si Si4 0.648514 0.028589 0.303537
Si Si5 0.771053 0.999030 0.103132
Si Si6 0.345337 0.525579 0.053882
Si Si7 0.107931 0.471137 0.945702
O O1 0.948788 0.694331 0.674087
O O2 0.945929 0.000000 0.750000
O O3 0.938912 0.195679 0.664303
O O4 0.000000 0.000000 0.690865
O O5 0.115953 0.517996 0.838186
O O6 0.074904 0.503527 0.909041
O O7 0.178771 0.315788 0.686495
O O8 0.209630 0.000000 0.750000
O O9 0.163875 0.816806 0.687480
O O10 0.227403 0.991021 0.660728
O O11 0.634078 0.000000 0.250000
O O12 0.750000 0.750000 0.083157
O O13 0.750000 0.250000 0.083981
O O14 0.811337 0.998512 0.086672
O O15 0.373839 0.304624 0.066624
O O16 0.362932 0.805907 0.062268
O O17 0.332235 0.491574 0.000000
O O18 0.093279 0.478366 0.000000
#
# Coordination Sequence:
#
# PCOD8275918 Si02
#       7
#    16  16  16  16  16  16  16
#     4  11  24  40  58  86 125 164 198 230 271 330
#     4  12  21  36  63  88 118 154 194 239 284 335
#     4  10  21  36  51  72 105 138 174 228 286 336
#     4  10  19  32  54  81 105 133 176 231 288 338
#     4  12  24  36  53  75 102 141 188 227 269 339
#     4  10  21  39  59  82 114 144 178 235 300 347
#     4  10  21  38  63  91 116 146 187 239 296 350
#
# _framework density 20.670966
#
# number of rings (size 3 to 8) (size 9 to 14) (size 15 to 20)
#    0.000    1.286    0.000    6.857    0.000    3.429 
#    0.000    0.000    0.000    2.571    0.000    0.000 
#    0.000    0.000    0.000    0.000    0.000    0.000 
#
# Total GULP energy -694657.748824 kJ/mol
# GULP energy per Si atom -12404.602658 kJ/mol
# Density = 2.062392 g / cm^3
# Si number density = 20.670966 Si / 1000 Ang^3
#
#
#
# Elastic Constant Matrix: (Units=GPa)
#
#
# Indices 1 2 3 4 5 6 
#
# 1 44.3027 8.4698 33.8756 0.0000 0.0000 0.0000
# 2 8.4698 90.9984 22.8055 0.0000 0.0000 0.0000
# 3 33.8756 22.8055 109.7582 0.0000 0.0000 0.0000
# 4 0.0000 0.0000 0.0000 22.9467 0.0000 0.0000
# 5 0.0000 0.0000 0.0000 0.0000 21.2144 0.0000
# 6 0.0000 0.0000 0.0000 0.0000 0.0000 12.1555
#
#
#
# Elastic Compliance Matrix: (Units=1/GPa)
#
#
# Indices 1 2 3 4 5 6 
#
# 1 0.029565 -0.000491 -0.009023 0.000000 0.000000 0.000000
# 2 -0.000491 0.011601 -0.002259 0.000000 0.000000 0.000000
# 3 -0.009023 -0.002259 0.012365 0.000000 0.000000 0.000000
# 4 0.000000 0.000000 0.000000 0.043579 0.000000 0.000000
# 5 0.000000 0.000000 0.000000 0.000000 0.047138 0.000000
# 6 0.000000 0.000000 0.000000 0.000000 0.000000 0.082268
#
#
# Mechanical properties :
#
#
# Convention : Reuss Voigt Hill
#
# Bulk Modulus (GPa) = 33.34877 41.70679 37.52778
# Shear Modulus (GPa) = 19.22660 23.25721 21.24190
#
# Velocity S-wave (km/s) = 3.05310 3.35791 3.20913
# Velocity P-wave (km/s) = 5.34759 5.93754 5.65027
#
# Compressibility (1/GPa) = 0.02998611
#
# Stress axis : x y z
#
# Youngs Moduli (GPa) = 33.82368 86.19939 80.87237
#
# Poissons Ratio (x) = 0.04228 0.72971
# Poissons Ratio (y) = 0.01659 0.18270
# Poissons Ratio (z) = 0.30519 0.19473
#
# Static dielectric constant tensor:
#      x y z
#    x 3.352440 0.000000 0.000000 
#    y 0.000000 3.994020 0.000000 
#    z 0.000000 0.000000 4.123010 
# 
# 
# High freq. dielectric constant tensor:
#      x y z
#    x 1.778430 0.000000 0.000000 
#    y 0.000000 1.830780 0.000000 
#    z 0.000000 0.000000 1.818500 
# 
# From -- ./inp_files/70707.got.cif
#   From: 2010.03.12/outbox.cif.g09.slc.cpg/sg66_36_cif.got.tgz:70707.got - 2010.04.10 21:57:39.
