data_PCOD8275022
_publ_section_title
;
Structure prediction by ZEFSAII (Michael W. Deem and Ramdas Pophale) SiO2 
 PCOD8275022
Probable space group: C M M M
;
_chemical_formula_sum "Si O2"
_cell_formula_units_Z 72
_cell_length_a 9.788431
_cell_length_b 25.613098
_cell_length_c 19.544096
_cell_angle_alpha 90.000000
_cell_angle_beta 90.000000
_cell_angle_gamma 90.000000
_cell_volume 4899.940226
_symmetry_space_group_name_H-M "C M M M"
_symmetry_group_IT_number 65
_symmetry_cell_setting 'orthorhombic'
loop_
_space_group_symop_operation_xyz
x,y,z
-x,-y,z
x,-y,-z
-x,y,-z
-x,-y,-z
x,y,-z
-x,y,z
x,-y,z
1/2+x,1/2+y,z
1/2-x,1/2-y,z
1/2+x,1/2-y,-z
1/2-x,1/2+y,-z
1/2-x,1/2-y,-z
1/2+x,1/2+y,-z
1/2-x,1/2+y,z
1/2+x,1/2-y,z
loop_
_atom_site_type_symbol
_atom_site_label
_atom_site_fract_x
_atom_site_fract_y
_atom_site_fract_z
Si Si1 0.157898 0.438775 0.696601
Si Si2 0.846742 0.937986 0.424316
Si Si3 0.841766 0.700753 0.079153
Si Si4 0.336654 0.000000 0.922959
Si Si5 0.161726 0.599009 0.157686
O O1 0.184673 0.500000 0.710072
O O2 0.243425 0.416174 0.632692
O O3 0.206477 0.406714 0.763308
O O4 0.000000 0.428680 0.679918
O O5 0.803957 0.917579 0.500000
O O6 0.000000 0.918996 0.406888
O O7 0.840725 0.000000 0.424213
O O8 0.750000 0.750000 0.098890
O O9 0.786828 0.653413 0.125996
O O10 0.000000 0.713934 0.094388
O O11 0.822425 0.684883 0.000000
O O12 0.276450 0.051097 0.885621
O O13 0.500000 0.000000 0.920654
O O14 0.281809 0.000000 0.000000
O O15 0.000000 0.596035 0.151898
#
# Coordination Sequence:
#
# PCOD8275022 Si02
#       5
#    16  16  16   8  16
#     4   9  15  23  36  55  80 105 128 159 198 236
#     4   8  14  24  36  50  72 104 138 165 186 218
#     4   9  17  29  44  60  78 103 136 172 207 240
#     4   9  14  20  34  56  80 105 132 162 197 239
#     4   9  15  24  37  57  83 106 130 164 204 241
#
# _framework density 14.694056
#
# number of rings (size 3 to 8) (size 9 to 14) (size 15 to 20)
#    0.000    3.222    1.111    1.333    0.000    3.111 
#    0.000    3.333    0.000    0.000    0.000    0.000 
#    0.000    6.222    0.000    2.000    0.000    3.556 
#
# Total GULP energy -446213.201722 kJ/mol
# GULP energy per Si atom -12394.811159 kJ/mol
# Density = 1.466061 g / cm^3
# Si number density = 14.694056 Si / 1000 Ang^3
#
#
#
# Elastic Constant Matrix: (Units=GPa)
#
#
# Indices 1 2 3 4 5 6 
#
# 1 48.1453 34.1075 54.2776 0.0000 0.0000 0.0000
# 2 34.1075 79.5738 60.2273 0.0000 0.0000 0.0000
# 3 54.2776 60.2273 138.6521 0.0000 0.0000 0.0000
# 4 0.0000 0.0000 0.0000 15.1183 0.0000 0.0000
# 5 0.0000 0.0000 0.0000 0.0000 15.3708 0.0000
# 6 0.0000 0.0000 0.0000 0.0000 0.0000 13.8041
#
#
#
# Elastic Compliance Matrix: (Units=1/GPa)
#
#
# Indices 1 2 3 4 5 6 
#
# 1 0.040288 -0.007943 -0.012321 0.000000 0.000000 0.000000
# 2 -0.007943 0.020288 -0.005703 0.000000 0.000000 0.000000
# 3 -0.012321 -0.005703 0.014513 0.000000 0.000000 0.000000
# 4 0.000000 0.000000 0.000000 0.066145 0.000000 0.000000
# 5 0.000000 0.000000 0.000000 0.000000 0.065058 0.000000
# 6 0.000000 0.000000 0.000000 0.000000 0.000000 0.072442
#
#
# Mechanical properties :
#
#
# Convention : Reuss Voigt Hill
#
# Bulk Modulus (GPa) = 43.18847 62.62176 52.90511
# Shear Modulus (GPa) = 14.77595 16.70923 15.74259
#
# Velocity S-wave (km/s) = 3.17452 3.37581 3.27671
# Velocity P-wave (km/s) = 6.54923 7.60949 7.09918
#
# Compressibility (1/GPa) = 0.02315433
#
# Stress axis : x y z
#
# Youngs Moduli (GPa) = 24.82130 49.28964 68.90377
#
# Poissons Ratio (x) = 0.39151 0.84897
# Poissons Ratio (y) = 0.19716 0.39298
# Poissons Ratio (z) = 0.30583 0.28112
#
# Static dielectric constant tensor:
#      x y z
#    x 2.646720 0.000000 0.000000 
#    y 0.000000 2.635260 0.000000 
#    z 0.000000 0.000000 3.112840 
# 
# 
# High freq. dielectric constant tensor:
#      x y z
#    x 1.531580 0.000000 0.000000 
#    y 0.000000 1.520470 0.000000 
#    z 0.000000 0.000000 1.570350 
# 
# From -- ./inp_files/51282.got.cif
#   From: 2010.03.12/outbox.cif.g09.slc.cpg/sg65_26_cif.got.tgz:51282.got - 2010.04.10 20:52:16.
