data_PCOD8275347
_publ_section_title
;
Structure prediction by ZEFSAII (Michael W. Deem and Ramdas Pophale) SiO2 
 PCOD8275347
Probable space group: C C C M
;
_chemical_formula_sum "Si O2"
_cell_formula_units_Z 128
_cell_length_a 19.557054
_cell_length_b 21.152139
_cell_length_c 18.871576
_cell_angle_alpha 90.000000
_cell_angle_beta 90.000000
_cell_angle_gamma 90.000000
_cell_volume 7806.671359
_symmetry_space_group_name_H-M "C C C M"
_symmetry_group_IT_number 66
_symmetry_cell_setting 'orthorhombic'
loop_
_space_group_symop_operation_xyz
x,y,z
-x,-y,z
x,-y,1/2-z
-x,y,1/2-z
-x,-y,-z
x,y,-z
-x,y,1/2+z
x,-y,1/2+z
1/2+x,1/2+y,z
1/2-x,1/2-y,z
1/2+x,1/2-y,1/2-z
1/2-x,1/2+y,1/2-z
1/2-x,1/2-y,-z
1/2+x,1/2+y,-z
1/2-x,1/2+y,1/2+z
1/2+x,1/2-y,1/2+z
loop_
_atom_site_type_symbol
_atom_site_label
_atom_site_fract_x
_atom_site_fract_y
_atom_site_fract_z
Si Si1 0.904560 0.739559 0.156842
Si Si2 0.952550 0.240597 0.082462
Si Si3 0.142872 0.285065 0.697244
Si Si4 0.626241 0.385163 0.918078
Si Si5 0.579125 0.504760 0.166484
Si Si6 0.716615 0.818504 0.920762
Si Si7 0.778773 0.842343 0.693991
Si Si8 0.834740 0.125715 0.664200
O O1 0.911557 0.714133 0.237827
O O2 0.855601 0.688575 0.118788
O O3 0.877511 0.810694 0.154645
O O4 0.976049 0.741168 0.116865
O O5 0.895535 0.282457 0.122231
O O6 0.934428 0.166325 0.093007
O O7 0.952075 0.258959 0.000000
O O8 0.191661 0.226060 0.712412
O O9 0.195803 0.344087 0.696474
O O10 0.612140 0.447941 0.875479
O O11 0.697223 0.360160 0.885090
O O12 0.638085 0.400101 0.000000
O O13 0.500000 0.500000 0.145953
O O14 0.589509 0.500000 0.250000
O O15 0.615577 0.568962 0.139367
O O16 0.750000 0.750000 0.920714
O O17 0.766102 0.869466 0.883184
O O18 0.703406 0.843068 0.000000
O O19 0.810416 0.887536 0.754904
#
# Coordination Sequence:
#
# PCOD8275347 Si02
#       8
#    16  16  16  16  16  16  16  16
#     4  10  17  29  48  70  96 127 160 199 243 299
#     4  10  20  31  44  68 102 132 159 195 241 293
#     4   9  17  28  48  69  91 120 162 198 240 293
#     4  10  21  35  48  66  95 132 169 206 243 285
#     4  11  22  34  49  69  93 128 171 212 247 281
#     4   9  17  28  45  69  93 120 154 195 246 297
#     4   9  16  31  48  68  88 119 161 207 243 286
#     4  10  18  31  49  66  91 124 166 208 246 285
#
# _framework density 16.396232999999999
#
# number of rings (size 3 to 8) (size 9 to 14) (size 15 to 20)
#    0.000    2.250    2.500    1.500    0.000    1.750 
#    0.000    2.500    0.000    0.000    0.000    0.000 
#    0.000    1.000    1.500    3.500    1.250    0.250 
#
# Total GULP energy -793095.214213 kJ/mol
# GULP energy per Si atom -12392.112722 kJ/mol
# Density = 1.635891 g / cm^3
# Si number density = 16.396233 Si / 1000 Ang^3
#
#
#
# Elastic Constant Matrix: (Units=GPa)
#
#
# Indices 1 2 3 4 5 6 
#
# 1 107.4896 42.6883 54.6560 0.0000 0.0000 0.0000
# 2 42.6883 42.9538 21.3506 0.0000 0.0000 0.0000
# 3 54.6560 21.3506 115.7890 0.0000 0.0000 0.0000
# 4 0.0000 0.0000 0.0000 18.4943 0.0000 0.0000
# 5 0.0000 0.0000 0.0000 0.0000 159.4022 0.0000
# 6 0.0000 0.0000 0.0000 0.0000 0.0000 22.6553
#
#
#
# Elastic Compliance Matrix: (Units=1/GPa)
#
#
# Indices 1 2 3 4 5 6 
#
# 1 0.018371 -0.015354 -0.005840 0.000000 0.000000 0.000000
# 2 -0.015354 0.038463 0.000155 0.000000 0.000000 0.000000
# 3 -0.005840 0.000155 0.011365 0.000000 0.000000 0.000000
# 4 0.000000 0.000000 0.000000 0.054071 0.000000 0.000000
# 5 0.000000 0.000000 0.000000 0.000000 0.006273 0.000000
# 6 0.000000 0.000000 0.000000 0.000000 0.000000 0.044140
#
#
# Mechanical properties :
#
#
# Convention : Reuss Voigt Hill
#
# Bulk Modulus (GPa) = 38.28507 55.95803 47.12155
# Shear Modulus (GPa) = 22.37475 49.94619 36.16047
#
# Velocity S-wave (km/s) = 3.69809 5.52523 4.70128
# Velocity P-wave (km/s) = 6.45253 8.65487 7.63354
#
# Compressibility (1/GPa) = 0.02611984
#
# Stress axis : x y z
#
# Youngs Moduli (GPa) = 54.43494 25.99925 87.99286
#
# Poissons Ratio (x) = 0.39919 0.51391
# Poissons Ratio (y) = 0.83579 -0.01367
# Poissons Ratio (z) = 0.31792 -0.00404
#
# Static dielectric constant tensor:
#      x y z
#    x 3.166890 0.000000 0.000000 
#    y 0.000000 2.741680 0.000000 
#    z 0.000000 0.000000 3.275430 
# 
# 
# High freq. dielectric constant tensor:
#      x y z
#    x 1.627430 0.000000 0.000000 
#    y 0.000000 1.577190 0.000000 
#    z 0.000000 0.000000 1.645030 
# 
# From -- ./inp_files/43195.got.cif
#   From: 2010.03.12/outbox.cif.g09.slc.cpg/sg66_22_cif.got.tgz:43195.got - 2010.04.10 21:57:39.
