data_PCOD8275539
_publ_section_title
;
Structure prediction by ZEFSAII (Michael W. Deem and Ramdas Pophale) SiO2 
 PCOD8275539
Probable space group: C C C M
;
_chemical_formula_sum "Si O2"
_cell_formula_units_Z 96
_cell_length_a 23.639287
_cell_length_b 25.091604
_cell_length_c 8.964339
_cell_angle_alpha 90.000000
_cell_angle_beta 90.000000
_cell_angle_gamma 90.000000
_cell_volume 5317.176417
_symmetry_space_group_name_H-M "C C C M"
_symmetry_group_IT_number 66
_symmetry_cell_setting 'orthorhombic'
loop_
_space_group_symop_operation_xyz
x,y,z
-x,-y,z
x,-y,1/2-z
-x,y,1/2-z
-x,-y,-z
x,y,-z
-x,y,1/2+z
x,-y,1/2+z
1/2+x,1/2+y,z
1/2-x,1/2-y,z
1/2+x,1/2-y,1/2-z
1/2-x,1/2+y,1/2-z
1/2-x,1/2-y,-z
1/2+x,1/2+y,-z
1/2-x,1/2+y,1/2+z
1/2+x,1/2-y,1/2+z
loop_
_atom_site_type_symbol
_atom_site_label
_atom_site_fract_x
_atom_site_fract_y
_atom_site_fract_z
Si Si1 0.362542 0.847451 0.674932
Si Si2 0.818350 0.444128 0.176393
Si Si3 0.759076 0.189949 0.660327
Si Si4 0.689290 0.445762 0.825914
Si Si5 0.865011 0.837931 0.327259
Si Si6 0.439382 0.748467 0.677337
O O1 0.371551 0.857144 0.500000
O O2 0.366942 0.903177 0.764125
O O3 0.299502 0.832079 0.719610
O O4 0.404177 0.800488 0.730765
O O5 0.834121 0.500000 0.250000
O O6 0.753194 0.428851 0.224918
O O7 0.823684 0.448446 0.000000
O O8 0.777741 0.162907 0.500000
O O9 0.750000 0.250000 0.618936
O O10 0.804064 0.186558 0.792378
O O11 0.668918 0.500000 0.750000
O O12 0.642544 0.400542 0.785020
O O13 0.690260 0.456369 0.000000
O O14 0.880009 0.829957 0.500000
O O15 0.912085 0.807403 0.230711
O O16 0.500000 0.754495 0.750000
O O17 0.443653 0.746251 0.500000
#
# Coordination Sequence:
#
# PCOD8275539 Si02
#       6
#    16  16  16  16  16  16
#     4  10  20  34  54  78 110 145 180 221 270 326
#     4  10  19  32  50  78 114 149 184 218 263 320
#     4  10  18  31  49  76 110 145 178 214 268 329
#     4   9  19  32  48  76 112 147 181 216 259 316
#     4  11  21  34  53  81 113 144 180 224 270 324
#     4  11  24  42  59  80 106 142 186 229 279 328
#
# _framework density 18.054696
#
# number of rings (size 3 to 8) (size 9 to 14) (size 15 to 20)
#    0.000    1.833    3.333    1.500    0.000    3.667 
#    0.000    0.000    0.000    1.000    0.000    7.000 
#    0.000    0.000    0.000    0.000    0.000    0.000 
#
# Total GULP energy -594730.114401 kJ/mol
# GULP energy per Si atom -12390.210717 kJ/mol
# Density = 1.801360 g / cm^3
# Si number density = 18.054696 Si / 1000 Ang^3
#
#
#
# Elastic Constant Matrix: (Units=GPa)
#
#
# Indices 1 2 3 4 5 6 
#
# 1 62.2088 46.4038 34.6502 0.0000 0.0000 0.0000
# 2 46.4038 130.8097 54.4424 0.0000 0.0000 0.0000
# 3 34.6502 54.4424 66.1603 0.0000 0.0000 0.0000
# 4 0.0000 0.0000 0.0000 31.3205 0.0000 0.0000
# 5 0.0000 0.0000 0.0000 0.0000 25.6404 0.0000
# 6 0.0000 0.0000 0.0000 0.0000 0.0000 10.9386
#
#
#
# Elastic Compliance Matrix: (Units=1/GPa)
#
#
# Indices 1 2 3 4 5 6 
#
# 1 0.024789 -0.005156 -0.008740 0.000000 0.000000 0.000000
# 2 -0.005156 0.012699 -0.007749 0.000000 0.000000 0.000000
# 3 -0.008740 -0.007749 0.026069 0.000000 0.000000 0.000000
# 4 0.000000 0.000000 0.000000 0.031928 0.000000 0.000000
# 5 0.000000 0.000000 0.000000 0.000000 0.039001 0.000000
# 6 0.000000 0.000000 0.000000 0.000000 0.000000 0.091420
#
#
# Mechanical properties :
#
#
# Convention : Reuss Voigt Hill
#
# Bulk Modulus (GPa) = 49.34310 58.90796 54.12553
# Shear Modulus (GPa) = 18.11907 21.82538 19.97223
#
# Velocity S-wave (km/s) = 3.17135 3.48062 3.32958
# Velocity P-wave (km/s) = 6.38741 6.98937 6.69516
#
# Compressibility (1/GPa) = 0.02026626
#
# Stress axis : x y z
#
# Youngs Moduli (GPa) = 40.34002 78.74548 38.35976
#
# Poissons Ratio (x) = 0.40604 0.33526
# Poissons Ratio (y) = 0.20801 0.29727
# Poissons Ratio (z) = 0.35256 0.61023
#
# Static dielectric constant tensor:
#      x y z
#    x 3.057200 0.000000 0.000000 
#    y 0.000000 3.591540 0.000000 
#    z 0.000000 0.000000 3.374140 
# 
# 
# High freq. dielectric constant tensor:
#      x y z
#    x 1.653020 0.000000 0.000000 
#    y 0.000000 1.710170 0.000000 
#    z 0.000000 0.000000 1.706380 
# 
# From -- ./inp_files/9115.got.cif
#   From: 2010.03.12/outbox.cif.g09.slc.cpg/sg66_5_cif.got.tgz:9115.got - 2010.04.10 21:57:39.
