data_PCOD8275615
_publ_section_title
;
Structure prediction by ZEFSAII (Michael W. Deem and Ramdas Pophale) SiO2 
 PCOD8275615
Probable space group: C C C M
;
_chemical_formula_sum "Si O2"
_cell_formula_units_Z 96
_cell_length_a 22.220745
_cell_length_b 14.452017
_cell_length_c 14.719619
_cell_angle_alpha 90.000000
_cell_angle_beta 90.000000
_cell_angle_gamma 90.000000
_cell_volume 4726.978731
_symmetry_space_group_name_H-M "C C C M"
_symmetry_group_IT_number 66
_symmetry_cell_setting 'orthorhombic'
loop_
_space_group_symop_operation_xyz
x,y,z
-x,-y,z
x,-y,1/2-z
-x,y,1/2-z
-x,-y,-z
x,y,-z
-x,y,1/2+z
x,-y,1/2+z
1/2+x,1/2+y,z
1/2-x,1/2-y,z
1/2+x,1/2-y,1/2-z
1/2-x,1/2+y,1/2-z
1/2-x,1/2-y,-z
1/2+x,1/2+y,-z
1/2-x,1/2+y,1/2+z
1/2+x,1/2-y,1/2+z
loop_
_atom_site_type_symbol
_atom_site_label
_atom_site_fract_x
_atom_site_fract_y
_atom_site_fract_z
Si Si1 0.864991 0.624883 0.900066
Si Si2 0.381906 0.059197 0.661135
Si Si3 0.001155 0.856315 0.605817
Si Si4 0.096224 0.898484 0.246843
Si Si5 0.182248 0.272874 0.734760
Si Si6 0.498069 0.144336 0.103188
O O1 0.854965 0.513616 0.912675
O O2 0.819528 0.680409 0.835061
O O3 0.931558 0.635154 0.853012
O O4 0.861391 0.671384 0.000000
O O5 0.344396 0.154545 0.661257
O O6 0.452802 0.079461 0.650101
O O7 0.370718 0.000000 0.750000
O O8 0.005594 0.889111 0.500000
O O9 0.949831 0.909439 0.661905
O O10 0.981445 0.749866 0.611386
O O11 0.064188 0.872456 0.657642
O O12 0.146667 0.822842 0.228434
O O13 0.126933 0.000000 0.250000
O O14 0.250000 0.250000 0.708115
O O15 0.492825 0.111331 0.000000
#
# Coordination Sequence:
#
# PCOD8275615 Si02
#       6
#    16  16  16  16  16  16
#     4  10  21  37  60  91 118 146 185 234 297 360
#     4  10  21  34  57  86 118 151 183 232 290 359
#     4  10  20  37  62  90 120 153 189 237 301 359
#     4  11  23  38  61  88 118 156 198 244 294 349
#     4  11  24  41  58  79 114 157 205 245 285 332
#     4  10  18  32  58  89 122 150 177 226 295 364
#
# _framework density 20.308955000000001
#
# number of rings (size 3 to 8) (size 9 to 14) (size 15 to 20)
#    0.000    1.667    3.333    2.000    0.000    9.667 
#    0.000    0.000    0.000    6.500    0.000    0.000 
#    0.000    0.000    0.000    0.000    0.000    0.000 
#
# Total GULP energy -594843.992451 kJ/mol
# GULP energy per Si atom -12392.583176 kJ/mol
# Density = 2.026273 g / cm^3
# Si number density = 20.308955 Si / 1000 Ang^3
#
#
#
# Elastic Constant Matrix: (Units=GPa)
#
#
# Indices 1 2 3 4 5 6 
#
# 1 93.6232 31.9217 10.6145 0.0000 0.0000 0.0000
# 2 31.9217 118.3103 -0.9779 0.0000 0.0000 0.0000
# 3 10.6145 -0.9779 74.8993 0.0000 0.0000 0.0000
# 4 0.0000 0.0000 0.0000 15.7725 0.0000 0.0000
# 5 0.0000 0.0000 0.0000 0.0000 -10.4626 0.0000
# 6 0.0000 0.0000 0.0000 0.0000 0.0000 14.9618
#
#
#
# Elastic Compliance Matrix: (Units=1/GPa)
#
#
# Indices 1 2 3 4 5 6 
#
# 1 0.011986 -0.003248 -0.001741 0.000000 0.000000 0.000000
# 2 -0.003248 0.009334 0.000582 0.000000 0.000000 0.000000
# 3 -0.001741 0.000582 0.013606 0.000000 0.000000 0.000000
# 4 0.000000 0.000000 0.000000 0.063402 0.000000 0.000000
# 5 0.000000 0.000000 0.000000 0.000000 -0.095578 0.000000
# 6 0.000000 0.000000 0.000000 0.000000 0.000000 0.066837
#
#
# Mechanical properties :
#
#
# Convention : Reuss Voigt Hill
#
# Bulk Modulus (GPa) = 38.29826 41.10549 39.70188
# Shear Modulus (GPa) = 57.40304 20.40597 38.90450
#
# Velocity S-wave (km/s) = 5.32224 3.17326 4.38154
# Velocity P-wave (km/s) = 7.52775 5.80604 6.72225
#
# Compressibility (1/GPa) = 0.02611085
#
# Stress axis : x y z
#
# Youngs Moduli (GPa) = 83.43019 107.13951 73.49919
#
# Poissons Ratio (x) = 0.34803 0.12796
# Poissons Ratio (y) = 0.27101 -0.04279
# Poissons Ratio (z) = 0.14525 -0.06238
#
# Static dielectric constant tensor:
#      x y z
#    x 3.286280 0.000000 0.000000 
#    y 0.000000 4.081730 0.000000 
#    z 0.000000 0.000000 4.045410 
# 
# 
# High freq. dielectric constant tensor:
#      x y z
#    x 1.746120 0.000000 0.000000 
#    y 0.000000 1.816170 0.000000 
#    z 0.000000 0.000000 1.788800 
# 
# From -- ./inp_files/31189.got.cif
#   From: 2010.03.12/outbox.cif.g09.slc.cpg/sg66_16_cif.got.tgz:31189.got - 2010.04.10 21:57:39.
