data_PCOD8275899
_publ_section_title
;
Structure prediction by ZEFSAII (Michael W. Deem and Ramdas Pophale) SiO2 
 PCOD8275899
Probable space group: C C C M
;
_chemical_formula_sum "Si O2"
_cell_formula_units_Z 112
_cell_length_a 12.241359
_cell_length_b 16.129451
_cell_length_c 30.961228
_cell_angle_alpha 90.000000
_cell_angle_beta 90.000000
_cell_angle_gamma 90.000000
_cell_volume 6113.183013
_symmetry_space_group_name_H-M "C C C M"
_symmetry_group_IT_number 66
_symmetry_cell_setting 'orthorhombic'
loop_
_space_group_symop_operation_xyz
x,y,z
-x,-y,z
x,-y,1/2-z
-x,y,1/2-z
-x,-y,-z
x,y,-z
-x,y,1/2+z
x,-y,1/2+z
1/2+x,1/2+y,z
1/2-x,1/2-y,z
1/2+x,1/2-y,1/2-z
1/2-x,1/2+y,1/2-z
1/2-x,1/2-y,-z
1/2+x,1/2+y,-z
1/2-x,1/2+y,1/2+z
1/2+x,1/2-y,1/2+z
loop_
_atom_site_type_symbol
_atom_site_label
_atom_site_fract_x
_atom_site_fract_y
_atom_site_fract_z
Si Si1 0.852266 0.699149 0.183803
Si Si2 0.298714 0.047172 0.618967
Si Si3 0.347979 0.309985 0.635563
Si Si4 0.730662 0.454544 0.295683
Si Si5 0.992547 0.331649 0.892446
Si Si6 0.103817 0.558475 0.452474
Si Si7 0.974685 0.854529 0.203445
O O1 0.750000 0.750000 0.165136
O O2 0.813000 0.622413 0.213397
O O3 0.928556 0.761598 0.210705
O O4 0.915597 0.664258 0.143347
O O5 0.203258 0.114312 0.608035
O O6 0.413164 0.093987 0.620576
O O7 0.278827 0.012000 0.666792
O O8 0.305402 0.977877 0.581111
O O9 0.250000 0.250000 0.653126
O O10 0.430032 0.256769 0.605139
O O11 0.415931 0.350944 0.674757
O O12 0.716804 0.500000 0.250000
O O13 0.616195 0.418290 0.314896
O O14 0.056227 0.352231 0.936901
O O15 0.157897 0.568844 0.500000
O O16 0.000000 0.500000 0.456078
O O17 0.000000 0.891691 0.250000
#
# Coordination Sequence:
#
# PCOD8275899 Si02
#       7
#    16  16  16  16  16  16  16
#     4   9  19  34  51  72  98 139 175 214 259 307
#     4  10  19  32  52  78 108 135 173 218 262 313
#     4   9  19  33  52  74 100 142 172 211 267 313
#     4  11  22  33  50  77 106 138 178 219 258 307
#     4   9  17  34  53  73 106 134 172 214 263 315
#     4   9  17  31  55  80 104 134 170 217 272 318
#     4  10  21  35  50  70 102 140 182 217 254 311
#
# _framework density 18.321059999999999
#
# number of rings (size 3 to 8) (size 9 to 14) (size 15 to 20)
#    0.000    2.429    1.429    0.857    0.000    7.143 
#    0.000    1.429    0.000    4.714    0.000    2.000 
#    0.000    0.000    0.000    0.000    0.000    0.000 
#
# Total GULP energy -693822.453259 kJ/mol
# GULP energy per Si atom -12389.686665 kJ/mol
# Density = 1.827936 g / cm^3
# Si number density = 18.321060 Si / 1000 Ang^3
#
#
#
# Elastic Constant Matrix: (Units=GPa)
#
#
# Indices 1 2 3 4 5 6 
#
# 1 86.0651 38.6114 39.7077 0.0000 0.0000 0.0000
# 2 38.6114 83.7185 48.2057 0.0000 0.0000 0.0000
# 3 39.7077 48.2057 112.5270 0.0000 0.0000 0.0000
# 4 0.0000 0.0000 0.0000 12.6294 0.0000 0.0000
# 5 0.0000 0.0000 0.0000 0.0000 0.3354 0.0000
# 6 0.0000 0.0000 0.0000 0.0000 0.0000 22.7588
#
#
#
# Elastic Compliance Matrix: (Units=1/GPa)
#
#
# Indices 1 2 3 4 5 6 
#
# 1 0.015467 -0.005297 -0.003188 0.000000 0.000000 0.000000
# 2 -0.005297 0.017670 -0.005701 0.000000 0.000000 0.000000
# 3 -0.003188 -0.005701 0.012454 0.000000 0.000000 0.000000
# 4 0.000000 0.000000 0.000000 0.079181 0.000000 0.000000
# 5 0.000000 0.000000 0.000000 0.000000 2.981090 0.000000
# 6 0.000000 0.000000 0.000000 0.000000 0.000000 0.043939
#
#
# Mechanical properties :
#
#
# Convention : Reuss Voigt Hill
#
# Bulk Modulus (GPa) = 58.07777 59.48448 58.78112
# Shear Modulus (GPa) = 1.57039 17.53045 9.55042
#
# Velocity S-wave (km/s) = 0.92683 3.09665 2.28563
# Velocity P-wave (km/s) = 5.73709 6.73231 6.25452
#
# Compressibility (1/GPa) = 0.01721829
#
# Stress axis : x y z
#
# Youngs Moduli (GPa) = 64.65497 56.59174 80.29589
#
# Poissons Ratio (x) = 0.29979 0.25602
# Poissons Ratio (y) = 0.34251 0.45773
# Poissons Ratio (z) = 0.20615 0.32260
#
# Static dielectric constant tensor:
#      x y z
#    x 3.567210 0.000000 0.000000 
#    y 0.000000 3.626980 0.000000 
#    z 0.000000 0.000000 3.234100 
# 
# 
# High freq. dielectric constant tensor:
#      x y z
#    x 1.713820 0.000000 0.000000 
#    y 0.000000 1.720830 0.000000 
#    z 0.000000 0.000000 1.667300 
# 
# From -- ./inp_files/69078.got.cif
#   From: 2010.03.12/outbox.cif.g09.slc.cpg/sg66_35_cif.got.tgz:69078.got - 2010.04.10 21:57:39.
