data_PCOD8275075
_publ_section_title
;
Structure prediction by ZEFSAII (Michael W. Deem and Ramdas Pophale) SiO2 
 PCOD8275075
Probable space group: C M M M
;
_chemical_formula_sum "Si O2"
_cell_formula_units_Z 104
_cell_length_a 24.299955
_cell_length_b 28.197914
_cell_length_c 9.646104
_cell_angle_alpha 90.000000
_cell_angle_beta 90.000000
_cell_angle_gamma 90.000000
_cell_volume 6609.588028
_symmetry_space_group_name_H-M "C M M M"
_symmetry_group_IT_number 65
_symmetry_cell_setting 'orthorhombic'
loop_
_space_group_symop_operation_xyz
x,y,z
-x,-y,z
x,-y,-z
-x,y,-z
-x,-y,-z
x,y,-z
-x,y,z
x,-y,z
1/2+x,1/2+y,z
1/2-x,1/2-y,z
1/2+x,1/2-y,-z
1/2-x,1/2+y,-z
1/2-x,1/2-y,-z
1/2+x,1/2+y,-z
1/2-x,1/2+y,z
1/2+x,1/2-y,z
loop_
_atom_site_type_symbol
_atom_site_label
_atom_site_fract_x
_atom_site_fract_y
_atom_site_fract_z
Si Si1 0.438933 0.125118 0.335287
Si Si2 0.435690 0.315907 0.838442
Si Si3 0.258427 0.555077 0.840815
Si Si4 0.874988 0.909072 0.836105
Si Si5 0.065313 0.729578 0.346152
Si Si6 0.654188 0.945334 0.661816
Si Si7 0.937852 0.000000 0.165649
O O1 0.442688 0.123420 0.500000
O O2 0.500000 0.114887 0.273452
O O3 0.417173 0.177389 0.290763
O O4 0.396790 0.085426 0.280649
O O5 0.500000 0.325651 0.809636
O O6 0.400937 0.360290 0.779484
O O7 0.413228 0.269672 0.758568
O O8 0.424741 0.307220 0.000000
O O9 0.273906 0.500000 0.819836
O O10 0.310845 0.586567 0.795592
O O11 0.208241 0.570717 0.744130
O O12 0.242119 0.564767 0.000000
O O13 0.908239 0.953438 0.772779
O O14 0.882152 0.910418 0.000000
O O15 0.089708 0.739124 0.500000
O O16 0.000000 0.730550 0.354026
O O17 0.665107 0.936073 0.500000
O O18 0.639847 0.000000 0.691388
O O19 0.000000 0.000000 0.219500
O O20 0.934935 0.000000 0.000000
#
# Coordination Sequence:
#
# PCOD8275075 Si02
#       7
#    16  16  16  16  16  16   8
#     4   8  14  26  45  67  88 110 135 164 202 248
#     4   9  16  25  39  62  88 108 132 174 220 249
#     4   9  16  28  44  59  80 113 149 174 197 241
#     4   9  15  24  38  58  83 111 141 173 209 249
#     4   8  14  26  43  60  80 109 141 166 194 245
#     4   9  17  28  44  67  90 108 132 170 209 244
#     4   9  14  20  34  58  85 109 136 173 214 252
#
# _framework density 15.734718000000001
#
# number of rings (size 3 to 8) (size 9 to 14) (size 15 to 20)
#    0.000    3.308    0.769    1.385    0.000    2.154 
#    0.000    3.077    0.000    2.308    0.000    8.615 
#    0.000    3.692    0.000    0.000    0.000    0.000 
#
# Total GULP energy -644540.071766 kJ/mol
# GULP energy per Si atom -12395.001380 kJ/mol
# Density = 1.569890 g / cm^3
# Si number density = 15.734718 Si / 1000 Ang^3
#
#
#
# Elastic Constant Matrix: (Units=GPa)
#
#
# Indices 1 2 3 4 5 6 
#
# 1 100.9083 74.1755 34.8733 0.0000 0.0000 0.0000
# 2 74.1755 124.9557 37.7308 0.0000 0.0000 0.0000
# 3 34.8733 37.7308 35.9792 0.0000 0.0000 0.0000
# 4 0.0000 0.0000 0.0000 20.5733 0.0000 0.0000
# 5 0.0000 0.0000 0.0000 0.0000 17.7974 0.0000
# 6 0.0000 0.0000 0.0000 0.0000 0.0000 15.3380
#
#
#
# Elastic Compliance Matrix: (Units=1/GPa)
#
#
# Indices 1 2 3 4 5 6 
#
# 1 0.019784 -0.008713 -0.010039 0.000000 0.000000 0.000000
# 2 -0.008713 0.015548 -0.007860 0.000000 0.000000 0.000000
# 3 -0.010039 -0.007860 0.045767 0.000000 0.000000 0.000000
# 4 0.000000 0.000000 0.000000 0.048607 0.000000 0.000000
# 5 0.000000 0.000000 0.000000 0.000000 0.056188 0.000000
# 6 0.000000 0.000000 0.000000 0.000000 0.000000 0.065198
#
#
# Mechanical properties :
#
#
# Convention : Reuss Voigt Hill
#
# Bulk Modulus (GPa) = 35.87388 61.71140 48.79264
# Shear Modulus (GPa) = 15.94350 18.41264 17.17807
#
# Velocity S-wave (km/s) = 3.18664 3.42452 3.30772
# Velocity P-wave (km/s) = 6.03227 7.41225 6.75758
#
# Compressibility (1/GPa) = 0.02787544
#
# Stress axis : x y z
#
# Youngs Moduli (GPa) = 50.54606 64.31572 21.84974
#
# Poissons Ratio (x) = 0.56037 0.21935
# Poissons Ratio (y) = 0.44040 0.17175
# Poissons Ratio (z) = 0.50743 0.50554
#
# Static dielectric constant tensor:
#      x y z
#    x 2.983790 0.000000 0.000000 
#    y 0.000000 3.242990 0.000000 
#    z 0.000000 0.000000 2.718870 
# 
# 
# High freq. dielectric constant tensor:
#      x y z
#    x 1.586830 0.000000 0.000000 
#    y 0.000000 1.605280 0.000000 
#    z 0.000000 0.000000 1.563940 
# 
# From -- ./inp_files/16991.got.cif
#   From: 2010.03.12/outbox.cif.g09.slc.cpg/sg65_9_cif.got.tgz:16991.got - 2010.04.10 20:52:16.
