data_PCOD8275661
_publ_section_title
;
Structure prediction by ZEFSAII (Michael W. Deem and Ramdas Pophale) SiO2 
 PCOD8275661
Probable space group: C C C M
;
_chemical_formula_sum "Si O2"
_cell_formula_units_Z 80
_cell_length_a 12.429210
_cell_length_b 15.352856
_cell_length_c 22.108544
_cell_angle_alpha 90.000000
_cell_angle_beta 90.000000
_cell_angle_gamma 90.000000
_cell_volume 4218.837955
_symmetry_space_group_name_H-M "C C C M"
_symmetry_group_IT_number 66
_symmetry_cell_setting 'orthorhombic'
loop_
_space_group_symop_operation_xyz
x,y,z
-x,-y,z
x,-y,1/2-z
-x,y,1/2-z
-x,-y,-z
x,y,-z
-x,y,1/2+z
x,-y,1/2+z
1/2+x,1/2+y,z
1/2-x,1/2-y,z
1/2+x,1/2-y,1/2-z
1/2-x,1/2+y,1/2-z
1/2-x,1/2-y,-z
1/2+x,1/2+y,-z
1/2-x,1/2+y,1/2+z
1/2+x,1/2-y,1/2+z
loop_
_atom_site_type_symbol
_atom_site_label
_atom_site_fract_x
_atom_site_fract_y
_atom_site_fract_z
Si Si1 0.114855 0.041526 0.500000
Si Si2 0.166936 0.983124 0.628134
Si Si3 0.615936 0.022834 0.179883
Si Si4 0.369949 0.786794 0.869329
Si Si5 0.483612 0.626298 0.820385
Si Si6 0.124601 0.245620 0.500000
O O1 0.092646 0.144353 0.500000
O O2 0.179271 0.007077 0.557843
O O3 0.000000 0.000000 0.500000
O O4 0.091096 0.899626 0.641696
O O5 0.288012 0.965675 0.650933
O O6 0.116083 0.066049 0.661432
O O7 0.635410 0.123760 0.166663
O O8 0.500000 0.000000 0.150988
O O9 0.615410 0.000000 0.250000
O O10 0.250000 0.750000 0.870161
O O11 0.453347 0.725593 0.833608
O O12 0.415265 0.793941 0.938610
O O13 0.500000 0.611939 0.750000
O O14 0.250000 0.250000 0.500000
#
# Coordination Sequence:
#
# PCOD8275661 Si02
#       6
#     8  16  16  16  16   8
#     4  12  18  34  62  97 128 155 198 259 315 362
#     4  11  20  38  58  94 127 158 198 258 310 362
#     4  11  25  43  59  85 127 165 207 254 311 375
#     4  11  21  39  62  92 118 161 205 254 303 363
#     4  11  21  33  61  92 125 155 204 251 311 363
#     4  10  18  34  58  89 118 151 204 253 288 354
#
# _framework density 18.962567
#
# number of rings (size 3 to 8) (size 9 to 14) (size 15 to 20)
#    0.000    1.000    6.000    3.600    2.800    0.000 
#    0.000    3.000    0.000    0.000    0.000    4.200 
#    0.000    0.000    0.000    0.000    0.000    0.000 
#
# Total GULP energy -495856.132294 kJ/mol
# GULP energy per Si atom -12396.403307 kJ/mol
# Density = 1.891941 g / cm^3
# Si number density = 18.962567 Si / 1000 Ang^3
#
#
#
# Elastic Constant Matrix: (Units=GPa)
#
#
# Indices 1 2 3 4 5 6 
#
# 1 126.5488 26.9902 34.7119 0.0000 0.0000 0.0000
# 2 26.9902 91.3946 36.1463 0.0000 0.0000 0.0000
# 3 34.7119 36.1463 153.0191 0.0000 0.0000 0.0000
# 4 0.0000 0.0000 0.0000 22.0128 0.0000 0.0000
# 5 0.0000 0.0000 0.0000 0.0000 13.9377 0.0000
# 6 0.0000 0.0000 0.0000 0.0000 0.0000 25.6132
#
#
#
# Elastic Compliance Matrix: (Units=1/GPa)
#
#
# Indices 1 2 3 4 5 6 
#
# 1 0.008740 -0.001982 -0.001514 0.000000 0.000000 0.000000
# 2 -0.001982 0.012519 -0.002508 0.000000 0.000000 0.000000
# 3 -0.001514 -0.002508 0.007471 0.000000 0.000000 0.000000
# 4 0.000000 0.000000 0.000000 0.045428 0.000000 0.000000
# 5 0.000000 0.000000 0.000000 0.000000 0.071748 0.000000
# 6 0.000000 0.000000 0.000000 0.000000 0.000000 0.039042
#
#
# Mechanical properties :
#
#
# Convention : Reuss Voigt Hill
#
# Bulk Modulus (GPa) = 59.80282 62.96212 61.38247
# Shear Modulus (GPa) = 24.68764 30.52034 27.60399
#
# Velocity S-wave (km/s) = 3.61212 4.01622 3.81952
# Velocity P-wave (km/s) = 7.00016 7.40149 7.20362
#
# Compressibility (1/GPa) = 0.01672162
#
# Stress axis : x y z
#
# Youngs Moduli (GPa) = 114.41312 79.88082 133.85065
#
# Poissons Ratio (x) = 0.15834 0.20271
# Poissons Ratio (y) = 0.22679 0.33563
# Poissons Ratio (z) = 0.17328 0.20030
#
# Static dielectric constant tensor:
#      x y z
#    x 3.673800 0.000000 0.000000 
#    y 0.000000 3.382120 0.000000 
#    z 0.000000 0.000000 3.737380 
# 
# 
# High freq. dielectric constant tensor:
#      x y z
#    x 1.728360 0.000000 0.000000 
#    y 0.000000 1.718030 0.000000 
#    z 0.000000 0.000000 1.752390 
# 
# From -- ./inp_files/56642.got.cif
#   From: 2010.03.12/outbox.cif.g09.slc.cpg/sg66_29_cif.got.tgz:56642.got - 2010.04.10 21:57:39.
