data_PCOD8275226
_publ_section_title
;
Structure prediction by ZEFSAII (Michael W. Deem and Ramdas Pophale) SiO2 
 PCOD8275226
Probable space group: C C C M
;
_chemical_formula_sum "Si O2"
_cell_formula_units_Z 84
_cell_length_a 22.011446
_cell_length_b 8.904897
_cell_length_c 23.087113
_cell_angle_alpha 90.000000
_cell_angle_beta 90.000000
_cell_angle_gamma 90.000000
_cell_volume 4525.297157
_symmetry_space_group_name_H-M "C C C M"
_symmetry_group_IT_number 66
_symmetry_cell_setting 'orthorhombic'
loop_
_space_group_symop_operation_xyz
x,y,z
-x,-y,z
x,-y,1/2-z
-x,y,1/2-z
-x,-y,-z
x,y,-z
-x,y,1/2+z
x,-y,1/2+z
1/2+x,1/2+y,z
1/2-x,1/2-y,z
1/2+x,1/2-y,1/2-z
1/2-x,1/2+y,1/2-z
1/2-x,1/2-y,-z
1/2+x,1/2+y,-z
1/2-x,1/2+y,1/2+z
1/2+x,1/2-y,1/2+z
loop_
_atom_site_type_symbol
_atom_site_label
_atom_site_fract_x
_atom_site_fract_y
_atom_site_fract_z
Si Si1 0.896887 0.292327 0.268080
Si Si2 0.880673 0.793726 0.365063
Si Si3 0.500000 0.000000 0.750000
Si Si4 0.013289 0.672795 0.933014
Si Si5 0.750000 0.750000 0.667502
Si Si6 0.058657 0.911977 0.639737
Si Si7 0.291201 0.000000 0.750000
O O1 0.899185 0.241989 0.201339
O O2 0.900783 0.147766 0.307691
O O3 0.835508 0.383272 0.283533
O O4 0.955195 0.393825 0.287103
O O5 0.919707 0.687260 0.406150
O O6 0.809242 0.758884 0.373096
O O7 0.896219 0.962728 0.386810
O O8 0.000000 0.500000 0.922467
O O9 0.962454 0.782837 0.904800
O O10 0.014673 0.716472 0.000000
O O11 0.750288 0.902300 0.706595
O O12 0.000000 0.000000 0.664273
#
# Coordination Sequence:
#
# PCOD8275226 Si02
#       7
#    16  16   4  16   8  16   8
#     4  10  20  30  50  84 115 151 180 221 280 341
#     4  10  22  36  56  82 116 151 191 231 277 342
#     4  10  16  24  42  72 106 144 168 220 258 322
#     4  10  23  40  60  83 111 146 190 245 297 344
#     4  10  22  38  53  84 116 160 195 226 274 332
#     4  10  21  33  56  85 115 148 180 234 284 346
#     4   9  22  33  52  74 115 166 185 228 260 334
#
# _framework density 18.562317
#
# number of rings (size 3 to 8) (size 9 to 14) (size 15 to 20)
#    0.000    2.095    0.000    2.857   16.000    5.714 
#    0.000    0.476    0.000    0.000    0.000    2.667 
#    0.000    0.000    0.000    0.000    0.000    0.000 
#
# Total GULP energy -520442.327217 kJ/mol
# GULP energy per Si atom -12391.483981 kJ/mol
# Density = 1.852007 g / cm^3
# Si number density = 18.562317 Si / 1000 Ang^3
#
#
#
# Elastic Constant Matrix: (Units=GPa)
#
#
# Indices 1 2 3 4 5 6 
#
# 1 111.0693 44.5755 39.2094 0.0000 0.0000 0.0000
# 2 44.5755 99.0594 58.8966 0.0000 0.0000 0.0000
# 3 39.2094 58.8966 77.5683 0.0000 0.0000 0.0000
# 4 0.0000 0.0000 0.0000 7.3827 0.0000 0.0000
# 5 0.0000 0.0000 0.0000 0.0000 12.6987 0.0000
# 6 0.0000 0.0000 0.0000 0.0000 0.0000 27.3215
#
#
#
# Elastic Compliance Matrix: (Units=1/GPa)
#
#
# Indices 1 2 3 4 5 6 
#
# 1 0.011466 -0.003124 -0.003424 0.000000 0.000000 0.000000
# 2 -0.003124 0.019254 -0.013040 0.000000 0.000000 0.000000
# 3 -0.003424 -0.013040 0.024524 0.000000 0.000000 0.000000
# 4 0.000000 0.000000 0.000000 0.135452 0.000000 0.000000
# 5 0.000000 0.000000 0.000000 0.000000 0.078748 0.000000
# 6 0.000000 0.000000 0.000000 0.000000 0.000000 0.036601
#
#
# Mechanical properties :
#
#
# Convention : Reuss Voigt Hill
#
# Bulk Modulus (GPa) = 62.23657 63.67334 62.95496
# Shear Modulus (GPa) = 14.26228 19.14831 16.70529
#
# Velocity S-wave (km/s) = 2.77491 3.21529 3.00318
# Velocity P-wave (km/s) = 6.62330 6.93982 6.78340
#
# Compressibility (1/GPa) = 0.01606772
#
# Stress axis : x y z
#
# Youngs Moduli (GPa) = 87.21643 51.93821 40.77679
#
# Poissons Ratio (x) = 0.16224 0.13962
# Poissons Ratio (y) = 0.27244 0.53173
# Poissons Ratio (z) = 0.29862 0.67728
#
# Static dielectric constant tensor:
#      x y z
#    x 3.528420 0.000000 0.000000 
#    y 0.000000 3.841970 0.000000 
#    z 0.000000 0.000000 3.085660 
# 
# 
# High freq. dielectric constant tensor:
#      x y z
#    x 1.717180 0.000000 0.000000 
#    y 0.000000 1.748100 0.000000 
#    z 0.000000 0.000000 1.669020 
# 
# From -- ./inp_files/59787.got.cif
#   From: 2010.03.12/outbox.cif.g09.slc.cpg/sg66_30_cif.got.tgz:59787.got - 2010.04.10 21:57:39.
