data_PCOD8275389
_publ_section_title
;
Structure prediction by ZEFSAII (Michael W. Deem and Ramdas Pophale) SiO2 
 PCOD8275389
Probable space group: C C C M
;
_chemical_formula_sum "Si O2"
_cell_formula_units_Z 72
_cell_length_a 13.883951
_cell_length_b 14.408222
_cell_length_c 17.587164
_cell_angle_alpha 90.000000
_cell_angle_beta 90.000000
_cell_angle_gamma 90.000000
_cell_volume 3518.189897
_symmetry_space_group_name_H-M "C C C M"
_symmetry_group_IT_number 66
_symmetry_cell_setting 'orthorhombic'
loop_
_space_group_symop_operation_xyz
x,y,z
-x,-y,z
x,-y,1/2-z
-x,y,1/2-z
-x,-y,-z
x,y,-z
-x,y,1/2+z
x,-y,1/2+z
1/2+x,1/2+y,z
1/2-x,1/2-y,z
1/2+x,1/2-y,1/2-z
1/2-x,1/2+y,1/2-z
1/2-x,1/2-y,-z
1/2+x,1/2+y,-z
1/2-x,1/2+y,1/2+z
1/2+x,1/2-y,1/2+z
loop_
_atom_site_type_symbol
_atom_site_label
_atom_site_fract_x
_atom_site_fract_y
_atom_site_fract_z
Si Si1 0.829669 0.178012 0.193403
Si Si2 0.770637 0.500000 0.250000
Si Si3 0.140388 0.764399 0.363036
Si Si4 0.489435 0.395727 0.413358
Si Si5 0.943334 0.415802 0.328363
O O1 0.750000 0.250000 0.159832
O O2 0.866062 0.219611 0.272739
O O3 0.917696 0.168919 0.135041
O O4 0.792024 0.073799 0.203997
O O5 0.834132 0.445366 0.311082
O O6 0.250000 0.750000 0.390840
O O7 0.095796 0.850510 0.408519
O O8 0.071130 0.675102 0.380177
O O9 0.500000 0.500000 0.380674
O O10 0.452784 0.398766 0.500000
O O11 0.000000 0.500000 0.371460
O O12 0.000000 0.394630 0.250000
#
# Coordination Sequence:
#
# PCOD8275389 Si02
#       5
#    16   8  16  16  16
#     4  11  21  35  65  93 120 146 201 253 302 351
#     4  10  17  32  55  96 120 150 176 251 305 354
#     4  11  21  38  63  93 114 148 205 253 303 350
#     4  11  26  43  58  82 123 170 203 240 296 358
#     4   9  18  30  55  85 122 149 177 236 309 356
#
# _framework density 20.465070000000001
#
# number of rings (size 3 to 8) (size 9 to 14) (size 15 to 20)
#    0.000    1.778    4.444    3.333    3.111    1.778 
#    0.000    0.000    0.000    0.667    0.000    0.000 
#    0.000    0.000    0.000    0.000    0.000    0.000 
#
# Total GULP energy -446252.355117 kJ/mol
# GULP energy per Si atom -12395.898753 kJ/mol
# Density = 2.041849 g / cm^3
# Si number density = 20.465070 Si / 1000 Ang^3
#
#
#
# Elastic Constant Matrix: (Units=GPa)
#
#
# Indices 1 2 3 4 5 6 
#
# 1 104.0072 54.8322 19.9398 0.0000 0.0000 0.0000
# 2 54.8322 143.4587 8.9213 0.0000 0.0000 0.0000
# 3 19.9398 8.9213 33.4157 0.0000 0.0000 0.0000
# 4 0.0000 0.0000 0.0000 17.1095 0.0000 0.0000
# 5 0.0000 0.0000 0.0000 0.0000 9.8450 0.0000
# 6 0.0000 0.0000 0.0000 0.0000 0.0000 44.4779
#
#
#
# Elastic Compliance Matrix: (Units=1/GPa)
#
#
# Indices 1 2 3 4 5 6 
#
# 1 0.013381 -0.004696 -0.006731 0.000000 0.000000 0.000000
# 2 -0.004696 0.008736 0.000470 0.000000 0.000000 0.000000
# 3 -0.006731 0.000470 0.033817 0.000000 0.000000 0.000000
# 4 0.000000 0.000000 0.000000 0.058447 0.000000 0.000000
# 5 0.000000 0.000000 0.000000 0.000000 0.101574 0.000000
# 6 0.000000 0.000000 0.000000 0.000000 0.000000 0.022483
#
#
# Mechanical properties :
#
#
# Convention : Reuss Voigt Hill
#
# Bulk Modulus (GPa) = 29.39435 49.80759 39.60097
# Shear Modulus (GPa) = 18.40315 27.43236 22.91776
#
# Velocity S-wave (km/s) = 3.00200 3.66519 3.35004
# Velocity P-wave (km/s) = 5.13910 6.50401 5.86142
#
# Compressibility (1/GPa) = 0.03402014
#
# Stress axis : x y z
#
# Youngs Moduli (GPa) = 74.73444 114.46585 29.57079
#
# Poissons Ratio (x) = 0.53750 0.19904
# Poissons Ratio (y) = 0.35093 -0.01389
# Poissons Ratio (z) = 0.50303 -0.05376
#
# Static dielectric constant tensor:
#      x y z
#    x 3.807260 0.000000 0.000000 
#    y 0.000000 4.403120 0.000000 
#    z 0.000000 0.000000 3.031920 
# 
# 
# High freq. dielectric constant tensor:
#      x y z
#    x 1.811000 0.000000 0.000000 
#    y 0.000000 1.829020 0.000000 
#    z 0.000000 0.000000 1.728110 
# 
# From -- ./inp_files/40039.got.cif
#   From: 2010.03.12/outbox.cif.g09.slc.cpg/sg66_21_cif.got.tgz:40039.got - 2010.04.10 21:57:39.
