data_PCOD8275372
_publ_section_title
;
Structure prediction by ZEFSAII (Michael W. Deem and Ramdas Pophale) SiO2 
 PCOD8275372
Probable space group: C C C M
;
_chemical_formula_sum "Si O2"
_cell_formula_units_Z 72
_cell_length_a 9.264586
_cell_length_b 22.635284
_cell_length_c 17.875059
_cell_angle_alpha 90.000000
_cell_angle_beta 90.000000
_cell_angle_gamma 90.000000
_cell_volume 3748.516690
_symmetry_space_group_name_H-M "C C C M"
_symmetry_group_IT_number 66
_symmetry_cell_setting 'orthorhombic'
loop_
_space_group_symop_operation_xyz
x,y,z
-x,-y,z
x,-y,1/2-z
-x,y,1/2-z
-x,-y,-z
x,y,-z
-x,y,1/2+z
x,-y,1/2+z
1/2+x,1/2+y,z
1/2-x,1/2-y,z
1/2+x,1/2-y,1/2-z
1/2-x,1/2+y,1/2-z
1/2-x,1/2-y,-z
1/2+x,1/2+y,-z
1/2-x,1/2+y,1/2+z
1/2+x,1/2-y,1/2+z
loop_
_atom_site_type_symbol
_atom_site_label
_atom_site_fract_x
_atom_site_fract_y
_atom_site_fract_z
Si Si1 0.190306 0.000000 0.250000
Si Si2 0.395864 0.083911 0.000000
Si Si3 0.288649 0.049016 0.500000
Si Si4 0.091869 0.911714 0.866282
Si Si5 0.734141 0.601023 0.854391
Si Si6 0.837741 0.192021 0.768697
O O1 0.089312 0.045046 0.295301
O O2 0.283061 0.041686 0.192493
O O3 0.568806 0.089424 0.000000
O O4 0.340956 0.114445 0.076547
O O5 0.336671 0.018003 0.000000
O O6 0.190935 0.061023 0.570883
O O7 0.159189 0.849012 0.842277
O O8 0.925289 0.906943 0.890463
O O9 0.737423 0.657917 0.800463
O O10 0.750000 0.250000 0.789305
O O11 0.000000 0.210774 0.750000
#
# Coordination Sequence:
#
# PCOD8275372 Si02
#       6
#     8   8   8  16  16  16
#     4  10  17  30  55  82 103 132 179 226 263 308
#     4  11  23  35  48  79 120 149 174 212 271 332
#     4  11  23  35  48  79 120 149 174 212 271 332
#     4  10  19  34  57  81 105 141 184 221 262 320
#     4  10  19  34  57  81 105 141 184 221 262 320
#     4   9  20  37  59  84 107 136 183 229 269 318
#
# _framework density 19.207597
#
# number of rings (size 3 to 8) (size 9 to 14) (size 15 to 20)
#    0.000    2.000    2.222    4.000    0.000    2.667 
#    0.000    5.556    0.000    0.000    0.000    0.000 
#    0.000    0.000    0.000    0.000    0.000    0.000 
#
# Total GULP energy -446265.815766 kJ/mol
# GULP energy per Si atom -12396.272660 kJ/mol
# Density = 1.916388 g / cm^3
# Si number density = 19.207597 Si / 1000 Ang^3
#
#
#
# Elastic Constant Matrix: (Units=GPa)
#
#
# Indices 1 2 3 4 5 6 
#
# 1 60.2658 19.3282 33.7208 0.0000 0.0000 0.0000
# 2 19.3282 93.9663 16.9269 0.0000 0.0000 0.0000
# 3 33.7208 16.9269 90.0211 0.0000 0.0000 0.0000
# 4 0.0000 0.0000 0.0000 41.9349 0.0000 0.0000
# 5 0.0000 0.0000 0.0000 0.0000 15.9351 0.0000
# 6 0.0000 0.0000 0.0000 0.0000 0.0000 29.1858
#
#
#
# Elastic Compliance Matrix: (Units=1/GPa)
#
#
# Indices 1 2 3 4 5 6 
#
# 1 0.021845 -0.003125 -0.007595 0.000000 0.000000 0.000000
# 2 -0.003125 0.011462 -0.000985 0.000000 0.000000 0.000000
# 3 -0.007595 -0.000985 0.014139 0.000000 0.000000 0.000000
# 4 0.000000 0.000000 0.000000 0.023847 0.000000 0.000000
# 5 0.000000 0.000000 0.000000 0.000000 0.062754 0.000000
# 6 0.000000 0.000000 0.000000 0.000000 0.000000 0.034263
#
#
# Mechanical properties :
#
#
# Convention : Reuss Voigt Hill
#
# Bulk Modulus (GPa) = 41.60420 42.68945 42.14683
# Shear Modulus (GPa) = 25.03343 29.02965 27.03154
#
# Velocity S-wave (km/s) = 3.61405 3.89184 3.75552
# Velocity P-wave (km/s) = 6.25480 6.51681 6.38715
#
# Compressibility (1/GPa) = 0.02403603
#
# Stress axis : x y z
#
# Youngs Moduli (GPa) = 45.77639 87.24245 70.72749
#
# Poissons Ratio (x) = 0.27265 0.53720
# Poissons Ratio (y) = 0.14306 0.06964
# Poissons Ratio (z) = 0.34769 0.08590
#
# Static dielectric constant tensor:
#      x y z
#    x 3.338450 0.000000 0.000000 
#    y 0.000000 3.379570 0.000000 
#    z 0.000000 0.000000 3.450840 
# 
# 
# High freq. dielectric constant tensor:
#      x y z
#    x 1.732730 0.000000 0.000000 
#    y 0.000000 1.729260 0.000000 
#    z 0.000000 0.000000 1.748900 
# 
# From -- ./inp_files/36767.got.cif
#   From: 2010.03.12/outbox.cif.g09.slc.cpg/sg66_19_cif.got.tgz:36767.got - 2010.04.10 21:57:39.
