data_PCOD8275561
_publ_section_title
;
Structure prediction by ZEFSAII (Michael W. Deem and Ramdas Pophale) SiO2 
 PCOD8275561
Probable space group: C C C M
;
_chemical_formula_sum "Si O2"
_cell_formula_units_Z 96
_cell_length_a 18.643858
_cell_length_b 29.737374
_cell_length_c 9.002188
_cell_angle_alpha 90.000000
_cell_angle_beta 90.000000
_cell_angle_gamma 90.000000
_cell_volume 4990.987473
_symmetry_space_group_name_H-M "C C C M"
_symmetry_group_IT_number 66
_symmetry_cell_setting 'orthorhombic'
loop_
_space_group_symop_operation_xyz
x,y,z
-x,-y,z
x,-y,1/2-z
-x,y,1/2-z
-x,-y,-z
x,y,-z
-x,y,1/2+z
x,-y,1/2+z
1/2+x,1/2+y,z
1/2-x,1/2-y,z
1/2+x,1/2-y,1/2-z
1/2-x,1/2+y,1/2-z
1/2-x,1/2-y,-z
1/2+x,1/2+y,-z
1/2-x,1/2+y,1/2+z
1/2+x,1/2-y,1/2+z
loop_
_atom_site_type_symbol
_atom_site_label
_atom_site_fract_x
_atom_site_fract_y
_atom_site_fract_z
Si Si1 0.798150 0.113105 0.672857
Si Si2 0.782558 0.541844 0.663765
Si Si3 0.564986 0.071583 0.832546
Si Si4 0.427322 0.165958 0.822568
Si Si5 0.424373 0.453311 0.823159
Si Si6 0.725329 0.202517 0.675737
O O1 0.783848 0.106890 0.500000
O O2 0.734864 0.088121 0.757161
O O3 0.873487 0.089405 0.716311
O O4 0.786610 0.165261 0.719518
O O5 0.748168 0.500000 0.750000
O O6 0.749070 0.541052 0.500000
O O7 0.868266 0.537884 0.661290
O O8 0.500000 0.045620 0.750000
O O9 0.581110 0.115310 0.733921
O O10 0.543740 0.086272 0.000000
O O11 0.500000 0.187542 0.750000
O O12 0.355149 0.191546 0.767184
O O13 0.433724 0.167530 0.000000
O O14 0.395490 0.500000 0.750000
O O15 0.500000 0.440883 0.750000
O O16 0.432055 0.459933 0.000000
O O17 0.722351 0.206155 0.500000
O O18 0.750000 0.250000 0.746370
#
# Coordination Sequence:
#
# PCOD8275561 Si02
#       6
#    16  16  16  16  16  16
#     4  10  20  36  57  80 107 141 182 226 271 323
#     4  11  23  35  51  76 107 142 179 221 266 318
#     4  10  20  33  50  73 102 138 178 218 261 309
#     4  10  18  31  55  79 105 140 179 224 266 318
#     4  10  20  34  55  81 110 143 180 222 268 331
#     4   9  18  34  57  83 108 141 184 227 274 329
#
# _framework density 19.234672
#
# number of rings (size 3 to 8) (size 9 to 14) (size 15 to 20)
#    0.000    2.000    1.667    4.000    0.000    5.000 
#    0.000    2.500    0.000    4.500    0.000    0.000 
#    0.000    0.000    0.000    0.000    0.000    0.000 
#
# Total GULP energy -594745.734308 kJ/mol
# GULP energy per Si atom -12390.536131 kJ/mol
# Density = 1.919089 g / cm^3
# Si number density = 19.234672 Si / 1000 Ang^3
#
#
#
# Elastic Constant Matrix: (Units=GPa)
#
#
# Indices 1 2 3 4 5 6 
#
# 1 111.8579 50.3533 41.5551 0.0000 0.0000 0.0000
# 2 50.3533 118.8782 39.6093 0.0000 0.0000 0.0000
# 3 41.5551 39.6093 80.5862 0.0000 0.0000 0.0000
# 4 0.0000 0.0000 0.0000 12.5844 0.0000 0.0000
# 5 0.0000 0.0000 0.0000 0.0000 25.0361 0.0000
# 6 0.0000 0.0000 0.0000 0.0000 0.0000 -37.2727
#
#
#
# Elastic Compliance Matrix: (Units=1/GPa)
#
#
# Indices 1 2 3 4 5 6 
#
# 1 0.012282 -0.003698 -0.004516 0.000000 0.000000 0.000000
# 2 -0.003698 0.011173 -0.003585 0.000000 0.000000 0.000000
# 3 -0.004516 -0.003585 0.016500 0.000000 0.000000 0.000000
# 4 0.000000 0.000000 0.000000 0.079463 0.000000 0.000000
# 5 0.000000 0.000000 0.000000 0.000000 0.039942 0.000000
# 6 0.000000 0.000000 0.000000 0.000000 0.000000 -0.026829
#
#
# Mechanical properties :
#
#
# Convention : Reuss Voigt Hill
#
# Bulk Modulus (GPa) = 61.13326 63.81754 62.47540
# Shear Modulus (GPa) = 30.94437 12.05652 21.50044
#
# Velocity S-wave (km/s) = 4.01531 2.50634 3.34697
# Velocity P-wave (km/s) = 7.30403 6.45183 6.89111
#
# Compressibility (1/GPa) = 0.01635771
#
# Stress axis : x y z
#
# Youngs Moduli (GPa) = 81.41936 89.50459 60.60703
#
# Poissons Ratio (x) = 0.33096 0.27370
# Poissons Ratio (y) = 0.30106 0.21726
# Poissons Ratio (z) = 0.36768 0.32085
#
# Static dielectric constant tensor:
#      x y z
#    x 3.861000 0.000000 0.000000 
#    y 0.000000 4.374680 0.000000 
#    z 0.000000 0.000000 3.507130 
# 
# 
# High freq. dielectric constant tensor:
#      x y z
#    x 1.756810 0.000000 0.000000 
#    y 0.000000 1.722080 0.000000 
#    z 0.000000 0.000000 1.743590 
# 
# From -- ./inp_files/8024.got.cif
#   From: 2010.03.12/outbox.cif.g09.slc.cpg/sg66_5_cif.got.tgz:8024.got - 2010.04.10 21:57:39.
