data_PCOD8275982
_publ_section_title
;
Structure prediction by ZEFSAII (Michael W. Deem and Ramdas Pophale) SiO2 
 PCOD8275982
Probable space group: C C C M
;
_chemical_formula_sum "Si O2"
_cell_formula_units_Z 88
_cell_length_a 12.058696
_cell_length_b 23.729265
_cell_length_c 15.096164
_cell_angle_alpha 90.000000
_cell_angle_beta 90.000000
_cell_angle_gamma 90.000000
_cell_volume 4319.676645
_symmetry_space_group_name_H-M "C C C M"
_symmetry_group_IT_number 66
_symmetry_cell_setting 'orthorhombic'
loop_
_space_group_symop_operation_xyz
x,y,z
-x,-y,z
x,-y,1/2-z
-x,y,1/2-z
-x,-y,-z
x,y,-z
-x,y,1/2+z
x,-y,1/2+z
1/2+x,1/2+y,z
1/2-x,1/2-y,z
1/2+x,1/2-y,1/2-z
1/2-x,1/2+y,1/2-z
1/2-x,1/2-y,-z
1/2+x,1/2+y,-z
1/2-x,1/2+y,1/2+z
1/2+x,1/2-y,1/2+z
loop_
_atom_site_type_symbol
_atom_site_label
_atom_site_fract_x
_atom_site_fract_y
_atom_site_fract_z
Si Si1 0.710518 0.363520 0.101530
Si Si2 0.498251 0.433619 0.646432
Si Si3 0.340361 0.612912 0.500000
Si Si4 0.558586 0.138420 0.162732
Si Si5 0.420440 0.730612 0.500000
Si Si6 0.601484 0.141809 0.500000
Si Si7 0.430375 0.731092 0.167476
O O1 0.615119 0.410301 0.105356
O O2 0.823475 0.391040 0.141751
O O3 0.679658 0.306938 0.156767
O O4 0.733777 0.346257 0.000000
O O5 0.500000 0.500000 0.634316
O O6 0.500000 0.416307 0.750000
O O7 0.601926 0.409419 0.590028
O O8 0.331700 0.680826 0.500000
O O9 0.208066 0.599963 0.500000
O O10 0.500000 0.113372 0.250000
O O11 0.471640 0.128480 0.085260
O O12 0.595016 0.203188 0.177495
O O13 0.364445 0.791965 0.500000
O O14 0.497055 0.719360 0.417225
O O15 0.500000 0.707897 0.250000
#
# Coordination Sequence:
#
# PCOD8275982 Si02
#       7
#    16  16   8  16   8   8  16
#     4  12  21  37  64  86 119 158 199 252 300 355
#     4  11  25  43  65  93 116 146 197 261 319 353
#     4  12  22  39  63  88 122 160 197 248 302 360
#     4  10  23  37  54  87 125 167 203 235 283 358
#     4  10  19  34  52  87 127 162 202 233 285 357
#     4  10  23  37  55  88 131 169 199 234 287 354
#     4  10  19  33  54  86 123 159 203 243 290 348
#
# _framework density 20.371894999999999
#
# number of rings (size 3 to 8) (size 9 to 14) (size 15 to 20)
#    0.000    1.273    4.545    1.636    2.545    0.727 
#    0.000    5.455    0.000    2.182    0.000    0.000 
#    0.000    0.000    0.000    0.000    0.000    0.000 
#
# Total GULP energy -545389.742477 kJ/mol
# GULP energy per Si atom -12395.221420 kJ/mol
# Density = 2.032553 g / cm^3
# Si number density = 20.371895 Si / 1000 Ang^3
#
#
#
# Elastic Constant Matrix: (Units=GPa)
#
#
# Indices 1 2 3 4 5 6 
#
# 1 172.0216 31.0634 70.0844 0.0000 0.0000 0.0000
# 2 31.0634 40.9919 9.5249 0.0000 0.0000 0.0000
# 3 70.0844 9.5249 164.2959 0.0000 0.0000 0.0000
# 4 0.0000 0.0000 0.0000 21.6000 0.0000 0.0000
# 5 0.0000 0.0000 0.0000 0.0000 99.2544 0.0000
# 6 0.0000 0.0000 0.0000 0.0000 0.0000 13.9814
#
#
#
# Elastic Compliance Matrix: (Units=1/GPa)
#
#
# Indices 1 2 3 4 5 6 
#
# 1 0.008058 -0.005380 -0.003125 0.000000 0.000000 0.000000
# 2 -0.005380 0.028320 0.000653 0.000000 0.000000 0.000000
# 3 -0.003125 0.000653 0.007382 0.000000 0.000000 0.000000
# 4 0.000000 0.000000 0.000000 0.046296 0.000000 0.000000
# 5 0.000000 0.000000 0.000000 0.000000 0.010075 0.000000
# 6 0.000000 0.000000 0.000000 0.000000 0.000000 0.071524
#
#
# Mechanical properties :
#
#
# Convention : Reuss Voigt Hill
#
# Bulk Modulus (GPa) = 35.64362 66.51720 51.08041
# Shear Modulus (GPa) = 25.41786 44.74295 35.08041
#
# Velocity S-wave (km/s) = 3.53610 4.69156 4.15420
# Velocity P-wave (km/s) = 5.84863 7.87845 6.93817
#
# Compressibility (1/GPa) = 0.02805551
#
# Stress axis : x y z
#
# Youngs Moduli (GPa) = 124.09812 35.31033 135.46539
#
# Poissons Ratio (x) = 0.18998 0.42339
# Poissons Ratio (y) = 0.66767 -0.08849
# Poissons Ratio (z) = 0.38787 -0.02306
#
# Static dielectric constant tensor:
#      x y z
#    x 3.689940 0.000000 0.000000 
#    y 0.000000 3.409880 0.000000 
#    z 0.000000 0.000000 3.827520 
# 
# 
# High freq. dielectric constant tensor:
#      x y z
#    x 1.801690 0.000000 0.000000 
#    y 0.000000 1.756130 0.000000 
#    z 0.000000 0.000000 1.811250 
# 
# From -- ./inp_files/26802.got.cif
#   From: 2010.03.12/outbox.cif.g09.slc.cpg/sg66_14_cif.got.tgz:26802.got - 2010.04.10 21:57:39.
