data_PCOD8275939
_publ_section_title
;
Structure prediction by ZEFSAII (Michael W. Deem and Ramdas Pophale) SiO2 
 PCOD8275939
Probable space group: C C C M
;
_chemical_formula_sum "Si O2"
_cell_formula_units_Z 64
_cell_length_a 21.559134
_cell_length_b 8.597210
_cell_length_c 16.204832
_cell_angle_alpha 90.000000
_cell_angle_beta 90.000000
_cell_angle_gamma 90.000000
_cell_volume 3003.539723
_symmetry_space_group_name_H-M "C C C M"
_symmetry_group_IT_number 66
_symmetry_cell_setting 'orthorhombic'
loop_
_space_group_symop_operation_xyz
x,y,z
-x,-y,z
x,-y,1/2-z
-x,y,1/2-z
-x,-y,-z
x,y,-z
-x,y,1/2+z
x,-y,1/2+z
1/2+x,1/2+y,z
1/2-x,1/2-y,z
1/2+x,1/2-y,1/2-z
1/2-x,1/2+y,1/2-z
1/2-x,1/2-y,-z
1/2+x,1/2+y,-z
1/2-x,1/2+y,1/2+z
1/2+x,1/2-y,1/2+z
loop_
_atom_site_type_symbol
_atom_site_label
_atom_site_fract_x
_atom_site_fract_y
_atom_site_fract_z
Si Si1 0.189009 0.902491 0.905385
Si Si2 0.062903 0.937306 0.842261
Si Si3 0.941286 0.398895 0.095306
Si Si4 0.314761 0.062589 0.341767
O O1 0.125457 0.998330 0.888338
O O2 0.250848 0.002194 0.883500
O O3 0.187536 0.750363 0.847081
O O4 0.191038 0.848171 0.000000
O O5 0.059463 0.750782 0.845683
O O6 0.065646 0.000000 0.750000
O O7 0.000000 0.000000 0.885939
O O8 0.877117 0.494490 0.110747
O O9 0.000000 0.500000 0.121830
O O10 0.945551 0.347475 0.000000
O O11 0.318050 0.000000 0.250000
#
# Coordination Sequence:
#
# PCOD8275939 Si02
#       4
#    16  16  16  16
#     4  10  20  37  58  80 110 148 190 231 281 342
#     4  10  21  36  58  88 118 149 190 238 288 338
#     4  10  22  40  61  85 116 155 195 235 285 344
#     4  10  19  32  56  84 110 141 187 238 284 334
#
# _framework density 21.308191000000001
#
# number of rings (size 3 to 8) (size 9 to 14) (size 15 to 20)
#    0.000    2.000    0.000    6.000    0.000   10.500 
#    0.000    0.000    0.000    0.000    0.000   36.750 
#    0.000    0.000    0.000    0.000    0.000    0.000 
#
# Total GULP energy -396474.360034 kJ/mol
# GULP energy per Si atom -12389.823751 kJ/mol
# Density = 2.125969 g / cm^3
# Si number density = 21.308191 Si / 1000 Ang^3
#
#
#
# Elastic Constant Matrix: (Units=GPa)
#
#
# Indices 1 2 3 4 5 6 
#
# 1 282.5119 43.8958 51.1022 0.0000 0.0000 0.0000
# 2 43.8958 49.2250 51.7273 0.0000 0.0000 0.0000
# 3 51.1022 51.7273 121.0716 0.0000 0.0000 0.0000
# 4 0.0000 0.0000 0.0000 26.7769 0.0000 0.0000
# 5 0.0000 0.0000 0.0000 0.0000 37.7859 0.0000
# 6 0.0000 0.0000 0.0000 0.0000 0.0000 30.3018
#
#
#
# Elastic Compliance Matrix: (Units=1/GPa)
#
#
# Indices 1 2 3 4 5 6 
#
# 1 0.004115 -0.003347 -0.000307 0.000000 0.000000 0.000000
# 2 -0.003347 0.039589 -0.015502 0.000000 0.000000 0.000000
# 3 -0.000307 -0.015502 0.015012 0.000000 0.000000 0.000000
# 4 0.000000 0.000000 0.000000 0.037346 0.000000 0.000000
# 5 0.000000 0.000000 0.000000 0.000000 0.026465 0.000000
# 6 0.000000 0.000000 0.000000 0.000000 0.000000 0.033001
#
#
# Mechanical properties :
#
#
# Convention : Reuss Voigt Hill
#
# Bulk Modulus (GPa) = 49.00696 82.91769 65.96232
# Shear Modulus (GPa) = 24.92004 39.37845 32.14925
#
# Velocity S-wave (km/s) = 3.42351 4.30355 3.88851
# Velocity P-wave (km/s) = 6.21903 7.98073 7.15431
#
# Compressibility (1/GPa) = 0.02040527
#
# Stress axis : x y z
#
# Youngs Moduli (GPa) = 242.99734 25.25935 66.61302
#
# Poissons Ratio (x) = 0.08455 0.02044
# Poissons Ratio (y) = 0.81338 1.03260
# Poissons Ratio (z) = 0.07457 0.39156
#
# Static dielectric constant tensor:
#      x y z
#    x 5.417730 0.000000 0.000000 
#    y 0.000000 3.256840 0.000000 
#    z 0.000000 0.000000 3.604390 
# 
# 
# High freq. dielectric constant tensor:
#      x y z
#    x 1.890540 0.000000 0.000000 
#    y 0.000000 1.771180 0.000000 
#    z 0.000000 0.000000 1.824730 
# 
# From -- ./inp_files/24151.got.cif
#   From: 2010.03.12/outbox.cif.g09.slc.cpg/sg66_13_cif.got.tgz:24151.got - 2010.04.10 21:57:39.
