data_PCOD8275157
_publ_section_title
;
Structure prediction by ZEFSAII (Michael W. Deem and Ramdas Pophale) SiO2 
 PCOD8275157
Probable space group: C M M M
;
_chemical_formula_sum "Si O2"
_cell_formula_units_Z 72
_cell_length_a 32.775363
_cell_length_b 13.409579
_cell_length_c 9.755185
_cell_angle_alpha 90.000000
_cell_angle_beta 90.000000
_cell_angle_gamma 90.000000
_cell_volume 4287.441066
_symmetry_space_group_name_H-M "C M M M"
_symmetry_group_IT_number 65
_symmetry_cell_setting 'orthorhombic'
loop_
_space_group_symop_operation_xyz
x,y,z
-x,-y,z
x,-y,-z
-x,y,-z
-x,-y,-z
x,y,-z
-x,y,z
x,-y,z
1/2+x,1/2+y,z
1/2-x,1/2-y,z
1/2+x,1/2-y,-z
1/2-x,1/2+y,-z
1/2-x,1/2-y,-z
1/2+x,1/2+y,-z
1/2-x,1/2+y,z
1/2+x,1/2-y,z
loop_
_atom_site_type_symbol
_atom_site_label
_atom_site_fract_x
_atom_site_fract_y
_atom_site_fract_z
Si Si1 0.915787 0.206517 0.339842
Si Si2 0.641633 0.885870 0.659118
Si Si3 0.143887 0.109958 0.850276
Si Si4 0.000000 0.115140 0.338165
Si Si5 0.205526 0.719049 0.157725
O O1 0.911674 0.188620 0.500000
O O2 0.897478 0.316131 0.299837
O O3 0.889674 0.122463 0.265772
O O4 0.961874 0.183985 0.290341
O O5 0.652948 0.869087 0.500000
O O6 0.682106 0.862159 0.748494
O O7 0.628505 0.000000 0.687055
O O8 0.182163 0.178586 0.826359
O O9 0.161963 0.000000 0.840889
O O10 0.123968 0.130847 0.000000
O O11 0.000000 0.104213 0.500000
O O12 0.000000 0.000000 0.278191
O O13 0.250000 0.750000 0.213198
O O14 0.207170 0.680244 0.000000
#
# Coordination Sequence:
#
# PCOD8275157 Si02
#       5
#    16  16  16   8  16
#     4   9  17  30  47  66  89 117 150 185 221 267
#     4   9  18  32  48  66  91 123 156 190 228 268
#     4   9  17  29  44  63  89 117 143 177 222 268
#     4   9  16  26  44  70  94 115 145 187 230 271
#     4   9  18  31  47  68  91 116 150 189 226 267
#
# _framework density 16.793234000000002
#
# number of rings (size 3 to 8) (size 9 to 14) (size 15 to 20)
#    0.000    3.000    0.000    0.667    0.000    3.111 
#    0.000    3.333    0.000    5.333    0.000    0.000 
#    0.000    7.111    0.000    0.000    0.000    0.000 
#
# Total GULP energy -446000.231100 kJ/mol
# GULP energy per Si atom -12388.895308 kJ/mol
# Density = 1.675501 g / cm^3
# Si number density = 16.793234 Si / 1000 Ang^3
#
#
#
# Elastic Constant Matrix: (Units=GPa)
#
#
# Indices 1 2 3 4 5 6 
#
# 1 124.4485 52.8727 38.8565 0.0000 0.0000 0.0000
# 2 52.8727 99.5826 33.8550 0.0000 0.0000 0.0000
# 3 38.8565 33.8550 41.0302 0.0000 0.0000 0.0000
# 4 0.0000 0.0000 0.0000 18.7551 0.0000 0.0000
# 5 0.0000 0.0000 0.0000 0.0000 16.9115 0.0000
# 6 0.0000 0.0000 0.0000 0.0000 0.0000 13.5067
#
#
#
# Elastic Compliance Matrix: (Units=1/GPa)
#
#
# Indices 1 2 3 4 5 6 
#
# 1 0.012254 -0.003559 -0.008668 0.000000 0.000000 0.000000
# 2 -0.003559 0.014991 -0.008999 0.000000 0.000000 0.000000
# 3 -0.008668 -0.008999 0.040006 0.000000 0.000000 0.000000
# 4 0.000000 0.000000 0.000000 0.053319 0.000000 0.000000
# 5 0.000000 0.000000 0.000000 0.000000 0.059131 0.000000
# 6 0.000000 0.000000 0.000000 0.000000 0.000000 0.074037
#
#
# Mechanical properties :
#
#
# Convention : Reuss Voigt Hill
#
# Bulk Modulus (GPa) = 40.32394 57.35886 48.84140
# Shear Modulus (GPa) = 16.42270 19.13313 17.77791
#
# Velocity S-wave (km/s) = 3.13059 3.37907 3.25720
# Velocity P-wave (km/s) = 6.09357 7.03237 6.57973
#
# Compressibility (1/GPa) = 0.02479916
#
# Stress axis : x y z
#
# Youngs Moduli (GPa) = 81.60556 66.70678 24.99629
#
# Poissons Ratio (x) = 0.23743 0.21667
# Poissons Ratio (y) = 0.29047 0.22493
# Poissons Ratio (z) = 0.70735 0.60027
#
# Static dielectric constant tensor:
#      x y z
#    x 3.334730 0.000000 0.000000 
#    y 0.000000 3.223440 0.000000 
#    z 0.000000 0.000000 3.237830 
# 
# 
# High freq. dielectric constant tensor:
#      x y z
#    x 1.638430 0.000000 0.000000 
#    y 0.000000 1.647140 0.000000 
#    z 0.000000 0.000000 1.637190 
# 
# From -- ./inp_files/7666.got.cif
#   From: 2010.03.12/outbox.cif.g09.slc.cpg/sg65_4_cif.got.tgz:7666.got - 2010.04.10 20:52:16.
