data_PCOD8275864
_publ_section_title
;
Structure prediction by ZEFSAII (Michael W. Deem and Ramdas Pophale) SiO2 
 PCOD8275864
Probable space group: C C C M
;
_chemical_formula_sum "Si O2"
_cell_formula_units_Z 112
_cell_length_a 22.476744
_cell_length_b 14.762106
_cell_length_c 16.221965
_cell_angle_alpha 90.000000
_cell_angle_beta 90.000000
_cell_angle_gamma 90.000000
_cell_volume 5382.514131
_symmetry_space_group_name_H-M "C C C M"
_symmetry_group_IT_number 66
_symmetry_cell_setting 'orthorhombic'
loop_
_space_group_symop_operation_xyz
x,y,z
-x,-y,z
x,-y,1/2-z
-x,y,1/2-z
-x,-y,-z
x,y,-z
-x,y,1/2+z
x,-y,1/2+z
1/2+x,1/2+y,z
1/2-x,1/2-y,z
1/2+x,1/2-y,1/2-z
1/2-x,1/2+y,1/2-z
1/2-x,1/2-y,-z
1/2+x,1/2+y,-z
1/2-x,1/2+y,1/2+z
1/2+x,1/2-y,1/2+z
loop_
_atom_site_type_symbol
_atom_site_label
_atom_site_fract_x
_atom_site_fract_y
_atom_site_fract_z
Si Si1 0.130988 0.461218 0.401479
Si Si2 0.754303 0.647223 0.598270
Si Si3 0.400450 0.349775 0.902175
Si Si4 0.978503 0.352950 0.842298
Si Si5 0.394464 0.846010 0.593590
Si Si6 0.141443 0.962366 0.098181
Si Si7 0.964536 0.836950 0.402959
O O1 0.125755 0.457459 0.500000
O O2 0.185465 0.400067 0.369596
O O3 0.069678 0.428902 0.361962
O O4 0.139698 0.565855 0.369802
O O5 0.752865 0.647902 0.500000
O O6 0.750000 0.750000 0.631970
O O7 0.699192 0.588744 0.633490
O O8 0.379349 0.252037 0.863815
O O9 0.361075 0.433665 0.868170
O O10 0.469210 0.369112 0.879480
O O11 0.394798 0.343944 0.000000
O O12 0.948065 0.255262 0.855471
O O13 0.000000 0.366636 0.750000
O O14 0.034618 0.361996 0.903059
O O15 0.374426 0.838215 0.500000
O O16 0.081935 0.911874 0.128313
O O17 0.143430 0.963802 0.000000
O O18 0.957348 0.819138 0.500000
#
# Coordination Sequence:
#
# PCOD8275864 Si02
#       7
#    16  16  16  16  16  16  16
#     4  10  19  32  49  70 100 134 163 197 247 297
#     4   9  17  28  44  71 103 130 161 201 239 283
#     4   8  14  25  43  70 100 128 161 199 238 282
#     4  11  21  31  47  73  99 126 161 204 250 297
#     4   9  18  32  49  69  95 127 161 199 245 297
#     4   9  15  25  46  75 103 130 164 204 241 284
#     4   9  16  28  48  74 104 134 161 197 248 297
#
# _framework density 20.808121
#
# number of rings (size 3 to 8) (size 9 to 14) (size 15 to 20)
#    0.000    2.714    0.000    3.857    0.000    6.286 
#    0.000    0.714    0.000   11.143    0.000   20.000 
#    0.000    0.000    0.000    0.000    0.000    1.286 
#
# Total GULP energy -693937.787624 kJ/mol
# GULP energy per Si atom -12391.746208 kJ/mol
# Density = 2.076076 g / cm^3
# Si number density = 20.808121 Si / 1000 Ang^3
#
#
#
# Elastic Constant Matrix: (Units=GPa)
#
#
# Indices 1 2 3 4 5 6 
#
# 1 83.6707 84.4132 4.2390 0.0000 0.0000 0.0000
# 2 84.4132 224.5236 11.4241 0.0000 0.0000 0.0000
# 3 4.2390 11.4241 15.4915 0.0000 0.0000 0.0000
# 4 0.0000 0.0000 0.0000 5.5289 0.0000 0.0000
# 5 0.0000 0.0000 0.0000 0.0000 8.3222 0.0000
# 6 0.0000 0.0000 0.0000 0.0000 0.0000 37.3990
#
#
#
# Elastic Compliance Matrix: (Units=1/GPa)
#
#
# Indices 1 2 3 4 5 6 
#
# 1 0.019255 -0.007243 0.000072 0.000000 0.000000 0.000000
# 2 -0.007243 0.007352 -0.003440 0.000000 0.000000 0.000000
# 3 0.000072 -0.003440 0.067068 0.000000 0.000000 0.000000
# 4 0.000000 0.000000 0.000000 0.180869 0.000000 0.000000
# 5 0.000000 0.000000 0.000000 0.000000 0.120160 0.000000
# 6 0.000000 0.000000 0.000000 0.000000 0.000000 0.026739
#
#
# Mechanical properties :
#
#
# Convention : Reuss Voigt Hill
#
# Bulk Modulus (GPa) = 13.80169 58.20428 36.00299
# Shear Modulus (GPa) = 10.71086 25.15730 17.93408
#
# Velocity S-wave (km/s) = 2.27126 3.48086 2.93896
# Velocity P-wave (km/s) = 3.67769 6.64739 5.37183
#
# Compressibility (1/GPa) = 0.07245487
#
# Stress axis : x y z
#
# Youngs Moduli (GPa) = 51.93399 136.01722 14.91015
#
# Poissons Ratio (x) = 0.98517 -0.00108
# Poissons Ratio (y) = 0.37616 0.05129
# Poissons Ratio (z) = -0.00376 0.46787
#
# Static dielectric constant tensor:
#      x y z
#    x 3.657810 0.000000 0.000000 
#    y 0.000000 4.440730 0.000000 
#    z 0.000000 0.000000 3.095990 
# 
# 
# High freq. dielectric constant tensor:
#      x y z
#    x 1.787540 0.000000 0.000000 
#    y 0.000000 1.842060 0.000000 
#    z 0.000000 0.000000 1.749600 
# 
# From -- ./inp_files/32477.got.cif
#   From: 2010.03.12/outbox.cif.g09.slc.cpg/sg66_17_cif.got.tgz:32477.got - 2010.04.10 21:57:39.
