data_PCOD8275690
_publ_section_title
;
Structure prediction by ZEFSAII (Michael W. Deem and Ramdas Pophale) SiO2 
 PCOD8275690
Probable space group: C C C M
;
_chemical_formula_sum "Si O2"
_cell_formula_units_Z 104
_cell_length_a 22.589414
_cell_length_b 10.139638
_cell_length_c 25.107521
_cell_angle_alpha 90.000000
_cell_angle_beta 90.000000
_cell_angle_gamma 90.000000
_cell_volume 5750.839536
_symmetry_space_group_name_H-M "C C C M"
_symmetry_group_IT_number 66
_symmetry_cell_setting 'orthorhombic'
loop_
_space_group_symop_operation_xyz
x,y,z
-x,-y,z
x,-y,1/2-z
-x,y,1/2-z
-x,-y,-z
x,y,-z
-x,y,1/2+z
x,-y,1/2+z
1/2+x,1/2+y,z
1/2-x,1/2-y,z
1/2+x,1/2-y,1/2-z
1/2-x,1/2+y,1/2-z
1/2-x,1/2-y,-z
1/2+x,1/2+y,-z
1/2-x,1/2+y,1/2+z
1/2+x,1/2-y,1/2+z
loop_
_atom_site_type_symbol
_atom_site_label
_atom_site_fract_x
_atom_site_fract_y
_atom_site_fract_z
Si Si1 0.367753 0.284386 0.625551
Si Si2 0.750000 0.750000 0.197886
Si Si3 0.832480 0.538409 0.562545
Si Si4 0.735485 0.488710 0.858155
Si Si5 0.950039 0.403049 0.437753
Si Si6 0.831555 0.373744 0.220596
Si Si7 0.479895 0.649266 0.939527
O O1 0.342445 0.188948 0.580092
O O2 0.324753 0.408953 0.632775
O O3 0.376244 0.206444 0.682019
O O4 0.430531 0.334793 0.605300
O O5 0.722483 0.634276 0.162403
O O6 0.807360 0.716352 0.232488
O O7 0.826651 0.530200 0.500000
O O8 0.770520 0.491355 0.586695
O O9 0.885731 0.444815 0.585385
O O10 0.775221 0.413223 0.815089
O O11 0.946442 0.431637 0.500000
O O12 0.000000 0.500000 0.412841
O O13 0.966316 0.250394 0.425832
O O14 0.862042 0.500000 0.250000
O O15 0.500000 0.500000 0.935991
O O16 0.457173 0.680423 0.000000
#
# Coordination Sequence:
#
# PCOD8275690 Si02
#       7
#    16   8  16  16  16  16  16
#     4  11  19  32  52  82 109 139 180 227 278 336
#     4  10  18  36  53  72 109 142 176 226 264 328
#     4  10  19  32  52  79 111 140 176 225 266 324
#     4  10  21  31  52  85 108 138 178 212 283 344
#     4   9  16  31  53  72  97 145 194 221 253 305
#     4   9  17  32  54  79 105 128 175 226 269 322
#     4  10  21  35  53  80 114 153 192 228 271 329
#
# _framework density 18.084316000000001
#
# number of rings (size 3 to 8) (size 9 to 14) (size 15 to 20)
#    0.000    2.154    3.077    1.846    0.000    3.077 
#    0.000    0.385    0.000    0.000    0.000   39.846 
#    0.000    0.000    0.000    0.000    0.000    0.000 
#
# Total GULP energy -644469.912022 kJ/mol
# GULP energy per Si atom -12393.652154 kJ/mol
# Density = 1.804316 g / cm^3
# Si number density = 18.084316 Si / 1000 Ang^3
#
#
#
# Elastic Constant Matrix: (Units=GPa)
#
#
# Indices 1 2 3 4 5 6 
#
# 1 62.1408 41.0357 46.6516 0.0000 0.0000 0.0000
# 2 41.0357 132.1283 54.3608 0.0000 0.0000 0.0000
# 3 46.6516 54.3608 94.6915 0.0000 0.0000 0.0000
# 4 0.0000 0.0000 0.0000 24.5438 0.0000 0.0000
# 5 0.0000 0.0000 0.0000 0.0000 24.1052 0.0000
# 6 0.0000 0.0000 0.0000 0.0000 0.0000 26.8629
#
#
#
# Elastic Compliance Matrix: (Units=1/GPa)
#
#
# Indices 1 2 3 4 5 6 
#
# 1 0.026922 -0.003802 -0.011081 0.000000 0.000000 0.000000
# 2 -0.003802 0.010446 -0.004123 0.000000 0.000000 0.000000
# 3 -0.011081 -0.004123 0.018387 0.000000 0.000000 0.000000
# 4 0.000000 0.000000 0.000000 0.040743 0.000000 0.000000
# 5 0.000000 0.000000 0.000000 0.000000 0.041485 0.000000
# 6 0.000000 0.000000 0.000000 0.000000 0.000000 0.037226
#
#
# Mechanical properties :
#
#
# Convention : Reuss Voigt Hill
#
# Bulk Modulus (GPa) = 56.36449 63.67298 60.01874
# Shear Modulus (GPa) = 22.81676 24.89654 23.85665
#
# Velocity S-wave (km/s) = 3.55588 3.71441 3.63601
# Velocity P-wave (km/s) = 6.93501 7.32674 7.13356
#
# Compressibility (1/GPa) = 0.01774167
#
# Stress axis : x y z
#
# Youngs Moduli (GPa) = 37.14377 95.73204 54.38616
#
# Poissons Ratio (x) = 0.36402 0.60265
# Poissons Ratio (y) = 0.14124 0.22426
# Poissons Ratio (z) = 0.41159 0.39474
#
# Static dielectric constant tensor:
#      x y z
#    x 3.217450 0.000000 0.000000 
#    y 0.000000 3.553320 0.000000 
#    z 0.000000 0.000000 3.440290 
# 
# 
# High freq. dielectric constant tensor:
#      x y z
#    x 1.665660 0.000000 0.000000 
#    y 0.000000 1.711160 0.000000 
#    z 0.000000 0.000000 1.691270 
# 
# From -- ./inp_files/65730.got.cif
#   From: 2010.03.12/outbox.cif.g09.slc.cpg/sg66_33_cif.got.tgz:65730.got - 2010.04.10 21:57:39.
