data_PCOD8275815
_publ_section_title
;
Structure prediction by ZEFSAII (Michael W. Deem and Ramdas Pophale) SiO2 
 PCOD8275815
Probable space group: C C C M
;
_chemical_formula_sum "Si O2"
_cell_formula_units_Z 80
_cell_length_a 12.074210
_cell_length_b 21.659213
_cell_length_c 19.169464
_cell_angle_alpha 90.000000
_cell_angle_beta 90.000000
_cell_angle_gamma 90.000000
_cell_volume 5013.157705
_symmetry_space_group_name_H-M "C C C M"
_symmetry_group_IT_number 66
_symmetry_cell_setting 'orthorhombic'
loop_
_space_group_symop_operation_xyz
x,y,z
-x,-y,z
x,-y,1/2-z
-x,y,1/2-z
-x,-y,-z
x,y,-z
-x,y,1/2+z
x,-y,1/2+z
1/2+x,1/2+y,z
1/2-x,1/2-y,z
1/2+x,1/2-y,1/2-z
1/2-x,1/2+y,1/2-z
1/2-x,1/2-y,-z
1/2+x,1/2+y,-z
1/2-x,1/2+y,1/2+z
1/2+x,1/2-y,1/2+z
loop_
_atom_site_type_symbol
_atom_site_label
_atom_site_fract_x
_atom_site_fract_y
_atom_site_fract_z
Si Si1 0.001629 0.100002 0.669789
Si Si2 0.160245 0.668580 0.417778
Si Si3 0.819276 0.001587 0.169513
Si Si4 0.113020 0.532968 0.582425
Si Si5 0.904535 0.799639 0.917615
O O1 0.998014 0.161091 0.622109
O O2 0.000000 0.120374 0.750000
O O3 0.115236 0.064545 0.652995
O O4 0.897828 0.056151 0.652300
O O5 0.168340 0.669917 0.500000
O O6 0.107035 0.604343 0.391828
O O7 0.085465 0.727408 0.395069
O O8 0.285610 0.675640 0.390543
O O9 0.782073 0.000000 0.250000
O O10 0.712679 0.001731 0.120460
O O11 0.133802 0.528537 0.500000
O O12 0.000000 0.500000 0.604668
O O13 0.920884 0.808561 0.000000
#
# Coordination Sequence:
#
# PCOD8275815 Si02
#       5
#    16  16  16  16  16
#     4   9  17  29  47  69  96 123 149 194 243 281
#     4   8  15  27  45  71  93 115 151 188 230 270
#     4   9  18  31  46  67  94 125 155 188 240 286
#     4  10  19  31  49  70  94 123 157 196 230 274
#     4   9  15  26  48  71  93 120 151 193 235 274
#
# _framework density 15.958005999999999
#
# number of rings (size 3 to 8) (size 9 to 14) (size 15 to 20)
#    0.000    3.000    2.000    2.400    0.000    1.200 
#    0.000    2.000    4.400    1.200    0.000    5.600 
#    0.000    0.000    0.000    0.000    0.000    0.000 
#
# Total GULP energy -495787.354865 kJ/mol
# GULP energy per Si atom -12394.683872 kJ/mol
# Density = 1.592168 g / cm^3
# Si number density = 15.958006 Si / 1000 Ang^3
#
#
#
# Elastic Constant Matrix: (Units=GPa)
#
#
# Indices 1 2 3 4 5 6 
#
# 1 94.8979 59.7458 45.8633 0.0000 0.0000 0.0000
# 2 59.7458 132.1855 46.2603 0.0000 0.0000 0.0000
# 3 45.8633 46.2603 51.3616 0.0000 0.0000 0.0000
# 4 0.0000 0.0000 0.0000 15.0722 0.0000 0.0000
# 5 0.0000 0.0000 0.0000 0.0000 22.4181 0.0000
# 6 0.0000 0.0000 0.0000 0.0000 0.0000 24.7240
#
#
#
# Elastic Compliance Matrix: (Units=1/GPa)
#
#
# Indices 1 2 3 4 5 6 
#
# 1 0.019925 -0.004058 -0.014137 0.000000 0.000000 0.000000
# 2 -0.004058 0.011874 -0.007071 0.000000 0.000000 0.000000
# 3 -0.014137 -0.007071 0.038461 0.000000 0.000000 0.000000
# 4 0.000000 0.000000 0.000000 0.066347 0.000000 0.000000
# 5 0.000000 0.000000 0.000000 0.000000 0.044607 0.000000
# 6 0.000000 0.000000 0.000000 0.000000 0.000000 0.040447
#
#
# Mechanical properties :
#
#
# Convention : Reuss Voigt Hill
#
# Bulk Modulus (GPa) = 50.68686 64.68710 57.68698
# Shear Modulus (GPa) = 17.93605 20.88123 19.40864
#
# Velocity S-wave (km/s) = 3.35618 3.62126 3.49124
# Velocity P-wave (km/s) = 6.84472 7.62289 7.24426
#
# Compressibility (1/GPa) = 0.01972898
#
# Stress axis : x y z
#
# Youngs Moduli (GPa) = 50.18877 84.21797 26.00009
#
# Poissons Ratio (x) = 0.34179 0.36755
# Poissons Ratio (y) = 0.20369 0.18384
# Poissons Ratio (z) = 0.70949 0.59548
#
# Static dielectric constant tensor:
#      x y z
#    x 2.787080 0.000000 0.000000 
#    y 0.000000 3.350880 0.000000 
#    z 0.000000 0.000000 2.773730 
# 
# 
# High freq. dielectric constant tensor:
#      x y z
#    x 1.585400 0.000000 0.000000 
#    y 0.000000 1.618700 0.000000 
#    z 0.000000 0.000000 1.591510 
# 
# From -- ./inp_files/26398.got.cif
#   From: 2010.03.12/outbox.cif.g09.slc.cpg/sg66_14_cif.got.tgz:26398.got - 2010.04.10 21:57:39.
