data_PCOD8275442
_publ_section_title
;
Structure prediction by ZEFSAII (Michael W. Deem and Ramdas Pophale) SiO2 
 PCOD8275442
Probable space group: C C C M
;
_chemical_formula_sum "Si O2"
_cell_formula_units_Z 80
_cell_length_a 18.011614
_cell_length_b 27.558371
_cell_length_c 9.502599
_cell_angle_alpha 90.000000
_cell_angle_beta 90.000000
_cell_angle_gamma 90.000000
_cell_volume 4716.812106
_symmetry_space_group_name_H-M "C C C M"
_symmetry_group_IT_number 66
_symmetry_cell_setting 'orthorhombic'
loop_
_space_group_symop_operation_xyz
x,y,z
-x,-y,z
x,-y,1/2-z
-x,y,1/2-z
-x,-y,-z
x,y,-z
-x,y,1/2+z
x,-y,1/2+z
1/2+x,1/2+y,z
1/2-x,1/2-y,z
1/2+x,1/2-y,1/2-z
1/2-x,1/2+y,1/2-z
1/2-x,1/2-y,-z
1/2+x,1/2+y,-z
1/2-x,1/2+y,1/2+z
1/2+x,1/2-y,1/2+z
loop_
_atom_site_type_symbol
_atom_site_label
_atom_site_fract_x
_atom_site_fract_y
_atom_site_fract_z
Si Si1 0.865147 0.310208 0.666445
Si Si2 0.272212 0.953498 0.336240
Si Si3 0.285566 0.648069 0.333414
Si Si4 0.426543 0.708245 0.667574
Si Si5 0.569087 0.088864 0.337375
O O1 0.860204 0.305888 0.500000
O O2 0.781728 0.318592 0.726944
O O3 0.900324 0.260719 0.725425
O O4 0.915933 0.355692 0.710465
O O5 0.258351 0.963589 0.500000
O O6 0.223762 0.907530 0.282531
O O7 0.358850 0.943496 0.306470
O O8 0.245182 0.000000 0.250000
O O9 0.277099 0.648521 0.500000
O O10 0.364433 0.669246 0.286643
O O11 0.500000 0.692655 0.750000
O O12 0.440414 0.708088 0.500000
O O13 0.500000 0.067792 0.250000
O O14 0.547409 0.086678 0.500000
#
# Coordination Sequence:
#
# PCOD8275442 Si02
#       5
#    16  16  16  16  16
#     4   8  14  26  45  67  89 118 154 181 203 244
#     4   9  18  32  48  65  84 110 148 189 224 258
#     4   8  15  29  48  67  87 115 151 184 212 253
#     4  10  18  28  46  70  94 118 144 177 217 260
#     4   9  17  28  42  63  92 120 146 178 213 253
#
# _framework density 16.960607
#
# number of rings (size 3 to 8) (size 9 to 14) (size 15 to 20)
#    0.000    3.200    0.000    3.600    0.000    3.600 
#    0.000    3.000    0.000    5.400    0.000    4.200 
#    0.000    0.000    0.000    0.000    0.000    0.000 
#
# Total GULP energy -495795.912069 kJ/mol
# GULP energy per Si atom -12394.897802 kJ/mol
# Density = 1.692200 g / cm^3
# Si number density = 16.960607 Si / 1000 Ang^3
#
#
#
# Elastic Constant Matrix: (Units=GPa)
#
#
# Indices 1 2 3 4 5 6 
#
# 1 92.6903 35.0456 27.7437 0.0000 0.0000 0.0000
# 2 35.0456 85.2407 22.9245 0.0000 0.0000 0.0000
# 3 27.7437 22.9245 28.4528 0.0000 0.0000 0.0000
# 4 0.0000 0.0000 0.0000 20.9300 0.0000 0.0000
# 5 0.0000 0.0000 0.0000 0.0000 23.3757 0.0000
# 6 0.0000 0.0000 0.0000 0.0000 0.0000 12.6093
#
#
#
# Elastic Compliance Matrix: (Units=1/GPa)
#
#
# Indices 1 2 3 4 5 6 
#
# 1 0.015816 -0.003007 -0.013000 0.000000 0.000000 0.000000
# 2 -0.003007 0.015548 -0.009596 0.000000 0.000000 0.000000
# 3 -0.013000 -0.009596 0.055553 0.000000 0.000000 0.000000
# 4 0.000000 0.000000 0.000000 0.047778 0.000000 0.000000
# 5 0.000000 0.000000 0.000000 0.000000 0.042779 0.000000
# 6 0.000000 0.000000 0.000000 0.000000 0.000000 0.079307
#
#
# Mechanical properties :
#
#
# Convention : Reuss Voigt Hill
#
# Bulk Modulus (GPa) = 28.00050 41.97906 34.98978
# Shear Modulus (GPa) = 15.63031 19.42765 17.52898
#
# Velocity S-wave (km/s) = 3.03902 3.38813 3.21831
# Velocity P-wave (km/s) = 5.37208 6.33329 5.87238
#
# Compressibility (1/GPa) = 0.03571364
#
# Stress axis : x y z
#
# Youngs Moduli (GPa) = 63.22519 64.31600 18.00076
#
# Poissons Ratio (x) = 0.19337 0.23401
# Poissons Ratio (y) = 0.19009 0.17273
# Poissons Ratio (z) = 0.82192 0.61715
#
# Static dielectric constant tensor:
#      x y z
#    x 3.188260 0.000000 0.000000 
#    y 0.000000 3.290260 0.000000 
#    z 0.000000 0.000000 2.709890 
# 
# 
# High freq. dielectric constant tensor:
#      x y z
#    x 1.644470 0.000000 0.000000 
#    y 0.000000 1.653860 0.000000 
#    z 0.000000 0.000000 1.609150 
# 
# From -- ./inp_files/6667.got.cif
#   From: 2010.03.12/outbox.cif.g09.slc.cpg/sg66_4_cif.got.tgz:6667.got - 2010.04.10 21:57:39.
