data_PCOD8275732
_publ_section_title
;
Structure prediction by ZEFSAII (Michael W. Deem and Ramdas Pophale) SiO2 
 PCOD8275732
Probable space group: C C C M
;
_chemical_formula_sum "Si O2"
_cell_formula_units_Z 68
_cell_length_a 17.538001
_cell_length_b 27.768141
_cell_length_c 9.268542
_cell_angle_alpha 90.000000
_cell_angle_beta 90.000000
_cell_angle_gamma 90.000000
_cell_volume 4513.758494
_symmetry_space_group_name_H-M "C C C M"
_symmetry_group_IT_number 66
_symmetry_cell_setting 'orthorhombic'
loop_
_space_group_symop_operation_xyz
x,y,z
-x,-y,z
x,-y,1/2-z
-x,y,1/2-z
-x,-y,-z
x,y,-z
-x,y,1/2+z
x,-y,1/2+z
1/2+x,1/2+y,z
1/2-x,1/2-y,z
1/2+x,1/2-y,1/2-z
1/2-x,1/2+y,1/2-z
1/2-x,1/2-y,-z
1/2+x,1/2+y,-z
1/2-x,1/2+y,1/2+z
1/2+x,1/2-y,1/2+z
loop_
_atom_site_type_symbol
_atom_site_label
_atom_site_fract_x
_atom_site_fract_y
_atom_site_fract_z
Si Si1 0.196649 0.147041 0.332480
Si Si2 0.077932 0.231623 0.668663
Si Si3 0.352794 0.456836 0.659728
Si Si4 0.000000 0.000000 0.750000
Si Si5 0.309548 0.206855 0.163476
O O1 0.220373 0.145968 0.500000
O O2 0.128931 0.184583 0.308269
O O3 0.167287 0.095330 0.275259
O O4 0.270609 0.160760 0.238621
O O5 0.064190 0.242486 0.500000
O O6 0.117257 0.278019 0.742381
O O7 0.000000 0.220814 0.750000
O O8 0.313090 0.500000 0.750000
O O9 0.319573 0.459998 0.500000
O O10 0.444871 0.465074 0.656189
O O11 0.250000 0.250000 0.163050
O O12 0.334297 0.193824 0.000000
#
# Coordination Sequence:
#
# PCOD8275732 Si02
#       5
#    16  16  16   4  16
#     4   9  18  31  44  61  85 117 150 181 220 259
#     4  10  19  29  44  64  88 115 144 181 219 260
#     4   9  18  29  42  59  83 113 147 182 216 252
#     4   8  18  28  42  56  86 116 144 180 218 252
#     4   9  17  30  45  62  83 110 144 181 218 260
#
# _framework density 15.065049999999999
#
# number of rings (size 3 to 8) (size 9 to 14) (size 15 to 20)
#    0.706    2.118    0.000    1.765    1.647    4.706 
#    0.000    0.000    0.000    0.000    0.000    0.000 
#    0.000    0.941    0.000    9.882    0.000    5.412 
#
# Total GULP energy -421341.623776 kJ/mol
# GULP energy per Si atom -12392.400699 kJ/mol
# Density = 1.503076 g / cm^3
# Si number density = 15.065050 Si / 1000 Ang^3
#
#
#
# Elastic Constant Matrix: (Units=GPa)
#
#
# Indices 1 2 3 4 5 6 
#
# 1 38.6262 37.6743 39.5920 0.0000 0.0000 0.0000
# 2 37.6743 108.0265 47.9639 0.0000 0.0000 0.0000
# 3 39.5920 47.9639 103.5684 0.0000 0.0000 0.0000
# 4 0.0000 0.0000 0.0000 23.5445 0.0000 0.0000
# 5 0.0000 0.0000 0.0000 0.0000 26.2601 0.0000
# 6 0.0000 0.0000 0.0000 0.0000 0.0000 23.6421
#
#
#
# Elastic Compliance Matrix: (Units=1/GPa)
#
#
# Indices 1 2 3 4 5 6 
#
# 1 0.052266 -0.011778 -0.014525 0.000000 0.000000 0.000000
# 2 -0.011778 0.014308 -0.002123 0.000000 0.000000 0.000000
# 3 -0.014525 -0.002123 0.016192 0.000000 0.000000 0.000000
# 4 0.000000 0.000000 0.000000 0.042473 0.000000 0.000000
# 5 0.000000 0.000000 0.000000 0.000000 0.038081 0.000000
# 6 0.000000 0.000000 0.000000 0.000000 0.000000 0.042297
#
#
# Mechanical properties :
#
#
# Convention : Reuss Voigt Hill
#
# Bulk Modulus (GPa) = 38.59426 55.63128 47.11277
# Shear Modulus (GPa) = 18.44290 23.02206 20.73248
#
# Velocity S-wave (km/s) = 3.50268 3.91343 3.71374
# Velocity P-wave (km/s) = 6.48324 7.57809 7.05194
#
# Compressibility (1/GPa) = 0.02591059
#
# Stress axis : x y z
#
# Youngs Moduli (GPa) = 19.13293 69.89334 61.76067
#
# Poissons Ratio (x) = 0.82324 0.89710
# Poissons Ratio (y) = 0.22536 0.13114
# Poissons Ratio (z) = 0.27791 0.14841
#
# Static dielectric constant tensor:
#      x y z
#    x 2.669530 0.000000 0.000000 
#    y 0.000000 2.839010 0.000000 
#    z 0.000000 0.000000 2.995170 
# 
# 
# High freq. dielectric constant tensor:
#      x y z
#    x 1.542970 0.000000 0.000000 
#    y 0.000000 1.558410 0.000000 
#    z 0.000000 0.000000 1.588070 
# 
# From -- ./inp_files/6825.got.cif
#   From: 2010.03.12/outbox.cif.g09.slc.cpg/sg66_4_cif.got.tgz:6825.got - 2010.04.10 21:57:39.
