data_PCOD8275516
_publ_section_title
;
Structure prediction by ZEFSAII (Michael W. Deem and Ramdas Pophale) SiO2 
 PCOD8275516
Probable space group: C C C M
;
_chemical_formula_sum "Si O2"
_cell_formula_units_Z 96
_cell_length_a 18.449959
_cell_length_b 9.746351
_cell_length_c 27.907208
_cell_angle_alpha 90.000000
_cell_angle_beta 90.000000
_cell_angle_gamma 90.000000
_cell_volume 5018.267901
_symmetry_space_group_name_H-M "C C C M"
_symmetry_group_IT_number 66
_symmetry_cell_setting 'orthorhombic'
loop_
_space_group_symop_operation_xyz
x,y,z
-x,-y,z
x,-y,1/2-z
-x,y,1/2-z
-x,-y,-z
x,y,-z
-x,y,1/2+z
x,-y,1/2+z
1/2+x,1/2+y,z
1/2-x,1/2-y,z
1/2+x,1/2-y,1/2-z
1/2-x,1/2+y,1/2-z
1/2-x,1/2-y,-z
1/2+x,1/2+y,-z
1/2-x,1/2+y,1/2+z
1/2+x,1/2-y,1/2+z
loop_
_atom_site_type_symbol
_atom_site_label
_atom_site_fract_x
_atom_site_fract_y
_atom_site_fract_z
Si Si1 0.964414 0.859146 0.397686
Si Si2 0.335303 0.480879 0.445535
Si Si3 0.087801 0.273258 0.053471
Si Si4 0.494569 0.221414 0.695963
Si Si5 0.789127 0.604773 0.112605
Si Si6 0.879992 0.517136 0.803887
O O1 0.975017 0.843948 0.340408
O O2 0.007496 0.734791 0.423407
O O3 0.881487 0.865917 0.416231
O O4 0.000000 0.000000 0.414508
O O5 0.321455 0.429849 0.500000
O O6 0.375586 0.625161 0.446580
O O7 0.260158 0.500938 0.417725
O O8 0.136912 0.377454 0.083168
O O9 0.080333 0.331203 0.000000
O O10 0.500000 0.279539 0.750000
O O11 0.573104 0.154451 0.686543
O O12 0.431292 0.112103 0.687014
O O13 0.750000 0.750000 0.123290
O O14 0.809895 0.527233 0.161925
O O15 0.850244 0.500000 0.750000
#
# Coordination Sequence:
#
# PCOD8275516 Si02
#       6
#    16  16  16  16  16  16
#     4  10  18  30  51  79 108 135 172 223 270 313
#     4   9  18  30  47  76 111 142 171 210 271 321
#     4   9  16  28  50  76 103 138 180 220 254 305
#     4   9  18  34  56  76  97 135 179 223 263 312
#     4  10  18  31  53  77 105 136 178 224 259 311
#     4   9  18  35  56  75  97 134 181 220 262 310
#
# _framework density 19.130106000000001
#
# number of rings (size 3 to 8) (size 9 to 14) (size 15 to 20)
#    0.000    2.667    1.667    2.000    0.000    4.333 
#    0.000    4.167    0.000    6.000    0.000    0.000 
#    0.000    0.000    0.000    0.000    0.000    0.000 
#
# Total GULP energy -594892.157369 kJ/mol
# GULP energy per Si atom -12393.586612 kJ/mol
# Density = 1.908656 g / cm^3
# Si number density = 19.130106 Si / 1000 Ang^3
#
#
#
# Elastic Constant Matrix: (Units=GPa)
#
#
# Indices 1 2 3 4 5 6 
#
# 1 114.3607 33.0597 76.6220 0.0000 0.0000 0.0000
# 2 33.0597 23.7986 32.8712 0.0000 0.0000 0.0000
# 3 76.6220 32.8712 165.6280 0.0000 0.0000 0.0000
# 4 0.0000 0.0000 0.0000 25.5548 0.0000 0.0000
# 5 0.0000 0.0000 0.0000 0.0000 38.1520 0.0000
# 6 0.0000 0.0000 0.0000 0.0000 0.0000 22.1951
#
#
#
# Elastic Compliance Matrix: (Units=1/GPa)
#
#
# Indices 1 2 3 4 5 6 
#
# 1 0.016539 -0.017092 -0.004259 0.000000 0.000000 0.000000
# 2 -0.017092 0.075552 -0.007087 0.000000 0.000000 0.000000
# 3 -0.004259 -0.007087 0.009414 0.000000 0.000000 0.000000
# 4 0.000000 0.000000 0.000000 0.039132 0.000000 0.000000
# 5 0.000000 0.000000 0.000000 0.000000 0.026211 0.000000
# 6 0.000000 0.000000 0.000000 0.000000 0.000000 0.045055
#
#
# Mechanical properties :
#
#
# Convention : Reuss Voigt Hill
#
# Bulk Modulus (GPa) = 22.40730 65.43257 43.91993
# Shear Modulus (GPa) = 17.62702 27.92933 22.77818
#
# Velocity S-wave (km/s) = 3.03880 3.82510 3.45439
# Velocity P-wave (km/s) = 4.90417 7.33394 6.23850
#
# Compressibility (1/GPa) = 0.04462832
#
# Stress axis : x y z
#
# Youngs Moduli (GPa) = 60.46376 13.23595 106.22012
#
# Poissons Ratio (x) = 0.22623 0.45238
# Poissons Ratio (y) = 1.03346 0.75280
# Poissons Ratio (z) = 0.25751 0.09381
#
# Static dielectric constant tensor:
#      x y z
#    x 3.498780 0.000000 0.000000 
#    y 0.000000 3.055320 0.000000 
#    z 0.000000 0.000000 3.639080 
# 
# 
# High freq. dielectric constant tensor:
#      x y z
#    x 1.733610 0.000000 0.000000 
#    y 0.000000 1.697300 0.000000 
#    z 0.000000 0.000000 1.757070 
# 
# From -- ./inp_files/65217.got.cif
#   From: 2010.03.12/outbox.cif.g09.slc.cpg/sg66_33_cif.got.tgz:65217.got - 2010.04.10 21:57:39.
