data_PCOD8275144
_publ_section_title
;
Structure prediction by ZEFSAII (Michael W. Deem and Ramdas Pophale) SiO2 
 PCOD8275144
Probable space group: C M M M
;
_chemical_formula_sum "Si O2"
_cell_formula_units_Z 104
_cell_length_a 22.512695
_cell_length_b 20.101352
_cell_length_c 14.863463
_cell_angle_alpha 90.000000
_cell_angle_beta 90.000000
_cell_angle_gamma 90.000000
_cell_volume 6726.246246
_symmetry_space_group_name_H-M "C M M M"
_symmetry_group_IT_number 65
_symmetry_cell_setting 'orthorhombic'
loop_
_space_group_symop_operation_xyz
x,y,z
-x,-y,z
x,-y,-z
-x,y,-z
-x,-y,-z
x,y,-z
-x,y,z
x,-y,z
1/2+x,1/2+y,z
1/2-x,1/2-y,z
1/2+x,1/2-y,-z
1/2-x,1/2+y,-z
1/2-x,1/2-y,-z
1/2+x,1/2+y,-z
1/2-x,1/2+y,z
1/2+x,1/2-y,z
loop_
_atom_site_type_symbol
_atom_site_label
_atom_site_fract_x
_atom_site_fract_y
_atom_site_fract_z
Si Si1 0.650056 0.424535 0.395695
Si Si2 0.153371 0.272115 0.268634
Si Si3 0.230908 0.423694 0.901095
Si Si4 0.931161 0.198262 0.394870
Si Si5 0.764148 0.854340 0.270726
Si Si6 0.387932 0.843839 0.100980
Si Si7 0.500000 0.925885 0.893346
O O1 0.665627 0.418929 0.500000
O O2 0.630777 0.500000 0.370308
O O3 0.596658 0.373991 0.370391
O O4 0.710767 0.405069 0.344824
O O5 0.101945 0.258016 0.341834
O O6 0.195456 0.209539 0.263909
O O7 0.195647 0.335058 0.295419
O O8 0.124676 0.283806 0.170265
O O9 0.226434 0.500000 0.873976
O O10 0.270425 0.386925 0.827405
O O11 0.165066 0.395623 0.902473
O O12 0.260266 0.414113 0.000000
O O13 0.923522 0.213723 0.500000
O O14 0.000000 0.196615 0.366408
O O15 0.443221 0.884946 0.139791
O O16 0.399576 0.814750 0.000000
O O17 0.500000 0.000000 0.850542
O O18 0.500000 0.932186 0.000000
#
# Coordination Sequence:
#
# PCOD8275144 Si02
#       7
#    16  16  16  16  16  16   8
#     4   9  17  29  46  67  88 110 137 173 219 262
#     4   9  18  29  43  62  86 114 143 172 208 251
#     4   9  16  26  41  60  83 112 143 173 207 246
#     4   9  18  31  46  64  86 112 142 177 213 253
#     4   9  17  29  42  62  88 113 140 174 209 249
#     4   9  17  27  40  60  84 111 139 171 209 247
#     4   9  16  26  40  58  81 107 136 171 209 245
#
# _framework density 15.461819
#
# number of rings (size 3 to 8) (size 9 to 14) (size 15 to 20)
#    0.000    3.000    0.000    0.923    1.077    3.385 
#    0.000    7.692    0.000    0.000    0.000    0.000 
#    0.000    0.615    0.000   16.308    0.000    0.615 
#
# Total GULP energy -644485.224932 kJ/mol
# GULP energy per Si atom -12393.946633 kJ/mol
# Density = 1.542663 g / cm^3
# Si number density = 15.461819 Si / 1000 Ang^3
#
#
#
# Elastic Constant Matrix: (Units=GPa)
#
#
# Indices 1 2 3 4 5 6 
#
# 1 76.5079 28.5107 49.0481 0.0000 0.0000 0.0000
# 2 28.5107 45.3774 31.3325 0.0000 0.0000 0.0000
# 3 49.0481 31.3325 67.6789 0.0000 0.0000 0.0000
# 4 0.0000 0.0000 0.0000 24.4359 0.0000 0.0000
# 5 0.0000 0.0000 0.0000 0.0000 17.8956 0.0000
# 6 0.0000 0.0000 0.0000 0.0000 0.0000 2.5400
#
#
#
# Elastic Compliance Matrix: (Units=1/GPa)
#
#
# Indices 1 2 3 4 5 6 
#
# 1 0.025081 -0.004715 -0.015994 0.000000 0.000000 0.000000
# 2 -0.004715 0.033278 -0.011990 0.000000 0.000000 0.000000
# 3 -0.015994 -0.011990 0.031917 0.000000 0.000000 0.000000
# 4 0.000000 0.000000 0.000000 0.040923 0.000000 0.000000
# 5 0.000000 0.000000 0.000000 0.000000 0.055880 0.000000
# 6 0.000000 0.000000 0.000000 0.000000 0.000000 0.393701
#
#
# Mechanical properties :
#
#
# Convention : Reuss Voigt Hill
#
# Bulk Modulus (GPa) = 40.19264 45.26075 42.72669
# Shear Modulus (GPa) = 7.63976 14.35249 10.99612
#
# Velocity S-wave (km/s) = 2.22526 3.05003 2.66969
# Velocity P-wave (km/s) = 5.71433 6.46063 6.09891
#
# Compressibility (1/GPa) = 0.02488018
#
# Stress axis : x y z
#
# Youngs Moduli (GPa) = 39.87082 30.04952 31.33092
#
# Poissons Ratio (x) = 0.14168 0.50110
# Poissons Ratio (y) = 0.18799 0.37564
# Poissons Ratio (z) = 0.63769 0.36028
#
# Static dielectric constant tensor:
#      x y z
#    x 3.223460 0.000000 0.000000 
#    y 0.000000 3.052480 0.000000 
#    z 0.000000 0.000000 3.047330 
# 
# 
# High freq. dielectric constant tensor:
#      x y z
#    x 1.585170 0.000000 0.000000 
#    y 0.000000 1.587990 0.000000 
#    z 0.000000 0.000000 1.584370 
# 
# From -- ./inp_files/44585.got.cif
#   From: 2010.03.12/outbox.cif.g09.slc.cpg/sg65_23_cif.got.tgz:44585.got - 2010.04.10 20:52:16.
