data_PCOD8275651
_publ_section_title
;
Structure prediction by ZEFSAII (Michael W. Deem and Ramdas Pophale) SiO2 
 PCOD8275651
Probable space group: C C C M
;
_chemical_formula_sum "Si O2"
_cell_formula_units_Z 80
_cell_length_a 16.787771
_cell_length_b 24.889175
_cell_length_c 9.820742
_cell_angle_alpha 90.000000
_cell_angle_beta 90.000000
_cell_angle_gamma 90.000000
_cell_volume 4103.437657
_symmetry_space_group_name_H-M "C C C M"
_symmetry_group_IT_number 66
_symmetry_cell_setting 'orthorhombic'
loop_
_space_group_symop_operation_xyz
x,y,z
-x,-y,z
x,-y,1/2-z
-x,y,1/2-z
-x,-y,-z
x,y,-z
-x,y,1/2+z
x,-y,1/2+z
1/2+x,1/2+y,z
1/2-x,1/2-y,z
1/2+x,1/2-y,1/2-z
1/2-x,1/2+y,1/2-z
1/2-x,1/2-y,-z
1/2+x,1/2+y,-z
1/2-x,1/2+y,1/2+z
1/2+x,1/2-y,1/2+z
loop_
_atom_site_type_symbol
_atom_site_label
_atom_site_fract_x
_atom_site_fract_y
_atom_site_fract_z
Si Si1 0.262940 0.089740 0.233201
Si Si2 0.108800 0.821387 0.000000
Si Si3 0.813391 0.062038 0.000000
Si Si4 0.308761 0.701922 0.734211
Si Si5 0.431525 0.945724 0.337891
Si Si6 0.577039 0.664249 0.000000
Si Si7 0.850175 0.054088 0.500000
O O1 0.248153 0.059077 0.374622
O O2 0.250011 0.152418 0.252566
O O3 0.350601 0.086654 0.172334
O O4 0.200773 0.063604 0.132728
O O5 0.132387 0.884631 0.000000
O O6 0.144159 0.788346 0.873894
O O7 0.013734 0.817306 0.000000
O O8 0.872919 0.009650 0.000000
O O9 0.250000 0.750000 0.691709
O O10 0.377794 0.689608 0.627242
O O11 0.500000 0.914179 0.250000
O O12 0.452751 0.954107 0.500000
O O13 0.420524 0.000000 0.250000
O O14 0.578487 0.598271 0.000000
#
# Coordination Sequence:
#
# PCOD8275651 Si02
#       7
#    16   8   8  16  16   8   8
#     4  10  21  34  55  79 108 145 190 235 269 337
#     4  10  21  38  58  90 117 145 185 236 282 340
#     4  10  20  32  55  83 114 152 185 219 279 332
#     4  10  21  40  63  81 110 150 191 233 284 336
#     4  11  22  35  53  78 112 149 189 232 288 340
#     4  10  21  36  60  88 117 147 187 230 282 336
#     4  10  18  34  53  83 114 150 185 221 267 338
#
# _framework density 19.495850000000001
#
# number of rings (size 3 to 8) (size 9 to 14) (size 15 to 20)
#    0.000    1.800    1.000    4.200    2.800    0.400 
#    0.000    2.000    0.000    7.200    0.000    0.000 
#    0.000    0.000    0.000    0.000    0.000    0.000 
#
# Total GULP energy -495555.991035 kJ/mol
# GULP energy per Si atom -12388.899776 kJ/mol
# Density = 1.945148 g / cm^3
# Si number density = 19.495850 Si / 1000 Ang^3
#
#
#
# Elastic Constant Matrix: (Units=GPa)
#
#
# Indices 1 2 3 4 5 6 
#
# 1 98.7141 13.9149 24.3974 0.0000 0.0000 0.0000
# 2 13.9149 72.5630 10.0897 0.0000 0.0000 0.0000
# 3 24.3974 10.0897 150.3062 0.0000 0.0000 0.0000
# 4 0.0000 0.0000 0.0000 -18.9250 0.0000 0.0000
# 5 0.0000 0.0000 0.0000 0.0000 25.9012 0.0000
# 6 0.0000 0.0000 0.0000 0.0000 0.0000 19.1276
#
#
#
# Elastic Compliance Matrix: (Units=1/GPa)
#
#
# Indices 1 2 3 4 5 6 
#
# 1 0.010792 -0.001843 -0.001628 0.000000 0.000000 0.000000
# 2 -0.001843 0.014226 -0.000656 0.000000 0.000000 0.000000
# 3 -0.001628 -0.000656 0.006961 0.000000 0.000000 0.000000
# 4 0.000000 0.000000 0.000000 -0.052840 0.000000 0.000000
# 5 0.000000 0.000000 0.000000 0.000000 0.038608 0.000000
# 6 0.000000 0.000000 0.000000 0.000000 0.000000 0.052280
#
#
# Mechanical properties :
#
#
# Convention : Reuss Voigt Hill
#
# Bulk Modulus (GPa) = 42.14873 46.48748 44.31810
# Shear Modulus (GPa) = 58.01100 23.43286 40.72193
#
# Velocity S-wave (km/s) = 5.46078 3.47066 4.57524
# Velocity P-wave (km/s) = 7.83750 6.32117 7.11982
#
# Compressibility (1/GPa) = 0.02372551
#
# Stress axis : x y z
#
# Youngs Moduli (GPa) = 92.65717 70.29499 143.64984
#
# Poissons Ratio (x) = 0.12957 0.23387
# Poissons Ratio (y) = 0.17079 0.09420
# Poissons Ratio (z) = 0.15085 0.04610
#
# Static dielectric constant tensor:
#      x y z
#    x 3.744110 0.000000 0.000000 
#    y 0.000000 3.477830 0.000000 
#    z 0.000000 0.000000 3.927770 
# 
# 
# High freq. dielectric constant tensor:
#      x y z
#    x 1.750650 0.000000 0.000000 
#    y 0.000000 1.737580 0.000000 
#    z 0.000000 0.000000 1.785590 
# 
# From -- ./inp_files/6807.got.cif
#   From: 2010.03.12/outbox.cif.g09.slc.cpg/sg66_4_cif.got.tgz:6807.got - 2010.04.10 21:57:39.
