data_PCOD8275974
_publ_section_title
;
Structure prediction by ZEFSAII (Michael W. Deem and Ramdas Pophale) SiO2 
 PCOD8275974
Probable space group: C C C M
;
_chemical_formula_sum "Si O2"
_cell_formula_units_Z 88
_cell_length_a 17.203029
_cell_length_b 23.145038
_cell_length_c 10.286248
_cell_angle_alpha 90.000000
_cell_angle_beta 90.000000
_cell_angle_gamma 90.000000
_cell_volume 4095.621465
_symmetry_space_group_name_H-M "C C C M"
_symmetry_group_IT_number 66
_symmetry_cell_setting 'orthorhombic'
loop_
_space_group_symop_operation_xyz
x,y,z
-x,-y,z
x,-y,1/2-z
-x,y,1/2-z
-x,-y,-z
x,y,-z
-x,y,1/2+z
x,-y,1/2+z
1/2+x,1/2+y,z
1/2-x,1/2-y,z
1/2+x,1/2-y,1/2-z
1/2-x,1/2+y,1/2-z
1/2-x,1/2-y,-z
1/2+x,1/2+y,-z
1/2-x,1/2+y,1/2+z
1/2+x,1/2-y,1/2+z
loop_
_atom_site_type_symbol
_atom_site_label
_atom_site_fract_x
_atom_site_fract_y
_atom_site_fract_z
Si Si1 0.325108 0.216072 0.775692
Si Si2 0.614435 0.920075 0.500000
Si Si3 0.560574 0.215552 0.500000
Si Si4 0.823357 0.420123 0.279315
Si Si5 0.047027 0.941125 0.862791
Si Si6 0.190437 0.000000 0.250000
Si Si7 0.941383 0.420817 0.500000
Si Si8 0.388927 0.216423 0.500000
O O1 0.250000 0.250000 0.824333
O O2 0.308341 0.148059 0.788532
O O3 0.344183 0.236670 0.629224
O O4 0.395176 0.235010 0.869595
O O5 0.659336 0.939466 0.369581
O O6 0.527998 0.948521 0.500000
O O7 0.604783 0.851944 0.500000
O O8 0.550363 0.147417 0.500000
O O9 0.475173 0.244068 0.500000
O O10 0.746300 0.454612 0.326213
O O11 0.894628 0.439782 0.370994
O O12 0.000000 0.905314 0.750000
O O13 0.136511 0.958321 0.837655
O O14 0.044338 0.906469 0.000000
O O15 0.000000 0.000000 0.878260
#
# Coordination Sequence:
#
# PCOD8275974 Si02
#       8
#    16   8   8  16  16   8   8   8
#     4  10  19  33  53  79 103 132 167 214 259 301
#     4   9  18  34  51  71 101 140 178 210 241 295
#     4   9  17  31  54  76 100 135 176 207 247 305
#     4  10  21  33  51  77 103 135 172 207 257 294
#     4   8  16  32  54  75  94 128 171 207 250 304
#     4  10  21  32  51  78 108 134 166 212 249 306
#     4   9  18  34  51  71 101 140 178 210 241 295
#     4   9  17  31  54  76 100 135 176 207 247 305
#
# _framework density 21.486360000000001
#
# number of rings (size 3 to 8) (size 9 to 14) (size 15 to 20)
#    0.000    2.909    0.000    1.636    2.545    4.364 
#    0.000    2.727    0.000    8.727    0.000    0.000 
#    0.000    0.000    0.000    0.000    0.000    0.000 
#
# Total GULP energy -545118.507732 kJ/mol
# GULP energy per Si atom -12389.056994 kJ/mol
# Density = 2.143746 g / cm^3
# Si number density = 21.486360 Si / 1000 Ang^3
#
#
#
# Elastic Constant Matrix: (Units=GPa)
#
#
# Indices 1 2 3 4 5 6 
#
# 1 138.5885 22.2436 30.6524 0.0000 0.0000 0.0000
# 2 22.2436 33.5042 1.3178 0.0000 0.0000 0.0000
# 3 30.6524 1.3178 147.4567 0.0000 0.0000 0.0000
# 4 0.0000 0.0000 0.0000 4.4093 0.0000 0.0000
# 5 0.0000 0.0000 0.0000 0.0000 7.1739 0.0000
# 6 0.0000 0.0000 0.0000 0.0000 0.0000 13.1258
#
#
#
# Elastic Compliance Matrix: (Units=1/GPa)
#
#
# Indices 1 2 3 4 5 6 
#
# 1 0.008489 -0.005568 -0.001715 0.000000 0.000000 0.000000
# 2 -0.005568 0.033510 0.000858 0.000000 0.000000 0.000000
# 3 -0.001715 0.000858 0.007130 0.000000 0.000000 0.000000
# 4 0.000000 0.000000 0.000000 0.226791 0.000000 0.000000
# 5 0.000000 0.000000 0.000000 0.000000 0.139393 0.000000
# 6 0.000000 0.000000 0.000000 0.000000 0.000000 0.076186
#
#
# Mechanical properties :
#
#
# Convention : Reuss Voigt Hill
#
# Bulk Modulus (GPa) = 27.56409 47.55302 37.55856
# Shear Modulus (GPa) = 9.68162 22.63085 16.15623
#
# Velocity S-wave (km/s) = 2.12502 3.24893 2.74511
# Velocity P-wave (km/s) = 4.34482 6.02111 5.25030
#
# Compressibility (1/GPa) = 0.03627908
#
# Stress axis : x y z
#
# Youngs Moduli (GPa) = 117.80540 29.84186 140.24374
#
# Poissons Ratio (x) = 0.16616 0.24049
# Poissons Ratio (y) = 0.65596 -0.12033
# Poissons Ratio (z) = 0.20201 -0.02560
#
# Static dielectric constant tensor:
#      x y z
#    x 4.155700 0.000000 0.000000 
#    y 0.000000 3.305740 0.000000 
#    z 0.000000 0.000000 35.815980 
# 
# 
# High freq. dielectric constant tensor:
#      x y z
#    x 1.853220 0.000000 0.000000 
#    y 0.000000 1.794690 0.000000 
#    z 0.000000 0.000000 1.852760 
# 
# From -- ./inp_files/16504.got.cif
#   From: 2010.03.12/outbox.cif.g09.slc.cpg/sg66_9_cif.got.tgz:16504.got - 2010.04.10 21:57:39.
