data_PCOD8275687
_publ_section_title
;
Structure prediction by ZEFSAII (Michael W. Deem and Ramdas Pophale) SiO2 
 PCOD8275687
Probable space group: C C C M
;
_chemical_formula_sum "Si O2"
_cell_formula_units_Z 84
_cell_length_a 5.038839
_cell_length_b 32.317448
_cell_length_c 25.625806
_cell_angle_alpha 90.000000
_cell_angle_beta 90.000000
_cell_angle_gamma 90.000000
_cell_volume 4172.968196
_symmetry_space_group_name_H-M "C C C M"
_symmetry_group_IT_number 66
_symmetry_cell_setting 'orthorhombic'
loop_
_space_group_symop_operation_xyz
x,y,z
-x,-y,z
x,-y,1/2-z
-x,y,1/2-z
-x,-y,-z
x,y,-z
-x,y,1/2+z
x,-y,1/2+z
1/2+x,1/2+y,z
1/2-x,1/2-y,z
1/2+x,1/2-y,1/2-z
1/2-x,1/2+y,1/2-z
1/2-x,1/2-y,-z
1/2+x,1/2+y,-z
1/2-x,1/2+y,1/2+z
1/2+x,1/2-y,1/2+z
loop_
_atom_site_type_symbol
_atom_site_label
_atom_site_fract_x
_atom_site_fract_y
_atom_site_fract_z
Si Si1 0.373416 0.628665 0.058489
Si Si2 0.000000 0.500000 0.750000
Si Si3 0.869902 0.553296 0.841987
Si Si4 0.383518 0.142025 0.125114
Si Si5 0.252536 0.201574 0.215957
Si Si6 0.367197 0.459650 0.592207
O O1 0.667578 0.634594 0.080272
O O2 0.314007 0.579085 0.054235
O O3 0.158841 0.652190 0.094988
O O4 0.357849 0.646818 0.000000
O O5 0.166922 0.468736 0.786218
O O6 0.942729 0.601997 0.838516
O O7 0.577663 0.552935 0.864523
O O8 0.094928 0.529825 0.877030
O O9 0.275839 0.179213 0.160446
O O10 0.500000 0.188133 0.250000
O O11 0.250000 0.250000 0.203363
O O12 0.000000 0.187745 0.250000
O O13 0.500000 0.500000 0.563133
#
# Coordination Sequence:
#
# PCOD8275687 Si02
#       6
#    16   4  16  16  16  16
#     4  10  21  36  59  81 107 147 190 236 289 334
#     4  12  20  34  48  74 106 150 192 222 276 330
#     4  10  22  31  49  72 105 146 180 226 270 333
#     4  10  21  39  56  83 114 146 186 235 281 338
#     4  10  21  38  62  90 118 151 188 227 279 343
#     4  10  18  36  48  70 104 135 184 235 281 319
#
# _framework density 20.129555
#
# number of rings (size 3 to 8) (size 9 to 14) (size 15 to 20)
#    0.000    1.905    1.905    1.714    1.333    1.905 
#    0.000    0.000    0.000   10.286    0.000    0.000 
#    0.000    0.000    0.000    0.000    0.000    0.000 
#
# Total GULP energy -520454.913124 kJ/mol
# GULP energy per Si atom -12391.783646 kJ/mol
# Density = 2.008374 g / cm^3
# Si number density = 20.129555 Si / 1000 Ang^3
#
#
#
# Elastic Constant Matrix: (Units=GPa)
#
#
# Indices 1 2 3 4 5 6 
#
# 1 102.9859 21.7317 27.1460 0.0000 0.0000 0.0000
# 2 21.7317 60.0012 37.2720 0.0000 0.0000 0.0000
# 3 27.1460 37.2720 107.2762 0.0000 0.0000 0.0000
# 4 0.0000 0.0000 0.0000 19.8943 0.0000 0.0000
# 5 0.0000 0.0000 0.0000 0.0000 20.1354 0.0000
# 6 0.0000 0.0000 0.0000 0.0000 0.0000 37.2667
#
#
#
# Elastic Compliance Matrix: (Units=1/GPa)
#
#
# Indices 1 2 3 4 5 6 
#
# 1 0.010764 -0.002814 -0.001746 0.000000 0.000000 0.000000
# 2 -0.002814 0.021989 -0.006928 0.000000 0.000000 0.000000
# 3 -0.001746 -0.006928 0.012171 0.000000 0.000000 0.000000
# 4 0.000000 0.000000 0.000000 0.050266 0.000000 0.000000
# 5 0.000000 0.000000 0.000000 0.000000 0.049664 0.000000
# 6 0.000000 0.000000 0.000000 0.000000 0.000000 0.026834
#
#
# Mechanical properties :
#
#
# Convention : Reuss Voigt Hill
#
# Bulk Modulus (GPa) = 45.56245 49.17364 47.36804
# Shear Modulus (GPa) = 24.75512 27.73352 26.24432
#
# Velocity S-wave (km/s) = 3.51064 3.71583 3.61469
# Velocity P-wave (km/s) = 6.25432 6.54916 6.40344
#
# Compressibility (1/GPa) = 0.02194790
#
# Stress axis : x y z
#
# Youngs Moduli (GPa) = 92.90117 45.47736 82.16531
#
# Poissons Ratio (x) = 0.12797 0.14347
# Poissons Ratio (y) = 0.26142 0.56922
# Poissons Ratio (z) = 0.16222 0.31506
#
# Static dielectric constant tensor:
#      x y z
#    x 3.720020 0.000000 0.000000 
#    y 0.000000 3.639950 0.000000 
#    z 0.000000 0.000000 3.335050 
# 
# 
# High freq. dielectric constant tensor:
#      x y z
#    x 1.802200 0.000000 0.000000 
#    y 0.000000 1.768490 0.000000 
#    z 0.000000 0.000000 1.761330 
# 
# From -- ./inp_files/54449.got.cif
#   From: 2010.03.12/outbox.cif.g09.slc.cpg/sg66_28_cif.got.tgz:54449.got - 2010.04.10 21:57:39.
