data_PCOD8275961
_publ_section_title
;
Structure prediction by ZEFSAII (Michael W. Deem and Ramdas Pophale) SiO2 
 PCOD8275961
Probable space group: C C C M
;
_chemical_formula_sum "Si O2"
_cell_formula_units_Z 96
_cell_length_a 25.542174
_cell_length_b 12.076010
_cell_length_c 17.010921
_cell_angle_alpha 90.000000
_cell_angle_beta 90.000000
_cell_angle_gamma 90.000000
_cell_volume 5246.976883
_symmetry_space_group_name_H-M "C C C M"
_symmetry_group_IT_number 66
_symmetry_cell_setting 'orthorhombic'
loop_
_space_group_symop_operation_xyz
x,y,z
-x,-y,z
x,-y,1/2-z
-x,y,1/2-z
-x,-y,-z
x,y,-z
-x,y,1/2+z
x,-y,1/2+z
1/2+x,1/2+y,z
1/2-x,1/2-y,z
1/2+x,1/2-y,1/2-z
1/2-x,1/2+y,1/2-z
1/2-x,1/2-y,-z
1/2+x,1/2+y,-z
1/2-x,1/2+y,1/2+z
1/2+x,1/2-y,1/2+z
loop_
_atom_site_type_symbol
_atom_site_label
_atom_site_fract_x
_atom_site_fract_y
_atom_site_fract_z
Si Si1 0.149624 0.228084 0.305555
Si Si2 0.695916 0.912960 0.407760
Si Si3 0.185169 0.959663 0.909219
Si Si4 0.940255 0.628163 0.764577
Si Si5 0.880208 0.392883 0.586502
Si Si6 0.808158 0.208815 0.367174
O O1 0.183743 0.299889 0.364721
O O2 0.146259 0.109641 0.351011
O O3 0.093709 0.287462 0.289110
O O4 0.180805 0.216990 0.225095
O O5 0.690283 0.894264 0.500000
O O6 0.754698 0.942979 0.384081
O O7 0.655117 0.006813 0.379026
O O8 0.175680 0.088656 0.897306
O O9 0.174626 0.926238 0.000000
O O10 0.927802 0.500000 0.750000
O O11 0.928070 0.640207 0.856984
O O12 0.000000 0.660189 0.750000
O O13 0.902624 0.421797 0.500000
O O14 0.843370 0.287445 0.579870
O O15 0.750000 0.250000 0.384861
#
# Coordination Sequence:
#
# PCOD8275961 Si02
#       6
#    16  16  16  16  16  16
#     4  11  22  35  54  81 112 148 189 238 292 344
#     4  10  19  33  52  79 117 152 181 220 283 351
#     4  11  22  35  52  79 119 158 192 226 276 343
#     4  10  21  40  61  83 111 145 192 250 300 343
#     4  10  20  35  57  83 115 150 186 232 286 341
#     4  11  21  33  54  80 114 155 197 232 270 333
#
# _framework density 18.296250000000001
#
# number of rings (size 3 to 8) (size 9 to 14) (size 15 to 20)
#    0.000    1.500    3.333    3.000    0.000    2.000 
#    0.000    3.333    0.000    8.000    0.000    5.833 
#    0.000    0.000    0.000    0.000    0.000    0.000 
#
# Total GULP energy -595009.979032 kJ/mol
# GULP energy per Si atom -12396.041230 kJ/mol
# Density = 1.825461 g / cm^3
# Si number density = 18.296250 Si / 1000 Ang^3
#
#
#
# Elastic Constant Matrix: (Units=GPa)
#
#
# Indices 1 2 3 4 5 6 
#
# 1 89.7194 17.6978 40.8449 0.0000 0.0000 0.0000
# 2 17.6978 85.8592 16.0797 0.0000 0.0000 0.0000
# 3 40.8449 16.0797 66.1198 0.0000 0.0000 0.0000
# 4 0.0000 0.0000 0.0000 47.6194 0.0000 0.0000
# 5 0.0000 0.0000 0.0000 0.0000 -124.1547 0.0000
# 6 0.0000 0.0000 0.0000 0.0000 0.0000 15.8957
#
#
#
# Elastic Compliance Matrix: (Units=1/GPa)
#
#
# Indices 1 2 3 4 5 6 
#
# 1 0.015686 -0.001486 -0.009328 0.000000 0.000000 0.000000
# 2 -0.001486 0.012344 -0.002084 0.000000 0.000000 0.000000
# 3 -0.009328 -0.002084 0.021393 0.000000 0.000000 0.000000
# 4 0.000000 0.000000 0.000000 0.021000 0.000000 0.000000
# 5 0.000000 0.000000 0.000000 0.000000 -0.008054 0.000000
# 6 0.000000 0.000000 0.000000 0.000000 0.000000 0.062910
#
#
# Mechanical properties :
#
#
# Convention : Reuss Voigt Hill
#
# Bulk Modulus (GPa) = 42.32612 43.43814 42.88213
# Shear Modulus (GPa) = 31.45642 -0.98953 15.23345
#
# Velocity S-wave (km/s) = 4.15092 -0.73622 2.88861
# Velocity P-wave (km/s) = 6.79393 4.80317 5.88336
#
# Compressibility (1/GPa) = 0.02362607
#
# Stress axis : x y z
#
# Youngs Moduli (GPa) = 63.75210 81.01388 46.74366
#
# Poissons Ratio (x) = 0.12041 0.43604
# Poissons Ratio (y) = 0.09475 0.09740
# Poissons Ratio (z) = 0.59470 0.16881
#
# Static dielectric constant tensor:
#      x y z
#    x 3.113450 0.000000 0.000000 
#    y 0.000000 3.428120 0.000000 
#    z 0.000000 0.000000 3.477040 
# 
# 
# High freq. dielectric constant tensor:
#      x y z
#    x 1.670710 0.000000 0.000000 
#    y 0.000000 1.718770 0.000000 
#    z 0.000000 0.000000 1.723840 
# 
# From -- ./inp_files/38801.got.cif
#   From: 2010.03.12/outbox.cif.g09.slc.cpg/sg66_20_cif.got.tgz:38801.got - 2010.04.10 21:57:39.
