data_PCOD8275775
_publ_section_title
;
Structure prediction by ZEFSAII (Michael W. Deem and Ramdas Pophale) SiO2 
 PCOD8275775
Probable space group: C C C M
;
_chemical_formula_sum "Si O2"
_cell_formula_units_Z 80
_cell_length_a 24.846020
_cell_length_b 4.874582
_cell_length_c 35.318858
_cell_angle_alpha 90.000000
_cell_angle_beta 90.000000
_cell_angle_gamma 90.000000
_cell_volume 4277.606821
_symmetry_space_group_name_H-M "C C C M"
_symmetry_group_IT_number 66
_symmetry_cell_setting 'orthorhombic'
loop_
_space_group_symop_operation_xyz
x,y,z
-x,-y,z
x,-y,1/2-z
-x,y,1/2-z
-x,-y,-z
x,y,-z
-x,y,1/2+z
x,-y,1/2+z
1/2+x,1/2+y,z
1/2-x,1/2-y,z
1/2+x,1/2-y,1/2-z
1/2-x,1/2+y,1/2-z
1/2-x,1/2-y,-z
1/2+x,1/2+y,-z
1/2-x,1/2+y,1/2+z
1/2+x,1/2-y,1/2+z
loop_
_atom_site_type_symbol
_atom_site_label
_atom_site_fract_x
_atom_site_fract_y
_atom_site_fract_z
Si Si1 0.303753 0.580992 0.342325
Si Si2 0.401894 0.583900 0.706867
Si Si3 0.212699 0.506398 0.458440
Si Si4 0.156727 0.578774 0.884378
Si Si5 0.441730 0.901689 0.164496
O O1 0.250000 0.750000 0.331179
O O2 0.339453 0.533042 0.304685
O O3 0.300012 0.283421 0.363437
O O4 0.335226 0.766989 0.371922
O O5 0.408496 0.500000 0.750000
O O6 0.417087 0.896316 0.696688
O O7 0.443813 0.394789 0.683905
O O8 0.188915 0.590168 0.500000
O O9 0.250000 0.250000 0.464201
O O10 0.164901 0.424056 0.429648
O O11 0.250000 0.750000 0.441493
O O12 0.095292 0.641597 0.872848
O O13 0.500000 0.000000 0.150774
#
# Coordination Sequence:
#
# PCOD8275775 Si02
#       5
#    16  16  16  16  16
#     4  10  19  32  50  70  95 130 162 192 236 290
#     4  10  21  35  50  73  99 124 163 208 251 298
#     4  10  19  30  48  75 103 129 156 190 236 286
#     4  10  19  32  50  71  98 127 162 199 233 285
#     4  10  21  35  52  72  94 127 167 208 251 289
#
# _framework density 18.702045999999999
#
# number of rings (size 3 to 8) (size 9 to 14) (size 15 to 20)
#    0.000    2.000    0.000    4.800    0.000    2.400 
#    0.000    6.000    0.000    0.600    0.000    0.000 
#    0.000   14.400    0.000    0.000    0.000    4.000 
#
# Total GULP energy -495568.419888 kJ/mol
# GULP energy per Si atom -12389.210497 kJ/mol
# Density = 1.865948 g / cm^3
# Si number density = 18.702046 Si / 1000 Ang^3
#
#
#
# Elastic Constant Matrix: (Units=GPa)
#
#
# Indices 1 2 3 4 5 6 
#
# 1 105.8120 9.3240 48.9496 0.0000 0.0000 0.0000
# 2 9.3240 78.5124 12.0726 0.0000 0.0000 0.0000
# 3 48.9496 12.0726 103.0241 0.0000 0.0000 0.0000
# 4 0.0000 0.0000 0.0000 22.2517 0.0000 0.0000
# 5 0.0000 0.0000 0.0000 0.0000 17.2610 0.0000
# 6 0.0000 0.0000 0.0000 0.0000 0.0000 29.3998
#
#
#
# Elastic Compliance Matrix: (Units=1/GPa)
#
#
# Indices 1 2 3 4 5 6 
#
# 1 0.012138 -0.000565 -0.005701 0.000000 0.000000 0.000000
# 2 -0.000565 0.012997 -0.001255 0.000000 0.000000 0.000000
# 3 -0.005701 -0.001255 0.012562 0.000000 0.000000 0.000000
# 4 0.000000 0.000000 0.000000 0.044940 0.000000 0.000000
# 5 0.000000 0.000000 0.000000 0.000000 0.057934 0.000000
# 6 0.000000 0.000000 0.000000 0.000000 0.000000 0.034014
#
#
# Mechanical properties :
#
#
# Convention : Reuss Voigt Hill
#
# Bulk Modulus (GPa) = 44.13818 47.56011 45.84915
# Shear Modulus (GPa) = 25.35785 28.24932 26.80358
#
# Velocity S-wave (km/s) = 3.68623 3.89072 3.78986
# Velocity P-wave (km/s) = 6.46295 6.75790 6.61207
#
# Compressibility (1/GPa) = 0.02265612
#
# Stress axis : x y z
#
# Youngs Moduli (GPa) = 82.38769 76.94180 79.60457
#
# Poissons Ratio (x) = 0.04346 0.45381
# Poissons Ratio (y) = 0.04654 0.09987
# Poissons Ratio (z) = 0.46967 0.09653
#
# Static dielectric constant tensor:
#      x y z
#    x 3.288740 0.000000 0.000000 
#    y 0.000000 3.714760 0.000000 
#    z 0.000000 0.000000 3.424380 
# 
# 
# High freq. dielectric constant tensor:
#      x y z
#    x 1.697260 0.000000 0.000000 
#    y 0.000000 1.755050 0.000000 
#    z 0.000000 0.000000 1.701800 
# 
# From -- ./inp_files/70520.got.cif
#   From: 2010.03.12/outbox.cif.g09.slc.cpg/sg66_36_cif.got.tgz:70520.got - 2010.04.10 21:57:39.
