data_PCOD8275572
_publ_section_title
;
Structure prediction by ZEFSAII (Michael W. Deem and Ramdas Pophale) SiO2 
 PCOD8275572
Probable space group: C C C M
;
_chemical_formula_sum "Si O2"
_cell_formula_units_Z 128
_cell_length_a 12.458361
_cell_length_b 23.559541
_cell_length_c 26.373961
_cell_angle_alpha 90.000000
_cell_angle_beta 90.000000
_cell_angle_gamma 90.000000
_cell_volume 7741.107451
_symmetry_space_group_name_H-M "C C C M"
_symmetry_group_IT_number 66
_symmetry_cell_setting 'orthorhombic'
loop_
_space_group_symop_operation_xyz
x,y,z
-x,-y,z
x,-y,1/2-z
-x,y,1/2-z
-x,-y,-z
x,y,-z
-x,y,1/2+z
x,-y,1/2+z
1/2+x,1/2+y,z
1/2-x,1/2-y,z
1/2+x,1/2-y,1/2-z
1/2-x,1/2+y,1/2-z
1/2-x,1/2-y,-z
1/2+x,1/2+y,-z
1/2-x,1/2+y,1/2+z
1/2+x,1/2-y,1/2+z
loop_
_atom_site_type_symbol
_atom_site_label
_atom_site_fract_x
_atom_site_fract_y
_atom_site_fract_z
Si Si1 0.309097 0.807942 0.644429
Si Si2 0.615848 0.017616 0.637421
Si Si3 0.756212 0.049635 0.787126
Si Si4 0.800971 0.015677 0.441854
Si Si5 0.564496 0.445979 0.135576
Si Si6 0.607372 0.113765 0.718097
Si Si7 0.622049 0.750263 0.054380
Si Si8 0.384300 0.629762 0.403918
O O1 0.250000 0.750000 0.657460
O O2 0.374206 0.823830 0.695080
O O3 0.397898 0.796168 0.599215
O O4 0.219983 0.856119 0.630656
O O5 0.689787 0.022236 0.588046
O O6 0.603752 0.076031 0.667560
O O7 0.500000 0.000000 0.616857
O O8 0.660462 0.972030 0.677173
O O9 0.852623 0.073277 0.821150
O O10 0.708697 0.100211 0.753572
O O11 0.797697 0.000000 0.750000
O O12 0.780575 0.997724 0.500000
O O13 0.857599 0.077388 0.441254
O O14 0.874857 0.967134 0.415733
O O15 0.500000 0.500000 0.157133
O O16 0.487088 0.391777 0.128188
O O17 0.500000 0.109072 0.750000
O O18 0.750000 0.750000 0.049871
O O19 0.580476 0.686590 0.066192
O O20 0.572016 0.769304 0.000000
#
# Coordination Sequence:
#
# PCOD8275572 Si02
#       8
#    16  16  16  16  16  16  16  16
#     4   9  19  34  48  73 102 122 156 212 252 285
#     4  10  18  32  48  73  96 124 166 205 233 284
#     4   9  19  30  47  69  97 128 170 201 235 284
#     4  10  19  29  45  69 105 135 158 195 241 289
#     4   9  19  31  42  69 104 135 163 199 231 289
#     4  11  19  33  55  72  90 128 167 206 246 283
#     4   8  15  28  49  71  93 120 158 205 245 283
#     4   9  16  30  48  67 101 129 166 191 240 287
#
# _framework density 16.535101999999998
#
# number of rings (size 3 to 8) (size 9 to 14) (size 15 to 20)
#    0.000    2.875    2.500    0.375    1.750    3.750 
#    0.000    2.500    0.000    0.000    0.000    0.000 
#    0.000    1.000    0.000    0.000    0.000    0.000 
#
# Total GULP energy -792917.177233 kJ/mol
# GULP energy per Si atom -12389.330894 kJ/mol
# Density = 1.649747 g / cm^3
# Si number density = 16.535102 Si / 1000 Ang^3
#
#
#
# Elastic Constant Matrix: (Units=GPa)
#
#
# Indices 1 2 3 4 5 6 
#
# 1 77.0074 34.5004 45.2897 0.0000 0.0000 0.0000
# 2 34.5004 73.6752 45.2805 0.0000 0.0000 0.0000
# 3 45.2897 45.2805 114.8520 0.0000 0.0000 0.0000
# 4 0.0000 0.0000 0.0000 19.0291 0.0000 0.0000
# 5 0.0000 0.0000 0.0000 0.0000 10.3146 0.0000
# 6 0.0000 0.0000 0.0000 0.0000 0.0000 19.4153
#
#
#
# Elastic Compliance Matrix: (Units=1/GPa)
#
#
# Indices 1 2 3 4 5 6 
#
# 1 0.018455 -0.005503 -0.005108 0.000000 0.000000 0.000000
# 2 -0.005503 0.019554 -0.005539 0.000000 0.000000 0.000000
# 3 -0.005108 -0.005539 0.012905 0.000000 0.000000 0.000000
# 4 0.000000 0.000000 0.000000 0.052551 0.000000 0.000000
# 5 0.000000 0.000000 0.000000 0.000000 0.096950 0.000000
# 6 0.000000 0.000000 0.000000 0.000000 0.000000 0.051506
#
#
# Mechanical properties :
#
#
# Convention : Reuss Voigt Hill
#
# Bulk Modulus (GPa) = 53.72231 57.29732 55.50981
# Shear Modulus (GPa) = 17.21608 19.11608 18.16608
#
# Velocity S-wave (km/s) = 3.23024 3.40382 3.31817
# Velocity P-wave (km/s) = 6.81711 7.08344 6.95155
#
# Compressibility (1/GPa) = 0.01861424
#
# Stress axis : x y z
#
# Youngs Moduli (GPa) = 54.18523 51.13937 77.48927
#
# Poissons Ratio (x) = 0.28141 0.39581
# Poissons Ratio (y) = 0.29817 0.42924
# Poissons Ratio (z) = 0.27678 0.28328
#
# Static dielectric constant tensor:
#      x y z
#    x 2.970460 0.000000 0.000000 
#    y 0.000000 3.017840 0.000000 
#    z 0.000000 0.000000 3.447300 
# 
# 
# High freq. dielectric constant tensor:
#      x y z
#    x 1.613250 0.000000 0.000000 
#    y 0.000000 1.615120 0.000000 
#    z 0.000000 0.000000 1.638310 
# 
# From -- ./inp_files/64004.got.cif
#   From: 2010.03.12/outbox.cif.g09.slc.cpg/sg66_33_cif.got.tgz:64004.got - 2010.04.10 21:57:39.
