data_PCOD8275295
_publ_section_title
;
Structure prediction by ZEFSAII (Michael W. Deem and Ramdas Pophale) SiO2 
 PCOD8275295
Probable space group: C C C M
;
_chemical_formula_sum "Si O2"
_cell_formula_units_Z 80
_cell_length_a 29.170261
_cell_length_b 22.996994
_cell_length_c 8.391200
_cell_angle_alpha 90.000000
_cell_angle_beta 90.000000
_cell_angle_gamma 90.000000
_cell_volume 5629.054575
_symmetry_space_group_name_H-M "C C C M"
_symmetry_group_IT_number 66
_symmetry_cell_setting 'orthorhombic'
loop_
_space_group_symop_operation_xyz
x,y,z
-x,-y,z
x,-y,1/2-z
-x,y,1/2-z
-x,-y,-z
x,y,-z
-x,y,1/2+z
x,-y,1/2+z
1/2+x,1/2+y,z
1/2-x,1/2-y,z
1/2+x,1/2-y,1/2-z
1/2-x,1/2+y,1/2-z
1/2-x,1/2-y,-z
1/2+x,1/2+y,-z
1/2-x,1/2+y,1/2+z
1/2+x,1/2-y,1/2+z
loop_
_atom_site_type_symbol
_atom_site_label
_atom_site_fract_x
_atom_site_fract_y
_atom_site_fract_z
Si Si1 0.550327 0.936894 0.688947
Si Si2 0.766036 0.169416 0.314250
Si Si3 0.778377 0.564558 0.313460
Si Si4 0.820054 0.735357 0.684813
Si Si5 0.634282 0.130078 0.686450
O O1 0.500000 0.921080 0.750000
O O2 0.551361 0.936447 0.500000
O O3 0.584050 0.888676 0.758990
O O4 0.566016 0.000000 0.750000
O O5 0.756428 0.179229 0.500000
O O6 0.762885 0.101287 0.270361
O O7 0.814089 0.200220 0.263956
O O8 0.726612 0.199714 0.210215
O O9 0.775143 0.500000 0.250000
O O10 0.770143 0.565278 0.500000
O O11 0.828205 0.590836 0.275629
O O12 0.831470 0.742399 0.500000
O O13 0.860456 0.698373 0.768659
O O14 0.641105 0.120867 0.500000
#
# Coordination Sequence:
#
# PCOD8275295 Si02
#       5
#    16  16  16  16  16
#     4  11  21  34  47  61  78 101 129 162 201 243
#     4  10  17  27  40  56  76 100 126 157 193 232
#     4  11  20  30  41  57  78 103 132 165 199 235
#     4  10  17  27  41  58  76  98 125 158 194 231
#     4  11  20  31  44  60  78 100 129 165 201 237
#
# _framework density 14.211978
#
# number of rings (size 3 to 8) (size 9 to 14) (size 15 to 20)
#    0.000    1.400    0.000   13.800    0.000    0.000 
#    0.000    0.000    0.000    0.000    0.000    0.000 
#    0.000    0.000    0.000    0.000    0.000    1.000 
#
# Total GULP energy -495903.419128 kJ/mol
# GULP energy per Si atom -12397.585478 kJ/mol
# Density = 1.417963 g / cm^3
# Si number density = 14.211978 Si / 1000 Ang^3
#
#
#
# Elastic Constant Matrix: (Units=GPa)
#
#
# Indices 1 2 3 4 5 6 
#
# 1 57.3112 43.9411 16.8699 0.0000 0.0000 0.0000
# 2 43.9411 81.6373 20.8711 0.0000 0.0000 0.0000
# 3 16.8699 20.8711 88.2850 0.0000 0.0000 0.0000
# 4 0.0000 0.0000 0.0000 25.0965 0.0000 0.0000
# 5 0.0000 0.0000 0.0000 0.0000 18.8657 0.0000
# 6 0.0000 0.0000 0.0000 0.0000 0.0000 18.6621
#
#
#
# Elastic Compliance Matrix: (Units=1/GPa)
#
#
# Indices 1 2 3 4 5 6 
#
# 1 0.030051 -0.015653 -0.002042 0.000000 0.000000 0.000000
# 2 -0.015653 0.021190 -0.002019 0.000000 0.000000 0.000000
# 3 -0.002042 -0.002019 0.012194 0.000000 0.000000 0.000000
# 4 0.000000 0.000000 0.000000 0.039846 0.000000 0.000000
# 5 0.000000 0.000000 0.000000 0.000000 0.053006 0.000000
# 6 0.000000 0.000000 0.000000 0.000000 0.000000 0.053584
#
#
# Mechanical properties :
#
#
# Convention : Reuss Voigt Hill
#
# Bulk Modulus (GPa) = 41.65067 43.39976 42.52522
# Shear Modulus (GPa) = 19.43246 22.22830 20.83038
#
# Velocity S-wave (km/s) = 3.70175 3.95910 3.83259
# Velocity P-wave (km/s) = 6.90225 7.17656 7.04074
#
# Compressibility (1/GPa) = 0.02400922
#
# Stress axis : x y z
#
# Youngs Moduli (GPa) = 33.27708 47.19117 82.00546
#
# Poissons Ratio (x) = 0.73867 0.16744
# Poissons Ratio (y) = 0.52088 0.16553
# Poissons Ratio (z) = 0.06795 0.09526
#
# Static dielectric constant tensor:
#      x y z
#    x 2.595130 0.000000 0.000000 
#    y 0.000000 3.211900 0.000000 
#    z 0.000000 0.000000 2.943030 
# 
# 
# High freq. dielectric constant tensor:
#      x y z
#    x 1.490590 0.000000 0.000000 
#    y 0.000000 1.534710 0.000000 
#    z 0.000000 0.000000 1.571670 
# 
# From -- ./inp_files/11458.got.cif
#   From: 2010.03.12/outbox.cif.g09.slc.cpg/sg66_6_cif.got.tgz:11458.got - 2010.04.10 21:57:39.
