data_PCOD8275880
_publ_section_title
;
Structure prediction by ZEFSAII (Michael W. Deem and Ramdas Pophale) SiO2 
 PCOD8275880
Probable space group: C C C M
;
_chemical_formula_sum "Si O2"
_cell_formula_units_Z 120
_cell_length_a 26.109968
_cell_length_b 27.866677
_cell_length_c 9.397711
_cell_angle_alpha 90.000000
_cell_angle_beta 90.000000
_cell_angle_gamma 90.000000
_cell_volume 6837.756149
_symmetry_space_group_name_H-M "C C C M"
_symmetry_group_IT_number 66
_symmetry_cell_setting 'orthorhombic'
loop_
_space_group_symop_operation_xyz
x,y,z
-x,-y,z
x,-y,1/2-z
-x,y,1/2-z
-x,-y,-z
x,y,-z
-x,y,1/2+z
x,-y,1/2+z
1/2+x,1/2+y,z
1/2-x,1/2-y,z
1/2+x,1/2-y,1/2-z
1/2-x,1/2+y,1/2-z
1/2-x,1/2-y,-z
1/2+x,1/2+y,-z
1/2-x,1/2+y,1/2+z
1/2+x,1/2-y,1/2+z
loop_
_atom_site_type_symbol
_atom_site_label
_atom_site_fract_x
_atom_site_fract_y
_atom_site_fract_z
Si Si1 0.500000 0.123025 0.250000
Si Si2 0.949187 0.874380 0.663661
Si Si3 0.368388 0.452889 0.666325
Si Si4 0.247933 0.953364 0.835294
Si Si5 0.096160 0.682687 0.335774
Si Si6 0.052350 0.765030 0.167105
Si Si7 0.931975 0.457045 0.153713
Si Si8 0.658234 0.891624 0.333724
O O1 0.541491 0.155640 0.330480
O O2 0.529151 0.087853 0.141323
O O3 0.962885 0.883377 0.500000
O O4 0.903546 0.908666 0.715658
O O5 0.930289 0.819943 0.687487
O O6 0.000000 0.886653 0.750000
O O7 0.386466 0.500000 0.750000
O O8 0.374427 0.463591 0.500000
O O9 0.310064 0.439156 0.705731
O O10 0.283640 0.907546 0.799574
O O11 0.266214 0.000000 0.750000
O O12 0.252861 0.966962 0.000000
O O13 0.109092 0.694160 0.500000
O O14 0.094344 0.731316 0.242287
O O15 0.142551 0.652317 0.267496
O O16 0.000000 0.755674 0.250000
O O17 0.045972 0.751812 0.000000
O O18 0.952548 0.500000 0.250000
O O19 0.877219 0.437225 0.205855
O O20 0.926587 0.480700 0.000000
O O21 0.650909 0.877340 0.500000
#
# Coordination Sequence:
#
# PCOD8275880 Si02
#       8
#     8  16  16  16  16  16  16  16
#     4  10  21  32  44  60  88 118 155 194 246 298
#     4   9  19  34  52  77 108 139 168 200 238 290
#     4   9  18  33  53  79 108 137 170 202 240 287
#     4   9  17  31  52  74  98 130 167 210 252 296
#     4  11  21  32  49  70  93 123 162 208 257 302
#     4  10  19  32  51  72  97 129 165 205 249 296
#     4  10  20  31  42  58  83 116 152 192 239 292
#     4   9  19  33  47  66  93 124 161 207 256 298
#
# _framework density 17.549617999999999
#
# number of rings (size 3 to 8) (size 9 to 14) (size 15 to 20)
#    0.000    2.400    0.667    1.800    0.000    6.133 
#    0.000    1.333    0.000    0.800    0.000    5.600 
#    0.000    0.000    0.000    0.000    0.000    0.000 
#
# Total GULP energy -743835.455031 kJ/mol
# GULP energy per Si atom -12397.257584 kJ/mol
# Density = 1.750967 g / cm^3
# Si number density = 17.549618 Si / 1000 Ang^3
#
#
#
# Elastic Constant Matrix: (Units=GPa)
#
#
# Indices 1 2 3 4 5 6 
#
# 1 87.9038 61.6772 42.7714 0.0000 0.0000 0.0000
# 2 61.6772 114.5033 58.8902 0.0000 0.0000 0.0000
# 3 42.7714 58.8902 92.9525 0.0000 0.0000 0.0000
# 4 0.0000 0.0000 0.0000 27.6359 0.0000 0.0000
# 5 0.0000 0.0000 0.0000 0.0000 20.8669 0.0000
# 6 0.0000 0.0000 0.0000 0.0000 0.0000 26.7028
#
#
#
# Elastic Compliance Matrix: (Units=1/GPa)
#
#
# Indices 1 2 3 4 5 6 
#
# 1 0.018964 -0.008495 -0.003344 0.000000 0.000000 0.000000
# 2 -0.008495 0.016760 -0.006709 0.000000 0.000000 0.000000
# 3 -0.003344 -0.006709 0.016548 0.000000 0.000000 0.000000
# 4 0.000000 0.000000 0.000000 0.036185 0.000000 0.000000
# 5 0.000000 0.000000 0.000000 0.000000 0.047923 0.000000
# 6 0.000000 0.000000 0.000000 0.000000 0.000000 0.037449
#
#
# Mechanical properties :
#
#
# Convention : Reuss Voigt Hill
#
# Bulk Modulus (GPa) = 65.89983 69.11523 67.50753
# Shear Modulus (GPa) = 23.15002 23.84251 23.49627
#
# Velocity S-wave (km/s) = 3.63591 3.68989 3.66300
# Velocity P-wave (km/s) = 7.43361 7.59091 7.51267
#
# Compressibility (1/GPa) = 0.01517455
#
# Stress axis : x y z
#
# Youngs Moduli (GPa) = 52.73281 59.66649 60.43155
#
# Poissons Ratio (x) = 0.50686 0.20208
# Poissons Ratio (y) = 0.44796 0.40546
# Poissons Ratio (z) = 0.17634 0.40033
#
# Static dielectric constant tensor:
#      x y z
#    x 3.196410 0.000000 0.000000 
#    y 0.000000 3.257630 0.000000 
#    z 0.000000 0.000000 3.241710 
# 
# 
# High freq. dielectric constant tensor:
#      x y z
#    x 1.657740 0.000000 0.000000 
#    y 0.000000 1.668670 0.000000 
#    z 0.000000 0.000000 1.680630 
# 
# From -- ./inp_files/10749.got.cif
#   From: 2010.03.12/outbox.cif.g09.slc.cpg/sg66_6_cif.got.tgz:10749.got - 2010.04.10 21:57:39.
