data_PCOD8275713
_publ_section_title
;
Structure prediction by ZEFSAII (Michael W. Deem and Ramdas Pophale) SiO2 
 PCOD8275713
Probable space group: C C C M
;
_chemical_formula_sum "Si O2"
_cell_formula_units_Z 80
_cell_length_a 18.136307
_cell_length_b 36.949732
_cell_length_c 8.941696
_cell_angle_alpha 90.000000
_cell_angle_beta 90.000000
_cell_angle_gamma 90.000000
_cell_volume 5992.113790
_symmetry_space_group_name_H-M "C C C M"
_symmetry_group_IT_number 66
_symmetry_cell_setting 'orthorhombic'
loop_
_space_group_symop_operation_xyz
x,y,z
-x,-y,z
x,-y,1/2-z
-x,y,1/2-z
-x,-y,-z
x,y,-z
-x,y,1/2+z
x,-y,1/2+z
1/2+x,1/2+y,z
1/2-x,1/2-y,z
1/2+x,1/2-y,1/2-z
1/2-x,1/2+y,1/2-z
1/2-x,1/2-y,-z
1/2+x,1/2+y,-z
1/2-x,1/2+y,1/2+z
1/2+x,1/2-y,1/2+z
loop_
_atom_site_type_symbol
_atom_site_label
_atom_site_fract_x
_atom_site_fract_y
_atom_site_fract_z
Si Si1 0.578763 0.966400 0.672714
Si Si2 0.703793 0.286524 0.168673
Si Si3 0.921207 0.252450 0.325384
Si Si4 0.830161 0.324413 0.325419
Si Si5 0.579351 0.886156 0.674214
O O1 0.500000 0.964776 0.750000
O O2 0.569845 0.975642 0.500000
O O3 0.613648 0.926571 0.695883
O O4 0.623872 0.000000 0.750000
O O5 0.750000 0.250000 0.168660
O O6 0.627146 0.279722 0.254092
O O7 0.749821 0.317151 0.255269
O O8 0.687565 0.299575 0.000000
O O9 0.929001 0.244783 0.500000
O O10 0.884711 0.291181 0.293290
O O11 0.000000 0.252383 0.250000
O O12 0.820211 0.331456 0.500000
O O13 0.862140 0.359805 0.248253
O O14 0.500000 0.881508 0.750000
O O15 0.569462 0.876767 0.500000
#
# Coordination Sequence:
#
# PCOD8275713 Si02
#       5
#    16  16  16  16  16
#     4   9  16  25  37  51  68  91 119 151 185 220
#     4   9  17  29  43  56  72  95 121 150 186 226
#     4  10  19  29  41  57  75  95 123 156 189 224
#     4  10  19  29  41  56  75  98 123 154 190 226
#     4  10  19  28  38  54  74  96 124 157 191 225
#
# _framework density 13.350882
#
# number of rings (size 3 to 8) (size 9 to 14) (size 15 to 20)
#    0.000    2.400    0.000    4.200    0.000    8.800 
#    0.000    0.000    0.000    0.000    0.000    0.000 
#    0.000    0.000    0.000    0.000    0.000    1.000 
#
# Total GULP energy -495819.114589 kJ/mol
# GULP energy per Si atom -12395.477865 kJ/mol
# Density = 1.332049 g / cm^3
# Si number density = 13.350882 Si / 1000 Ang^3
#
#
#
# Elastic Constant Matrix: (Units=GPa)
#
#
# Indices 1 2 3 4 5 6 
#
# 1 57.2655 34.5457 51.4987 0.0000 0.0000 0.0000
# 2 34.5457 85.4719 59.5545 0.0000 0.0000 0.0000
# 3 51.4987 59.5545 120.7714 0.0000 0.0000 0.0000
# 4 0.0000 0.0000 0.0000 23.1819 0.0000 0.0000
# 5 0.0000 0.0000 0.0000 0.0000 23.1129 0.0000
# 6 0.0000 0.0000 0.0000 0.0000 0.0000 11.9197
#
#
#
# Elastic Compliance Matrix: (Units=1/GPa)
#
#
# Indices 1 2 3 4 5 6 
#
# 1 0.029574 -0.004824 -0.010232 0.000000 0.000000 0.000000
# 2 -0.004824 0.018611 -0.007120 0.000000 0.000000 0.000000
# 3 -0.010232 -0.007120 0.016154 0.000000 0.000000 0.000000
# 4 0.000000 0.000000 0.000000 0.043137 0.000000 0.000000
# 5 0.000000 0.000000 0.000000 0.000000 0.043266 0.000000
# 6 0.000000 0.000000 0.000000 0.000000 0.000000 0.083895
#
#
# Mechanical properties :
#
#
# Convention : Reuss Voigt Hill
#
# Bulk Modulus (GPa) = 50.03297 61.63406 55.83352
# Shear Modulus (GPa) = 17.50381 19.50355 18.50368
#
# Velocity S-wave (km/s) = 3.62478 3.82625 3.72688
# Velocity P-wave (km/s) = 7.42129 8.11081 7.77370
#
# Compressibility (1/GPa) = 0.01998682
#
# Stress axis : x y z
#
# Youngs Moduli (GPa) = 33.81311 53.73280 61.90230
#
# Poissons Ratio (x) = 0.25919 0.63340
# Poissons Ratio (y) = 0.16310 0.44077
# Poissons Ratio (z) = 0.34599 0.38260
#
# Static dielectric constant tensor:
#      x y z
#    x 2.431040 0.000000 0.000000 
#    y 0.000000 3.075510 0.000000 
#    z 0.000000 0.000000 2.906810 
# 
# 
# High freq. dielectric constant tensor:
#      x y z
#    x 1.465580 0.000000 0.000000 
#    y 0.000000 1.492410 0.000000 
#    z 0.000000 0.000000 1.534530 
# 
# From -- ./inp_files/6914.got.cif
#   From: 2010.03.12/outbox.cif.g09.slc.cpg/sg66_4_cif.got.tgz:6914.got - 2010.04.10 21:57:39.
