data_PCOD8275324
_publ_section_title
;
Structure prediction by ZEFSAII (Michael W. Deem and Ramdas Pophale) SiO2 
 PCOD8275324
Probable space group: C C C M
;
_chemical_formula_sum "Si O2"
_cell_formula_units_Z 128
_cell_length_a 18.239042
_cell_length_b 22.104649
_cell_length_c 17.397828
_cell_angle_alpha 90.000000
_cell_angle_beta 90.000000
_cell_angle_gamma 90.000000
_cell_volume 7014.240934
_symmetry_space_group_name_H-M "C C C M"
_symmetry_group_IT_number 66
_symmetry_cell_setting 'orthorhombic'
loop_
_space_group_symop_operation_xyz
x,y,z
-x,-y,z
x,-y,1/2-z
-x,y,1/2-z
-x,-y,-z
x,y,-z
-x,y,1/2+z
x,-y,1/2+z
1/2+x,1/2+y,z
1/2-x,1/2-y,z
1/2+x,1/2-y,1/2-z
1/2-x,1/2+y,1/2-z
1/2-x,1/2-y,-z
1/2+x,1/2+y,-z
1/2-x,1/2+y,1/2+z
1/2+x,1/2-y,1/2+z
loop_
_atom_site_type_symbol
_atom_site_label
_atom_site_fract_x
_atom_site_fract_y
_atom_site_fract_z
Si Si1 0.661622 0.922117 0.090717
Si Si2 0.733263 0.429641 0.723913
Si Si3 0.402979 0.044323 0.414329
Si Si4 0.289377 0.137459 0.632990
Si Si5 0.596966 0.769290 0.409043
Si Si6 0.017020 0.364657 0.090457
Si Si7 0.625125 0.364078 0.086766
Si Si8 0.422207 0.569589 0.229695
O O1 0.736520 0.916212 0.138457
O O2 0.603866 0.867664 0.109270
O O3 0.621819 0.981965 0.125055
O O4 0.681575 0.925287 0.000000
O O5 0.736483 0.500000 0.750000
O O6 0.780906 0.388479 0.781017
O O7 0.648593 0.406273 0.722971
O O8 0.424757 0.025032 0.500000
O O9 0.335429 0.090505 0.417379
O O10 0.472600 0.077436 0.373583
O O11 0.333254 0.201067 0.634629
O O12 0.211993 0.144676 0.591538
O O13 0.610771 0.775443 0.500000
O O14 0.521113 0.802261 0.382144
O O15 0.589031 0.699233 0.385865
O O16 0.004914 0.370180 0.000000
O O17 0.595140 0.418464 0.139752
O O18 0.602514 0.380495 0.000000
O O19 0.431122 0.500000 0.250000
O O20 0.500000 0.601994 0.250000
#
# Coordination Sequence:
#
# PCOD8275324 Si02
#       8
#    16  16  16  16  16  16  16  16
#     4  10  18  29  46  67  97 141 188 223 252 298
#     4  10  19  33  48  71 101 133 173 221 265 319
#     4   9  15  24  41  65  94 138 184 215 254 305
#     4  10  17  28  46  70 111 141 167 218 281 322
#     4   9  17  30  49  77 108 138 174 218 265 316
#     4   8  15  27  43  64  97 140 180 214 252 298
#     4  10  19  32  56  85 106 130 172 218 266 322
#     4   9  20  40  58  74 103 136 159 198 272 339
#
# _framework density 18.248588999999999
#
# number of rings (size 3 to 8) (size 9 to 14) (size 15 to 20)
#    0.000    2.625    1.250    2.625    0.000    2.500 
#    0.000    5.625    0.000    0.000    0.000    0.000 
#    0.000   13.000    0.000    0.000    0.000    0.000 
#
# Total GULP energy -792851.847454 kJ/mol
# GULP energy per Si atom -12388.310116 kJ/mol
# Density = 1.820705 g / cm^3
# Si number density = 18.248589 Si / 1000 Ang^3
#
#
#
# Elastic Constant Matrix: (Units=GPa)
#
#
# Indices 1 2 3 4 5 6 
#
# 1 118.2038 25.2011 49.7359 0.0000 0.0000 0.0000
# 2 25.2011 67.5809 34.1820 0.0000 0.0000 0.0000
# 3 49.7359 34.1820 75.5028 0.0000 0.0000 0.0000
# 4 0.0000 0.0000 0.0000 21.4952 0.0000 0.0000
# 5 0.0000 0.0000 0.0000 0.0000 18.8306 0.0000
# 6 0.0000 0.0000 0.0000 0.0000 0.0000 15.9257
#
#
#
# Elastic Compliance Matrix: (Units=1/GPa)
#
#
# Indices 1 2 3 4 5 6 
#
# 1 0.011723 -0.000604 -0.007449 0.000000 0.000000 0.000000
# 2 -0.000604 0.019223 -0.008305 0.000000 0.000000 0.000000
# 3 -0.007449 -0.008305 0.021911 0.000000 0.000000 0.000000
# 4 0.000000 0.000000 0.000000 0.046522 0.000000 0.000000
# 5 0.000000 0.000000 0.000000 0.000000 0.053105 0.000000
# 6 0.000000 0.000000 0.000000 0.000000 0.000000 0.062792
#
#
# Mechanical properties :
#
#
# Convention : Reuss Voigt Hill
#
# Bulk Modulus (GPa) = 49.64827 53.28061 51.46444
# Shear Modulus (GPa) = 19.63059 21.39487 20.51273
#
# Velocity S-wave (km/s) = 3.28339 3.42776 3.35636
# Velocity P-wave (km/s) = 6.45290 6.70273 6.57900
#
# Compressibility (1/GPa) = 0.02014169
#
# Stress axis : x y z
#
# Youngs Moduli (GPa) = 85.30302 52.02157 45.63901
#
# Poissons Ratio (x) = 0.03142 0.33996
# Poissons Ratio (y) = 0.05152 0.37902
# Poissons Ratio (z) = 0.63541 0.43203
#
# Static dielectric constant tensor:
#      x y z
#    x 3.632890 0.000000 0.000000 
#    y 0.000000 3.335290 0.000000 
#    z 0.000000 0.000000 3.038340 
# 
# 
# High freq. dielectric constant tensor:
#      x y z
#    x 1.707140 0.000000 0.000000 
#    y 0.000000 1.686480 0.000000 
#    z 0.000000 0.000000 1.671630 
# 
# From -- ./inp_files/42139.got.cif
#   From: 2010.03.12/outbox.cif.g09.slc.cpg/sg66_22_cif.got.tgz:42139.got - 2010.04.10 21:57:39.
