data_PCOD8275126
_publ_section_title
;
Structure prediction by ZEFSAII (Michael W. Deem and Ramdas Pophale) SiO2 
 PCOD8275126
Probable space group: C M M M
;
_chemical_formula_sum "Si O2"
_cell_formula_units_Z 88
_cell_length_a 30.542966
_cell_length_b 27.624168
_cell_length_c 7.821531
_cell_angle_alpha 90.000000
_cell_angle_beta 90.000000
_cell_angle_gamma 90.000000
_cell_volume 6599.213609
_symmetry_space_group_name_H-M "C M M M"
_symmetry_group_IT_number 65
_symmetry_cell_setting 'orthorhombic'
loop_
_space_group_symop_operation_xyz
x,y,z
-x,-y,z
x,-y,-z
-x,y,-z
-x,-y,-z
x,y,-z
-x,y,z
x,-y,z
1/2+x,1/2+y,z
1/2-x,1/2-y,z
1/2+x,1/2-y,-z
1/2-x,1/2+y,-z
1/2-x,1/2-y,-z
1/2+x,1/2+y,-z
1/2-x,1/2+y,z
1/2+x,1/2-y,z
loop_
_atom_site_type_symbol
_atom_site_label
_atom_site_fract_x
_atom_site_fract_y
_atom_site_fract_z
Si Si1 0.950687 0.693675 0.202646
Si Si2 0.595709 0.096586 0.202838
Si Si3 0.131046 0.744883 0.310546
Si Si4 0.820200 0.643483 0.310242
Si Si5 0.731081 0.826719 0.000000
Si Si6 0.950612 0.500000 0.203763
Si Si7 0.818154 0.775342 0.000000
O O1 0.934502 0.641027 0.265864
O O2 0.920616 0.736311 0.279980
O O3 0.000000 0.701845 0.268278
O O4 0.947630 0.696470 0.000000
O O5 0.644737 0.100864 0.277892
O O6 0.574398 0.047313 0.273086
O O7 0.599179 0.096520 0.000000
O O8 0.138448 0.767014 0.500000
O O9 0.154295 0.693536 0.291592
O O10 0.151614 0.780685 0.169026
O O11 0.799650 0.637778 0.500000
O O12 0.781711 0.642595 0.169160
O O13 0.783234 0.818871 0.000000
O O14 0.706489 0.775667 0.000000
O O15 0.000000 0.500000 0.275634
O O16 0.951545 0.500000 0.000000
#
# Coordination Sequence:
#
# PCOD8275126 Si02
#       7
#    16  16  16  16   8   8   8
#     4   9  15  23  36  50  65  90 120 146 172 204
#     4   9  15  25  38  51  70  90 112 146 182 214
#     4   9  16  25  36  50  69  89 107 131 164 199
#     4   9  16  26  39  53  67  85 108 132 163 204
#     4   9  16  26  40  53  67  84 102 127 157 201
#     4   9  16  24  37  57  73  90 119 149 182 223
#     4   9  16  26  37  52  70  84 101 126 160 200
#
# _framework density 13.334922000000001
#
# number of rings (size 3 to 8) (size 9 to 14) (size 15 to 20)
#    0.000    3.000    1.818    0.545    0.000    3.273 
#    0.000    4.091    0.000    2.182    0.000    0.000 
#    0.000    0.000    0.000    0.000    0.000    0.000 
#
# Total GULP energy -545376.409423 kJ/mol
# GULP energy per Si atom -12394.918396 kJ/mol
# Density = 1.330457 g / cm^3
# Si number density = 13.334922 Si / 1000 Ang^3
#
#
#
# Elastic Constant Matrix: (Units=GPa)
#
#
# Indices 1 2 3 4 5 6 
#
# 1 93.9718 37.9371 49.6581 0.0000 0.0000 0.0000
# 2 37.9371 26.6943 22.7815 0.0000 0.0000 0.0000
# 3 49.6581 22.7815 81.8308 0.0000 0.0000 0.0000
# 4 0.0000 0.0000 0.0000 4.8713 0.0000 0.0000
# 5 0.0000 0.0000 0.0000 0.0000 7.7724 0.0000
# 6 0.0000 0.0000 0.0000 0.0000 0.0000 22.1425
#
#
#
# Elastic Compliance Matrix: (Units=1/GPa)
#
#
# Indices 1 2 3 4 5 6 
#
# 1 0.028353 -0.033592 -0.007854 0.000000 0.000000 0.000000
# 2 -0.033592 0.088934 -0.004374 0.000000 0.000000 0.000000
# 3 -0.007854 -0.004374 0.018204 0.000000 0.000000 0.000000
# 4 0.000000 0.000000 0.000000 0.205284 0.000000 0.000000
# 5 0.000000 0.000000 0.000000 0.000000 0.128661 0.000000
# 6 0.000000 0.000000 0.000000 0.000000 0.000000 0.045162
#
#
# Mechanical properties :
#
#
# Convention : Reuss Voigt Hill
#
# Bulk Modulus (GPa) = 22.80427 47.02780 34.91604
# Shear Modulus (GPa) = 8.05342 13.09857 10.57599
#
# Velocity S-wave (km/s) = 2.46017 3.13753 2.81927
# Velocity P-wave (km/s) = 5.02078 6.96194 6.06947
#
# Compressibility (1/GPa) = 0.04385143
#
# Stress axis : x y z
#
# Youngs Moduli (GPa) = 35.26962 11.24429 54.93269
#
# Poissons Ratio (x) = 0.37772 0.43143
# Poissons Ratio (y) = 1.18477 0.24029
# Poissons Ratio (z) = 0.27700 0.04918
#
# Static dielectric constant tensor:
#      x y z
#    x 2.696220 0.000000 0.000000 
#    y 0.000000 2.261830 0.000000 
#    z 0.000000 0.000000 2.748770 
# 
# 
# High freq. dielectric constant tensor:
#      x y z
#    x 1.493220 0.000000 0.000000 
#    y 0.000000 1.433430 0.000000 
#    z 0.000000 0.000000 1.518930 
# 
# From -- ./inp_files/19018.got.cif
#   From: 2010.03.12/outbox.cif.g09.slc.cpg/sg65_10_cif.got.tgz:19018.got - 2010.04.10 20:52:16.
