data_PCOD8275531
_publ_section_title
;
Structure prediction by ZEFSAII (Michael W. Deem and Ramdas Pophale) SiO2 
 PCOD8275531
Probable space group: C C C M
;
_chemical_formula_sum "Si O2"
_cell_formula_units_Z 100
_cell_length_a 27.807217
_cell_length_b 27.453121
_cell_length_c 9.080339
_cell_angle_alpha 90.000000
_cell_angle_beta 90.000000
_cell_angle_gamma 90.000000
_cell_volume 6931.884419
_symmetry_space_group_name_H-M "C C C M"
_symmetry_group_IT_number 66
_symmetry_cell_setting 'orthorhombic'
loop_
_space_group_symop_operation_xyz
x,y,z
-x,-y,z
x,-y,1/2-z
-x,y,1/2-z
-x,-y,-z
x,y,-z
-x,y,1/2+z
x,-y,1/2+z
1/2+x,1/2+y,z
1/2-x,1/2-y,z
1/2+x,1/2-y,1/2-z
1/2-x,1/2+y,1/2-z
1/2-x,1/2-y,-z
1/2+x,1/2+y,-z
1/2-x,1/2+y,1/2+z
1/2+x,1/2-y,1/2+z
loop_
_atom_site_type_symbol
_atom_site_label
_atom_site_fract_x
_atom_site_fract_y
_atom_site_fract_z
Si Si1 0.277100 0.640194 0.827778
Si Si2 0.000000 0.000000 0.250000
Si Si3 0.645504 0.722638 0.669971
Si Si4 0.427541 0.421757 0.836727
Si Si5 0.952882 0.825708 0.327023
Si Si6 0.820803 0.049610 0.674313
Si Si7 0.210070 0.708522 0.333847
O O1 0.321625 0.675950 0.797442
O O2 0.286631 0.591164 0.739043
O O3 0.227950 0.663435 0.764837
O O4 0.270615 0.629215 0.000000
O O5 0.965385 0.034005 0.347568
O O6 0.649449 0.737612 0.500000
O O7 0.591580 0.708646 0.716243
O O8 0.661298 0.769227 0.765583
O O9 0.445193 0.381012 0.724152
O O10 0.376042 0.440758 0.781462
O O11 0.422804 0.398871 0.000000
O O12 0.961029 0.827470 0.500000
O O13 0.000000 0.803281 0.250000
O O14 0.813753 0.046210 0.500000
O O15 0.803806 0.000000 0.750000
O O16 0.199944 0.690817 0.500000
O O17 0.250000 0.750000 0.330549
#
# Coordination Sequence:
#
# PCOD8275531 Si02
#       7
#    16   4  16  16  16  16  16
#     4  10  18  31  48  65  86 112 139 174 219 266
#     4  12  22  36  48  62  74 104 146 192 238 276
#     4   9  18  31  46  64  86 112 138 173 217 267
#     4  11  23  34  46  60  78 104 140 186 231 272
#     4  11  22  34  47  63  84 110 144 180 223 267
#     4  11  22  34  46  63  84 110 144 182 225 269
#     4   9  17  28  45  69  89 107 133 170 212 261
#
# _framework density 14.426092000000001
#
# number of rings (size 3 to 8) (size 9 to 14) (size 15 to 20)
#    0.000    1.760    3.200    2.160    0.000    5.120 
#    0.000    0.000    0.000    0.000    0.000    0.000 
#    0.000    0.000    0.000    0.000    0.000    0.800 
#
# Total GULP energy -620070.551612 kJ/mol
# GULP energy per Si atom -12401.411032 kJ/mol
# Density = 1.439326 g / cm^3
# Si number density = 14.426092 Si / 1000 Ang^3
#
#
#
# Elastic Constant Matrix: (Units=GPa)
#
#
# Indices 1 2 3 4 5 6 
#
# 1 76.9404 53.2383 45.9688 0.0000 0.0000 0.0000
# 2 53.2383 68.6467 41.5430 0.0000 0.0000 0.0000
# 3 45.9688 41.5430 89.3092 0.0000 0.0000 0.0000
# 4 0.0000 0.0000 0.0000 23.7716 0.0000 0.0000
# 5 0.0000 0.0000 0.0000 0.0000 21.3955 0.0000
# 6 0.0000 0.0000 0.0000 0.0000 0.0000 24.5359
#
#
#
# Elastic Compliance Matrix: (Units=1/GPa)
#
#
# Indices 1 2 3 4 5 6 
#
# 1 0.030576 -0.019748 -0.006552 0.000000 0.000000 0.000000
# 2 -0.019748 0.033029 -0.005199 0.000000 0.000000 0.000000
# 3 -0.006552 -0.005199 0.016988 0.000000 0.000000 0.000000
# 4 0.000000 0.000000 0.000000 0.042067 0.000000 0.000000
# 5 0.000000 0.000000 0.000000 0.000000 0.046739 0.000000
# 6 0.000000 0.000000 0.000000 0.000000 0.000000 0.040757
#
#
# Mechanical properties :
#
#
# Convention : Reuss Voigt Hill
#
# Bulk Modulus (GPa) = 56.83512 57.37738 57.10625
# Shear Modulus (GPa) = 17.91996 20.21701 19.06848
#
# Velocity S-wave (km/s) = 3.52830 3.74762 3.63961
# Velocity P-wave (km/s) = 7.48876 7.65414 7.57190
#
# Compressibility (1/GPa) = 0.01759475
#
# Stress axis : x y z
#
# Youngs Moduli (GPa) = 32.70543 30.27644 58.86522
#
# Poissons Ratio (x) = 0.59789 0.38569
# Poissons Ratio (y) = 0.64586 0.30606
# Poissons Ratio (z) = 0.21429 0.15742
#
# Static dielectric constant tensor:
#      x y z
#    x 2.782350 0.000000 0.000000 
#    y 0.000000 2.617740 0.000000 
#    z 0.000000 0.000000 2.904660 
# 
# 
# High freq. dielectric constant tensor:
#      x y z
#    x 1.525380 0.000000 0.000000 
#    y 0.000000 1.519120 0.000000 
#    z 0.000000 0.000000 1.568400 
# 
# From -- ./inp_files/10872.got.cif
#   From: 2010.03.12/outbox.cif.g09.slc.cpg/sg66_6_cif.got.tgz:10872.got - 2010.04.10 21:57:39.
