data_PCOD8275552
_publ_section_title
;
Structure prediction by ZEFSAII (Michael W. Deem and Ramdas Pophale) SiO2 
 PCOD8275552
Probable space group: C C C M
;
_chemical_formula_sum "Si O2"
_cell_formula_units_Z 96
_cell_length_a 18.460001
_cell_length_b 30.037990
_cell_length_c 10.228533
_cell_angle_alpha 90.000000
_cell_angle_beta 90.000000
_cell_angle_gamma 90.000000
_cell_volume 5671.735106
_symmetry_space_group_name_H-M "C C C M"
_symmetry_group_IT_number 66
_symmetry_cell_setting 'orthorhombic'
loop_
_space_group_symop_operation_xyz
x,y,z
-x,-y,z
x,-y,1/2-z
-x,y,1/2-z
-x,-y,-z
x,y,-z
-x,y,1/2+z
x,-y,1/2+z
1/2+x,1/2+y,z
1/2-x,1/2-y,z
1/2+x,1/2-y,1/2-z
1/2-x,1/2+y,1/2-z
1/2-x,1/2-y,-z
1/2+x,1/2+y,-z
1/2-x,1/2+y,1/2+z
1/2+x,1/2-y,1/2+z
loop_
_atom_site_type_symbol
_atom_site_label
_atom_site_fract_x
_atom_site_fract_y
_atom_site_fract_z
Si Si1 0.288389 0.292392 0.150783
Si Si2 0.415284 0.553224 0.000000
Si Si3 0.281009 0.118199 0.846277
Si Si4 0.559200 0.745630 0.146638
Si Si5 0.077603 0.052267 0.000000
Si Si6 0.829538 0.947388 0.753758
Si Si7 0.062790 0.651611 0.350116
O O1 0.250000 0.250000 0.219819
O O2 0.260911 0.338628 0.211628
O O3 0.374182 0.287674 0.167108
O O4 0.263721 0.292968 0.000000
O O5 0.496731 0.573237 0.000000
O O6 0.424865 0.500617 0.000000
O O7 0.370431 0.569479 0.875062
O O8 0.248883 0.075847 0.768630
O O9 0.366483 0.122366 0.817315
O O10 0.267099 0.111812 0.000000
O O11 0.500000 0.730182 0.250000
O O12 0.583596 0.796637 0.170488
O O13 0.527716 0.740735 0.000000
O O14 0.119775 0.068767 0.872360
O O15 0.815915 0.000000 0.750000
O O16 0.037365 0.643416 0.500000
O O17 0.000000 0.636828 0.250000
#
# Coordination Sequence:
#
# PCOD8275552 Si02
#       7
#    16   8  16  16   8  16  16
#     4   9  15  27  49  74  95 124 166 204 235 283
#     4   9  18  30  50  74 100 129 165 211 247 289
#     4  10  18  31  53  75  98 131 169 205 243 297
#     4   9  16  28  48  71  96 127 161 200 240 283
#     4   9  16  32  52  72  96 131 173 205 243 289
#     4  10  19  32  51  76 100 130 168 207 249 290
#     4   9  17  30  50  75  98 124 163 205 244 292
#
# _framework density 16.926037999999998
#
# number of rings (size 3 to 8) (size 9 to 14) (size 15 to 20)
#    0.000    2.667    2.500    0.500    0.000    2.000 
#    1.500    1.667    1.833    1.000    0.000    2.333 
#    0.000    0.000    0.000    0.000    0.000    0.000 
#
# Total GULP energy -595059.080548 kJ/mol
# GULP energy per Si atom -12397.064178 kJ/mol
# Density = 1.688751 g / cm^3
# Si number density = 16.926038 Si / 1000 Ang^3
#
#
#
# Elastic Constant Matrix: (Units=GPa)
#
#
# Indices 1 2 3 4 5 6 
#
# 1 117.7304 43.7378 63.7001 0.0000 0.0000 0.0000
# 2 43.7378 53.5312 27.2517 0.0000 0.0000 0.0000
# 3 63.7001 27.2517 99.6585 0.0000 0.0000 0.0000
# 4 0.0000 0.0000 0.0000 12.4106 0.0000 0.0000
# 5 0.0000 0.0000 0.0000 0.0000 29.8769 0.0000
# 6 0.0000 0.0000 0.0000 0.0000 0.0000 26.8782
#
#
#
# Elastic Compliance Matrix: (Units=1/GPa)
#
#
# Indices 1 2 3 4 5 6 
#
# 1 0.016134 -0.009215 -0.007793 0.000000 0.000000 0.000000
# 2 -0.009215 0.026965 -0.001483 0.000000 0.000000 0.000000
# 3 -0.007793 -0.001483 0.015421 0.000000 0.000000 0.000000
# 4 0.000000 0.000000 0.000000 0.080576 0.000000 0.000000
# 5 0.000000 0.000000 0.000000 0.000000 0.033471 0.000000
# 6 0.000000 0.000000 0.000000 0.000000 0.000000 0.037205
#
#
# Mechanical properties :
#
#
# Convention : Reuss Voigt Hill
#
# Bulk Modulus (GPa) = 46.43087 60.03326 53.23207
# Shear Modulus (GPa) = 19.69025 22.91518 21.30271
#
# Velocity S-wave (km/s) = 3.41444 3.68345 3.55149
# Velocity P-wave (km/s) = 6.56016 7.32362 6.95238
#
# Compressibility (1/GPa) = 0.02153740
#
# Stress axis : x y z
#
# Youngs Moduli (GPa) = 61.98177 37.08489 64.84748
#
# Poissons Ratio (x) = 0.34174 0.50533
# Poissons Ratio (y) = 0.57117 0.09620
# Poissons Ratio (z) = 0.48300 0.05502
#
# Static dielectric constant tensor:
#      x y z
#    x 3.125320 0.000000 0.000000 
#    y 0.000000 2.932130 0.000000 
#    z 0.000000 0.000000 3.061030 
# 
# 
# High freq. dielectric constant tensor:
#      x y z
#    x 1.652100 0.000000 0.000000 
#    y 0.000000 1.623270 0.000000 
#    z 0.000000 0.000000 1.632510 
# 
# From -- ./inp_files/16767.got.cif
#   From: 2010.03.12/outbox.cif.g09.slc.cpg/sg66_9_cif.got.tgz:16767.got - 2010.04.10 21:57:39.
