data_PCOD8275787
_publ_section_title
;
Structure prediction by ZEFSAII (Michael W. Deem and Ramdas Pophale) SiO2 
 PCOD8275787
Probable space group: C C C M
;
_chemical_formula_sum "Si O2"
_cell_formula_units_Z 80
_cell_length_a 17.127080
_cell_length_b 8.992713
_cell_length_c 25.991278
_cell_angle_alpha 90.000000
_cell_angle_beta 90.000000
_cell_angle_gamma 90.000000
_cell_volume 4003.148436
_symmetry_space_group_name_H-M "C C C M"
_symmetry_group_IT_number 66
_symmetry_cell_setting 'orthorhombic'
loop_
_space_group_symop_operation_xyz
x,y,z
-x,-y,z
x,-y,1/2-z
-x,y,1/2-z
-x,-y,-z
x,y,-z
-x,y,1/2+z
x,-y,1/2+z
1/2+x,1/2+y,z
1/2-x,1/2-y,z
1/2+x,1/2-y,1/2-z
1/2-x,1/2+y,1/2-z
1/2-x,1/2-y,-z
1/2+x,1/2+y,-z
1/2-x,1/2+y,1/2+z
1/2+x,1/2-y,1/2+z
loop_
_atom_site_type_symbol
_atom_site_label
_atom_site_fract_x
_atom_site_fract_y
_atom_site_fract_z
Si Si1 0.418934 0.096338 0.000000
Si Si2 0.662254 0.804909 0.500000
Si Si3 0.914803 0.180482 0.594508
Si Si4 0.596483 0.353363 0.097607
Si Si5 0.093695 0.674243 0.806014
Si Si6 0.407956 0.159778 0.807064
O O1 0.407990 0.201988 0.048833
O O2 0.500000 0.000000 0.000000
O O3 0.345844 0.983340 0.000000
O O4 0.750000 0.750000 0.500000
O O5 0.618926 0.749780 0.449466
O O6 0.873909 0.243839 0.645998
O O7 0.004530 0.146871 0.604019
O O8 0.873097 0.020616 0.585013
O O9 0.630639 0.285517 0.151230
O O10 0.124812 0.506918 0.814517
O O11 0.118317 0.726784 0.748399
O O12 0.000992 0.664524 0.810437
#
# Coordination Sequence:
#
# PCOD8275787 Si02
#       6
#     8   8  16  16  16  16
#     4  12  21  35  57  79 102 144 191 230 276 347
#     4  12  25  39  55  77 106 145 187 228 273 334
#     4  10  19  30  53  81 108 137 177 226 282 331
#     4  10  19  33  50  77 111 141 175 228 280 327
#     4   8  14  25  44  69 109 142 172 214 267 327
#     4   8  14  24  42  75 106 140 173 214 270 324
#
# _framework density 19.984272000000001
#
# number of rings (size 3 to 8) (size 9 to 14) (size 15 to 20)
#    0.000    2.400    2.000    3.000    2.800    2.400 
#    0.000    6.000    0.000    0.000    0.000   11.200 
#    0.000    0.000    0.000    0.000    0.000    0.000 
#
# Total GULP energy -495557.596932 kJ/mol
# GULP energy per Si atom -12388.939923 kJ/mol
# Density = 1.993879 g / cm^3
# Si number density = 19.984272 Si / 1000 Ang^3
#
#
#
# Elastic Constant Matrix: (Units=GPa)
#
#
# Indices 1 2 3 4 5 6 
#
# 1 15.2414 11.9394 4.7309 0.0000 0.0000 0.0000
# 2 11.9394 163.5764 99.7575 0.0000 0.0000 0.0000
# 3 4.7309 99.7575 195.0455 0.0000 0.0000 0.0000
# 4 0.0000 0.0000 0.0000 -29.5632 0.0000 0.0000
# 5 0.0000 0.0000 0.0000 0.0000 -4.9220 0.0000
# 6 0.0000 0.0000 0.0000 0.0000 0.0000 12.1231
#
#
#
# Elastic Compliance Matrix: (Units=1/GPa)
#
#
# Indices 1 2 3 4 5 6 
#
# 1 0.069825 -0.005906 0.001327 0.000000 0.000000 0.000000
# 2 -0.005906 0.009384 -0.004656 0.000000 0.000000 0.000000
# 3 0.001327 -0.004656 0.007476 0.000000 0.000000 0.000000
# 4 0.000000 0.000000 0.000000 -0.033826 0.000000 0.000000
# 5 0.000000 0.000000 0.000000 0.000000 -0.203170 0.000000
# 6 0.000000 0.000000 0.000000 0.000000 0.000000 0.082487
#
#
# Mechanical properties :
#
#
# Convention : Reuss Voigt Hill
#
# Bulk Modulus (GPa) = 14.65949 67.41320 41.03634
# Shear Modulus (GPa) = -187.86463 12.68997 -87.58733
#
# Velocity S-wave (km/s) = -9.70620 2.52265 -6.62746
# Velocity P-wave (km/s) = 10.87485 6.50318 6.16324
#
# Compressibility (1/GPa) = 0.06821521
#
# Stress axis : x y z
#
# Youngs Moduli (GPa) = 14.32150 106.56357 133.75555
#
# Poissons Ratio (x) = 0.62934 -0.17748
# Poissons Ratio (y) = 0.08458 0.62281
# Poissons Ratio (z) = -0.01900 0.49619
#
# Static dielectric constant tensor:
#      x y z
#    x 2.836440 0.000000 0.000000 
#    y 0.000000 4.062660 0.000000 
#    z 0.000000 0.000000 4.015500 
# 
# 
# High freq. dielectric constant tensor:
#      x y z
#    x 1.691840 0.000000 0.000000 
#    y 0.000000 1.790600 0.000000 
#    z 0.000000 0.000000 1.802590 
# 
# From -- ./inp_files/65139.got.cif
#   From: 2010.03.12/outbox.cif.g09.slc.cpg/sg66_33_cif.got.tgz:65139.got - 2010.04.10 21:57:39.
