data_PCOD8275353
_publ_section_title
;
Structure prediction by ZEFSAII (Michael W. Deem and Ramdas Pophale) SiO2 
 PCOD8275353
Probable space group: C C C M
;
_chemical_formula_sum "Si O2"
_cell_formula_units_Z 80
_cell_length_a 12.321550
_cell_length_b 22.050150
_cell_length_c 17.191772
_cell_angle_alpha 90.000000
_cell_angle_beta 90.000000
_cell_angle_gamma 90.000000
_cell_volume 4670.867361
_symmetry_space_group_name_H-M "C C C M"
_symmetry_group_IT_number 66
_symmetry_cell_setting 'orthorhombic'
loop_
_space_group_symop_operation_xyz
x,y,z
-x,-y,z
x,-y,1/2-z
-x,y,1/2-z
-x,-y,-z
x,y,-z
-x,y,1/2+z
x,-y,1/2+z
1/2+x,1/2+y,z
1/2-x,1/2-y,z
1/2+x,1/2-y,1/2-z
1/2-x,1/2+y,1/2-z
1/2-x,1/2-y,-z
1/2+x,1/2+y,-z
1/2-x,1/2+y,1/2+z
1/2+x,1/2-y,1/2+z
loop_
_atom_site_type_symbol
_atom_site_label
_atom_site_fract_x
_atom_site_fract_y
_atom_site_fract_z
Si Si1 0.005556 0.088642 0.591790
Si Si2 0.656593 0.166825 0.407727
Si Si3 0.109040 0.204299 0.908071
Si Si4 0.332181 0.497339 0.341821
Si Si5 0.608240 0.965967 0.907554
O O1 0.015557 0.080041 0.500000
O O2 0.988661 0.159269 0.615742
O O3 0.900878 0.051220 0.619835
O O4 0.115839 0.066718 0.632127
O O5 0.656806 0.162491 0.500000
O O6 0.778304 0.176668 0.375067
O O7 0.587625 0.226315 0.379476
O O8 0.606398 0.103736 0.376022
O O9 0.122451 0.205752 0.000000
O O10 0.338671 0.500000 0.250000
O O11 0.209074 0.498838 0.370341
O O12 0.500000 0.000000 0.879046
O O13 0.619633 0.968735 0.000000
#
# Coordination Sequence:
#
# PCOD8275353 Si02
#       5
#    16  16  16  16  16
#     4  10  17  29  50  74 100 123 154 202 249 286
#     4   8  13  24  42  72 100 116 151 197 239 274
#     4   8  13  22  44  73  98 118 144 198 246 274
#     4  11  21  31  44  70 100 134 160 192 245 298
#     4  10  19  32  51  73  96 126 165 206 239 282
#
# _framework density 17.12744
#
# number of rings (size 3 to 8) (size 9 to 14) (size 15 to 20)
#    0.000    2.600    2.000    4.800    0.000    0.400 
#    0.000    0.000    0.000    1.200   15.600    7.000 
#    0.000    0.000    0.000    0.000    0.000    0.000 
#
# Total GULP energy -495608.714484 kJ/mol
# GULP energy per Si atom -12390.217862 kJ/mol
# Density = 1.708846 g / cm^3
# Si number density = 17.127440 Si / 1000 Ang^3
#
#
#
# Elastic Constant Matrix: (Units=GPa)
#
#
# Indices 1 2 3 4 5 6 
#
# 1 114.8777 81.9833 35.5395 0.0000 0.0000 0.0000
# 2 81.9833 163.8089 24.6337 0.0000 0.0000 0.0000
# 3 35.5395 24.6337 53.0293 0.0000 0.0000 0.0000
# 4 0.0000 0.0000 0.0000 -2.3186 0.0000 0.0000
# 5 0.0000 0.0000 0.0000 0.0000 10.2718 0.0000
# 6 0.0000 0.0000 0.0000 0.0000 0.0000 31.8012
#
#
#
# Elastic Compliance Matrix: (Units=1/GPa)
#
#
# Indices 1 2 3 4 5 6 
#
# 1 0.015892 -0.006829 -0.007478 0.000000 0.000000 0.000000
# 2 -0.006829 0.009498 0.000165 0.000000 0.000000 0.000000
# 3 -0.007478 0.000165 0.023793 0.000000 0.000000 0.000000
# 4 0.000000 0.000000 0.000000 -0.431303 0.000000 0.000000
# 5 0.000000 0.000000 0.000000 0.000000 0.097354 0.000000
# 6 0.000000 0.000000 0.000000 0.000000 0.000000 0.031445
#
#
# Mechanical properties :
#
#
# Convention : Reuss Voigt Hill
#
# Bulk Modulus (GPa) = 47.85296 68.44765 58.15031
# Shear Modulus (GPa) = -22.92846 20.58819 -1.17014
#
# Velocity S-wave (km/s) = -3.66279 3.47083 -0.82745
# Velocity P-wave (km/s) = 3.17993 7.49084 5.75433
#
# Compressibility (1/GPa) = 0.02089735
#
# Stress axis : x y z
#
# Youngs Moduli (GPa) = 62.92424 105.28828 42.02947
#
# Poissons Ratio (x) = 0.71903 0.31431
# Poissons Ratio (y) = 0.42972 -0.00693
# Poissons Ratio (z) = 0.47057 -0.01735
#
# Static dielectric constant tensor:
#      x y z
#    x 3.123890 0.000000 0.000000 
#    y 0.000000 3.744090 0.000000 
#    z 0.000000 0.000000 2.797000 
# 
# 
# High freq. dielectric constant tensor:
#      x y z
#    x 1.634530 0.000000 0.000000 
#    y 0.000000 1.672430 0.000000 
#    z 0.000000 0.000000 1.619180 
# 
# From -- ./inp_files/26397.got.cif
#   From: 2010.03.12/outbox.cif.g09.slc.cpg/sg66_14_cif.got.tgz:26397.got - 2010.04.10 21:57:39.
