data_PCOD8275480
_publ_section_title
;
Structure prediction by ZEFSAII (Michael W. Deem and Ramdas Pophale) SiO2 
 PCOD8275480
Probable space group: C C C M
;
_chemical_formula_sum "Si O2"
_cell_formula_units_Z 96
_cell_length_a 8.339871
_cell_length_b 25.090708
_cell_length_c 26.890959
_cell_angle_alpha 90.000000
_cell_angle_beta 90.000000
_cell_angle_gamma 90.000000
_cell_volume 5627.021051
_symmetry_space_group_name_H-M "C C C M"
_symmetry_group_IT_number 66
_symmetry_cell_setting 'orthorhombic'
loop_
_space_group_symop_operation_xyz
x,y,z
-x,-y,z
x,-y,1/2-z
-x,y,1/2-z
-x,-y,-z
x,y,-z
-x,y,1/2+z
x,-y,1/2+z
1/2+x,1/2+y,z
1/2-x,1/2-y,z
1/2+x,1/2-y,1/2-z
1/2-x,1/2+y,1/2-z
1/2-x,1/2-y,-z
1/2+x,1/2+y,-z
1/2-x,1/2+y,1/2+z
1/2+x,1/2-y,1/2+z
loop_
_atom_site_type_symbol
_atom_site_label
_atom_site_fract_x
_atom_site_fract_y
_atom_site_fract_z
Si Si1 0.552673 0.440870 0.694138
Si Si2 0.946177 0.338678 0.806156
Si Si3 0.826018 0.308145 0.944609
Si Si4 0.066045 0.553594 0.305826
Si Si5 0.570610 0.241506 0.377139
Si Si6 0.627916 0.653994 0.641573
O O1 0.500000 0.500000 0.678809
O O2 0.500000 0.426243 0.750000
O O3 0.743555 0.439645 0.691538
O O4 0.469146 0.399410 0.655938
O O5 0.755826 0.329567 0.815211
O O6 0.000000 0.344096 0.750000
O O7 0.989360 0.395011 0.832914
O O8 0.054186 0.290669 0.826004
O O9 0.750000 0.250000 0.946291
O O10 0.725224 0.350164 0.910889
O O11 0.996962 0.296471 0.919705
O O12 0.843518 0.332338 0.000000
O O13 0.000000 0.500000 0.333098
O O14 0.000000 0.550931 0.250000
O O15 0.750000 0.250000 0.394046
O O16 0.495491 0.298681 0.366623
#
# Coordination Sequence:
#
# PCOD8275480 Si02
#       6
#    16  16  16  16  16  16
#     4  11  20  31  48  71  98 131 168 204 240 284
#     4  10  19  31  45  65  96 133 165 198 241 289
#     4   8  16  33  54  72  95 126 159 202 252 296
#     4  10  18  30  45  64  91 127 167 202 235 275
#     4  10  20  31  46  73 101 126 162 201 243 298
#     4  10  20  34  50  72  98 128 167 204 244 293
#
# _framework density 17.060537
#
# number of rings (size 3 to 8) (size 9 to 14) (size 15 to 20)
#    0.000    2.167    0.000    7.500    0.000    2.333 
#    0.000    0.000    0.000    0.500    0.000    0.000 
#    0.000   18.000    0.000    0.000    0.000    0.000 
#
# Total GULP energy -594666.271881 kJ/mol
# GULP energy per Si atom -12388.880664 kJ/mol
# Density = 1.702171 g / cm^3
# Si number density = 17.060537 Si / 1000 Ang^3
#
#
#
# Elastic Constant Matrix: (Units=GPa)
#
#
# Indices 1 2 3 4 5 6 
#
# 1 142.3770 45.1057 47.1559 0.0000 0.0000 0.0000
# 2 45.1057 102.2517 50.8923 0.0000 0.0000 0.0000
# 3 47.1559 50.8923 87.1454 0.0000 0.0000 0.0000
# 4 0.0000 0.0000 0.0000 17.7149 0.0000 0.0000
# 5 0.0000 0.0000 0.0000 0.0000 11.6312 0.0000
# 6 0.0000 0.0000 0.0000 0.0000 0.0000 22.3882
#
#
#
# Elastic Compliance Matrix: (Units=1/GPa)
#
#
# Indices 1 2 3 4 5 6 
#
# 1 0.008881 -0.002151 -0.003549 0.000000 0.000000 0.000000
# 2 -0.002151 0.014308 -0.007192 0.000000 0.000000 0.000000
# 3 -0.003549 -0.007192 0.017596 0.000000 0.000000 0.000000
# 4 0.000000 0.000000 0.000000 0.056450 0.000000 0.000000
# 5 0.000000 0.000000 0.000000 0.000000 0.085975 0.000000
# 6 0.000000 0.000000 0.000000 0.000000 0.000000 0.044666
#
#
# Mechanical properties :
#
#
# Convention : Reuss Voigt Hill
#
# Bulk Modulus (GPa) = 66.66629 68.67576 67.67102
# Shear Modulus (GPa) = 19.33039 22.92156 21.12598
#
# Velocity S-wave (km/s) = 3.36973 3.66941 3.52276
# Velocity P-wave (km/s) = 7.36894 7.63507 7.50319
#
# Compressibility (1/GPa) = 0.01500009
#
# Stress axis : x y z
#
# Youngs Moduli (GPa) = 112.60545 69.89017 56.83192
#
# Poissons Ratio (x) = 0.15032 0.20172
# Poissons Ratio (y) = 0.24220 0.40873
# Poissons Ratio (z) = 0.39967 0.50265
#
# Static dielectric constant tensor:
#      x y z
#    x 3.343780 0.000000 0.000000 
#    y 0.000000 3.683150 0.000000 
#    z 0.000000 0.000000 3.167570 
# 
# 
# High freq. dielectric constant tensor:
#      x y z
#    x 1.671730 0.000000 0.000000 
#    y 0.000000 1.661160 0.000000 
#    z 0.000000 0.000000 1.615500 
# 
# From -- ./inp_files/62786.got.cif
#   From: 2010.03.12/outbox.cif.g09.slc.cpg/sg66_32_cif.got.tgz:62786.got - 2010.04.10 21:57:39.
