data_PCOD8275635
_publ_section_title
;
Structure prediction by ZEFSAII (Michael W. Deem and Ramdas Pophale) SiO2 
 PCOD8275635
Probable space group: C C C M
;
_chemical_formula_sum "Si O2"
_cell_formula_units_Z 112
_cell_length_a 15.001563
_cell_length_b 14.172234
_cell_length_c 25.984618
_cell_angle_alpha 90.000000
_cell_angle_beta 90.000000
_cell_angle_gamma 90.000000
_cell_volume 5524.476891
_symmetry_space_group_name_H-M "C C C M"
_symmetry_group_IT_number 66
_symmetry_cell_setting 'orthorhombic'
loop_
_space_group_symop_operation_xyz
x,y,z
-x,-y,z
x,-y,1/2-z
-x,y,1/2-z
-x,-y,-z
x,y,-z
-x,y,1/2+z
x,-y,1/2+z
1/2+x,1/2+y,z
1/2-x,1/2-y,z
1/2+x,1/2-y,1/2-z
1/2-x,1/2+y,1/2-z
1/2-x,1/2-y,-z
1/2+x,1/2+y,-z
1/2-x,1/2+y,1/2+z
1/2+x,1/2-y,1/2+z
loop_
_atom_site_type_symbol
_atom_site_label
_atom_site_fract_x
_atom_site_fract_y
_atom_site_fract_z
Si Si1 0.709269 0.088205 0.713694
Si Si2 0.250467 0.997661 0.556675
Si Si3 0.835357 0.194458 0.943830
Si Si4 0.441004 0.641276 0.851524
Si Si5 0.914499 0.312356 0.783160
Si Si6 0.598770 0.976111 0.635834
Si Si7 0.135228 0.064984 0.143572
O O1 0.672138 0.176921 0.746282
O O2 0.805026 0.111061 0.688563
O O3 0.723542 0.000000 0.750000
O O4 0.636605 0.061153 0.670445
O O5 0.272549 0.954199 0.500000
O O6 0.191964 0.924603 0.590774
O O7 0.187230 0.086090 0.548475
O O8 0.340444 0.031916 0.584981
O O9 0.750000 0.250000 0.922285
O O10 0.913231 0.201504 0.901789
O O11 0.865145 0.235821 0.000000
O O12 0.423140 0.703820 0.800872
O O13 0.384614 0.545458 0.844573
O O14 0.545250 0.623556 0.859237
O O15 0.902140 0.378568 0.832769
O O16 0.000000 0.344579 0.750000
O O17 0.500000 0.000000 0.616914
#
# Coordination Sequence:
#
# PCOD8275635 Si02
#       7
#    16  16  16  16  16  16  16
#     4   9  19  35  58  74 107 151 187 228 296 331
#     4   9  18  32  55  84 109 147 190 225 282 355
#     4   9  17  32  54  82 114 143 179 235 293 336
#     4  10  21  36  57  84 114 146 198 232 280 344
#     4  11  21  35  57  83 108 148 200 241 279 345
#     4  10  18  33  57  80 114 147 183 243 291 327
#     4   9  20  39  55  79 118 156 178 239 292 331
#
# _framework density 20.273413000000001
#
# number of rings (size 3 to 8) (size 9 to 14) (size 15 to 20)
#    0.000    2.429    1.429    0.857    0.000    3.143 
#    0.000   10.714    0.000    0.000    0.000    1.000 
#    0.000    0.000    0.000    0.000    0.000    0.000 
#
# Total GULP energy -694140.946100 kJ/mol
# GULP energy per Si atom -12395.374037 kJ/mol
# Density = 2.022727 g / cm^3
# Si number density = 20.273413 Si / 1000 Ang^3
#
#
#
# Elastic Constant Matrix: (Units=GPa)
#
#
# Indices 1 2 3 4 5 6 
#
# 1 146.9938 35.0231 83.4428 0.0000 0.0000 0.0000
# 2 35.0231 55.6504 38.6439 0.0000 0.0000 0.0000
# 3 83.4428 38.6439 142.4257 0.0000 0.0000 0.0000
# 4 0.0000 0.0000 0.0000 23.2589 0.0000 0.0000
# 5 0.0000 0.0000 0.0000 0.0000 17.1785 0.0000
# 6 0.0000 0.0000 0.0000 0.0000 0.0000 24.8716
#
#
#
# Elastic Compliance Matrix: (Units=1/GPa)
#
#
# Indices 1 2 3 4 5 6 
#
# 1 0.010558 -0.002895 -0.005400 0.000000 0.000000 0.000000
# 2 -0.002895 0.022935 -0.004527 0.000000 0.000000 0.000000
# 3 -0.005400 -0.004527 0.011413 0.000000 0.000000 0.000000
# 4 0.000000 0.000000 0.000000 0.042994 0.000000 0.000000
# 5 0.000000 0.000000 0.000000 0.000000 0.058212 0.000000
# 6 0.000000 0.000000 0.000000 0.000000 0.000000 0.040206
#
#
# Mechanical properties :
#
#
# Convention : Reuss Voigt Hill
#
# Bulk Modulus (GPa) = 51.91472 73.25441 62.58457
# Shear Modulus (GPa) = 22.89544 25.59246 24.24395
#
# Velocity S-wave (km/s) = 3.36420 3.55683 3.46186
# Velocity P-wave (km/s) = 6.38383 7.28559 6.84957
#
# Compressibility (1/GPa) = 0.01926236
#
# Stress axis : x y z
#
# Youngs Moduli (GPa) = 94.71231 43.60235 87.61667
#
# Poissons Ratio (x) = 0.12622 0.47316
# Poissons Ratio (y) = 0.27417 0.39663
# Poissons Ratio (z) = 0.51148 0.19738
#
# Static dielectric constant tensor:
#      x y z
#    x 3.661990 0.000000 0.000000 
#    y 0.000000 3.323680 0.000000 
#    z 0.000000 0.000000 4.132270 
# 
# 
# High freq. dielectric constant tensor:
#      x y z
#    x 1.792130 0.000000 0.000000 
#    y 0.000000 1.757350 0.000000 
#    z 0.000000 0.000000 1.796710 
# 
# From -- ./inp_files/58238.got.cif
#   From: 2010.03.12/outbox.cif.g09.slc.cpg/sg66_30_cif.got.tgz:58238.got - 2010.04.10 21:57:39.
