data_PCOD8275609
_publ_section_title
;
Structure prediction by ZEFSAII (Michael W. Deem and Ramdas Pophale) SiO2 
 PCOD8275609
Probable space group: C C C M
;
_chemical_formula_sum "Si O2"
_cell_formula_units_Z 88
_cell_length_a 24.633405
_cell_length_b 19.799075
_cell_length_c 9.368093
_cell_angle_alpha 90.000000
_cell_angle_beta 90.000000
_cell_angle_gamma 90.000000
_cell_volume 4568.993513
_symmetry_space_group_name_H-M "C C C M"
_symmetry_group_IT_number 66
_symmetry_cell_setting 'orthorhombic'
loop_
_space_group_symop_operation_xyz
x,y,z
-x,-y,z
x,-y,1/2-z
-x,y,1/2-z
-x,-y,-z
x,y,-z
-x,y,1/2+z
x,-y,1/2+z
1/2+x,1/2+y,z
1/2-x,1/2-y,z
1/2+x,1/2-y,1/2-z
1/2-x,1/2+y,1/2-z
1/2-x,1/2-y,-z
1/2+x,1/2+y,-z
1/2-x,1/2+y,1/2+z
1/2+x,1/2-y,1/2+z
loop_
_atom_site_type_symbol
_atom_site_label
_atom_site_fract_x
_atom_site_fract_y
_atom_site_fract_z
Si Si1 0.250000 0.750000 0.248464
Si Si2 0.668941 0.437399 0.333684
Si Si3 0.229839 0.395039 0.340419
Si Si4 0.390363 0.934445 0.834071
Si Si5 0.945569 0.703926 0.667876
Si Si6 0.635746 0.709429 0.157903
O O1 0.235949 0.685850 0.150665
O O2 0.301767 0.733161 0.346495
O O3 0.640866 0.500000 0.250000
O O4 0.673918 0.454468 0.500000
O O5 0.729330 0.428509 0.270886
O O6 0.633158 0.370553 0.307473
O O7 0.240449 0.423130 0.500000
O O8 0.169969 0.413872 0.285470
O O9 0.430640 0.873220 0.796795
O O10 0.410953 0.000000 0.750000
O O11 0.392055 0.951638 0.000000
O O12 0.952953 0.715862 0.500000
O O13 0.897804 0.752700 0.721053
O O14 0.000000 0.723771 0.750000
O O15 0.611523 0.723639 0.000000
#
# Coordination Sequence:
#
# PCOD8275609 Si02
#       6
#     8  16  16  16  16  16
#     4  10  18  32  56  88 120 150 192 238 288 346
#     4  10  21  35  53  83 120 157 194 231 282 345
#     4  10  19  32  52  80 116 156 195 237 285 342
#     4  10  22  38  55  81 112 149 195 241 290 343
#     4  11  24  43  63  86 114 149 198 246 295 349
#     4  10  21  37  59  88 119 153 192 238 289 345
#
# _framework density 19.260259999999999
#
# number of rings (size 3 to 8) (size 9 to 14) (size 15 to 20)
#    0.000    1.818    1.818    2.182    0.000    8.364 
#    0.000    1.818    0.000    0.545    0.000    3.818 
#    0.000    0.000    0.000    0.000    0.000    0.000 
#
# Total GULP energy -545644.386288 kJ/mol
# GULP energy per Si atom -12401.008779 kJ/mol
# Density = 1.921642 g / cm^3
# Si number density = 19.260260 Si / 1000 Ang^3
#
#
#
# Elastic Constant Matrix: (Units=GPa)
#
#
# Indices 1 2 3 4 5 6 
#
# 1 71.1019 33.5442 39.9036 0.0000 0.0000 0.0000
# 2 33.5442 121.4101 59.9330 0.0000 0.0000 0.0000
# 3 39.9036 59.9330 115.7607 0.0000 0.0000 0.0000
# 4 0.0000 0.0000 0.0000 31.9916 0.0000 0.0000
# 5 0.0000 0.0000 0.0000 0.0000 14.0564 0.0000
# 6 0.0000 0.0000 0.0000 0.0000 0.0000 17.9410
#
#
#
# Elastic Compliance Matrix: (Units=1/GPa)
#
#
# Indices 1 2 3 4 5 6 
#
# 1 0.018015 -0.002568 -0.004880 0.000000 0.000000 0.000000
# 2 -0.002568 0.011430 -0.005033 0.000000 0.000000 0.000000
# 3 -0.004880 -0.005033 0.012926 0.000000 0.000000 0.000000
# 4 0.000000 0.000000 0.000000 0.031258 0.000000 0.000000
# 5 0.000000 0.000000 0.000000 0.000000 0.071142 0.000000
# 6 0.000000 0.000000 0.000000 0.000000 0.000000 0.055738
#
#
# Mechanical properties :
#
#
# Convention : Reuss Voigt Hill
#
# Bulk Modulus (GPa) = 57.43999 63.89269 60.66634
# Shear Modulus (GPa) = 21.61925 24.45725 23.03825
#
# Velocity S-wave (km/s) = 3.35398 3.56733 3.46230
# Velocity P-wave (km/s) = 6.69975 7.08612 6.89565
#
# Compressibility (1/GPa) = 0.01740947
#
# Stress axis : x y z
#
# Youngs Moduli (GPa) = 55.51001 87.48586 77.36174
#
# Poissons Ratio (x) = 0.22468 0.37754
# Poissons Ratio (y) = 0.14256 0.38933
# Poissons Ratio (z) = 0.27090 0.44028
#
# Static dielectric constant tensor:
#      x y z
#    x 3.209570 0.000000 0.000000 
#    y 0.000000 3.752700 0.000000 
#    z 0.000000 0.000000 3.414540 
# 
# 
# High freq. dielectric constant tensor:
#      x y z
#    x 1.716470 0.000000 0.000000 
#    y 0.000000 1.761220 0.000000 
#    z 0.000000 0.000000 1.753930 
# 
# From -- ./inp_files/7770.got.cif
#   From: 2010.03.12/outbox.cif.g09.slc.cpg/sg66_4_cif.got.tgz:7770.got - 2010.04.10 21:57:39.
