data_PCOD8275820
_publ_section_title
;
Structure prediction by ZEFSAII (Michael W. Deem and Ramdas Pophale) SiO2 
 PCOD8275820
Probable space group: C C C M
;
_chemical_formula_sum "Si O2"
_cell_formula_units_Z 80
_cell_length_a 18.098774
_cell_length_b 27.655129
_cell_length_c 8.667691
_cell_angle_alpha 90.000000
_cell_angle_beta 90.000000
_cell_angle_gamma 90.000000
_cell_volume 4338.386761
_symmetry_space_group_name_H-M "C C C M"
_symmetry_group_IT_number 66
_symmetry_cell_setting 'orthorhombic'
loop_
_space_group_symop_operation_xyz
x,y,z
-x,-y,z
x,-y,1/2-z
-x,y,1/2-z
-x,-y,-z
x,y,-z
-x,y,1/2+z
x,-y,1/2+z
1/2+x,1/2+y,z
1/2-x,1/2-y,z
1/2+x,1/2-y,1/2-z
1/2-x,1/2+y,1/2-z
1/2-x,1/2-y,-z
1/2+x,1/2+y,-z
1/2-x,1/2+y,1/2+z
1/2+x,1/2-y,1/2+z
loop_
_atom_site_type_symbol
_atom_site_label
_atom_site_fract_x
_atom_site_fract_y
_atom_site_fract_z
Si Si1 0.078233 0.790255 0.816919
Si Si2 0.076492 0.412148 0.181870
Si Si3 0.224190 0.450371 0.682972
Si Si4 0.628090 0.184609 0.181666
Si Si5 0.713774 0.649240 0.318596
O O1 0.097802 0.736147 0.763000
O O2 0.140399 0.826437 0.747071
O O3 0.000000 0.806727 0.750000
O O4 0.076072 0.792890 0.000000
O O5 0.141311 0.443582 0.256724
O O6 0.083608 0.355706 0.224844
O O7 0.000000 0.432337 0.250000
O O8 0.078307 0.418936 0.000000
O O9 0.257835 0.500000 0.750000
O O10 0.222399 0.452264 0.500000
O O11 0.274895 0.405673 0.742308
O O12 0.714918 0.181586 0.223718
O O13 0.616046 0.175435 0.000000
O O14 0.703806 0.647990 0.500000
#
# Coordination Sequence:
#
# PCOD8275820 Si02
#       5
#    16  16  16  16  16
#     4  10  19  31  49  74 103 134 167 203 246 294
#     4  11  21  33  49  72 104 138 170 203 241 286
#     4  10  20  36  56  76  96 123 163 208 255 301
#     4   9  17  31  51  73  99 134 173 207 241 285
#     4   8  16  32  53  73  96 130 168 203 242 296
#
# _framework density 18.440035000000002
#
# number of rings (size 3 to 8) (size 9 to 14) (size 15 to 20)
#    0.000    2.400    0.000    4.800    0.000    5.200 
#    0.000    7.000    0.000    6.600    0.000    4.200 
#    0.000    0.000    0.000    0.000    0.000    0.000 
#
# Total GULP energy -495962.285503 kJ/mol
# GULP energy per Si atom -12399.057138 kJ/mol
# Density = 1.839806 g / cm^3
# Si number density = 18.440035 Si / 1000 Ang^3
#
#
#
# Elastic Constant Matrix: (Units=GPa)
#
#
# Indices 1 2 3 4 5 6 
#
# 1 83.2523 29.1058 7.9046 0.0000 0.0000 0.0000
# 2 29.1058 89.6007 19.1690 0.0000 0.0000 0.0000
# 3 7.9046 19.1690 52.1906 0.0000 0.0000 0.0000
# 4 0.0000 0.0000 0.0000 10.0558 0.0000 0.0000
# 5 0.0000 0.0000 0.0000 0.0000 23.4473 0.0000
# 6 0.0000 0.0000 0.0000 0.0000 0.0000 11.0973
#
#
#
# Elastic Compliance Matrix: (Units=1/GPa)
#
#
# Indices 1 2 3 4 5 6 
#
# 1 0.013561 -0.004304 -0.000473 0.000000 0.000000 0.000000
# 2 -0.004304 0.013478 -0.004299 0.000000 0.000000 0.000000
# 3 -0.000473 -0.004299 0.020811 0.000000 0.000000 0.000000
# 4 0.000000 0.000000 0.000000 0.099445 0.000000 0.000000
# 5 0.000000 0.000000 0.000000 0.000000 0.042649 0.000000
# 6 0.000000 0.000000 0.000000 0.000000 0.000000 0.090112
#
#
# Mechanical properties :
#
#
# Convention : Reuss Voigt Hill
#
# Bulk Modulus (GPa) = 33.67089 37.48915 35.58002
# Shear Modulus (GPa) = 16.22808 20.17769 18.20288
#
# Velocity S-wave (km/s) = 2.96978 3.31151 3.14529
# Velocity P-wave (km/s) = 5.48258 5.91573 5.70327
#
# Compressibility (1/GPa) = 0.02969924
#
# Stress axis : x y z
#
# Youngs Moduli (GPa) = 73.73909 74.19296 48.05147
#
# Poissons Ratio (x) = 0.31933 0.02273
# Poissons Ratio (y) = 0.31737 0.20655
# Poissons Ratio (z) = 0.03489 0.31892
#
# Static dielectric constant tensor:
#      x y z
#    x 3.543090 0.000000 0.000000 
#    y 0.000000 3.625360 0.000000 
#    z 0.000000 0.000000 3.136390 
# 
# 
# High freq. dielectric constant tensor:
#      x y z
#    x 1.703160 0.000000 0.000000 
#    y 0.000000 1.713770 0.000000 
#    z 0.000000 0.000000 1.695610 
# 
# From -- ./inp_files/6684.got.cif
#   From: 2010.03.12/outbox.cif.g09.slc.cpg/sg66_4_cif.got.tgz:6684.got - 2010.04.10 21:57:39.
