data_PCOD8275350
_publ_section_title
;
Structure prediction by ZEFSAII (Michael W. Deem and Ramdas Pophale) SiO2 
 PCOD8275350
Probable space group: C C C M
;
_chemical_formula_sum "Si O2"
_cell_formula_units_Z 112
_cell_length_a 22.952285
_cell_length_b 17.501718
_cell_length_c 17.998676
_cell_angle_alpha 90.000000
_cell_angle_beta 90.000000
_cell_angle_gamma 90.000000
_cell_volume 7230.147695
_symmetry_space_group_name_H-M "C C C M"
_symmetry_group_IT_number 66
_symmetry_cell_setting 'orthorhombic'
loop_
_space_group_symop_operation_xyz
x,y,z
-x,-y,z
x,-y,1/2-z
-x,y,1/2-z
-x,-y,-z
x,y,-z
-x,y,1/2+z
x,-y,1/2+z
1/2+x,1/2+y,z
1/2-x,1/2-y,z
1/2+x,1/2-y,1/2-z
1/2-x,1/2+y,1/2-z
1/2-x,1/2-y,-z
1/2+x,1/2+y,-z
1/2-x,1/2+y,1/2+z
1/2+x,1/2-y,1/2+z
loop_
_atom_site_type_symbol
_atom_site_label
_atom_site_fract_x
_atom_site_fract_y
_atom_site_fract_z
Si Si1 0.999630 0.087878 0.338141
Si Si2 0.816847 0.273617 0.833755
Si Si3 0.896040 0.828728 0.417305
Si Si4 0.689240 0.464819 0.917633
Si Si5 0.881861 0.887085 0.086515
Si Si6 0.774047 0.572790 0.289152
Si Si7 0.203278 0.188923 0.806689
O O1 0.942484 0.126635 0.371901
O O2 0.000000 0.091433 0.250000
O O3 0.054202 0.137239 0.365283
O O4 0.000000 0.000000 0.366215
O O5 0.750000 0.250000 0.856915
O O6 0.867910 0.252106 0.891505
O O7 0.819764 0.365216 0.821001
O O8 0.834070 0.229431 0.758195
O O9 0.921806 0.819023 0.500000
O O10 0.840458 0.882998 0.416073
O O11 0.639508 0.526769 0.899481
O O12 0.739445 0.465250 0.857204
O O13 0.715620 0.481141 0.000000
O O14 0.835615 0.829679 0.122458
O O15 0.888815 0.867495 0.000000
O O16 0.805614 0.500000 0.250000
O O17 0.731844 0.612874 0.228772
O O18 0.250000 0.250000 0.836137
#
# Coordination Sequence:
#
# PCOD8275350 Si02
#       7
#    16  16  16  16  16  16  16
#     4  11  23  32  47  67  93 131 171 200 228 270
#     4   9  18  30  45  69  89 123 166 200 241 286
#     4  11  20  32  45  65 100 132 163 205 239 277
#     4  10  19  27  43  67  96 128 163 201 233 274
#     4  11  21  32  46  66  94 128 163 198 234 278
#     4  10  17  29  49  67  93 125 162 199 240 287
#     4   9  18  31  47  67  91 119 156 198 238 283
#
# _framework density 15.490693
#
# number of rings (size 3 to 8) (size 9 to 14) (size 15 to 20)
#    0.000    2.143    5.714    1.286    0.000    1.714 
#    0.000    0.000    0.000    0.000    0.000    0.000 
#    0.000   14.286    0.000   17.571    0.000    0.000 
#
# Total GULP energy -694038.771723 kJ/mol
# GULP energy per Si atom -12393.549495 kJ/mol
# Density = 1.545544 g / cm^3
# Si number density = 15.490693 Si / 1000 Ang^3
#
#
#
# Elastic Constant Matrix: (Units=GPa)
#
#
# Indices 1 2 3 4 5 6 
#
# 1 58.4782 32.4454 42.8784 0.0000 0.0000 0.0000
# 2 32.4454 79.1230 33.9571 0.0000 0.0000 0.0000
# 3 42.8784 33.9571 83.1367 0.0000 0.0000 0.0000
# 4 0.0000 0.0000 0.0000 23.6490 0.0000 0.0000
# 5 0.0000 0.0000 0.0000 0.0000 21.3272 0.0000
# 6 0.0000 0.0000 0.0000 0.0000 0.0000 21.2635
#
#
#
# Elastic Compliance Matrix: (Units=1/GPa)
#
#
# Indices 1 2 3 4 5 6 
#
# 1 0.030352 -0.006945 -0.012818 0.000000 0.000000 0.000000
# 2 -0.006945 0.016914 -0.003326 0.000000 0.000000 0.000000
# 3 -0.012818 -0.003326 0.019998 0.000000 0.000000 0.000000
# 4 0.000000 0.000000 0.000000 0.042285 0.000000 0.000000
# 5 0.000000 0.000000 0.000000 0.000000 0.046888 0.000000
# 6 0.000000 0.000000 0.000000 0.000000 0.000000 0.047029
#
#
# Mechanical properties :
#
#
# Convention : Reuss Voigt Hill
#
# Bulk Modulus (GPa) = 47.42611 48.81108 48.11859
# Shear Modulus (GPa) = 19.47995 20.67841 20.07918
#
# Velocity S-wave (km/s) = 3.55001 3.65758 3.60420
# Velocity P-wave (km/s) = 6.89099 7.02962 6.96065
#
# Compressibility (1/GPa) = 0.02108543
#
# Stress axis : x y z
#
# Youngs Moduli (GPa) = 32.94645 59.12186 50.00541
#
# Poissons Ratio (x) = 0.41063 0.64095
# Poissons Ratio (y) = 0.22883 0.16634
# Poissons Ratio (z) = 0.42229 0.19666
#
# Static dielectric constant tensor:
#      x y z
#    x 2.633020 0.000000 0.000000 
#    y 0.000000 2.939300 0.000000 
#    z 0.000000 0.000000 3.077710 
# 
# 
# High freq. dielectric constant tensor:
#      x y z
#    x 1.553890 0.000000 0.000000 
#    y 0.000000 1.579820 0.000000 
#    z 0.000000 0.000000 1.604350 
# 
# From -- ./inp_files/41977.got.cif
#   From: 2010.03.12/outbox.cif.g09.slc.cpg/sg66_21_cif.got.tgz:41977.got - 2010.04.10 21:57:39.
