data_PCOD8275092
_publ_section_title
;
Structure prediction by ZEFSAII (Michael W. Deem and Ramdas Pophale) SiO2 
 PCOD8275092
Probable space group: C M M M
;
_chemical_formula_sum "Si O2"
_cell_formula_units_Z 80
_cell_length_a 26.414367
_cell_length_b 23.421143
_cell_length_c 9.331559
_cell_angle_alpha 90.000000
_cell_angle_beta 90.000000
_cell_angle_gamma 90.000000
_cell_volume 5773.012524
_symmetry_space_group_name_H-M "C M M M"
_symmetry_group_IT_number 65
_symmetry_cell_setting 'orthorhombic'
loop_
_space_group_symop_operation_xyz
x,y,z
-x,-y,z
x,-y,-z
-x,y,-z
-x,-y,-z
x,y,-z
-x,y,z
x,-y,z
1/2+x,1/2+y,z
1/2-x,1/2-y,z
1/2+x,1/2-y,-z
1/2-x,1/2+y,-z
1/2-x,1/2-y,-z
1/2+x,1/2+y,-z
1/2-x,1/2+y,z
1/2+x,1/2-y,z
loop_
_atom_site_type_symbol
_atom_site_label
_atom_site_fract_x
_atom_site_fract_y
_atom_site_fract_z
Si Si1 0.300514 0.713019 0.338150
Si Si2 0.352856 0.194932 0.834110
Si Si3 0.056368 0.382180 0.170390
Si Si4 0.253032 0.877862 0.165587
Si Si5 0.601118 0.000000 0.828689
Si Si6 0.785508 0.500000 0.830239
O O1 0.318031 0.700546 0.500000
O O2 0.250000 0.750000 0.333828
O O3 0.344477 0.747593 0.256773
O O4 0.290004 0.653307 0.258533
O O5 0.404562 0.166223 0.776765
O O6 0.308081 0.149591 0.810638
O O7 0.356488 0.212615 0.000000
O O8 0.072345 0.444152 0.230525
O O9 0.000000 0.367089 0.225818
O O10 0.058194 0.384635 0.000000
O O11 0.255414 0.943436 0.219014
O O12 0.237044 0.873132 0.000000
O O13 0.657979 0.000000 0.765610
O O14 0.601925 0.000000 0.000000
O O15 0.791045 0.500000 0.000000
#
# Coordination Sequence:
#
# PCOD8275092 Si02
#       6
#    16  16  16  16   8   8
#     4   9  17  27  38  52  70  92 122 159 196 231
#     4   9  15  24  38  54  73  97 126 158 191 226
#     4   9  15  21  32  53  79 103 128 162 199 227
#     4   9  15  24  38  55  74  97 125 154 187 226
#     4   9  13  20  31  49  77 105 131 160 194 224
#     4   9  14  21  35  54  77 102 127 157 188 223
#
# _framework density 13.857583
#
# number of rings (size 3 to 8) (size 9 to 14) (size 15 to 20)
#    0.000    3.000    2.000    0.900    0.000    3.600 
#    0.000    0.500    0.000    0.600    0.000    0.700 
#    0.000    1.600    0.000    0.900    0.000   20.600 
#
# Total GULP energy -495837.742978 kJ/mol
# GULP energy per Si atom -12395.943574 kJ/mol
# Density = 1.382604 g / cm^3
# Si number density = 13.857583 Si / 1000 Ang^3
#
#
#
# Elastic Constant Matrix: (Units=GPa)
#
#
# Indices 1 2 3 4 5 6 
#
# 1 73.9129 62.1302 29.5568 0.0000 0.0000 0.0000
# 2 62.1302 109.4902 41.8212 0.0000 0.0000 0.0000
# 3 29.5568 41.8212 50.0344 0.0000 0.0000 0.0000
# 4 0.0000 0.0000 0.0000 5.4995 0.0000 0.0000
# 5 0.0000 0.0000 0.0000 0.0000 5.7099 0.0000
# 6 0.0000 0.0000 0.0000 0.0000 0.0000 21.4630
#
#
#
# Elastic Compliance Matrix: (Units=1/GPa)
#
#
# Indices 1 2 3 4 5 6 
#
# 1 0.026553 -0.013333 -0.004541 0.000000 0.000000 0.000000
# 2 -0.013333 0.020111 -0.008934 0.000000 0.000000 0.000000
# 3 -0.004541 -0.008934 0.030136 0.000000 0.000000 0.000000
# 4 0.000000 0.000000 0.000000 0.181834 0.000000 0.000000
# 5 0.000000 0.000000 0.000000 0.000000 0.175134 0.000000
# 6 0.000000 0.000000 0.000000 0.000000 0.000000 0.046592
#
#
# Mechanical properties :
#
#
# Convention : Reuss Voigt Hill
#
# Bulk Modulus (GPa) = 43.13246 55.60599 49.36923
# Shear Modulus (GPa) = 9.23013 13.19645 11.21329
#
# Velocity S-wave (km/s) = 2.58363 3.08927 2.84770
# Velocity P-wave (km/s) = 6.33193 7.27589 6.82026
#
# Compressibility (1/GPa) = 0.02318439
#
# Stress axis : x y z
#
# Youngs Moduli (GPa) = 37.66076 49.72305 33.18238
#
# Poissons Ratio (x) = 0.66295 0.15069
# Poissons Ratio (y) = 0.50212 0.29645
# Poissons Ratio (z) = 0.17103 0.44423
#
# Static dielectric constant tensor:
#      x y z
#    x 2.612610 0.000000 0.000000 
#    y 0.000000 2.814560 0.000000 
#    z 0.000000 0.000000 2.487600 
# 
# 
# High freq. dielectric constant tensor:
#      x y z
#    x 1.492880 0.000000 0.000000 
#    y 0.000000 1.521380 0.000000 
#    z 0.000000 0.000000 1.496090 
# 
# From -- ./inp_files/14230.got.cif
#   From: 2010.03.12/outbox.cif.g09.slc.cpg/sg65_8_cif.got.tgz:14230.got - 2010.04.10 20:52:16.
