data_PCOD8275842
_publ_section_title
;
Structure prediction by ZEFSAII (Michael W. Deem and Ramdas Pophale) SiO2 
 PCOD8275842
Probable space group: C C C M
;
_chemical_formula_sum "Si O2"
_cell_formula_units_Z 104
_cell_length_a 31.867694
_cell_length_b 10.829145
_cell_length_c 15.349541
_cell_angle_alpha 90.000000
_cell_angle_beta 90.000000
_cell_angle_gamma 90.000000
_cell_volume 5297.124744
_symmetry_space_group_name_H-M "C C C M"
_symmetry_group_IT_number 66
_symmetry_cell_setting 'orthorhombic'
loop_
_space_group_symop_operation_xyz
x,y,z
-x,-y,z
x,-y,1/2-z
-x,y,1/2-z
-x,-y,-z
x,y,-z
-x,y,1/2+z
x,-y,1/2+z
1/2+x,1/2+y,z
1/2-x,1/2-y,z
1/2+x,1/2-y,1/2-z
1/2-x,1/2+y,1/2-z
1/2-x,1/2-y,-z
1/2+x,1/2+y,-z
1/2-x,1/2+y,1/2+z
1/2+x,1/2-y,1/2+z
loop_
_atom_site_type_symbol
_atom_site_label
_atom_site_fract_x
_atom_site_fract_y
_atom_site_fract_z
Si Si1 0.826538 0.173614 0.593184
Si Si2 0.468944 0.316447 0.103363
Si Si3 0.899538 0.634033 0.899849
Si Si4 0.148404 0.500000 0.250000
Si Si5 0.642448 0.567774 0.340078
Si Si6 0.945487 0.914501 0.397581
Si Si7 0.702730 0.240820 0.230445
O O1 0.804628 0.202227 0.500000
O O2 0.868640 0.251001 0.603376
O O3 0.795127 0.205903 0.671074
O O4 0.840561 0.031017 0.590936
O O5 0.443811 0.193262 0.135166
O O6 0.449468 0.445251 0.139364
O O7 0.517788 0.320466 0.135767
O O8 0.465224 0.313349 0.000000
O O9 0.881856 0.530815 0.832699
O O10 0.902806 0.581482 0.000000
O O11 0.180772 0.608221 0.225775
O O12 0.634063 0.500000 0.250000
O O13 0.599797 0.636129 0.370058
O O14 0.676765 0.673124 0.333459
O O15 0.950720 0.921163 0.500000
O O16 0.750000 0.250000 0.194833
#
# Coordination Sequence:
#
# PCOD8275842 Si02
#       7
#    16  16  16   8  16  16  16
#     4   9  17  32  58  85 107 140 185 237 286 338
#     4   8  14  25  50  85 114 142 179 227 279 327
#     4   9  16  32  57  85 116 154 197 235 281 343
#     4  10  22  38  60  79 114 158 198 241 288 346
#     4  10  19  31  52  80 115 143 176 225 294 348
#     4   9  15  27  51  82 115 145 176 224 283 335
#     4  10  23  38  58  79 107 148 192 236 293 351
#
# _framework density 19.633292000000001
#
# number of rings (size 3 to 8) (size 9 to 14) (size 15 to 20)
#    0.000    2.769    1.538    1.385    3.231    0.308 
#    0.000    3.077    0.000    4.154    0.000    3.231 
#    0.000    1.538    0.000    2.615    0.000    0.154 
#
# Total GULP energy -644199.345244 kJ/mol
# GULP energy per Si atom -12388.448947 kJ/mol
# Density = 1.958861 g / cm^3
# Si number density = 19.633292 Si / 1000 Ang^3
#
#
#
# Elastic Constant Matrix: (Units=GPa)
#
#
# Indices 1 2 3 4 5 6 
#
# 1 147.1855 56.1544 32.4272 0.0000 0.0000 0.0000
# 2 56.1544 85.6237 40.3830 0.0000 0.0000 0.0000
# 3 32.4272 40.3830 50.5511 0.0000 0.0000 0.0000
# 4 0.0000 0.0000 0.0000 19.1557 0.0000 0.0000
# 5 0.0000 0.0000 0.0000 0.0000 5.3016 0.0000
# 6 0.0000 0.0000 0.0000 0.0000 0.0000 30.4069
#
#
#
# Elastic Compliance Matrix: (Units=1/GPa)
#
#
# Indices 1 2 3 4 5 6 
#
# 1 0.009154 -0.005189 -0.001727 0.000000 0.000000 0.000000
# 2 -0.005189 0.021681 -0.013991 0.000000 0.000000 0.000000
# 3 -0.001727 -0.013991 0.032067 0.000000 0.000000 0.000000
# 4 0.000000 0.000000 0.000000 0.052204 0.000000 0.000000
# 5 0.000000 0.000000 0.000000 0.000000 0.188624 0.000000
# 6 0.000000 0.000000 0.000000 0.000000 0.000000 0.032887
#
#
# Mechanical properties :
#
#
# Convention : Reuss Voigt Hill
#
# Bulk Modulus (GPa) = 47.42164 60.14327 53.78245
# Shear Modulus (GPa) = 12.97150 21.26587 17.11868
#
# Velocity S-wave (km/s) = 2.57318 3.29470 2.95603
# Velocity P-wave (km/s) = 5.74756 6.72110 6.25330
#
# Compressibility (1/GPa) = 0.02108742
#
# Stress axis : x y z
#
# Youngs Moduli (GPa) = 109.23691 46.12341 31.18513
#
# Poissons Ratio (x) = 0.23935 0.05385
# Poissons Ratio (y) = 0.56686 0.43632
# Poissons Ratio (z) = 0.18864 0.64532
#
# Static dielectric constant tensor:
#      x y z
#    x 3.633210 0.000000 0.000000 
#    y 0.000000 3.499010 0.000000 
#    z 0.000000 0.000000 3.688270 
# 
# 
# High freq. dielectric constant tensor:
#      x y z
#    x 1.763650 0.000000 0.000000 
#    y 0.000000 1.732690 0.000000 
#    z 0.000000 0.000000 1.750540 
# 
# From -- ./inp_files/44745.got.cif
#   From: 2010.03.12/outbox.cif.g09.slc.cpg/sg66_23_cif.got.tgz:44745.got - 2010.04.10 21:57:39.
