data_PCOD8275426
_publ_section_title
;
Structure prediction by ZEFSAII (Michael W. Deem and Ramdas Pophale) SiO2 
 PCOD8275426
Probable space group: C C C M
;
_chemical_formula_sum "Si O2"
_cell_formula_units_Z 96
_cell_length_a 33.435436
_cell_length_b 30.603619
_cell_length_c 7.866812
_cell_angle_alpha 90.000000
_cell_angle_beta 90.000000
_cell_angle_gamma 90.000000
_cell_volume 8049.678755
_symmetry_space_group_name_H-M "C C C M"
_symmetry_group_IT_number 66
_symmetry_cell_setting 'orthorhombic'
loop_
_space_group_symop_operation_xyz
x,y,z
-x,-y,z
x,-y,1/2-z
-x,y,1/2-z
-x,-y,-z
x,y,-z
-x,y,1/2+z
x,-y,1/2+z
1/2+x,1/2+y,z
1/2-x,1/2-y,z
1/2+x,1/2-y,1/2-z
1/2-x,1/2+y,1/2-z
1/2-x,1/2-y,-z
1/2+x,1/2+y,-z
1/2-x,1/2+y,1/2+z
1/2+x,1/2-y,1/2+z
loop_
_atom_site_type_symbol
_atom_site_label
_atom_site_fract_x
_atom_site_fract_y
_atom_site_fract_z
Si Si1 0.245330 0.131105 0.309737
Si Si2 0.878455 0.906292 0.298521
Si Si3 0.800301 0.048610 0.198955
Si Si4 0.661668 0.319331 0.189546
Si Si5 0.043056 0.950069 0.198036
Si Si6 0.270558 0.818232 0.500000
Si Si7 0.313476 0.268736 0.000000
O O1 0.264855 0.131761 0.500000
O O2 0.235187 0.081787 0.246733
O O3 0.204284 0.157495 0.317329
O O4 0.274928 0.152551 0.170852
O O5 0.878607 0.911829 0.500000
O O6 0.842844 0.936486 0.219586
O O7 0.871113 0.855435 0.253345
O O8 0.920775 0.922059 0.218502
O O9 0.788085 0.000000 0.250000
O O10 0.805211 0.052533 0.000000
O O11 0.661648 0.280884 0.329718
O O12 0.651998 0.300496 0.000000
O O13 0.000000 0.930609 0.250000
O O14 0.047225 0.000000 0.250000
O O15 0.047084 0.946457 0.000000
O O16 0.306226 0.783114 0.500000
O O17 0.227964 0.794645 0.500000
#
# Coordination Sequence:
#
# PCOD8275426 Si02
#       7
#    16  16  16  16  16   8   8
#     4   8  15  25  34  45  63  84 102 121 149 183
#     4   8  15  27  38  46  61  82  99 123 162 198
#     4   9  16  24  34  48  61  77 104 131 158 189
#     4   8  14  26  37  47  65  80  95 124 152 181
#     4  10  18  28  37  47  63  80 103 130 158 194
#     4   9  16  24  36  46  68  82  98 122 148 177
#     4   9  16  24  34  56  62  77 104 120 142 189
#
# _framework density 11.925941999999999
#
# number of rings (size 3 to 8) (size 9 to 14) (size 15 to 20)
#    0.000    3.333    0.000    3.500    1.167    0.667 
#    4.500    3.333    0.000    0.000    0.000    0.000 
#    0.000    0.000    0.000    0.000    0.000    0.000 
#
# Total GULP energy -594697.988562 kJ/mol
# GULP energy per Si atom -12389.541428 kJ/mol
# Density = 1.189880 g / cm^3
# Si number density = 11.925942 Si / 1000 Ang^3
#
#
#
# Elastic Constant Matrix: (Units=GPa)
#
#
# Indices 1 2 3 4 5 6 
#
# 1 29.7614 36.6073 20.1474 0.0000 0.0000 0.0000
# 2 36.6073 78.4297 37.7244 0.0000 0.0000 0.0000
# 3 20.1474 37.7244 57.6844 0.0000 0.0000 0.0000
# 4 0.0000 0.0000 0.0000 18.1078 0.0000 0.0000
# 5 0.0000 0.0000 0.0000 0.0000 -4.8145 0.0000
# 6 0.0000 0.0000 0.0000 0.0000 0.0000 18.0508
#
#
#
# Elastic Compliance Matrix: (Units=1/GPa)
#
#
# Indices 1 2 3 4 5 6 
#
# 1 0.079925 -0.034836 -0.005133 0.000000 0.000000 0.000000
# 2 -0.034836 0.033785 -0.009928 0.000000 0.000000 0.000000
# 3 -0.005133 -0.009928 0.025621 0.000000 0.000000 0.000000
# 4 0.000000 0.000000 0.000000 0.055225 0.000000 0.000000
# 5 0.000000 0.000000 0.000000 0.000000 -0.207704 0.000000
# 6 0.000000 0.000000 0.000000 0.000000 0.000000 0.055399
#
#
# Mechanical properties :
#
#
# Convention : Reuss Voigt Hill
#
# Bulk Modulus (GPa) = 25.29266 39.42597 32.35931
# Shear Modulus (GPa) = 32.21156 11.02857 21.62007
#
# Velocity S-wave (km/s) = 5.20272 3.04428 4.26239
# Velocity P-wave (km/s) = 7.57266 6.74445 7.17052
#
# Compressibility (1/GPa) = 0.03953717
#
# Stress axis : x y z
#
# Youngs Moduli (GPa) = 12.51178 29.59872 39.03028
#
# Poissons Ratio (x) = 1.03110 0.20035
# Poissons Ratio (y) = 0.43586 0.38748
# Poissons Ratio (z) = 0.06423 0.29385
#
# Static dielectric constant tensor:
#      x y z
#    x 2.949930 0.000000 0.000000 
#    y 0.000000 2.296130 0.000000 
#    z 0.000000 0.000000 2.639830 
# 
# 
# High freq. dielectric constant tensor:
#      x y z
#    x 1.392910 0.000000 0.000000 
#    y 0.000000 1.429660 0.000000 
#    z 0.000000 0.000000 1.462670 
# 
# From -- ./inp_files/11833.got.cif
#   From: 2010.03.12/outbox.cif.g09.slc.cpg/sg66_6_cif.got.tgz:11833.got - 2010.04.10 21:57:39.
