data_PCOD8275607
_publ_section_title
;
Structure prediction by ZEFSAII (Michael W. Deem and Ramdas Pophale) SiO2 
 PCOD8275607
Probable space group: C C C M
;
_chemical_formula_sum "Si O2"
_cell_formula_units_Z 96
_cell_length_a 20.410621
_cell_length_b 14.002761
_cell_length_c 18.640059
_cell_angle_alpha 90.000000
_cell_angle_beta 90.000000
_cell_angle_gamma 90.000000
_cell_volume 5327.422952
_symmetry_space_group_name_H-M "C C C M"
_symmetry_group_IT_number 66
_symmetry_cell_setting 'orthorhombic'
loop_
_space_group_symop_operation_xyz
x,y,z
-x,-y,z
x,-y,1/2-z
-x,y,1/2-z
-x,-y,-z
x,y,-z
-x,y,1/2+z
x,-y,1/2+z
1/2+x,1/2+y,z
1/2-x,1/2-y,z
1/2+x,1/2-y,1/2-z
1/2-x,1/2+y,1/2-z
1/2-x,1/2-y,-z
1/2+x,1/2+y,-z
1/2-x,1/2+y,1/2+z
1/2+x,1/2-y,1/2+z
loop_
_atom_site_type_symbol
_atom_site_label
_atom_site_fract_x
_atom_site_fract_y
_atom_site_fract_z
Si Si1 0.558459 0.428756 0.416295
Si Si2 0.433165 0.956106 0.671941
Si Si3 0.483617 0.250868 0.170732
Si Si4 0.112460 0.254018 0.417572
Si Si5 0.676682 0.561511 0.584338
Si Si6 0.321226 0.047291 0.417883
O O1 0.500000 0.500000 0.394465
O O2 0.553459 0.403206 0.500000
O O3 0.555350 0.332467 0.371105
O O4 0.627501 0.476369 0.396461
O O5 0.437838 0.842016 0.677100
O O6 0.500000 0.000000 0.638217
O O7 0.421937 0.000000 0.750000
O O8 0.371072 0.979632 0.623548
O O9 0.500000 0.288943 0.250000
O O10 0.548864 0.222055 0.128510
O O11 0.090726 0.236017 0.500000
O O12 0.148044 0.160756 0.384741
O O13 0.161729 0.341606 0.411006
O O14 0.684645 0.576398 0.500000
O O15 0.748310 0.536157 0.615790
O O16 0.323485 0.013215 0.500000
#
# Coordination Sequence:
#
# PCOD8275607 Si02
#       6
#    16  16  16  16  16  16
#     4  10  20  37  59  83 115 152 182 224 285 338
#     4  11  21  40  57  77 111 155 182 225 292 337
#     4  12  22  35  57  83 111 144 192 235 276 330
#     4  10  18  32  56  83 111 145 187 236 284 328
#     4   9  18  35  55  81 117 149 180 225 288 337
#     4  10  20  33  57  87 111 142 189 239 276 332
#
# _framework density 18.019969
#
# number of rings (size 3 to 8) (size 9 to 14) (size 15 to 20)
#    0.000    1.667    5.000    1.000    0.000    4.000 
#    0.000    2.500    0.000    3.000    0.000    0.000 
#    0.000    0.000    0.000    0.000    0.000    0.000 
#
# Total GULP energy -595292.684718 kJ/mol
# GULP energy per Si atom -12401.930932 kJ/mol
# Density = 1.797895 g / cm^3
# Si number density = 18.019969 Si / 1000 Ang^3
#
#
#
# Elastic Constant Matrix: (Units=GPa)
#
#
# Indices 1 2 3 4 5 6 
#
# 1 136.1885 55.6193 50.9585 0.0000 0.0000 0.0000
# 2 55.6193 128.5809 49.8868 0.0000 0.0000 0.0000
# 3 50.9585 49.8868 71.9344 0.0000 0.0000 0.0000
# 4 0.0000 0.0000 0.0000 28.8290 0.0000 0.0000
# 5 0.0000 0.0000 0.0000 0.0000 6.4694 0.0000
# 6 0.0000 0.0000 0.0000 0.0000 0.0000 26.3191
#
#
#
# Elastic Compliance Matrix: (Units=1/GPa)
#
#
# Indices 1 2 3 4 5 6 
#
# 1 0.010448 -0.002254 -0.005838 0.000000 0.000000 0.000000
# 2 -0.002254 0.011127 -0.006119 0.000000 0.000000 0.000000
# 3 -0.005838 -0.006119 0.022281 0.000000 0.000000 0.000000
# 4 0.000000 0.000000 0.000000 0.034687 0.000000 0.000000
# 5 0.000000 0.000000 0.000000 0.000000 0.154574 0.000000
# 6 0.000000 0.000000 0.000000 0.000000 0.000000 0.037995
#
#
# Mechanical properties :
#
#
# Convention : Reuss Voigt Hill
#
# Bulk Modulus (GPa) = 64.79962 72.18142 68.49052
# Shear Modulus (GPa) = 16.41075 24.33945 20.37510
#
# Velocity S-wave (km/s) = 3.02105 3.67917 3.36623
# Velocity P-wave (km/s) = 6.94312 7.62835 7.29379
#
# Compressibility (1/GPa) = 0.01543219
#
# Stress axis : x y z
#
# Youngs Moduli (GPa) = 95.71365 89.87530 44.88158
#
# Poissons Ratio (x) = 0.20261 0.26201
# Poissons Ratio (y) = 0.21577 0.27464
# Poissons Ratio (z) = 0.55876 0.54997
#
# Static dielectric constant tensor:
#      x y z
#    x 3.453970 0.000000 0.000000 
#    y 0.000000 3.300860 0.000000 
#    z 0.000000 0.000000 3.173000 
# 
# 
# High freq. dielectric constant tensor:
#      x y z
#    x 1.698400 0.000000 0.000000 
#    y 0.000000 1.699970 0.000000 
#    z 0.000000 0.000000 1.675120 
# 
# From -- ./inp_files/28424.got.cif
#   From: 2010.03.12/outbox.cif.g09.slc.cpg/sg66_15_cif.got.tgz:28424.got - 2010.04.10 21:57:39.
