data_PCOD8275117
_publ_section_title
;
Structure prediction by ZEFSAII (Michael W. Deem and Ramdas Pophale) SiO2 
 PCOD8275117
Probable space group: C M M M
;
_chemical_formula_sum "Si O2"
_cell_formula_units_Z 88
_cell_length_a 30.338722
_cell_length_b 9.161576
_cell_length_c 22.979640
_cell_angle_alpha 90.000000
_cell_angle_beta 90.000000
_cell_angle_gamma 90.000000
_cell_volume 6387.202597
_symmetry_space_group_name_H-M "C M M M"
_symmetry_group_IT_number 65
_symmetry_cell_setting 'orthorhombic'
loop_
_space_group_symop_operation_xyz
x,y,z
-x,-y,z
x,-y,-z
-x,y,-z
-x,-y,-z
x,y,-z
-x,y,z
x,-y,z
1/2+x,1/2+y,z
1/2-x,1/2-y,z
1/2+x,1/2-y,-z
1/2-x,1/2+y,-z
1/2-x,1/2-y,-z
1/2+x,1/2+y,-z
1/2-x,1/2+y,z
1/2+x,1/2-y,z
loop_
_atom_site_type_symbol
_atom_site_label
_atom_site_fract_x
_atom_site_fract_y
_atom_site_fract_z
Si Si1 0.792231 0.835447 0.430705
Si Si2 0.550380 0.169621 0.660550
Si Si3 0.447430 0.834767 0.886881
Si Si4 0.947475 0.165274 0.000000
Si Si5 0.052455 0.835266 0.225413
Si Si6 0.121445 0.330264 0.566399
O O1 0.790646 0.832989 0.500000
O O2 0.750000 0.750000 0.405242
O O3 0.836776 0.757940 0.409053
O O4 0.791320 0.000000 0.406643
O O5 0.500000 0.211528 0.646040
O O6 0.568806 0.259673 0.715354
O O7 0.578854 0.211182 0.604201
O O8 0.554484 0.000000 0.676615
O O9 0.500000 0.835105 0.886588
O O10 0.428851 0.754125 0.829607
O O11 0.429354 0.000000 0.888176
O O12 0.429547 0.748929 0.943201
O O13 0.000000 0.164028 0.000000
O O14 0.929272 0.000000 0.000000
O O15 0.000000 0.834055 0.223400
O O16 0.070744 0.000000 0.222880
O O17 0.110479 0.286796 0.500000
O O18 0.133366 0.500000 0.571242
#
# Coordination Sequence:
#
# PCOD8275117 Si02
#       6
#    16  16  16   8  16  16
#     4   9  16  26  41  59  77  95 114 138 172 216
#     4   9  17  28  40  53  70  94 124 156 188 221
#     4   9  15  22  32  45  61  81 106 137 174 214
#     4   9  15  21  29  43  63  83 103 131 170 213
#     4   9  16  25  36  48  62  83 113 148 183 216
#     4   9  17  28  41  57  76  96 119 149 185 224
#
# _framework density 13.777549
#
# number of rings (size 3 to 8) (size 9 to 14) (size 15 to 20)
#    0.000    3.000    0.000    1.909    0.000    8.727 
#    0.000    1.818    0.000    0.000    0.000    5.091 
#    0.000    0.000    0.000    0.000    0.000    0.000 
#
# Total GULP energy -545526.405956 kJ/mol
# GULP energy per Si atom -12398.327408 kJ/mol
# Density = 1.374619 g / cm^3
# Si number density = 13.777549 Si / 1000 Ang^3
#
#
#
# Elastic Constant Matrix: (Units=GPa)
#
#
# Indices 1 2 3 4 5 6 
#
# 1 50.0888 35.1815 35.5613 0.0000 0.0000 0.0000
# 2 35.1815 107.7023 56.2512 0.0000 0.0000 0.0000
# 3 35.5613 56.2512 93.8543 0.0000 0.0000 0.0000
# 4 0.0000 0.0000 0.0000 21.1860 0.0000 0.0000
# 5 0.0000 0.0000 0.0000 0.0000 0.7085 0.0000
# 6 0.0000 0.0000 0.0000 0.0000 0.0000 14.7366
#
#
#
# Elastic Compliance Matrix: (Units=1/GPa)
#
#
# Indices 1 2 3 4 5 6 
#
# 1 0.029399 -0.005510 -0.007837 0.000000 0.000000 0.000000
# 2 -0.005510 0.014548 -0.006632 0.000000 0.000000 0.000000
# 3 -0.007837 -0.006632 0.017599 0.000000 0.000000 0.000000
# 4 0.000000 0.000000 0.000000 0.047201 0.000000 0.000000
# 5 0.000000 0.000000 0.000000 0.000000 1.411338 0.000000
# 6 0.000000 0.000000 0.000000 0.000000 0.000000 0.067858
#
#
# Mechanical properties :
#
#
# Convention : Reuss Voigt Hill
#
# Bulk Modulus (GPa) = 46.32052 56.18150 51.25101
# Shear Modulus (GPa) = 3.05792 15.63632 9.34712
#
# Velocity S-wave (km/s) = 1.49141 3.37250 2.60750
# Velocity P-wave (km/s) = 6.05467 7.48539 6.80772
#
# Compressibility (1/GPa) = 0.02158870
#
# Stress axis : x y z
#
# Youngs Moduli (GPa) = 34.01531 68.73578 56.82216
#
# Poissons Ratio (x) = 0.37875 0.44529
# Poissons Ratio (y) = 0.18743 0.37683
# Poissons Ratio (z) = 0.26656 0.45584
#
# Static dielectric constant tensor:
#      x y z
#    x 2.324260 0.000000 0.000000 
#    y 0.000000 2.923810 0.000000 
#    z 0.000000 0.000000 2.696780 
# 
# 
# High freq. dielectric constant tensor:
#      x y z
#    x 1.460980 0.000000 0.000000 
#    y 0.000000 1.542100 0.000000 
#    z 0.000000 0.000000 1.512100 
# 
# From -- ./inp_files/68409.got.cif
#   From: 2010.03.12/outbox.cif.g09.slc.cpg/sg65_35_cif.got.tgz:68409.got - 2010.04.10 20:52:16.
