data_PCOD8275490
_publ_section_title
;
Structure prediction by ZEFSAII (Michael W. Deem and Ramdas Pophale) SiO2 
 PCOD8275490
Probable space group: C C C M
;
_chemical_formula_sum "Si O2"
_cell_formula_units_Z 112
_cell_length_a 28.235642
_cell_length_b 11.934554
_cell_length_c 15.061623
_cell_angle_alpha 90.000000
_cell_angle_beta 90.000000
_cell_angle_gamma 90.000000
_cell_volume 5075.462618
_symmetry_space_group_name_H-M "C C C M"
_symmetry_group_IT_number 66
_symmetry_cell_setting 'orthorhombic'
loop_
_space_group_symop_operation_xyz
x,y,z
-x,-y,z
x,-y,1/2-z
-x,y,1/2-z
-x,-y,-z
x,y,-z
-x,y,1/2+z
x,-y,1/2+z
1/2+x,1/2+y,z
1/2-x,1/2-y,z
1/2+x,1/2-y,1/2-z
1/2-x,1/2+y,1/2-z
1/2-x,1/2-y,-z
1/2+x,1/2+y,-z
1/2-x,1/2+y,1/2+z
1/2+x,1/2-y,1/2+z
loop_
_atom_site_type_symbol
_atom_site_label
_atom_site_fract_x
_atom_site_fract_y
_atom_site_fract_z
Si Si1 0.584288 0.295060 0.893467
Si Si2 0.550313 0.042522 0.348694
Si Si3 0.022511 0.776901 0.394748
Si Si4 0.096109 0.042957 0.894444
Si Si5 0.638065 0.084184 0.901437
Si Si6 0.811782 0.836481 0.894363
Si Si7 0.211013 0.409056 0.894286
O O1 0.531138 0.271012 0.858865
O O2 0.597583 0.417227 0.855735
O O3 0.621350 0.201563 0.855269
O O4 0.584521 0.292249 0.000000
O O5 0.551979 0.176748 0.350387
O O6 0.500000 0.000000 0.387218
O O7 0.559091 0.000000 0.250000
O O8 0.592393 0.996150 0.409217
O O9 0.024192 0.763157 0.500000
O O10 0.047931 0.893034 0.366180
O O11 0.141451 0.106797 0.854556
O O12 0.099097 0.037279 0.000000
O O13 0.681194 0.015346 0.853367
O O14 0.655286 0.114629 0.000000
O O15 0.809318 0.709261 0.857990
O O16 0.766241 0.912078 0.866010
O O17 0.813072 0.831303 0.000000
O O18 0.204984 0.413460 0.000000
#
# Coordination Sequence:
#
# PCOD8275490 Si02
#       7
#    16  16  16  16  16  16  16
#     4   9  17  27  41  66  98 128 162 201 234 276
#     4  11  22  33  46  68  97 124 154 197 241 287
#     4  10  18  30  49  70  95 130 166 199 237 285
#     4   9  16  26  43  69  99 129 161 199 241 282
#     4  10  18  30  48  69  96 128 160 196 242 292
#     4   8  13  23  38  61  97 128 152 195 243 283
#     4   8  14  24  41  65  93 125 158 194 240 288
#
# _framework density 22.066953999999999
#
# number of rings (size 3 to 8) (size 9 to 14) (size 15 to 20)
#    0.000    2.714    1.429    2.571    0.000    4.571 
#    0.000    0.714    0.000    5.143    0.000    0.000 
#   17.143    0.000    0.000    0.000    0.000    0.000 
#
# Total GULP energy -693938.471926 kJ/mol
# GULP energy per Si atom -12391.758427 kJ/mol
# Density = 2.201673 g / cm^3
# Si number density = 22.066954 Si / 1000 Ang^3
#
#
#
# Elastic Constant Matrix: (Units=GPa)
#
#
# Indices 1 2 3 4 5 6 
#
# 1 116.9726 70.5929 6.2586 0.0000 0.0000 0.0000
# 2 70.5929 187.9864 7.7263 0.0000 0.0000 0.0000
# 3 6.2586 7.7263 8.8753 0.0000 0.0000 0.0000
# 4 0.0000 0.0000 0.0000 9.0466 0.0000 0.0000
# 5 0.0000 0.0000 0.0000 0.0000 5.5348 0.0000
# 6 0.0000 0.0000 0.0000 0.0000 0.0000 48.8645
#
#
#
# Elastic Compliance Matrix: (Units=1/GPa)
#
#
# Indices 1 2 3 4 5 6 
#
# 1 0.011218 -0.004032 -0.004401 0.000000 0.000000 0.000000
# 2 -0.004032 0.006966 -0.003221 0.000000 0.000000 0.000000
# 3 -0.004401 -0.003221 0.118579 0.000000 0.000000 0.000000
# 4 0.000000 0.000000 0.000000 0.110538 0.000000 0.000000
# 5 0.000000 0.000000 0.000000 0.000000 0.180676 0.000000
# 6 0.000000 0.000000 0.000000 0.000000 0.000000 0.020465
#
#
# Mechanical properties :
#
#
# Convention : Reuss Voigt Hill
#
# Bulk Modulus (GPa) = 8.81398 53.66556 31.23977
# Shear Modulus (GPa) = 9.81224 27.97295 18.89260
#
# Velocity S-wave (km/s) = 2.11098 3.56426 2.92918
# Velocity P-wave (km/s) = 3.15349 6.42735 5.06238
#
# Compressibility (1/GPa) = 0.11345619
#
# Stress axis : x y z
#
# Youngs Moduli (GPa) = 89.14639 143.55747 8.43316
#
# Poissons Ratio (x) = 0.57876 0.03711
# Poissons Ratio (y) = 0.35940 0.02716
# Poissons Ratio (z) = 0.39230 0.46241
#
# Static dielectric constant tensor:
#      x y z
#    x 4.170070 0.000000 0.000000 
#    y 0.000000 4.321480 0.000000 
#    z 0.000000 0.000000 3.173060 
# 
# 
# High freq. dielectric constant tensor:
#      x y z
#    x 1.861000 0.000000 0.000000 
#    y 0.000000 1.875230 0.000000 
#    z 0.000000 0.000000 1.805700 
# 
# From -- ./inp_files/53138.got.cif
#   From: 2010.03.12/outbox.cif.g09.slc.cpg/sg66_27_cif.got.tgz:53138.got - 2010.04.10 21:57:39.
