data_PCOD8275705
_publ_section_title
;
Structure prediction by ZEFSAII (Michael W. Deem and Ramdas Pophale) SiO2 
 PCOD8275705
Probable space group: C C C M
;
_chemical_formula_sum "Si O2"
_cell_formula_units_Z 104
_cell_length_a 19.465551
_cell_length_b 7.831372
_cell_length_c 32.485722
_cell_angle_alpha 90.000000
_cell_angle_beta 90.000000
_cell_angle_gamma 90.000000
_cell_volume 4952.187493
_symmetry_space_group_name_H-M "C C C M"
_symmetry_group_IT_number 66
_symmetry_cell_setting 'orthorhombic'
loop_
_space_group_symop_operation_xyz
x,y,z
-x,-y,z
x,-y,1/2-z
-x,y,1/2-z
-x,-y,-z
x,y,-z
-x,y,1/2+z
x,-y,1/2+z
1/2+x,1/2+y,z
1/2-x,1/2-y,z
1/2+x,1/2-y,1/2-z
1/2-x,1/2+y,1/2-z
1/2-x,1/2-y,-z
1/2+x,1/2+y,-z
1/2-x,1/2+y,1/2+z
1/2+x,1/2-y,1/2+z
loop_
_atom_site_type_symbol
_atom_site_label
_atom_site_fract_x
_atom_site_fract_y
_atom_site_fract_z
Si Si1 0.000000 0.000000 0.681041
Si Si2 0.000000 0.500000 0.430114
Si Si3 0.682912 0.000000 0.250000
Si Si4 0.756656 0.548716 0.333790
Si Si5 0.882123 0.019161 0.375722
Si Si6 0.941051 0.314722 0.220081
Si Si7 0.396235 0.117740 0.366874
Si Si8 0.444954 0.645753 0.454446
O O1 0.943809 0.098065 0.652438
O O2 0.955897 0.881576 0.711006
O O3 0.067472 0.482381 0.402843
O O4 0.016550 0.670530 0.455827
O O5 0.730268 0.961199 0.210521
O O6 0.632779 0.163884 0.242360
O O7 0.750000 0.750000 0.325435
O O8 0.692203 0.453737 0.354797
O O9 0.821585 0.529616 0.364069
O O10 0.894038 0.816564 0.379352
O O11 0.885906 0.117954 0.419660
O O12 0.936831 0.411526 0.176143
O O13 0.000000 0.390122 0.250000
O O14 0.500000 0.500000 0.444503
O O15 0.412507 0.619009 0.500000
#
# Coordination Sequence:
#
# PCOD8275705 Si02
#       8
#     8   8   8  16  16  16  16  16
#     4  10  19  36  59  86 112 166 208 258 321 371
#     4  12  21  38  65  94 134 160 210 258 323 392
#     4  10  21  38  54  85 120 164 212 268 310 367
#     4   9  20  39  61  83 124 171 218 262 318 377
#     4  10  18  42  62  88 122 162 214 255 317 388
#     4  10  20  34  55  84 121 154 207 268 312 352
#     4   9  20  35  61  89 120 173 209 258 314 377
#     4  11  22  39  66 100 130 157 199 264 327 392
#
# _framework density 21.000821999999999
#
# number of rings (size 3 to 8) (size 9 to 14) (size 15 to 20)
#    0.000    2.000    2.308    2.538    4.308    0.000 
#   11.077    0.769    0.000    6.923    0.000    0.000 
#    0.000    0.000    0.000    0.000    0.000    0.000 
#
# Total GULP energy -644336.193896 kJ/mol
# GULP energy per Si atom -12391.080652 kJ/mol
# Density = 2.095302 g / cm^3
# Si number density = 21.000822 Si / 1000 Ang^3
#
#
#
# Elastic Constant Matrix: (Units=GPa)
#
#
# Indices 1 2 3 4 5 6 
#
# 1 135.0892 25.3486 70.5910 0.0000 0.0000 0.0000
# 2 25.3486 70.4785 41.3308 0.0000 0.0000 0.0000
# 3 70.5910 41.3308 139.9121 0.0000 0.0000 0.0000
# 4 0.0000 0.0000 0.0000 -2.9924 0.0000 0.0000
# 5 0.0000 0.0000 0.0000 0.0000 39.4236 0.0000
# 6 0.0000 0.0000 0.0000 0.0000 0.0000 -405.4620
#
#
#
# Elastic Compliance Matrix: (Units=1/GPa)
#
#
# Indices 1 2 3 4 5 6 
#
# 1 0.010088 -0.000778 -0.004860 0.000000 0.000000 0.000000
# 2 -0.000778 0.017222 -0.004695 0.000000 0.000000 0.000000
# 3 -0.004860 -0.004695 0.010986 0.000000 0.000000 0.000000
# 4 0.000000 0.000000 0.000000 -0.334184 0.000000 0.000000
# 5 0.000000 0.000000 0.000000 0.000000 0.025366 0.000000
# 6 0.000000 0.000000 0.000000 0.000000 0.000000 -0.002466
#
#
# Mechanical properties :
#
#
# Convention : Reuss Voigt Hill
#
# Bulk Modulus (GPa) = 56.72089 68.89118 62.80604
# Shear Modulus (GPa) = -20.28838 -59.92553 -40.10696
#
# Velocity S-wave (km/s) = -3.11155 -5.34760 -4.37484
# Velocity P-wave (km/s) = 3.76279 2.29212 2.11006
#
# Compressibility (1/GPa) = 0.01763019
#
# Stress axis : x y z
#
# Youngs Moduli (GPa) = 99.12645 58.06598 91.02328
#
# Poissons Ratio (x) = 0.04519 0.44237
# Poissons Ratio (y) = 0.07715 0.42733
# Poissons Ratio (z) = 0.48175 0.27260
#
# Static dielectric constant tensor:
#      x y z
#    x 3.905190 0.000000 0.000000 
#    y 0.000000 3.656160 0.000000 
#    z 0.000000 0.000000 3.974920 
# 
# 
# High freq. dielectric constant tensor:
#      x y z
#    x 1.811750 0.000000 0.000000 
#    y 0.000000 1.815170 0.000000 
#    z 0.000000 0.000000 1.811820 
# 
# From -- ./inp_files/70230.got.cif
#   From: 2010.03.12/outbox.cif.g09.slc.cpg/sg66_36_cif.got.tgz:70230.got - 2010.04.10 21:57:39.
