data_PCOD8275524
_publ_section_title
;
Structure prediction by ZEFSAII (Michael W. Deem and Ramdas Pophale) SiO2 
 PCOD8275524
Probable space group: C C C M
;
_chemical_formula_sum "Si O2"
_cell_formula_units_Z 112
_cell_length_a 11.705706
_cell_length_b 20.125127
_cell_length_c 23.738873
_cell_angle_alpha 90.000000
_cell_angle_beta 90.000000
_cell_angle_gamma 90.000000
_cell_volume 5592.375686
_symmetry_space_group_name_H-M "C C C M"
_symmetry_group_IT_number 66
_symmetry_cell_setting 'orthorhombic'
loop_
_space_group_symop_operation_xyz
x,y,z
-x,-y,z
x,-y,1/2-z
-x,y,1/2-z
-x,-y,-z
x,y,-z
-x,y,1/2+z
x,-y,1/2+z
1/2+x,1/2+y,z
1/2-x,1/2-y,z
1/2+x,1/2-y,1/2-z
1/2-x,1/2+y,1/2-z
1/2-x,1/2-y,-z
1/2+x,1/2+y,-z
1/2-x,1/2+y,1/2+z
1/2+x,1/2-y,1/2+z
loop_
_atom_site_type_symbol
_atom_site_label
_atom_site_fract_x
_atom_site_fract_y
_atom_site_fract_z
Si Si1 0.406217 0.128460 0.711945
Si Si2 0.681375 0.032737 0.563247
Si Si3 0.115434 0.256677 0.440339
Si Si4 0.161067 0.898458 0.761616
Si Si5 0.624502 0.517128 0.844066
Si Si6 0.946000 0.595795 0.589000
Si Si7 0.383228 0.269657 0.320751
O O1 0.500000 0.092131 0.750000
O O2 0.290319 0.124647 0.747533
O O3 0.401817 0.090946 0.652934
O O4 0.446414 0.205148 0.703515
O O5 0.721577 0.053373 0.500000
O O6 0.789167 0.036762 0.605940
O O7 0.581926 0.082249 0.584805
O O8 0.628679 0.959301 0.557355
O O9 0.064873 0.228489 0.500000
O O10 0.250000 0.250000 0.442738
O O11 0.080858 0.333638 0.437566
O O12 0.070840 0.217245 0.385043
O O13 0.108509 0.923536 0.702433
O O14 0.090111 0.834495 0.783579
O O15 0.168744 0.954042 0.809682
O O16 0.500000 0.500000 0.869998
O O17 0.250000 0.250000 0.324459
#
# Coordination Sequence:
#
# PCOD8275524 Si02
#       7
#    16  16  16  16  16  16  16
#     4  10  18  30  53  84 120 147 185 235 293 366
#     4  11  22  37  58  82 116 156 196 243 301 365
#     4   9  16  27  49  81 119 157 189 229 283 351
#     4  10  19  38  54  77 113 150 192 241 300 357
#     4  11  24  39  57  78 105 152 205 250 293 352
#     4  10  19  35  53  88 124 155 190 232 304 374
#     4   8  17  30  49  75 112 148 182 233 283 348
#
# _framework density 20.027266000000001
#
# number of rings (size 3 to 8) (size 9 to 14) (size 15 to 20)
#    0.000    2.143    1.429    4.286    0.000    1.429 
#    0.000    0.000    0.000    0.000    0.000    0.000 
#    0.000   16.571    0.000    0.000    0.000    0.000 
#
# Total GULP energy -693839.542709 kJ/mol
# GULP energy per Si atom -12389.991834 kJ/mol
# Density = 1.998168 g / cm^3
# Si number density = 20.027266 Si / 1000 Ang^3
#
#
#
# Elastic Constant Matrix: (Units=GPa)
#
#
# Indices 1 2 3 4 5 6 
#
# 1 91.5321 24.2202 45.8910 0.0000 0.0000 0.0000
# 2 24.2202 84.3073 28.1641 0.0000 0.0000 0.0000
# 3 45.8910 28.1641 104.7576 0.0000 0.0000 0.0000
# 4 0.0000 0.0000 0.0000 24.0733 0.0000 0.0000
# 5 0.0000 0.0000 0.0000 0.0000 21.7936 0.0000
# 6 0.0000 0.0000 0.0000 0.0000 0.0000 23.9903
#
#
#
# Elastic Compliance Matrix: (Units=1/GPa)
#
#
# Indices 1 2 3 4 5 6 
#
# 1 0.014370 -0.002225 -0.005697 0.000000 0.000000 0.000000
# 2 -0.002225 0.013376 -0.002621 0.000000 0.000000 0.000000
# 3 -0.005697 -0.002621 0.012746 0.000000 0.000000 0.000000
# 4 0.000000 0.000000 0.000000 0.041540 0.000000 0.000000
# 5 0.000000 0.000000 0.000000 0.000000 0.045885 0.000000
# 6 0.000000 0.000000 0.000000 0.000000 0.000000 0.041683
#
#
# Mechanical properties :
#
#
# Convention : Reuss Voigt Hill
#
# Bulk Modulus (GPa) = 51.53116 53.01638 52.27377
# Shear Modulus (GPa) = 25.36057 26.12624 25.74340
#
# Velocity S-wave (km/s) = 3.56237 3.61575 3.58916
# Velocity P-wave (km/s) = 6.53506 6.63032 6.58286
#
# Compressibility (1/GPa) = 0.01940573
#
# Stress axis : x y z
#
# Youngs Moduli (GPa) = 69.58871 74.75869 78.45457
#
# Poissons Ratio (x) = 0.16635 0.44694
# Poissons Ratio (y) = 0.15485 0.20566
# Poissons Ratio (z) = 0.39644 0.19598
#
# Static dielectric constant tensor:
#      x y z
#    x 3.447090 0.000000 0.000000 
#    y 0.000000 3.638360 0.000000 
#    z 0.000000 0.000000 3.930280 
# 
# 
# High freq. dielectric constant tensor:
#      x y z
#    x 1.759760 0.000000 0.000000 
#    y 0.000000 1.767750 0.000000 
#    z 0.000000 0.000000 1.789400 
# 
# From -- ./inp_files/57139.got.cif
#   From: 2010.03.12/outbox.cif.g09.slc.cpg/sg66_29_cif.got.tgz:57139.got - 2010.04.10 21:57:39.
