data_PCOD8275986
_publ_section_title
;
Structure prediction by ZEFSAII (Michael W. Deem and Ramdas Pophale) SiO2 
 PCOD8275986
Probable space group: C C C M
;
_chemical_formula_sum "Si O2"
_cell_formula_units_Z 88
_cell_length_a 9.413396
_cell_length_b 15.391017
_cell_length_c 31.723646
_cell_angle_alpha 90.000000
_cell_angle_beta 90.000000
_cell_angle_gamma 90.000000
_cell_volume 4596.176964
_symmetry_space_group_name_H-M "C C C M"
_symmetry_group_IT_number 66
_symmetry_cell_setting 'orthorhombic'
loop_
_space_group_symop_operation_xyz
x,y,z
-x,-y,z
x,-y,1/2-z
-x,y,1/2-z
-x,-y,-z
x,y,-z
-x,y,1/2+z
x,-y,1/2+z
1/2+x,1/2+y,z
1/2-x,1/2-y,z
1/2+x,1/2-y,1/2-z
1/2-x,1/2+y,1/2-z
1/2-x,1/2-y,-z
1/2+x,1/2+y,-z
1/2-x,1/2+y,1/2+z
1/2+x,1/2-y,1/2+z
loop_
_atom_site_type_symbol
_atom_site_label
_atom_site_fract_x
_atom_site_fract_y
_atom_site_fract_z
Si Si1 0.163588 0.167116 0.705923
Si Si2 0.333741 0.493091 0.350462
Si Si3 0.834400 0.166904 0.303221
Si Si4 0.279477 0.400907 0.000000
Si Si5 0.250147 0.446834 0.558948
Si Si6 0.077096 0.828791 0.000000
Si Si7 0.459778 0.865951 0.000000
O O1 0.250000 0.250000 0.688550
O O2 0.206987 0.077686 0.684216
O O3 0.202125 0.149662 0.754515
O O4 0.000942 0.186780 0.694879
O O5 0.500000 0.500000 0.361006
O O6 0.285016 0.586180 0.332195
O O7 0.248268 0.459420 0.391137
O O8 0.750000 0.250000 0.320773
O O9 0.295496 0.459900 0.958750
O O10 0.405823 0.331713 0.000000
O O11 0.127771 0.353297 0.000000
O O12 0.362310 0.374781 0.542193
O O13 0.094346 0.419103 0.541342
O O14 0.117504 0.727367 0.000000
#
# Coordination Sequence:
#
# PCOD8275986 Si02
#       7
#    16  16  16   8  16   8   8
#     4   9  18  33  55  80 106 140 178 219 262 311
#     4  10  19  33  55  80 105 141 181 218 259 311
#     4   9  18  35  55  77 107 140 179 220 262 310
#     4  10  19  36  55  74 102 136 170 208 257 314
#     4  10  19  35  53  74 104 138 172 210 257 311
#     4  10  19  34  57  78  98 134 176 214 255 312
#     4  10  21  36  55  78 104 134 168 214 267 314
#
# _framework density 19.146346999999999
#
# number of rings (size 3 to 8) (size 9 to 14) (size 15 to 20)
#    0.000    2.545    0.000    5.182    0.000    3.636 
#    0.000   10.000    0.000    4.364    0.000    0.000 
#    0.000    0.000    0.000    0.000    0.000    0.000 
#
# Total GULP energy -545394.415876 kJ/mol
# GULP energy per Si atom -12395.327634 kJ/mol
# Density = 1.910277 g / cm^3
# Si number density = 19.146347 Si / 1000 Ang^3
#
#
#
# Elastic Constant Matrix: (Units=GPa)
#
#
# Indices 1 2 3 4 5 6 
#
# 1 59.9397 25.7802 31.6533 0.0000 0.0000 0.0000
# 2 25.7802 139.6066 63.1752 0.0000 0.0000 0.0000
# 3 31.6533 63.1752 103.6696 0.0000 0.0000 0.0000
# 4 0.0000 0.0000 0.0000 12.1941 0.0000 0.0000
# 5 0.0000 0.0000 0.0000 0.0000 4.6220 0.0000
# 6 0.0000 0.0000 0.0000 0.0000 0.0000 30.6147
#
#
#
# Elastic Compliance Matrix: (Units=1/GPa)
#
#
# Indices 1 2 3 4 5 6 
#
# 1 0.020057 -0.001288 -0.005339 0.000000 0.000000 0.000000
# 2 -0.001288 0.009973 -0.005684 0.000000 0.000000 0.000000
# 3 -0.005339 -0.005684 0.014740 0.000000 0.000000 0.000000
# 4 0.000000 0.000000 0.000000 0.082007 0.000000 0.000000
# 5 0.000000 0.000000 0.000000 0.000000 0.216355 0.000000
# 6 0.000000 0.000000 0.000000 0.000000 0.000000 0.032664
#
#
# Mechanical properties :
#
#
# Convention : Reuss Voigt Hill
#
# Bulk Modulus (GPa) = 49.63345 60.49258 55.06302
# Shear Modulus (GPa) = 12.28096 21.65998 16.97047
#
# Velocity S-wave (km/s) = 2.53539 3.36711 2.98040
# Velocity P-wave (km/s) = 5.87796 6.83959 6.37693
#
# Compressibility (1/GPa) = 0.02014770
#
# Stress axis : x y z
#
# Youngs Moduli (GPa) = 49.85831 100.27022 67.84157
#
# Poissons Ratio (x) = 0.12911 0.36222
# Poissons Ratio (y) = 0.06420 0.38563
# Poissons Ratio (z) = 0.26621 0.56997
#
# Static dielectric constant tensor:
#      x y z
#    x 3.412480 0.000000 0.000000 
#    y 0.000000 3.596160 0.000000 
#    z 0.000000 0.000000 3.304840 
# 
# 
# High freq. dielectric constant tensor:
#      x y z
#    x 1.734030 0.000000 0.000000 
#    y 0.000000 1.755210 0.000000 
#    z 0.000000 0.000000 1.724730 
# 
# From -- ./inp_files/68213.got.cif
#   From: 2010.03.12/outbox.cif.g09.slc.cpg/sg66_35_cif.got.tgz:68213.got - 2010.04.10 21:57:39.
