data_PCOD8275941
_publ_section_title
;
Structure prediction by ZEFSAII (Michael W. Deem and Ramdas Pophale) SiO2 
 PCOD8275941
Probable space group: C C C M
;
_chemical_formula_sum "Si O2"
_cell_formula_units_Z 48
_cell_length_a 13.763183
_cell_length_b 10.860744
_cell_length_c 13.695264
_cell_angle_alpha 90.000000
_cell_angle_beta 90.000000
_cell_angle_gamma 90.000000
_cell_volume 2047.146249
_symmetry_space_group_name_H-M "C C C M"
_symmetry_group_IT_number 66
_symmetry_cell_setting 'orthorhombic'
loop_
_space_group_symop_operation_xyz
x,y,z
-x,-y,z
x,-y,1/2-z
-x,y,1/2-z
-x,-y,-z
x,y,-z
-x,y,1/2+z
x,-y,1/2+z
1/2+x,1/2+y,z
1/2-x,1/2-y,z
1/2+x,1/2-y,1/2-z
1/2-x,1/2+y,1/2-z
1/2-x,1/2-y,-z
1/2+x,1/2+y,-z
1/2-x,1/2+y,1/2+z
1/2+x,1/2-y,1/2+z
loop_
_atom_site_type_symbol
_atom_site_label
_atom_site_fract_x
_atom_site_fract_y
_atom_site_fract_z
Si Si1 0.603859 0.564724 0.000000
Si Si2 0.859999 0.129267 0.711780
Si Si3 0.856912 0.380030 0.209068
Si Si4 0.215283 0.613794 0.000000
O O1 0.500000 0.500000 0.000000
O O2 0.617949 0.647455 0.903195
O O3 0.687627 0.464267 0.000000
O O4 0.907518 0.247581 0.768334
O O5 0.745948 0.125346 0.734604
O O6 0.907040 0.000000 0.750000
O O7 0.914669 0.500000 0.250000
O O8 0.849688 0.407448 0.094673
O O9 0.250000 0.750000 0.000000
#
# Coordination Sequence:
#
# PCOD8275941 Si02
#       4
#     8  16  16   8
#     4  12  24  36  56  91 129 164 198 256 328 394
#     4  10  19  35  53  85 118 151 198 247 308 359
#     4  10  19  32  57  86 118 146 200 261 309 348
#     4  12  18  35  57  82 116 153 207 247 305 367
#
# _framework density 23.447274
#
# number of rings (size 3 to 8) (size 9 to 14) (size 15 to 20)
#    0.000    1.333   10.000    0.000    0.000    4.667 
#    0.000    0.000    0.000    0.000    0.000   35.000 
#    0.000    0.000    0.000    0.000    0.000    0.000 
#
# Total GULP energy -297337.331632 kJ/mol
# GULP energy per Si atom -12389.055485 kJ/mol
# Density = 2.339391 g / cm^3
# Si number density = 23.447274 Si / 1000 Ang^3
#
#
#
# Elastic Constant Matrix: (Units=GPa)
#
#
# Indices 1 2 3 4 5 6 
#
# 1 49.6522 -2.6862 37.3416 0.0000 0.0000 0.0000
# 2 -2.6862 229.2112 62.7555 0.0000 0.0000 0.0000
# 3 37.3416 62.7555 236.1127 0.0000 0.0000 0.0000
# 4 0.0000 0.0000 0.0000 41.4271 0.0000 0.0000
# 5 0.0000 0.0000 0.0000 0.0000 38.4177 0.0000
# 6 0.0000 0.0000 0.0000 0.0000 0.0000 -19.2488
#
#
#
# Elastic Compliance Matrix: (Units=1/GPa)
#
#
# Indices 1 2 3 4 5 6 
#
# 1 0.023257 0.001380 -0.004045 0.000000 0.000000 0.000000
# 2 0.001380 0.004787 -0.001491 0.000000 0.000000 0.000000
# 3 -0.004045 -0.001491 0.005271 0.000000 0.000000 0.000000
# 4 0.000000 0.000000 0.000000 0.024139 0.000000 0.000000
# 5 0.000000 0.000000 0.000000 0.000000 0.026030 0.000000
# 6 0.000000 0.000000 0.000000 0.000000 0.000000 -0.051951
#
#
# Mechanical properties :
#
#
# Convention : Reuss Voigt Hill
#
# Bulk Modulus (GPa) = 39.99352 78.86642 59.42997
# Shear Modulus (GPa) = 103.78217 39.95687 71.86952
#
# Velocity S-wave (km/s) = 6.66018 4.13257 5.54239
# Velocity P-wave (km/s) = 8.73143 7.51529 8.14608
#
# Compressibility (1/GPa) = 0.02500405
#
# Stress axis : x y z
#
# Youngs Moduli (GPa) = 42.99823 208.89617 189.71199
#
# Poissons Ratio (x) = -0.28828 0.76736
# Poissons Ratio (y) = -0.05934 0.28278
# Poissons Ratio (z) = 0.17392 0.31138
#
# Static dielectric constant tensor:
#      x y z
#    x 3.553360 0.000000 0.000000 
#    y 0.000000 6.031270 0.000000 
#    z 0.000000 0.000000 5.886670 
# 
# 
# High freq. dielectric constant tensor:
#      x y z
#    x 1.885750 0.000000 0.000000 
#    y 0.000000 1.946620 0.000000 
#    z 0.000000 0.000000 1.936480 
# 
# From -- ./inp_files/14210.got.cif
#   From: 2010.03.12/outbox.cif.g09.slc.cpg/sg66_8_cif.got.tgz:14210.got - 2010.04.10 21:57:39.
