data_PCOD8275413
_publ_section_title
;
Structure prediction by ZEFSAII (Michael W. Deem and Ramdas Pophale) SiO2 
 PCOD8275413
Probable space group: C C C M
;
_chemical_formula_sum "Si O2"
_cell_formula_units_Z 96
_cell_length_a 13.705477
_cell_length_b 24.544713
_cell_length_c 18.241210
_cell_angle_alpha 90.000000
_cell_angle_beta 90.000000
_cell_angle_gamma 90.000000
_cell_volume 6136.288311
_symmetry_space_group_name_H-M "C C C M"
_symmetry_group_IT_number 66
_symmetry_cell_setting 'orthorhombic'
loop_
_space_group_symop_operation_xyz
x,y,z
-x,-y,z
x,-y,1/2-z
-x,y,1/2-z
-x,-y,-z
x,y,-z
-x,y,1/2+z
x,-y,1/2+z
1/2+x,1/2+y,z
1/2-x,1/2-y,z
1/2+x,1/2-y,1/2-z
1/2-x,1/2+y,1/2-z
1/2-x,1/2-y,-z
1/2+x,1/2+y,-z
1/2-x,1/2+y,1/2+z
1/2+x,1/2-y,1/2+z
loop_
_atom_site_type_symbol
_atom_site_label
_atom_site_fract_x
_atom_site_fract_y
_atom_site_fract_z
Si Si1 0.888759 0.942897 0.728015
Si Si2 0.425669 0.389661 0.583569
Si Si3 0.352189 0.729379 0.083597
Si Si4 0.622260 0.645879 0.156927
Si Si5 0.299766 0.808278 0.418933
Si Si6 0.964711 0.262769 0.672833
O O1 0.878702 0.933038 0.640353
O O2 0.848738 0.891314 0.773441
O O3 0.000000 0.948168 0.750000
O O4 0.835589 0.000000 0.750000
O O5 0.422579 0.412220 0.500000
O O6 0.360992 0.335509 0.590386
O O7 0.537898 0.378881 0.605557
O O8 0.250000 0.750000 0.118722
O O9 0.441564 0.758576 0.122122
O O10 0.357246 0.748572 0.000000
O O11 0.720241 0.648767 0.109300
O O12 0.588132 0.704700 0.186733
O O13 0.335168 0.826119 0.500000
O O14 0.250000 0.750000 0.423980
O O15 0.391531 0.805876 0.364231
O O16 0.000000 0.286895 0.750000
#
# Coordination Sequence:
#
# PCOD8275413 Si02
#       6
#    16  16  16  16  16  16
#     4   9  17  29  41  57  83 112 142 179 218 250
#     4   9  16  27  43  61  83 111 143 173 207 253
#     4   9  17  28  42  60  84 113 140 168 203 245
#     4   9  16  28  43  59  82 113 144 174 209 249
#     4   9  17  28  42  60  83 112 144 174 203 240
#     4  10  18  26  39  60  86 115 142 168 201 246
#
# _framework density 15.644636999999999
#
# number of rings (size 3 to 8) (size 9 to 14) (size 15 to 20)
#    0.000    2.833    0.000    3.500    0.000    7.333 
#    0.000    7.500    0.000    0.000    0.000    0.000 
#    0.000    6.000    0.000   12.333    0.000    1.500 
#
# Total GULP energy -594952.544837 kJ/mol
# GULP energy per Si atom -12394.844684 kJ/mol
# Density = 1.560903 g / cm^3
# Si number density = 15.644637 Si / 1000 Ang^3
#
#
#
# Elastic Constant Matrix: (Units=GPa)
#
#
# Indices 1 2 3 4 5 6 
#
# 1 77.4423 31.9685 43.4856 0.0000 0.0000 0.0000
# 2 31.9685 52.4205 42.5524 0.0000 0.0000 0.0000
# 3 43.4856 42.5524 135.3305 0.0000 0.0000 0.0000
# 4 0.0000 0.0000 0.0000 12.7764 0.0000 0.0000
# 5 0.0000 0.0000 0.0000 0.0000 22.1885 0.0000
# 6 0.0000 0.0000 0.0000 0.0000 0.0000 9.2130
#
#
#
# Elastic Compliance Matrix: (Units=1/GPa)
#
#
# Indices 1 2 3 4 5 6 
#
# 1 0.018216 -0.008537 -0.003169 0.000000 0.000000 0.000000
# 2 -0.008537 0.029615 -0.006569 0.000000 0.000000 0.000000
# 3 -0.003169 -0.006569 0.010473 0.000000 0.000000 0.000000
# 4 0.000000 0.000000 0.000000 0.078269 0.000000 0.000000
# 5 0.000000 0.000000 0.000000 0.000000 0.045068 0.000000
# 6 0.000000 0.000000 0.000000 0.000000 0.000000 0.108542
#
#
# Mechanical properties :
#
#
# Convention : Reuss Voigt Hill
#
# Bulk Modulus (GPa) = 45.96646 55.68959 50.82802
# Shear Modulus (GPa) = 14.97075 18.64805 16.80940
#
# Velocity S-wave (km/s) = 3.09678 3.45625 3.28144
# Velocity P-wave (km/s) = 6.49862 7.18341 6.84958
#
# Compressibility (1/GPa) = 0.02175499
#
# Stress axis : x y z
#
# Youngs Moduli (GPa) = 54.89568 33.76701 95.48227
#
# Poissons Ratio (x) = 0.28825 0.30261
# Poissons Ratio (y) = 0.46862 0.62720
# Poissons Ratio (z) = 0.17398 0.22181
#
# Static dielectric constant tensor:
#      x y z
#    x 2.889750 0.000000 0.000000 
#    y 0.000000 3.127870 0.000000 
#    z 0.000000 0.000000 3.204460 
# 
# 
# High freq. dielectric constant tensor:
#      x y z
#    x 1.572460 0.000000 0.000000 
#    y 0.000000 1.555710 0.000000 
#    z 0.000000 0.000000 1.617260 
# 
# From -- ./inp_files/38988.got.cif
#   From: 2010.03.12/outbox.cif.g09.slc.cpg/sg66_20_cif.got.tgz:38988.got - 2010.04.10 21:57:39.
