data_PCOD8275466
_publ_section_title
;
Structure prediction by ZEFSAII (Michael W. Deem and Ramdas Pophale) SiO2 
 PCOD8275466
Probable space group: C C C M
;
_chemical_formula_sum "Si O2"
_cell_formula_units_Z 80
_cell_length_a 13.910292
_cell_length_b 17.860811
_cell_length_c 18.231662
_cell_angle_alpha 90.000000
_cell_angle_beta 90.000000
_cell_angle_gamma 90.000000
_cell_volume 4529.639949
_symmetry_space_group_name_H-M "C C C M"
_symmetry_group_IT_number 66
_symmetry_cell_setting 'orthorhombic'
loop_
_space_group_symop_operation_xyz
x,y,z
-x,-y,z
x,-y,1/2-z
-x,y,1/2-z
-x,-y,-z
x,y,-z
-x,y,1/2+z
x,-y,1/2+z
1/2+x,1/2+y,z
1/2-x,1/2-y,z
1/2+x,1/2-y,1/2-z
1/2-x,1/2+y,1/2-z
1/2-x,1/2-y,-z
1/2+x,1/2+y,-z
1/2-x,1/2+y,1/2+z
1/2+x,1/2-y,1/2+z
loop_
_atom_site_type_symbol
_atom_site_label
_atom_site_fract_x
_atom_site_fract_y
_atom_site_fract_z
Si Si1 0.241370 0.931627 0.296239
Si Si2 0.502945 0.709838 0.581900
Si Si3 0.410178 0.449801 0.083120
Si Si4 0.103346 0.819048 0.778594
Si Si5 0.343949 0.791760 0.341251
O O1 0.177532 0.965282 0.362189
O O2 0.178978 0.883769 0.238393
O O3 0.325301 0.880340 0.331197
O O4 0.287015 0.000000 0.250000
O O5 0.542137 0.722817 0.500000
O O6 0.435646 0.637316 0.587629
O O7 0.595488 0.699555 0.634646
O O8 0.435417 0.779644 0.605664
O O9 0.500000 0.500000 0.108808
O O10 0.380329 0.472003 0.000000
O O11 0.133589 0.742751 0.738445
O O12 0.000000 0.847269 0.750000
O O13 0.250000 0.750000 0.374860
#
# Coordination Sequence:
#
# PCOD8275466 Si02
#       5
#    16  16  16  16  16
#     4  11  20  29  49  69  98 134 165 200 252 292
#     4  10  18  29  49  72  97 129 164 205 250 293
#     4  10  19  28  42  72 106 131 158 194 242 300
#     4   9  16  30  47  69  95 122 160 202 240 295
#     4   9  17  31  45  69  95 129 165 204 240 291
#
# _framework density 17.661449000000001
#
# number of rings (size 3 to 8) (size 9 to 14) (size 15 to 20)
#    0.000    2.200    6.000    1.200    0.000    1.200 
#    0.000    0.000    0.000   12.000    0.000    1.400 
#    0.000    0.000    0.000    0.000    0.000    0.000 
#
# Total GULP energy -495872.483681 kJ/mol
# GULP energy per Si atom -12396.812092 kJ/mol
# Density = 1.762125 g / cm^3
# Si number density = 17.661449 Si / 1000 Ang^3
#
#
#
# Elastic Constant Matrix: (Units=GPa)
#
#
# Indices 1 2 3 4 5 6 
#
# 1 30.3574 16.7691 17.9439 0.0000 0.0000 0.0000
# 2 16.7691 87.9093 20.1313 0.0000 0.0000 0.0000
# 3 17.9439 20.1313 115.0366 0.0000 0.0000 0.0000
# 4 0.0000 0.0000 0.0000 19.4811 0.0000 0.0000
# 5 0.0000 0.0000 0.0000 0.0000 15.7504 0.0000
# 6 0.0000 0.0000 0.0000 0.0000 0.0000 26.9235
#
#
#
# Elastic Compliance Matrix: (Units=1/GPa)
#
#
# Indices 1 2 3 4 5 6 
#
# 1 0.039436 -0.006369 -0.005037 0.000000 0.000000 0.000000
# 2 -0.006369 0.012879 -0.001260 0.000000 0.000000 0.000000
# 3 -0.005037 -0.001260 0.009699 0.000000 0.000000 0.000000
# 4 0.000000 0.000000 0.000000 0.051332 0.000000 0.000000
# 5 0.000000 0.000000 0.000000 0.000000 0.063490 0.000000
# 6 0.000000 0.000000 0.000000 0.000000 0.000000 0.037142
#
#
# Mechanical properties :
#
#
# Convention : Reuss Voigt Hill
#
# Bulk Modulus (GPa) = 27.26156 38.11020 32.68588
# Shear Modulus (GPa) = 19.87764 24.32827 22.10295
#
# Velocity S-wave (km/s) = 3.35846 3.71547 3.54146
# Velocity P-wave (km/s) = 5.52342 6.32703 5.93883
#
# Compressibility (1/GPa) = 0.03668168
#
# Stress axis : x y z
#
# Youngs Moduli (GPa) = 25.35730 77.64629 103.10226
#
# Poissons Ratio (x) = 0.49455 0.51931
# Poissons Ratio (y) = 0.16151 0.12994
# Poissons Ratio (z) = 0.12772 0.09786
#
# Static dielectric constant tensor:
#      x y z
#    x 3.088750 0.000000 0.000000 
#    y 0.000000 3.154360 0.000000 
#    z 0.000000 0.000000 3.559750 
# 
# 
# High freq. dielectric constant tensor:
#      x y z
#    x 1.639920 0.000000 0.000000 
#    y 0.000000 1.663140 0.000000 
#    z 0.000000 0.000000 1.685320 
# 
# From -- ./inp_files/40184.got.cif
#   From: 2010.03.12/outbox.cif.g09.slc.cpg/sg66_21_cif.got.tgz:40184.got - 2010.04.10 21:57:39.
