data_PCOD8275581
_publ_section_title
;
Structure prediction by ZEFSAII (Michael W. Deem and Ramdas Pophale) SiO2 
 PCOD8275581
Probable space group: C C C M
;
_chemical_formula_sum "Si O2"
_cell_formula_units_Z 128
_cell_length_a 18.897707
_cell_length_b 20.075822
_cell_length_c 19.038851
_cell_angle_alpha 90.000000
_cell_angle_beta 90.000000
_cell_angle_gamma 90.000000
_cell_volume 7223.092601
_symmetry_space_group_name_H-M "C C C M"
_symmetry_group_IT_number 66
_symmetry_cell_setting 'orthorhombic'
loop_
_space_group_symop_operation_xyz
x,y,z
-x,-y,z
x,-y,1/2-z
-x,y,1/2-z
-x,-y,-z
x,y,-z
-x,y,1/2+z
x,-y,1/2+z
1/2+x,1/2+y,z
1/2-x,1/2-y,z
1/2+x,1/2-y,1/2-z
1/2-x,1/2+y,1/2-z
1/2-x,1/2-y,-z
1/2+x,1/2+y,-z
1/2-x,1/2+y,1/2+z
1/2+x,1/2-y,1/2+z
loop_
_atom_site_type_symbol
_atom_site_label
_atom_site_fract_x
_atom_site_fract_y
_atom_site_fract_z
Si Si1 0.476194 0.294988 0.077749
Si Si2 0.676243 0.276543 0.618434
Si Si3 0.461931 0.826024 0.148471
Si Si4 0.699022 0.578132 0.918244
Si Si5 0.957437 0.059742 0.419293
Si Si6 0.385193 0.830409 0.713428
Si Si7 0.818451 0.531121 0.175661
Si Si8 0.071434 0.459220 0.578612
O O1 0.395138 0.266378 0.072279
O O2 0.531681 0.248040 0.117205
O O3 0.474290 0.367868 0.115311
O O4 0.505923 0.300986 0.000000
O O5 0.750000 0.250000 0.584172
O O6 0.690402 0.354757 0.627762
O O7 0.657719 0.236215 0.690205
O O8 0.396813 0.825856 0.203160
O O9 0.537720 0.841632 0.181243
O O10 0.444576 0.881142 0.089962
O O11 0.624667 0.540170 0.915008
O O12 0.754846 0.530489 0.880255
O O13 0.719970 0.593223 0.000000
O O14 0.981425 0.065415 0.500000
O O15 0.000000 0.000000 0.381099
O O16 0.340443 0.893312 0.688989
O O17 0.795464 0.500000 0.250000
O O18 0.878997 0.486504 0.140382
O O19 0.103956 0.467665 0.500000
O O20 0.000000 0.500000 0.584428
#
# Coordination Sequence:
#
# PCOD8275581 Si02
#       8
#    16  16  16  16  16  16  16  16
#     4   9  18  30  49  81 107 135 176 224 279 330
#     4  10  18  32  51  77 110 138 168 219 278 345
#     4  10  19  34  50  70 106 144 188 231 267 318
#     4  10  21  36  55  85 115 140 176 228 286 335
#     4   8  15  32  58  82 107 134 169 216 276 339
#     4  10  20  33  51  73  98 150 191 214 268 336
#     4  12  22  36  52  72 108 151 194 222 267 341
#     4  11  22  33  49  76 104 143 195 243 276 312
#
# _framework density 17.720941
#
# number of rings (size 3 to 8) (size 9 to 14) (size 15 to 20)
#    0.000    2.000    3.750    1.875    0.000    1.250 
#    0.000    1.250    0.000    1.875    0.000    0.000 
#    0.000    7.000    0.000    0.000    0.000    0.000 
#
# Total GULP energy -792893.217022 kJ/mol
# GULP energy per Si atom -12388.956516 kJ/mol
# Density = 1.768061 g / cm^3
# Si number density = 17.720941 Si / 1000 Ang^3
#
#
#
# Elastic Constant Matrix: (Units=GPa)
#
#
# Indices 1 2 3 4 5 6 
#
# 1 66.4701 48.4292 33.1598 0.0000 0.0000 0.0000
# 2 48.4292 104.1870 44.5456 0.0000 0.0000 0.0000
# 3 33.1598 44.5456 82.1759 0.0000 0.0000 0.0000
# 4 0.0000 0.0000 0.0000 17.9601 0.0000 0.0000
# 5 0.0000 0.0000 0.0000 0.0000 17.5905 0.0000
# 6 0.0000 0.0000 0.0000 0.0000 0.0000 25.9326
#
#
#
# Elastic Compliance Matrix: (Units=1/GPa)
#
#
# Indices 1 2 3 4 5 6 
#
# 1 0.024095 -0.009168 -0.004753 0.000000 0.000000 0.000000
# 2 -0.009168 0.015982 -0.004964 0.000000 0.000000 0.000000
# 3 -0.004753 -0.004964 0.016778 0.000000 0.000000 0.000000
# 4 0.000000 0.000000 0.000000 0.055679 0.000000 0.000000
# 5 0.000000 0.000000 0.000000 0.000000 0.056849 0.000000
# 6 0.000000 0.000000 0.000000 0.000000 0.000000 0.038562
#
#
# Mechanical properties :
#
#
# Convention : Reuss Voigt Hill
#
# Bulk Modulus (GPa) = 52.39766 56.12248 54.26007
# Shear Modulus (GPa) = 19.83524 20.74319 20.28921
#
# Velocity S-wave (km/s) = 3.34924 3.42504 3.38735
# Velocity P-wave (km/s) = 6.67750 6.88332 6.78119
#
# Compressibility (1/GPa) = 0.01908482
#
# Stress axis : x y z
#
# Youngs Moduli (GPa) = 41.50195 62.57028 59.60209
#
# Poissons Ratio (x) = 0.57364 0.28331
# Poissons Ratio (y) = 0.38049 0.29587
# Poissons Ratio (z) = 0.19727 0.31060
#
# Static dielectric constant tensor:
#      x y z
#    x 3.247540 0.000000 0.000000 
#    y 0.000000 3.424000 0.000000 
#    z 0.000000 0.000000 3.177470 
# 
# 
# High freq. dielectric constant tensor:
#      x y z
#    x 1.670150 0.000000 0.000000 
#    y 0.000000 1.687340 0.000000 
#    z 0.000000 0.000000 1.662210 
# 
# From -- ./inp_files/52060.got.cif
#   From: 2010.03.12/outbox.cif.g09.slc.cpg/sg66_27_cif.got.tgz:52060.got - 2010.04.10 21:57:39.
