data_PCOD8275337
_publ_section_title
;
Structure prediction by ZEFSAII (Michael W. Deem and Ramdas Pophale) SiO2 
 PCOD8275337
Probable space group: C C C M
;
_chemical_formula_sum "Si O2"
_cell_formula_units_Z 80
_cell_length_a 27.238885
_cell_length_b 8.166080
_cell_length_c 18.121089
_cell_angle_alpha 90.000000
_cell_angle_beta 90.000000
_cell_angle_gamma 90.000000
_cell_volume 4030.762874
_symmetry_space_group_name_H-M "C C C M"
_symmetry_group_IT_number 66
_symmetry_cell_setting 'orthorhombic'
loop_
_space_group_symop_operation_xyz
x,y,z
-x,-y,z
x,-y,1/2-z
-x,y,1/2-z
-x,-y,-z
x,y,-z
-x,y,1/2+z
x,-y,1/2+z
1/2+x,1/2+y,z
1/2-x,1/2-y,z
1/2+x,1/2-y,1/2-z
1/2-x,1/2+y,1/2-z
1/2-x,1/2-y,-z
1/2+x,1/2+y,-z
1/2-x,1/2+y,1/2+z
1/2+x,1/2-y,1/2+z
loop_
_atom_site_type_symbol
_atom_site_label
_atom_site_fract_x
_atom_site_fract_y
_atom_site_fract_z
Si Si1 0.353265 0.827535 0.719752
Si Si2 0.446625 0.309389 0.730083
Si Si3 0.445055 0.431775 0.418677
Si Si4 0.845844 0.874718 0.915418
Si Si5 0.287305 0.389999 0.314390
O O1 0.411813 0.813309 0.725491
O O2 0.338109 0.789453 0.634629
O O3 0.333955 0.686186 0.773339
O O4 0.333714 0.000000 0.750000
O O5 0.438649 0.500000 0.750000
O O6 0.500000 0.246348 0.750000
O O7 0.436784 0.291071 0.641982
O O8 0.500000 0.500000 0.404913
O O9 0.441237 0.352906 0.500000
O O10 0.402772 0.570017 0.409868
O O11 0.807665 0.011367 0.884980
O O12 0.831598 0.835003 0.000000
O O13 0.260856 0.500000 0.250000
O O14 0.250000 0.250000 0.342400
#
# Coordination Sequence:
#
# PCOD8275337 Si02
#       5
#    16  16  16  16  16
#     4  11  21  35  54  80 114 152 190 230 283 345
#     4  11  17  31  52  77 108 144 195 244 277 339
#     4  10  17  28  51  80 108 144 187 235 288 336
#     4  10  20  36  57  84 116 148 189 244 292 339
#     4  10  20  37  61  84 111 146 194 236 283 342
#
# _framework density 19.847359000000001
#
# number of rings (size 3 to 8) (size 9 to 14) (size 15 to 20)
#    0.000    1.600    6.000    1.200    0.000    0.800 
#    0.000    2.000    0.000   20.400    0.000    7.000 
#    0.000    0.000    0.000    0.000    0.000    0.000 
#
# Total GULP energy -495652.341367 kJ/mol
# GULP energy per Si atom -12391.308534 kJ/mol
# Density = 1.980219 g / cm^3
# Si number density = 19.847359 Si / 1000 Ang^3
#
#
#
# Elastic Constant Matrix: (Units=GPa)
#
#
# Indices 1 2 3 4 5 6 
#
# 1 77.9504 27.7145 29.4653 0.0000 0.0000 0.0000
# 2 27.7145 80.6236 52.4308 0.0000 0.0000 0.0000
# 3 29.4653 52.4308 180.7004 0.0000 0.0000 0.0000
# 4 0.0000 0.0000 0.0000 24.1188 0.0000 0.0000
# 5 0.0000 0.0000 0.0000 0.0000 17.3439 0.0000
# 6 0.0000 0.0000 0.0000 0.0000 0.0000 17.6951
#
#
#
# Elastic Compliance Matrix: (Units=1/GPa)
#
#
# Indices 1 2 3 4 5 6 
#
# 1 0.014808 -0.004339 -0.001156 0.000000 0.000000 0.000000
# 2 -0.004339 0.016559 -0.004097 0.000000 0.000000 0.000000
# 3 -0.001156 -0.004097 0.006911 0.000000 0.000000 0.000000
# 4 0.000000 0.000000 0.000000 0.041461 0.000000 0.000000
# 5 0.000000 0.000000 0.000000 0.000000 0.057657 0.000000
# 6 0.000000 0.000000 0.000000 0.000000 0.000000 0.056513
#
#
# Mechanical properties :
#
#
# Convention : Reuss Voigt Hill
#
# Bulk Modulus (GPa) = 52.36898 62.05509 57.21203
# Shear Modulus (GPa) = 22.78333 27.14247 24.96290
#
# Velocity S-wave (km/s) = 3.39178 3.70207 3.55032
# Velocity P-wave (km/s) = 6.46391 7.04328 6.75980
#
# Compressibility (1/GPa) = 0.01909527
#
# Stress axis : x y z
#
# Youngs Moduli (GPa) = 67.53045 60.38917 144.69039
#
# Poissons Ratio (x) = 0.26201 0.16723
# Poissons Ratio (y) = 0.29300 0.59283
# Poissons Ratio (z) = 0.07805 0.24743
#
# Static dielectric constant tensor:
#      x y z
#    x 3.624830 0.000000 0.000000 
#    y 0.000000 3.229470 0.000000 
#    z 0.000000 0.000000 3.939390 
# 
# 
# High freq. dielectric constant tensor:
#      x y z
#    x 1.789230 0.000000 0.000000 
#    y 0.000000 1.720470 0.000000 
#    z 0.000000 0.000000 1.778260 
# 
# From -- ./inp_files/44125.got.cif
#   From: 2010.03.12/outbox.cif.g09.slc.cpg/sg66_23_cif.got.tgz:44125.got - 2010.04.10 21:57:39.
