data_PCOD8275551
_publ_section_title
;
Structure prediction by ZEFSAII (Michael W. Deem and Ramdas Pophale) SiO2 
 PCOD8275551
Probable space group: C C C M
;
_chemical_formula_sum "Si O2"
_cell_formula_units_Z 80
_cell_length_a 19.556372
_cell_length_b 25.711166
_cell_length_c 8.556227
_cell_angle_alpha 90.000000
_cell_angle_beta 90.000000
_cell_angle_gamma 90.000000
_cell_volume 4302.217477
_symmetry_space_group_name_H-M "C C C M"
_symmetry_group_IT_number 66
_symmetry_cell_setting 'orthorhombic'
loop_
_space_group_symop_operation_xyz
x,y,z
-x,-y,z
x,-y,1/2-z
-x,y,1/2-z
-x,-y,-z
x,y,-z
-x,y,1/2+z
x,-y,1/2+z
1/2+x,1/2+y,z
1/2-x,1/2-y,z
1/2+x,1/2-y,1/2-z
1/2-x,1/2+y,1/2-z
1/2-x,1/2-y,-z
1/2+x,1/2+y,-z
1/2-x,1/2+y,1/2+z
1/2+x,1/2-y,1/2+z
loop_
_atom_site_type_symbol
_atom_site_label
_atom_site_fract_x
_atom_site_fract_y
_atom_site_fract_z
Si Si1 0.179639 0.555287 0.684055
Si Si2 0.825726 0.056547 0.184870
Si Si3 0.425061 0.145200 0.816520
Si Si4 0.076051 0.143397 0.184601
Si Si5 0.923941 0.249444 0.815240
O O1 0.154792 0.500000 0.750000
O O2 0.192340 0.550797 0.500000
O O3 0.249800 0.573214 0.764579
O O4 0.121876 0.596597 0.727693
O O5 0.879319 0.096136 0.256039
O O6 0.844200 0.000000 0.250000
O O7 0.831747 0.056434 0.000000
O O8 0.500000 0.133695 0.750000
O O9 0.389307 0.196672 0.741294
O O10 0.430829 0.153997 0.000000
O O11 0.110554 0.197560 0.243904
O O12 0.000000 0.137285 0.250000
O O13 0.073133 0.143522 0.000000
O O14 0.000000 0.252549 0.750000
O O15 0.922763 0.245266 0.000000
#
# Coordination Sequence:
#
# PCOD8275551 Si02
#       5
#    16  16  16  16  16
#     4  10  21  37  56  78 106 142 180 220 268 319
#     4  11  22  38  58  80 107 141 179 218 266 319
#     4  10  20  34  54  80 109 141 179 221 266 315
#     4  11  21  36  57  82 111 141 177 219 263 312
#     4  10  18  31  52  78 108 141 176 215 264 316
#
# _framework density 18.595061000000001
#
# number of rings (size 3 to 8) (size 9 to 14) (size 15 to 20)
#    0.000    1.600    0.000   10.200    0.000    4.000 
#    0.000    5.000    0.000    6.000    0.000    0.000 
#    0.000    0.000    0.000    0.000    0.000    0.000 
#
# Total GULP energy -495992.914411 kJ/mol
# GULP energy per Si atom -12399.822860 kJ/mol
# Density = 1.855274 g / cm^3
# Si number density = 18.595061 Si / 1000 Ang^3
#
#
#
# Elastic Constant Matrix: (Units=GPa)
#
#
# Indices 1 2 3 4 5 6 
#
# 1 80.8441 84.9440 54.0875 0.0000 0.0000 0.0000
# 2 84.9440 159.3097 83.1651 0.0000 0.0000 0.0000
# 3 54.0875 83.1651 181.5709 0.0000 0.0000 0.0000
# 4 0.0000 0.0000 0.0000 47.5961 0.0000 0.0000
# 5 0.0000 0.0000 0.0000 0.0000 18.9936 0.0000
# 6 0.0000 0.0000 0.0000 0.0000 0.0000 -7.8876
#
#
#
# Elastic Compliance Matrix: (Units=1/GPa)
#
#
# Indices 1 2 3 4 5 6 
#
# 1 0.028682 -0.014237 -0.002023 0.000000 0.000000 0.000000
# 2 -0.014237 0.015317 -0.002774 0.000000 0.000000 0.000000
# 3 -0.002023 -0.002774 0.007381 0.000000 0.000000 0.000000
# 4 0.000000 0.000000 0.000000 0.021010 0.000000 0.000000
# 5 0.000000 0.000000 0.000000 0.000000 0.052649 0.000000
# 6 0.000000 0.000000 0.000000 0.000000 0.000000 -0.126781
#
#
# Mechanical properties :
#
#
# Convention : Reuss Voigt Hill
#
# Bulk Modulus (GPa) = 75.12869 96.23534 85.68202
# Shear Modulus (GPa) = 122.65595 25.04228 73.84911
#
# Velocity S-wave (km/s) = 8.13048 3.67375 6.30877
# Velocity P-wave (km/s) = 11.34151 8.35827 9.96219
#
# Compressibility (1/GPa) = 0.01331049
#
# Stress axis : x y z
#
# Youngs Moduli (GPa) = 34.86471 65.28765 135.48537
#
# Poissons Ratio (x) = 0.92953 0.27407
# Poissons Ratio (y) = 0.49638 0.37590
# Poissons Ratio (z) = 0.07053 0.18114
#
# Static dielectric constant tensor:
#      x y z
#    x 3.209960 0.000000 0.000000 
#    y 0.000000 4.075020 0.000000 
#    z 0.000000 0.000000 3.649640 
# 
# 
# High freq. dielectric constant tensor:
#      x y z
#    x 1.690470 0.000000 0.000000 
#    y 0.000000 1.743260 0.000000 
#    z 0.000000 0.000000 1.747990 
# 
# From -- ./inp_files/6717.got.cif
#   From: 2010.03.12/outbox.cif.g09.slc.cpg/sg66_4_cif.got.tgz:6717.got - 2010.04.10 21:57:39.
