data_PCOD8275862
_publ_section_title
;
Structure prediction by ZEFSAII (Michael W. Deem and Ramdas Pophale) SiO2 
 PCOD8275862
Probable space group: C C C M
;
_chemical_formula_sum "Si O2"
_cell_formula_units_Z 88
_cell_length_a 16.760801
_cell_length_b 21.298009
_cell_length_c 14.249045
_cell_angle_alpha 90.000000
_cell_angle_beta 90.000000
_cell_angle_gamma 90.000000
_cell_volume 5086.505682
_symmetry_space_group_name_H-M "C C C M"
_symmetry_group_IT_number 66
_symmetry_cell_setting 'orthorhombic'
loop_
_space_group_symop_operation_xyz
x,y,z
-x,-y,z
x,-y,1/2-z
-x,y,1/2-z
-x,-y,-z
x,y,-z
-x,y,1/2+z
x,-y,1/2+z
1/2+x,1/2+y,z
1/2-x,1/2-y,z
1/2+x,1/2-y,1/2-z
1/2-x,1/2+y,1/2-z
1/2-x,1/2-y,-z
1/2+x,1/2+y,-z
1/2-x,1/2+y,1/2+z
1/2+x,1/2-y,1/2+z
loop_
_atom_site_type_symbol
_atom_site_label
_atom_site_fract_x
_atom_site_fract_y
_atom_site_fract_z
Si Si1 0.266598 0.366639 0.241942
Si Si2 0.366824 0.168749 0.890646
Si Si3 0.678511 0.797798 0.396655
Si Si4 0.588703 0.274673 0.251264
Si Si5 0.285691 0.000000 0.750000
Si Si6 0.417621 0.969329 0.608926
O O1 0.222264 0.341278 0.149248
O O2 0.211339 0.353895 0.332878
O O3 0.352232 0.333844 0.243270
O O4 0.274827 0.441556 0.241847
O O5 0.405498 0.228561 0.840213
O O6 0.418828 0.105738 0.871276
O O7 0.360302 0.183907 0.000000
O O8 0.650311 0.821550 0.500000
O O9 0.750000 0.750000 0.409021
O O10 0.604939 0.764228 0.344170
O O11 0.500000 0.302729 0.250000
O O12 0.343624 0.997258 0.840047
O O13 0.405368 0.983596 0.500000
O O14 0.500000 0.000000 0.645525
#
# Coordination Sequence:
#
# PCOD8275862 Si02
#       6
#    16  16  16  16   8  16
#     4   9  19  33  49  70  94 124 163 200 234 281
#     4   9  18  33  52  72  96 128 160 191 236 292
#     4   8  15  30  50  69  90 116 147 187 235 283
#     4  10  20  32  47  71  99 124 158 202 241 279
#     4  10  19  32  49  66  92 130 164 194 233 276
#     4   9  18  31  48  74 102 124 152 190 235 291
#
# _framework density 17.300678999999999
#
# number of rings (size 3 to 8) (size 9 to 14) (size 15 to 20)
#    0.000    2.909    0.000    1.909    0.000    7.273 
#    0.000    2.273    0.000    0.000    0.000    0.000 
#    0.000   13.091    0.000    0.000    0.000    0.000 
#
# Total GULP energy -545389.607872 kJ/mol
# GULP energy per Si atom -12395.218361 kJ/mol
# Density = 1.726130 g / cm^3
# Si number density = 17.300679 Si / 1000 Ang^3
#
#
#
# Elastic Constant Matrix: (Units=GPa)
#
#
# Indices 1 2 3 4 5 6 
#
# 1 119.9170 63.5344 39.7835 0.0000 0.0000 0.0000
# 2 63.5344 101.2206 37.6861 0.0000 0.0000 0.0000
# 3 39.7835 37.6861 116.8599 0.0000 0.0000 0.0000
# 4 0.0000 0.0000 0.0000 23.7577 0.0000 0.0000
# 5 0.0000 0.0000 0.0000 0.0000 15.2945 0.0000
# 6 0.0000 0.0000 0.0000 0.0000 0.0000 24.3311
#
#
#
# Elastic Compliance Matrix: (Units=1/GPa)
#
#
# Indices 1 2 3 4 5 6 
#
# 1 0.012902 -0.007345 -0.002024 0.000000 0.000000 0.000000
# 2 -0.007345 0.015409 -0.002469 0.000000 0.000000 0.000000
# 3 -0.002024 -0.002469 0.010042 0.000000 0.000000 0.000000
# 4 0.000000 0.000000 0.000000 0.042092 0.000000 0.000000
# 5 0.000000 0.000000 0.000000 0.000000 0.065383 0.000000
# 6 0.000000 0.000000 0.000000 0.000000 0.000000 0.041100
#
#
# Mechanical properties :
#
#
# Convention : Reuss Voigt Hill
#
# Bulk Modulus (GPa) = 68.12650 68.88949 68.50799
# Shear Modulus (GPa) = 23.20242 25.80956 24.50599
#
# Velocity S-wave (km/s) = 3.66611 3.86660 3.76769
# Velocity P-wave (km/s) = 7.57522 7.73560 7.65583
#
# Compressibility (1/GPa) = 0.01467858
#
# Stress axis : x y z
#
# Youngs Moduli (GPa) = 77.50782 64.89798 99.57868
#
# Poissons Ratio (x) = 0.47667 0.20151
# Poissons Ratio (y) = 0.56929 0.24583
# Poissons Ratio (z) = 0.15685 0.16021
#
# Static dielectric constant tensor:
#      x y z
#    x 2.955910 0.000000 0.000000 
#    y 0.000000 3.151720 0.000000 
#    z 0.000000 0.000000 3.611230 
# 
# 
# High freq. dielectric constant tensor:
#      x y z
#    x 1.640980 0.000000 0.000000 
#    y 0.000000 1.657450 0.000000 
#    z 0.000000 0.000000 1.678980 
# 
# From -- ./inp_files/28237.got.cif
#   From: 2010.03.12/outbox.cif.g09.slc.cpg/sg66_15_cif.got.tgz:28237.got - 2010.04.10 21:57:39.
