data_PCOD8275210
_publ_section_title
;
Structure prediction by ZEFSAII (Michael W. Deem and Ramdas Pophale) SiO2 
 PCOD8275210
Probable space group: C M M M
;
_chemical_formula_sum "Si O2"
_cell_formula_units_Z 44
_cell_length_a 18.000000
_cell_length_b 9.000000
_cell_length_c 30.000000
_cell_angle_alpha 90.000000
_cell_angle_beta 90.000000
_cell_angle_gamma 90.000000
_cell_volume 4860.000000
_symmetry_space_group_name_H-M "C M M M"
_symmetry_group_IT_number 65
_symmetry_cell_setting 'orthorhombic'
loop_
_space_group_symop_operation_xyz
x,y,z
-x,-y,z
x,-y,-z
-x,y,-z
-x,-y,-z
x,y,-z
-x,y,z
x,-y,z
1/2+x,1/2+y,z
1/2-x,1/2-y,z
1/2+x,1/2-y,-z
1/2-x,1/2+y,-z
1/2-x,1/2-y,-z
1/2+x,1/2+y,-z
1/2-x,1/2+y,z
1/2+x,1/2-y,z
loop_
_atom_site_type_symbol
_atom_site_label
_atom_site_fract_x
_atom_site_fract_y
_atom_site_fract_z
Si Si1 0.828876 0.174802 0.869729
Si Si2 0.088378 0.830962 0.500000
Si Si3 0.912217 0.669744 0.050140
Si Si4 0.671070 0.674930 0.231107
Si Si5 0.087708 0.670759 0.688401
Si Si6 0.088216 0.668355 0.411192
O O1 0.750000 0.250000 0.876524
O O2 0.881439 0.231192 0.909455
O O3 0.859482 0.211485 0.819321
O O4 0.819485 0.000000 0.875372
O O5 0.120336 0.759300 0.453852
O O6 0.000000 0.815265 0.500000
O O7 0.114840 0.000000 0.500000
O O8 0.886871 0.500000 0.057827
O O9 0.000000 0.683362 0.052327
O O10 0.885772 0.720887 0.000000
O O11 0.680008 0.500000 0.236965
O O12 0.750000 0.750000 0.237713
O O13 0.618782 0.732754 0.270749
O O14 0.112221 0.500000 0.695017
O O15 0.114512 0.725191 0.638448
O O16 0.000000 0.686256 0.690868
O O17 0.115455 0.500000 0.417534
O O18 0.000000 0.676783 0.412108
#
# Coordination Sequence:
#
# PCOD8275210 Si02
#       6
#    16   8  16  16  16  16
#     4  10  21  36  54  76 101 131 168 208 249 293
#     4   9  15  21  33  57  88 121 156 195 240 285
#     4   9  19  36  56  78 105 136 168 202 243 292
#     4  10  21  36  53  73  99 131 167 207 249 295
#     4   9  18  32  50  73 100 130 165 204 247 296
#     4   8  14  25  40  59  87 123 159 194 235 286
#
# _framework density 9.0534979999999994
#
# number of rings (size 3 to 8) (size 9 to 14) (size 15 to 20)
#    0.000    2.818    0.000    3.000    0.000    6.182 
#    0.000    6.364    0.000    0.000    0.000    0.636 
#    0.000    0.000    0.000    0.000    0.000    0.000 
#
# Total GULP energy -545094.769267 kJ/mol
# GULP energy per Si atom -12388.517483 kJ/mol
# Density = 0.903289 g / cm^3
# Si number density = 9.053498 Si / 1000 Ang^3
#
#
#
# Elastic Constant Matrix: (Units=GPa)
#
#
# Indices 1 2 3 4 5 6 
#
# 1 26.5702 24.4175 38.4524 0.0000 0.0000 0.0000
# 2 24.4175 102.9526 81.6010 0.0000 0.0000 0.0000
# 3 38.4524 81.6010 212.8694 0.0000 0.0000 0.0000
# 4 0.0000 0.0000 0.0000 42.5421 0.0000 0.0000
# 5 0.0000 0.0000 0.0000 0.0000 20.6088 0.0000
# 6 0.0000 0.0000 0.0000 0.0000 0.0000 25.6132
#
#
#
# Elastic Compliance Matrix: (Units=1/GPa)
#
#
# Indices 1 2 3 4 5 6 
#
# 1 0.054592 -0.007371 -0.007036 0.000000 0.000000 0.000000
# 2 -0.007371 0.014948 -0.004399 0.000000 0.000000 0.000000
# 3 -0.007036 -0.004399 0.007655 0.000000 0.000000 0.000000
# 4 0.000000 0.000000 0.000000 0.023506 0.000000 0.000000
# 5 0.000000 0.000000 0.000000 0.000000 0.048523 0.000000
# 6 0.000000 0.000000 0.000000 0.000000 0.000000 0.039042
#
#
# Mechanical properties :
#
#
# Convention : Reuss Voigt Hill
#
# Bulk Modulus (GPa) = 25.26285 70.14823 47.70554
# Shear Modulus (GPa) = 20.91422 30.94757 25.93089
#
# Velocity S-wave (km/s) = 3.40227 4.13867 3.78841
# Velocity P-wave (km/s) = 5.42367 7.85259 6.74831
#
# Compressibility (1/GPa) = 0.03958381
#
# Stress axis : x y z
#
# Youngs Moduli (GPa) = 18.31762 66.89979 130.63720
#
# Poissons Ratio (x) = 0.49312 0.91914
# Poissons Ratio (y) = 0.13502 0.57461
# Poissons Ratio (z) = 0.12888 0.29426
#
# Static dielectric constant tensor:
#      x y z
#    x 2.897210 0.000000 0.000000 
#    y 0.000000 3.438970 0.000000 
#    z 0.000000 0.000000 4.147620 
# 
# 
# High freq. dielectric constant tensor:
#      x y z
#    x 1.655130 0.000000 0.000000 
#    y 0.000000 1.703230 0.000000 
#    z 0.000000 0.000000 1.748370 
# 
# From -- ./inp_files/67458.got.cif
#   From: 2010.03.12/outbox.ucp.g09.slc.cvg/sg65_34_cif.got.tgz:67458.got - 2010.05.04 19:44:54.
