data_PCOD8275711
_publ_section_title
;
Structure prediction by ZEFSAII (Michael W. Deem and Ramdas Pophale) SiO2 
 PCOD8275711
Probable space group: C C C M
;
_chemical_formula_sum "Si O2"
_cell_formula_units_Z 96
_cell_length_a 30.767397
_cell_length_b 27.634426
_cell_length_c 9.018493
_cell_angle_alpha 90.000000
_cell_angle_beta 90.000000
_cell_angle_gamma 90.000000
_cell_volume 7667.877677
_symmetry_space_group_name_H-M "C C C M"
_symmetry_group_IT_number 66
_symmetry_cell_setting 'orthorhombic'
loop_
_space_group_symop_operation_xyz
x,y,z
-x,-y,z
x,-y,1/2-z
-x,y,1/2-z
-x,-y,-z
x,y,-z
-x,y,1/2+z
x,-y,1/2+z
1/2+x,1/2+y,z
1/2-x,1/2-y,z
1/2+x,1/2-y,1/2-z
1/2-x,1/2+y,1/2-z
1/2-x,1/2-y,-z
1/2+x,1/2+y,-z
1/2-x,1/2+y,1/2+z
1/2+x,1/2-y,1/2+z
loop_
_atom_site_type_symbol
_atom_site_label
_atom_site_fract_x
_atom_site_fract_y
_atom_site_fract_z
Si Si1 0.704082 0.276941 0.834142
Si Si2 0.543737 0.049847 0.172812
Si Si3 0.130009 0.606354 0.827828
Si Si4 0.743452 0.358155 0.336253
Si Si5 0.206292 0.449638 0.823720
Si Si6 0.335348 0.805643 0.334244
O O1 0.750000 0.250000 0.830224
O O2 0.709514 0.331427 0.771432
O O3 0.668626 0.247383 0.739083
O O4 0.686122 0.281130 0.000000
O O5 0.500000 0.069732 0.250000
O O6 0.580744 0.089704 0.195503
O O7 0.558408 0.000000 0.250000
O O8 0.535075 0.039875 0.000000
O O9 0.160983 0.569071 0.742243
O O10 0.133090 0.660474 0.762546
O O11 0.143603 0.606932 0.000000
O O12 0.722678 0.358556 0.500000
O O13 0.754450 0.412663 0.283546
O O14 0.788346 0.329454 0.340093
O O15 0.219329 0.500000 0.750000
O O16 0.200555 0.454717 0.000000
O O17 0.354382 0.800081 0.500000
#
# Coordination Sequence:
#
# PCOD8275711 Si02
#       6
#    16  16  16  16  16  16
#     4   9  15  22  34  50  66  84 105 129 156 188
#     4  10  20  31  43  55  67  84 106 134 166 203
#     4  10  19  29  40  54  69  84 105 134 167 203
#     4   8  15  25  34  46  64  85 108 131 158 192
#     4  10  19  28  38  51  67  88 111 137 168 201
#     4   9  16  25  37  51  67  86 104 126 158 195
#
# _framework density 12.519761000000001
#
# number of rings (size 3 to 8) (size 9 to 14) (size 15 to 20)
#    0.000    2.667    0.000    4.500    0.000   10.667 
#    0.000    0.000    0.000    0.000    0.000    0.000 
#    0.000    0.000    0.000    0.000    0.000    0.000 
#
# Total GULP energy -595029.598535 kJ/mol
# GULP energy per Si atom -12396.449969 kJ/mol
# Density = 1.249127 g / cm^3
# Si number density = 12.519761 Si / 1000 Ang^3
#
#
#
# Elastic Constant Matrix: (Units=GPa)
#
#
# Indices 1 2 3 4 5 6 
#
# 1 31.6601 37.8578 31.1650 0.0000 0.0000 0.0000
# 2 37.8578 87.8291 55.2924 0.0000 0.0000 0.0000
# 3 31.1650 55.2924 106.4227 0.0000 0.0000 0.0000
# 4 0.0000 0.0000 0.0000 23.8275 0.0000 0.0000
# 5 0.0000 0.0000 0.0000 0.0000 13.5212 0.0000
# 6 0.0000 0.0000 0.0000 0.0000 0.0000 16.6773
#
#
#
# Elastic Compliance Matrix: (Units=1/GPa)
#
#
# Indices 1 2 3 4 5 6 
#
# 1 0.068534 -0.025124 -0.007016 0.000000 0.000000 0.000000
# 2 -0.025124 0.026130 -0.006219 0.000000 0.000000 0.000000
# 3 -0.007016 -0.006219 0.014682 0.000000 0.000000 0.000000
# 4 0.000000 0.000000 0.000000 0.041968 0.000000 0.000000
# 5 0.000000 0.000000 0.000000 0.000000 0.073958 0.000000
# 6 0.000000 0.000000 0.000000 0.000000 0.000000 0.059962
#
#
# Mechanical properties :
#
#
# Convention : Reuss Voigt Hill
#
# Bulk Modulus (GPa) = 30.64810 52.72691 41.68751
# Shear Modulus (GPa) = 13.41101 17.57831 15.49466
#
# Velocity S-wave (km/s) = 3.27645 3.75112 3.52179
# Velocity P-wave (km/s) = 6.23269 7.80818 7.06449
#
# Compressibility (1/GPa) = 0.03262845
#
# Stress axis : x y z
#
# Youngs Moduli (GPa) = 14.59131 38.27019 68.10981
#
# Poissons Ratio (x) = 0.96149 0.47789
# Poissons Ratio (y) = 0.36659 0.42356
# Poissons Ratio (z) = 0.10238 0.23799
#
# Static dielectric constant tensor:
#      x y z
#    x 2.182430 0.000000 0.000000 
#    y 0.000000 2.641810 0.000000 
#    z 0.000000 0.000000 2.801340 
# 
# 
# High freq. dielectric constant tensor:
#      x y z
#    x 1.413370 0.000000 0.000000 
#    y 0.000000 1.465050 0.000000 
#    z 0.000000 0.000000 1.498030 
# 
# From -- ./inp_files/10643.got.cif
#   From: 2010.03.12/outbox.cif.g09.slc.cpg/sg66_6_cif.got.tgz:10643.got - 2010.04.10 21:57:39.
