data_PCOD8275827
_publ_section_title
;
Structure prediction by ZEFSAII (Michael W. Deem and Ramdas Pophale) SiO2 
 PCOD8275827
Probable space group: C C C M
;
_chemical_formula_sum "Si O2"
_cell_formula_units_Z 100
_cell_length_a 13.903941
_cell_length_b 27.744074
_cell_length_c 14.377952
_cell_angle_alpha 90.000000
_cell_angle_beta 90.000000
_cell_angle_gamma 90.000000
_cell_volume 5546.323280
_symmetry_space_group_name_H-M "C C C M"
_symmetry_group_IT_number 66
_symmetry_cell_setting 'orthorhombic'
loop_
_space_group_symop_operation_xyz
x,y,z
-x,-y,z
x,-y,1/2-z
-x,y,1/2-z
-x,-y,-z
x,y,-z
-x,y,1/2+z
x,-y,1/2+z
1/2+x,1/2+y,z
1/2-x,1/2-y,z
1/2+x,1/2-y,1/2-z
1/2-x,1/2+y,1/2-z
1/2-x,1/2-y,-z
1/2+x,1/2+y,-z
1/2-x,1/2+y,1/2+z
1/2+x,1/2-y,1/2+z
loop_
_atom_site_type_symbol
_atom_site_label
_atom_site_fract_x
_atom_site_fract_y
_atom_site_fract_z
Si Si1 0.746560 0.306886 0.604761
Si Si2 0.740043 0.855196 0.606025
Si Si3 0.891387 0.734034 0.602018
Si Si4 0.570741 0.926405 0.604921
Si Si5 0.500000 0.000000 0.750000
Si Si6 0.606385 0.675600 0.734051
Si Si7 0.043780 0.338405 0.148704
O O1 0.733336 0.326716 0.500000
O O2 0.750000 0.250000 0.604374
O O3 0.655590 0.322347 0.665469
O O4 0.842715 0.329442 0.649211
O O5 0.770178 0.862262 0.500000
O O6 0.697802 0.801531 0.624289
O O7 0.662841 0.895150 0.634632
O O8 0.834696 0.861269 0.668899
O O9 0.875607 0.758602 0.500000
O O10 0.899658 0.772316 0.684335
O O11 0.989603 0.703215 0.590954
O O12 0.580374 0.947685 0.500000
O O13 0.477415 0.891451 0.606719
O O14 0.565920 0.968227 0.681628
O O15 0.500000 0.654903 0.750000
O O16 0.000000 0.335848 0.250000
#
# Coordination Sequence:
#
# PCOD8275827 Si02
#       7
#    16  16  16  16   4  16  16
#     4  11  22  33  46  69 103 143 186 228 265 302
#     4   9  19  36  55  74 102 142 184 224 268 321
#     4  10  19  31  50  75 101 138 189 233 269 315
#     4  10  21  37  58  86 114 141 169 204 266 337
#     4  12  22  36  60  94 114 136 150 220 268 342
#     4  12  23  32  46  71 102 144 192 235 265 297
#     4  11  19  34  55  76 109 149 179 212 266 328
#
# _framework density 18.029962000000001
#
# number of rings (size 3 to 8) (size 9 to 14) (size 15 to 20)
#    0.000    1.440    0.800    8.880    0.000    3.840 
#    0.000    0.000    0.000    0.000    0.000    0.560 
#    0.000    2.560    0.000    0.000    0.000    0.000 
#
# Total GULP energy -619975.347984 kJ/mol
# GULP energy per Si atom -12399.506960 kJ/mol
# Density = 1.798892 g / cm^3
# Si number density = 18.029962 Si / 1000 Ang^3
#
#
#
# Elastic Constant Matrix: (Units=GPa)
#
#
# Indices 1 2 3 4 5 6 
#
# 1 129.6700 25.5728 56.9861 0.0000 0.0000 0.0000
# 2 25.5728 63.7317 37.6540 0.0000 0.0000 0.0000
# 3 56.9861 37.6540 130.2014 0.0000 0.0000 0.0000
# 4 0.0000 0.0000 0.0000 19.3566 0.0000 0.0000
# 5 0.0000 0.0000 0.0000 0.0000 28.6921 0.0000
# 6 0.0000 0.0000 0.0000 0.0000 0.0000 11.5412
#
#
#
# Elastic Compliance Matrix: (Units=1/GPa)
#
#
# Indices 1 2 3 4 5 6 
#
# 1 0.009693 -0.001668 -0.003760 0.000000 0.000000 0.000000
# 2 -0.001668 0.019211 -0.004826 0.000000 0.000000 0.000000
# 3 -0.003760 -0.004826 0.010722 0.000000 0.000000 0.000000
# 4 0.000000 0.000000 0.000000 0.051662 0.000000 0.000000
# 5 0.000000 0.000000 0.000000 0.000000 0.034853 0.000000
# 6 0.000000 0.000000 0.000000 0.000000 0.000000 0.086646
#
#
# Mechanical properties :
#
#
# Convention : Reuss Voigt Hill
#
# Bulk Modulus (GPa) = 52.30548 62.66988 57.48768
# Shear Modulus (GPa) = 20.86220 25.47731 23.16976
#
# Velocity S-wave (km/s) = 3.40529 3.76314 3.58868
# Velocity P-wave (km/s) = 6.67342 7.32911 7.00894
#
# Compressibility (1/GPa) = 0.01911846
#
# Stress axis : x y z
#
# Youngs Moduli (GPa) = 103.16391 52.05281 93.26813
#
# Poissons Ratio (x) = 0.08682 0.35070
# Poissons Ratio (y) = 0.17207 0.45010
# Poissons Ratio (z) = 0.38791 0.25120
#
# Static dielectric constant tensor:
#      x y z
#    x 3.424490 0.000000 0.000000 
#    y 0.000000 2.962910 0.000000 
#    z 0.000000 0.000000 3.692850 
# 
# 
# High freq. dielectric constant tensor:
#      x y z
#    x 1.688950 0.000000 0.000000 
#    y 0.000000 1.636250 0.000000 
#    z 0.000000 0.000000 1.728230 
# 
# From -- ./inp_files/28832.got.cif
#   From: 2010.03.12/outbox.cif.g09.slc.cpg/sg66_15_cif.got.tgz:28832.got - 2010.04.10 21:57:39.
