data_PCOD8275253
_publ_section_title
;
Structure prediction by ZEFSAII (Michael W. Deem and Ramdas Pophale) SiO2 
 PCOD8275253
Probable space group: C C C M
;
_chemical_formula_sum "Si O2"
_cell_formula_units_Z 76
_cell_length_a 15.416205
_cell_length_b 18.960143
_cell_length_c 15.100374
_cell_angle_alpha 90.000000
_cell_angle_beta 90.000000
_cell_angle_gamma 90.000000
_cell_volume 4413.740433
_symmetry_space_group_name_H-M "C C C M"
_symmetry_group_IT_number 66
_symmetry_cell_setting 'orthorhombic'
loop_
_space_group_symop_operation_xyz
x,y,z
-x,-y,z
x,-y,1/2-z
-x,y,1/2-z
-x,-y,-z
x,y,-z
-x,y,1/2+z
x,-y,1/2+z
1/2+x,1/2+y,z
1/2-x,1/2-y,z
1/2+x,1/2-y,1/2-z
1/2-x,1/2+y,1/2-z
1/2-x,1/2-y,-z
1/2+x,1/2+y,-z
1/2-x,1/2+y,1/2+z
1/2+x,1/2-y,1/2+z
loop_
_atom_site_type_symbol
_atom_site_label
_atom_site_fract_x
_atom_site_fract_y
_atom_site_fract_z
Si Si1 0.617089 0.376951 0.313938
Si Si2 0.000000 0.246672 0.250000
Si Si3 0.910503 0.906720 0.000000
Si Si4 0.618695 0.790384 0.601875
Si Si5 0.000000 0.000000 0.750000
Si Si6 0.789612 0.143727 0.143900
Si Si7 0.895787 0.070856 0.000000
O O1 0.570124 0.303747 0.294301
O O2 0.642837 0.374749 0.416881
O O3 0.557419 0.447405 0.309423
O O4 0.698578 0.379041 0.246909
O O5 0.039895 0.296187 0.327752
O O6 0.013484 0.884402 0.000000
O O7 0.912605 0.989547 0.000000
O O8 0.585991 0.796153 0.500000
O O9 0.687507 0.853120 0.621812
O O10 0.666389 0.716927 0.617652
O O11 0.839510 0.085557 0.087316
#
# Coordination Sequence:
#
# PCOD8275253 Si02
#       7
#    16   8   8  16   4  16   8
#     4  10  19  28  41  63  98 133 155 184 220 275
#     4   9  20  29  48  68  92 115 162 191 236 268
#     4  11  20  26  40  63 101 131 159 176 219 271
#     4  10  17  31  50  68  86 119 155 204 232 274
#     4  10  16  30  40  64  96 132 156 188 216 258
#     4  10  18  29  46  65  92 123 163 193 228 260
#     4  11  18  27  44  68  89 132 163 185 213 271
#
# _framework density 17.218955999999999
#
# number of rings (size 3 to 8) (size 9 to 14) (size 15 to 20)
#    0.000    1.895    2.105    6.947    1.474    0.000 
#    0.000    0.000    2.316    2.526    0.000    0.000 
#    0.000    9.263    0.000    0.000    0.000    0.000 
#
# Total GULP energy -470867.276133 kJ/mol
# GULP energy per Si atom -12391.244109 kJ/mol
# Density = 1.717976 g / cm^3
# Si number density = 17.218956 Si / 1000 Ang^3
#
#
#
# Elastic Constant Matrix: (Units=GPa)
#
#
# Indices 1 2 3 4 5 6 
#
# 1 59.5807 21.0994 51.6638 0.0000 0.0000 0.0000
# 2 21.0994 29.3169 25.5012 0.0000 0.0000 0.0000
# 3 51.6638 25.5012 191.0915 0.0000 0.0000 0.0000
# 4 0.0000 0.0000 0.0000 8.3479 0.0000 0.0000
# 5 0.0000 0.0000 0.0000 0.0000 22.0350 0.0000
# 6 0.0000 0.0000 0.0000 0.0000 0.0000 15.5893
#
#
#
# Elastic Compliance Matrix: (Units=1/GPa)
#
#
# Indices 1 2 3 4 5 6 
#
# 1 0.026437 -0.014492 -0.005214 0.000000 0.000000 0.000000
# 2 -0.014492 0.046533 -0.002292 0.000000 0.000000 0.000000
# 3 -0.005214 -0.002292 0.006948 0.000000 0.000000 0.000000
# 4 0.000000 0.000000 0.000000 0.119790 0.000000 0.000000
# 5 0.000000 0.000000 0.000000 0.000000 0.045382 0.000000
# 6 0.000000 0.000000 0.000000 0.000000 0.000000 0.064147
#
#
# Mechanical properties :
#
#
# Convention : Reuss Voigt Hill
#
# Bulk Modulus (GPa) = 27.83628 52.94646 40.39137
# Shear Modulus (GPa) = 13.69088 21.30942 17.50015
#
# Velocity S-wave (km/s) = 2.82282 3.52171 3.19145
# Velocity P-wave (km/s) = 5.17934 6.88130 6.09007
#
# Compressibility (1/GPa) = 0.03592435
#
# Stress axis : x y z
#
# Youngs Moduli (GPa) = 37.82627 21.49004 143.91597
#
# Poissons Ratio (x) = 0.31142 0.75031
# Poissons Ratio (y) = 0.54816 0.32984
# Poissons Ratio (z) = 0.19721 0.04925
#
# Static dielectric constant tensor:
#      x y z
#    x 3.240350 0.000000 0.000000 
#    y 0.000000 2.962510 0.000000 
#    z 0.000000 0.000000 3.649120 
# 
# 
# High freq. dielectric constant tensor:
#      x y z
#    x 1.615490 0.000000 0.000000 
#    y 0.000000 1.623220 0.000000 
#    z 0.000000 0.000000 1.688430 
# 
# From -- ./inp_files/28170.got.cif
#   From: 2010.03.12/outbox.cif.g09.slc.cpg/sg66_15_cif.got.tgz:28170.got - 2010.04.10 21:57:39.
