data_PCOD8275655
_publ_section_title
;
Structure prediction by ZEFSAII (Michael W. Deem and Ramdas Pophale) SiO2 
 PCOD8275655
Probable space group: C C C M
;
_chemical_formula_sum "Si O2"
_cell_formula_units_Z 104
_cell_length_a 21.527864
_cell_length_b 17.001529
_cell_length_c 13.244682
_cell_angle_alpha 90.000000
_cell_angle_beta 90.000000
_cell_angle_gamma 90.000000
_cell_volume 4847.641081
_symmetry_space_group_name_H-M "C C C M"
_symmetry_group_IT_number 66
_symmetry_cell_setting 'orthorhombic'
loop_
_space_group_symop_operation_xyz
x,y,z
-x,-y,z
x,-y,1/2-z
-x,y,1/2-z
-x,-y,-z
x,y,-z
-x,y,1/2+z
x,-y,1/2+z
1/2+x,1/2+y,z
1/2-x,1/2-y,z
1/2+x,1/2-y,1/2-z
1/2-x,1/2+y,1/2-z
1/2-x,1/2-y,-z
1/2+x,1/2+y,-z
1/2-x,1/2+y,1/2+z
1/2+x,1/2-y,1/2+z
loop_
_atom_site_type_symbol
_atom_site_label
_atom_site_fract_x
_atom_site_fract_y
_atom_site_fract_z
Si Si1 0.437565 0.841484 0.115427
Si Si2 0.163867 0.453387 0.382344
Si Si3 0.064404 0.718178 0.384131
Si Si4 0.810056 0.373405 0.617965
Si Si5 0.897368 0.162757 0.118423
Si Si6 0.263567 0.662379 0.195615
Si Si7 0.500000 0.660027 0.250000
O O1 0.395218 0.908096 0.169761
O O2 0.510834 0.846988 0.142784
O O3 0.413139 0.754153 0.140172
O O4 0.426155 0.859328 0.000000
O O5 0.153124 0.469312 0.500000
O O6 0.173569 0.540478 0.335983
O O7 0.223808 0.399099 0.368360
O O8 0.056579 0.744231 0.500000
O O9 0.131546 0.682948 0.362129
O O10 0.051760 0.792362 0.314405
O O11 0.790644 0.374015 0.500000
O O12 0.752357 0.341931 0.684405
O O13 0.834519 0.139341 0.175001
O O14 0.955079 0.113615 0.170724
O O15 0.893277 0.142945 0.000000
O O16 0.250000 0.750000 0.154251
#
# Coordination Sequence:
#
# PCOD8275655 Si02
#       7
#    16  16  16  16  16  16   8
#     4   8  15  29  51  78 104 142 190 237 280 322
#     4  10  20  35  55  80 114 148 192 246 291 338
#     4   9  18  32  50  73 110 154 195 233 275 331
#     4  10  23  39  52  76 116 159 195 234 286 348
#     4  10  20  34  55  84 114 142 186 242 291 335
#     4  12  22  35  56  81 110 152 199 244 285 334
#     4  10  18  34  56  83 111 144 186 236 290 346
#
# _framework density 21.453733
#
# number of rings (size 3 to 8) (size 9 to 14) (size 15 to 20)
#    0.000    2.154    1.538    3.231    2.154    1.538 
#    0.000    4.615    0.000    0.000    0.000    2.154 
#    0.000    7.385    0.000    0.000    0.000    0.000 
#
# Total GULP energy -644220.519476 kJ/mol
# GULP energy per Si atom -12388.856144 kJ/mol
# Density = 2.140490 g / cm^3
# Si number density = 21.453733 Si / 1000 Ang^3
#
#
#
# Elastic Constant Matrix: (Units=GPa)
#
#
# Indices 1 2 3 4 5 6 
#
# 1 144.4312 -0.7103 52.1613 0.0000 0.0000 0.0000
# 2 -0.7103 16.3678 -2.3683 0.0000 0.0000 0.0000
# 3 52.1613 -2.3683 97.5837 0.0000 0.0000 0.0000
# 4 0.0000 0.0000 0.0000 19.8512 0.0000 0.0000
# 5 0.0000 0.0000 0.0000 0.0000 39.7258 0.0000
# 6 0.0000 0.0000 0.0000 0.0000 0.0000 19.3375
#
#
#
# Elastic Compliance Matrix: (Units=1/GPa)
#
#
# Indices 1 2 3 4 5 6 
#
# 1 0.008581 -0.000292 -0.004594 0.000000 0.000000 0.000000
# 2 -0.000292 0.061321 0.001644 0.000000 0.000000 0.000000
# 3 -0.004594 0.001644 0.012743 0.000000 0.000000 0.000000
# 4 0.000000 0.000000 0.000000 0.050375 0.000000 0.000000
# 5 0.000000 0.000000 0.000000 0.000000 0.025173 0.000000
# 6 0.000000 0.000000 0.000000 0.000000 0.000000 0.051713
#
#
# Mechanical properties :
#
#
# Convention : Reuss Voigt Hill
#
# Bulk Modulus (GPa) = 13.12997 39.61645 26.37321
# Shear Modulus (GPa) = 20.68019 29.73621 25.20820
#
# Velocity S-wave (km/s) = 3.10811 3.72702 3.43155
# Velocity P-wave (km/s) = 4.36049 6.08498 5.29344
#
# Compressibility (1/GPa) = 0.07616166
#
# Stress axis : x y z
#
# Youngs Moduli (GPa) = 116.53053 16.30763 78.47316
#
# Poissons Ratio (x) = 0.00477 0.36052
# Poissons Ratio (y) = 0.03406 -0.12904
# Poissons Ratio (z) = 0.53536 -0.02682
#
# Static dielectric constant tensor:
#      x y z
#    x 3.921400 0.000000 0.000000 
#    y 0.000000 3.445680 0.000000 
#    z 0.000000 0.000000 4.264940 
# 
# 
# High freq. dielectric constant tensor:
#      x y z
#    x 1.844410 0.000000 0.000000 
#    y 0.000000 1.779610 0.000000 
#    z 0.000000 0.000000 1.871940 
# 
# From -- ./inp_files/31363.got.cif
#   From: 2010.03.12/outbox.cif.g09.slc.cpg/sg66_16_cif.got.tgz:31363.got - 2010.04.10 21:57:39.
