data_PCOD8275857
_publ_section_title
;
Structure prediction by ZEFSAII (Michael W. Deem and Ramdas Pophale) SiO2 
 PCOD8275857
Probable space group: C C C M
;
_chemical_formula_sum "Si O2"
_cell_formula_units_Z 88
_cell_length_a 16.742311
_cell_length_b 20.128117
_cell_length_c 15.220953
_cell_angle_alpha 90.000000
_cell_angle_beta 90.000000
_cell_angle_gamma 90.000000
_cell_volume 5129.327135
_symmetry_space_group_name_H-M "C C C M"
_symmetry_group_IT_number 66
_symmetry_cell_setting 'orthorhombic'
loop_
_space_group_symop_operation_xyz
x,y,z
-x,-y,z
x,-y,1/2-z
-x,y,1/2-z
-x,-y,-z
x,y,-z
-x,y,1/2+z
x,-y,1/2+z
1/2+x,1/2+y,z
1/2-x,1/2-y,z
1/2+x,1/2-y,1/2-z
1/2-x,1/2+y,1/2-z
1/2-x,1/2-y,-z
1/2+x,1/2+y,-z
1/2-x,1/2+y,1/2+z
1/2+x,1/2-y,1/2+z
loop_
_atom_site_type_symbol
_atom_site_label
_atom_site_fract_x
_atom_site_fract_y
_atom_site_fract_z
Si Si1 0.129504 0.281369 0.401299
Si Si2 0.677352 0.403927 0.500000
Si Si3 0.809702 0.811651 0.160076
Si Si4 0.008196 0.889151 0.000000
Si Si5 0.011401 0.206876 0.154266
Si Si6 0.780316 0.848131 0.646865
Si Si7 0.827571 0.052896 0.000000
O O1 0.115881 0.306359 0.500000
O O2 0.174920 0.211047 0.402775
O O3 0.184513 0.334622 0.350355
O O4 0.042775 0.273819 0.354066
O O5 0.710467 0.364874 0.415211
O O6 0.581996 0.414332 0.500000
O O7 0.709337 0.478983 0.500000
O O8 0.750000 0.750000 0.162041
O O9 0.895516 0.778730 0.137830
O O10 0.810435 0.851618 0.252236
O O11 0.024474 0.845030 0.085639
O O12 0.074911 0.947051 0.000000
O O13 0.000000 0.175089 0.250000
O O14 0.796221 0.914089 0.590403
#
# Coordination Sequence:
#
# PCOD8275857 Si02
#       7
#    16   8  16   8  16  16   8
#     4  11  17  30  50  86 102 128 170 221 285 302
#     4  10  26  34  47  69 106 152 188 198 245 324
#     4  11  21  37  52  74 105 144 180 217 257 311
#     4  10  19  32  47  68 100 148 183 204 241 300
#     4  11  17  29  50  78 107 133 169 219 266 313
#     4  11  18  30  56  77 104 132 167 224 271 307
#     4  12  19  35  51  76 107 137 173 223 260 310
#
# _framework density 17.156247
#
# number of rings (size 3 to 8) (size 9 to 14) (size 15 to 20)
#    0.000    1.091    8.182    1.091    0.000    0.727 
#    0.000    0.000    0.000    3.273    0.000    2.545 
#    0.000    4.364    0.000    0.000    0.000    0.000 
#
# Total GULP energy -545347.639545 kJ/mol
# GULP energy per Si atom -12394.264535 kJ/mol
# Density = 1.711720 g / cm^3
# Si number density = 17.156247 Si / 1000 Ang^3
#
#
#
# Elastic Constant Matrix: (Units=GPa)
#
#
# Indices 1 2 3 4 5 6 
#
# 1 74.5465 26.4297 24.9365 0.0000 0.0000 0.0000
# 2 26.4297 72.3374 36.3042 0.0000 0.0000 0.0000
# 3 24.9365 36.3042 132.6175 0.0000 0.0000 0.0000
# 4 0.0000 0.0000 0.0000 18.3618 0.0000 0.0000
# 5 0.0000 0.0000 0.0000 0.0000 20.8224 0.0000
# 6 0.0000 0.0000 0.0000 0.0000 0.0000 16.5452
#
#
#
# Elastic Compliance Matrix: (Units=1/GPa)
#
#
# Indices 1 2 3 4 5 6 
#
# 1 0.015699 -0.004932 -0.001602 0.000000 0.000000 0.000000
# 2 -0.004932 0.017575 -0.003884 0.000000 0.000000 0.000000
# 3 -0.001602 -0.003884 0.008905 0.000000 0.000000 0.000000
# 4 0.000000 0.000000 0.000000 0.054461 0.000000 0.000000
# 5 0.000000 0.000000 0.000000 0.000000 0.048025 0.000000
# 6 0.000000 0.000000 0.000000 0.000000 0.000000 0.060440
#
#
# Mechanical properties :
#
#
# Convention : Reuss Voigt Hill
#
# Bulk Modulus (GPa) = 46.85202 50.53802 48.69502
# Shear Modulus (GPa) = 21.45414 23.93462 22.69438
#
# Velocity S-wave (km/s) = 3.54010 3.73915 3.64099
# Velocity P-wave (km/s) = 6.63913 6.93997 6.79121
#
# Compressibility (1/GPa) = 0.02134380
#
# Stress axis : x y z
#
# Youngs Moduli (GPa) = 63.69902 56.89806 112.29781
#
# Poissons Ratio (x) = 0.28062 0.17988
# Poissons Ratio (y) = 0.31416 0.43615
# Poissons Ratio (z) = 0.10203 0.22099
#
# Static dielectric constant tensor:
#      x y z
#    x 3.446070 0.000000 0.000000 
#    y 0.000000 2.784670 0.000000 
#    z 0.000000 0.000000 3.376970 
# 
# 
# High freq. dielectric constant tensor:
#      x y z
#    x 1.664470 0.000000 0.000000 
#    y 0.000000 1.601040 0.000000 
#    z 0.000000 0.000000 1.680400 
# 
# From -- ./inp_files/30173.got.cif
#   From: 2010.03.12/outbox.cif.g09.slc.cpg/sg66_16_cif.got.tgz:30173.got - 2010.04.10 21:57:39.
