data_PCOD8275929
_publ_section_title
;
Structure prediction by ZEFSAII (Michael W. Deem and Ramdas Pophale) SiO2 
 PCOD8275929
Probable space group: C C C M
;
_chemical_formula_sum "Si O2"
_cell_formula_units_Z 52
_cell_length_a 5.183237
_cell_length_b 18.374646
_cell_length_c 30.861513
_cell_angle_alpha 90.000000
_cell_angle_beta 90.000000
_cell_angle_gamma 90.000000
_cell_volume 2939.254973
_symmetry_space_group_name_H-M "C C C M"
_symmetry_group_IT_number 66
_symmetry_cell_setting 'orthorhombic'
loop_
_space_group_symop_operation_xyz
x,y,z
-x,-y,z
x,-y,1/2-z
-x,y,1/2-z
-x,-y,-z
x,y,-z
-x,y,1/2+z
x,-y,1/2+z
1/2+x,1/2+y,z
1/2-x,1/2-y,z
1/2+x,1/2-y,1/2-z
1/2-x,1/2+y,1/2-z
1/2-x,1/2-y,-z
1/2+x,1/2+y,-z
1/2-x,1/2+y,1/2+z
1/2+x,1/2-y,1/2+z
loop_
_atom_site_type_symbol
_atom_site_label
_atom_site_fract_x
_atom_site_fract_y
_atom_site_fract_z
Si Si1 0.000000 0.000000 0.250000
Si Si2 0.260564 0.456329 0.167360
Si Si3 0.750841 0.836121 0.548310
Si Si4 0.749002 0.835849 0.100805
O O1 0.819146 0.949341 0.219167
O O2 0.500000 0.500000 0.145435
O O3 0.241828 0.376062 0.147056
O O4 0.000000 0.500000 0.158617
O O5 0.753765 0.870207 0.500000
O O6 0.750000 0.750000 0.544501
O O7 0.496292 0.862038 0.573229
O O8 0.002029 0.861899 0.574187
O O9 0.750000 0.750000 0.110275
#
# Coordination Sequence:
#
# PCOD8275929 Si02
#       4
#     4  16  16  16
#     4   8  22  36  62  72  96 140 180 200 258 344
#     4  10  20  36  58  76 103 135 180 206 259 326
#     4   9  17  30  50  78 110 142 175 208 250 306
#     4  10  19  32  55  82 106 135 175 221 258 290
#
# _framework density 17.691559000000002
#
# number of rings (size 3 to 8) (size 9 to 14) (size 15 to 20)
#    0.923    1.538    0.000    3.231    0.000    3.692 
#    0.000    0.000    6.769   18.462    0.000    0.000 
#    0.000    0.000    0.000    0.000    0.000    0.000 
#
# Total GULP energy -322213.623393 kJ/mol
# GULP energy per Si atom -12392.831669 kJ/mol
# Density = 1.765129 g / cm^3
# Si number density = 17.691559 Si / 1000 Ang^3
#
#
#
# Elastic Constant Matrix: (Units=GPa)
#
#
# Indices 1 2 3 4 5 6 
#
# 1 167.1275 37.9869 60.7049 0.0000 0.0000 0.0000
# 2 37.9869 60.5640 59.9622 0.0000 0.0000 0.0000
# 3 60.7049 59.9622 149.2529 0.0000 0.0000 0.0000
# 4 0.0000 0.0000 0.0000 34.0914 0.0000 0.0000
# 5 0.0000 0.0000 0.0000 0.0000 -8.1900 0.0000
# 6 0.0000 0.0000 0.0000 0.0000 0.0000 9.9858
#
#
#
# Elastic Compliance Matrix: (Units=1/GPa)
#
#
# Indices 1 2 3 4 5 6 
#
# 1 0.007280 -0.002714 -0.001870 0.000000 0.000000 0.000000
# 2 -0.002714 0.028429 -0.010317 0.000000 0.000000 0.000000
# 3 -0.001870 -0.010317 0.011606 0.000000 0.000000 0.000000
# 4 0.000000 0.000000 0.000000 0.029333 0.000000 0.000000
# 5 0.000000 0.000000 0.000000 0.000000 -0.122100 0.000000
# 6 0.000000 0.000000 0.000000 0.000000 0.000000 0.100142
#
#
# Mechanical properties :
#
#
# Convention : Reuss Voigt Hill
#
# Bulk Modulus (GPa) = 57.10894 77.13916 67.12405
# Shear Modulus (GPa) = 55.35303 21.73013 38.54158
#
# Velocity S-wave (km/s) = 5.59962 3.50848 4.67254
# Velocity P-wave (km/s) = 8.61151 7.75303 8.19352
#
# Compressibility (1/GPa) = 0.01751039
#
# Stress axis : x y z
#
# Youngs Moduli (GPa) = 137.36724 35.17592 86.16432
#
# Poissons Ratio (x) = 0.09547 0.16117
# Poissons Ratio (y) = 0.37283 0.88898
# Poissons Ratio (z) = 0.25694 0.36292
#
# Static dielectric constant tensor:
#      x y z
#    x 3.578800 0.000000 0.000000 
#    y 0.000000 2.889250 0.000000 
#    z 0.000000 0.000000 3.263170 
# 
# 
# High freq. dielectric constant tensor:
#      x y z
#    x 1.708420 0.000000 0.000000 
#    y 0.000000 1.636890 0.000000 
#    z 0.000000 0.000000 1.680030 
# 
# From -- ./inp_files/66868.got.cif
#   From: 2010.03.12/outbox.cif.g09.slc.cpg/sg66_34_cif.got.tgz:66868.got - 2010.04.10 21:57:39.
