data_PCOD8275677
_publ_section_title
;
Structure prediction by ZEFSAII (Michael W. Deem and Ramdas Pophale) SiO2 
 PCOD8275677
Probable space group: C C C M
;
_chemical_formula_sum "Si O2"
_cell_formula_units_Z 104
_cell_length_a 25.879508
_cell_length_b 8.953353
_cell_length_c 27.579289
_cell_angle_alpha 90.000000
_cell_angle_beta 90.000000
_cell_angle_gamma 90.000000
_cell_volume 6390.352116
_symmetry_space_group_name_H-M "C C C M"
_symmetry_group_IT_number 66
_symmetry_cell_setting 'orthorhombic'
loop_
_space_group_symop_operation_xyz
x,y,z
-x,-y,z
x,-y,1/2-z
-x,y,1/2-z
-x,-y,-z
x,y,-z
-x,y,1/2+z
x,-y,1/2+z
1/2+x,1/2+y,z
1/2-x,1/2-y,z
1/2+x,1/2-y,1/2-z
1/2-x,1/2+y,1/2-z
1/2-x,1/2-y,-z
1/2+x,1/2+y,-z
1/2-x,1/2+y,1/2+z
1/2+x,1/2-y,1/2+z
loop_
_atom_site_type_symbol
_atom_site_label
_atom_site_fract_x
_atom_site_fract_y
_atom_site_fract_z
Si Si1 0.253307 0.915854 0.100943
Si Si2 0.700809 0.343484 0.332984
Si Si3 0.729162 0.515551 0.000000
Si Si4 0.558400 0.018989 0.670428
Si Si5 0.666498 0.796354 0.000000
Si Si6 0.854172 0.399988 0.602525
Si Si7 0.058938 0.740641 0.245928
Si Si8 0.864803 0.000000 0.750000
O O1 0.250000 0.750000 0.123280
O O2 0.219090 0.027606 0.131641
O O3 0.312231 0.968939 0.100770
O O4 0.229212 0.910984 0.047090
O O5 0.750000 0.250000 0.312460
O O6 0.663773 0.234595 0.362994
O O7 0.671242 0.424834 0.289937
O O8 0.678107 0.619387 0.000000
O O9 0.779132 0.620114 0.000000
O O10 0.594043 0.024616 0.623046
O O11 0.570266 0.167923 0.701614
O O12 0.500000 0.000000 0.651855
O O13 0.569526 0.878494 0.704226
O O14 0.634554 0.838999 0.951654
O O15 0.000000 0.797947 0.250000
O O16 0.097265 0.872241 0.230419
#
# Coordination Sequence:
#
# PCOD8275677 Si02
#       8
#    16  16   8  16   8  16  16   8
#     4  10  20  31  50  75 102 128 170 213 251 298
#     4  10  22  36  46  70 105 143 171 197 245 315
#     4   9  15  30  50  72  99 128 169 218 252 281
#     4   9  18  35  54  74 102 131 166 213 263 304
#     4   9  16  28  55  74  97 136 173 210 247 306
#     4  10  18  35  53  73 102 139 171 205 258 306
#     4   9  19  34  55  78  97 127 171 219 259 297
#     4  12  21  34  54  74 104 134 173 210 250 306
#
# _framework density 16.274533999999999
#
# number of rings (size 3 to 8) (size 9 to 14) (size 15 to 20)
#    0.000    2.308    3.077    1.385    2.154    0.615 
#    2.769    0.385    0.000    0.000    0.000    0.000 
#    0.000    4.000    0.000    0.000    0.000    0.000 
#
# Total GULP energy -644543.003791 kJ/mol
# GULP energy per Si atom -12395.057765 kJ/mol
# Density = 1.623749 g / cm^3
# Si number density = 16.274534 Si / 1000 Ang^3
#
#
#
# Elastic Constant Matrix: (Units=GPa)
#
#
# Indices 1 2 3 4 5 6 
#
# 1 93.6111 49.5654 63.7825 0.0000 0.0000 0.0000
# 2 49.5654 89.7592 32.3785 0.0000 0.0000 0.0000
# 3 63.7825 32.3785 101.4276 0.0000 0.0000 0.0000
# 4 0.0000 0.0000 0.0000 19.1150 0.0000 0.0000
# 5 0.0000 0.0000 0.0000 0.0000 40.3863 0.0000
# 6 0.0000 0.0000 0.0000 0.0000 0.0000 24.7710
#
#
#
# Elastic Compliance Matrix: (Units=1/GPa)
#
#
# Indices 1 2 3 4 5 6 
#
# 1 0.023385 -0.008599 -0.011960 0.000000 0.000000 0.000000
# 2 -0.008599 0.015753 0.000379 0.000000 0.000000 0.000000
# 3 -0.011960 0.000379 0.017260 0.000000 0.000000 0.000000
# 4 0.000000 0.000000 0.000000 0.052315 0.000000 0.000000
# 5 0.000000 0.000000 0.000000 0.000000 0.024761 0.000000
# 6 0.000000 0.000000 0.000000 0.000000 0.000000 0.040370
#
#
# Mechanical properties :
#
#
# Convention : Reuss Voigt Hill
#
# Bulk Modulus (GPa) = 62.36018 64.02785 63.19402
# Shear Modulus (GPa) = 22.77400 26.12591 24.44995
#
# Velocity S-wave (km/s) = 3.74487 4.01100 3.88021
# Velocity P-wave (km/s) = 7.55642 7.80247 7.68043
#
# Compressibility (1/GPa) = 0.01603587
#
# Stress axis : x y z
#
# Youngs Moduli (GPa) = 42.76315 63.48175 57.93848
#
# Poissons Ratio (x) = 0.54586 0.69297
# Poissons Ratio (y) = 0.36770 -0.02193
# Poissons Ratio (z) = 0.51147 -0.02403
#
# Static dielectric constant tensor:
#      x y z
#    x 2.986250 0.000000 0.000000 
#    y 0.000000 3.072230 0.000000 
#    z 0.000000 0.000000 3.119430 
# 
# 
# High freq. dielectric constant tensor:
#      x y z
#    x 1.608980 0.000000 0.000000 
#    y 0.000000 1.630560 0.000000 
#    z 0.000000 0.000000 1.618320 
# 
# From -- ./inp_files/66314.got.cif
#   From: 2010.03.12/outbox.cif.g09.slc.cpg/sg66_34_cif.got.tgz:66314.got - 2010.04.10 21:57:39.
