data_PCOD8275518
_publ_section_title
;
Structure prediction by ZEFSAII (Michael W. Deem and Ramdas Pophale) SiO2 
 PCOD8275518
Probable space group: C C C M
;
_chemical_formula_sum "Si O2"
_cell_formula_units_Z 112
_cell_length_a 11.695448
_cell_length_b 27.004880
_cell_length_c 18.221389
_cell_angle_alpha 90.000000
_cell_angle_beta 90.000000
_cell_angle_gamma 90.000000
_cell_volume 5754.937267
_symmetry_space_group_name_H-M "C C C M"
_symmetry_group_IT_number 66
_symmetry_cell_setting 'orthorhombic'
loop_
_space_group_symop_operation_xyz
x,y,z
-x,-y,z
x,-y,1/2-z
-x,y,1/2-z
-x,-y,-z
x,y,-z
-x,y,1/2+z
x,-y,1/2+z
1/2+x,1/2+y,z
1/2-x,1/2-y,z
1/2+x,1/2-y,1/2-z
1/2-x,1/2+y,1/2-z
1/2-x,1/2-y,-z
1/2+x,1/2+y,-z
1/2-x,1/2+y,1/2+z
1/2+x,1/2-y,1/2+z
loop_
_atom_site_type_symbol
_atom_site_label
_atom_site_fract_x
_atom_site_fract_y
_atom_site_fract_z
Si Si1 0.067686 0.772347 0.586960
Si Si2 0.876000 0.508277 0.663769
Si Si3 0.764556 0.101732 0.834941
Si Si4 0.498497 0.444734 0.337356
Si Si5 0.739366 0.413208 0.662649
Si Si6 0.698922 0.178926 0.413341
Si Si7 0.182651 0.800506 0.085918
O O1 0.058658 0.772454 0.500000
O O2 0.174375 0.805076 0.614288
O O3 0.098553 0.716197 0.613319
O O4 0.946435 0.792168 0.617961
O O5 0.887702 0.500000 0.750000
O O6 0.832403 0.562717 0.639089
O O7 0.785020 0.467117 0.639982
O O8 0.000000 0.500000 0.626661
O O9 0.757028 0.102141 0.747462
O O10 0.750201 0.156454 0.869374
O O11 0.886510 0.083268 0.865084
O O12 0.500000 0.500000 0.370643
O O13 0.500000 0.448759 0.250000
O O14 0.608030 0.413470 0.364886
O O15 0.821123 0.374865 0.620480
O O16 0.698072 0.176400 0.500000
O O17 0.250000 0.750000 0.099550
O O18 0.181699 0.814688 0.000000
#
# Coordination Sequence:
#
# PCOD8275518 Si02
#       7
#    16  16  16  16  16  16  16
#     4   8  16  33  53  72  95 131 172 204 245 308
#     4   9  18  32  50  73 102 136 170 201 252 313
#     4  10  19  33  53  75 101 132 172 218 251 302
#     4   9  15  27  50  77 101 129 169 206 252 309
#     4  10  18  30  52  78 102 132 165 210 255 305
#     4   9  17  31  53  76 101 132 166 207 257 307
#     4  10  21  37  55  72  99 140 179 212 256 310
#
# _framework density 19.461551
#
# number of rings (size 3 to 8) (size 9 to 14) (size 15 to 20)
#    0.000    2.714    1.429    1.714    0.000    1.143 
#    2.571    0.714    0.000    1.714    0.000    0.000 
#    0.000    0.000    0.000    0.000    0.000    0.000 
#
# Total GULP energy -693887.280362 kJ/mol
# GULP energy per Si atom -12390.844292 kJ/mol
# Density = 1.941726 g / cm^3
# Si number density = 19.461551 Si / 1000 Ang^3
#
#
#
# Elastic Constant Matrix: (Units=GPa)
#
#
# Indices 1 2 3 4 5 6 
#
# 1 112.2402 46.5656 18.1785 0.0000 0.0000 0.0000
# 2 46.5656 143.1903 32.1584 0.0000 0.0000 0.0000
# 3 18.1785 32.1584 19.4083 0.0000 0.0000 0.0000
# 4 0.0000 0.0000 0.0000 16.7581 0.0000 0.0000
# 5 0.0000 0.0000 0.0000 0.0000 10.9092 0.0000
# 6 0.0000 0.0000 0.0000 0.0000 0.0000 28.5494
#
#
#
# Elastic Compliance Matrix: (Units=1/GPa)
#
#
# Indices 1 2 3 4 5 6 
#
# 1 0.010845 -0.001984 -0.006871 0.000000 0.000000 0.000000
# 2 -0.001984 0.011486 -0.017173 0.000000 0.000000 0.000000
# 3 -0.006871 -0.017173 0.086415 0.000000 0.000000 0.000000
# 4 0.000000 0.000000 0.000000 0.059673 0.000000 0.000000
# 5 0.000000 0.000000 0.000000 0.000000 0.091665 0.000000
# 6 0.000000 0.000000 0.000000 0.000000 0.000000 0.035027
#
#
# Mechanical properties :
#
#
# Convention : Reuss Voigt Hill
#
# Bulk Modulus (GPa) = 17.63978 52.07153 34.85565
# Shear Modulus (GPa) = 13.65884 23.10576 18.38230
#
# Velocity S-wave (km/s) = 2.65209 3.44939 3.07668
# Velocity P-wave (km/s) = 4.29671 6.53288 5.52903
#
# Compressibility (1/GPa) = 0.05669005
#
# Stress axis : x y z
#
# Youngs Moduli (GPa) = 92.20558 87.06532 11.57208
#
# Poissons Ratio (x) = 0.17272 0.07951
# Poissons Ratio (y) = 0.18291 0.19873
# Poissons Ratio (z) = 0.63356 1.49517
#
# Static dielectric constant tensor:
#      x y z
#    x 3.868990 0.000000 0.000000 
#    y 0.000000 3.757640 0.000000 
#    z 0.000000 0.000000 2.945010 
# 
# 
# High freq. dielectric constant tensor:
#      x y z
#    x 1.761670 0.000000 0.000000 
#    y 0.000000 1.768120 0.000000 
#    z 0.000000 0.000000 1.695980 
# 
# From -- ./inp_files/49156.got.cif
#   From: 2010.03.12/outbox.cif.g09.slc.cpg/sg66_25_cif.got.tgz:49156.got - 2010.04.10 21:57:39.
