data_PCOD8275888
_publ_section_title
;
Structure prediction by ZEFSAII (Michael W. Deem and Ramdas Pophale) SiO2 
 PCOD8275888
Probable space group: C C C M
;
_chemical_formula_sum "Si O2"
_cell_formula_units_Z 104
_cell_length_a 25.131967
_cell_length_b 23.777127
_cell_length_c 8.687960
_cell_angle_alpha 90.000000
_cell_angle_beta 90.000000
_cell_angle_gamma 90.000000
_cell_volume 5191.629254
_symmetry_space_group_name_H-M "C C C M"
_symmetry_group_IT_number 66
_symmetry_cell_setting 'orthorhombic'
loop_
_space_group_symop_operation_xyz
x,y,z
-x,-y,z
x,-y,1/2-z
-x,y,1/2-z
-x,-y,-z
x,y,-z
-x,y,1/2+z
x,-y,1/2+z
1/2+x,1/2+y,z
1/2-x,1/2-y,z
1/2+x,1/2-y,1/2-z
1/2-x,1/2+y,1/2-z
1/2-x,1/2-y,-z
1/2+x,1/2+y,-z
1/2-x,1/2+y,1/2+z
1/2+x,1/2-y,1/2+z
loop_
_atom_site_type_symbol
_atom_site_label
_atom_site_fract_x
_atom_site_fract_y
_atom_site_fract_z
Si Si1 0.425797 0.055440 0.833668
Si Si2 0.557987 0.337698 0.680125
Si Si3 0.752879 0.940900 0.817795
Si Si4 0.500000 0.144190 0.250000
Si Si5 0.906731 0.716091 0.817652
Si Si6 0.162739 0.371014 0.318363
Si Si7 0.874665 0.941676 0.181643
O O1 0.473713 0.099896 0.869722
O O2 0.380711 0.082244 0.726015
O O3 0.447712 0.000000 0.750000
O O4 0.401127 0.039820 0.000000
O O5 0.500000 0.332590 0.750000
O O6 0.550899 0.345093 0.500000
O O7 0.592717 0.282231 0.718352
O O8 0.589553 0.391031 0.749178
O O9 0.720147 0.890165 0.742303
O O10 0.813897 0.931274 0.768110
O O11 0.732063 0.000000 0.750000
O O12 0.745166 0.940954 0.000000
O O13 0.451490 0.186179 0.292579
O O14 0.850910 0.688422 0.766278
O O15 0.918138 0.705038 0.000000
O O16 0.164306 0.362120 0.500000
O O17 0.896550 0.000000 0.250000
O O18 0.879334 0.944918 0.000000
#
# Coordination Sequence:
#
# PCOD8275888 Si02
#       7
#    16  16  16   8  16  16  16
#     4  11  23  36  50  72 104 142 184 234 284 335
#     4  10  21  39  61  88 117 151 189 230 279 336
#     4  10  19  35  58  83 112 149 189 234 284 338
#     4  10  19  32  52  72  95 136 180 228 278 322
#     4  10  21  37  56  78 108 145 189 234 276 330
#     4  11  22  35  54  79 109 146 188 235 282 333
#     4   9  20  38  62  89 119 150 185 226 278 339
#
# _framework density 20.032247000000002
#
# number of rings (size 3 to 8) (size 9 to 14) (size 15 to 20)
#    0.000    1.846    0.769    4.385    0.000    8.923 
#    0.000    2.308    0.000    4.615    0.000    0.000 
#    0.000    0.000    0.000    0.000    0.000    0.000 
#
# Total GULP energy -644291.262359 kJ/mol
# GULP energy per Si atom -12390.216584 kJ/mol
# Density = 1.998665 g / cm^3
# Si number density = 20.032247 Si / 1000 Ang^3
#
#
#
# Elastic Constant Matrix: (Units=GPa)
#
#
# Indices 1 2 3 4 5 6 
#
# 1 70.1570 63.0942 28.7600 0.0000 0.0000 0.0000
# 2 63.0942 171.9201 43.1862 0.0000 0.0000 0.0000
# 3 28.7600 43.1862 73.0258 0.0000 0.0000 0.0000
# 4 0.0000 0.0000 0.0000 26.9691 0.0000 0.0000
# 5 0.0000 0.0000 0.0000 0.0000 20.8341 0.0000
# 6 0.0000 0.0000 0.0000 0.0000 0.0000 35.7840
#
#
#
# Elastic Compliance Matrix: (Units=1/GPa)
#
#
# Indices 1 2 3 4 5 6 
#
# 1 0.022563 -0.007104 -0.004685 0.000000 0.000000 0.000000
# 2 -0.007104 0.009068 -0.002565 0.000000 0.000000 0.000000
# 3 -0.004685 -0.002565 0.017056 0.000000 0.000000 0.000000
# 4 0.000000 0.000000 0.000000 0.037079 0.000000 0.000000
# 5 0.000000 0.000000 0.000000 0.000000 0.047998 0.000000
# 6 0.000000 0.000000 0.000000 0.000000 0.000000 0.027945
#
#
# Mechanical properties :
#
#
# Convention : Reuss Voigt Hill
#
# Bulk Modulus (GPa) = 50.05181 65.02042 57.53611
# Shear Modulus (GPa) = 25.37081 28.72160 27.04621
#
# Velocity S-wave (km/s) = 3.56265 3.79062 3.67840
# Velocity P-wave (km/s) = 6.47790 7.18935 6.84288
#
# Compressibility (1/GPa) = 0.01997930
#
# Stress axis : x y z
#
# Youngs Moduli (GPa) = 44.32070 110.27795 58.63099
#
# Poissons Ratio (x) = 0.78337 0.27469
# Poissons Ratio (y) = 0.31484 0.15039
# Poissons Ratio (z) = 0.20764 0.28286
#
# Static dielectric constant tensor:
#      x y z
#    x 3.647820 0.000000 0.000000 
#    y 0.000000 3.884060 0.000000 
#    z 0.000000 0.000000 3.573880 
# 
# 
# High freq. dielectric constant tensor:
#      x y z
#    x 1.765620 0.000000 0.000000 
#    y 0.000000 1.784130 0.000000 
#    z 0.000000 0.000000 1.773340 
# 
# From -- ./inp_files/10536.got.cif
#   From: 2010.03.12/outbox.cif.g09.slc.cpg/sg66_6_cif.got.tgz:10536.got - 2010.04.10 21:57:39.
