data_PCOD8275660
_publ_section_title
;
Structure prediction by ZEFSAII (Michael W. Deem and Ramdas Pophale) SiO2 
 PCOD8275660
Probable space group: C C C M
;
_chemical_formula_sum "Si O2"
_cell_formula_units_Z 64
_cell_length_a 15.368213
_cell_length_b 20.035711
_cell_length_c 10.291925
_cell_angle_alpha 90.000000
_cell_angle_beta 90.000000
_cell_angle_gamma 90.000000
_cell_volume 3169.018267
_symmetry_space_group_name_H-M "C C C M"
_symmetry_group_IT_number 66
_symmetry_cell_setting 'orthorhombic'
loop_
_space_group_symop_operation_xyz
x,y,z
-x,-y,z
x,-y,1/2-z
-x,y,1/2-z
-x,-y,-z
x,y,-z
-x,y,1/2+z
x,-y,1/2+z
1/2+x,1/2+y,z
1/2-x,1/2-y,z
1/2+x,1/2-y,1/2-z
1/2-x,1/2+y,1/2-z
1/2-x,1/2-y,-z
1/2+x,1/2+y,-z
1/2-x,1/2+y,1/2+z
1/2+x,1/2-y,1/2+z
loop_
_atom_site_type_symbol
_atom_site_label
_atom_site_fract_x
_atom_site_fract_y
_atom_site_fract_z
Si Si1 0.000000 0.392075 0.250000
Si Si2 0.674474 0.055528 0.651818
Si Si3 0.147053 0.229604 0.000000
Si Si4 0.210138 0.176757 0.765317
Si Si5 0.979500 0.690284 0.500000
Si Si6 0.666585 0.702777 0.500000
O O1 0.927408 0.438059 0.316338
O O2 0.957199 0.349056 0.132686
O O3 0.686915 0.035320 0.500000
O O4 0.718773 0.125903 0.681517
O O5 0.714376 0.000000 0.750000
O O6 0.250000 0.250000 0.000000
O O7 0.132489 0.184292 0.128362
O O8 0.082776 0.292819 0.000000
O O9 0.250000 0.250000 0.744266
O O10 0.169797 0.154778 0.626875
O O11 0.923106 0.756852 0.500000
O O12 0.750000 0.750000 0.500000
#
# Coordination Sequence:
#
# PCOD8275660 Si02
#       6
#     8  16   8  16   8   8
#     4  12  23  38  60  88 134 176 213 252 303 388
#     4  12  27  43  62  90 127 176 218 259 319 391
#     4  10  18  34  58  88 125 162 211 259 318 371
#     4  10  20  38  63  86 119 160 209 266 314 361
#     4  12  22  36  63 100 133 174 212 262 328 384
#     4  10  20  34  54  92 129 160 205 265 318 369
#
# _framework density 20.195529000000001
#
# number of rings (size 3 to 8) (size 9 to 14) (size 15 to 20)
#    0.000    1.000    2.500    7.875    3.500    1.000 
#    0.000    0.000    0.000    0.000    0.000    5.250 
#    0.000    0.000    0.000    0.000    0.000    0.000 
#
# Total GULP energy -396523.010136 kJ/mol
# GULP energy per Si atom -12391.344067 kJ/mol
# Density = 2.014956 g / cm^3
# Si number density = 20.195529 Si / 1000 Ang^3
#
#
#
# Elastic Constant Matrix: (Units=GPa)
#
#
# Indices 1 2 3 4 5 6 
#
# 1 40.9037 15.3507 15.3331 0.0000 0.0000 0.0000
# 2 15.3507 67.8300 34.5458 0.0000 0.0000 0.0000
# 3 15.3331 34.5458 227.5804 0.0000 0.0000 0.0000
# 4 0.0000 0.0000 0.0000 31.0529 0.0000 0.0000
# 5 0.0000 0.0000 0.0000 0.0000 25.5176 0.0000
# 6 0.0000 0.0000 0.0000 0.0000 0.0000 18.8481
#
#
#
# Elastic Compliance Matrix: (Units=1/GPa)
#
#
# Indices 1 2 3 4 5 6 
#
# 1 0.026910 -0.005600 -0.000963 0.000000 0.000000 0.000000
# 2 -0.005600 0.017143 -0.002225 0.000000 0.000000 0.000000
# 3 -0.000963 -0.002225 0.004797 0.000000 0.000000 0.000000
# 4 0.000000 0.000000 0.000000 0.032203 0.000000 0.000000
# 5 0.000000 0.000000 0.000000 0.000000 0.039189 0.000000
# 6 0.000000 0.000000 0.000000 0.000000 0.000000 0.053056
#
#
# Mechanical properties :
#
#
# Convention : Reuss Voigt Hill
#
# Bulk Modulus (GPa) = 31.97469 51.86369 41.91919
# Shear Modulus (GPa) = 24.83885 33.15603 28.99744
#
# Velocity S-wave (km/s) = 3.51082 4.05625 3.79335
# Velocity P-wave (km/s) = 5.68344 6.90464 6.32359
#
# Compressibility (1/GPa) = 0.03127474
#
# Stress axis : x y z
#
# Youngs Moduli (GPa) = 37.16071 58.33229 208.47740
#
# Poissons Ratio (x) = 0.32664 0.20078
# Poissons Ratio (y) = 0.20808 0.46386
# Poissons Ratio (z) = 0.03579 0.12979
#
# Static dielectric constant tensor:
#      x y z
#    x 3.256740 0.000000 0.000000 
#    y 0.000000 3.365760 0.000000 
#    z 0.000000 0.000000 6.327290 
# 
# 
# High freq. dielectric constant tensor:
#      x y z
#    x 1.747050 0.000000 0.000000 
#    y 0.000000 1.745530 0.000000 
#    z 0.000000 0.000000 1.840050 
# 
# From -- ./inp_files/15993.got.cif
#   From: 2010.03.12/outbox.cif.g09.slc.cpg/sg66_8_cif.got.tgz:15993.got - 2010.04.10 21:57:39.
