data_PCOD8275534
_publ_section_title
;
Structure prediction by ZEFSAII (Michael W. Deem and Ramdas Pophale) SiO2 
 PCOD8275534
Probable space group: C C C M
;
_chemical_formula_sum "Si O2"
_cell_formula_units_Z 80
_cell_length_a 20.792589
_cell_length_b 27.834020
_cell_length_c 8.733322
_cell_angle_alpha 90.000000
_cell_angle_beta 90.000000
_cell_angle_gamma 90.000000
_cell_volume 5054.334460
_symmetry_space_group_name_H-M "C C C M"
_symmetry_group_IT_number 66
_symmetry_cell_setting 'orthorhombic'
loop_
_space_group_symop_operation_xyz
x,y,z
-x,-y,z
x,-y,1/2-z
-x,y,1/2-z
-x,-y,-z
x,y,-z
-x,y,1/2+z
x,-y,1/2+z
1/2+x,1/2+y,z
1/2-x,1/2-y,z
1/2+x,1/2-y,1/2-z
1/2-x,1/2+y,1/2-z
1/2-x,1/2-y,-z
1/2+x,1/2+y,-z
1/2-x,1/2+y,1/2+z
1/2+x,1/2-y,1/2+z
loop_
_atom_site_type_symbol
_atom_site_label
_atom_site_fract_x
_atom_site_fract_y
_atom_site_fract_z
Si Si1 0.266103 0.352550 0.823270
Si Si2 0.360053 0.125513 0.319588
Si Si3 0.717016 0.049159 0.673840
Si Si4 0.433328 0.794835 0.680872
Si Si5 0.321104 0.732080 0.819944
O O1 0.200100 0.340379 0.730274
O O2 0.274652 0.411006 0.813757
O O3 0.323421 0.323638 0.739791
O O4 0.258918 0.336533 0.000000
O O5 0.368447 0.124228 0.500000
O O6 0.346986 0.071451 0.255750
O O7 0.421903 0.150781 0.243746
O O8 0.698415 0.038393 0.500000
O O9 0.740343 0.000000 0.750000
O O10 0.500000 0.775535 0.750000
O O11 0.437507 0.795831 0.500000
O O12 0.377141 0.759504 0.733513
O O13 0.250000 0.750000 0.772120
O O14 0.333628 0.735326 0.000000
#
# Coordination Sequence:
#
# PCOD8275534 Si02
#       5
#    16  16  16  16  16
#     4   9  18  29  45  70  96 126 162 200 244 288
#     4  10  18  31  48  69  95 126 163 201 244 289
#     4   9  17  28  46  71  99 128 162 203 252 295
#     4  12  24  37  52  71 100 133 170 209 251 297
#     4  11  20  31  51  74  98 128 166 204 247 297
#
# _framework density 15.827997999999999
#
# number of rings (size 3 to 8) (size 9 to 14) (size 15 to 20)
#    1.200    0.600    2.000    4.800    0.000    0.800 
#    0.000    0.000    0.000    0.600    0.000    4.200 
#    0.000    0.800    0.000    8.400    0.000    4.600 
#
# Total GULP energy -495522.533058 kJ/mol
# GULP energy per Si atom -12388.063326 kJ/mol
# Density = 1.579197 g / cm^3
# Si number density = 15.827998 Si / 1000 Ang^3
#
#
#
# Elastic Constant Matrix: (Units=GPa)
#
#
# Indices 1 2 3 4 5 6 
#
# 1 33.0718 31.1540 24.2414 0.0000 0.0000 0.0000
# 2 31.1540 90.9675 43.1531 0.0000 0.0000 0.0000
# 3 24.2414 43.1531 141.4434 0.0000 0.0000 0.0000
# 4 0.0000 0.0000 0.0000 29.0557 0.0000 0.0000
# 5 0.0000 0.0000 0.0000 0.0000 22.4952 0.0000
# 6 0.0000 0.0000 0.0000 0.0000 0.0000 12.7007
#
#
#
# Elastic Compliance Matrix: (Units=1/GPa)
#
#
# Indices 1 2 3 4 5 6 
#
# 1 0.046163 -0.014097 -0.003611 0.000000 0.000000 0.000000
# 2 -0.014097 0.017158 -0.002819 0.000000 0.000000 0.000000
# 3 -0.003611 -0.002819 0.008549 0.000000 0.000000 0.000000
# 4 0.000000 0.000000 0.000000 0.034417 0.000000 0.000000
# 5 0.000000 0.000000 0.000000 0.000000 0.044454 0.000000
# 6 0.000000 0.000000 0.000000 0.000000 0.000000 0.078736
#
#
# Mechanical properties :
#
#
# Convention : Reuss Voigt Hill
#
# Bulk Modulus (GPa) = 32.44954 51.39775 41.92364
# Shear Modulus (GPa) = 17.80619 23.97929 20.89274
#
# Velocity S-wave (km/s) = 3.35771 3.89651 3.63710
# Velocity P-wave (km/s) = 5.96474 7.26546 6.64699
#
# Compressibility (1/GPa) = 0.03081708
#
# Stress axis : x y z
#
# Youngs Moduli (GPa) = 21.66224 58.28240 116.97556
#
# Poissons Ratio (x) = 0.82159 0.42239
# Poissons Ratio (y) = 0.30537 0.32972
# Poissons Ratio (z) = 0.07822 0.16428
#
# Static dielectric constant tensor:
#      x y z
#    x 2.671870 0.000000 0.000000 
#    y 0.000000 3.104700 0.000000 
#    z 0.000000 0.000000 3.068700 
# 
# 
# High freq. dielectric constant tensor:
#      x y z
#    x 1.551530 0.000000 0.000000 
#    y 0.000000 1.603380 0.000000 
#    z 0.000000 0.000000 1.632190 
# 
# From -- ./inp_files/8215.got.cif
#   From: 2010.03.12/outbox.cif.g09.slc.cpg/sg66_5_cif.got.tgz:8215.got - 2010.04.10 21:57:39.
