data_PCOD8275721
_publ_section_title
;
Structure prediction by ZEFSAII (Michael W. Deem and Ramdas Pophale) SiO2 
 PCOD8275721
Probable space group: C C C M
;
_chemical_formula_sum "Si O2"
_cell_formula_units_Z 80
_cell_length_a 36.810743
_cell_length_b 18.393924
_cell_length_c 8.846792
_cell_angle_alpha 90.000000
_cell_angle_beta 90.000000
_cell_angle_gamma 90.000000
_cell_volume 5990.109863
_symmetry_space_group_name_H-M "C C C M"
_symmetry_group_IT_number 66
_symmetry_cell_setting 'orthorhombic'
loop_
_space_group_symop_operation_xyz
x,y,z
-x,-y,z
x,-y,1/2-z
-x,y,1/2-z
-x,-y,-z
x,y,-z
-x,y,1/2+z
x,-y,1/2+z
1/2+x,1/2+y,z
1/2-x,1/2-y,z
1/2+x,1/2-y,1/2-z
1/2-x,1/2+y,1/2-z
1/2-x,1/2-y,-z
1/2+x,1/2+y,-z
1/2-x,1/2+y,1/2+z
1/2+x,1/2-y,1/2+z
loop_
_atom_site_type_symbol
_atom_site_label
_atom_site_fract_x
_atom_site_fract_y
_atom_site_fract_z
Si Si1 0.034111 0.421825 0.174504
Si Si2 0.788914 0.786642 0.833900
Si Si3 0.752305 0.576625 0.820741
Si Si4 0.819968 0.656292 0.322195
Si Si5 0.614522 0.920953 0.823240
O O1 0.035604 0.500000 0.250000
O O2 0.073980 0.387144 0.200261
O O3 0.000000 0.377609 0.250000
O O4 0.025312 0.430233 0.000000
O O5 0.750000 0.750000 0.847739
O O6 0.781171 0.869192 0.778979
O O7 0.813526 0.741437 0.717153
O O8 0.807577 0.785863 0.000000
O O9 0.741586 0.500000 0.750000
O O10 0.790118 0.604197 0.752172
O O11 0.757404 0.570803 0.000000
O O12 0.818616 0.645477 0.500000
O O13 0.859098 0.635304 0.258399
O O14 0.618850 0.000000 0.750000
O O15 0.623998 0.927834 0.000000
#
# Coordination Sequence:
#
# PCOD8275721 Si02
#       5
#    16  16  16  16  16
#     4   9  16  25  38  52  68  91 117 148 182 216
#     4   8  16  30  43  54  71  95 119 146 183 223
#     4  10  19  30  43  57  74  95 120 152 187 222
#     4  11  20  28  40  56  74  96 122 154 188 221
#     4  10  19  29  39  53  73  96 123 154 188 222
#
# _framework density 13.355347999999999
#
# number of rings (size 3 to 8) (size 9 to 14) (size 15 to 20)
#    0.000    2.400    0.000    6.000    0.000    6.800 
#    0.000    0.000    0.000    0.000    0.000    0.000 
#    0.000    0.000    0.000    0.000    0.000    1.000 
#
# Total GULP energy -495670.973061 kJ/mol
# GULP energy per Si atom -12391.774327 kJ/mol
# Density = 1.332495 g / cm^3
# Si number density = 13.355348 Si / 1000 Ang^3
#
#
#
# Elastic Constant Matrix: (Units=GPa)
#
#
# Indices 1 2 3 4 5 6 
#
# 1 79.1667 39.4579 48.2657 0.0000 0.0000 0.0000
# 2 39.4579 78.2767 40.7223 0.0000 0.0000 0.0000
# 3 48.2657 40.7223 105.1503 0.0000 0.0000 0.0000
# 4 0.0000 0.0000 0.0000 15.7136 0.0000 0.0000
# 5 0.0000 0.0000 0.0000 0.0000 21.8646 0.0000
# 6 0.0000 0.0000 0.0000 0.0000 0.0000 15.2456
#
#
#
# Elastic Compliance Matrix: (Units=1/GPa)
#
#
# Indices 1 2 3 4 5 6 
#
# 1 0.019955 -0.006629 -0.006592 0.000000 0.000000 0.000000
# 2 -0.006629 0.018201 -0.004006 0.000000 0.000000 0.000000
# 3 -0.006592 -0.004006 0.014087 0.000000 0.000000 0.000000
# 4 0.000000 0.000000 0.000000 0.063639 0.000000 0.000000
# 5 0.000000 0.000000 0.000000 0.000000 0.045736 0.000000
# 6 0.000000 0.000000 0.000000 0.000000 0.000000 0.065593
#
#
# Mechanical properties :
#
#
# Convention : Reuss Voigt Hill
#
# Bulk Modulus (GPa) = 56.21621 57.72062 56.96841
# Shear Modulus (GPa) = 18.68495 19.50796 19.09646
#
# Velocity S-wave (km/s) = 3.74446 3.82604 3.78547
# Velocity P-wave (km/s) = 7.80248 7.92660 7.86479
#
# Compressibility (1/GPa) = 0.01778846
#
# Stress axis : x y z
#
# Youngs Moduli (GPa) = 50.11320 54.94235 70.98508
#
# Poissons Ratio (x) = 0.36423 0.46795
# Poissons Ratio (y) = 0.33222 0.28435
# Poissons Ratio (z) = 0.33036 0.22009
#
# Static dielectric constant tensor:
#      x y z
#    x 3.064230 0.000000 0.000000 
#    y 0.000000 2.707430 0.000000 
#    z 0.000000 0.000000 2.819290 
# 
# 
# High freq. dielectric constant tensor:
#      x y z
#    x 1.490370 0.000000 0.000000 
#    y 0.000000 1.469070 0.000000 
#    z 0.000000 0.000000 1.528120 
# 
# From -- ./inp_files/11466.got.cif
#   From: 2010.03.12/outbox.cif.g09.slc.cpg/sg66_6_cif.got.tgz:11466.got - 2010.04.10 21:57:39.
