data_PCOD8275146
_publ_section_title
;
Structure prediction by ZEFSAII (Michael W. Deem and Ramdas Pophale) SiO2 
 PCOD8275146
Probable space group: C M M M
;
_chemical_formula_sum "Si O2"
_cell_formula_units_Z 104
_cell_length_a 20.862739
_cell_length_b 20.765162
_cell_length_c 15.093662
_cell_angle_alpha 90.000000
_cell_angle_beta 90.000000
_cell_angle_gamma 90.000000
_cell_volume 6538.848405
_symmetry_space_group_name_H-M "C M M M"
_symmetry_group_IT_number 65
_symmetry_cell_setting 'orthorhombic'
loop_
_space_group_symop_operation_xyz
x,y,z
-x,-y,z
x,-y,-z
-x,y,-z
-x,-y,-z
x,y,-z
-x,y,z
x,-y,z
1/2+x,1/2+y,z
1/2-x,1/2-y,z
1/2+x,1/2-y,-z
1/2-x,1/2+y,-z
1/2-x,1/2-y,-z
1/2+x,1/2+y,-z
1/2-x,1/2+y,z
1/2+x,1/2-y,z
loop_
_atom_site_type_symbol
_atom_site_label
_atom_site_fract_x
_atom_site_fract_y
_atom_site_fract_z
Si Si1 0.353174 0.769703 0.737975
Si Si2 0.340677 0.386839 0.900857
Si Si3 0.573189 0.692248 0.602029
Si Si4 0.237010 0.146206 0.742603
Si Si5 0.837517 0.074124 0.602117
Si Si6 0.428643 0.500000 0.894431
Si Si7 0.574022 0.739425 0.902537
O O1 0.397855 0.753525 0.654146
O O2 0.311163 0.834498 0.727776
O O3 0.306513 0.709221 0.743924
O O4 0.397225 0.783401 0.824521
O O5 0.277311 0.385044 0.839026
O O6 0.389262 0.438880 0.860276
O O7 0.382695 0.323299 0.902074
O O8 0.316775 0.404110 0.000000
O O9 0.582440 0.709911 0.500000
O O10 0.500000 0.684689 0.629916
O O11 0.604192 0.622646 0.624078
O O12 0.221333 0.096030 0.664146
O O13 0.815886 0.081264 0.500000
O O14 0.857500 0.000000 0.622219
O O15 0.500000 0.500000 0.852870
O O16 0.433776 0.500000 0.000000
O O17 0.500000 0.721916 0.882947
O O18 0.579887 0.772722 0.000000
#
# Coordination Sequence:
#
# PCOD8275146 Si02
#       7
#    16  16  16  16  16   8  16
#     4   9  17  29  42  60  84 115 148 186 221 255
#     4   9  17  27  40  59  85 117 151 184 217 251
#     4   9  17  29  46  67  90 115 144 180 221 263
#     4   9  18  29  43  59  83 115 152 188 219 252
#     4   9  18  31  46  63  86 117 149 180 213 253
#     4   9  16  26  40  58  83 117 154 187 217 249
#     4   9  16  26  41  60  84 113 143 177 217 260
#
# _framework density 15.904941000000001
#
# number of rings (size 3 to 8) (size 9 to 14) (size 15 to 20)
#    0.000    3.000    0.000    0.923    1.077    3.385 
#    0.000    8.462    0.000    0.000    0.000    0.000 
#    0.000    2.462    0.000   10.154    0.000    0.923 
#
# Total GULP energy -644258.384439 kJ/mol
# GULP energy per Si atom -12389.584316 kJ/mol
# Density = 1.586874 g / cm^3
# Si number density = 15.904941 Si / 1000 Ang^3
#
#
#
# Elastic Constant Matrix: (Units=GPa)
#
#
# Indices 1 2 3 4 5 6 
#
# 1 81.7836 46.8195 61.2202 0.0000 0.0000 0.0000
# 2 46.8195 48.5782 39.8640 0.0000 0.0000 0.0000
# 3 61.2202 39.8640 98.1785 0.0000 0.0000 0.0000
# 4 0.0000 0.0000 0.0000 16.1957 0.0000 0.0000
# 5 0.0000 0.0000 0.0000 0.0000 24.4697 0.0000
# 6 0.0000 0.0000 0.0000 0.0000 0.0000 26.6052
#
#
#
# Elastic Compliance Matrix: (Units=1/GPa)
#
#
# Indices 1 2 3 4 5 6 
#
# 1 0.034820 -0.023608 -0.012127 0.000000 0.000000 0.000000
# 2 -0.023608 0.046878 -0.004313 0.000000 0.000000 0.000000
# 3 -0.012127 -0.004313 0.019499 0.000000 0.000000 0.000000
# 4 0.000000 0.000000 0.000000 0.061745 0.000000 0.000000
# 5 0.000000 0.000000 0.000000 0.000000 0.040867 0.000000
# 6 0.000000 0.000000 0.000000 0.000000 0.000000 0.037587
#
#
# Mechanical properties :
#
#
# Convention : Reuss Voigt Hill
#
# Bulk Modulus (GPa) = 47.39125 58.26085 52.82605
# Shear Modulus (GPa) = 15.21954 18.82991 17.02473
#
# Velocity S-wave (km/s) = 3.09675 3.44452 3.27525
# Velocity P-wave (km/s) = 6.53052 7.24775 6.89846
#
# Compressibility (1/GPa) = 0.02110094
#
# Stress axis : x y z
#
# Youngs Moduli (GPa) = 28.71888 21.33183 51.28591
#
# Poissons Ratio (x) = 0.50361 0.62193
# Poissons Ratio (y) = 0.67800 0.22120
# Poissons Ratio (z) = 0.34827 0.09201
#
# Static dielectric constant tensor:
#      x y z
#    x 3.053630 0.000000 0.000000 
#    y 0.000000 2.813130 0.000000 
#    z 0.000000 0.000000 3.331020 
# 
# 
# High freq. dielectric constant tensor:
#      x y z
#    x 1.589150 0.000000 0.000000 
#    y 0.000000 1.565580 0.000000 
#    z 0.000000 0.000000 1.625320 
# 
# From -- ./inp_files/44614.got.cif
#   From: 2010.03.12/outbox.cif.g09.slc.cpg/sg65_23_cif.got.tgz:44614.got - 2010.04.10 20:52:16.
