data_PCOD8275942
_publ_section_title
;
Structure prediction by ZEFSAII (Michael W. Deem and Ramdas Pophale) SiO2 
 PCOD8275942
Probable space group: C C C M
;
_chemical_formula_sum "Si O2"
_cell_formula_units_Z 68
_cell_length_a 18.169926
_cell_length_b 9.316226
_cell_length_c 19.385272
_cell_angle_alpha 90.000000
_cell_angle_beta 90.000000
_cell_angle_gamma 90.000000
_cell_volume 3281.444574
_symmetry_space_group_name_H-M "C C C M"
_symmetry_group_IT_number 66
_symmetry_cell_setting 'orthorhombic'
loop_
_space_group_symop_operation_xyz
x,y,z
-x,-y,z
x,-y,1/2-z
-x,y,1/2-z
-x,-y,-z
x,y,-z
-x,y,1/2+z
x,-y,1/2+z
1/2+x,1/2+y,z
1/2-x,1/2-y,z
1/2+x,1/2-y,1/2-z
1/2-x,1/2+y,1/2-z
1/2-x,1/2-y,-z
1/2+x,1/2+y,-z
1/2-x,1/2+y,1/2+z
1/2+x,1/2-y,1/2+z
loop_
_atom_site_type_symbol
_atom_site_label
_atom_site_fract_x
_atom_site_fract_y
_atom_site_fract_z
Si Si1 0.500000 0.000000 0.750000
Si Si2 0.782283 0.408012 0.424377
Si Si3 0.048730 0.140909 0.423784
Si Si4 0.924823 0.310614 0.639313
Si Si5 0.156153 0.014262 0.169274
O O1 0.446448 0.899073 0.706359
O O2 0.774312 0.480558 0.500000
O O3 0.750000 0.250000 0.428278
O O4 0.868414 0.406380 0.405045
O O5 0.735555 0.493650 0.367476
O O6 0.083952 0.167504 0.500000
O O7 0.998436 0.277592 0.404442
O O8 0.109947 0.116831 0.364431
O O9 0.000000 0.000000 0.428029
O O10 0.885965 0.162928 0.659634
O O11 0.169121 0.000000 0.250000
#
# Coordination Sequence:
#
# PCOD8275942 Si02
#       5
#     4  16  16  16  16
#     4  12  24  36  52  76 116 160 184 230 272 348
#     4   9  18  34  55  79 107 141 184 230 276 337
#     4   9  17  32  56  83 110 141 183 240 290 333
#     4  10  21  35  53  79 110 152 191 227 279 342
#     4  10  19  32  57  87 112 136 182 243 297 333
#
# _framework density 20.722580000000001
#
# number of rings (size 3 to 8) (size 9 to 14) (size 15 to 20)
#    0.000    2.353    0.000    2.824    1.647    8.941 
#    0.000    2.353    0.000    0.000    0.000    4.941 
#    0.000    0.000    0.000    0.000    0.000    0.000 
#
# Total GULP energy -421451.521659 kJ/mol
# GULP energy per Si atom -12395.632990 kJ/mol
# Density = 2.067541 g / cm^3
# Si number density = 20.722580 Si / 1000 Ang^3
#
#
#
# Elastic Constant Matrix: (Units=GPa)
#
#
# Indices 1 2 3 4 5 6 
#
# 1 134.5339 37.8662 87.9074 0.0000 0.0000 0.0000
# 2 37.8662 29.8924 28.6374 0.0000 0.0000 0.0000
# 3 87.9074 28.6374 212.8683 0.0000 0.0000 0.0000
# 4 0.0000 0.0000 0.0000 22.2401 0.0000 0.0000
# 5 0.0000 0.0000 0.0000 0.0000 15.9149 0.0000
# 6 0.0000 0.0000 0.0000 0.0000 0.0000 20.3228
#
#
#
# Elastic Compliance Matrix: (Units=1/GPa)
#
#
# Indices 1 2 3 4 5 6 
#
# 1 0.013852 -0.013852 -0.003857 0.000000 0.000000 0.000000
# 2 -0.013852 0.052255 -0.001309 0.000000 0.000000 0.000000
# 3 -0.003857 -0.001309 0.006467 0.000000 0.000000 0.000000
# 4 0.000000 0.000000 0.000000 0.044964 0.000000 0.000000
# 5 0.000000 0.000000 0.000000 0.000000 0.062834 0.000000
# 6 0.000000 0.000000 0.000000 0.000000 0.000000 0.049206
#
#
# Mechanical properties :
#
#
# Convention : Reuss Voigt Hill
#
# Bulk Modulus (GPa) = 28.95468 76.23520 52.59494
# Shear Modulus (GPa) = 17.91298 26.55446 22.23372
#
# Velocity S-wave (km/s) = 2.94329 3.58359 3.27910
# Velocity P-wave (km/s) = 5.05504 7.34786 6.30653
#
# Compressibility (1/GPa) = 0.03453673
#
# Stress axis : x y z
#
# Youngs Moduli (GPa) = 72.19106 19.13691 154.63907
#
# Poissons Ratio (x) = 0.26509 0.59643
# Poissons Ratio (y) = 1.00001 0.20249
# Poissons Ratio (z) = 0.27843 0.02506
#
# Static dielectric constant tensor:
#      x y z
#    x 3.878400 0.000000 0.000000 
#    y 0.000000 3.449950 0.000000 
#    z 0.000000 0.000000 3.958920 
# 
# 
# High freq. dielectric constant tensor:
#      x y z
#    x 1.807560 0.000000 0.000000 
#    y 0.000000 1.770720 0.000000 
#    z 0.000000 0.000000 1.824720 
# 
# From -- ./inp_files/50618.got.cif
#   From: 2010.03.12/outbox.cif.g09.slc.cpg/sg66_26_cif.got.tgz:50618.got - 2010.04.10 21:57:39.
