data_PCOD8275669
_publ_section_title
;
Structure prediction by ZEFSAII (Michael W. Deem and Ramdas Pophale) SiO2 
 PCOD8275669
Probable space group: C C C M
;
_chemical_formula_sum "Si O2"
_cell_formula_units_Z 96
_cell_length_a 13.714476
_cell_length_b 19.587777
_cell_length_c 17.842783
_cell_angle_alpha 90.000000
_cell_angle_beta 90.000000
_cell_angle_gamma 90.000000
_cell_volume 4793.215595
_symmetry_space_group_name_H-M "C C C M"
_symmetry_group_IT_number 66
_symmetry_cell_setting 'orthorhombic'
loop_
_space_group_symop_operation_xyz
x,y,z
-x,-y,z
x,-y,1/2-z
-x,y,1/2-z
-x,-y,-z
x,y,-z
-x,y,1/2+z
x,-y,1/2+z
1/2+x,1/2+y,z
1/2-x,1/2-y,z
1/2+x,1/2-y,1/2-z
1/2-x,1/2+y,1/2-z
1/2-x,1/2-y,-z
1/2+x,1/2+y,-z
1/2-x,1/2+y,1/2+z
1/2+x,1/2-y,1/2+z
loop_
_atom_site_type_symbol
_atom_site_label
_atom_site_fract_x
_atom_site_fract_y
_atom_site_fract_z
Si Si1 0.297031 0.947136 0.911556
Si Si2 0.559477 0.833206 0.589261
Si Si3 0.196493 0.180162 0.918122
Si Si4 0.424907 0.560437 0.912011
Si Si5 0.497522 0.695690 0.161893
Si Si6 0.131736 0.588670 0.410680
O O1 0.344782 0.875763 0.883838
O O2 0.185036 0.958775 0.887798
O O3 0.361609 0.010746 0.881318
O O4 0.305168 0.947393 0.000000
O O5 0.556336 0.823131 0.500000
O O6 0.561853 0.759075 0.626916
O O7 0.465575 0.875069 0.619264
O O8 0.250000 0.250000 0.932604
O O9 0.271464 0.126882 0.880758
O O10 0.108425 0.193734 0.863400
O O11 0.159004 0.153082 0.000000
O O12 0.500000 0.500000 0.890566
O O13 0.446954 0.626533 0.863529
O O14 0.432176 0.577472 0.000000
O O15 0.500000 0.703039 0.250000
O O16 0.131413 0.592681 0.500000
#
# Coordination Sequence:
#
# PCOD8275669 Si02
#       6
#    16  16  16  16  16  16
#     4   9  18  32  55  89 117 146 186 236 300 356
#     4  10  19  35  58  85 117 150 191 238 294 355
#     4  10  18  34  61  88 110 142 200 257 298 337
#     4  10  21  40  64  85 112 150 197 246 289 346
#     4  12  25  39  55  84 121 157 191 240 295 363
#     4   9  16  30  58  90 115 140 187 256 301 337
#
# _framework density 20.028309
#
# number of rings (size 3 to 8) (size 9 to 14) (size 15 to 20)
#    0.000    2.000    1.667    3.000    0.000    5.667 
#    3.000    2.500    0.000    4.000    0.000    0.000 
#    0.000    0.000    0.000    0.000    0.000    0.000 
#
# Total GULP energy -595012.383139 kJ/mol
# GULP energy per Si atom -12396.091315 kJ/mol
# Density = 1.998272 g / cm^3
# Si number density = 20.028309 Si / 1000 Ang^3
#
#
#
# Elastic Constant Matrix: (Units=GPa)
#
#
# Indices 1 2 3 4 5 6 
#
# 1 114.7841 50.6666 31.6301 0.0000 0.0000 0.0000
# 2 50.6666 154.1962 32.4351 0.0000 0.0000 0.0000
# 3 31.6301 32.4351 59.2317 0.0000 0.0000 0.0000
# 4 0.0000 0.0000 0.0000 6.2409 0.0000 0.0000
# 5 0.0000 0.0000 0.0000 0.0000 8.9025 0.0000
# 6 0.0000 0.0000 0.0000 0.0000 0.0000 42.2587
#
#
#
# Elastic Compliance Matrix: (Units=1/GPa)
#
#
# Indices 1 2 3 4 5 6 
#
# 1 0.011143 -0.002723 -0.004459 0.000000 0.000000 0.000000
# 2 -0.002723 0.007995 -0.002924 0.000000 0.000000 0.000000
# 3 -0.004459 -0.002924 0.020865 0.000000 0.000000 0.000000
# 4 0.000000 0.000000 0.000000 0.160233 0.000000 0.000000
# 5 0.000000 0.000000 0.000000 0.000000 0.112328 0.000000
# 6 0.000000 0.000000 0.000000 0.000000 0.000000 0.023664
#
#
# Mechanical properties :
#
#
# Convention : Reuss Voigt Hill
#
# Bulk Modulus (GPa) = 50.52907 61.96397 56.24652
# Shear Modulus (GPa) = 13.77266 25.71242 19.74254
#
# Velocity S-wave (km/s) = 2.62517 3.58691 3.14304
# Velocity P-wave (km/s) = 5.87131 6.93973 6.42776
#
# Compressibility (1/GPa) = 0.01979059
#
# Stress axis : x y z
#
# Youngs Moduli (GPa) = 89.74334 125.07600 47.92699
#
# Poissons Ratio (x) = 0.34064 0.21371
# Poissons Ratio (y) = 0.24441 0.14013
# Poissons Ratio (z) = 0.40017 0.36570
#
# Static dielectric constant tensor:
#      x y z
#    x 3.105150 0.000000 0.000000 
#    y 0.000000 3.902700 0.000000 
#    z 0.000000 0.000000 3.079660 
# 
# 
# High freq. dielectric constant tensor:
#      x y z
#    x 1.790850 0.000000 0.000000 
#    y 0.000000 1.798930 0.000000 
#    z 0.000000 0.000000 1.720310 
# 
# From -- ./inp_files/28400.got.cif
#   From: 2010.03.12/outbox.cif.g09.slc.cpg/sg66_15_cif.got.tgz:28400.got - 2010.04.10 21:57:39.
