data_PCOD8275727
_publ_section_title
;
Structure prediction by ZEFSAII (Michael W. Deem and Ramdas Pophale) SiO2 
 PCOD8275727
Probable space group: C C C M
;
_chemical_formula_sum "Si O2"
_cell_formula_units_Z 96
_cell_length_a 23.764070
_cell_length_b 24.067986
_cell_length_c 8.859239
_cell_angle_alpha 90.000000
_cell_angle_beta 90.000000
_cell_angle_gamma 90.000000
_cell_volume 5067.071018
_symmetry_space_group_name_H-M "C C C M"
_symmetry_group_IT_number 66
_symmetry_cell_setting 'orthorhombic'
loop_
_space_group_symop_operation_xyz
x,y,z
-x,-y,z
x,-y,1/2-z
-x,y,1/2-z
-x,-y,-z
x,y,-z
-x,y,1/2+z
x,-y,1/2+z
1/2+x,1/2+y,z
1/2-x,1/2-y,z
1/2+x,1/2-y,1/2-z
1/2-x,1/2+y,1/2-z
1/2-x,1/2-y,-z
1/2+x,1/2+y,-z
1/2-x,1/2+y,1/2+z
1/2+x,1/2-y,1/2+z
loop_
_atom_site_type_symbol
_atom_site_label
_atom_site_fract_x
_atom_site_fract_y
_atom_site_fract_z
Si Si1 0.443774 0.449882 0.663926
Si Si2 0.056997 0.357003 0.676806
Si Si3 0.441140 0.269356 0.321002
Si Si4 0.848004 0.442836 0.820114
Si Si5 0.727465 0.441335 0.679666
Si Si6 0.645807 0.642484 0.332504
O O1 0.411549 0.500000 0.750000
O O2 0.500000 0.433459 0.750000
O O3 0.459668 0.472516 0.500000
O O4 0.406999 0.396469 0.649934
O O5 0.048253 0.359827 0.500000
O O6 0.068647 0.294110 0.730611
O O7 0.109240 0.394538 0.727499
O O8 0.000000 0.380526 0.750000
O O9 0.500000 0.291631 0.250000
O O10 0.446524 0.276007 0.500000
O O11 0.384047 0.301722 0.265987
O O12 0.871474 0.500000 0.750000
O O13 0.788775 0.428180 0.744314
O O14 0.840729 0.448342 0.000000
O O15 0.705329 0.500000 0.750000
O O16 0.728540 0.447763 0.500000
O O17 0.690370 0.387242 0.722892
O O18 0.672734 0.652734 0.500000
#
# Coordination Sequence:
#
# PCOD8275727 Si02
#       6
#    16  16  16  16  16  16
#     4  10  19  29  42  62  89 122 159 205 258 304
#     4   9  19  35  57  83 110 141 173 209 255 309
#     4   9  18  34  54  77 106 140 178 218 262 309
#     4  10  20  36  57  81 109 139 172 210 258 313
#     4  11  22  36  55  77 103 137 176 219 267 313
#     4  10  20  33  50  72  99 134 176 217 257 307
#
# _framework density 18.945857
#
# number of rings (size 3 to 8) (size 9 to 14) (size 15 to 20)
#    0.000    2.167    0.000    5.000    0.000    5.000 
#    0.000    2.500    0.000    5.000    0.000    0.000 
#    0.000    0.000    0.000    0.000    0.000    0.000 
#
# Total GULP energy -594802.394457 kJ/mol
# GULP energy per Si atom -12391.716551 kJ/mol
# Density = 1.890274 g / cm^3
# Si number density = 18.945857 Si / 1000 Ang^3
#
#
#
# Elastic Constant Matrix: (Units=GPa)
#
#
# Indices 1 2 3 4 5 6 
#
# 1 105.0631 66.2686 48.3765 0.0000 0.0000 0.0000
# 2 66.2686 100.0825 36.4242 0.0000 0.0000 0.0000
# 3 48.3765 36.4242 101.5490 0.0000 0.0000 0.0000
# 4 0.0000 0.0000 0.0000 21.1005 0.0000 0.0000
# 5 0.0000 0.0000 0.0000 0.0000 53.7142 0.0000
# 6 0.0000 0.0000 0.0000 0.0000 0.0000 39.5029
#
#
#
# Elastic Compliance Matrix: (Units=1/GPa)
#
#
# Indices 1 2 3 4 5 6 
#
# 1 0.018342 -0.010311 -0.005040 0.000000 0.000000 0.000000
# 2 -0.010311 0.017288 -0.001289 0.000000 0.000000 0.000000
# 3 -0.005040 -0.001289 0.012711 0.000000 0.000000 0.000000
# 4 0.000000 0.000000 0.000000 0.047392 0.000000 0.000000
# 5 0.000000 0.000000 0.000000 0.000000 0.018617 0.000000
# 6 0.000000 0.000000 0.000000 0.000000 0.000000 0.025315
#
#
# Mechanical properties :
#
#
# Convention : Reuss Voigt Hill
#
# Bulk Modulus (GPa) = 66.39291 67.64813 67.02052
# Shear Modulus (GPa) = 28.09544 33.23852 30.66698
#
# Velocity S-wave (km/s) = 3.85507 4.19309 4.02763
# Velocity P-wave (km/s) = 7.41181 7.69586 7.55517
#
# Compressibility (1/GPa) = 0.01506185
#
# Stress axis : x y z
#
# Youngs Moduli (GPa) = 54.51905 57.84292 78.67450
#
# Poissons Ratio (x) = 0.59642 0.39648
# Poissons Ratio (y) = 0.56215 0.10141
# Poissons Ratio (z) = 0.27475 0.07456
#
# Static dielectric constant tensor:
#      x y z
#    x 3.407470 0.000000 0.000000 
#    y 0.000000 3.712160 0.000000 
#    z 0.000000 0.000000 3.744420 
# 
# 
# High freq. dielectric constant tensor:
#      x y z
#    x 1.727830 0.000000 0.000000 
#    y 0.000000 1.732470 0.000000 
#    z 0.000000 0.000000 1.737860 
# 
# From -- ./inp_files/8043.got.cif
#   From: 2010.03.12/outbox.cif.g09.slc.cpg/sg66_5_cif.got.tgz:8043.got - 2010.04.10 21:57:39.
