data_PCOD8275704
_publ_section_title
;
Structure prediction by ZEFSAII (Michael W. Deem and Ramdas Pophale) SiO2 
 PCOD8275704
Probable space group: C C C M
;
_chemical_formula_sum "Si O2"
_cell_formula_units_Z 64
_cell_length_a 9.696637
_cell_length_b 10.046502
_cell_length_c 31.839729
_cell_angle_alpha 90.000000
_cell_angle_beta 90.000000
_cell_angle_gamma 90.000000
_cell_volume 3101.739891
_symmetry_space_group_name_H-M "C C C M"
_symmetry_group_IT_number 66
_symmetry_cell_setting 'orthorhombic'
loop_
_space_group_symop_operation_xyz
x,y,z
-x,-y,z
x,-y,1/2-z
-x,y,1/2-z
-x,-y,-z
x,y,-z
-x,y,1/2+z
x,-y,1/2+z
1/2+x,1/2+y,z
1/2-x,1/2-y,z
1/2+x,1/2-y,1/2-z
1/2-x,1/2+y,1/2-z
1/2-x,1/2-y,-z
1/2+x,1/2+y,-z
1/2-x,1/2+y,1/2+z
1/2+x,1/2-y,1/2+z
loop_
_atom_site_type_symbol
_atom_site_label
_atom_site_fract_x
_atom_site_fract_y
_atom_site_fract_z
Si Si1 0.907999 0.205757 0.500000
Si Si2 0.500000 0.000000 0.151618
Si Si3 0.226046 0.403840 0.411223
Si Si4 0.000000 0.000000 0.430712
Si Si5 0.134646 0.363584 0.773260
Si Si6 0.653691 0.120942 0.000000
O O1 0.750000 0.250000 0.500000
O O2 0.955962 0.125575 0.458905
O O3 0.992254 0.343765 0.500000
O O4 0.609663 0.075098 0.123069
O O5 0.412297 0.104034 0.179327
O O6 0.250000 0.250000 0.415623
O O7 0.372708 0.469333 0.399382
O O8 0.186861 0.462832 0.457616
O O9 0.185176 0.500000 0.750000
O O10 0.250000 0.250000 0.772801
O O11 0.000000 0.305738 0.750000
O O12 0.750000 0.250000 0.000000
#
# Coordination Sequence:
#
# PCOD8275704 Si02
#       6
#     8   8  16   8  16   8
#     4  11  22  36  58  83 103 149 229 286 314 368
#     4  10  25  39  62  98 132 166 200 259 315 384
#     4  11  23  40  57  83 126 167 217 269 316 362
#     4  11  22  38  56  80 111 158 214 270 323 368
#     4   9  21  45  72 102 133 162 204 251 307 389
#     4  10  18  40  56  75 119 166 219 283 307 354
#
# _framework density 20.633581
#
# number of rings (size 3 to 8) (size 9 to 14) (size 15 to 20)
#    0.000    2.000    5.000    0.750    3.500    7.000 
#    0.000    0.000    0.000    0.000    0.000    0.000 
#    0.000    0.000    0.000    0.000    0.000    0.000 
#
# Total GULP energy -396549.267210 kJ/mol
# GULP energy per Si atom -12392.164600 kJ/mol
# Density = 2.058662 g / cm^3
# Si number density = 20.633581 Si / 1000 Ang^3
#
#
#
# Elastic Constant Matrix: (Units=GPa)
#
#
# Indices 1 2 3 4 5 6 
#
# 1 171.5414 68.8325 57.5810 0.0000 0.0000 0.0000
# 2 68.8325 70.8031 37.7543 0.0000 0.0000 0.0000
# 3 57.5810 37.7543 130.1579 0.0000 0.0000 0.0000
# 4 0.0000 0.0000 0.0000 28.4436 0.0000 0.0000
# 5 0.0000 0.0000 0.0000 0.0000 25.3435 0.0000
# 6 0.0000 0.0000 0.0000 0.0000 0.0000 52.1979
#
#
#
# Elastic Compliance Matrix: (Units=1/GPa)
#
#
# Indices 1 2 3 4 5 6 
#
# 1 0.009934 -0.008652 -0.001885 0.000000 0.000000 0.000000
# 2 -0.008652 0.024244 -0.003205 0.000000 0.000000 0.000000
# 3 -0.001885 -0.003205 0.009446 0.000000 0.000000 0.000000
# 4 0.000000 0.000000 0.000000 0.035157 0.000000 0.000000
# 5 0.000000 0.000000 0.000000 0.000000 0.039458 0.000000
# 6 0.000000 0.000000 0.000000 0.000000 0.000000 0.019158
#
#
# Mechanical properties :
#
#
# Convention : Reuss Voigt Hill
#
# Bulk Modulus (GPa) = 61.95582 77.87086 69.91334
# Shear Modulus (GPa) = 29.36649 35.08596 32.22623
#
# Velocity S-wave (km/s) = 3.77668 4.12810 3.95629
# Velocity P-wave (km/s) = 7.00782 7.78096 7.40449
#
# Compressibility (1/GPa) = 0.01614053
#
# Stress axis : x y z
#
# Youngs Moduli (GPa) = 100.66317 41.24711 105.86015
#
# Poissons Ratio (x) = 0.35689 0.19955
# Poissons Ratio (y) = 0.87099 0.33924
# Poissons Ratio (z) = 0.18975 0.13218
#
# Static dielectric constant tensor:
#      x y z
#    x 4.068270 0.000000 0.000000 
#    y 0.000000 3.555140 0.000000 
#    z 0.000000 0.000000 4.059980 
# 
# 
# High freq. dielectric constant tensor:
#      x y z
#    x 1.829130 0.000000 0.000000 
#    y 0.000000 1.793860 0.000000 
#    z 0.000000 0.000000 1.787680 
# 
# From -- ./inp_files/67979.got.cif
#   From: 2010.03.12/outbox.cif.g09.slc.cpg/sg66_34_cif.got.tgz:67979.got - 2010.04.10 21:57:39.
