data_PCOD8275035
_publ_section_title
;
Structure prediction by ZEFSAII (Michael W. Deem and Ramdas Pophale) SiO2 
 PCOD8275035
Probable space group: C M M M
;
_chemical_formula_sum "Si O2"
_cell_formula_units_Z 88
_cell_length_a 20.814108
_cell_length_b 31.788000
_cell_length_c 9.810736
_cell_angle_alpha 90.000000
_cell_angle_beta 90.000000
_cell_angle_gamma 90.000000
_cell_volume 6491.164233
_symmetry_space_group_name_H-M "C M M M"
_symmetry_group_IT_number 65
_symmetry_cell_setting 'orthorhombic'
loop_
_space_group_symop_operation_xyz
x,y,z
-x,-y,z
x,-y,-z
-x,y,-z
-x,-y,-z
x,y,-z
-x,y,z
x,-y,z
1/2+x,1/2+y,z
1/2-x,1/2-y,z
1/2+x,1/2-y,-z
1/2-x,1/2+y,-z
1/2-x,1/2-y,-z
1/2+x,1/2+y,-z
1/2-x,1/2+y,z
1/2+x,1/2-y,z
loop_
_atom_site_type_symbol
_atom_site_label
_atom_site_fract_x
_atom_site_fract_y
_atom_site_fract_z
Si Si1 0.813339 0.371101 0.154481
Si Si2 0.384335 0.952049 0.844500
Si Si3 0.354391 0.247282 0.346555
Si Si4 0.572753 0.190805 0.843127
Si Si5 0.500000 0.950366 0.653391
Si Si6 0.761608 0.817675 0.347195
O O1 0.823658 0.421100 0.175262
O O2 0.880153 0.347794 0.193476
O O3 0.753571 0.356500 0.247122
O O4 0.794252 0.360418 0.000000
O O5 0.437897 0.936306 0.738474
O O6 0.362486 0.000000 0.814990
O O7 0.410885 0.948038 0.000000
O O8 0.382166 0.248616 0.500000
O O9 0.410026 0.232408 0.244245
O O10 0.296148 0.214936 0.338253
O O11 0.327301 0.293488 0.304918
O O12 0.500000 0.176613 0.808818
O O13 0.579666 0.203924 0.000000
O O14 0.500000 0.930576 0.500000
O O15 0.500000 0.000000 0.641421
O O16 0.768171 0.835585 0.500000
#
# Coordination Sequence:
#
# PCOD8275035 Si02
#       6
#    16  16  16  16   8  16
#     4   9  17  26  38  53  69  90 117 150 181 212
#     4   9  17  28  40  51  65  90 120 147 180 219
#     4   8  14  25  39  52  67  89 113 139 171 210
#     4   9  17  26  35  50  72  94 115 145 181 210
#     4   9  17  27  37  49  63  81 111 149 183 215
#     4   8  14  25  39  53  69  86 109 142 177 210
#
# _framework density 13.556889999999999
#
# number of rings (size 3 to 8) (size 9 to 14) (size 15 to 20)
#    0.000    3.364    0.000    1.364    1.273    2.909 
#    0.000    3.636    0.000    0.000    0.000    0.000 
#    0.000    0.000    0.000    0.000    0.000    0.909 
#
# Total GULP energy -545249.638041 kJ/mol
# GULP energy per Si atom -12392.037228 kJ/mol
# Density = 1.352603 g / cm^3
# Si number density = 13.556890 Si / 1000 Ang^3
#
#
#
# Elastic Constant Matrix: (Units=GPa)
#
#
# Indices 1 2 3 4 5 6 
#
# 1 20.3487 21.9140 16.5991 0.0000 0.0000 0.0000
# 2 21.9140 64.4211 37.5506 0.0000 0.0000 0.0000
# 3 16.5991 37.5506 62.9670 0.0000 0.0000 0.0000
# 4 0.0000 0.0000 0.0000 16.5844 0.0000 0.0000
# 5 0.0000 0.0000 0.0000 0.0000 18.8013 0.0000
# 6 0.0000 0.0000 0.0000 0.0000 0.0000 18.2930
#
#
#
# Elastic Compliance Matrix: (Units=1/GPa)
#
#
# Indices 1 2 3 4 5 6 
#
# 1 0.079757 -0.022801 -0.007428 0.000000 0.000000 0.000000
# 2 -0.022801 0.030312 -0.012066 0.000000 0.000000 0.000000
# 3 -0.007428 -0.012066 0.025035 0.000000 0.000000 0.000000
# 4 0.000000 0.000000 0.000000 0.060298 0.000000 0.000000
# 5 0.000000 0.000000 0.000000 0.000000 0.053188 0.000000
# 6 0.000000 0.000000 0.000000 0.000000 0.000000 0.054666
#
#
# Mechanical properties :
#
#
# Convention : Reuss Voigt Hill
#
# Bulk Modulus (GPa) = 19.79624 33.31823 26.55723
# Shear Modulus (GPa) = 12.35531 15.51396 13.93464
#
# Velocity S-wave (km/s) = 3.02216 3.38651 3.20951
# Velocity P-wave (km/s) = 5.17803 6.31832 5.77638
#
# Compressibility (1/GPa) = 0.05051465
#
# Stress axis : x y z
#
# Youngs Moduli (GPa) = 12.53802 32.98984 39.94410
#
# Poissons Ratio (x) = 0.75221 0.29669
# Poissons Ratio (y) = 0.28588 0.48197
# Poissons Ratio (z) = 0.09313 0.39806
#
# Static dielectric constant tensor:
#      x y z
#    x 2.481240 0.000000 0.000000 
#    y 0.000000 2.673860 0.000000 
#    z 0.000000 0.000000 2.925520 
# 
# 
# High freq. dielectric constant tensor:
#      x y z
#    x 1.466480 0.000000 0.000000 
#    y 0.000000 1.493020 0.000000 
#    z 0.000000 0.000000 1.526420 
# 
# From -- ./inp_files/14950.got.cif
#   From: 2010.03.12/outbox.cif.g09.slc.cpg/sg65_8_cif.got.tgz:14950.got - 2010.04.10 20:52:16.
