data_PCOD8275725
_publ_section_title
;
Structure prediction by ZEFSAII (Michael W. Deem and Ramdas Pophale) SiO2 
 PCOD8275725
Probable space group: C C C M
;
_chemical_formula_sum "Si O2"
_cell_formula_units_Z 96
_cell_length_a 26.889069
_cell_length_b 27.103048
_cell_length_c 9.693287
_cell_angle_alpha 90.000000
_cell_angle_beta 90.000000
_cell_angle_gamma 90.000000
_cell_volume 7064.232288
_symmetry_space_group_name_H-M "C C C M"
_symmetry_group_IT_number 66
_symmetry_cell_setting 'orthorhombic'
loop_
_space_group_symop_operation_xyz
x,y,z
-x,-y,z
x,-y,1/2-z
-x,y,1/2-z
-x,-y,-z
x,y,-z
-x,y,1/2+z
x,-y,1/2+z
1/2+x,1/2+y,z
1/2-x,1/2-y,z
1/2+x,1/2-y,1/2-z
1/2-x,1/2+y,1/2-z
1/2-x,1/2-y,-z
1/2+x,1/2+y,-z
1/2-x,1/2+y,1/2+z
1/2+x,1/2-y,1/2+z
loop_
_atom_site_type_symbol
_atom_site_label
_atom_site_fract_x
_atom_site_fract_y
_atom_site_fract_z
Si Si1 0.159860 0.306608 0.656215
Si Si2 0.766814 0.146325 0.153413
Si Si3 0.114878 0.406422 0.271018
Si Si4 0.782037 0.453643 0.843004
Si Si5 0.303951 0.274666 0.156820
Si Si6 0.954721 0.562333 0.500000
Si Si7 0.568048 0.052928 0.500000
O O1 0.139869 0.295878 0.500000
O O2 0.216247 0.323383 0.642972
O O3 0.127417 0.348438 0.732520
O O4 0.157648 0.258558 0.754309
O O5 0.754894 0.090585 0.201156
O O6 0.801960 0.172058 0.267142
O O7 0.791507 0.146920 0.000000
O O8 0.160938 0.437131 0.330585
O O9 0.066738 0.412524 0.364816
O O10 0.101307 0.428365 0.124615
O O11 0.768845 0.500000 0.750000
O O12 0.772465 0.469059 0.000000
O O13 0.250000 0.250000 0.152378
O O14 0.323744 0.281514 0.000000
O O15 0.939289 0.505355 0.500000
O O16 0.012929 0.575092 0.500000
#
# Coordination Sequence:
#
# PCOD8275725 Si02
#       7
#    16  16  16  16  16   8   8
#     4   9  16  28  42  54  72  97 116 142 183 231
#     4   8  15  27  38  53  74  99 123 142 177 224
#     4  11  20  32  44  59  74  93 122 158 197 240
#     4  10  19  29  42  57  76 102 129 158 190 227
#     4   9  16  24  38  58  77  91 114 145 178 218
#     4  11  20  38  44  56  73  94 124 152 200 251
#     4  11  24  30  48  58  71  94 120 162 200 237
#
# _framework density 13.589587
#
# number of rings (size 3 to 8) (size 9 to 14) (size 15 to 20)
#    0.000    2.333    1.667    3.500    2.333    4.000 
#    3.000    0.000    0.000    0.000    0.000    0.000 
#    0.000    0.000    0.000    0.000    0.000    0.000 
#
# Total GULP energy -594963.430335 kJ/mol
# GULP energy per Si atom -12395.071465 kJ/mol
# Density = 1.355866 g / cm^3
# Si number density = 13.589587 Si / 1000 Ang^3
#
#
#
# Elastic Constant Matrix: (Units=GPa)
#
#
# Indices 1 2 3 4 5 6 
#
# 1 17.9469 23.6728 12.3470 0.0000 0.0000 0.0000
# 2 23.6728 86.6258 44.6799 0.0000 0.0000 0.0000
# 3 12.3470 44.6799 88.3585 0.0000 0.0000 0.0000
# 4 0.0000 0.0000 0.0000 42.2825 0.0000 0.0000
# 5 0.0000 0.0000 0.0000 0.0000 -12.9317 0.0000
# 6 0.0000 0.0000 0.0000 0.0000 0.0000 17.3611
#
#
#
# Elastic Compliance Matrix: (Units=1/GPa)
#
#
# Indices 1 2 3 4 5 6 
#
# 1 0.087128 -0.023716 -0.000183 0.000000 0.000000 0.000000
# 2 -0.023716 0.022072 -0.007847 0.000000 0.000000 0.000000
# 3 -0.000183 -0.007847 0.015311 0.000000 0.000000 0.000000
# 4 0.000000 0.000000 0.000000 0.023650 0.000000 0.000000
# 5 0.000000 0.000000 0.000000 0.000000 -0.077329 0.000000
# 6 0.000000 0.000000 0.000000 0.000000 0.000000 0.057600
#
#
# Mechanical properties :
#
#
# Convention : Reuss Voigt Hill
#
# Bulk Modulus (GPa) = 16.38811 39.37006 27.87908
# Shear Modulus (GPa) = 23.55553 16.82448 20.19000
#
# Velocity S-wave (km/s) = 4.16787 3.52240 3.85866
# Velocity P-wave (km/s) = 5.93692 6.75105 6.35703
#
# Compressibility (1/GPa) = 0.06101986
#
# Stress axis : x y z
#
# Youngs Moduli (GPa) = 11.47736 45.30556 65.31185
#
# Poissons Ratio (x) = 1.07446 0.01194
# Poissons Ratio (y) = 0.27219 0.51252
# Poissons Ratio (z) = 0.00210 0.35552
#
# Static dielectric constant tensor:
#      x y z
#    x 2.321920 0.000000 0.000000 
#    y 0.000000 2.757150 0.000000 
#    z 0.000000 0.000000 2.929820 
# 
# 
# High freq. dielectric constant tensor:
#      x y z
#    x 1.451670 0.000000 0.000000 
#    y 0.000000 1.509280 0.000000 
#    z 0.000000 0.000000 1.536650 
# 
# From -- ./inp_files/9334.got.cif
#   From: 2010.03.12/outbox.cif.g09.slc.cpg/sg66_5_cif.got.tgz:9334.got - 2010.04.10 21:57:39.
