data_PCOD8275816
_publ_section_title
;
Structure prediction by ZEFSAII (Michael W. Deem and Ramdas Pophale) SiO2 
 PCOD8275816
Probable space group: C C C M
;
_chemical_formula_sum "Si O2"
_cell_formula_units_Z 64
_cell_length_a 14.648568
_cell_length_b 5.177006
_cell_length_c 35.019959
_cell_angle_alpha 90.000000
_cell_angle_beta 90.000000
_cell_angle_gamma 90.000000
_cell_volume 2655.763960
_symmetry_space_group_name_H-M "C C C M"
_symmetry_group_IT_number 66
_symmetry_cell_setting 'orthorhombic'
loop_
_space_group_symop_operation_xyz
x,y,z
-x,-y,z
x,-y,1/2-z
-x,y,1/2-z
-x,-y,-z
x,y,-z
-x,y,1/2+z
x,-y,1/2+z
1/2+x,1/2+y,z
1/2-x,1/2-y,z
1/2+x,1/2-y,1/2-z
1/2-x,1/2+y,1/2-z
1/2-x,1/2-y,-z
1/2+x,1/2+y,-z
1/2-x,1/2+y,1/2+z
1/2+x,1/2-y,1/2+z
loop_
_atom_site_type_symbol
_atom_site_label
_atom_site_fract_x
_atom_site_fract_y
_atom_site_fract_z
Si Si1 0.648227 0.686694 0.420701
Si Si2 0.891746 0.004705 0.837584
Si Si3 0.108644 0.502677 0.207163
Si Si4 0.643934 0.808959 0.043593
O O1 0.750000 0.750000 0.435654
O O2 0.651962 0.577244 0.377942
O O3 0.597421 0.465870 0.445850
O O4 0.600565 0.965545 0.428925
O O5 0.857030 0.227967 0.809615
O O6 0.856197 0.734482 0.819494
O O7 0.000000 0.000000 0.842401
O O8 0.148566 0.500000 0.250000
O O9 0.000000 0.500000 0.208480
O O10 0.750000 0.750000 0.052440
O O11 0.625770 0.888326 0.000000
#
# Coordination Sequence:
#
# PCOD8275816 Si02
#       4
#    16  16  16  16
#     4  10  19  31  49  72  96 124 157 196 240 286
#     4  10  19  31  49  72  98 126 156 197 244 288
#     4   9  17  30  49  72  95 122 160 201 238 279
#     4   9  17  30  49  71  93 121 161 202 235 274
#
# _framework density 24.098524999999999
#
# number of rings (size 3 to 8) (size 9 to 14) (size 15 to 20)
#    0.000    2.500    0.000    3.000    0.000    6.000 
#    0.000    0.000    0.000    7.500    0.000    0.000 
#    0.000    0.000    0.000    0.000    0.000    0.000 
#
# Total GULP energy -396444.178656 kJ/mol
# GULP energy per Si atom -12388.880583 kJ/mol
# Density = 2.404368 g / cm^3
# Si number density = 24.098525 Si / 1000 Ang^3
#
#
#
# Elastic Constant Matrix: (Units=GPa)
#
#
# Indices 1 2 3 4 5 6 
#
# 1 9.7774 4.6639 -2.2281 0.0000 0.0000 0.0000
# 2 4.6639 235.3390 81.3372 0.0000 0.0000 0.0000
# 3 -2.2281 81.3372 152.1985 0.0000 0.0000 0.0000
# 4 0.0000 0.0000 0.0000 55.3525 0.0000 0.0000
# 5 0.0000 0.0000 0.0000 0.0000 -803.1373 0.0000
# 6 0.0000 0.0000 0.0000 0.0000 0.0000 0.9637
#
#
#
# Elastic Compliance Matrix: (Units=1/GPa)
#
#
# Indices 1 2 3 4 5 6 
#
# 1 0.104535 -0.003190 0.003235 0.000000 0.000000 0.000000
# 2 -0.003190 0.005309 -0.002884 0.000000 0.000000 0.000000
# 3 0.003235 -0.002884 0.008159 0.000000 0.000000 0.000000
# 4 0.000000 0.000000 0.000000 0.018066 0.000000 0.000000
# 5 0.000000 0.000000 0.000000 0.000000 -0.001245 0.000000
# 6 0.000000 0.000000 0.000000 0.000000 0.000000 1.037641
#
#
# Mechanical properties :
#
#
# Convention : Reuss Voigt Hill
#
# Bulk Modulus (GPa) = 8.90269 62.76233 35.83251
# Shear Modulus (GPa) = 4.11325 -128.46142 -62.17409
#
# Velocity S-wave (km/s) = 1.30788 -7.30907 -5.08488
# Velocity P-wave (km/s) = 2.44603 6.71784 4.42416
#
# Compressibility (1/GPa) = 0.11232560
#
# Stress axis : x y z
#
# Youngs Moduli (GPa) = 9.56618 188.35380 122.56449
#
# Poissons Ratio (x) = 0.60079 -0.39649
# Poissons Ratio (y) = 0.03051 0.35347
# Poissons Ratio (z) = -0.03095 0.54321
#
# Static dielectric constant tensor:
#      x y z
#    x 3.688360 0.000000 0.000000 
#    y 0.000000 5.224660 0.000000 
#    z 0.000000 0.000000 4.158510 
# 
# 
# High freq. dielectric constant tensor:
#      x y z
#    x 1.902690 0.000000 0.000000 
#    y 0.000000 1.987500 0.000000 
#    z 0.000000 0.000000 1.953890 
# 
# From -- ./inp_files/61228.got.cif
#   From: 2010.03.12/outbox.cif.g09.slc.cpg/sg66_31_cif.got.tgz:61228.got - 2010.04.10 21:57:39.
