data_PCOD8275977
_publ_section_title
;
Structure prediction by ZEFSAII (Michael W. Deem and Ramdas Pophale) SiO2 
 PCOD8275977
Probable space group: C C C M
;
_chemical_formula_sum "Si O2"
_cell_formula_units_Z 112
_cell_length_a 29.015530
_cell_length_b 14.813395
_cell_length_c 14.683929
_cell_angle_alpha 90.000000
_cell_angle_beta 90.000000
_cell_angle_gamma 90.000000
_cell_volume 6311.424440
_symmetry_space_group_name_H-M "C C C M"
_symmetry_group_IT_number 66
_symmetry_cell_setting 'orthorhombic'
loop_
_space_group_symop_operation_xyz
x,y,z
-x,-y,z
x,-y,1/2-z
-x,y,1/2-z
-x,-y,-z
x,y,-z
-x,y,1/2+z
x,-y,1/2+z
1/2+x,1/2+y,z
1/2-x,1/2-y,z
1/2+x,1/2-y,1/2-z
1/2-x,1/2+y,1/2-z
1/2-x,1/2-y,-z
1/2+x,1/2+y,-z
1/2-x,1/2+y,1/2+z
1/2+x,1/2-y,1/2+z
loop_
_atom_site_type_symbol
_atom_site_label
_atom_site_fract_x
_atom_site_fract_y
_atom_site_fract_z
Si Si1 0.790831 0.817268 0.395515
Si Si2 0.339241 0.038920 0.338712
Si Si3 0.256877 0.481768 0.895820
Si Si4 0.201488 0.200943 0.104038
Si Si5 0.449592 0.144327 0.748933
Si Si6 0.353964 0.771526 0.231341
Si Si7 0.068772 0.502999 0.398336
O O1 0.802277 0.794795 0.500000
O O2 0.750000 0.750000 0.361751
O O3 0.837017 0.808021 0.335175
O O4 0.778331 0.920959 0.381496
O O5 0.329411 0.143422 0.318741
O O6 0.376813 0.019670 0.416391
O O7 0.365919 0.000000 0.250000
O O8 0.293023 0.980862 0.349175
O O9 0.290006 0.401948 0.858789
O O10 0.246933 0.459854 0.000000
O O11 0.250000 0.250000 0.110729
O O12 0.164339 0.252276 0.166609
O O13 0.182786 0.201418 0.000000
O O14 0.500000 0.192170 0.750000
O O15 0.409310 0.218332 0.732596
O O16 0.453179 0.075846 0.663383
O O17 0.439284 0.097162 0.845971
O O18 0.046586 0.507007 0.500000
#
# Coordination Sequence:
#
# PCOD8275977 Si02
#       7
#    16  16  16  16  16  16  16
#     4  10  20  33  52  79 108 138 176 217 256 309
#     4  11  19  31  47  77 107 145 181 210 248 305
#     4  10  21  34  51  75 108 148 183 215 254 307
#     4  10  22  36  51  76 109 142 179 217 254 310
#     4  10  22  38  51  74 104 132 180 230 270 319
#     4  11  21  35  52  74 103 142 174 218 267 308
#     4  10  19  33  54  76 104 140 177 218 264 313
#
# _framework density 17.745598999999999
#
# number of rings (size 3 to 8) (size 9 to 14) (size 15 to 20)
#    0.000    1.714    4.286    2.571    2.000    4.000 
#    0.000    0.000    0.000    0.000    0.000    2.000 
#    0.000    3.429    0.000    0.000    0.000    0.000 
#
# Total GULP energy -693822.948560 kJ/mol
# GULP energy per Si atom -12389.695510 kJ/mol
# Density = 1.770521 g / cm^3
# Si number density = 17.745599 Si / 1000 Ang^3
#
#
#
# Elastic Constant Matrix: (Units=GPa)
#
#
# Indices 1 2 3 4 5 6 
#
# 1 116.6728 29.5792 34.0749 0.0000 0.0000 0.0000
# 2 29.5792 64.1325 20.4431 0.0000 0.0000 0.0000
# 3 34.0749 20.4431 86.8592 0.0000 0.0000 0.0000
# 4 0.0000 0.0000 0.0000 17.0012 0.0000 0.0000
# 5 0.0000 0.0000 0.0000 0.0000 2.4293 0.0000
# 6 0.0000 0.0000 0.0000 0.0000 0.0000 16.2351
#
#
#
# Elastic Compliance Matrix: (Units=1/GPa)
#
#
# Indices 1 2 3 4 5 6 
#
# 1 0.010475 -0.003807 -0.003213 0.000000 0.000000 0.000000
# 2 -0.003807 0.018241 -0.002800 0.000000 0.000000 0.000000
# 3 -0.003213 -0.002800 0.013432 0.000000 0.000000 0.000000
# 4 0.000000 0.000000 0.000000 0.058819 0.000000 0.000000
# 5 0.000000 0.000000 0.000000 0.000000 0.411647 0.000000
# 6 0.000000 0.000000 0.000000 0.000000 0.000000 0.061595
#
#
# Mechanical properties :
#
#
# Convention : Reuss Voigt Hill
#
# Bulk Modulus (GPa) = 44.42802 48.42877 46.42839
# Shear Modulus (GPa) = 8.31461 19.37092 13.84276
#
# Velocity S-wave (km/s) = 2.16694 3.30751 2.79600
# Velocity P-wave (km/s) = 5.59922 6.47580 6.05340
#
# Compressibility (1/GPa) = 0.02250832
#
# Stress axis : x y z
#
# Youngs Moduli (GPa) = 95.46978 54.82162 74.44706
#
# Poissons Ratio (x) = 0.20870 0.23921
# Poissons Ratio (y) = 0.36344 0.20843
# Poissons Ratio (z) = 0.30676 0.15349
#
# Static dielectric constant tensor:
#      x y z
#    x 3.171560 0.000000 0.000000 
#    y 0.000000 3.452700 0.000000 
#    z 0.000000 0.000000 3.430180 
# 
# 
# High freq. dielectric constant tensor:
#      x y z
#    x 1.663250 0.000000 0.000000 
#    y 0.000000 1.658830 0.000000 
#    z 0.000000 0.000000 1.701280 
# 
# From -- ./inp_files/33970.got.cif
#   From: 2010.03.12/outbox.cif.g09.slc.cpg/sg66_17_cif.got.tgz:33970.got - 2010.04.10 21:57:39.
