data_PCOD8275853
_publ_section_title
;
Structure prediction by ZEFSAII (Michael W. Deem and Ramdas Pophale) SiO2 
 PCOD8275853
Probable space group: C C C M
;
_chemical_formula_sum "Si O2"
_cell_formula_units_Z 112
_cell_length_a 20.769502
_cell_length_b 17.194511
_cell_length_c 18.535456
_cell_angle_alpha 90.000000
_cell_angle_beta 90.000000
_cell_angle_gamma 90.000000
_cell_volume 6619.408564
_symmetry_space_group_name_H-M "C C C M"
_symmetry_group_IT_number 66
_symmetry_cell_setting 'orthorhombic'
loop_
_space_group_symop_operation_xyz
x,y,z
-x,-y,z
x,-y,1/2-z
-x,y,1/2-z
-x,-y,-z
x,y,-z
-x,y,1/2+z
x,-y,1/2+z
1/2+x,1/2+y,z
1/2-x,1/2-y,z
1/2+x,1/2-y,1/2-z
1/2-x,1/2+y,1/2-z
1/2-x,1/2-y,-z
1/2+x,1/2+y,-z
1/2-x,1/2+y,1/2+z
1/2+x,1/2-y,1/2+z
loop_
_atom_site_type_symbol
_atom_site_label
_atom_site_fract_x
_atom_site_fract_y
_atom_site_fract_z
Si Si1 0.592607 0.018968 0.670246
Si Si2 0.971334 0.683814 0.169642
Si Si3 0.420976 0.128764 0.417815
Si Si4 0.757420 0.511898 0.668758
Si Si5 0.726611 0.164011 0.916420
Si Si6 0.642780 0.234896 0.416679
Si Si7 0.740361 0.370840 0.581250
O O1 0.564563 0.102785 0.653091
O O2 0.569186 0.000000 0.750000
O O3 0.563197 0.954258 0.617853
O O4 0.668794 0.013428 0.662214
O O5 0.916733 0.743175 0.140322
O O6 0.000000 0.697643 0.250000
O O7 0.032957 0.692575 0.118243
O O8 0.439016 0.119450 0.500000
O O9 0.349525 0.160283 0.405804
O O10 0.732739 0.500000 0.750000
O O11 0.743299 0.598403 0.636885
O O12 0.719491 0.448599 0.622499
O O13 0.750000 0.250000 0.892768
O O14 0.745674 0.147263 0.000000
O O15 0.620465 0.218583 0.500000
O O16 0.678713 0.316454 0.413443
O O17 0.694052 0.169768 0.389602
O O18 0.755061 0.395151 0.500000
#
# Coordination Sequence:
#
# PCOD8275853 Si02
#       7
#    16  16  16  16  16  16  16
#     4  10  19  32  43  63 101 141 173 202 243 300
#     4  12  21  31  48  68 104 142 168 208 255 306
#     4  10  21  32  47  70  95 132 177 210 245 300
#     4  10  19  32  50  79 106 135 172 214 262 315
#     4   9  19  37  55  73 102 139 176 217 260 306
#     4   9  19  33  51  75 101 136 181 219 254 303
#     4   9  17  34  54  73 102 137 175 221 264 303
#
# _framework density 16.91994
#
# number of rings (size 3 to 8) (size 9 to 14) (size 15 to 20)
#    0.000    2.143    2.857    2.143    0.000    2.286 
#    5.143    0.000    0.000    0.000    0.000    1.000 
#    0.000    5.714    0.000    0.000    0.000    0.000 
#
# Total GULP energy -693877.071936 kJ/mol
# GULP energy per Si atom -12390.661999 kJ/mol
# Density = 1.688143 g / cm^3
# Si number density = 16.919940 Si / 1000 Ang^3
#
#
#
# Elastic Constant Matrix: (Units=GPa)
#
#
# Indices 1 2 3 4 5 6 
#
# 1 45.8208 18.1148 44.4575 0.0000 0.0000 0.0000
# 2 18.1148 92.1184 55.0545 0.0000 0.0000 0.0000
# 3 44.4575 55.0545 114.5157 0.0000 0.0000 0.0000
# 4 0.0000 0.0000 0.0000 23.6284 0.0000 0.0000
# 5 0.0000 0.0000 0.0000 0.0000 55.1040 0.0000
# 6 0.0000 0.0000 0.0000 0.0000 0.0000 22.1088
#
#
#
# Elastic Compliance Matrix: (Units=1/GPa)
#
#
# Indices 1 2 3 4 5 6 
#
# 1 0.035212 0.001748 -0.014510 0.000000 0.000000 0.000000
# 2 0.001748 0.015319 -0.008043 0.000000 0.000000 0.000000
# 3 -0.014510 -0.008043 0.018232 0.000000 0.000000 0.000000
# 4 0.000000 0.000000 0.000000 0.042322 0.000000 0.000000
# 5 0.000000 0.000000 0.000000 0.000000 0.018148 0.000000
# 6 0.000000 0.000000 0.000000 0.000000 0.000000 0.045231
#
#
# Mechanical properties :
#
#
# Convention : Reuss Voigt Hill
#
# Bulk Modulus (GPa) = 36.83011 54.18985 45.50998
# Shear Modulus (GPa) = 22.20985 29.15677 25.68331
#
# Velocity S-wave (km/s) = 3.62697 4.15567 3.90029
# Velocity P-wave (km/s) = 6.27331 7.42448 6.87304
#
# Compressibility (1/GPa) = 0.02715170
#
# Stress axis : x y z
#
# Youngs Moduli (GPa) = 28.39968 65.27860 54.84725
#
# Poissons Ratio (x) = -0.11409 0.79584
# Poissons Ratio (y) = -0.04963 0.44115
# Poissons Ratio (z) = 0.41208 0.52505
#
# Static dielectric constant tensor:
#      x y z
#    x 3.114530 0.000000 0.000000 
#    y 0.000000 3.275140 0.000000 
#    z 0.000000 0.000000 3.313290 
# 
# 
# High freq. dielectric constant tensor:
#      x y z
#    x 1.632480 0.000000 0.000000 
#    y 0.000000 1.626070 0.000000 
#    z 0.000000 0.000000 1.660780 
# 
# From -- ./inp_files/43068.got.cif
#   From: 2010.03.12/outbox.cif.g09.slc.cpg/sg66_22_cif.got.tgz:43068.got - 2010.04.10 21:57:39.
