data_PCOD8275119
_publ_section_title
;
Structure prediction by ZEFSAII (Michael W. Deem and Ramdas Pophale) SiO2 
 PCOD8275119
Probable space group: C M M M
;
_chemical_formula_sum "Si O2"
_cell_formula_units_Z 72
_cell_length_a 19.821191
_cell_length_b 9.151620
_cell_length_c 23.084618
_cell_angle_alpha 90.000000
_cell_angle_beta 90.000000
_cell_angle_gamma 90.000000
_cell_volume 4187.457551
_symmetry_space_group_name_H-M "C M M M"
_symmetry_group_IT_number 65
_symmetry_cell_setting 'orthorhombic'
loop_
_space_group_symop_operation_xyz
x,y,z
-x,-y,z
x,-y,-z
-x,y,-z
-x,-y,-z
x,y,-z
-x,y,z
x,-y,z
1/2+x,1/2+y,z
1/2-x,1/2-y,z
1/2+x,1/2-y,-z
1/2-x,1/2+y,-z
1/2-x,1/2-y,-z
1/2+x,1/2+y,-z
1/2-x,1/2+y,z
1/2+x,1/2-y,z
loop_
_atom_site_type_symbol
_atom_site_label
_atom_site_fract_x
_atom_site_fract_y
_atom_site_fract_z
Si Si1 0.580291 0.164942 0.275362
Si Si2 0.919525 0.834588 0.387299
Si Si3 0.080408 0.334568 0.500000
Si Si4 0.422665 0.329422 0.838583
Si Si5 0.817308 0.829011 0.934376
O O1 0.500000 0.165842 0.277356
O O2 0.608903 0.253531 0.330357
O O3 0.605412 0.242007 0.216726
O O4 0.608357 0.000000 0.277405
O O5 0.892124 0.749087 0.443449
O O6 0.000000 0.834841 0.386976
O O7 0.891886 0.000000 0.388412
O O8 0.108235 0.500000 0.500000
O O9 0.000000 0.335631 0.500000
O O10 0.500000 0.288648 0.852212
O O11 0.415096 0.500000 0.824540
O O12 0.379687 0.281529 0.894317
O O13 0.750000 0.750000 0.912214
O O14 0.803754 0.000000 0.930229
O O15 0.835028 0.781456 0.000000
#
# Coordination Sequence:
#
# PCOD8275119 Si02
#       5
#    16  16   8  16  16
#     4   9  16  25  37  54  77 105 137 174 217 262
#     4   9  15  22  32  46  67  98 136 175 214 257
#     4   9  15  21  29  43  65  95 134 177 216 255
#     4   9  17  29  45  65  88 114 146 183 221 262
#     4   9  18  32  49  68  90 117 147 179 218 264
#
# _framework density 17.194203999999999
#
# number of rings (size 3 to 8) (size 9 to 14) (size 15 to 20)
#    0.000    3.000    0.000    1.667    0.000    8.000 
#    0.000    2.222    0.000    0.000    0.000    6.222 
#    0.000    0.000    0.000    1.000    0.000   14.667 
#
# Total GULP energy -446361.474868 kJ/mol
# GULP energy per Si atom -12398.929857 kJ/mol
# Density = 1.715507 g / cm^3
# Si number density = 17.194204 Si / 1000 Ang^3
#
#
#
# Elastic Constant Matrix: (Units=GPa)
#
#
# Indices 1 2 3 4 5 6 
#
# 1 39.5567 29.0917 48.5600 0.0000 0.0000 0.0000
# 2 29.0917 116.6382 78.3720 0.0000 0.0000 0.0000
# 3 48.5600 78.3720 157.6171 0.0000 0.0000 0.0000
# 4 0.0000 0.0000 0.0000 30.8853 0.0000 0.0000
# 5 0.0000 0.0000 0.0000 0.0000 1.8004 0.0000
# 6 0.0000 0.0000 0.0000 0.0000 0.0000 13.8944
#
#
#
# Elastic Compliance Matrix: (Units=1/GPa)
#
#
# Indices 1 2 3 4 5 6 
#
# 1 0.041185 -0.002623 -0.011384 0.000000 0.000000 0.000000
# 2 -0.002623 0.013042 -0.005677 0.000000 0.000000 0.000000
# 3 -0.011384 -0.005677 0.012675 0.000000 0.000000 0.000000
# 4 0.000000 0.000000 0.000000 0.032378 0.000000 0.000000
# 5 0.000000 0.000000 0.000000 0.000000 0.555427 0.000000
# 6 0.000000 0.000000 0.000000 0.000000 0.000000 0.071971
#
#
# Mechanical properties :
#
#
# Convention : Reuss Voigt Hill
#
# Bulk Modulus (GPa) = 36.31975 69.53997 52.92986
# Shear Modulus (GPa) = 6.44976 19.83525 13.14250
#
# Velocity S-wave (km/s) = 1.93888 3.40016 2.76770
# Velocity P-wave (km/s) = 5.11678 7.47973 6.40811
#
# Compressibility (1/GPa) = 0.02753323
#
# Stress axis : x y z
#
# Youngs Moduli (GPa) = 24.28094 76.67458 78.89786
#
# Poissons Ratio (x) = 0.20110 0.89820
# Poissons Ratio (y) = 0.06368 0.44790
# Poissons Ratio (z) = 0.27642 0.43527
#
# Static dielectric constant tensor:
#      x y z
#    x 2.613290 0.000000 0.000000 
#    y 0.000000 3.349600 0.000000 
#    z 0.000000 0.000000 3.431530 
# 
# 
# High freq. dielectric constant tensor:
#      x y z
#    x 1.586690 0.000000 0.000000 
#    y 0.000000 1.673920 0.000000 
#    z 0.000000 0.000000 1.678660 
# 
# From -- ./inp_files/59257.got.cif
#   From: 2010.03.12/outbox.cif.g09.slc.cpg/sg65_30_cif.got.tgz:59257.got - 2010.04.10 20:52:16.
