data_PCOD8275948
_publ_section_title
;
Structure prediction by ZEFSAII (Michael W. Deem and Ramdas Pophale) SiO2 
 PCOD8275948
Probable space group: C C C M
;
_chemical_formula_sum "Si O2"
_cell_formula_units_Z 112
_cell_length_a 19.796879
_cell_length_b 12.424365
_cell_length_c 26.494857
_cell_angle_alpha 90.000000
_cell_angle_beta 90.000000
_cell_angle_gamma 90.000000
_cell_volume 6516.771749
_symmetry_space_group_name_H-M "C C C M"
_symmetry_group_IT_number 66
_symmetry_cell_setting 'orthorhombic'
loop_
_space_group_symop_operation_xyz
x,y,z
-x,-y,z
x,-y,1/2-z
-x,y,1/2-z
-x,-y,-z
x,y,-z
-x,y,1/2+z
x,-y,1/2+z
1/2+x,1/2+y,z
1/2-x,1/2-y,z
1/2+x,1/2-y,1/2-z
1/2-x,1/2+y,1/2-z
1/2-x,1/2-y,-z
1/2+x,1/2+y,-z
1/2-x,1/2+y,1/2+z
1/2+x,1/2-y,1/2+z
loop_
_atom_site_type_symbol
_atom_site_label
_atom_site_fract_x
_atom_site_fract_y
_atom_site_fract_z
Si Si1 0.087524 0.597723 0.159108
Si Si2 0.645272 0.180758 0.741332
Si Si3 0.261223 0.426498 0.941778
Si Si4 0.559023 0.850631 0.855061
Si Si5 0.715018 0.611884 0.732770
Si Si6 0.642506 0.762714 0.941417
Si Si7 0.229344 0.366219 0.621042
O O1 0.106592 0.605499 0.218331
O O2 0.073161 0.476652 0.142726
O O3 0.148004 0.636672 0.123129
O O4 0.020923 0.670345 0.151027
O O5 0.601864 0.196159 0.691255
O O6 0.656266 0.300185 0.763432
O O7 0.720065 0.132092 0.730327
O O8 0.328073 0.356157 0.929184
O O9 0.197298 0.353449 0.928019
O O10 0.259791 0.538482 0.912399
O O11 0.260304 0.457274 0.000000
O O12 0.578730 0.787667 0.906102
O O13 0.682034 0.500000 0.750000
O O14 0.741595 0.614200 0.676259
O O15 0.620832 0.769829 0.000000
O O16 0.250000 0.250000 0.598802
#
# Coordination Sequence:
#
# PCOD8275948 Si02
#       7
#    16  16  16  16  16  16  16
#     4  10  20  35  47  81 108 137 175 208 263 316
#     4  10  19  33  48  75 107 136 174 215 253 316
#     4   9  19  34  56  80 106 137 175 225 273 311
#     4  11  20  31  57  75 106 146 171 209 264 327
#     4  10  20  30  48  76 105 133 170 218 261 304
#     4   9  19  35  53  82 110 132 175 228 266 309
#     4  11  19  36  55  74 111 137 171 227 262 306
#
# _framework density 17.186422
#
# number of rings (size 3 to 8) (size 9 to 14) (size 15 to 20)
#    0.000    2.000    4.286    3.429    2.000    2.571 
#    0.000    2.143    0.000    4.286    0.000    2.000 
#    0.000    0.000    0.000    0.000    0.000    0.000 
#
# Total GULP energy -694199.624685 kJ/mol
# GULP energy per Si atom -12396.421869 kJ/mol
# Density = 1.714731 g / cm^3
# Si number density = 17.186422 Si / 1000 Ang^3
#
#
#
# Elastic Constant Matrix: (Units=GPa)
#
#
# Indices 1 2 3 4 5 6 
#
# 1 85.6920 27.8315 42.4476 0.0000 0.0000 0.0000
# 2 27.8315 105.3060 37.8313 0.0000 0.0000 0.0000
# 3 42.4476 37.8313 73.5244 0.0000 0.0000 0.0000
# 4 0.0000 0.0000 0.0000 -30.4707 0.0000 0.0000
# 5 0.0000 0.0000 0.0000 0.0000 9.5437 0.0000
# 6 0.0000 0.0000 0.0000 0.0000 0.0000 20.2971
#
#
#
# Elastic Compliance Matrix: (Units=1/GPa)
#
#
# Indices 1 2 3 4 5 6 
#
# 1 0.016456 -0.001148 -0.008910 0.000000 0.000000 0.000000
# 2 -0.001148 0.011730 -0.005372 0.000000 0.000000 0.000000
# 3 -0.008910 -0.005372 0.021509 0.000000 0.000000 0.000000
# 4 0.000000 0.000000 0.000000 -0.032818 0.000000 0.000000
# 5 0.000000 0.000000 0.000000 0.000000 0.104781 0.000000
# 6 0.000000 0.000000 0.000000 0.000000 0.000000 0.049268
#
#
# Mechanical properties :
#
#
# Convention : Reuss Voigt Hill
#
# Bulk Modulus (GPa) = 53.09571 53.41590 53.25580
# Shear Modulus (GPa) = 24.03105 10.30150 17.16627
#
# Velocity S-wave (km/s) = 3.74338 2.45092 3.16385
# Velocity P-wave (km/s) = 7.04592 6.25756 6.66341
#
# Compressibility (1/GPa) = 0.01883391
#
# Stress axis : x y z
#
# Youngs Moduli (GPa) = 60.76781 85.25377 46.49212
#
# Poissons Ratio (x) = 0.09791 0.41423
# Poissons Ratio (y) = 0.06979 0.24977
# Poissons Ratio (z) = 0.54142 0.45802
#
# Static dielectric constant tensor:
#      x y z
#    x 3.285570 0.000000 0.000000 
#    y 0.000000 3.253670 0.000000 
#    z 0.000000 0.000000 3.079930 
# 
# 
# High freq. dielectric constant tensor:
#      x y z
#    x 1.644520 0.000000 0.000000 
#    y 0.000000 1.660470 0.000000 
#    z 0.000000 0.000000 1.652790 
# 
# From -- ./inp_files/59541.got.cif
#   From: 2010.03.12/outbox.cif.g09.slc.cpg/sg66_30_cif.got.tgz:59541.got - 2010.04.10 21:57:39.
