data_PCOD8275994
_publ_section_title
;
Structure prediction by ZEFSAII (Michael W. Deem and Ramdas Pophale) SiO2 
 PCOD8275994
Probable space group: C C C M
;
_chemical_formula_sum "Si O2"
_cell_formula_units_Z 80
_cell_length_a 16.719785
_cell_length_b 8.561157
_cell_length_c 28.698681
_cell_angle_alpha 90.000000
_cell_angle_beta 90.000000
_cell_angle_gamma 90.000000
_cell_volume 4107.949413
_symmetry_space_group_name_H-M "C C C M"
_symmetry_group_IT_number 66
_symmetry_cell_setting 'orthorhombic'
loop_
_space_group_symop_operation_xyz
x,y,z
-x,-y,z
x,-y,1/2-z
-x,y,1/2-z
-x,-y,-z
x,y,-z
-x,y,1/2+z
x,-y,1/2+z
1/2+x,1/2+y,z
1/2-x,1/2-y,z
1/2+x,1/2-y,1/2-z
1/2-x,1/2+y,1/2-z
1/2-x,1/2-y,-z
1/2+x,1/2+y,-z
1/2-x,1/2+y,1/2+z
1/2+x,1/2-y,1/2+z
loop_
_atom_site_type_symbol
_atom_site_label
_atom_site_fract_x
_atom_site_fract_y
_atom_site_fract_z
Si Si1 0.587296 0.953872 0.643338
Si Si2 0.831759 0.055948 0.552221
Si Si3 0.144320 0.593954 0.447648
Si Si4 0.767705 0.569205 0.800534
Si Si5 0.827878 0.849707 0.364783
O O1 0.604322 0.770335 0.653371
O O2 0.500000 0.000000 0.661964
O O3 0.593418 0.990527 0.588143
O O4 0.651352 0.058773 0.670104
O O5 0.848334 0.993237 0.500000
O O6 0.874708 0.222528 0.559184
O O7 0.737738 0.070093 0.561660
O O8 0.865318 0.934522 0.590011
O O9 0.121570 0.541133 0.500000
O O10 0.782717 0.500000 0.750000
O O11 0.750000 0.750000 0.796243
O O12 0.694861 0.475317 0.825013
O O13 0.750000 0.750000 0.379407
#
# Coordination Sequence:
#
# PCOD8275994 Si02
#       5
#    16  16  16  16  16
#     4  11  23  37  55  84 120 151 183 232 285 333
#     4   9  16  29  53  81 107 143 196 243 273 322
#     4   9  17  31  52  78 112 151 188 231 284 332
#     4  11  22  41  66  86 109 142 185 234 281 344
#     4  10  19  33  55  84 111 144 191 227 277 336
#
# _framework density 19.474437000000002
#
# number of rings (size 3 to 8) (size 9 to 14) (size 15 to 20)
#    0.000    2.000    4.000    4.200    0.000    2.000 
#    0.000    4.000    0.000    3.600    0.000    0.000 
#    0.000    0.000    0.000    0.000    0.000    0.000 
#
# Total GULP energy -495969.038861 kJ/mol
# GULP energy per Si atom -12399.225972 kJ/mol
# Density = 1.943011 g / cm^3
# Si number density = 19.474437 Si / 1000 Ang^3
#
#
#
# Elastic Constant Matrix: (Units=GPa)
#
#
# Indices 1 2 3 4 5 6 
#
# 1 74.5904 39.2886 23.4578 0.0000 0.0000 0.0000
# 2 39.2886 119.9913 39.4316 0.0000 0.0000 0.0000
# 3 23.4578 39.4316 100.0994 0.0000 0.0000 0.0000
# 4 0.0000 0.0000 0.0000 39.8809 0.0000 0.0000
# 5 0.0000 0.0000 0.0000 0.0000 7.8759 0.0000
# 6 0.0000 0.0000 0.0000 0.0000 0.0000 21.4767
#
#
#
# Elastic Compliance Matrix: (Units=1/GPa)
#
#
# Indices 1 2 3 4 5 6 
#
# 1 0.016543 -0.004759 -0.002002 0.000000 0.000000 0.000000
# 2 -0.004759 0.010942 -0.003195 0.000000 0.000000 0.000000
# 3 -0.002002 -0.003195 0.011718 0.000000 0.000000 0.000000
# 4 0.000000 0.000000 0.000000 0.025075 0.000000 0.000000
# 5 0.000000 0.000000 0.000000 0.000000 0.126969 0.000000
# 6 0.000000 0.000000 0.000000 0.000000 0.000000 0.046562
#
#
# Mechanical properties :
#
#
# Convention : Reuss Voigt Hill
#
# Bulk Modulus (GPa) = 51.83832 55.44857 53.64345
# Shear Modulus (GPa) = 18.92860 26.68024 22.80442
#
# Velocity S-wave (km/s) = 3.12103 3.70538 3.42569
# Velocity P-wave (km/s) = 6.29795 6.84403 6.57666
#
# Compressibility (1/GPa) = 0.01929075
#
# Stress axis : x y z
#
# Youngs Moduli (GPa) = 60.44972 91.39060 85.33929
#
# Poissons Ratio (x) = 0.43489 0.17086
# Poissons Ratio (y) = 0.28766 0.27267
# Poissons Ratio (z) = 0.12103 0.29201
#
# Static dielectric constant tensor:
#      x y z
#    x 3.108620 0.000000 0.000000 
#    y 0.000000 3.813260 0.000000 
#    z 0.000000 0.000000 3.667860 
# 
# 
# High freq. dielectric constant tensor:
#      x y z
#    x 1.705120 0.000000 0.000000 
#    y 0.000000 1.767040 0.000000 
#    z 0.000000 0.000000 1.761610 
# 
# From -- ./inp_files/62384.got.cif
#   From: 2010.03.12/outbox.cif.g09.slc.cpg/sg66_32_cif.got.tgz:62384.got - 2010.04.10 21:57:39.
