data_PCOD8275049
_publ_section_title
;
Structure prediction by ZEFSAII (Michael W. Deem and Ramdas Pophale) SiO2 
 PCOD8275049
Probable space group: C M M M
;
_chemical_formula_sum "Si O2"
_cell_formula_units_Z 80
_cell_length_a 9.334352
_cell_length_b 19.474385
_cell_length_c 25.365595
_cell_angle_alpha 90.000000
_cell_angle_beta 90.000000
_cell_angle_gamma 90.000000
_cell_volume 4610.977253
_symmetry_space_group_name_H-M "C M M M"
_symmetry_group_IT_number 65
_symmetry_cell_setting 'orthorhombic'
loop_
_space_group_symop_operation_xyz
x,y,z
-x,-y,z
x,-y,-z
-x,y,-z
-x,-y,-z
x,y,-z
-x,y,z
x,-y,z
1/2+x,1/2+y,z
1/2-x,1/2-y,z
1/2+x,1/2-y,-z
1/2-x,1/2+y,-z
1/2-x,1/2-y,-z
1/2+x,1/2+y,-z
1/2-x,1/2+y,z
1/2+x,1/2-y,z
loop_
_atom_site_type_symbol
_atom_site_label
_atom_site_fract_x
_atom_site_fract_y
_atom_site_fract_z
Si Si1 0.667418 0.818493 0.643784
Si Si2 0.169644 0.576865 0.852013
Si Si3 0.332617 0.818301 0.939724
Si Si4 0.330025 0.923756 0.558242
Si Si5 0.667075 0.819209 0.763715
O O1 0.500000 0.805496 0.634557
O O2 0.750000 0.750000 0.629544
O O3 0.730936 0.875490 0.604254
O O4 0.698282 0.841744 0.703683
O O5 0.237210 0.500000 0.852018
O O6 0.219580 0.617814 0.904230
O O7 0.221868 0.618636 0.800487
O O8 0.000000 0.570397 0.851324
O O9 0.500000 0.803640 0.931387
O O10 0.250000 0.750000 0.921795
O O11 0.296779 0.837395 0.000000
O O12 0.284160 0.896838 0.500000
O O13 0.500000 0.926353 0.562108
O O14 0.267513 0.000000 0.567219
O O15 0.500000 0.804249 0.773159
O O16 0.750000 0.750000 0.778856
#
# Coordination Sequence:
#
# PCOD8275049 Si02
#       5
#    16  16  16  16  16
#     4   9  17  28  43  64  86 108 137 172 209 247
#     4   9  17  28  43  65  89 110 137 175 213 245
#     4   9  17  29  46  66  86 111 142 173 206 246
#     4   8  14  25  41  61  84 109 138 172 207 243
#     4   9  17  29  45  63  84 111 140 171 207 247
#
# _framework density 17.349900000000002
#
# number of rings (size 3 to 8) (size 9 to 14) (size 15 to 20)
#    0.000    3.200    0.000    1.200    0.000    1.600 
#    0.000    6.000    0.000    3.000    0.000    9.800 
#    0.000    0.000    0.000    0.000    0.000    0.000 
#
# Total GULP energy -495830.591603 kJ/mol
# GULP energy per Si atom -12395.764790 kJ/mol
# Density = 1.731041 g / cm^3
# Si number density = 17.349900 Si / 1000 Ang^3
#
#
#
# Elastic Constant Matrix: (Units=GPa)
#
#
# Indices 1 2 3 4 5 6 
#
# 1 20.4875 30.0803 23.3320 0.0000 0.0000 0.0000
# 2 30.0803 162.6273 107.6503 0.0000 0.0000 0.0000
# 3 23.3320 107.6503 140.1270 0.0000 0.0000 0.0000
# 4 0.0000 0.0000 0.0000 33.8088 0.0000 0.0000
# 5 0.0000 0.0000 0.0000 0.0000 13.6058 0.0000
# 6 0.0000 0.0000 0.0000 0.0000 0.0000 21.4721
#
#
#
# Elastic Compliance Matrix: (Units=1/GPa)
#
#
# Indices 1 2 3 4 5 6 
#
# 1 0.067779 -0.010308 -0.003366 0.000000 0.000000 0.000000
# 2 -0.010308 0.014079 -0.009100 0.000000 0.000000 0.000000
# 3 -0.003366 -0.009100 0.014688 0.000000 0.000000 0.000000
# 4 0.000000 0.000000 0.000000 0.029578 0.000000 0.000000
# 5 0.000000 0.000000 0.000000 0.000000 0.073498 0.000000
# 6 0.000000 0.000000 0.000000 0.000000 0.000000 0.046572
#
#
# Mechanical properties :
#
#
# Convention : Reuss Voigt Hill
#
# Bulk Modulus (GPa) = 19.60897 71.70746 45.65822
# Shear Modulus (GPa) = 16.19472 24.58928 20.39200
#
# Velocity S-wave (km/s) = 3.05850 3.76873 3.43204
# Velocity P-wave (km/s) = 4.87844 7.76902 6.48679
#
# Compressibility (1/GPa) = 0.05099706
#
# Stress axis : x y z
#
# Youngs Moduli (GPa) = 14.75377 71.02649 68.08444
#
# Poissons Ratio (x) = 0.73217 0.22920
# Poissons Ratio (y) = 0.15209 0.61955
# Poissons Ratio (z) = 0.04967 0.64632
#
# Static dielectric constant tensor:
#      x y z
#    x 2.822700 0.000000 0.000000 
#    y 0.000000 3.470740 0.000000 
#    z 0.000000 0.000000 3.498150 
# 
# 
# High freq. dielectric constant tensor:
#      x y z
#    x 1.621060 0.000000 0.000000 
#    y 0.000000 1.667160 0.000000 
#    z 0.000000 0.000000 1.685980 
# 
# From -- ./inp_files/68815.got.cif
#   From: 2010.03.12/outbox.cif.g09.slc.cpg/sg65_35_cif.got.tgz:68815.got - 2010.04.10 20:52:16.
