data_PCOD8275611
_publ_section_title
;
Structure prediction by ZEFSAII (Michael W. Deem and Ramdas Pophale) SiO2 
 PCOD8275611
Probable space group: C C C M
;
_chemical_formula_sum "Si O2"
_cell_formula_units_Z 88
_cell_length_a 20.500778
_cell_length_b 12.950268
_cell_length_c 17.100607
_cell_angle_alpha 90.000000
_cell_angle_beta 90.000000
_cell_angle_gamma 90.000000
_cell_volume 4540.049888
_symmetry_space_group_name_H-M "C C C M"
_symmetry_group_IT_number 66
_symmetry_cell_setting 'orthorhombic'
loop_
_space_group_symop_operation_xyz
x,y,z
-x,-y,z
x,-y,1/2-z
-x,y,1/2-z
-x,-y,-z
x,y,-z
-x,y,1/2+z
x,-y,1/2+z
1/2+x,1/2+y,z
1/2-x,1/2-y,z
1/2+x,1/2-y,1/2-z
1/2-x,1/2+y,1/2-z
1/2-x,1/2-y,-z
1/2+x,1/2+y,-z
1/2-x,1/2+y,1/2+z
1/2+x,1/2-y,1/2+z
loop_
_atom_site_type_symbol
_atom_site_label
_atom_site_fract_x
_atom_site_fract_y
_atom_site_fract_z
Si Si1 0.290335 0.087771 0.413681
Si Si2 0.250000 0.750000 0.692861
Si Si3 0.893827 0.759419 0.590993
Si Si4 0.509393 0.885536 0.907168
Si Si5 0.674001 0.401590 0.200763
Si Si6 0.346911 0.872837 0.412233
O O1 0.257908 0.092118 0.500000
O O2 0.327169 0.194870 0.397300
O O3 0.235102 0.063448 0.351230
O O4 0.344005 0.997345 0.410564
O O5 0.303493 0.689513 0.742521
O O6 0.290110 0.829354 0.640877
O O7 0.903931 0.789774 0.500000
O O8 0.884587 0.861312 0.644578
O O9 0.955183 0.694542 0.623987
O O10 0.580681 0.842272 0.882746
O O11 0.500000 0.000000 0.870679
O O12 0.503090 0.893595 0.000000
O O13 0.648545 0.500000 0.250000
O O14 0.335918 0.830973 0.500000
#
# Coordination Sequence:
#
# PCOD8275611 Si02
#       6
#    16   8  16  16  16  16
#     4  10  18  32  57  87 117 149 188 237 293 351
#     4  12  23  36  55  76 114 158 194 232 285 340
#     4  10  19  34  59  89 118 151 191 239 297 354
#     4   9  16  31  59  90 117 141 176 234 296 350
#     4  12  23  36  53  80 119 161 198 240 286 342
#     4  10  20  35  56  86 117 147 185 232 288 349
#
# _framework density 19.383047000000001
#
# number of rings (size 3 to 8) (size 9 to 14) (size 15 to 20)
#    0.000    1.636    5.455    0.818    0.000    1.455 
#    0.000    0.909    0.000    3.273    0.000    3.818 
#    0.000    0.000    0.000    0.000    0.000    0.000 
#
# Total GULP energy -545568.956585 kJ/mol
# GULP energy per Si atom -12399.294468 kJ/mol
# Density = 1.933893 g / cm^3
# Si number density = 19.383047 Si / 1000 Ang^3
#
#
#
# Elastic Constant Matrix: (Units=GPa)
#
#
# Indices 1 2 3 4 5 6 
#
# 1 79.8662 25.3484 32.0865 0.0000 0.0000 0.0000
# 2 25.3484 88.1797 41.4487 0.0000 0.0000 0.0000
# 3 32.0865 41.4487 78.0175 0.0000 0.0000 0.0000
# 4 0.0000 0.0000 0.0000 33.4528 0.0000 0.0000
# 5 0.0000 0.0000 0.0000 0.0000 13.7625 0.0000
# 6 0.0000 0.0000 0.0000 0.0000 0.0000 32.0261
#
#
#
# Elastic Compliance Matrix: (Units=1/GPa)
#
#
# Indices 1 2 3 4 5 6 
#
# 1 0.015237 -0.001912 -0.005251 0.000000 0.000000 0.000000
# 2 -0.001912 0.015355 -0.007371 0.000000 0.000000 0.000000
# 3 -0.005251 -0.007371 0.018893 0.000000 0.000000 0.000000
# 4 0.000000 0.000000 0.000000 0.029893 0.000000 0.000000
# 5 0.000000 0.000000 0.000000 0.000000 0.072661 0.000000
# 6 0.000000 0.000000 0.000000 0.000000 0.000000 0.031225
#
#
# Mechanical properties :
#
#
# Convention : Reuss Voigt Hill
#
# Bulk Modulus (GPa) = 48.97829 49.31452 49.14640
# Shear Modulus (GPa) = 22.81658 25.66026 24.23842
#
# Velocity S-wave (km/s) = 3.43467 3.64242 3.54007
# Velocity P-wave (km/s) = 6.40724 6.57168 6.48998
#
# Compressibility (1/GPa) = 0.02041721
#
# Stress axis : x y z
#
# Youngs Moduli (GPa) = 65.62819 65.12540 52.92844
#
# Poissons Ratio (x) = 0.12452 0.27792
# Poissons Ratio (y) = 0.12548 0.39015
# Poissons Ratio (z) = 0.34461 0.48006
#
# Static dielectric constant tensor:
#      x y z
#    x 3.382300 0.000000 0.000000 
#    y 0.000000 3.404330 0.000000 
#    z 0.000000 0.000000 3.499500 
# 
# 
# High freq. dielectric constant tensor:
#      x y z
#    x 1.738800 0.000000 0.000000 
#    y 0.000000 1.739030 0.000000 
#    z 0.000000 0.000000 1.745910 
# 
# From -- ./inp_files/38637.got.cif
#   From: 2010.03.12/outbox.cif.g09.slc.cpg/sg66_20_cif.got.tgz:38637.got - 2010.04.10 21:57:39.
