data_PCOD8275697
_publ_section_title
;
Structure prediction by ZEFSAII (Michael W. Deem and Ramdas Pophale) SiO2 
 PCOD8275697
Probable space group: C C C M
;
_chemical_formula_sum "Si O2"
_cell_formula_units_Z 60
_cell_length_a 15.866410
_cell_length_b 12.855194
_cell_length_c 16.114998
_cell_angle_alpha 90.000000
_cell_angle_beta 90.000000
_cell_angle_gamma 90.000000
_cell_volume 3286.908115
_symmetry_space_group_name_H-M "C C C M"
_symmetry_group_IT_number 66
_symmetry_cell_setting 'orthorhombic'
loop_
_space_group_symop_operation_xyz
x,y,z
-x,-y,z
x,-y,1/2-z
-x,y,1/2-z
-x,-y,-z
x,y,-z
-x,y,1/2+z
x,-y,1/2+z
1/2+x,1/2+y,z
1/2-x,1/2-y,z
1/2+x,1/2-y,1/2-z
1/2-x,1/2+y,1/2-z
1/2-x,1/2-y,-z
1/2+x,1/2+y,-z
1/2-x,1/2+y,1/2+z
1/2+x,1/2-y,1/2+z
loop_
_atom_site_type_symbol
_atom_site_label
_atom_site_fract_x
_atom_site_fract_y
_atom_site_fract_z
Si Si1 0.250000 0.250000 0.784845
Si Si2 0.403864 0.032977 0.500000
Si Si3 0.644559 0.382622 0.163616
Si Si4 0.698505 0.966047 0.839413
Si Si5 0.650437 0.264130 0.000000
Si Si6 0.000000 0.000000 0.750000
O O1 0.323769 0.295110 0.727162
O O2 0.286359 0.157942 0.842156
O O3 0.398625 0.156384 0.500000
O O4 0.500000 0.000000 0.500000
O O5 0.361243 0.990914 0.583791
O O6 0.713082 0.473647 0.151484
O O7 0.556842 0.428343 0.192635
O O8 0.621667 0.328631 0.078460
O O9 0.658162 0.000000 0.750000
O O10 0.750000 0.250000 0.000000
#
# Coordination Sequence:
#
# PCOD8275697 Si02
#       6
#     8   8  16  16   8   4
#     4  10  18  36  64  88 120 180 200 243 336 383
#     4  12  26  41  60 100 128 153 228 281 292 383
#     4  11  21  39  66  95 126 167 221 260 312 400
#     4  10  20  40  65  89 125 173 207 255 331 384
#     4  12  20  41  72  84 118 184 213 246 333 398
#     4  12  24  38  60 104 132 146 216 288 300 370
#
# _framework density 18.254238000000001
#
# number of rings (size 3 to 8) (size 9 to 14) (size 15 to 20)
#    0.000    1.067    8.000    1.600    0.000    3.733 
#    0.000    0.000    0.000    0.000    0.000    0.000 
#    0.000    0.000    0.000    0.000    0.000    0.000 
#
# Total GULP energy -372022.134209 kJ/mol
# GULP energy per Si atom -12400.737807 kJ/mol
# Density = 1.821269 g / cm^3
# Si number density = 18.254238 Si / 1000 Ang^3
#
#
#
# Elastic Constant Matrix: (Units=GPa)
#
#
# Indices 1 2 3 4 5 6 
#
# 1 143.1897 68.0066 76.7229 0.0000 0.0000 0.0000
# 2 68.0066 172.1760 81.3291 0.0000 0.0000 0.0000
# 3 76.7229 81.3291 167.3163 0.0000 0.0000 0.0000
# 4 0.0000 0.0000 0.0000 34.9736 0.0000 0.0000
# 5 0.0000 0.0000 0.0000 0.0000 243.4088 0.0000
# 6 0.0000 0.0000 0.0000 0.0000 0.0000 35.9211
#
#
#
# Elastic Compliance Matrix: (Units=1/GPa)
#
#
# Indices 1 2 3 4 5 6 
#
# 1 0.009911 -0.002295 -0.003429 0.000000 0.000000 0.000000
# 2 -0.002295 0.008070 -0.002871 0.000000 0.000000 0.000000
# 3 -0.003429 -0.002871 0.008944 0.000000 0.000000 0.000000
# 4 0.000000 0.000000 0.000000 0.028593 0.000000 0.000000
# 5 0.000000 0.000000 0.000000 0.000000 0.004108 0.000000
# 6 0.000000 0.000000 0.000000 0.000000 0.000000 0.027839
#
#
# Mechanical properties :
#
#
# Convention : Reuss Voigt Hill
#
# Bulk Modulus (GPa) = 102.70456 103.86657 103.28557
# Shear Modulus (GPa) = 46.33881 79.96894 63.15387
#
# Velocity S-wave (km/s) = 5.04384 6.62597 5.88829
# Velocity P-wave (km/s) = 9.50295 10.74996 10.14563
#
# Compressibility (1/GPa) = 0.00973667
#
# Stress axis : x y z
#
# Youngs Moduli (GPa) = 100.89690 123.91005 111.80074
#
# Poissons Ratio (x) = 0.28436 0.38339
# Poissons Ratio (y) = 0.23155 0.32093
# Poissons Ratio (z) = 0.34600 0.35569
#
# Static dielectric constant tensor:
#      x y z
#    x 3.107170 0.000000 0.000000 
#    y 0.000000 3.746940 0.000000 
#    z 0.000000 0.000000 4.192970 
# 
# 
# High freq. dielectric constant tensor:
#      x y z
#    x 1.685240 0.000000 0.000000 
#    y 0.000000 1.728050 0.000000 
#    z 0.000000 0.000000 1.717420 
# 
# From -- ./inp_files/27794.got.cif
#   From: 2010.03.12/outbox.cif.g09.slc.cpg/sg66_14_cif.got.tgz:27794.got - 2010.04.10 21:57:39.
