data_PCOD8275112
_publ_section_title
;
Structure prediction by ZEFSAII (Michael W. Deem and Ramdas Pophale) SiO2 
 PCOD8275112
Probable space group: C M M M
;
_chemical_formula_sum "Si O2"
_cell_formula_units_Z 104
_cell_length_a 20.283471
_cell_length_b 32.382144
_cell_length_c 9.770802
_cell_angle_alpha 90.000000
_cell_angle_beta 90.000000
_cell_angle_gamma 90.000000
_cell_volume 6417.680435
_symmetry_space_group_name_H-M "C M M M"
_symmetry_group_IT_number 65
_symmetry_cell_setting 'orthorhombic'
loop_
_space_group_symop_operation_xyz
x,y,z
-x,-y,z
x,-y,-z
-x,y,-z
-x,-y,-z
x,y,-z
-x,y,z
x,-y,z
1/2+x,1/2+y,z
1/2-x,1/2-y,z
1/2+x,1/2-y,-z
1/2-x,1/2+y,-z
1/2-x,1/2-y,-z
1/2+x,1/2+y,-z
1/2-x,1/2+y,z
1/2+x,1/2-y,z
loop_
_atom_site_type_symbol
_atom_site_label
_atom_site_fract_x
_atom_site_fract_y
_atom_site_fract_z
Si Si1 0.073470 0.500000 0.162912
Si Si2 0.835256 0.427580 0.157842
Si Si3 0.805764 0.355322 0.656423
Si Si4 0.313124 0.453156 0.157087
Si Si5 0.073838 0.801945 0.337369
Si Si6 0.679480 0.237703 0.339068
Si Si7 0.342665 0.379430 0.657994
O O1 0.110478 0.540783 0.214855
O O2 0.000000 0.500000 0.223285
O O3 0.074359 0.500000 0.000000
O O4 0.844271 0.386379 0.245548
O O5 0.764660 0.448560 0.180615
O O6 0.846665 0.416085 0.000000
O O7 0.821251 0.367038 0.500000
O O8 0.833642 0.310199 0.692374
O O9 0.727512 0.357453 0.683352
O O10 0.333424 0.500000 0.196153
O O11 0.351846 0.420883 0.252778
O O12 0.331520 0.443701 0.000000
O O13 0.072230 0.798557 0.500000
O O14 0.120381 0.765516 0.276451
O O15 0.102247 0.846663 0.294903
O O16 0.000000 0.797183 0.276938
O O17 0.683110 0.246460 0.500000
O O18 0.750000 0.250000 0.273341
O O19 0.351096 0.392116 0.500000
#
# Coordination Sequence:
#
# PCOD8275112 Si02
#       7
#     8  16  16  16  16  16  16
#     4   9  16  28  47  65  81 113 158 187 208 256
#     4   9  16  28  44  63  87 112 142 183 223 256
#     4   9  16  26  43  66  89 113 143 180 221 262
#     4   9  16  27  44  65  89 113 140 179 223 263
#     4   9  16  26  42  65  90 116 148 184 220 259
#     4   9  14  24  42  62  86 116 148 180 214 258
#     4   9  16  26  42  66  91 113 142 181 221 258
#
# _framework density 16.205231000000001
#
# number of rings (size 3 to 8) (size 9 to 14) (size 15 to 20)
#    0.000    3.000    2.308    0.000    0.000    0.308 
#    0.000    1.154    0.000    4.154    0.000    3.231 
#    0.000    0.000    0.000    0.000    0.000    0.000 
#
# Total GULP energy -644626.331861 kJ/mol
# GULP energy per Si atom -12396.660228 kJ/mol
# Density = 1.616835 g / cm^3
# Si number density = 16.205231 Si / 1000 Ang^3
#
#
#
# Elastic Constant Matrix: (Units=GPa)
#
#
# Indices 1 2 3 4 5 6 
#
# 1 98.0758 71.6349 26.8871 0.0000 0.0000 0.0000
# 2 71.6349 143.4526 52.8614 0.0000 0.0000 0.0000
# 3 26.8871 52.8614 42.9555 0.0000 0.0000 0.0000
# 4 0.0000 0.0000 0.0000 12.6543 0.0000 0.0000
# 5 0.0000 0.0000 0.0000 0.0000 9.8370 0.0000
# 6 0.0000 0.0000 0.0000 0.0000 0.0000 24.5040
#
#
#
# Elastic Compliance Matrix: (Units=1/GPa)
#
#
# Indices 1 2 3 4 5 6 
#
# 1 0.016053 -0.007893 -0.000335 0.000000 0.000000 0.000000
# 2 -0.007893 0.016636 -0.015532 0.000000 0.000000 0.000000
# 3 -0.000335 -0.015532 0.042603 0.000000 0.000000 0.000000
# 4 0.000000 0.000000 0.000000 0.079024 0.000000 0.000000
# 5 0.000000 0.000000 0.000000 0.000000 0.101657 0.000000
# 6 0.000000 0.000000 0.000000 0.000000 0.000000 0.040810
#
#
# Mechanical properties :
#
#
# Convention : Reuss Voigt Hill
#
# Bulk Modulus (GPa) = 36.00675 65.25008 50.62841
# Shear Modulus (GPa) = 14.14192 18.27243 16.20718
#
# Velocity S-wave (km/s) = 2.95731 3.36156 3.16590
# Velocity P-wave (km/s) = 5.82481 7.44440 6.68384
#
# Compressibility (1/GPa) = 0.02777257
#
# Stress axis : x y z
#
# Youngs Moduli (GPa) = 62.29369 60.11215 23.47258
#
# Poissons Ratio (x) = 0.47445 0.00787
# Poissons Ratio (y) = 0.49167 0.36457
# Poissons Ratio (z) = 0.02088 0.93363
#
# Static dielectric constant tensor:
#      x y z
#    x 3.041340 0.000000 0.000000 
#    y 0.000000 3.181330 0.000000 
#    z 0.000000 0.000000 2.730950 
# 
# 
# High freq. dielectric constant tensor:
#      x y z
#    x 1.598460 0.000000 0.000000 
#    y 0.000000 1.633890 0.000000 
#    z 0.000000 0.000000 1.579710 
# 
# From -- ./inp_files/29727.got.cif
#   From: 2010.03.12/outbox.cif.g09.slc.cpg/sg65_15_cif.got.tgz:29727.got - 2010.04.10 20:52:16.
