data_PCOD8275030
_publ_section_title
;
Structure prediction by ZEFSAII (Michael W. Deem and Ramdas Pophale) SiO2 
 PCOD8275030
Probable space group: C M M M
;
_chemical_formula_sum "Si O2"
_cell_formula_units_Z 88
_cell_length_a 19.625215
_cell_length_b 9.698070
_cell_length_c 28.279026
_cell_angle_alpha 90.000000
_cell_angle_beta 90.000000
_cell_angle_gamma 90.000000
_cell_volume 5382.253948
_symmetry_space_group_name_H-M "C M M M"
_symmetry_group_IT_number 65
_symmetry_cell_setting 'orthorhombic'
loop_
_space_group_symop_operation_xyz
x,y,z
-x,-y,z
x,-y,-z
-x,y,-z
-x,-y,-z
x,y,-z
-x,y,z
x,-y,z
1/2+x,1/2+y,z
1/2-x,1/2-y,z
1/2+x,1/2-y,-z
1/2-x,1/2+y,-z
1/2-x,1/2-y,-z
1/2+x,1/2+y,-z
1/2-x,1/2+y,z
1/2+x,1/2-y,z
loop_
_atom_site_type_symbol
_atom_site_label
_atom_site_fract_x
_atom_site_fract_y
_atom_site_fract_z
Si Si1 0.813662 0.845632 0.000000
Si Si2 0.318436 0.338872 0.102603
Si Si3 0.075729 0.163844 0.179527
Si Si4 0.581022 0.346773 0.283612
Si Si5 0.686454 0.840802 0.445935
Si Si6 0.421781 0.840495 0.368306
O O1 0.750000 0.750000 0.000000
O O2 0.852896 0.820742 0.049905
O O3 0.784740 0.000000 0.000000
O O4 0.301715 0.500000 0.112426
O O5 0.250000 0.250000 0.107516
O O6 0.372804 0.279241 0.139937
O O7 0.103596 0.206824 0.231595
O O8 0.000000 0.225570 0.170441
O O9 0.071244 0.000000 0.177063
O O10 0.500000 0.351674 0.284145
O O11 0.610366 0.500000 0.293565
O O12 0.608314 0.244218 0.323929
O O13 0.667101 0.806696 0.500000
O O14 0.750000 0.750000 0.428796
O O15 0.620915 0.802151 0.414788
O O16 0.706978 0.000000 0.439714
O O17 0.500000 0.801021 0.379102
O O18 0.414584 0.000000 0.354946
#
# Coordination Sequence:
#
# PCOD8275030 Si02
#       6
#     8  16  16  16  16  16
#     4   8  14  24  39  59  81 107 137 168 206 250
#     4   9  16  27  43  62  84 109 139 174 210 249
#     4   8  14  26  44  63  83 110 142 173 207 249
#     4   8  14  26  44  63  83 111 144 172 203 248
#     4   9  18  32  48  65  87 116 145 171 205 251
#     4   9  17  29  46  68  90 110 137 176 215 246
#
# _framework density 16.350027999999998
#
# number of rings (size 3 to 8) (size 9 to 14) (size 15 to 20)
#    0.000    3.455    0.000    1.091    0.000    1.091 
#    0.000    4.091    0.000    8.727    0.000    5.091 
#    0.000    7.273    0.000    0.000    0.000    0.000 
#
# Total GULP energy -545166.209260 kJ/mol
# GULP energy per Si atom -12390.141120 kJ/mol
# Density = 1.631281 g / cm^3
# Si number density = 16.350028 Si / 1000 Ang^3
#
#
#
# Elastic Constant Matrix: (Units=GPa)
#
#
# Indices 1 2 3 4 5 6 
#
# 1 71.9462 33.2630 68.8186 0.0000 0.0000 0.0000
# 2 33.2630 46.1635 50.7586 0.0000 0.0000 0.0000
# 3 68.8186 50.7586 147.6867 0.0000 0.0000 0.0000
# 4 0.0000 0.0000 0.0000 22.6200 0.0000 0.0000
# 5 0.0000 0.0000 0.0000 0.0000 24.7394 0.0000
# 6 0.0000 0.0000 0.0000 0.0000 0.0000 18.4360
#
#
#
# Elastic Compliance Matrix: (Units=1/GPa)
#
#
# Indices 1 2 3 4 5 6 
#
# 1 0.027276 -0.009128 -0.009573 0.000000 0.000000 0.000000
# 2 -0.009128 0.037876 -0.008764 0.000000 0.000000 0.000000
# 3 -0.009573 -0.008764 0.014244 0.000000 0.000000 0.000000
# 4 0.000000 0.000000 0.000000 0.044209 0.000000 0.000000
# 5 0.000000 0.000000 0.000000 0.000000 0.040421 0.000000
# 6 0.000000 0.000000 0.000000 0.000000 0.000000 0.054242
#
#
# Mechanical properties :
#
#
# Convention : Reuss Voigt Hill
#
# Bulk Modulus (GPa) = 40.87317 63.49742 52.18529
# Shear Modulus (GPa) = 17.77127 20.68949 19.23038
#
# Velocity S-wave (km/s) = 3.30043 3.56112 3.43325
# Velocity P-wave (km/s) = 6.29102 7.47190 6.90675
#
# Compressibility (1/GPa) = 0.02446593
#
# Stress axis : x y z
#
# Youngs Moduli (GPa) = 36.66214 26.40202 70.20526
#
# Poissons Ratio (x) = 0.24100 0.67206
# Poissons Ratio (y) = 0.33465 0.61529
# Poissons Ratio (z) = 0.35096 0.23139
#
# Static dielectric constant tensor:
#      x y z
#    x 2.952920 0.000000 0.000000 
#    y 0.000000 3.022480 0.000000 
#    z 0.000000 0.000000 3.624100 
# 
# 
# High freq. dielectric constant tensor:
#      x y z
#    x 1.591470 0.000000 0.000000 
#    y 0.000000 1.612030 0.000000 
#    z 0.000000 0.000000 1.645750 
# 
# From -- ./inp_files/61490.got.cif
#   From: 2010.03.12/outbox.cif.g09.slc.cpg/sg65_31_cif.got.tgz:61490.got - 2010.04.10 20:52:16.
