data_PCOD8275004
_publ_section_title
;
Structure prediction by ZEFSAII (Michael W. Deem and Ramdas Pophale) SiO2 
 PCOD8275004
Probable space group: C M M M
;
_chemical_formula_sum "Si O2"
_cell_formula_units_Z 80
_cell_length_a 29.776037
_cell_length_b 9.364273
_cell_length_c 15.140619
_cell_angle_alpha 90.000000
_cell_angle_beta 90.000000
_cell_angle_gamma 90.000000
_cell_volume 4221.673018
_symmetry_space_group_name_H-M "C M M M"
_symmetry_group_IT_number 65
_symmetry_cell_setting 'orthorhombic'
loop_
_space_group_symop_operation_xyz
x,y,z
-x,-y,z
x,-y,-z
-x,y,-z
-x,-y,-z
x,y,-z
-x,y,z
x,-y,z
1/2+x,1/2+y,z
1/2-x,1/2-y,z
1/2+x,1/2-y,-z
1/2-x,1/2+y,-z
1/2-x,1/2-y,-z
1/2+x,1/2+y,-z
1/2-x,1/2+y,z
1/2+x,1/2-y,z
loop_
_atom_site_type_symbol
_atom_site_label
_atom_site_fract_x
_atom_site_fract_y
_atom_site_fract_z
Si Si1 0.292242 0.161762 0.105101
Si Si2 0.050010 0.169189 0.245093
Si Si3 0.379161 0.333998 0.898185
Si Si4 0.611017 0.329313 0.401775
Si Si5 0.290228 0.657340 0.395266
O O1 0.250000 0.250000 0.143442
O O2 0.337369 0.241334 0.136170
O O3 0.291604 0.000000 0.141977
O O4 0.289963 0.160324 0.000000
O O5 0.077299 0.212679 0.157560
O O6 0.074803 0.230608 0.332239
O O7 0.000000 0.235423 0.239450
O O8 0.046994 0.000000 0.252738
O O9 0.367055 0.500000 0.883219
O O10 0.390520 0.302694 0.000000
O O11 0.598232 0.273737 0.500000
O O12 0.612411 0.500000 0.402057
O O13 0.660817 0.275120 0.373415
O O14 0.284910 0.648020 0.500000
O O15 0.286140 0.500000 0.353480
O O16 0.250000 0.750000 0.353156
#
# Coordination Sequence:
#
# PCOD8275004 Si02
#       5
#    16  16  16  16  16
#     4   9  16  27  46  71  97 125 157 191 228 273
#     4   9  17  28  43  64  88 116 154 198 239 278
#     4   9  17  29  45  66  94 126 157 190 229 273
#     4   8  14  25  41  62  89 118 146 182 231 280
#     4   8  13  22  38  60  85 112 139 168 207 256
#
# _framework density 18.949833000000002
#
# number of rings (size 3 to 8) (size 9 to 14) (size 15 to 20)
#    0.000    3.400    0.000    1.800    0.000    3.200 
#    0.000    5.000    0.000    4.200    0.000    2.800 
#    0.000    0.000    0.000    9.600    0.000   10.000 
#
# Total GULP energy -495765.242334 kJ/mol
# GULP energy per Si atom -12394.131058 kJ/mol
# Density = 1.890670 g / cm^3
# Si number density = 18.949833 Si / 1000 Ang^3
#
#
#
# Elastic Constant Matrix: (Units=GPa)
#
#
# Indices 1 2 3 4 5 6 
#
# 1 199.8730 54.1702 71.8092 0.0000 0.0000 0.0000
# 2 54.1702 60.7678 24.0314 0.0000 0.0000 0.0000
# 3 71.8092 24.0314 76.8198 0.0000 0.0000 0.0000
# 4 0.0000 0.0000 0.0000 7.2461 0.0000 0.0000
# 5 0.0000 0.0000 0.0000 0.0000 17.6129 0.0000
# 6 0.0000 0.0000 0.0000 0.0000 0.0000 22.1418
#
#
#
# Elastic Compliance Matrix: (Units=1/GPa)
#
#
# Indices 1 2 3 4 5 6 
#
# 1 0.008782 -0.005229 -0.006573 0.000000 0.000000 0.000000
# 2 -0.005229 0.021893 -0.001961 0.000000 0.000000 0.000000
# 3 -0.006573 -0.001961 0.019776 0.000000 0.000000 0.000000
# 4 0.000000 0.000000 0.000000 0.138005 0.000000 0.000000
# 5 0.000000 0.000000 0.000000 0.000000 0.056776 0.000000
# 6 0.000000 0.000000 0.000000 0.000000 0.000000 0.045164
#
#
# Mechanical properties :
#
#
# Convention : Reuss Voigt Hill
#
# Bulk Modulus (GPa) = 43.62245 70.83136 57.22690
# Shear Modulus (GPa) = 15.35803 21.89682 18.62743
#
# Velocity S-wave (km/s) = 2.84994 3.40298 3.13866
# Velocity P-wave (km/s) = 5.82233 7.27323 6.58784
#
# Compressibility (1/GPa) = 0.02292398
#
# Stress axis : x y z
#
# Youngs Moduli (GPa) = 113.86900 45.67717 50.56762
#
# Poissons Ratio (x) = 0.23885 0.33240
# Poissons Ratio (y) = 0.59542 0.09915
# Poissons Ratio (z) = 0.74851 0.08956
#
# Static dielectric constant tensor:
#      x y z
#    x 3.758620 0.000000 0.000000 
#    y 0.000000 3.204550 0.000000 
#    z 0.000000 0.000000 3.316530 
# 
# 
# High freq. dielectric constant tensor:
#      x y z
#    x 1.740340 0.000000 0.000000 
#    y 0.000000 1.681560 0.000000 
#    z 0.000000 0.000000 1.721410 
# 
# From -- ./inp_files/46680.got.cif
#   From: 2010.03.12/outbox.cif.g09.slc.cpg/sg65_24_cif.got.tgz:46680.got - 2010.04.10 20:52:16.
