data_PCOD8275028
_publ_section_title
;
Structure prediction by ZEFSAII (Michael W. Deem and Ramdas Pophale) SiO2 
 PCOD8275028
Probable space group: C M M M
;
_chemical_formula_sum "Si O2"
_cell_formula_units_Z 112
_cell_length_a 16.088017
_cell_length_b 24.922926
_cell_length_c 18.523446
_cell_angle_alpha 90.000000
_cell_angle_beta 90.000000
_cell_angle_gamma 90.000000
_cell_volume 7427.169377
_symmetry_space_group_name_H-M "C M M M"
_symmetry_group_IT_number 65
_symmetry_cell_setting 'orthorhombic'
loop_
_space_group_symop_operation_xyz
x,y,z
-x,-y,z
x,-y,-z
-x,y,-z
-x,-y,-z
x,y,-z
-x,y,z
x,-y,z
1/2+x,1/2+y,z
1/2-x,1/2-y,z
1/2+x,1/2-y,-z
1/2-x,1/2+y,-z
1/2-x,1/2-y,-z
1/2+x,1/2+y,-z
1/2-x,1/2+y,z
1/2+x,1/2-y,z
loop_
_atom_site_type_symbol
_atom_site_label
_atom_site_fract_x
_atom_site_fract_y
_atom_site_fract_z
Si Si1 0.095655 0.560530 0.168724
Si Si2 0.676891 0.877675 0.709449
Si Si3 0.311804 0.704477 0.310080
Si Si4 0.905536 0.134459 0.582880
Si Si5 0.402796 0.840353 0.921239
Si Si6 0.095302 0.715714 0.779746
Si Si7 0.249176 0.062202 0.582954
O O1 0.113292 0.500000 0.144709
O O2 0.158775 0.575379 0.233357
O O3 0.113344 0.597555 0.099373
O O4 0.000000 0.568300 0.195246
O O5 0.764040 0.846875 0.722919
O O6 0.606368 0.831608 0.719400
O O7 0.682775 0.904900 0.630156
O O8 0.250000 0.750000 0.343219
O O9 0.375848 0.686110 0.371724
O O10 0.359711 0.729842 0.242479
O O11 0.901934 0.152491 0.500000
O O12 0.844361 0.084030 0.596515
O O13 0.000000 0.118252 0.604708
O O14 0.500000 0.829132 0.926425
O O15 0.366166 0.803359 0.856882
O O16 0.361699 0.828628 0.000000
O O17 0.000000 0.729278 0.787836
O O18 0.275778 0.070066 0.500000
O O19 0.249680 0.000000 0.605344
#
# Coordination Sequence:
#
# PCOD8275028 Si02
#       7
#    16  16  16  16  16  16  16
#     4   9  16  25  40  60  79 103 132 160 192 229
#     4   9  16  27  41  57  78 102 129 163 193 227
#     4   9  17  27  41  58  77 103 132 162 194 233
#     4   9  17  28  41  58  79 100 126 163 202 236
#     4   8  14  24  38  58  81 101 125 159 194 227
#     4   9  16  27  43  59  77 103 133 164 196 230
#     4   9  17  28  42  59  78 103 132 160 195 236
#
# _framework density 15.079769000000001
#
# number of rings (size 3 to 8) (size 9 to 14) (size 15 to 20)
#    0.000    3.143    0.000    2.143    0.000    0.857 
#    0.000    5.000    0.000   13.286    0.000    5.000 
#    0.000    0.000    0.000    0.000    0.000    0.000 
#
# Total GULP energy -693772.000310 kJ/mol
# GULP energy per Si atom -12388.785720 kJ/mol
# Density = 1.504545 g / cm^3
# Si number density = 15.079769 Si / 1000 Ang^3
#
#
#
# Elastic Constant Matrix: (Units=GPa)
#
#
# Indices 1 2 3 4 5 6 
#
# 1 39.0011 19.1496 34.1183 0.0000 0.0000 0.0000
# 2 19.1496 81.9579 51.7616 0.0000 0.0000 0.0000
# 3 34.1183 51.7616 97.8664 0.0000 0.0000 0.0000
# 4 0.0000 0.0000 0.0000 17.3889 0.0000 0.0000
# 5 0.0000 0.0000 0.0000 0.0000 15.3354 0.0000
# 6 0.0000 0.0000 0.0000 0.0000 0.0000 16.7611
#
#
#
# Elastic Compliance Matrix: (Units=1/GPa)
#
#
# Indices 1 2 3 4 5 6 
#
# 1 0.036922 -0.000747 -0.012477 0.000000 0.000000 0.000000
# 2 -0.000747 0.018336 -0.009438 0.000000 0.000000 0.000000
# 3 -0.012477 -0.009438 0.019559 0.000000 0.000000 0.000000
# 4 0.000000 0.000000 0.000000 0.057508 0.000000 0.000000
# 5 0.000000 0.000000 0.000000 0.000000 0.065208 0.000000
# 6 0.000000 0.000000 0.000000 0.000000 0.000000 0.059662
#
#
# Mechanical properties :
#
#
# Convention : Reuss Voigt Hill
#
# Bulk Modulus (GPa) = 33.90444 47.65382 40.77913
# Shear Modulus (GPa) = 16.00769 17.48348 16.74558
#
# Velocity S-wave (km/s) = 3.26165 3.40869 3.33598
# Velocity P-wave (km/s) = 6.05943 6.86746 6.47606
#
# Compressibility (1/GPa) = 0.02949466
#
# Stress axis : x y z
#
# Youngs Moduli (GPa) = 27.08439 54.53610 51.12674
#
# Poissons Ratio (x) = 0.04074 0.63789
# Poissons Ratio (y) = 0.02023 0.48252
# Poissons Ratio (z) = 0.33792 0.51470
#
# Static dielectric constant tensor:
#      x y z
#    x 2.831960 0.000000 0.000000 
#    y 0.000000 2.939810 0.000000 
#    z 0.000000 0.000000 3.040730 
# 
# 
# High freq. dielectric constant tensor:
#      x y z
#    x 1.554950 0.000000 0.000000 
#    y 0.000000 1.577250 0.000000 
#    z 0.000000 0.000000 1.565230 
# 
# From -- ./inp_files/55025.got.cif
#   From: 2010.03.12/outbox.cif.g09.slc.cpg/sg65_28_cif.got.tgz:55025.got - 2010.04.10 20:52:16.
