data_PCOD8275179
_publ_section_title
;
Structure prediction by ZEFSAII (Michael W. Deem and Ramdas Pophale) SiO2 
 PCOD8275179
Probable space group: C M M M
;
_chemical_formula_sum "Si O2"
_cell_formula_units_Z 72
_cell_length_a 13.056832
_cell_length_b 34.616853
_cell_length_c 9.528554
_cell_angle_alpha 90.000000
_cell_angle_beta 90.000000
_cell_angle_gamma 90.000000
_cell_volume 4306.777144
_symmetry_space_group_name_H-M "C M M M"
_symmetry_group_IT_number 65
_symmetry_cell_setting 'orthorhombic'
loop_
_space_group_symop_operation_xyz
x,y,z
-x,-y,z
x,-y,-z
-x,y,-z
-x,-y,-z
x,y,-z
-x,y,z
x,-y,z
1/2+x,1/2+y,z
1/2-x,1/2-y,z
1/2+x,1/2-y,-z
1/2-x,1/2+y,-z
1/2-x,1/2-y,-z
1/2+x,1/2+y,-z
1/2-x,1/2+y,z
1/2+x,1/2-y,z
loop_
_atom_site_type_symbol
_atom_site_label
_atom_site_fract_x
_atom_site_fract_y
_atom_site_fract_z
Si Si1 0.620923 0.500000 0.842012
Si Si2 0.327211 0.215727 0.651223
Si Si3 0.197847 0.371134 0.337414
Si Si4 0.381924 0.426651 0.336966
Si Si5 0.000000 0.283379 0.847128
Si Si6 0.500000 0.125001 0.160022
O O1 0.500000 0.500000 0.851055
O O2 0.656649 0.462331 0.757058
O O3 0.667850 0.500000 0.000000
O O4 0.382626 0.209619 0.500000
O O5 0.250000 0.250000 0.633777
O O6 0.280441 0.174144 0.694719
O O7 0.401680 0.232193 0.768222
O O8 0.169123 0.378385 0.500000
O O9 0.304912 0.391843 0.299232
O O10 0.103245 0.387650 0.243441
O O11 0.373411 0.438532 0.500000
O O12 0.500000 0.414766 0.302048
O O13 0.000000 0.329221 0.846687
O O14 0.000000 0.264966 0.000000
O O15 0.500000 0.108112 0.000000
#
# Coordination Sequence:
#
# PCOD8275179 Si02
#       6
#     8  16  16  16   8   8
#     4   9  17  29  47  70  95 126 159 191 227 275
#     4   9  17  30  46  67  91 120 156 195 237 277
#     4   9  17  30  48  70  95 123 157 197 237 279
#     4   9  17  30  48  71  98 127 157 190 231 282
#     4   9  17  29  45  63  84 116 155 194 230 274
#     4   9  17  29  47  68  88 119 159 197 233 271
#
# _framework density 16.717836999999999
#
# number of rings (size 3 to 8) (size 9 to 14) (size 15 to 20)
#    0.000    3.000    0.000    1.000    0.000    5.333 
#    2.000    0.000    0.000    0.667    0.000    4.667 
#    0.000    0.000    0.000    0.000    0.000    0.000 
#
# Total GULP energy -446009.821728 kJ/mol
# GULP energy per Si atom -12389.161715 kJ/mol
# Density = 1.667979 g / cm^3
# Si number density = 16.717837 Si / 1000 Ang^3
#
#
#
# Elastic Constant Matrix: (Units=GPa)
#
#
# Indices 1 2 3 4 5 6 
#
# 1 99.6307 47.4628 56.6798 0.0000 0.0000 0.0000
# 2 47.4628 76.4191 41.6747 0.0000 0.0000 0.0000
# 3 56.6798 41.6747 110.1443 0.0000 0.0000 0.0000
# 4 0.0000 0.0000 0.0000 16.0584 0.0000 0.0000
# 5 0.0000 0.0000 0.0000 0.0000 30.5245 0.0000
# 6 0.0000 0.0000 0.0000 0.0000 0.0000 17.1658
#
#
#
# Elastic Compliance Matrix: (Units=1/GPa)
#
#
# Indices 1 2 3 4 5 6 
#
# 1 0.016863 -0.007233 -0.005941 0.000000 0.000000 0.000000
# 2 -0.007233 0.019591 -0.003690 0.000000 0.000000 0.000000
# 3 -0.005941 -0.003690 0.013532 0.000000 0.000000 0.000000
# 4 0.000000 0.000000 0.000000 0.062273 0.000000 0.000000
# 5 0.000000 0.000000 0.000000 0.000000 0.032761 0.000000
# 6 0.000000 0.000000 0.000000 0.000000 0.000000 0.058255
#
#
# Mechanical properties :
#
#
# Convention : Reuss Voigt Hill
#
# Bulk Modulus (GPa) = 61.51103 64.20319 62.85711
# Shear Modulus (GPa) = 20.62524 22.10819 21.36671
#
# Velocity S-wave (km/s) = 3.51625 3.64047 3.57890
# Velocity P-wave (km/s) = 7.30472 7.49387 7.39990
#
# Compressibility (1/GPa) = 0.01625725
#
# Stress axis : x y z
#
# Youngs Moduli (GPa) = 59.30306 51.04457 73.89803
#
# Poissons Ratio (x) = 0.36923 0.43899
# Poissons Ratio (y) = 0.42897 0.27269
# Poissons Ratio (z) = 0.35229 0.18836
#
# Static dielectric constant tensor:
#      x y z
#    x 3.032950 0.000000 0.000000 
#    y 0.000000 2.913190 0.000000 
#    z 0.000000 0.000000 3.590580 
# 
# 
# High freq. dielectric constant tensor:
#      x y z
#    x 1.628220 0.000000 0.000000 
#    y 0.000000 1.617090 0.000000 
#    z 0.000000 0.000000 1.654070 
# 
# From -- ./inp_files/7440.got.cif
#   From: 2010.03.12/outbox.cif.g09.slc.cpg/sg65_4_cif.got.tgz:7440.got - 2010.04.10 20:52:16.
