data_PCOD8275855
_publ_section_title
;
Structure prediction by ZEFSAII (Michael W. Deem and Ramdas Pophale) SiO2 
 PCOD8275855
Probable space group: C C C M
;
_chemical_formula_sum "Si O2"
_cell_formula_units_Z 80
_cell_length_a 34.335632
_cell_length_b 5.018485
_cell_length_c 27.129006
_cell_angle_alpha 90.000000
_cell_angle_beta 90.000000
_cell_angle_gamma 90.000000
_cell_volume 4674.676454
_symmetry_space_group_name_H-M "C C C M"
_symmetry_group_IT_number 66
_symmetry_cell_setting 'orthorhombic'
loop_
_space_group_symop_operation_xyz
x,y,z
-x,-y,z
x,-y,1/2-z
-x,y,1/2-z
-x,-y,-z
x,y,-z
-x,y,1/2+z
x,-y,1/2+z
1/2+x,1/2+y,z
1/2-x,1/2-y,z
1/2+x,1/2-y,1/2-z
1/2-x,1/2+y,1/2-z
1/2-x,1/2-y,-z
1/2+x,1/2+y,-z
1/2-x,1/2+y,1/2+z
1/2+x,1/2-y,1/2+z
loop_
_atom_site_type_symbol
_atom_site_label
_atom_site_fract_x
_atom_site_fract_y
_atom_site_fract_z
Si Si1 0.543136 0.488469 0.808272
Si Si2 0.408710 0.998025 0.691943
Si Si3 0.223248 0.500000 0.750000
Si Si4 0.222571 0.997352 0.500000
Si Si5 0.794286 0.849237 0.896048
Si Si6 0.674535 0.870514 0.654399
O O1 0.500000 0.500000 0.832256
O O2 0.539289 0.500000 0.750000
O O3 0.557887 0.200713 0.823747
O O4 0.574377 0.712669 0.825831
O O5 0.371205 0.109440 0.663627
O O6 0.399430 0.000000 0.750000
O O7 0.250000 0.250000 0.760727
O O8 0.196468 0.467162 0.702755
O O9 0.250000 0.750000 0.500000
O O10 0.197450 0.978349 0.550067
O O11 0.250000 0.250000 0.500000
O O12 0.750000 0.750000 0.887137
O O13 0.818606 0.578821 0.890030
O O14 0.809148 0.075121 0.857821
#
# Coordination Sequence:
#
# PCOD8275855 Si02
#       6
#    16  16   8   8  16  16
#     4   9  17  29  48  68  90 125 169 204 234 280
#     4  10  19  32  46  67  99 132 164 198 241 288
#     4  12  24  34  46  64  93 134 177 204 228 268
#     4  10  20  36  56  74  90 116 159 218 271 308
#     4  11  22  36  54  71  94 124 170 213 258 299
#     4  12  22  35  49  71  99 135 165 207 244 289
#
# _framework density 17.113482999999999
#
# number of rings (size 3 to 8) (size 9 to 14) (size 15 to 20)
#    0.000    1.400    1.000    7.800    0.000    2.400 
#    0.000    0.000    0.000    0.000    0.000    0.000 
#    0.000    0.000    0.000   63.000    0.000    0.000 
#
# Total GULP energy -495665.820856 kJ/mol
# GULP energy per Si atom -12391.645521 kJ/mol
# Density = 1.707453 g / cm^3
# Si number density = 17.113483 Si / 1000 Ang^3
#
#
#
# Elastic Constant Matrix: (Units=GPa)
#
#
# Indices 1 2 3 4 5 6 
#
# 1 104.3791 28.5459 25.3230 0.0000 0.0000 0.0000
# 2 28.5459 103.1557 11.6438 0.0000 0.0000 0.0000
# 3 25.3230 11.6438 49.9386 0.0000 0.0000 0.0000
# 4 0.0000 0.0000 0.0000 23.9534 0.0000 0.0000
# 5 0.0000 0.0000 0.0000 0.0000 4.3786 0.0000
# 6 0.0000 0.0000 0.0000 0.0000 0.0000 3.9519
#
#
#
# Elastic Compliance Matrix: (Units=1/GPa)
#
#
# Indices 1 2 3 4 5 6 
#
# 1 0.011569 -0.002608 -0.005259 0.000000 0.000000 0.000000
# 2 -0.002608 0.010544 -0.001136 0.000000 0.000000 0.000000
# 3 -0.005259 -0.001136 0.022956 0.000000 0.000000 0.000000
# 4 0.000000 0.000000 0.000000 0.041748 0.000000 0.000000
# 5 0.000000 0.000000 0.000000 0.000000 0.228386 0.000000
# 6 0.000000 0.000000 0.000000 0.000000 0.000000 0.253041
#
#
# Mechanical properties :
#
#
# Convention : Reuss Voigt Hill
#
# Bulk Modulus (GPa) = 36.94904 43.16652 40.05778
# Shear Modulus (GPa) = 8.39955 19.25417 13.82686
#
# Velocity S-wave (km/s) = 2.21784 3.35787 2.84553
# Velocity P-wave (km/s) = 5.30998 6.34919 5.85269
#
# Compressibility (1/GPa) = 0.02706430
#
# Stress axis : x y z
#
# Youngs Moduli (GPa) = 86.43437 94.84054 43.56165
#
# Poissons Ratio (x) = 0.24734 0.22907
# Poissons Ratio (y) = 0.22542 0.04949
# Poissons Ratio (z) = 0.45452 0.10774
#
# Static dielectric constant tensor:
#      x y z
#    x 3.247590 0.000000 0.000000 
#    y 0.000000 3.531570 0.000000 
#    z 0.000000 0.000000 2.336450 
# 
# 
# High freq. dielectric constant tensor:
#      x y z
#    x 1.651370 0.000000 0.000000 
#    y 0.000000 1.688550 0.000000 
#    z 0.000000 0.000000 1.614040 
# 
# From -- ./inp_files/60343.got.cif
#   From: 2010.03.12/outbox.cif.g09.slc.cpg/sg66_31_cif.got.tgz:60343.got - 2010.04.10 21:57:39.
