data_PCOD8275303
_publ_section_title
;
Structure prediction by ZEFSAII (Michael W. Deem and Ramdas Pophale) SiO2 
 PCOD8275303
Probable space group: C C C M
;
_chemical_formula_sum "Si O2"
_cell_formula_units_Z 80
_cell_length_a 23.566771
_cell_length_b 24.577592
_cell_length_c 8.774909
_cell_angle_alpha 90.000000
_cell_angle_beta 90.000000
_cell_angle_gamma 90.000000
_cell_volume 5082.554375
_symmetry_space_group_name_H-M "C C C M"
_symmetry_group_IT_number 66
_symmetry_cell_setting 'orthorhombic'
loop_
_space_group_symop_operation_xyz
x,y,z
-x,-y,z
x,-y,1/2-z
-x,y,1/2-z
-x,-y,-z
x,y,-z
-x,y,1/2+z
x,-y,1/2+z
1/2+x,1/2+y,z
1/2-x,1/2-y,z
1/2+x,1/2-y,1/2-z
1/2-x,1/2+y,1/2-z
1/2-x,1/2-y,-z
1/2+x,1/2+y,-z
1/2-x,1/2+y,1/2+z
1/2+x,1/2-y,1/2+z
loop_
_atom_site_type_symbol
_atom_site_label
_atom_site_fract_x
_atom_site_fract_y
_atom_site_fract_z
Si Si1 0.560576 0.165471 0.320671
Si Si2 0.119863 0.445029 0.180795
Si Si3 0.340017 0.229342 0.319452
Si Si4 0.271883 0.329591 0.679079
Si Si5 0.756290 0.445737 0.180060
O O1 0.500000 0.177625 0.250000
O O2 0.555794 0.168750 0.500000
O O3 0.581794 0.105931 0.268020
O O4 0.602804 0.212383 0.264406
O O5 0.091967 0.500000 0.250000
O O6 0.181788 0.437280 0.250927
O O7 0.124766 0.450044 0.000000
O O8 0.349311 0.224107 0.500000
O O9 0.324277 0.291507 0.268569
O O10 0.288663 0.191453 0.257770
O O11 0.266515 0.323115 0.500000
O O12 0.281329 0.392765 0.725414
O O13 0.727361 0.500000 0.250000
O O14 0.761667 0.452415 0.000000
#
# Coordination Sequence:
#
# PCOD8275303 Si02
#       5
#    16  16  16  16  16
#     4  11  23  35  47  65  88 117 153 194 234 270
#     4  10  20  32  45  62  85 115 154 193 230 265
#     4   9  16  31  50  67  87 116 152 186 223 269
#     4   8  15  27  48  70  89 117 150 181 221 273
#     4  10  17  27  44  67  93 121 150 182 221 265
#
# _framework density 15.740116
#
# number of rings (size 3 to 8) (size 9 to 14) (size 15 to 20)
#    0.000    2.400    2.000    4.200    0.000    2.800 
#    0.000    6.000    0.000    0.000    0.000    0.000 
#    0.000    0.800    0.000    9.200    0.000    2.800 
#
# Total GULP energy -495754.773446 kJ/mol
# GULP energy per Si atom -12393.869336 kJ/mol
# Density = 1.570429 g / cm^3
# Si number density = 15.740116 Si / 1000 Ang^3
#
#
#
# Elastic Constant Matrix: (Units=GPa)
#
#
# Indices 1 2 3 4 5 6 
#
# 1 75.8054 66.0765 25.1258 0.0000 0.0000 0.0000
# 2 66.0765 146.6338 38.3525 0.0000 0.0000 0.0000
# 3 25.1258 38.3525 52.9893 0.0000 0.0000 0.0000
# 4 0.0000 0.0000 0.0000 4.9336 0.0000 0.0000
# 5 0.0000 0.0000 0.0000 0.0000 13.6513 0.0000
# 6 0.0000 0.0000 0.0000 0.0000 0.0000 22.1689
#
#
#
# Elastic Compliance Matrix: (Units=1/GPa)
#
#
# Indices 1 2 3 4 5 6 
#
# 1 0.022423 -0.009033 -0.004094 0.000000 0.000000 0.000000
# 2 -0.009033 0.012051 -0.004439 0.000000 0.000000 0.000000
# 3 -0.004094 -0.004439 0.024026 0.000000 0.000000 0.000000
# 4 0.000000 0.000000 0.000000 0.202690 0.000000 0.000000
# 5 0.000000 0.000000 0.000000 0.000000 0.073253 0.000000
# 6 0.000000 0.000000 0.000000 0.000000 0.000000 0.045108
#
#
# Mechanical properties :
#
#
# Convention : Reuss Voigt Hill
#
# Bulk Modulus (GPa) = 42.79545 59.39313 51.09429
# Shear Modulus (GPa) = 11.83506 17.87570 14.85538
#
# Velocity S-wave (km/s) = 2.74506 3.37364 3.07545
# Velocity P-wave (km/s) = 6.10696 7.27948 6.71884
#
# Compressibility (1/GPa) = 0.02336697
#
# Stress axis : x y z
#
# Youngs Moduli (GPa) = 44.59782 82.97758 41.62168
#
# Poissons Ratio (x) = 0.74957 0.17039
# Poissons Ratio (y) = 0.40287 0.18477
# Poissons Ratio (z) = 0.18258 0.36836
#
# Static dielectric constant tensor:
#      x y z
#    x 2.717110 0.000000 0.000000 
#    y 0.000000 3.522050 0.000000 
#    z 0.000000 0.000000 2.907960 
# 
# 
# High freq. dielectric constant tensor:
#      x y z
#    x 1.556500 0.000000 0.000000 
#    y 0.000000 1.613810 0.000000 
#    z 0.000000 0.000000 1.600740 
# 
# From -- ./inp_files/6728.got.cif
#   From: 2010.03.12/outbox.cif.g09.slc.cpg/sg66_4_cif.got.tgz:6728.got - 2010.04.10 21:57:39.
