data_PCOD8275489
_publ_section_title
;
Structure prediction by ZEFSAII (Michael W. Deem and Ramdas Pophale) SiO2 
 PCOD8275489
Probable space group: C C C M
;
_chemical_formula_sum "Si O2"
_cell_formula_units_Z 80
_cell_length_a 21.189726
_cell_length_b 12.639026
_cell_length_c 16.147495
_cell_angle_alpha 90.000000
_cell_angle_beta 90.000000
_cell_angle_gamma 90.000000
_cell_volume 4324.581707
_symmetry_space_group_name_H-M "C C C M"
_symmetry_group_IT_number 66
_symmetry_cell_setting 'orthorhombic'
loop_
_space_group_symop_operation_xyz
x,y,z
-x,-y,z
x,-y,1/2-z
-x,y,1/2-z
-x,-y,-z
x,y,-z
-x,y,1/2+z
x,-y,1/2+z
1/2+x,1/2+y,z
1/2-x,1/2-y,z
1/2+x,1/2-y,1/2-z
1/2-x,1/2+y,1/2-z
1/2-x,1/2-y,-z
1/2+x,1/2+y,-z
1/2-x,1/2+y,1/2+z
1/2+x,1/2-y,1/2+z
loop_
_atom_site_type_symbol
_atom_site_label
_atom_site_fract_x
_atom_site_fract_y
_atom_site_fract_z
Si Si1 0.965996 0.363153 0.337797
Si Si2 0.178954 0.253177 0.401050
Si Si3 0.550138 0.647068 0.902141
Si Si4 0.412233 0.575327 0.098069
Si Si5 0.589037 0.062994 0.093980
O O1 0.929261 0.252898 0.353133
O O2 0.915268 0.457955 0.348903
O O3 0.000000 0.370629 0.250000
O O4 0.021746 0.375854 0.405752
O O5 0.177615 0.252052 0.500000
O O6 0.250000 0.250000 0.366361
O O7 0.143763 0.148332 0.365977
O O8 0.143323 0.359241 0.369925
O O9 0.593383 0.547526 0.872550
O O10 0.478726 0.623547 0.873958
O O11 0.556460 0.665249 0.000000
O O12 0.410508 0.575090 0.000000
O O13 0.605006 0.030418 0.000000
#
# Coordination Sequence:
#
# PCOD8275489 Si02
#       5
#    16  16  16  16  16
#     4  11  20  29  44  72 100 127 151 195 249 290
#     4   9  16  27  47  75  99 120 157 205 241 276
#     4   9  15  27  47  68  93 124 155 190 238 290
#     4   8  14  25  44  69  93 119 154 195 235 276
#     4  10  18  30  48  69  96 124 158 196 240 294
#
# _framework density 18.498899000000002
#
# number of rings (size 3 to 8) (size 9 to 14) (size 15 to 20)
#    0.000    2.600    2.000    4.800    0.000    0.000 
#    0.000    2.000    0.000    1.200   10.400    7.000 
#    0.000    0.000    0.000    0.000    0.000    1.200 
#
# Total GULP energy -495655.501489 kJ/mol
# GULP energy per Si atom -12391.387537 kJ/mol
# Density = 1.845679 g / cm^3
# Si number density = 18.498899 Si / 1000 Ang^3
#
#
#
# Elastic Constant Matrix: (Units=GPa)
#
#
# Indices 1 2 3 4 5 6 
#
# 1 98.8562 73.5434 9.1798 0.0000 0.0000 0.0000
# 2 73.5434 207.3708 40.0002 0.0000 0.0000 0.0000
# 3 9.1798 40.0002 40.6654 0.0000 0.0000 0.0000
# 4 0.0000 0.0000 0.0000 9.6950 0.0000 0.0000
# 5 0.0000 0.0000 0.0000 0.0000 9.0490 0.0000
# 6 0.0000 0.0000 0.0000 0.0000 0.0000 27.8375
#
#
#
# Elastic Compliance Matrix: (Units=1/GPa)
#
#
# Indices 1 2 3 4 5 6 
#
# 1 0.013886 -0.005332 0.002110 0.000000 0.000000 0.000000
# 2 -0.005332 0.007999 -0.006664 0.000000 0.000000 0.000000
# 3 0.002110 -0.006664 0.030670 0.000000 0.000000 0.000000
# 4 0.000000 0.000000 0.000000 0.103146 0.000000 0.000000
# 5 0.000000 0.000000 0.000000 0.000000 0.110509 0.000000
# 6 0.000000 0.000000 0.000000 0.000000 0.000000 0.035923
#
#
# Mechanical properties :
#
#
# Convention : Reuss Voigt Hill
#
# Bulk Modulus (GPa) = 30.50405 65.81547 48.15976
# Shear Modulus (GPa) = 15.02259 24.26092 19.64176
#
# Velocity S-wave (km/s) = 2.85279 3.62536 3.26203
# Velocity P-wave (km/s) = 5.23227 7.29244 6.34651
#
# Compressibility (1/GPa) = 0.03278254
#
# Stress axis : x y z
#
# Youngs Moduli (GPa) = 72.01368 125.02159 32.60532
#
# Poissons Ratio (x) = 0.66657 -0.06879
# Poissons Ratio (y) = 0.38395 0.21729
# Poissons Ratio (z) = -0.15193 0.83317
#
# Static dielectric constant tensor:
#      x y z
#    x 3.275330 0.000000 0.000000 
#    y 0.000000 3.881180 0.000000 
#    z 0.000000 0.000000 2.953780 
# 
# 
# High freq. dielectric constant tensor:
#      x y z
#    x 1.657720 0.000000 0.000000 
#    y 0.000000 1.740350 0.000000 
#    z 0.000000 0.000000 1.679910 
# 
# From -- ./inp_files/31003.got.cif
#   From: 2010.03.12/outbox.cif.g09.slc.cpg/sg66_16_cif.got.tgz:31003.got - 2010.04.10 21:57:39.
