data_PCOD8275686
_publ_section_title
;
Structure prediction by ZEFSAII (Michael W. Deem and Ramdas Pophale) SiO2 
 PCOD8275686
Probable space group: C C C M
;
_chemical_formula_sum "Si O2"
_cell_formula_units_Z 92
_cell_length_a 24.722804
_cell_length_b 8.550045
_cell_length_c 21.072778
_cell_angle_alpha 90.000000
_cell_angle_beta 90.000000
_cell_angle_gamma 90.000000
_cell_volume 4454.386714
_symmetry_space_group_name_H-M "C C C M"
_symmetry_group_IT_number 66
_symmetry_cell_setting 'orthorhombic'
loop_
_space_group_symop_operation_xyz
x,y,z
-x,-y,z
x,-y,1/2-z
-x,y,1/2-z
-x,-y,-z
x,y,-z
-x,y,1/2+z
x,-y,1/2+z
1/2+x,1/2+y,z
1/2-x,1/2-y,z
1/2+x,1/2-y,1/2-z
1/2-x,1/2+y,1/2-z
1/2-x,1/2-y,-z
1/2+x,1/2+y,-z
1/2-x,1/2+y,1/2+z
1/2+x,1/2-y,1/2+z
loop_
_atom_site_type_symbol
_atom_site_label
_atom_site_fract_x
_atom_site_fract_y
_atom_site_fract_z
Si Si1 0.750000 0.250000 0.883757
Si Si2 0.486119 0.819031 0.428145
Si Si3 0.840497 0.537558 0.570616
Si Si4 0.426309 0.797518 0.840931
Si Si5 0.340665 0.553574 0.180126
Si Si6 0.133110 0.202417 0.926724
Si Si7 0.000000 0.500000 0.750000
O O1 0.783920 0.370113 0.926872
O O2 0.709746 0.342870 0.839133
O O3 0.497602 0.779543 0.500000
O O4 0.529841 0.720047 0.388542
O O5 0.426006 0.769891 0.409188
O O6 0.500000 0.000000 0.411555
O O7 0.865950 0.560442 0.500000
O O8 0.883615 0.594271 0.621917
O O9 0.827684 0.353106 0.580525
O O10 0.394985 0.653469 0.810023
O O11 0.459086 0.893439 0.789075
O O12 0.324942 0.500000 0.250000
O O13 0.349439 0.424598 0.125069
O O14 0.135272 0.136912 0.000000
#
# Coordination Sequence:
#
# PCOD8275686 Si02
#       7
#     8  16  16  16  16  16   4
#     4  10  25  46  66  96 121 172 220 274 338 396
#     4  10  18  35  63  95 127 170 216 256 313 385
#     4  10  20  40  71 101 129 164 214 277 332 391
#     4  11  23  39  64  94 132 173 218 263 318 383
#     4  11  28  46  63  95 130 173 217 278 333 390
#     4  10  22  40  65  98 134 170 215 271 329 390
#     4  12  24  40  64  96 124 180 226 250 304 398
#
# _framework density 20.653797000000001
#
# number of rings (size 3 to 8) (size 9 to 14) (size 15 to 20)
#    0.000    1.565    2.609    0.783    4.870    6.957 
#    3.130    3.478    0.000    0.000    0.000    0.000 
#    0.000    0.000    0.000    0.000    0.000    0.000 
#
# Total GULP energy -570104.463036 kJ/mol
# GULP energy per Si atom -12393.575283 kJ/mol
# Density = 2.060679 g / cm^3
# Si number density = 20.653797 Si / 1000 Ang^3
#
#
#
# Elastic Constant Matrix: (Units=GPa)
#
#
# Indices 1 2 3 4 5 6 
#
# 1 113.0114 60.1483 50.6060 0.0000 0.0000 0.0000
# 2 60.1483 111.3933 61.8614 0.0000 0.0000 0.0000
# 3 50.6060 61.8614 119.5984 0.0000 0.0000 0.0000
# 4 0.0000 0.0000 0.0000 21.6198 0.0000 0.0000
# 5 0.0000 0.0000 0.0000 0.0000 26.7927 0.0000
# 6 0.0000 0.0000 0.0000 0.0000 0.0000 31.7735
#
#
#
# Elastic Compliance Matrix: (Units=1/GPa)
#
#
# Indices 1 2 3 4 5 6 
#
# 1 0.012977 -0.005553 -0.002619 0.000000 0.000000 0.000000
# 2 -0.005553 0.014971 -0.005394 0.000000 0.000000 0.000000
# 3 -0.002619 -0.005394 0.012260 0.000000 0.000000 0.000000
# 4 0.000000 0.000000 0.000000 0.046254 0.000000 0.000000
# 5 0.000000 0.000000 0.000000 0.000000 0.037324 0.000000
# 6 0.000000 0.000000 0.000000 0.000000 0.000000 0.031473
#
#
# Mechanical properties :
#
#
# Convention : Reuss Voigt Hill
#
# Bulk Modulus (GPa) = 76.47572 76.58161 76.52867
# Shear Modulus (GPa) = 26.77416 27.46301 27.11859
#
# Velocity S-wave (km/s) = 3.60437 3.65044 3.62748
# Velocity P-wave (km/s) = 7.37765 7.41126 7.39448
#
# Compressibility (1/GPa) = 0.01307605
#
# Stress axis : x y z
#
# Youngs Moduli (GPa) = 77.06170 66.79576 81.56929
#
# Poissons Ratio (x) = 0.37089 0.21361
# Poissons Ratio (y) = 0.42789 0.44000
# Poissons Ratio (z) = 0.20181 0.36031
#
# Static dielectric constant tensor:
#      x y z
#    x 3.942870 0.000000 0.000000 
#    y 0.000000 3.876030 0.000000 
#    z 0.000000 0.000000 3.791590 
# 
# 
# High freq. dielectric constant tensor:
#      x y z
#    x 1.816920 0.000000 0.000000 
#    y 0.000000 1.797830 0.000000 
#    z 0.000000 0.000000 1.814380 
# 
# From -- ./inp_files/52443.got.cif
#   From: 2010.03.12/outbox.cif.g09.slc.cpg/sg66_27_cif.got.tgz:52443.got - 2010.04.10 21:57:39.
