data_PCOD8275014
_publ_section_title
;
Structure prediction by ZEFSAII (Michael W. Deem and Ramdas Pophale) SiO2 
 PCOD8275014
Probable space group: C M M M
;
_chemical_formula_sum "Si O2"
_cell_formula_units_Z 120
_cell_length_a 9.354280
_cell_length_b 39.260037
_cell_length_c 18.395978
_cell_angle_alpha 90.000000
_cell_angle_beta 90.000000
_cell_angle_gamma 90.000000
_cell_volume 6755.911495
_symmetry_space_group_name_H-M "C M M M"
_symmetry_group_IT_number 65
_symmetry_cell_setting 'orthorhombic'
loop_
_space_group_symop_operation_xyz
x,y,z
-x,-y,z
x,-y,-z
-x,y,-z
-x,-y,-z
x,y,-z
-x,y,z
x,-y,z
1/2+x,1/2+y,z
1/2-x,1/2-y,z
1/2+x,1/2-y,-z
1/2-x,1/2+y,-z
1/2-x,1/2-y,-z
1/2+x,1/2+y,-z
1/2-x,1/2+y,z
1/2+x,1/2-y,z
loop_
_atom_site_type_symbol
_atom_site_label
_atom_site_fract_x
_atom_site_fract_y
_atom_site_fract_z
Si Si1 0.670214 0.577574 0.640923
Si Si2 0.333811 0.282965 0.177816
Si Si3 0.329575 0.538268 0.500000
Si Si4 0.333985 0.717002 0.652897
Si Si5 0.330669 0.656069 0.918838
Si Si6 0.829386 0.038581 0.217583
Si Si7 0.670090 0.648104 0.418082
Si Si8 0.670281 0.419778 0.081085
O O1 0.500000 0.575952 0.641783
O O2 0.729639 0.556647 0.572015
O O3 0.730442 0.561029 0.715184
O O4 0.722752 0.616721 0.632445
O O5 0.500000 0.277466 0.160094
O O6 0.250000 0.250000 0.149218
O O7 0.306445 0.288879 0.262403
O O8 0.269672 0.316018 0.136993
O O9 0.270935 0.500000 0.500000
O O10 0.500000 0.539164 0.500000
O O11 0.500000 0.722671 0.635312
O O12 0.250000 0.750000 0.623939
O O13 0.271108 0.683762 0.612754
O O14 0.500000 0.655283 0.912547
O O15 0.272697 0.618242 0.900187
O O16 0.282946 0.666420 0.000000
O O17 0.770250 0.054341 0.141979
O O18 0.000000 0.038929 0.218090
O O19 0.772225 0.000000 0.224730
O O20 0.726816 0.642777 0.500000
O O21 0.500000 0.648984 0.417407
O O22 0.500000 0.419721 0.082302
O O23 0.722602 0.430738 0.000000
#
# Coordination Sequence:
#
# PCOD8275014 Si02
#       8
#    16  16   8  16  16  16  16  16
#     4   9  15  22  31  46  67  92 125 162 196 234
#     4   9  17  28  42  60  81 105 134 168 206 246
#     4   9  14  20  30  42  63  94 123 155 195 235
#     4   9  18  30  44  62  83 107 137 172 209 247
#     4   8  14  24  37  53  72  96 129 167 203 240
#     4   9  16  22  29  44  65  91 126 165 201 238
#     4   9  16  26  39  55  73  97 131 167 200 238
#     4   8  14  23  33  45  63  90 125 164 202 236
#
# _framework density 17.762221
#
# number of rings (size 3 to 8) (size 9 to 14) (size 15 to 20)
#    0.000    3.267    0.667    1.200    1.867    2.400 
#    0.000    1.333    0.000    0.000    0.000    0.000 
#    0.000    0.000    0.000    0.000    0.000    5.333 
#
# Total GULP energy -743622.649397 kJ/mol
# GULP energy per Si atom -12393.710823 kJ/mol
# Density = 1.772179 g / cm^3
# Si number density = 17.762221 Si / 1000 Ang^3
#
#
#
# Elastic Constant Matrix: (Units=GPa)
#
#
# Indices 1 2 3 4 5 6 
#
# 1 7.9705 15.7895 11.2918 0.0000 0.0000 0.0000
# 2 15.7895 179.3075 94.2607 0.0000 0.0000 0.0000
# 3 11.2918 94.2607 128.2570 0.0000 0.0000 0.0000
# 4 0.0000 0.0000 0.0000 40.5465 0.0000 0.0000
# 5 0.0000 0.0000 0.0000 0.0000 5.6578 0.0000
# 6 0.0000 0.0000 0.0000 0.0000 0.0000 13.2384
#
#
#
# Elastic Compliance Matrix: (Units=1/GPa)
#
#
# Indices 1 2 3 4 5 6 
#
# 1 0.154646 -0.010528 -0.005878 0.000000 0.000000 0.000000
# 2 -0.010528 0.009805 -0.006279 0.000000 0.000000 0.000000
# 3 -0.005878 -0.006279 0.012929 0.000000 0.000000 0.000000
# 4 0.000000 0.000000 0.000000 0.024663 0.000000 0.000000
# 5 0.000000 0.000000 0.000000 0.000000 0.176746 0.000000
# 6 0.000000 0.000000 0.000000 0.000000 0.000000 0.075538
#
#
# Mechanical properties :
#
#
# Convention : Reuss Voigt Hill
#
# Bulk Modulus (GPa) = 7.57515 62.02432 34.79974
# Shear Modulus (GPa) = 9.19625 24.83476 17.01551
#
# Velocity S-wave (km/s) = 2.27786 3.74328 3.09845
# Velocity P-wave (km/s) = 3.34548 7.32652 5.69518
#
# Compressibility (1/GPa) = 0.13201062
#
# Stress axis : x y z
#
# Youngs Moduli (GPa) = 6.46637 101.98885 77.34491
#
# Poissons Ratio (x) = 1.07374 0.45461
# Poissons Ratio (y) = 0.06808 0.48566
# Poissons Ratio (z) = 0.03801 0.64040
#
# Static dielectric constant tensor:
#      x y z
#    x 2.484310 0.000000 0.000000 
#    y 0.000000 3.664020 0.000000 
#    z 0.000000 0.000000 3.506720 
# 
# 
# High freq. dielectric constant tensor:
#      x y z
#    x 1.588820 0.000000 0.000000 
#    y 0.000000 1.703660 0.000000 
#    z 0.000000 0.000000 1.695860 
# 
# From -- ./inp_files/62046.got.cif
#   From: 2010.03.12/outbox.cif.g09.slc.cpg/sg65_32_cif.got.tgz:62046.got - 2010.04.10 20:52:16.
