data_PCOD8275464
_publ_section_title
;
Structure prediction by ZEFSAII (Michael W. Deem and Ramdas Pophale) SiO2 
 PCOD8275464
Probable space group: C C C M
;
_chemical_formula_sum "Si O2"
_cell_formula_units_Z 128
_cell_length_a 19.132356
_cell_length_b 21.735317
_cell_length_c 18.004126
_cell_angle_alpha 90.000000
_cell_angle_beta 90.000000
_cell_angle_gamma 90.000000
_cell_volume 7486.976595
_symmetry_space_group_name_H-M "C C C M"
_symmetry_group_IT_number 66
_symmetry_cell_setting 'orthorhombic'
loop_
_space_group_symop_operation_xyz
x,y,z
-x,-y,z
x,-y,1/2-z
-x,y,1/2-z
-x,-y,-z
x,y,-z
-x,y,1/2+z
x,-y,1/2+z
1/2+x,1/2+y,z
1/2-x,1/2-y,z
1/2+x,1/2-y,1/2-z
1/2-x,1/2+y,1/2-z
1/2-x,1/2-y,-z
1/2+x,1/2+y,-z
1/2-x,1/2+y,1/2+z
1/2+x,1/2-y,1/2+z
loop_
_atom_site_type_symbol
_atom_site_label
_atom_site_fract_x
_atom_site_fract_y
_atom_site_fract_z
Si Si1 0.233841 0.375429 0.416655
Si Si2 0.885513 0.856727 0.365070
Si Si3 0.378483 0.777742 0.913394
Si Si4 0.147604 0.465207 0.322655
Si Si5 0.418733 0.567195 0.730903
Si Si6 0.020401 0.929166 0.416901
Si Si7 0.527439 0.869804 0.326011
Si Si8 0.437513 0.048123 0.081445
O O1 0.212640 0.396844 0.500000
O O2 0.316975 0.372836 0.412138
O O3 0.198146 0.308504 0.402283
O O4 0.208663 0.423147 0.355023
O O5 0.889009 0.783030 0.364207
O O6 0.879239 0.881215 0.280017
O O7 0.952584 0.886644 0.404452
O O8 0.436104 0.824358 0.883168
O O9 0.392431 0.763232 0.000000
O O10 0.175848 0.500000 0.250000
O O11 0.078945 0.425473 0.302695
O O12 0.130366 0.516041 0.384314
O O13 0.386297 0.500000 0.750000
O O14 0.500000 0.567228 0.750000
O O15 0.416877 0.584081 0.642563
O O16 0.049123 0.917061 0.500000
O O17 0.000000 0.000000 0.405769
O O18 0.500000 0.837797 0.250000
O O19 0.459437 0.894601 0.368174
O O20 0.500000 0.000000 0.075642
O O21 0.417348 0.072620 0.000000
#
# Coordination Sequence:
#
# PCOD8275464 Si02
#       8
#    16  16  16  16  16  16  16  16
#     4  10  21  35  50  71 102 132 169 210 248 292
#     4  11  20  33  55  72  98 136 167 197 249 301
#     4  10  21  35  49  72 103 131 169 211 247 291
#     4  10  18  30  47  70  98 132 163 207 244 295
#     4   9  16  32  48  73 104 127 157 200 243 293
#     4  10  18  31  53  77 103 131 161 200 247 298
#     4  10  18  29  48  70  99 131 165 202 248 295
#     4   9  16  26  45  68  93 130 167 199 243 289
#
# _framework density 17.096353000000001
#
# number of rings (size 3 to 8) (size 9 to 14) (size 15 to 20)
#    0.000    2.125    3.750    2.250    0.000    6.000 
#    0.000    0.000    0.000    0.000    0.000    0.000 
#    0.000    1.000    0.000    0.000    0.000    0.000 
#
# Total GULP energy -793270.882733 kJ/mol
# GULP energy per Si atom -12394.857543 kJ/mol
# Density = 1.705744 g / cm^3
# Si number density = 17.096353 Si / 1000 Ang^3
#
#
#
# Elastic Constant Matrix: (Units=GPa)
#
#
# Indices 1 2 3 4 5 6 
#
# 1 38.5739 26.6429 20.2304 0.0000 0.0000 0.0000
# 2 26.6429 94.4626 49.5442 0.0000 0.0000 0.0000
# 3 20.2304 49.5442 136.3943 0.0000 0.0000 0.0000
# 4 0.0000 0.0000 0.0000 27.9642 0.0000 0.0000
# 5 0.0000 0.0000 0.0000 0.0000 18.3133 0.0000
# 6 0.0000 0.0000 0.0000 0.0000 0.0000 15.3873
#
#
#
# Elastic Compliance Matrix: (Units=1/GPa)
#
#
# Indices 1 2 3 4 5 6 
#
# 1 0.032568 -0.008218 -0.001846 0.000000 0.000000 0.000000
# 2 -0.008218 0.015151 -0.004285 0.000000 0.000000 0.000000
# 3 -0.001846 -0.004285 0.009162 0.000000 0.000000 0.000000
# 4 0.000000 0.000000 0.000000 0.035760 0.000000 0.000000
# 5 0.000000 0.000000 0.000000 0.000000 0.054605 0.000000
# 6 0.000000 0.000000 0.000000 0.000000 0.000000 0.064989
#
#
# Mechanical properties :
#
#
# Convention : Reuss Voigt Hill
#
# Bulk Modulus (GPa) = 35.47962 51.36285 43.42124
# Shear Modulus (GPa) = 19.97395 23.86719 21.92057
#
# Velocity S-wave (km/s) = 3.42177 3.74042 3.58464
# Velocity P-wave (km/s) = 6.03400 6.98303 6.52579
#
# Compressibility (1/GPa) = 0.02818519
#
# Stress axis : x y z
#
# Youngs Moduli (GPa) = 30.70478 66.00114 109.14878
#
# Poissons Ratio (x) = 0.54238 0.20144
# Poissons Ratio (y) = 0.25233 0.46767
# Poissons Ratio (z) = 0.05667 0.28279
#
# Static dielectric constant tensor:
#      x y z
#    x 2.883000 0.000000 0.000000 
#    y 0.000000 3.128350 0.000000 
#    z 0.000000 0.000000 3.619200 
# 
# 
# High freq. dielectric constant tensor:
#      x y z
#    x 1.621110 0.000000 0.000000 
#    y 0.000000 1.642510 0.000000 
#    z 0.000000 0.000000 1.674130 
# 
# From -- ./inp_files/43193.got.cif
#   From: 2010.03.12/outbox.cif.g09.slc.cpg/sg66_22_cif.got.tgz:43193.got - 2010.04.10 21:57:39.
