data_PCOD8275234
_publ_section_title
;
Structure prediction by ZEFSAII (Michael W. Deem and Ramdas Pophale) SiO2 
 PCOD8275234
Probable space group: C C C M
;
_chemical_formula_sum "Si O2"
_cell_formula_units_Z 64
_cell_length_a 8.101413
_cell_length_b 19.372975
_cell_length_c 21.379647
_cell_angle_alpha 90.000000
_cell_angle_beta 90.000000
_cell_angle_gamma 90.000000
_cell_volume 3355.502918
_symmetry_space_group_name_H-M "C C C M"
_symmetry_group_IT_number 66
_symmetry_cell_setting 'orthorhombic'
loop_
_space_group_symop_operation_xyz
x,y,z
-x,-y,z
x,-y,1/2-z
-x,y,1/2-z
-x,-y,-z
x,y,-z
-x,y,1/2+z
x,-y,1/2+z
1/2+x,1/2+y,z
1/2-x,1/2-y,z
1/2+x,1/2-y,1/2-z
1/2-x,1/2+y,1/2-z
1/2-x,1/2-y,-z
1/2+x,1/2+y,-z
1/2-x,1/2+y,1/2+z
1/2+x,1/2-y,1/2+z
loop_
_atom_site_type_symbol
_atom_site_label
_atom_site_fract_x
_atom_site_fract_y
_atom_site_fract_z
Si Si1 0.866639 0.353464 0.623069
Si Si2 0.514285 0.300166 0.618158
Si Si3 0.250000 0.250000 0.708743
Si Si4 0.182769 0.827277 0.000000
Si Si5 0.508126 0.081239 0.500000
Si Si6 0.000000 0.648180 0.250000
O O1 0.672420 0.345436 0.638691
O O2 0.941589 0.279389 0.604184
O O3 0.889982 0.399910 0.562235
O O4 0.969391 0.389234 0.682656
O O5 0.374233 0.298682 0.670609
O O6 0.434516 0.338345 0.559215
O O7 0.158523 0.302699 0.753579
O O8 0.250000 0.750000 0.000000
O O9 0.328329 0.883452 0.000000
O O10 0.500000 0.000000 0.500000
#
# Coordination Sequence:
#
# PCOD8275234 Si02
#       6
#    16  16   8   8   8   8
#     4  10  20  35  54  86 114 150 186 236 289 338
#     4  10  18  30  57  85 118 143 189 239 285 338
#     4  10  16  27  44  85 120 146 174 236 292 326
#     4  12  17  33  57  85 109 153 199 235 284 344
#     4  12  25  41  57  80 116 152 191 236 289 347
#     4  10  18  30  53  80 118 148 189 226 286 344
#
# _framework density 19.073146999999999
#
# number of rings (size 3 to 8) (size 9 to 14) (size 15 to 20)
#    0.000    1.500    3.750    5.250    0.000    2.000 
#    0.000    3.125    0.000    0.000    0.000    3.500 
#    0.000    0.000    0.000    0.000    0.000    0.000 
#
# Total GULP energy -396442.476252 kJ/mol
# GULP energy per Si atom -12388.827383 kJ/mol
# Density = 1.902974 g / cm^3
# Si number density = 19.073147 Si / 1000 Ang^3
#
#
#
# Elastic Constant Matrix: (Units=GPa)
#
#
# Indices 1 2 3 4 5 6 
#
# 1 113.8554 25.9793 34.2754 0.0000 0.0000 0.0000
# 2 25.9793 63.3437 24.2382 0.0000 0.0000 0.0000
# 3 34.2754 24.2382 126.2275 0.0000 0.0000 0.0000
# 4 0.0000 0.0000 0.0000 3.6622 0.0000 0.0000
# 5 0.0000 0.0000 0.0000 0.0000 37.5982 0.0000
# 6 0.0000 0.0000 0.0000 0.0000 0.0000 14.6261
#
#
#
# Elastic Compliance Matrix: (Units=1/GPa)
#
#
# Indices 1 2 3 4 5 6 
#
# 1 0.010190 -0.003368 -0.002120 0.000000 0.000000 0.000000
# 2 -0.003368 0.018152 -0.002571 0.000000 0.000000 0.000000
# 3 -0.002120 -0.002571 0.008992 0.000000 0.000000 0.000000
# 4 0.000000 0.000000 0.000000 0.273062 0.000000 0.000000
# 5 0.000000 0.000000 0.000000 0.000000 0.026597 0.000000
# 6 0.000000 0.000000 0.000000 0.000000 0.000000 0.068371
#
#
# Mechanical properties :
#
#
# Convention : Reuss Voigt Hill
#
# Bulk Modulus (GPa) = 47.13615 52.49027 49.81321
# Shear Modulus (GPa) = 11.66716 25.77290 18.72003
#
# Velocity S-wave (km/s) = 2.47595 3.67994 3.13627
# Velocity P-wave (km/s) = 5.73941 6.75546 6.26806
#
# Compressibility (1/GPa) = 0.02121514
#
# Stress axis : x y z
#
# Youngs Moduli (GPa) = 98.13719 55.09046 111.21479
#
# Poissons Ratio (x) = 0.18554 0.23580
# Poissons Ratio (y) = 0.33051 0.28594
# Poissons Ratio (z) = 0.20807 0.14164
#
# Static dielectric constant tensor:
#      x y z
#    x 3.948250 0.000000 0.000000 
#    y 0.000000 2.803150 0.000000 
#    z 0.000000 0.000000 3.838530 
# 
# 
# High freq. dielectric constant tensor:
#      x y z
#    x 1.764670 0.000000 0.000000 
#    y 0.000000 1.654530 0.000000 
#    z 0.000000 0.000000 1.768970 
# 
# From -- ./inp_files/46685.got.cif
#   From: 2010.03.12/outbox.cif.g09.slc.cpg/sg66_24_cif.got.tgz:46685.got - 2010.04.10 21:57:39.
