data_PCOD8275245
_publ_section_title
;
Structure prediction by ZEFSAII (Michael W. Deem and Ramdas Pophale) SiO2 
 PCOD8275245
Probable space group: C C C M
;
_chemical_formula_sum "Si O2"
_cell_formula_units_Z 104
_cell_length_a 19.042815
_cell_length_b 20.187980
_cell_length_c 13.819970
_cell_angle_alpha 90.000000
_cell_angle_beta 90.000000
_cell_angle_gamma 90.000000
_cell_volume 5312.893550
_symmetry_space_group_name_H-M "C C C M"
_symmetry_group_IT_number 66
_symmetry_cell_setting 'orthorhombic'
loop_
_space_group_symop_operation_xyz
x,y,z
-x,-y,z
x,-y,1/2-z
-x,y,1/2-z
-x,-y,-z
x,y,-z
-x,y,1/2+z
x,-y,1/2+z
1/2+x,1/2+y,z
1/2-x,1/2-y,z
1/2+x,1/2-y,1/2-z
1/2-x,1/2+y,1/2-z
1/2-x,1/2-y,-z
1/2+x,1/2+y,-z
1/2-x,1/2+y,1/2+z
1/2+x,1/2-y,1/2+z
loop_
_atom_site_type_symbol
_atom_site_label
_atom_site_fract_x
_atom_site_fract_y
_atom_site_fract_z
Si Si1 0.079643 0.662475 0.743268
Si Si2 0.676303 0.281167 0.255237
Si Si3 0.338216 0.500000 0.250000
Si Si4 0.719637 0.604733 0.108677
Si Si5 0.828524 0.414842 0.112774
Si Si6 0.870237 0.439978 0.393065
Si Si7 0.164457 0.108740 0.385233
O O1 0.121636 0.726750 0.706686
O O2 0.120119 0.639239 0.840020
O O3 0.074454 0.599216 0.671900
O O4 0.000000 0.686562 0.750000
O O5 0.750000 0.250000 0.223608
O O6 0.686142 0.329980 0.345865
O O7 0.645948 0.319501 0.159812
O O8 0.294128 0.460133 0.171169
O O9 0.378770 0.446780 0.320817
O O10 0.803574 0.609438 0.105422
O O11 0.689380 0.595297 0.000000
O O12 0.851007 0.487807 0.148903
O O13 0.746975 0.403223 0.139786
O O14 0.838399 0.406873 0.000000
O O15 0.902175 0.448330 0.500000
O O16 0.147006 0.105128 0.500000
#
# Coordination Sequence:
#
# PCOD8275245 Si02
#       7
#    16  16   8  16  16  16  16
#     4  12  25  39  53  74 109 153 191 230 269 310
#     4  11  21  35  54  77 105 143 193 231 268 325
#     4  10  16  28  50  84 120 134 160 208 282 338
#     4  10  19  31  54  84 113 140 174 226 276 318
#     4  10  20  34  55  82 111 142 181 225 271 326
#     4  10  20  34  55  82 111 142 181 225 271 326
#     4  10  19  31  54  84 113 140 174 226 276 318
#
# _framework density 19.575019000000001
#
# number of rings (size 3 to 8) (size 9 to 14) (size 15 to 20)
#    0.000    1.538    4.615    1.846    0.000    3.692 
#    0.000    1.538    0.000    0.000    0.000    8.615 
#    0.000    9.846    0.000    0.000    0.000    0.000 
#
# Total GULP energy -644221.055573 kJ/mol
# GULP energy per Si atom -12388.866453 kJ/mol
# Density = 1.953047 g / cm^3
# Si number density = 19.575019 Si / 1000 Ang^3
#
#
#
# Elastic Constant Matrix: (Units=GPa)
#
#
# Indices 1 2 3 4 5 6 
#
# 1 44.3452 20.2167 -6.3722 0.0000 0.0000 0.0000
# 2 20.2167 108.4932 30.2623 0.0000 0.0000 0.0000
# 3 -6.3722 30.2623 103.0288 0.0000 0.0000 0.0000
# 4 0.0000 0.0000 0.0000 25.2176 0.0000 0.0000
# 5 0.0000 0.0000 0.0000 0.0000 10.9471 0.0000
# 6 0.0000 0.0000 0.0000 0.0000 0.0000 15.1739
#
#
#
# Elastic Compliance Matrix: (Units=1/GPa)
#
#
# Indices 1 2 3 4 5 6 
#
# 1 0.025606 -0.005679 0.003252 0.000000 0.000000 0.000000
# 2 -0.005679 0.011299 -0.003670 0.000000 0.000000 0.000000
# 3 0.003252 -0.003670 0.010985 0.000000 0.000000 0.000000
# 4 0.000000 0.000000 0.000000 0.039655 0.000000 0.000000
# 5 0.000000 0.000000 0.000000 0.000000 0.091348 0.000000
# 6 0.000000 0.000000 0.000000 0.000000 0.000000 0.065902
#
#
# Mechanical properties :
#
#
# Convention : Reuss Voigt Hill
#
# Bulk Modulus (GPa) = 28.01378 38.23121 33.12250
# Shear Modulus (GPa) = 18.59504 24.38507 21.49006
#
# Velocity S-wave (km/s) = 3.08545 3.53331 3.31695
# Velocity P-wave (km/s) = 5.19956 6.01820 5.62379
#
# Compressibility (1/GPa) = 0.03569671
#
# Stress axis : x y z
#
# Youngs Moduli (GPa) = 39.05277 88.50338 91.03224
#
# Poissons Ratio (x) = 0.50257 -0.29600
# Poissons Ratio (y) = 0.22176 0.33409
# Poissons Ratio (z) = -0.12699 0.32481
#
# Static dielectric constant tensor:
#      x y z
#    x 2.922840 0.000000 0.000000 
#    y 0.000000 3.839490 0.000000 
#    z 0.000000 0.000000 3.751410 
# 
# 
# High freq. dielectric constant tensor:
#      x y z
#    x 1.686270 0.000000 0.000000 
#    y 0.000000 1.780560 0.000000 
#    z 0.000000 0.000000 1.777360 
# 
# From -- ./inp_files/31387.got.cif
#   From: 2010.03.12/outbox.cif.g09.slc.cpg/sg66_16_cif.got.tgz:31387.got - 2010.04.10 21:57:39.
