data_PCOD8275482
_publ_section_title
;
Structure prediction by ZEFSAII (Michael W. Deem and Ramdas Pophale) SiO2 
 PCOD8275482
Probable space group: C C C M
;
_chemical_formula_sum "Si O2"
_cell_formula_units_Z 88
_cell_length_a 27.693627
_cell_length_b 19.885579
_cell_length_c 9.804543
_cell_angle_alpha 90.000000
_cell_angle_beta 90.000000
_cell_angle_gamma 90.000000
_cell_volume 5399.399161
_symmetry_space_group_name_H-M "C C C M"
_symmetry_group_IT_number 66
_symmetry_cell_setting 'orthorhombic'
loop_
_space_group_symop_operation_xyz
x,y,z
-x,-y,z
x,-y,1/2-z
-x,y,1/2-z
-x,-y,-z
x,y,-z
-x,y,1/2+z
x,-y,1/2+z
1/2+x,1/2+y,z
1/2-x,1/2-y,z
1/2+x,1/2-y,1/2-z
1/2-x,1/2+y,1/2-z
1/2-x,1/2-y,-z
1/2+x,1/2+y,-z
1/2-x,1/2+y,1/2+z
1/2+x,1/2-y,1/2+z
loop_
_atom_site_type_symbol
_atom_site_label
_atom_site_fract_x
_atom_site_fract_y
_atom_site_fract_z
Si Si1 0.325458 0.413417 0.646797
Si Si2 0.701072 0.791035 0.341381
Si Si3 0.956305 0.869044 0.153290
Si Si4 0.143404 0.198331 0.159297
Si Si5 0.218965 0.555964 0.848269
Si Si6 0.405867 0.500000 0.750000
O O1 0.325737 0.373895 0.500000
O O2 0.327411 0.363475 0.774550
O O3 0.276477 0.455592 0.655350
O O4 0.370836 0.463968 0.641270
O O5 0.686571 0.783838 0.500000
O O6 0.750000 0.750000 0.310741
O O7 0.658187 0.764671 0.243337
O O8 0.707695 0.868511 0.299627
O O9 0.913427 0.815692 0.178027
O O10 0.939383 0.945537 0.176343
O O11 0.000000 0.848356 0.250000
O O12 0.975735 0.863854 0.000000
O O13 0.157440 0.204655 0.000000
O O14 0.194763 0.500000 0.750000
O O15 0.198425 0.543930 0.000000
#
# Coordination Sequence:
#
# PCOD8275482 Si02
#       6
#    16  16  16  16  16   8
#     4  10  18  30  46  65  93 130 166 205 247 288
#     4  10  19  34  52  72  98 130 170 208 248 301
#     4  10  22  36  49  69  95 125 167 213 256 302
#     4  10  21  34  49  71  94 121 163 211 252 294
#     4  10  20  32  47  69  99 133 168 205 245 293
#     4  10  19  30  48  70  94 128 174 214 251 292
#
# _framework density 16.298110000000001
#
# number of rings (size 3 to 8) (size 9 to 14) (size 15 to 20)
#    0.000    2.000    2.727    1.364    0.000    7.636 
#    0.000    0.000    0.000    0.000    0.000    0.000 
#    0.000    0.727    0.000    8.000    0.000    5.818 
#
# Total GULP energy -545380.136970 kJ/mol
# GULP energy per Si atom -12395.003113 kJ/mol
# Density = 1.626101 g / cm^3
# Si number density = 16.298110 Si / 1000 Ang^3
#
#
#
# Elastic Constant Matrix: (Units=GPa)
#
#
# Indices 1 2 3 4 5 6 
#
# 1 55.6464 30.1881 46.8374 0.0000 0.0000 0.0000
# 2 30.1881 106.1532 61.2249 0.0000 0.0000 0.0000
# 3 46.8374 61.2249 124.5018 0.0000 0.0000 0.0000
# 4 0.0000 0.0000 0.0000 28.6242 0.0000 0.0000
# 5 0.0000 0.0000 0.0000 0.0000 25.3785 0.0000
# 6 0.0000 0.0000 0.0000 0.0000 0.0000 14.5672
#
#
#
# Elastic Compliance Matrix: (Units=1/GPa)
#
#
# Indices 1 2 3 4 5 6 
#
# 1 0.026772 -0.002519 -0.008833 0.000000 0.000000 0.000000
# 2 -0.002519 0.013387 -0.005636 0.000000 0.000000 0.000000
# 3 -0.008833 -0.005636 0.014126 0.000000 0.000000 0.000000
# 4 0.000000 0.000000 0.000000 0.034935 0.000000 0.000000
# 5 0.000000 0.000000 0.000000 0.000000 0.039403 0.000000
# 6 0.000000 0.000000 0.000000 0.000000 0.000000 0.068647
#
#
# Mechanical properties :
#
#
# Convention : Reuss Voigt Hill
#
# Bulk Modulus (GPa) = 49.23603 62.53358 55.88481
# Shear Modulus (GPa) = 21.00700 23.58405 22.29553
#
# Velocity S-wave (km/s) = 3.59405 3.80813 3.70264
# Velocity P-wave (km/s) = 6.89189 7.60182 7.25555
#
# Compressibility (1/GPa) = 0.02031033
#
# Stress axis : x y z
#
# Youngs Moduli (GPa) = 37.35293 74.69885 70.79037
#
# Poissons Ratio (x) = 0.18817 0.62527
# Poissons Ratio (y) = 0.09409 0.39894
# Poissons Ratio (z) = 0.32993 0.42097
#
# Static dielectric constant tensor:
#      x y z
#    x 2.872040 0.000000 0.000000 
#    y 0.000000 3.049090 0.000000 
#    z 0.000000 0.000000 3.284290 
# 
# 
# High freq. dielectric constant tensor:
#      x y z
#    x 1.590390 0.000000 0.000000 
#    y 0.000000 1.607500 0.000000 
#    z 0.000000 0.000000 1.640930 
# 
# From -- ./inp_files/11490.got.cif
#   From: 2010.03.12/outbox.cif.g09.slc.cpg/sg66_6_cif.got.tgz:11490.got - 2010.04.10 21:57:39.
