data_PCOD8275488
_publ_section_title
;
Structure prediction by ZEFSAII (Michael W. Deem and Ramdas Pophale) SiO2 
 PCOD8275488
Probable space group: C C C M
;
_chemical_formula_sum "Si O2"
_cell_formula_units_Z 116
_cell_length_a 23.970744
_cell_length_b 34.514626
_cell_length_c 9.184967
_cell_angle_alpha 90.000000
_cell_angle_beta 90.000000
_cell_angle_gamma 90.000000
_cell_volume 7599.102209
_symmetry_space_group_name_H-M "C C C M"
_symmetry_group_IT_number 66
_symmetry_cell_setting 'orthorhombic'
loop_
_space_group_symop_operation_xyz
x,y,z
-x,-y,z
x,-y,1/2-z
-x,y,1/2-z
-x,-y,-z
x,y,-z
-x,y,1/2+z
x,-y,1/2+z
1/2+x,1/2+y,z
1/2-x,1/2-y,z
1/2+x,1/2-y,1/2-z
1/2-x,1/2+y,1/2-z
1/2-x,1/2-y,-z
1/2+x,1/2+y,-z
1/2-x,1/2+y,1/2+z
1/2+x,1/2-y,1/2+z
loop_
_atom_site_type_symbol
_atom_site_label
_atom_site_fract_x
_atom_site_fract_y
_atom_site_fract_z
Si Si1 0.224733 0.115218 0.829294
Si Si2 0.159581 0.754812 0.832196
Si Si3 0.291612 0.461334 0.326954
Si Si4 0.914611 0.940364 0.340466
Si Si5 0.942992 0.785041 0.173394
Si Si6 0.000000 0.000000 0.250000
Si Si7 0.257736 0.187393 0.667638
Si Si8 0.403369 0.631293 0.331863
O O1 0.239460 0.075829 0.742683
O O2 0.263730 0.149558 0.768740
O O3 0.161835 0.128564 0.795158
O O4 0.235415 0.108787 0.000000
O O5 0.105834 0.756794 0.728650
O O6 0.203815 0.787651 0.785869
O O7 0.186799 0.712711 0.809204
O O8 0.141907 0.760526 0.000000
O O9 0.267744 0.500000 0.250000
O O10 0.281339 0.463266 0.500000
O O11 0.356778 0.458439 0.283129
O O12 0.904304 0.923119 0.500000
O O13 0.935197 0.904717 0.241728
O O14 0.961270 0.973407 0.350382
O O15 0.927870 0.828419 0.226786
O O16 0.000000 0.772044 0.250000
O O17 0.948265 0.781765 0.000000
O O18 0.252037 0.174548 0.500000
O O19 0.415791 0.627373 0.500000
#
# Coordination Sequence:
#
# PCOD8275488 Si02
#       8
#    16  16  16  16  16   4  16  16
#     4  10  18  30  48  69  89 112 143 182 225 273
#     4   9  18  32  49  69  93 119 147 183 226 273
#     4  10  19  33  47  62  81 108 139 174 221 271
#     4  10  22  34  46  58  72  98 131 174 223 272
#     4  11  22  35  48  66  89 119 152 186 225 270
#     4  12  22  36  44  62  74  92 136 182 234 280
#     4   9  17  30  49  72  94 116 144 182 229 275
#     4   9  20  35  47  61  83 106 137 180 224 271
#
# _framework density 15.264961
#
# number of rings (size 3 to 8) (size 9 to 14) (size 15 to 20)
#    0.000    2.207    2.069    2.276    0.966    3.862 
#    0.000    1.379    0.000    0.000    0.000    0.000 
#    0.000    0.000    0.000    0.000    0.000    0.690 
#
# Total GULP energy -719193.829431 kJ/mol
# GULP energy per Si atom -12399.893611 kJ/mol
# Density = 1.523022 g / cm^3
# Si number density = 15.264961 Si / 1000 Ang^3
#
#
#
# Elastic Constant Matrix: (Units=GPa)
#
#
# Indices 1 2 3 4 5 6 
#
# 1 49.9502 31.2112 28.9629 0.0000 0.0000 0.0000
# 2 31.2112 98.2931 47.7211 0.0000 0.0000 0.0000
# 3 28.9629 47.7211 76.5966 0.0000 0.0000 0.0000
# 4 0.0000 0.0000 0.0000 28.2757 0.0000 0.0000
# 5 0.0000 0.0000 0.0000 0.0000 15.7033 0.0000
# 6 0.0000 0.0000 0.0000 0.0000 0.0000 20.9267
#
#
#
# Elastic Compliance Matrix: (Units=1/GPa)
#
#
# Indices 1 2 3 4 5 6 
#
# 1 0.027420 -0.005266 -0.007087 0.000000 0.000000 0.000000
# 2 -0.005266 0.015597 -0.007726 0.000000 0.000000 0.000000
# 3 -0.007087 -0.007726 0.020549 0.000000 0.000000 0.000000
# 4 0.000000 0.000000 0.000000 0.035366 0.000000 0.000000
# 5 0.000000 0.000000 0.000000 0.000000 0.063681 0.000000
# 6 0.000000 0.000000 0.000000 0.000000 0.000000 0.047786
#
#
# Mechanical properties :
#
#
# Convention : Reuss Voigt Hill
#
# Bulk Modulus (GPa) = 42.72220 48.95891 45.84055
# Shear Modulus (GPa) = 19.35299 20.77746 20.06523
#
# Velocity S-wave (km/s) = 3.56449 3.69334 3.62949
# Velocity P-wave (km/s) = 6.70736 7.09437 6.90357
#
# Compressibility (1/GPa) = 0.02340703
#
# Stress axis : x y z
#
# Youngs Moduli (GPa) = 36.47008 64.11660 48.66499
#
# Poissons Ratio (x) = 0.33762 0.34491
# Poissons Ratio (y) = 0.19204 0.37598
# Poissons Ratio (z) = 0.25848 0.49536
#
# Static dielectric constant tensor:
#      x y z
#    x 2.543840 0.000000 0.000000 
#    y 0.000000 2.926990 0.000000 
#    z 0.000000 0.000000 2.895390 
# 
# 
# High freq. dielectric constant tensor:
#      x y z
#    x 1.529730 0.000000 0.000000 
#    y 0.000000 1.578870 0.000000 
#    z 0.000000 0.000000 1.594830 
# 
# From -- ./inp_files/9611.got.cif
#   From: 2010.03.12/outbox.cif.g09.slc.cpg/sg66_5_cif.got.tgz:9611.got - 2010.04.10 21:57:39.
