data_PCOD8275294
_publ_section_title
;
Structure prediction by ZEFSAII (Michael W. Deem and Ramdas Pophale) SiO2 
 PCOD8275294
Probable space group: C C C M
;
_chemical_formula_sum "Si O2"
_cell_formula_units_Z 80
_cell_length_a 18.402045
_cell_length_b 36.791949
_cell_length_c 8.595072
_cell_angle_alpha 90.000000
_cell_angle_beta 90.000000
_cell_angle_gamma 90.000000
_cell_volume 5819.268582
_symmetry_space_group_name_H-M "C C C M"
_symmetry_group_IT_number 66
_symmetry_cell_setting 'orthorhombic'
loop_
_space_group_symop_operation_xyz
x,y,z
-x,-y,z
x,-y,1/2-z
-x,y,1/2-z
-x,-y,-z
x,y,-z
-x,y,1/2+z
x,-y,1/2+z
1/2+x,1/2+y,z
1/2-x,1/2-y,z
1/2+x,1/2-y,1/2-z
1/2-x,1/2+y,1/2-z
1/2-x,1/2-y,-z
1/2+x,1/2+y,-z
1/2-x,1/2+y,1/2+z
1/2+x,1/2-y,1/2+z
loop_
_atom_site_type_symbol
_atom_site_label
_atom_site_fract_x
_atom_site_fract_y
_atom_site_fract_z
Si Si1 0.285372 0.289244 0.829029
Si Si2 0.079737 0.610114 0.682708
Si Si3 0.846852 0.321445 0.180572
Si Si4 0.080988 0.536335 0.815965
Si Si5 0.422351 0.248741 0.184559
O O1 0.250000 0.250000 0.842924
O O2 0.238802 0.313627 0.710252
O O3 0.368146 0.282226 0.772112
O O4 0.284266 0.307796 0.000000
O O5 0.072615 0.604916 0.500000
O O6 0.132265 0.643253 0.722052
O O7 0.116879 0.573771 0.755678
O O8 0.000000 0.618051 0.750000
O O9 0.897232 0.288307 0.234162
O O10 0.859993 0.328806 0.000000
O O11 0.121048 0.500000 0.750000
O O12 0.000000 0.536790 0.750000
O O13 0.081169 0.535095 0.000000
O O14 0.500000 0.260396 0.250000
O O15 0.423969 0.242190 0.000000
#
# Coordination Sequence:
#
# PCOD8275294 Si02
#       5
#    16  16  16  16  16
#     4   8  16  30  43  55  73  97 122 151 188 228
#     4  11  20  30  41  55  75  98 126 160 195 227
#     4  11  20  29  41  57  76  98 125 157 193 231
#     4  10  17  27  40  55  73  95 123 153 187 223
#     4  10  19  30  43  58  76  97 124 157 192 228
#
# _framework density 13.747432
#
# number of rings (size 3 to 8) (size 9 to 14) (size 15 to 20)
#    0.000    2.000    0.000    9.600    0.000    4.400 
#    0.000    0.000    0.000    0.000    0.000    0.000 
#    0.000    0.000    0.000    0.000    0.000    1.000 
#
# Total GULP energy -495802.821403 kJ/mol
# GULP energy per Si atom -12395.070535 kJ/mol
# Density = 1.371614 g / cm^3
# Si number density = 13.747432 Si / 1000 Ang^3
#
#
#
# Elastic Constant Matrix: (Units=GPa)
#
#
# Indices 1 2 3 4 5 6 
#
# 1 73.7438 29.0890 21.5822 0.0000 0.0000 0.0000
# 2 29.0890 70.2027 27.0852 0.0000 0.0000 0.0000
# 3 21.5822 27.0852 102.2441 0.0000 0.0000 0.0000
# 4 0.0000 0.0000 0.0000 26.1536 0.0000 0.0000
# 5 0.0000 0.0000 0.0000 0.0000 12.0231 0.0000
# 6 0.0000 0.0000 0.0000 0.0000 0.0000 9.2342
#
#
#
# Elastic Compliance Matrix: (Units=1/GPa)
#
#
# Indices 1 2 3 4 5 6 
#
# 1 0.016523 -0.006127 -0.001865 0.000000 0.000000 0.000000
# 2 -0.006127 0.018138 -0.003512 0.000000 0.000000 0.000000
# 3 -0.001865 -0.003512 0.011104 0.000000 0.000000 0.000000
# 4 0.000000 0.000000 0.000000 0.038236 0.000000 0.000000
# 5 0.000000 0.000000 0.000000 0.000000 0.083174 0.000000
# 6 0.000000 0.000000 0.000000 0.000000 0.000000 0.108294
#
#
# Mechanical properties :
#
#
# Convention : Reuss Voigt Hill
#
# Bulk Modulus (GPa) = 43.93882 44.63370 44.28626
# Shear Modulus (GPa) = 16.33661 20.71111 18.52386
#
# Velocity S-wave (km/s) = 3.45097 3.88563 3.67473
# Velocity P-wave (km/s) = 6.92169 7.25729 7.09148
#
# Compressibility (1/GPa) = 0.02275892
#
# Stress axis : x y z
#
# Youngs Moduli (GPa) = 60.52142 55.13264 90.05472
#
# Poissons Ratio (x) = 0.33780 0.16792
# Poissons Ratio (y) = 0.37082 0.31623
# Poissons Ratio (z) = 0.11285 0.19360
#
# Static dielectric constant tensor:
#      x y z
#    x 2.776590 0.000000 0.000000 
#    y 0.000000 3.074980 0.000000 
#    z 0.000000 0.000000 2.835140 
# 
# 
# High freq. dielectric constant tensor:
#      x y z
#    x 1.483620 0.000000 0.000000 
#    y 0.000000 1.505540 0.000000 
#    z 0.000000 0.000000 1.544700 
# 
# From -- ./inp_files/8221.got.cif
#   From: 2010.03.12/outbox.cif.g09.slc.cpg/sg66_5_cif.got.tgz:8221.got - 2010.04.10 21:57:39.
