data_PCOD8275104
_publ_section_title
;
Structure prediction by ZEFSAII (Michael W. Deem and Ramdas Pophale) SiO2 
 PCOD8275104
Probable space group: C M M M
;
_chemical_formula_sum "Si O2"
_cell_formula_units_Z 104
_cell_length_a 9.432026
_cell_length_b 29.220346
_cell_length_c 22.912844
_cell_angle_alpha 90.000000
_cell_angle_beta 90.000000
_cell_angle_gamma 90.000000
_cell_volume 6314.941644
_symmetry_space_group_name_H-M "C M M M"
_symmetry_group_IT_number 65
_symmetry_cell_setting 'orthorhombic'
loop_
_space_group_symop_operation_xyz
x,y,z
-x,-y,z
x,-y,-z
-x,y,-z
-x,-y,-z
x,y,-z
-x,y,z
x,-y,z
1/2+x,1/2+y,z
1/2-x,1/2-y,z
1/2+x,1/2-y,-z
1/2-x,1/2+y,-z
1/2-x,1/2-y,-z
1/2+x,1/2+y,-z
1/2-x,1/2+y,z
1/2+x,1/2-y,z
loop_
_atom_site_type_symbol
_atom_site_label
_atom_site_fract_x
_atom_site_fract_y
_atom_site_fract_z
Si Si1 0.162821 0.052207 0.333513
Si Si2 0.166537 0.447129 0.221567
Si Si3 0.668385 0.891978 0.109632
Si Si4 0.663232 0.621251 0.566627
Si Si5 0.330612 0.948277 0.000000
Si Si6 0.659271 0.791807 0.569297
Si Si7 0.335556 0.205693 0.931794
O O1 0.256926 0.070259 0.280012
O O2 0.199865 0.078528 0.392762
O O3 0.000000 0.058925 0.315451
O O4 0.199826 0.000000 0.347281
O O5 0.205212 0.500000 0.207277
O O6 0.222552 0.414550 0.169671
O O7 0.000000 0.441480 0.230946
O O8 0.500000 0.893616 0.106475
O O9 0.718367 0.839149 0.103505
O O10 0.729712 0.922245 0.056687
O O11 0.696732 0.607129 0.500000
O O12 0.500000 0.636974 0.572718
O O13 0.762918 0.662027 0.588365
O O14 0.500000 0.948228 0.000000
O O15 0.272345 0.000000 0.000000
O O16 0.653674 0.787724 0.500000
O O17 0.500000 0.790990 0.595189
O O18 0.750000 0.750000 0.595714
O O19 0.500000 0.215273 0.919614
O O20 0.250000 0.250000 0.909591
O O21 0.307956 0.196362 0.000000
#
# Coordination Sequence:
#
# PCOD8275104 Si02
#       7
#    16  16  16  16   8  16  16
#     4   9  18  32  48  66  90 121 155 188 225 272
#     4   9  17  29  46  67  89 115 149 186 223 269
#     4   9  15  25  41  64  91 117 145 181 225 264
#     4   9  17  29  46  68  92 117 149 191 235 276
#     4   9  14  20  35  62  93 117 139 175 222 265
#     4   9  16  26  42  65  93 122 149 178 217 268
#     4   9  16  27  43  63  89 118 148 182 220 262
#
# _framework density 16.468878
#
# number of rings (size 3 to 8) (size 9 to 14) (size 15 to 20)
#    0.000    3.000    0.769    0.923    0.000    4.615 
#    0.000    2.308    0.000    0.923    0.000    8.615 
#    0.000    3.692    0.000    0.000    0.000    0.000 
#
# Total GULP energy -644678.429747 kJ/mol
# GULP energy per Si atom -12397.662111 kJ/mol
# Density = 1.643139 g / cm^3
# Si number density = 16.468878 Si / 1000 Ang^3
#
#
#
# Elastic Constant Matrix: (Units=GPa)
#
#
# Indices 1 2 3 4 5 6 
#
# 1 57.6968 48.8892 38.7104 0.0000 0.0000 0.0000
# 2 48.8892 129.5097 69.4635 0.0000 0.0000 0.0000
# 3 38.7104 69.4635 97.0964 0.0000 0.0000 0.0000
# 4 0.0000 0.0000 0.0000 17.4179 0.0000 0.0000
# 5 0.0000 0.0000 0.0000 0.0000 18.6264 0.0000
# 6 0.0000 0.0000 0.0000 0.0000 0.0000 24.8028
#
#
#
# Elastic Compliance Matrix: (Units=1/GPa)
#
#
# Indices 1 2 3 4 5 6 
#
# 1 0.027296 -0.007249 -0.005697 0.000000 0.000000 0.000000
# 2 -0.007249 0.014454 -0.007451 0.000000 0.000000 0.000000
# 3 -0.005697 -0.007451 0.017900 0.000000 0.000000 0.000000
# 4 0.000000 0.000000 0.000000 0.057412 0.000000 0.000000
# 5 0.000000 0.000000 0.000000 0.000000 0.053687 0.000000
# 6 0.000000 0.000000 0.000000 0.000000 0.000000 0.040318
#
#
# Mechanical properties :
#
#
# Convention : Reuss Voigt Hill
#
# Bulk Modulus (GPa) = 53.02599 66.49211 59.75905
# Shear Modulus (GPa) = 19.36887 20.65206 20.01046
#
# Velocity S-wave (km/s) = 3.43314 3.54504 3.48953
# Velocity P-wave (km/s) = 6.92696 7.56429 7.25263
#
# Compressibility (1/GPa) = 0.01885868
#
# Stress axis : x y z
#
# Youngs Moduli (GPa) = 36.63510 69.18536 55.86478
#
# Poissons Ratio (x) = 0.50150 0.31824
# Poissons Ratio (y) = 0.26556 0.41622
# Poissons Ratio (z) = 0.20870 0.51547
#
# Static dielectric constant tensor:
#      x y z
#    x 2.961250 0.000000 0.000000 
#    y 0.000000 3.212300 0.000000 
#    z 0.000000 0.000000 2.963960 
# 
# 
# High freq. dielectric constant tensor:
#      x y z
#    x 1.611000 0.000000 0.000000 
#    y 0.000000 1.638500 0.000000 
#    z 0.000000 0.000000 1.607500 
# 
# From -- ./inp_files/68562.got.cif
#   From: 2010.03.12/outbox.cif.g09.slc.cpg/sg65_35_cif.got.tgz:68562.got - 2010.04.10 20:52:16.
