data_PCOD8275009
_publ_section_title
;
Structure prediction by ZEFSAII (Michael W. Deem and Ramdas Pophale) SiO2 
 PCOD8275009
Probable space group: C M M M
;
_chemical_formula_sum "Si O2"
_cell_formula_units_Z 104
_cell_length_a 9.618301
_cell_length_b 30.306918
_cell_length_c 22.474440
_cell_angle_alpha 90.000000
_cell_angle_beta 90.000000
_cell_angle_gamma 90.000000
_cell_volume 6551.323076
_symmetry_space_group_name_H-M "C M M M"
_symmetry_group_IT_number 65
_symmetry_cell_setting 'orthorhombic'
loop_
_space_group_symop_operation_xyz
x,y,z
-x,-y,z
x,-y,-z
-x,y,-z
-x,-y,-z
x,y,-z
-x,y,z
x,-y,z
1/2+x,1/2+y,z
1/2-x,1/2-y,z
1/2+x,1/2-y,-z
1/2-x,1/2+y,-z
1/2-x,1/2-y,-z
1/2+x,1/2+y,-z
1/2-x,1/2+y,z
1/2+x,1/2-y,z
loop_
_atom_site_type_symbol
_atom_site_label
_atom_site_fract_x
_atom_site_fract_y
_atom_site_fract_z
Si Si1 0.841357 0.050957 0.931226
Si Si2 0.846802 0.288122 0.149798
Si Si3 0.664980 0.113138 0.151338
Si Si4 0.345628 0.211555 0.708890
Si Si5 0.341945 0.552360 0.500000
Si Si6 0.164614 0.615162 0.715657
Si Si7 0.338491 0.948550 0.388675
O O1 0.737781 0.079595 0.892493
O O2 0.000000 0.063429 0.915926
O O3 0.813594 0.000000 0.916412
O O4 0.810051 0.060575 0.000000
O O5 0.750000 0.250000 0.121953
O O6 0.792858 0.336976 0.132739
O O7 0.853001 0.283933 0.220478
O O8 0.000000 0.280740 0.122964
O O9 0.500000 0.106576 0.146985
O O10 0.719838 0.103359 0.218440
O O11 0.500000 0.217044 0.681596
O O12 0.250000 0.250000 0.680960
O O13 0.281191 0.163249 0.693554
O O14 0.344861 0.500000 0.500000
O O15 0.500000 0.571121 0.500000
O O16 0.257633 0.568830 0.442302
O O17 0.211185 0.577381 0.669964
O O18 0.000000 0.619375 0.720122
O O19 0.500000 0.939119 0.404230
O O20 0.314698 0.000000 0.375948
#
# Coordination Sequence:
#
# PCOD8275009 Si02
#       7
#    16  16  16  16   8  16  16
#     4   9  19  35  50  63  83 113 148 183 218 259
#     4   8  14  24  39  61  88 115 141 170 206 251
#     4   9  17  29  46  69  93 114 141 180 221 257
#     4   8  13  23  38  56  82 113 141 169 203 243
#     4   9  17  29  43  59  82 111 142 179 218 245
#     4   8  15  27  42  64  93 117 137 170 215 255
#     4   9  16  27  44  63  83 112 148 175 199 246
#
# _framework density 15.874656
#
# number of rings (size 3 to 8) (size 9 to 14) (size 15 to 20)
#    0.000    3.462    0.000    2.538    0.000    2.769 
#    0.000    6.154    0.000    2.308    0.000    0.538 
#    0.000    0.000    0.000    0.000    0.000    0.000 
#
# Total GULP energy -644447.276089 kJ/mol
# GULP energy per Si atom -12393.216848 kJ/mol
# Density = 1.583852 g / cm^3
# Si number density = 15.874656 Si / 1000 Ang^3
#
#
#
# Elastic Constant Matrix: (Units=GPa)
#
#
# Indices 1 2 3 4 5 6 
#
# 1 68.8748 53.7480 43.9071 0.0000 0.0000 0.0000
# 2 53.7480 103.1140 59.3151 0.0000 0.0000 0.0000
# 3 43.9071 59.3151 72.2768 0.0000 0.0000 0.0000
# 4 0.0000 0.0000 0.0000 -0.5850 0.0000 0.0000
# 5 0.0000 0.0000 0.0000 0.0000 15.6528 0.0000
# 6 0.0000 0.0000 0.0000 0.0000 0.0000 27.6948
#
#
#
# Elastic Compliance Matrix: (Units=1/GPa)
#
#
# Indices 1 2 3 4 5 6 
#
# 1 0.027445 -0.008931 -0.009343 0.000000 0.000000 0.000000
# 2 -0.008931 0.021277 -0.012035 0.000000 0.000000 0.000000
# 3 -0.009343 -0.012035 0.029388 0.000000 0.000000 0.000000
# 4 0.000000 0.000000 0.000000 -1.709539 0.000000 0.000000
# 5 0.000000 0.000000 0.000000 0.000000 0.063886 0.000000
# 6 0.000000 0.000000 0.000000 0.000000 0.000000 0.036108
#
#
# Mechanical properties :
#
#
# Convention : Reuss Voigt Hill
#
# Bulk Modulus (GPa) = 57.17247 62.02290 59.59769
# Shear Modulus (GPa) = -3.41300 14.37222 5.47961
#
# Velocity S-wave (km/s) = -1.46787 3.01218 1.85992
# Velocity P-wave (km/s) = 5.76370 7.15911 6.49897
#
# Compressibility (1/GPa) = 0.01749094
#
# Stress axis : x y z
#
# Youngs Moduli (GPa) = 36.43697 46.99997 34.02714
#
# Poissons Ratio (x) = 0.41977 0.31791
# Poissons Ratio (y) = 0.32543 0.40953
# Poissons Ratio (z) = 0.34042 0.56566
#
# Static dielectric constant tensor:
#      x y z
#    x 3.062040 0.000000 0.000000 
#    y 0.000000 3.134590 0.000000 
#    z 0.000000 0.000000 2.788060 
# 
# 
# High freq. dielectric constant tensor:
#      x y z
#    x 1.596970 0.000000 0.000000 
#    y 0.000000 1.609060 0.000000 
#    z 0.000000 0.000000 1.574040 
# 
# From -- ./inp_files/68480.got.cif
#   From: 2010.03.12/outbox.cif.g09.slc.cpg/sg65_35_cif.got.tgz:68480.got - 2010.04.10 20:52:16.
