data_PCOD8275499
_publ_section_title
;
Structure prediction by ZEFSAII (Michael W. Deem and Ramdas Pophale) SiO2 
 PCOD8275499
Probable space group: C C C M
;
_chemical_formula_sum "Si O2"
_cell_formula_units_Z 84
_cell_length_a 23.074126
_cell_length_b 12.024843
_cell_length_c 18.319898
_cell_angle_alpha 90.000000
_cell_angle_beta 90.000000
_cell_angle_gamma 90.000000
_cell_volume 5083.089142
_symmetry_space_group_name_H-M "C C C M"
_symmetry_group_IT_number 66
_symmetry_cell_setting 'orthorhombic'
loop_
_space_group_symop_operation_xyz
x,y,z
-x,-y,z
x,-y,1/2-z
-x,y,1/2-z
-x,-y,-z
x,y,-z
-x,y,1/2+z
x,-y,1/2+z
1/2+x,1/2+y,z
1/2-x,1/2-y,z
1/2+x,1/2-y,1/2-z
1/2-x,1/2+y,1/2-z
1/2-x,1/2-y,-z
1/2+x,1/2+y,-z
1/2-x,1/2+y,1/2+z
1/2+x,1/2-y,1/2+z
loop_
_atom_site_type_symbol
_atom_site_label
_atom_site_fract_x
_atom_site_fract_y
_atom_site_fract_z
Si Si1 0.110337 0.079865 0.312678
Si Si2 0.169421 0.933585 0.415087
Si Si3 0.298238 0.988286 0.916332
Si Si4 0.187264 0.293565 0.689805
Si Si5 0.500000 0.500000 0.750000
Si Si6 0.312605 0.790305 0.643223
O O1 0.136602 0.202635 0.314772
O O2 0.140013 0.000000 0.250000
O O3 0.122529 0.025109 0.391392
O O4 0.040799 0.081262 0.299052
O O5 0.165581 0.908850 0.500000
O O6 0.232055 0.984720 0.393148
O O7 0.149919 0.820487 0.371955
O O8 0.333525 0.103865 0.904447
O O9 0.326763 0.895287 0.864308
O O10 0.303179 0.948382 0.000000
O O11 0.250000 0.250000 0.664764
O O12 0.189276 0.332384 0.773477
O O13 0.250000 0.750000 0.614733
#
# Coordination Sequence:
#
# PCOD8275499 Si02
#       6
#    16  16  16  16   4  16
#     4  10  19  35  52  74  99 135 174 221 263 307
#     4  10  18  30  49  72 103 138 173 215 263 313
#     4  10  20  29  41  71 111 142 165 202 264 327
#     4  11  19  28  50  72 101 133 171 213 264 321
#     4   8  20  36  58  68 102 140 186 226 260 294
#     4   9  17  28  44  65  97 138 176 204 237 305
#
# _framework density 16.525385
#
# number of rings (size 3 to 8) (size 9 to 14) (size 15 to 20)
#    0.571    1.524    3.810    1.143    0.000    3.429 
#    0.000    0.476    0.000    0.000    0.000   10.667 
#    0.000    7.619    0.000    0.000    0.000    0.000 
#
# Total GULP energy -520402.050437 kJ/mol
# GULP energy per Si atom -12390.525010 kJ/mol
# Density = 1.648777 g / cm^3
# Si number density = 16.525385 Si / 1000 Ang^3
#
#
#
# Elastic Constant Matrix: (Units=GPa)
#
#
# Indices 1 2 3 4 5 6 
#
# 1 64.3172 35.4009 11.3740 0.0000 0.0000 0.0000
# 2 35.4009 112.7187 46.6879 0.0000 0.0000 0.0000
# 3 11.3740 46.6879 80.5931 0.0000 0.0000 0.0000
# 4 0.0000 0.0000 0.0000 31.5023 0.0000 0.0000
# 5 0.0000 0.0000 0.0000 0.0000 15.5617 0.0000
# 6 0.0000 0.0000 0.0000 0.0000 0.0000 17.6752
#
#
#
# Elastic Compliance Matrix: (Units=1/GPa)
#
#
# Indices 1 2 3 4 5 6 
#
# 1 0.018860 -0.006343 0.001013 0.000000 0.000000 0.000000
# 2 -0.006343 0.013805 -0.007102 0.000000 0.000000 0.000000
# 3 0.001013 -0.007102 0.016380 0.000000 0.000000 0.000000
# 4 0.000000 0.000000 0.000000 0.031744 0.000000 0.000000
# 5 0.000000 0.000000 0.000000 0.000000 0.064260 0.000000
# 6 0.000000 0.000000 0.000000 0.000000 0.000000 0.056576
#
#
# Mechanical properties :
#
#
# Convention : Reuss Voigt Hill
#
# Bulk Modulus (GPa) = 41.35636 49.39495 45.37566
# Shear Modulus (GPa) = 21.31741 23.89228 22.60484
#
# Velocity S-wave (km/s) = 3.59553 3.80648 3.70251
# Velocity P-wave (km/s) = 6.50518 7.01957 6.76726
#
# Compressibility (1/GPa) = 0.02418008
#
# Stress axis : x y z
#
# Youngs Moduli (GPa) = 53.02246 72.43517 61.05174
#
# Poissons Ratio (x) = 0.45943 -0.06182
# Poissons Ratio (y) = 0.33630 0.43361
# Poissons Ratio (z) = -0.05369 0.51446
#
# Static dielectric constant tensor:
#      x y z
#    x 2.579200 0.000000 0.000000 
#    y 0.000000 3.207150 0.000000 
#    z 0.000000 0.000000 3.052730 
# 
# 
# High freq. dielectric constant tensor:
#      x y z
#    x 1.562080 0.000000 0.000000 
#    y 0.000000 1.643100 0.000000 
#    z 0.000000 0.000000 1.641820 
# 
# From -- ./inp_files/44213.got.cif
#   From: 2010.03.12/outbox.cif.g09.slc.cpg/sg66_23_cif.got.tgz:44213.got - 2010.04.10 21:57:39.
