data_PCOD8275233
_publ_section_title
;
Structure prediction by ZEFSAII (Michael W. Deem and Ramdas Pophale) SiO2 
 PCOD8275233
Probable space group: C C C M
;
_chemical_formula_sum "Si O2"
_cell_formula_units_Z 72
_cell_length_a 24.160318
_cell_length_b 13.471435
_cell_length_c 14.229500
_cell_angle_alpha 90.000000
_cell_angle_beta 90.000000
_cell_angle_gamma 90.000000
_cell_volume 4631.334467
_symmetry_space_group_name_H-M "C C C M"
_symmetry_group_IT_number 66
_symmetry_cell_setting 'orthorhombic'
loop_
_space_group_symop_operation_xyz
x,y,z
-x,-y,z
x,-y,1/2-z
-x,y,1/2-z
-x,-y,-z
x,y,-z
-x,y,1/2+z
x,-y,1/2+z
1/2+x,1/2+y,z
1/2-x,1/2-y,z
1/2+x,1/2-y,1/2-z
1/2-x,1/2+y,1/2-z
1/2-x,1/2-y,-z
1/2+x,1/2+y,-z
1/2-x,1/2+y,1/2+z
1/2+x,1/2-y,1/2+z
loop_
_atom_site_type_symbol
_atom_site_label
_atom_site_fract_x
_atom_site_fract_y
_atom_site_fract_z
Si Si1 0.440882 0.608191 0.292034
Si Si2 0.262180 0.131009 0.500000
Si Si3 0.222859 0.397436 0.701866
Si Si4 0.838640 0.204137 0.798957
Si Si5 0.558931 0.545250 0.000000
Si Si6 0.143990 0.133883 0.500000
O O1 0.428606 0.500000 0.250000
O O2 0.500000 0.645449 0.250000
O O3 0.391614 0.680272 0.263270
O O4 0.437218 0.610184 0.405296
O O5 0.250000 0.250000 0.500000
O O6 0.294126 0.095648 0.592113
O O7 0.202580 0.076934 0.500000
O O8 0.206792 0.500000 0.750000
O O9 0.183826 0.309352 0.739665
O O10 0.288169 0.374119 0.714057
O O11 0.859265 0.204147 0.907604
O O12 0.500000 0.500000 0.000000
O O13 0.599866 0.452846 0.000000
#
# Coordination Sequence:
#
# PCOD8275233 Si02
#       6
#    16   8  16  16   8   8
#     4  11  20  31  48  72 102 131 159 204 246 306
#     4  10  16  32  47  74  94 125 175 211 236 288
#     4  10  19  31  51  72  97 130 168 212 243 297
#     4  10  18  32  47  72  98 126 165 200 255 286
#     4  12  20  30  45  75 103 128 163 197 249 298
#     4  10  16  26  50  67  92 126 159 208 231 288
#
# _framework density 15.546275
#
# number of rings (size 3 to 8) (size 9 to 14) (size 15 to 20)
#    0.000    1.556    8.889    0.667    3.111    0.000 
#    0.000    1.111    0.000    3.333    0.000    0.000 
#    0.000    7.111    0.000    0.000    0.000    0.000 
#
# Total GULP energy -446000.515518 kJ/mol
# GULP energy per Si atom -12388.903209 kJ/mol
# Density = 1.551089 g / cm^3
# Si number density = 15.546275 Si / 1000 Ang^3
#
#
#
# Elastic Constant Matrix: (Units=GPa)
#
#
# Indices 1 2 3 4 5 6 
#
# 1 105.9374 42.6603 38.1032 0.0000 0.0000 0.0000
# 2 42.6603 77.5066 46.6851 0.0000 0.0000 0.0000
# 3 38.1032 46.6851 125.0734 0.0000 0.0000 0.0000
# 4 0.0000 0.0000 0.0000 18.0501 0.0000 0.0000
# 5 0.0000 0.0000 0.0000 0.0000 19.7055 0.0000
# 6 0.0000 0.0000 0.0000 0.0000 0.0000 23.2588
#
#
#
# Elastic Compliance Matrix: (Units=1/GPa)
#
#
# Indices 1 2 3 4 5 6 
#
# 1 0.012366 -0.005853 -0.001582 0.000000 0.000000 0.000000
# 2 -0.005853 0.019415 -0.005464 0.000000 0.000000 0.000000
# 3 -0.001582 -0.005464 0.010517 0.000000 0.000000 0.000000
# 4 0.000000 0.000000 0.000000 0.055401 0.000000 0.000000
# 5 0.000000 0.000000 0.000000 0.000000 0.050747 0.000000
# 6 0.000000 0.000000 0.000000 0.000000 0.000000 0.042995
#
#
# Mechanical properties :
#
#
# Convention : Reuss Voigt Hill
#
# Bulk Modulus (GPa) = 60.61024 62.60163 61.60593
# Shear Modulus (GPa) = 22.44790 24.27413 23.36101
#
# Velocity S-wave (km/s) = 3.80404 3.95576 3.88064
# Velocity P-wave (km/s) = 7.63976 7.82428 7.73257
#
# Compressibility (1/GPa) = 0.01649886
#
# Stress axis : x y z
#
# Youngs Moduli (GPa) = 80.86895 51.50759 95.08631
#
# Poissons Ratio (x) = 0.30147 0.15047
# Poissons Ratio (y) = 0.47333 0.51952
# Poissons Ratio (z) = 0.12797 0.28142
#
# Static dielectric constant tensor:
#      x y z
#    x 3.068640 0.000000 0.000000 
#    y 0.000000 2.642340 0.000000 
#    z 0.000000 0.000000 3.098220 
# 
# 
# High freq. dielectric constant tensor:
#      x y z
#    x 1.593460 0.000000 0.000000 
#    y 0.000000 1.551450 0.000000 
#    z 0.000000 0.000000 1.605780 
# 
# From -- ./inp_files/19645.got.cif
#   From: 2010.03.12/outbox.cif.g09.slc.cpg/sg66_10_cif.got.tgz:19645.got - 2010.04.10 21:57:39.
