data_PCOD8275628
_publ_section_title
;
Structure prediction by ZEFSAII (Michael W. Deem and Ramdas Pophale) SiO2 
 PCOD8275628
Probable space group: C C C M
;
_chemical_formula_sum "Si O2"
_cell_formula_units_Z 96
_cell_length_a 15.354698
_cell_length_b 18.988287
_cell_length_c 17.965373
_cell_angle_alpha 90.000000
_cell_angle_beta 90.000000
_cell_angle_gamma 90.000000
_cell_volume 5237.973596
_symmetry_space_group_name_H-M "C C C M"
_symmetry_group_IT_number 66
_symmetry_cell_setting 'orthorhombic'
loop_
_space_group_symop_operation_xyz
x,y,z
-x,-y,z
x,-y,1/2-z
-x,y,1/2-z
-x,-y,-z
x,y,-z
-x,y,1/2+z
x,-y,1/2+z
1/2+x,1/2+y,z
1/2-x,1/2-y,z
1/2+x,1/2-y,1/2-z
1/2-x,1/2+y,1/2-z
1/2-x,1/2-y,-z
1/2+x,1/2+y,-z
1/2-x,1/2+y,1/2+z
1/2+x,1/2-y,1/2+z
loop_
_atom_site_type_symbol
_atom_site_label
_atom_site_fract_x
_atom_site_fract_y
_atom_site_fract_z
Si Si1 0.090620 0.333371 0.710544
Si Si2 0.244280 0.171095 0.191721
Si Si3 0.595841 0.020477 0.164002
Si Si4 0.919880 0.950315 0.412677
Si Si5 0.415294 0.675306 0.199665
Si Si6 0.742474 0.454973 0.413132
O O1 0.162384 0.344274 0.773765
O O2 0.106121 0.395253 0.650826
O O3 0.091833 0.256581 0.671683
O O4 0.000000 0.348937 0.750000
O O5 0.250000 0.250000 0.159639
O O6 0.170989 0.158868 0.254030
O O7 0.222232 0.119649 0.124287
O O8 0.500000 0.000000 0.137180
O O9 0.612944 0.000000 0.250000
O O10 0.663959 0.982797 0.110829
O O11 0.924388 0.933406 0.500000
O O12 0.923428 0.875792 0.370691
O O13 0.831205 0.989223 0.389515
O O14 0.000000 0.000000 0.388265
O O15 0.500000 0.665448 0.250000
O O16 0.740262 0.441117 0.500000
#
# Coordination Sequence:
#
# PCOD8275628 Si02
#       6
#    16  16  16  16  16  16
#     4  10  18  33  54  83 109 134 182 224 269 321
#     4  10  20  34  54  79 108 142 180 226 277 325
#     4  11  19  34  60  82 105 146 178 221 272 325
#     4  10  22  39  56  79 113 149 186 230 281 327
#     4  10  21  34  56  84 107 138 186 233 264 327
#     4  11  23  36  54  81 111 144 184 228 273 331
#
# _framework density 18.327697000000001
#
# number of rings (size 3 to 8) (size 9 to 14) (size 15 to 20)
#    0.000    1.667    3.333    2.000    0.000    2.333 
#    0.000    0.833    0.000   18.500    0.000    0.000 
#    0.000    0.000    0.000    0.000    0.000    0.000 
#
# Total GULP energy -595173.679096 kJ/mol
# GULP energy per Si atom -12399.451648 kJ/mol
# Density = 1.828598 g / cm^3
# Si number density = 18.327697 Si / 1000 Ang^3
#
#
#
# Elastic Constant Matrix: (Units=GPa)
#
#
# Indices 1 2 3 4 5 6 
#
# 1 102.2855 26.8804 24.5055 0.0000 0.0000 0.0000
# 2 26.8804 157.3870 59.3512 0.0000 0.0000 0.0000
# 3 24.5055 59.3512 55.5052 0.0000 0.0000 0.0000
# 4 0.0000 0.0000 0.0000 24.2925 0.0000 0.0000
# 5 0.0000 0.0000 0.0000 0.0000 20.4549 0.0000
# 6 0.0000 0.0000 0.0000 0.0000 0.0000 34.4585
#
#
#
# Elastic Compliance Matrix: (Units=1/GPa)
#
#
# Indices 1 2 3 4 5 6 
#
# 1 0.010934 -0.000079 -0.004743 0.000000 0.000000 0.000000
# 2 -0.000079 0.010648 -0.011351 0.000000 0.000000 0.000000
# 3 -0.004743 -0.011351 0.032247 0.000000 0.000000 0.000000
# 4 0.000000 0.000000 0.000000 0.041165 0.000000 0.000000
# 5 0.000000 0.000000 0.000000 0.000000 0.048888 0.000000
# 6 0.000000 0.000000 0.000000 0.000000 0.000000 0.029020
#
#
# Mechanical properties :
#
#
# Convention : Reuss Voigt Hill
#
# Bulk Modulus (GPa) = 46.54633 59.62802 53.08718
# Shear Modulus (GPa) = 23.53963 29.47054 26.50509
#
# Velocity S-wave (km/s) = 3.58771 4.01431 3.80699
# Velocity P-wave (km/s) = 6.52794 7.35468 6.95361
#
# Compressibility (1/GPa) = 0.02148397
#
# Stress axis : x y z
#
# Youngs Moduli (GPa) = 91.46143 93.91828 31.01030
#
# Poissons Ratio (x) = 0.00740 0.14708
# Poissons Ratio (y) = 0.00721 0.35198
# Poissons Ratio (z) = 0.43379 1.06602
#
# Static dielectric constant tensor:
#      x y z
#    x 3.619520 0.000000 0.000000 
#    y 0.000000 3.786100 0.000000 
#    z 0.000000 0.000000 2.956830 
# 
# 
# High freq. dielectric constant tensor:
#      x y z
#    x 1.736300 0.000000 0.000000 
#    y 0.000000 1.731480 0.000000 
#    z 0.000000 0.000000 1.667520 
# 
# From -- ./inp_files/28408.got.cif
#   From: 2010.03.12/outbox.cif.g09.slc.cpg/sg66_15_cif.got.tgz:28408.got - 2010.04.10 21:57:39.
