data_PCOD8275840
_publ_section_title
;
Structure prediction by ZEFSAII (Michael W. Deem and Ramdas Pophale) SiO2 
 PCOD8275840
Probable space group: C C C M
;
_chemical_formula_sum "Si O2"
_cell_formula_units_Z 64
_cell_length_a 16.219989
_cell_length_b 8.842614
_cell_length_c 23.998575
_cell_angle_alpha 90.000000
_cell_angle_beta 90.000000
_cell_angle_gamma 90.000000
_cell_volume 3442.046060
_symmetry_space_group_name_H-M "C C C M"
_symmetry_group_IT_number 66
_symmetry_cell_setting 'orthorhombic'
loop_
_space_group_symop_operation_xyz
x,y,z
-x,-y,z
x,-y,1/2-z
-x,y,1/2-z
-x,-y,-z
x,y,-z
-x,y,1/2+z
x,-y,1/2+z
1/2+x,1/2+y,z
1/2-x,1/2-y,z
1/2+x,1/2-y,1/2-z
1/2-x,1/2+y,1/2-z
1/2-x,1/2-y,-z
1/2+x,1/2+y,-z
1/2-x,1/2+y,1/2+z
1/2+x,1/2-y,1/2+z
loop_
_atom_site_type_symbol
_atom_site_label
_atom_site_fract_x
_atom_site_fract_y
_atom_site_fract_z
Si Si1 0.156551 0.803371 0.878828
Si Si2 0.510828 0.827201 0.684828
Si Si3 0.837127 0.833486 0.000000
Si Si4 0.339124 0.687173 0.000000
Si Si5 0.078431 0.102888 0.107313
O O1 0.250000 0.750000 0.871417
O O2 0.102931 0.719158 0.832631
O O3 0.149256 0.986005 0.871034
O O4 0.119203 0.762791 0.941267
O O5 0.500000 0.803600 0.750000
O O6 0.443388 0.720485 0.655730
O O7 0.500000 0.000000 0.666807
O O8 0.750000 0.750000 0.000000
O O9 0.889892 0.795422 0.055419
O O10 0.823639 0.010386 0.000000
O O11 0.250000 0.750000 0.000000
O O12 0.000000 0.000000 0.089678
#
# Coordination Sequence:
#
# PCOD8275840 Si02
#       5
#    16  16   8   8  16
#     4   9  18  35  58  82 107 139 176 215 263 325
#     4  10  22  39  54  75 108 142 182 229 269 311
#     4  10  19  31  51  84 113 135 173 219 257 311
#     4   8  16  31  51  78 111 137 162 207 266 317
#     4   9  19  35  56  77 108 145 175 211 268 325
#
# _framework density 18.593592000000001
#
# number of rings (size 3 to 8) (size 9 to 14) (size 15 to 20)
#    0.000    2.750    0.000    0.375    0.000   13.500 
#    0.000    7.500    0.000    0.000    0.000    0.000 
#    0.000    0.000    0.000    0.000    0.000    0.000 
#
# Total GULP energy -396448.491522 kJ/mol
# GULP energy per Si atom -12389.015360 kJ/mol
# Density = 1.855127 g / cm^3
# Si number density = 18.593592 Si / 1000 Ang^3
#
#
#
# Elastic Constant Matrix: (Units=GPa)
#
#
# Indices 1 2 3 4 5 6 
#
# 1 102.3915 54.7768 61.7839 0.0000 0.0000 0.0000
# 2 54.7768 82.8317 62.3051 0.0000 0.0000 0.0000
# 3 61.7839 62.3051 121.9553 0.0000 0.0000 0.0000
# 4 0.0000 0.0000 0.0000 25.4586 0.0000 0.0000
# 5 0.0000 0.0000 0.0000 0.0000 27.6886 0.0000
# 6 0.0000 0.0000 0.0000 0.0000 0.0000 38.9707
#
#
#
# Elastic Compliance Matrix: (Units=1/GPa)
#
#
# Indices 1 2 3 4 5 6 
#
# 1 0.016522 -0.007520 -0.004528 0.000000 0.000000 0.000000
# 2 -0.007520 0.023030 -0.007956 0.000000 0.000000 0.000000
# 3 -0.004528 -0.007956 0.014559 0.000000 0.000000 0.000000
# 4 0.000000 0.000000 0.000000 0.039280 0.000000 0.000000
# 5 0.000000 0.000000 0.000000 0.000000 0.036116 0.000000
# 6 0.000000 0.000000 0.000000 0.000000 0.000000 0.025660
#
#
# Mechanical properties :
#
#
# Convention : Reuss Voigt Hill
#
# Bulk Modulus (GPa) = 70.91266 73.87891 72.39578
# Shear Modulus (GPa) = 25.01565 26.97774 25.99669
#
# Velocity S-wave (km/s) = 3.67194 3.81322 3.74325
# Velocity P-wave (km/s) = 7.49657 7.69463 7.59624
#
# Compressibility (1/GPa) = 0.01410185
#
# Stress axis : x y z
#
# Youngs Moduli (GPa) = 60.52640 43.42183 68.68817
#
# Poissons Ratio (x) = 0.32651 0.31105
# Poissons Ratio (y) = 0.45513 0.54649
# Poissons Ratio (z) = 0.27409 0.34547
#
# Static dielectric constant tensor:
#      x y z
#    x 3.343190 0.000000 0.000000 
#    y 0.000000 3.494020 0.000000 
#    z 0.000000 0.000000 5.217210 
# 
# 
# High freq. dielectric constant tensor:
#      x y z
#    x 1.710730 0.000000 0.000000 
#    y 0.000000 1.715920 0.000000 
#    z 0.000000 0.000000 1.724160 
# 
# From -- ./inp_files/50568.got.cif
#   From: 2010.03.12/outbox.cif.g09.slc.cpg/sg66_26_cif.got.tgz:50568.got - 2010.04.10 21:57:39.
