data_PCOD8275010
_publ_section_title
;
Structure prediction by ZEFSAII (Michael W. Deem and Ramdas Pophale) SiO2 
 PCOD8275010
Probable space group: C M M M
;
_chemical_formula_sum "Si O2"
_cell_formula_units_Z 88
_cell_length_a 9.890277
_cell_length_b 29.761632
_cell_length_c 17.455166
_cell_angle_alpha 90.000000
_cell_angle_beta 90.000000
_cell_angle_gamma 90.000000
_cell_volume 5137.941805
_symmetry_space_group_name_H-M "C M M M"
_symmetry_group_IT_number 65
_symmetry_cell_setting 'orthorhombic'
loop_
_space_group_symop_operation_xyz
x,y,z
-x,-y,z
x,-y,-z
-x,y,-z
-x,-y,-z
x,y,-z
-x,y,z
x,-y,z
1/2+x,1/2+y,z
1/2-x,1/2-y,z
1/2+x,1/2-y,-z
1/2-x,1/2+y,-z
1/2-x,1/2-y,-z
1/2+x,1/2+y,-z
1/2-x,1/2+y,z
1/2+x,1/2-y,z
loop_
_atom_site_type_symbol
_atom_site_label
_atom_site_fract_x
_atom_site_fract_y
_atom_site_fract_z
Si Si1 0.650545 0.212547 0.627128
Si Si2 0.153115 0.052257 0.088506
Si Si3 0.840249 0.611735 0.193113
Si Si4 0.161398 0.449355 0.500000
Si Si5 0.148854 0.713090 0.191066
Si Si6 0.339276 0.113485 0.365510
O O1 0.500000 0.219417 0.592566
O O2 0.750000 0.250000 0.591331
O O3 0.643381 0.217325 0.717996
O O4 0.708763 0.163002 0.606911
O O5 0.260558 0.079056 0.137903
O O6 0.000000 0.066233 0.110418
O O7 0.175164 0.000000 0.105243
O O8 0.180641 0.063083 0.000000
O O9 0.805144 0.662821 0.168942
O O10 0.788754 0.602307 0.279864
O O11 0.000000 0.602552 0.185677
O O12 0.218724 0.500000 0.500000
O O13 0.216108 0.423940 0.424321
O O14 0.000000 0.449527 0.500000
O O15 0.250000 0.750000 0.155269
O O16 0.000000 0.722816 0.157176
O O17 0.500000 0.114749 0.364135
#
# Coordination Sequence:
#
# PCOD8275010 Si02
#       6
#    16  16  16   8  16  16
#     4   8  13  23  39  59  86 116 144 178 221 264
#     4   9  19  35  51  68  93 122 150 183 227 280
#     4   9  17  29  47  72  97 119 150 193 233 268
#     4   9  16  26  41  60  85 121 159 189 224 271
#     4   8  14  24  39  62  91 120 149 182 220 263
#     4   8  15  27  41  62  93 122 149 187 229 264
#
# _framework density 17.127481
#
# number of rings (size 3 to 8) (size 9 to 14) (size 15 to 20)
#    0.000    3.545    0.000    2.727    0.000    2.182 
#    0.000    5.909    0.000    0.545    0.000    1.909 
#    0.000    4.364    0.000    0.000    0.000    0.000 
#
# Total GULP energy -545290.534335 kJ/mol
# GULP energy per Si atom -12392.966689 kJ/mol
# Density = 1.708850 g / cm^3
# Si number density = 17.127481 Si / 1000 Ang^3
#
#
#
# Elastic Constant Matrix: (Units=GPa)
#
#
# Indices 1 2 3 4 5 6 
#
# 1 66.4530 62.4173 40.9320 0.0000 0.0000 0.0000
# 2 62.4173 138.7647 63.5179 0.0000 0.0000 0.0000
# 3 40.9320 63.5179 68.1288 0.0000 0.0000 0.0000
# 4 0.0000 0.0000 0.0000 -10.3627 0.0000 0.0000
# 5 0.0000 0.0000 0.0000 0.0000 3.1799 0.0000
# 6 0.0000 0.0000 0.0000 0.0000 0.0000 32.2433
#
#
#
# Elastic Compliance Matrix: (Units=1/GPa)
#
#
# Indices 1 2 3 4 5 6 
#
# 1 0.029015 -0.008847 -0.009184 0.000000 0.000000 0.000000
# 2 -0.008847 0.015269 -0.008920 0.000000 0.000000 0.000000
# 3 -0.009184 -0.008920 0.028512 0.000000 0.000000 0.000000
# 4 0.000000 0.000000 0.000000 -0.096500 0.000000 0.000000
# 5 0.000000 0.000000 0.000000 0.000000 0.314476 0.000000
# 6 0.000000 0.000000 0.000000 0.000000 0.000000 0.031014
#
#
# Mechanical properties :
#
#
# Convention : Reuss Voigt Hill
#
# Bulk Modulus (GPa) = 52.92754 67.45343 60.19049
# Shear Modulus (GPa) = 13.08942 12.11072 12.60007
#
# Velocity S-wave (km/s) = 2.76748 2.66201 2.71526
# Velocity P-wave (km/s) = 6.41725 6.99407 6.71186
#
# Compressibility (1/GPa) = 0.01889376
#
# Stress axis : x y z
#
# Youngs Moduli (GPa) = 34.46484 65.49120 35.07271
#
# Poissons Ratio (x) = 0.57943 0.32210
# Poissons Ratio (y) = 0.30493 0.31286
# Poissons Ratio (z) = 0.31651 0.58420
#
# Static dielectric constant tensor:
#      x y z
#    x 3.135660 0.000000 0.000000 
#    y 0.000000 3.389010 0.000000 
#    z 0.000000 0.000000 2.979230 
# 
# 
# High freq. dielectric constant tensor:
#      x y z
#    x 1.629460 0.000000 0.000000 
#    y 0.000000 1.666940 0.000000 
#    z 0.000000 0.000000 1.634370 
# 
# From -- ./inp_files/50331.got.cif
#   From: 2010.03.12/outbox.cif.g09.slc.cpg/sg65_26_cif.got.tgz:50331.got - 2010.04.10 20:52:16.
