data_PCOD8275547
_publ_section_title
;
Structure prediction by ZEFSAII (Michael W. Deem and Ramdas Pophale) SiO2 
 PCOD8275547
Probable space group: C C C M
;
_chemical_formula_sum "Si O2"
_cell_formula_units_Z 112
_cell_length_a 11.788706
_cell_length_b 27.858208
_cell_length_c 17.153431
_cell_angle_alpha 90.000000
_cell_angle_beta 90.000000
_cell_angle_gamma 90.000000
_cell_volume 5633.396420
_symmetry_space_group_name_H-M "C C C M"
_symmetry_group_IT_number 66
_symmetry_cell_setting 'orthorhombic'
loop_
_space_group_symop_operation_xyz
x,y,z
-x,-y,z
x,-y,1/2-z
-x,y,1/2-z
-x,-y,-z
x,y,-z
-x,y,1/2+z
x,-y,1/2+z
1/2+x,1/2+y,z
1/2-x,1/2-y,z
1/2+x,1/2-y,1/2-z
1/2-x,1/2+y,1/2-z
1/2-x,1/2-y,-z
1/2+x,1/2+y,-z
1/2-x,1/2+y,1/2+z
1/2+x,1/2-y,1/2+z
loop_
_atom_site_type_symbol
_atom_site_label
_atom_site_fract_x
_atom_site_fract_y
_atom_site_fract_z
Si Si1 0.578952 0.066016 0.407353
Si Si2 0.693632 0.161855 0.408392
Si Si3 0.831503 0.888042 0.592298
Si Si4 0.695051 0.798088 0.408468
Si Si5 0.972886 0.269127 0.339629
Si Si6 0.834842 0.533478 0.407258
Si Si7 0.547559 0.666388 0.090947
O O1 0.585416 0.066296 0.500000
O O2 0.628018 0.115652 0.374777
O O3 0.449021 0.060912 0.379403
O O4 0.656785 0.021392 0.376314
O O5 0.674719 0.170597 0.500000
O O6 0.650122 0.209118 0.362480
O O7 0.824823 0.151506 0.389749
O O8 0.819281 0.889671 0.500000
O O9 0.757412 0.844355 0.627329
O O10 0.777307 0.938160 0.625024
O O11 0.963184 0.877713 0.615346
O O12 0.713892 0.797931 0.500000
O O13 0.750000 0.750000 0.371194
O O14 0.562590 0.800397 0.388818
O O15 0.984141 0.213574 0.361197
O O16 0.000000 0.276078 0.250000
O O17 0.832394 0.532788 0.500000
O O18 0.530465 0.678712 0.000000
#
# Coordination Sequence:
#
# PCOD8275547 Si02
#       7
#    16  16  16  16  16  16  16
#     4   8  14  26  46  75 106 135 167 208 258 308
#     4  10  20  35  55  74 101 143 183 210 253 326
#     4   9  16  28  49  76 103 133 169 210 259 308
#     4  10  18  31  52  73  96 126 167 216 256 301
#     4  12  24  35  50  73 104 134 174 221 268 315
#     4   8  13  23  44  76 110 133 158 208 267 310
#     4  10  20  36  53  72 103 143 181 215 255 318
#
# _framework density 19.881435
#
# number of rings (size 3 to 8) (size 9 to 14) (size 15 to 20)
#    0.000    2.429    1.429    3.429    0.000    4.571 
#    0.000    0.714    0.000    4.286    0.000    8.000 
#    0.000    1.143    0.000    0.000    0.000    0.000 
#
# Total GULP energy -694008.916443 kJ/mol
# GULP energy per Si atom -12393.016365 kJ/mol
# Density = 1.983618 g / cm^3
# Si number density = 19.881435 Si / 1000 Ang^3
#
#
#
# Elastic Constant Matrix: (Units=GPa)
#
#
# Indices 1 2 3 4 5 6 
#
# 1 121.2276 46.2856 18.9888 0.0000 0.0000 0.0000
# 2 46.2856 82.7112 17.4954 0.0000 0.0000 0.0000
# 3 18.9888 17.4954 19.7641 0.0000 0.0000 0.0000
# 4 0.0000 0.0000 0.0000 4.8953 0.0000 0.0000
# 5 0.0000 0.0000 0.0000 0.0000 5.9296 0.0000
# 6 0.0000 0.0000 0.0000 0.0000 0.0000 42.6108
#
#
#
# Elastic Compliance Matrix: (Units=1/GPa)
#
#
# Indices 1 2 3 4 5 6 
#
# 1 0.011104 -0.004869 -0.006358 0.000000 0.000000 0.000000
# 2 -0.004869 0.017011 -0.010380 0.000000 0.000000 0.000000
# 3 -0.006358 -0.010380 0.065894 0.000000 0.000000 0.000000
# 4 0.000000 0.000000 0.000000 0.204276 0.000000 0.000000
# 5 0.000000 0.000000 0.000000 0.000000 0.168646 0.000000
# 6 0.000000 0.000000 0.000000 0.000000 0.000000 0.023468
#
#
# Mechanical properties :
#
#
# Convention : Reuss Voigt Hill
#
# Bulk Modulus (GPa) = 19.68734 43.24917 31.46825
# Shear Modulus (GPa) = 9.08193 20.08269 14.58231
#
# Velocity S-wave (km/s) = 2.13962 3.18169 2.71119
# Velocity P-wave (km/s) = 4.00348 5.94124 5.06587
#
# Compressibility (1/GPa) = 0.05079406
#
# Stress axis : x y z
#
# Youngs Moduli (GPa) = 90.05884 58.78713 15.17588
#
# Poissons Ratio (x) = 0.28623 0.09649
# Poissons Ratio (y) = 0.43848 0.15753
# Poissons Ratio (z) = 0.57262 0.61021
#
# Static dielectric constant tensor:
#      x y z
#    x 3.872540 0.000000 0.000000 
#    y 0.000000 3.955940 0.000000 
#    z 0.000000 0.000000 2.953920 
# 
# 
# High freq. dielectric constant tensor:
#      x y z
#    x 1.780170 0.000000 0.000000 
#    y 0.000000 1.773220 0.000000 
#    z 0.000000 0.000000 1.708010 
# 
# From -- ./inp_files/26964.got.cif
#   From: 2010.03.12/outbox.cif.g09.slc.cpg/sg66_14_cif.got.tgz:26964.got - 2010.04.10 21:57:39.
