data_PCOD8275392
_publ_section_title
;
Structure prediction by ZEFSAII (Michael W. Deem and Ramdas Pophale) SiO2 
 PCOD8275392
Probable space group: C C C M
;
_chemical_formula_sum "Si O2"
_cell_formula_units_Z 128
_cell_length_a 23.050120
_cell_length_b 10.254409
_cell_length_c 28.228243
_cell_angle_alpha 90.000000
_cell_angle_beta 90.000000
_cell_angle_gamma 90.000000
_cell_volume 6672.178762
_symmetry_space_group_name_H-M "C C C M"
_symmetry_group_IT_number 66
_symmetry_cell_setting 'orthorhombic'
loop_
_space_group_symop_operation_xyz
x,y,z
-x,-y,z
x,-y,1/2-z
-x,y,1/2-z
-x,-y,-z
x,y,-z
-x,y,1/2+z
x,-y,1/2+z
1/2+x,1/2+y,z
1/2-x,1/2-y,z
1/2+x,1/2-y,1/2-z
1/2-x,1/2+y,1/2-z
1/2-x,1/2-y,-z
1/2+x,1/2+y,-z
1/2-x,1/2+y,1/2+z
1/2+x,1/2-y,1/2+z
loop_
_atom_site_type_symbol
_atom_site_label
_atom_site_fract_x
_atom_site_fract_y
_atom_site_fract_z
Si Si1 0.915490 0.398052 0.614568
Si Si2 0.224262 0.106763 0.390790
Si Si3 0.676471 0.995152 0.052485
Si Si4 0.059901 0.350724 0.267969
Si Si5 0.876512 0.782653 0.446587
Si Si6 0.659274 0.817280 0.201132
Si Si7 0.280936 0.553593 0.299298
Si Si8 0.961939 0.678175 0.622779
O O1 0.868590 0.385447 0.572095
O O2 0.881581 0.389443 0.663633
O O3 0.945215 0.535881 0.605127
O O4 0.968771 0.295220 0.616265
O O5 0.250000 0.250000 0.384709
O O6 0.267750 0.000859 0.413606
O O7 0.169037 0.113787 0.425473
O O8 0.209226 0.056666 0.338582
O O9 0.650302 0.139281 0.051669
O O10 0.694853 0.951277 0.000000
O O11 0.058366 0.500000 0.250000
O O12 0.119676 0.291263 0.247578
O O13 0.060878 0.319998 0.323553
O O14 0.000000 0.283702 0.250000
O O15 0.894269 0.825509 0.500000
O O16 0.931241 0.784692 0.410833
O O17 0.682553 0.678369 0.183274
O O18 0.713551 0.911793 0.210465
O O19 0.306433 0.500000 0.250000
#
# Coordination Sequence:
#
# PCOD8275392 Si02
#       8
#    16  16  16  16  16  16  16  16
#     4  10  17  33  51  80 113 145 176 223 281 326
#     4  10  20  35  57  76 110 145 189 228 273 333
#     4   9  17  30  53  81 110 142 180 226 280 331
#     4  11  18  30  55  84 113 147 186 223 268 333
#     4   9  19  32  52  83 114 144 182 236 283 323
#     4  11  22  37  55  75 118 143 178 229 274 338
#     4  11  26  37  52  82 109 148 183 224 286 332
#     4  10  19  29  53  85 113 145 187 222 277 335
#
# _framework density 19.184138999999998
#
# number of rings (size 3 to 8) (size 9 to 14) (size 15 to 20)
#    0.000    1.875    3.750    1.500    3.500    2.000 
#    0.000    2.500    0.000    4.875    0.000    0.875 
#    0.000    0.000    0.000    0.000    0.000    0.000 
#
# Total GULP energy -793026.830577 kJ/mol
# GULP energy per Si atom -12391.044228 kJ/mol
# Density = 1.914048 g / cm^3
# Si number density = 19.184139 Si / 1000 Ang^3
#
#
#
# Elastic Constant Matrix: (Units=GPa)
#
#
# Indices 1 2 3 4 5 6 
#
# 1 114.1393 25.5850 51.6498 0.0000 0.0000 0.0000
# 2 25.5850 32.9106 25.4501 0.0000 0.0000 0.0000
# 3 51.6498 25.4501 161.0437 0.0000 0.0000 0.0000
# 4 0.0000 0.0000 0.0000 15.2677 0.0000 0.0000
# 5 0.0000 0.0000 0.0000 0.0000 21.3897 0.0000
# 6 0.0000 0.0000 0.0000 0.0000 0.0000 12.3396
#
#
#
# Elastic Compliance Matrix: (Units=1/GPa)
#
#
# Indices 1 2 3 4 5 6 
#
# 1 0.011485 -0.006927 -0.002589 0.000000 0.000000 0.000000
# 2 -0.006927 0.038793 -0.003909 0.000000 0.000000 0.000000
# 3 -0.002589 -0.003909 0.007658 0.000000 0.000000 0.000000
# 4 0.000000 0.000000 0.000000 0.065498 0.000000 0.000000
# 5 0.000000 0.000000 0.000000 0.000000 0.046751 0.000000
# 6 0.000000 0.000000 0.000000 0.000000 0.000000 0.081040
#
#
# Mechanical properties :
#
#
# Convention : Reuss Voigt Hill
#
# Bulk Modulus (GPa) = 32.16813 57.05149 44.60981
# Shear Modulus (GPa) = 17.33482 23.49333 20.41408
#
# Velocity S-wave (km/s) = 3.00926 3.50326 3.26561
# Velocity P-wave (km/s) = 5.37389 6.79464 6.12560
#
# Compressibility (1/GPa) = 0.03108667
#
# Stress axis : x y z
#
# Youngs Moduli (GPa) = 87.06664 25.77769 130.58979
#
# Poissons Ratio (x) = 0.17856 0.33809
# Poissons Ratio (y) = 0.60310 0.51048
# Poissons Ratio (z) = 0.22541 0.10077
#
# Static dielectric constant tensor:
#      x y z
#    x 4.000380 0.000000 0.000000 
#    y 0.000000 2.962800 0.000000 
#    z 0.000000 0.000000 3.635520 
# 
# 
# High freq. dielectric constant tensor:
#      x y z
#    x 1.754820 0.000000 0.000000 
#    y 0.000000 1.680180 0.000000 
#    z 0.000000 0.000000 1.754020 
# 
# From -- ./inp_files/66169.got.cif
#   From: 2010.03.12/outbox.cif.g09.slc.cpg/sg66_34_cif.got.tgz:66169.got - 2010.04.10 21:57:39.
