data_PCOD8275643
_publ_section_title
;
Structure prediction by ZEFSAII (Michael W. Deem and Ramdas Pophale) SiO2 
 PCOD8275643
Probable space group: C C C M
;
_chemical_formula_sum "Si O2"
_cell_formula_units_Z 88
_cell_length_a 12.679812
_cell_length_b 21.731484
_cell_length_c 14.577306
_cell_angle_alpha 90.000000
_cell_angle_beta 90.000000
_cell_angle_gamma 90.000000
_cell_volume 4016.793164
_symmetry_space_group_name_H-M "C C C M"
_symmetry_group_IT_number 66
_symmetry_cell_setting 'orthorhombic'
loop_
_space_group_symop_operation_xyz
x,y,z
-x,-y,z
x,-y,1/2-z
-x,y,1/2-z
-x,-y,-z
x,y,-z
-x,y,1/2+z
x,-y,1/2+z
1/2+x,1/2+y,z
1/2-x,1/2-y,z
1/2+x,1/2-y,1/2-z
1/2-x,1/2+y,1/2-z
1/2-x,1/2-y,-z
1/2+x,1/2+y,-z
1/2-x,1/2+y,1/2+z
1/2+x,1/2-y,1/2+z
loop_
_atom_site_type_symbol
_atom_site_label
_atom_site_fract_x
_atom_site_fract_y
_atom_site_fract_z
Si Si1 0.484730 0.930762 0.356439
Si Si2 0.673632 0.352472 0.213810
Si Si3 0.734094 0.955893 0.168387
Si Si4 0.884660 0.679372 0.396266
Si Si5 0.500000 0.258231 0.750000
Si Si6 0.090661 0.040747 0.397258
O O1 0.500000 0.915931 0.250000
O O2 0.361561 0.921191 0.382854
O O3 0.565876 0.888210 0.411417
O O4 0.500000 0.000000 0.387148
O O5 0.697271 0.400445 0.293412
O O6 0.775317 0.323696 0.161199
O O7 0.605383 0.299144 0.262106
O O8 0.602325 0.390912 0.142802
O O9 0.687554 0.000000 0.250000
O O10 0.801674 0.001148 0.104695
O O11 0.864668 0.705935 0.500000
O O12 0.974446 0.717768 0.340865
O O13 0.054472 0.052728 0.500000
O O14 0.000000 0.000000 0.346547
#
# Coordination Sequence:
#
# PCOD8275643 Si02
#       6
#    16  16  16  16   8  16
#     4  11  18  36  64  98 130 165 204 259 325 405
#     4  11  22  40  65  89 121 172 222 266 332 395
#     4  10  18  33  61  90 125 164 207 256 319 395
#     4  12  26  44  68  98 131 171 225 284 342 409
#     4  12  26  44  64  88 122 170 228 290 334 386
#     4  10  21  36  57  94 137 171 213 267 325 402
#
# _framework density 21.908023
#
# number of rings (size 3 to 8) (size 9 to 14) (size 15 to 20)
#    0.000    1.091    4.545    3.273    0.000    5.818 
#    0.000    0.909    0.000    5.455    0.000    0.000 
#    0.000    0.000    0.000    0.000    0.000    0.000 
#
# Total GULP energy -545117.639098 kJ/mol
# GULP energy per Si atom -12389.037252 kJ/mol
# Density = 2.185816 g / cm^3
# Si number density = 21.908023 Si / 1000 Ang^3
#
#
#
# Elastic Constant Matrix: (Units=GPa)
#
#
# Indices 1 2 3 4 5 6 
#
# 1 123.9795 41.1182 17.5001 0.0000 0.0000 0.0000
# 2 41.1182 105.1423 31.4772 0.0000 0.0000 0.0000
# 3 17.5001 31.4772 73.9938 0.0000 0.0000 0.0000
# 4 0.0000 0.0000 0.0000 20.0125 0.0000 0.0000
# 5 0.0000 0.0000 0.0000 0.0000 13.1086 0.0000
# 6 0.0000 0.0000 0.0000 0.0000 0.0000 44.5024
#
#
#
# Elastic Compliance Matrix: (Units=1/GPa)
#
#
# Indices 1 2 3 4 5 6 
#
# 1 0.009304 -0.003415 -0.000748 0.000000 0.000000 0.000000
# 2 -0.003415 0.012152 -0.004362 0.000000 0.000000 0.000000
# 3 -0.000748 -0.004362 0.015547 0.000000 0.000000 0.000000
# 4 0.000000 0.000000 0.000000 0.049969 0.000000 0.000000
# 5 0.000000 0.000000 0.000000 0.000000 0.076286 0.000000
# 6 0.000000 0.000000 0.000000 0.000000 0.000000 0.022471
#
#
# Mechanical properties :
#
#
# Convention : Reuss Voigt Hill
#
# Bulk Modulus (GPa) = 50.11460 53.70076 51.90768
# Shear Modulus (GPa) = 23.87445 29.72602 26.80024
#
# Velocity S-wave (km/s) = 3.30473 3.68755 3.50138
# Velocity P-wave (km/s) = 6.12261 6.53420 6.33175
#
# Compressibility (1/GPa) = 0.01995426
#
# Stress axis : x y z
#
# Youngs Moduli (GPa) = 107.48212 82.28992 64.32055
#
# Poissons Ratio (x) = 0.28099 0.04810
# Poissons Ratio (y) = 0.36701 0.28057
# Poissons Ratio (z) = 0.08038 0.35895
#
# Static dielectric constant tensor:
#      x y z
#    x 4.624580 0.000000 0.000000 
#    y 0.000000 4.410670 0.000000 
#    z 0.000000 0.000000 3.642500 
# 
# 
# High freq. dielectric constant tensor:
#      x y z
#    x 1.875460 0.000000 0.000000 
#    y 0.000000 1.861500 0.000000 
#    z 0.000000 0.000000 1.828910 
# 
# From -- ./inp_files/28226.got.cif
#   From: 2010.03.12/outbox.cif.g09.slc.cpg/sg66_15_cif.got.tgz:28226.got - 2010.04.10 21:57:39.
