data_PCOD8275411
_publ_section_title
;
Structure prediction by ZEFSAII (Michael W. Deem and Ramdas Pophale) SiO2 
 PCOD8275411
Probable space group: C C C M
;
_chemical_formula_sum "Si O2"
_cell_formula_units_Z 96
_cell_length_a 27.570814
_cell_length_b 26.392092
_cell_length_c 9.688822
_cell_angle_alpha 90.000000
_cell_angle_beta 90.000000
_cell_angle_gamma 90.000000
_cell_volume 7050.085470
_symmetry_space_group_name_H-M "C C C M"
_symmetry_group_IT_number 66
_symmetry_cell_setting 'orthorhombic'
loop_
_space_group_symop_operation_xyz
x,y,z
-x,-y,z
x,-y,1/2-z
-x,y,1/2-z
-x,-y,-z
x,y,-z
-x,y,1/2+z
x,-y,1/2+z
1/2+x,1/2+y,z
1/2-x,1/2-y,z
1/2+x,1/2-y,1/2-z
1/2-x,1/2+y,1/2-z
1/2-x,1/2-y,-z
1/2+x,1/2+y,-z
1/2-x,1/2+y,1/2+z
1/2+x,1/2-y,1/2+z
loop_
_atom_site_type_symbol
_atom_site_label
_atom_site_fract_x
_atom_site_fract_y
_atom_site_fract_z
Si Si1 0.593187 0.386767 0.744328
Si Si2 0.855877 0.254392 0.658220
Si Si3 0.045238 0.782966 0.345968
Si Si4 0.184768 0.165292 0.336899
Si Si5 0.068696 0.954383 0.500000
Si Si6 0.233580 0.308501 0.847535
Si Si7 0.044496 0.932911 0.000000
O O1 0.572207 0.336183 0.676130
O O2 0.647958 0.380480 0.801942
O O3 0.594713 0.432143 0.634686
O O4 0.556878 0.400328 0.866688
O O5 0.845917 0.234366 0.500000
O O6 0.913997 0.261146 0.676699
O O7 0.838524 0.215559 0.774533
O O8 0.825017 0.306567 0.680576
O O9 0.024352 0.781905 0.500000
O O10 0.000000 0.772208 0.250000
O O11 0.192343 0.170651 0.500000
O O12 0.237525 0.157340 0.264177
O O13 0.012401 0.941019 0.500000
O O14 0.074735 0.014858 0.500000
O O15 0.250000 0.250000 0.838952
O O16 0.244136 0.330894 0.000000
#
# Coordination Sequence:
#
# PCOD8275411 Si02
#       7
#    16  16  16  16   8  16   8
#     4  11  21  32  43  58  74  89 115 154 192 230
#     4   8  16  28  38  53  73  96 120 143 170 212
#     4  10  19  28  41  56  75  99 124 151 185 218
#     4  10  18  26  38  57  75  90 108 142 184 219
#     4  11  22  34  50  54  65  94 122 146 188 241
#     4   8  14  25  41  54  71  93 116 138 168 214
#     4  11  22  36  44  58  71  86 116 156 194 231
#
# _framework density 13.616856
#
# number of rings (size 3 to 8) (size 9 to 14) (size 15 to 20)
#    0.000    2.333    1.667    3.500    3.500    5.000 
#    0.000    0.000    0.000    0.000    0.000    0.000 
#    0.000    0.000    0.000    0.000    0.000    0.000 
#
# Total GULP energy -594726.640469 kJ/mol
# GULP energy per Si atom -12390.138343 kJ/mol
# Density = 1.358586 g / cm^3
# Si number density = 13.616856 Si / 1000 Ang^3
#
#
#
# Elastic Constant Matrix: (Units=GPa)
#
#
# Indices 1 2 3 4 5 6 
#
# 1 91.0731 25.1882 45.0139 0.0000 0.0000 0.0000
# 2 25.1882 17.4193 17.8793 0.0000 0.0000 0.0000
# 3 45.0139 17.8793 108.3659 0.0000 0.0000 0.0000
# 4 0.0000 0.0000 0.0000 9.3474 0.0000 0.0000
# 5 0.0000 0.0000 0.0000 0.0000 21.7313 0.0000
# 6 0.0000 0.0000 0.0000 0.0000 0.0000 16.3185
#
#
#
# Elastic Compliance Matrix: (Units=1/GPa)
#
#
# Indices 1 2 3 4 5 6 
#
# 1 0.019774 -0.024272 -0.004209 0.000000 0.000000 0.000000
# 2 -0.024272 0.098906 -0.006236 0.000000 0.000000 0.000000
# 3 -0.004209 -0.006236 0.012005 0.000000 0.000000 0.000000
# 4 0.000000 0.000000 0.000000 0.106982 0.000000 0.000000
# 5 0.000000 0.000000 0.000000 0.000000 0.046017 0.000000
# 6 0.000000 0.000000 0.000000 0.000000 0.000000 0.061280
#
#
# Mechanical properties :
#
#
# Convention : Reuss Voigt Hill
#
# Bulk Modulus (GPa) = 16.32654 43.66903 29.99778
# Shear Modulus (GPa) = 11.49916 18.06457 14.78187
#
# Velocity S-wave (km/s) = 2.90915 3.64625 3.29835
# Velocity P-wave (km/s) = 4.82702 7.06161 6.04841
#
# Compressibility (1/GPa) = 0.06124996
#
# Stress axis : x y z
#
# Youngs Moduli (GPa) = 50.57256 10.11062 83.29679
#
# Poissons Ratio (x) = 0.24541 0.35060
# Poissons Ratio (y) = 1.22751 0.51944
# Poissons Ratio (z) = 0.21286 0.06305
#
# Static dielectric constant tensor:
#      x y z
#    x 3.165000 0.000000 0.000000 
#    y 0.000000 2.399010 0.000000 
#    z 0.000000 0.000000 2.787050 
# 
# 
# High freq. dielectric constant tensor:
#      x y z
#    x 1.520100 0.000000 0.000000 
#    y 0.000000 1.444350 0.000000 
#    z 0.000000 0.000000 1.537290 
# 
# From -- ./inp_files/11836.got.cif
#   From: 2010.03.12/outbox.cif.g09.slc.cpg/sg66_6_cif.got.tgz:11836.got - 2010.04.10 21:57:39.
