data_PCOD8275485
_publ_section_title
;
Structure prediction by ZEFSAII (Michael W. Deem and Ramdas Pophale) SiO2 
 PCOD8275485
Probable space group: C C C M
;
_chemical_formula_sum "Si O2"
_cell_formula_units_Z 120
_cell_length_a 17.045966
_cell_length_b 21.172100
_cell_length_c 19.497475
_cell_angle_alpha 90.000000
_cell_angle_beta 90.000000
_cell_angle_gamma 90.000000
_cell_volume 7036.617217
_symmetry_space_group_name_H-M "C C C M"
_symmetry_group_IT_number 66
_symmetry_cell_setting 'orthorhombic'
loop_
_space_group_symop_operation_xyz
x,y,z
-x,-y,z
x,-y,1/2-z
-x,y,1/2-z
-x,-y,-z
x,y,-z
-x,y,1/2+z
x,-y,1/2+z
1/2+x,1/2+y,z
1/2-x,1/2-y,z
1/2+x,1/2-y,1/2-z
1/2-x,1/2+y,1/2-z
1/2-x,1/2-y,-z
1/2+x,1/2+y,-z
1/2-x,1/2+y,1/2+z
1/2+x,1/2-y,1/2+z
loop_
_atom_site_type_symbol
_atom_site_label
_atom_site_fract_x
_atom_site_fract_y
_atom_site_fract_z
Si Si1 0.911710 0.495774 0.919029
Si Si2 0.632900 0.130504 0.848075
Si Si3 0.935697 0.739207 0.118469
Si Si4 0.330898 0.875789 0.578381
Si Si5 0.209436 0.182800 0.687092
Si Si6 0.299110 0.686752 0.663093
Si Si7 0.396174 0.740172 0.077306
Si Si8 0.000000 0.324540 0.250000
O O1 0.872321 0.435143 0.886487
O O2 0.867447 0.558870 0.895000
O O3 0.000000 0.500000 0.891882
O O4 0.909136 0.488307 0.000000
O O5 0.722848 0.130897 0.823435
O O6 0.621927 0.188453 0.900167
O O7 0.568333 0.133996 0.786589
O O8 0.897528 0.678045 0.082663
O O9 0.875443 0.797758 0.118038
O O10 0.009896 0.765886 0.077430
O O11 0.957638 0.720915 0.196072
O O12 0.302848 0.880598 0.500000
O O13 0.254534 0.864479 0.625012
O O14 0.250000 0.250000 0.689681
O O15 0.172627 0.164855 0.761081
O O16 0.143461 0.187380 0.627190
O O17 0.250000 0.750000 0.672055
O O18 0.364898 0.728931 0.000000
#
# Coordination Sequence:
#
# PCOD8275485 Si02
#       8
#    16  16  16  16  16  16  16   8
#     4  10  20  33  47  65  93 129 164 197 235 279
#     4  10  19  31  47  67  95 130 163 196 239 279
#     4  10  18  30  48  68  97 126 155 196 247 290
#     4  10  20  32  47  69  95 125 164 204 241 287
#     4   9  18  31  46  67  95 125 158 195 238 286
#     4   9  17  31  48  66  93 125 155 195 247 294
#     4  10  19  29  46  73  99 125 162 200 234 285
#     4  10  18  30  47  70  94 126 165 196 234 292
#
# _framework density 17.053649
#
# number of rings (size 3 to 8) (size 9 to 14) (size 15 to 20)
#    0.000    2.267    0.000    6.400    0.000    6.933 
#    0.000    6.333    0.000    0.000    0.000    0.933 
#    0.000    5.333    0.000    0.067    0.000    0.000 
#
# Total GULP energy -743694.491919 kJ/mol
# GULP energy per Si atom -12394.908199 kJ/mol
# Density = 1.701483 g / cm^3
# Si number density = 17.053649 Si / 1000 Ang^3
#
#
#
# Elastic Constant Matrix: (Units=GPa)
#
#
# Indices 1 2 3 4 5 6 
#
# 1 93.5085 50.2818 31.2593 0.0000 0.0000 0.0000
# 2 50.2818 77.1131 28.5616 0.0000 0.0000 0.0000
# 3 31.2593 28.5616 86.6188 0.0000 0.0000 0.0000
# 4 0.0000 0.0000 0.0000 14.0745 0.0000 0.0000
# 5 0.0000 0.0000 0.0000 0.0000 19.6288 0.0000
# 6 0.0000 0.0000 0.0000 0.0000 0.0000 25.4032
#
#
#
# Elastic Compliance Matrix: (Units=1/GPa)
#
#
# Indices 1 2 3 4 5 6 
#
# 1 0.017058 -0.010073 -0.002835 0.000000 0.000000 0.000000
# 2 -0.010073 0.020720 -0.003197 0.000000 0.000000 0.000000
# 3 -0.002835 -0.003197 0.013622 0.000000 0.000000 0.000000
# 4 0.000000 0.000000 0.000000 0.071050 0.000000 0.000000
# 5 0.000000 0.000000 0.000000 0.000000 0.050945 0.000000
# 6 0.000000 0.000000 0.000000 0.000000 0.000000 0.039365
#
#
# Mechanical properties :
#
#
# Convention : Reuss Voigt Hill
#
# Bulk Modulus (GPa) = 52.10732 53.04952 52.57842
# Shear Modulus (GPa) = 19.89115 21.63049 20.76082
#
# Velocity S-wave (km/s) = 3.41895 3.56529 3.49289
# Velocity P-wave (km/s) = 6.79756 6.93710 6.86769
#
# Compressibility (1/GPa) = 0.01919116
#
# Stress axis : x y z
#
# Youngs Moduli (GPa) = 58.62243 48.26188 73.41066
#
# Poissons Ratio (x) = 0.48614 0.20809
# Poissons Ratio (y) = 0.59051 0.23470
# Poissons Ratio (z) = 0.16617 0.15430
#
# Static dielectric constant tensor:
#      x y z
#    x 3.485870 0.000000 0.000000 
#    y 0.000000 2.870280 0.000000 
#    z 0.000000 0.000000 3.339620 
# 
# 
# High freq. dielectric constant tensor:
#      x y z
#    x 1.656800 0.000000 0.000000 
#    y 0.000000 1.606690 0.000000 
#    z 0.000000 0.000000 1.669950 
# 
# From -- ./inp_files/42045.got.cif
#   From: 2010.03.12/outbox.cif.g09.slc.cpg/sg66_22_cif.got.tgz:42045.got - 2010.04.10 21:57:39.
