data_PCOD8275065
_publ_section_title
;
Structure prediction by ZEFSAII (Michael W. Deem and Ramdas Pophale) SiO2 
 PCOD8275065
Probable space group: C M M M
;
_chemical_formula_sum "Si O2"
_cell_formula_units_Z 72
_cell_length_a 7.641640
_cell_length_b 20.131275
_cell_length_c 24.654049
_cell_angle_alpha 90.000000
_cell_angle_beta 90.000000
_cell_angle_gamma 90.000000
_cell_volume 3792.679204
_symmetry_space_group_name_H-M "C M M M"
_symmetry_group_IT_number 65
_symmetry_cell_setting 'orthorhombic'
loop_
_space_group_symop_operation_xyz
x,y,z
-x,-y,z
x,-y,-z
-x,y,-z
-x,-y,-z
x,y,-z
-x,y,z
x,-y,z
1/2+x,1/2+y,z
1/2-x,1/2-y,z
1/2+x,1/2-y,-z
1/2-x,1/2+y,-z
1/2-x,1/2-y,-z
1/2+x,1/2+y,-z
1/2-x,1/2+y,z
1/2+x,1/2-y,z
loop_
_atom_site_type_symbol
_atom_site_label
_atom_site_fract_x
_atom_site_fract_y
_atom_site_fract_z
Si Si1 0.500000 0.078198 0.940088
Si Si2 0.296822 0.577362 0.141657
Si Si3 0.294283 0.323013 0.646477
Si Si4 0.208211 0.925711 0.560270
Si Si5 0.704491 0.323019 0.766758
O O1 0.322865 0.099650 0.908949
O O2 0.500000 0.000000 0.946449
O O3 0.500000 0.111383 0.000000
O O4 0.500000 0.592270 0.127420
O O5 0.269497 0.500000 0.156146
O O6 0.227356 0.620166 0.192663
O O7 0.500000 0.333857 0.649247
O O8 0.250000 0.250000 0.624384
O O9 0.210011 0.375741 0.604697
O O10 0.211077 0.332612 0.706779
O O11 0.275338 0.906214 0.500000
O O12 0.000000 0.922200 0.561107
O O13 0.271227 0.000000 0.574874
O O14 0.500000 0.330909 0.761216
O O15 0.750000 0.250000 0.789916
#
# Coordination Sequence:
#
# PCOD8275065 Si02
#       5
#     8  16  16  16  16
#     4   9  18  32  52  78 104 132 164 200 246 291
#     4   9  18  32  50  75 102 128 165 207 244 290
#     4   9  17  29  44  65  92 118 153 195 235 284
#     4   8  14  25  42  64  88 117 155 196 238 283
#     4   9  18  30  46  69  93 126 160 193 244 294
#
# _framework density 18.983943
#
# number of rings (size 3 to 8) (size 9 to 14) (size 15 to 20)
#    0.000    3.222    0.000    0.667    1.556    1.778 
#    0.000    6.667    0.000    1.333    0.000    1.556 
#    0.000    0.000    0.000    0.000    0.000    0.000 
#
# Total GULP energy -446157.715158 kJ/mol
# GULP energy per Si atom -12393.269865 kJ/mol
# Density = 1.894073 g / cm^3
# Si number density = 18.983943 Si / 1000 Ang^3
#
#
#
# Elastic Constant Matrix: (Units=GPa)
#
#
# Indices 1 2 3 4 5 6 
#
# 1 43.8295 21.1445 34.4523 0.0000 0.0000 0.0000
# 2 21.1445 118.0908 99.6448 0.0000 0.0000 0.0000
# 3 34.4523 99.6448 160.3216 0.0000 0.0000 0.0000
# 4 0.0000 0.0000 0.0000 29.9543 0.0000 0.0000
# 5 0.0000 0.0000 0.0000 0.0000 4.0509 0.0000
# 6 0.0000 0.0000 0.0000 0.0000 0.0000 19.9105
#
#
#
# Elastic Compliance Matrix: (Units=1/GPa)
#
#
# Indices 1 2 3 4 5 6 
#
# 1 0.027454 0.000131 -0.005981 0.000000 0.000000 0.000000
# 2 0.000131 0.017807 -0.011096 0.000000 0.000000 0.000000
# 3 -0.005981 -0.011096 0.014419 0.000000 0.000000 0.000000
# 4 0.000000 0.000000 0.000000 0.033384 0.000000 0.000000
# 5 0.000000 0.000000 0.000000 0.000000 0.246860 0.000000
# 6 0.000000 0.000000 0.000000 0.000000 0.000000 0.050225
#
#
# Mechanical properties :
#
#
# Convention : Reuss Voigt Hill
#
# Bulk Modulus (GPa) = 38.77685 70.30278 54.53981
# Shear Modulus (GPa) = 11.55701 21.91648 16.73674
#
# Velocity S-wave (km/s) = 2.47002 3.40144 2.97244
# Velocity P-wave (km/s) = 5.34838 7.24842 6.36964
#
# Compressibility (1/GPa) = 0.02578858
#
# Stress axis : x y z
#
# Youngs Moduli (GPa) = 36.42459 56.15645 69.35118
#
# Poissons Ratio (x) = -0.00737 0.41481
# Poissons Ratio (y) = -0.00478 0.76953
# Poissons Ratio (z) = 0.21787 0.62312
#
# Static dielectric constant tensor:
#      x y z
#    x 3.237750 0.000000 0.000000 
#    y 0.000000 3.449030 0.000000 
#    z 0.000000 0.000000 4.005300 
# 
# 
# High freq. dielectric constant tensor:
#      x y z
#    x 1.722990 0.000000 0.000000 
#    y 0.000000 1.722830 0.000000 
#    z 0.000000 0.000000 1.732110 
# 
# From -- ./inp_files/59240.got.cif
#   From: 2010.03.12/outbox.cif.g09.slc.cpg/sg65_30_cif.got.tgz:59240.got - 2010.04.10 20:52:16.
