data_PCOD8275746
_publ_section_title
;
Structure prediction by ZEFSAII (Michael W. Deem and Ramdas Pophale) SiO2 
 PCOD8275746
Probable space group: C C C M
;
_chemical_formula_sum "Si O2"
_cell_formula_units_Z 80
_cell_length_a 20.494936
_cell_length_b 19.977125
_cell_length_c 11.228809
_cell_angle_alpha 90.000000
_cell_angle_beta 90.000000
_cell_angle_gamma 90.000000
_cell_volume 4597.410127
_symmetry_space_group_name_H-M "C C C M"
_symmetry_group_IT_number 66
_symmetry_cell_setting 'orthorhombic'
loop_
_space_group_symop_operation_xyz
x,y,z
-x,-y,z
x,-y,1/2-z
-x,y,1/2-z
-x,-y,-z
x,y,-z
-x,y,1/2+z
x,-y,1/2+z
1/2+x,1/2+y,z
1/2-x,1/2-y,z
1/2+x,1/2-y,1/2-z
1/2-x,1/2+y,1/2-z
1/2-x,1/2-y,-z
1/2+x,1/2+y,-z
1/2-x,1/2+y,1/2+z
1/2+x,1/2-y,1/2+z
loop_
_atom_site_type_symbol
_atom_site_label
_atom_site_fract_x
_atom_site_fract_y
_atom_site_fract_z
Si Si1 0.855654 0.768167 0.500000
Si Si2 0.812834 0.427053 0.215540
Si Si3 0.230124 0.645133 0.000000
Si Si4 0.067912 0.743939 0.786543
Si Si5 0.310685 0.204983 0.860096
Si Si6 0.955161 0.595811 0.638763
O O1 0.837666 0.688237 0.500000
O O2 0.789235 0.805852 0.500000
O O3 0.896764 0.789222 0.615255
O O4 0.786609 0.500000 0.250000
O O5 0.764547 0.401156 0.114544
O O6 0.807833 0.372691 0.321380
O O7 0.884712 0.436214 0.160722
O O8 0.119362 0.734421 0.679617
O O9 0.047085 0.675399 0.850607
O O10 0.000000 0.779928 0.750000
O O11 0.250000 0.250000 0.808150
O O12 0.307864 0.207378 0.000000
O O13 0.978317 0.578187 0.500000
O O14 0.000000 0.568373 0.750000
#
# Coordination Sequence:
#
# PCOD8275746 Si02
#       6
#     8  16   8  16  16  16
#     4  11  18  34  60  77 102 144 175 223 265 322
#     4  11  22  35  53  75 103 138 183 230 262 312
#     4  11  20  36  56  76 105 137 188 215 269 326
#     4  10  19  29  51  78 107 135 177 219 265 313
#     4  10  21  36  53  75 107 143 173 213 275 325
#     4  10  19  34  49  71 105 148 193 225 263 307
#
# _framework density 17.401101000000001
#
# number of rings (size 3 to 8) (size 9 to 14) (size 15 to 20)
#    0.000    1.600    6.000    1.200    2.800    5.200 
#    0.000    1.000    0.000    0.000    0.000    0.000 
#    0.000   19.200    0.000    0.000    0.000    0.000 
#
# Total GULP energy -495582.371745 kJ/mol
# GULP energy per Si atom -12389.559294 kJ/mol
# Density = 1.736150 g / cm^3
# Si number density = 17.401101 Si / 1000 Ang^3
#
#
#
# Elastic Constant Matrix: (Units=GPa)
#
#
# Indices 1 2 3 4 5 6 
#
# 1 97.1499 31.8585 43.0034 0.0000 0.0000 0.0000
# 2 31.8585 55.8255 30.6597 0.0000 0.0000 0.0000
# 3 43.0034 30.6597 119.6954 0.0000 0.0000 0.0000
# 4 0.0000 0.0000 0.0000 13.6233 0.0000 0.0000
# 5 0.0000 0.0000 0.0000 0.0000 22.0092 0.0000
# 6 0.0000 0.0000 0.0000 0.0000 0.0000 15.0468
#
#
#
# Elastic Compliance Matrix: (Units=1/GPa)
#
#
# Indices 1 2 3 4 5 6 
#
# 1 0.013766 -0.005981 -0.003414 0.000000 0.000000 0.000000
# 2 -0.005981 0.023444 -0.003856 0.000000 0.000000 0.000000
# 3 -0.003414 -0.003856 0.010569 0.000000 0.000000 0.000000
# 4 0.000000 0.000000 0.000000 0.073404 0.000000 0.000000
# 5 0.000000 0.000000 0.000000 0.000000 0.045436 0.000000
# 6 0.000000 0.000000 0.000000 0.000000 0.000000 0.066459
#
#
# Mechanical properties :
#
#
# Convention : Reuss Voigt Hill
#
# Bulk Modulus (GPa) = 46.99997 53.74602 50.37300
# Shear Modulus (GPa) = 18.74965 21.27913 20.01439
#
# Velocity S-wave (km/s) = 3.28609 3.50074 3.39511
# Velocity P-wave (km/s) = 6.43943 6.87705 6.66183
#
# Compressibility (1/GPa) = 0.02127661
#
# Stress axis : x y z
#
# Youngs Moduli (GPa) = 72.64372 42.65455 94.61842
#
# Poissons Ratio (x) = 0.25512 0.32299
# Poissons Ratio (y) = 0.43449 0.36488
# Poissons Ratio (z) = 0.24798 0.16449
#
# Static dielectric constant tensor:
#      x y z
#    x 3.465950 0.000000 0.000000 
#    y 0.000000 2.953850 0.000000 
#    z 0.000000 0.000000 3.409120 
# 
# 
# High freq. dielectric constant tensor:
#      x y z
#    x 1.664710 0.000000 0.000000 
#    y 0.000000 1.623210 0.000000 
#    z 0.000000 0.000000 1.691180 
# 
# From -- ./inp_files/17790.got.cif
#   From: 2010.03.12/outbox.cif.g09.slc.cpg/sg66_9_cif.got.tgz:17790.got - 2010.04.10 21:57:39.
