data_PCOD8275458
_publ_section_title
;
Structure prediction by ZEFSAII (Michael W. Deem and Ramdas Pophale) SiO2 
 PCOD8275458
Probable space group: C C C M
;
_chemical_formula_sum "Si O2"
_cell_formula_units_Z 104
_cell_length_a 23.931299
_cell_length_b 13.028791
_cell_length_c 16.845120
_cell_angle_alpha 90.000000
_cell_angle_beta 90.000000
_cell_angle_gamma 90.000000
_cell_volume 5252.239234
_symmetry_space_group_name_H-M "C C C M"
_symmetry_group_IT_number 66
_symmetry_cell_setting 'orthorhombic'
loop_
_space_group_symop_operation_xyz
x,y,z
-x,-y,z
x,-y,1/2-z
-x,y,1/2-z
-x,-y,-z
x,y,-z
-x,y,1/2+z
x,-y,1/2+z
1/2+x,1/2+y,z
1/2-x,1/2-y,z
1/2+x,1/2-y,1/2-z
1/2-x,1/2+y,1/2-z
1/2-x,1/2-y,-z
1/2+x,1/2+y,-z
1/2-x,1/2+y,1/2+z
1/2+x,1/2-y,1/2+z
loop_
_atom_site_type_symbol
_atom_site_label
_atom_site_fract_x
_atom_site_fract_y
_atom_site_fract_z
Si Si1 0.137181 0.196267 0.136719
Si Si2 0.838744 0.129896 0.092729
Si Si3 0.137947 0.584133 0.590207
Si Si4 0.188625 0.284300 0.716228
Si Si5 0.855116 0.500000 0.750000
Si Si6 0.937487 0.985302 0.093220
Si Si7 0.265137 0.447040 0.908341
O O1 0.121627 0.296393 0.084232
O O2 0.143517 0.230746 0.227067
O O3 0.087105 0.115547 0.134491
O O4 0.195332 0.150237 0.105402
O O5 0.827832 0.241805 0.129389
O O6 0.900308 0.085367 0.113078
O O7 0.792727 0.050110 0.129361
O O8 0.831618 0.144936 0.000000
O O9 0.127192 0.537446 0.500000
O O10 0.108604 0.529996 0.668549
O O11 0.202590 0.576575 0.620560
O O12 0.250000 0.250000 0.742027
O O13 0.183557 0.406513 0.719963
O O14 0.936789 0.963459 0.000000
O O15 0.000000 0.000000 0.125818
O O16 0.262152 0.470462 0.000000
#
# Coordination Sequence:
#
# PCOD8275458 Si02
#       7
#    16  16  16  16   8  16  16
#     4  10  18  29  46  73 104 136 173 214 267 325
#     4   9  19  34  51  74 105 143 183 221 272 334
#     4  10  18  29  46  67  97 139 178 214 260 315
#     4  11  22  34  50  72 105 144 180 224 274 328
#     4  10  22  34  44  70 101 128 173 220 256 306
#     4   9  18  34  56  83 114 143 178 230 280 325
#     4   9  16  26  43  69 100 133 173 215 254 312
#
# _framework density 19.801076999999999
#
# number of rings (size 3 to 8) (size 9 to 14) (size 15 to 20)
#    0.000    2.308    0.000    5.538    0.000    5.846 
#    0.000    1.538    0.000    0.000    0.000    8.615 
#    0.000   16.000    0.000    0.000    0.000    0.000 
#
# Total GULP energy -644201.195742 kJ/mol
# GULP energy per Si atom -12388.484533 kJ/mol
# Density = 1.975601 g / cm^3
# Si number density = 19.801077 Si / 1000 Ang^3
#
#
#
# Elastic Constant Matrix: (Units=GPa)
#
#
# Indices 1 2 3 4 5 6 
#
# 1 67.5522 26.4620 20.5912 0.0000 0.0000 0.0000
# 2 26.4620 126.8213 42.6919 0.0000 0.0000 0.0000
# 3 20.5912 42.6919 79.0259 0.0000 0.0000 0.0000
# 4 0.0000 0.0000 0.0000 32.8921 0.0000 0.0000
# 5 0.0000 0.0000 0.0000 0.0000 15.2244 0.0000
# 6 0.0000 0.0000 0.0000 0.0000 0.0000 15.4680
#
#
#
# Elastic Compliance Matrix: (Units=1/GPa)
#
#
# Indices 1 2 3 4 5 6 
#
# 1 0.016689 -0.002467 -0.003016 0.000000 0.000000 0.000000
# 2 -0.002467 0.010003 -0.004761 0.000000 0.000000 0.000000
# 3 -0.003016 -0.004761 0.016012 0.000000 0.000000 0.000000
# 4 0.000000 0.000000 0.000000 0.030402 0.000000 0.000000
# 5 0.000000 0.000000 0.000000 0.000000 0.065684 0.000000
# 6 0.000000 0.000000 0.000000 0.000000 0.000000 0.064649
#
#
# Mechanical properties :
#
#
# Convention : Reuss Voigt Hill
#
# Bulk Modulus (GPa) = 45.01243 50.32105 47.66674
# Shear Modulus (GPa) = 21.61399 24.96054 23.28726
#
# Velocity S-wave (km/s) = 3.30745 3.55430 3.43309
# Velocity P-wave (km/s) = 6.11288 6.50480 6.31189
#
# Compressibility (1/GPa) = 0.02221609
#
# Stress axis : x y z
#
# Youngs Moduli (GPa) = 59.91950 99.97493 62.45403
#
# Poissons Ratio (x) = 0.24665 0.18835
# Poissons Ratio (y) = 0.14783 0.29733
# Poissons Ratio (z) = 0.18070 0.47596
#
# Static dielectric constant tensor:
#      x y z
#    x 3.306270 0.000000 0.000000 
#    y 0.000000 3.678740 0.000000 
#    z 0.000000 0.000000 3.745190 
# 
# 
# High freq. dielectric constant tensor:
#      x y z
#    x 1.707880 0.000000 0.000000 
#    y 0.000000 1.772470 0.000000 
#    z 0.000000 0.000000 1.784420 
# 
# From -- ./inp_files/39067.got.cif
#   From: 2010.03.12/outbox.cif.g09.slc.cpg/sg66_20_cif.got.tgz:39067.got - 2010.04.10 21:57:39.
