data_PCOD8275437
_publ_section_title
;
Structure prediction by ZEFSAII (Michael W. Deem and Ramdas Pophale) SiO2 
 PCOD8275437
Probable space group: C C C M
;
_chemical_formula_sum "Si O2"
_cell_formula_units_Z 76
_cell_length_a 26.119371
_cell_length_b 10.057142
_cell_length_c 17.961503
_cell_angle_alpha 90.000000
_cell_angle_beta 90.000000
_cell_angle_gamma 90.000000
_cell_volume 4718.239384
_symmetry_space_group_name_H-M "C C C M"
_symmetry_group_IT_number 66
_symmetry_cell_setting 'orthorhombic'
loop_
_space_group_symop_operation_xyz
x,y,z
-x,-y,z
x,-y,1/2-z
-x,y,1/2-z
-x,-y,-z
x,y,-z
-x,y,1/2+z
x,-y,1/2+z
1/2+x,1/2+y,z
1/2-x,1/2-y,z
1/2+x,1/2-y,1/2-z
1/2-x,1/2+y,1/2-z
1/2-x,1/2-y,-z
1/2+x,1/2+y,-z
1/2-x,1/2+y,1/2+z
1/2+x,1/2-y,1/2+z
loop_
_atom_site_type_symbol
_atom_site_label
_atom_site_fract_x
_atom_site_fract_y
_atom_site_fract_z
Si Si1 0.654977 0.351435 0.769521
Si Si2 0.750000 0.750000 0.823816
Si Si3 0.597625 0.879527 0.202269
Si Si4 0.000000 0.500000 0.250000
Si Si5 0.190056 0.261599 0.416885
Si Si6 0.323869 0.070182 0.914186
O O1 0.638583 0.500000 0.750000
O O2 0.707480 0.315349 0.728233
O O3 0.608175 0.258998 0.743481
O O4 0.661728 0.334017 0.858320
O O5 0.725517 0.865294 0.874579
O O6 0.536254 0.906714 0.197905
O O7 0.623269 0.874706 0.120870
O O8 0.623691 0.000000 0.250000
O O9 0.173252 0.216960 0.500000
O O10 0.250000 0.250000 0.407019
O O11 0.175596 0.413418 0.402141
O O12 0.322520 0.111703 0.000000
#
# Coordination Sequence:
#
# PCOD8275437 Si02
#       6
#    16   8  16   4  16  16
#     4  11  20  31  49  74 102 137 179 207 247 303
#     4  10  21  28  49  68 108 146 170 206 245 300
#     4   9  18  34  56  71  95 128 168 210 268 303
#     4   8  16  36  60  72  96 128 168 228 264 302
#     4  10  18  28  44  66  98 136 172 204 241 292
#     4  10  19  32  48  74 103 133 171 212 253 305
#
# _framework density 16.107703000000001
#
# number of rings (size 3 to 8) (size 9 to 14) (size 15 to 20)
#    0.632    1.474    3.158    1.579    0.000    0.000 
#    0.000    5.263    0.000    0.000    0.000    0.000 
#    0.000   11.789    0.000    0.000    0.000    0.000 
#
# Total GULP energy -471041.884198 kJ/mol
# GULP energy per Si atom -12395.839058 kJ/mol
# Density = 1.607104 g / cm^3
# Si number density = 16.107703 Si / 1000 Ang^3
#
#
#
# Elastic Constant Matrix: (Units=GPa)
#
#
# Indices 1 2 3 4 5 6 
#
# 1 91.1101 29.7110 34.3523 0.0000 0.0000 0.0000
# 2 29.7110 99.6777 44.9858 0.0000 0.0000 0.0000
# 3 34.3523 44.9858 118.4236 0.0000 0.0000 0.0000
# 4 0.0000 0.0000 0.0000 24.6515 0.0000 0.0000
# 5 0.0000 0.0000 0.0000 0.0000 12.2172 0.0000
# 6 0.0000 0.0000 0.0000 0.0000 0.0000 24.4728
#
#
#
# Elastic Compliance Matrix: (Units=1/GPa)
#
#
# Indices 1 2 3 4 5 6 
#
# 1 0.012856 -0.002594 -0.002744 0.000000 0.000000 0.000000
# 2 -0.002594 0.012631 -0.004046 0.000000 0.000000 0.000000
# 3 -0.002744 -0.004046 0.010777 0.000000 0.000000 0.000000
# 4 0.000000 0.000000 0.000000 0.040566 0.000000 0.000000
# 5 0.000000 0.000000 0.000000 0.000000 0.081852 0.000000
# 6 0.000000 0.000000 0.000000 0.000000 0.000000 0.040862
#
#
# Mechanical properties :
#
#
# Convention : Reuss Voigt Hill
#
# Bulk Modulus (GPa) = 57.15108 58.58993 57.87051
# Shear Modulus (GPa) = 22.30713 25.61245 23.95979
#
# Velocity S-wave (km/s) = 3.72543 3.99190 3.86096
# Velocity P-wave (km/s) = 7.35273 7.59604 7.47538
#
# Compressibility (1/GPa) = 0.01749748
#
# Stress axis : x y z
#
# Youngs Moduli (GPa) = 77.78391 79.16774 92.78839
#
# Poissons Ratio (x) = 0.20533 0.25462
# Poissons Ratio (y) = 0.20174 0.37542
# Poissons Ratio (z) = 0.21344 0.32031
#
# Static dielectric constant tensor:
#      x y z
#    x 2.715550 0.000000 0.000000 
#    y 0.000000 2.947990 0.000000 
#    z 0.000000 0.000000 3.182450 
# 
# 
# High freq. dielectric constant tensor:
#      x y z
#    x 1.583530 0.000000 0.000000 
#    y 0.000000 1.617090 0.000000 
#    z 0.000000 0.000000 1.624100 
# 
# From -- ./inp_files/33681.got.cif
#   From: 2010.03.12/outbox.cif.g09.slc.cpg/sg66_17_cif.got.tgz:33681.got - 2010.04.10 21:57:39.
