data_PCOD8275449
_publ_section_title
;
Structure prediction by ZEFSAII (Michael W. Deem and Ramdas Pophale) SiO2 
 PCOD8275449
Probable space group: C C C M
;
_chemical_formula_sum "Si O2"
_cell_formula_units_Z 96
_cell_length_a 26.448590
_cell_length_b 28.635079
_cell_length_c 8.820424
_cell_angle_alpha 90.000000
_cell_angle_beta 90.000000
_cell_angle_gamma 90.000000
_cell_volume 6680.213953
_symmetry_space_group_name_H-M "C C C M"
_symmetry_group_IT_number 66
_symmetry_cell_setting 'orthorhombic'
loop_
_space_group_symop_operation_xyz
x,y,z
-x,-y,z
x,-y,1/2-z
-x,y,1/2-z
-x,-y,-z
x,y,-z
-x,y,1/2+z
x,-y,1/2+z
1/2+x,1/2+y,z
1/2-x,1/2-y,z
1/2+x,1/2-y,1/2-z
1/2-x,1/2+y,1/2-z
1/2-x,1/2-y,-z
1/2+x,1/2+y,-z
1/2-x,1/2+y,1/2+z
1/2+x,1/2-y,1/2+z
loop_
_atom_site_type_symbol
_atom_site_label
_atom_site_fract_x
_atom_site_fract_y
_atom_site_fract_z
Si Si1 0.352919 0.301620 0.678013
Si Si2 0.400424 0.548709 0.318736
Si Si3 0.291569 0.546841 0.821846
Si Si4 0.698541 0.778401 0.172267
Si Si5 0.052165 0.138353 0.319256
Si Si6 0.746125 0.354945 0.824622
O O1 0.351426 0.295968 0.500000
O O2 0.346910 0.249856 0.748255
O O3 0.405377 0.324392 0.731029
O O4 0.307598 0.335166 0.734795
O O5 0.420316 0.500000 0.250000
O O6 0.401667 0.547302 0.500000
O O7 0.343854 0.558451 0.261031
O O8 0.436992 0.588557 0.256370
O O9 0.267276 0.500000 0.750000
O O10 0.252794 0.589468 0.793769
O O11 0.302605 0.540002 0.000000
O O12 0.750000 0.750000 0.197140
O O13 0.706857 0.830138 0.240908
O O14 0.683127 0.784593 0.000000
O O15 0.049642 0.132856 0.500000
O O16 0.000000 0.157499 0.250000
O O17 0.752231 0.343298 0.000000
#
# Coordination Sequence:
#
# PCOD8275449 Si02
#       6
#    16  16  16  16  16  16
#     4   9  17  31  46  58  80 107 131 162 203 253
#     4  11  21  33  48  62  78 103 134 174 217 257
#     4  10  18  29  43  62  84 110 140 171 206 249
#     4   9  17  26  40  64  85 100 128 165 201 239
#     4  11  22  36  49  64  81 103 136 172 214 258
#     4   9  16  28  44  60  81 109 135 161 201 248
#
# _framework density 14.370798000000001
#
# number of rings (size 3 to 8) (size 9 to 14) (size 15 to 20)
#    0.000    2.167    1.667    4.000    0.000    5.000 
#    0.000    1.667    0.000    0.000    0.000    0.000 
#    0.000    0.000    0.000    0.000    0.000    0.833 
#
# Total GULP energy -595114.193786 kJ/mol
# GULP energy per Si atom -12398.212371 kJ/mol
# Density = 1.433809 g / cm^3
# Si number density = 14.370798 Si / 1000 Ang^3
#
#
#
# Elastic Constant Matrix: (Units=GPa)
#
#
# Indices 1 2 3 4 5 6 
#
# 1 54.7872 53.1068 32.2282 0.0000 0.0000 0.0000
# 2 53.1068 96.3219 41.5349 0.0000 0.0000 0.0000
# 3 32.2282 41.5349 73.6080 0.0000 0.0000 0.0000
# 4 0.0000 0.0000 0.0000 20.9571 0.0000 0.0000
# 5 0.0000 0.0000 0.0000 0.0000 14.4998 0.0000
# 6 0.0000 0.0000 0.0000 0.0000 0.0000 21.0574
#
#
#
# Elastic Compliance Matrix: (Units=1/GPa)
#
#
# Indices 1 2 3 4 5 6 
#
# 1 0.041763 -0.020010 -0.006994 0.000000 0.000000 0.000000
# 2 -0.020010 0.023308 -0.004391 0.000000 0.000000 0.000000
# 3 -0.006994 -0.004391 0.019125 0.000000 0.000000 0.000000
# 4 0.000000 0.000000 0.000000 0.047716 0.000000 0.000000
# 5 0.000000 0.000000 0.000000 0.000000 0.068967 0.000000
# 6 0.000000 0.000000 0.000000 0.000000 0.000000 0.047489
#
#
# Mechanical properties :
#
#
# Convention : Reuss Voigt Hill
#
# Bulk Modulus (GPa) = 46.71577 53.16188 49.93882
# Shear Modulus (GPa) = 15.70878 17.82600 16.76739
#
# Velocity S-wave (km/s) = 3.30980 3.52580 3.41950
# Velocity P-wave (km/s) = 6.86909 7.32450 7.10045
#
# Compressibility (1/GPa) = 0.02140605
#
# Stress axis : x y z
#
# Youngs Moduli (GPa) = 23.94469 42.90457 52.28640
#
# Poissons Ratio (x) = 0.85851 0.36571
# Poissons Ratio (y) = 0.47913 0.22958
# Poissons Ratio (z) = 0.16748 0.18838
#
# Static dielectric constant tensor:
#      x y z
#    x 2.520450 0.000000 0.000000 
#    y 0.000000 2.952510 0.000000 
#    z 0.000000 0.000000 2.869800 
# 
# 
# High freq. dielectric constant tensor:
#      x y z
#    x 1.494270 0.000000 0.000000 
#    y 0.000000 1.544010 0.000000 
#    z 0.000000 0.000000 1.563740 
# 
# From -- ./inp_files/9273.got.cif
#   From: 2010.03.12/outbox.cif.g09.slc.cpg/sg66_5_cif.got.tgz:9273.got - 2010.04.10 21:57:39.
