data_PCOD8275809
_publ_section_title
;
Structure prediction by ZEFSAII (Michael W. Deem and Ramdas Pophale) SiO2 
 PCOD8275809
Probable space group: C C C M
;
_chemical_formula_sum "Si O2"
_cell_formula_units_Z 80
_cell_length_a 25.015189
_cell_length_b 19.447023
_cell_length_c 10.411427
_cell_angle_alpha 90.000000
_cell_angle_beta 90.000000
_cell_angle_gamma 90.000000
_cell_volume 5064.856844
_symmetry_space_group_name_H-M "C C C M"
_symmetry_group_IT_number 66
_symmetry_cell_setting 'orthorhombic'
loop_
_space_group_symop_operation_xyz
x,y,z
-x,-y,z
x,-y,1/2-z
-x,y,1/2-z
-x,-y,-z
x,y,-z
-x,y,1/2+z
x,-y,1/2+z
1/2+x,1/2+y,z
1/2-x,1/2-y,z
1/2+x,1/2-y,1/2-z
1/2-x,1/2+y,1/2-z
1/2-x,1/2-y,-z
1/2+x,1/2+y,-z
1/2-x,1/2+y,1/2+z
1/2+x,1/2-y,1/2+z
loop_
_atom_site_type_symbol
_atom_site_label
_atom_site_fract_x
_atom_site_fract_y
_atom_site_fract_z
Si Si1 0.207000 0.000000 0.750000
Si Si2 0.940314 0.784934 0.756553
Si Si3 0.564640 0.367378 0.000000
Si Si4 0.363943 0.504756 0.000000
Si Si5 0.164740 0.260168 0.850056
Si Si6 0.553675 0.617916 0.000000
Si Si7 0.757032 0.862104 0.151394
O O1 0.242444 0.069363 0.760303
O O2 0.171067 0.997320 0.625154
O O3 0.928656 0.820871 0.623563
O O4 0.892301 0.730375 0.777673
O O5 0.000000 0.751018 0.750000
O O6 0.935297 0.838648 0.872563
O O7 0.611917 0.420489 0.000000
O O8 0.507800 0.406467 0.000000
O O9 0.409771 0.448241 0.000000
O O10 0.192197 0.186682 0.817204
O O11 0.203122 0.322385 0.808596
O O12 0.153731 0.264124 0.000000
O O13 0.757112 0.880649 0.000000
#
# Coordination Sequence:
#
# PCOD8275809 Si02
#       7
#     8  16   8   8  16   8  16
#     4  12  22  32  47  72 101 122 170 204 244 294
#     4  10  19  31  48  70  95 124 162 208 246 283
#     4  10  21  30  41  66  99 128 160 205 246 274
#     4  12  21  30  46  62  94 138 165 200 234 280
#     4   9  16  31  55  71  93 126 172 206 238 290
#     4  10  19  32  45  62  91 132 178 197 222 282
#     4   9  18  32  50  75  94 126 168 209 243 289
#
# _framework density 15.795116
#
# number of rings (size 3 to 8) (size 9 to 14) (size 15 to 20)
#    0.000    2.000    2.000    5.100    0.000    0.000 
#    0.000    5.000    0.000    3.600    0.000    0.700 
#    0.000    3.200    0.000    0.000    0.000    0.000 
#
# Total GULP energy -495791.110669 kJ/mol
# GULP energy per Si atom -12394.777767 kJ/mol
# Density = 1.575917 g / cm^3
# Si number density = 15.795116 Si / 1000 Ang^3
#
#
#
# Elastic Constant Matrix: (Units=GPa)
#
#
# Indices 1 2 3 4 5 6 
#
# 1 120.5065 43.6564 28.9461 0.0000 0.0000 0.0000
# 2 43.6564 71.4985 21.1474 0.0000 0.0000 0.0000
# 3 28.9461 21.1474 83.3029 0.0000 0.0000 0.0000
# 4 0.0000 0.0000 0.0000 28.4748 0.0000 0.0000
# 5 0.0000 0.0000 0.0000 0.0000 179.4487 0.0000
# 6 0.0000 0.0000 0.0000 0.0000 0.0000 31.1104
#
#
#
# Elastic Compliance Matrix: (Units=1/GPa)
#
#
# Indices 1 2 3 4 5 6 
#
# 1 0.011048 -0.006066 -0.002299 0.000000 0.000000 0.000000
# 2 -0.006066 0.018452 -0.002577 0.000000 0.000000 0.000000
# 3 -0.002299 -0.002577 0.013457 0.000000 0.000000 0.000000
# 4 0.000000 0.000000 0.000000 0.035119 0.000000 0.000000
# 5 0.000000 0.000000 0.000000 0.000000 0.005573 0.000000
# 6 0.000000 0.000000 0.000000 0.000000 0.000000 0.032144
#
#
# Mechanical properties :
#
#
# Convention : Reuss Voigt Hill
#
# Bulk Modulus (GPa) = 47.45044 51.42306 49.43675
# Shear Modulus (GPa) = 34.55417 59.91063 47.23240
#
# Velocity S-wave (km/s) = 4.68230 6.16540 5.47431
# Velocity P-wave (km/s) = 7.70314 9.12743 8.44536
#
# Compressibility (1/GPa) = 0.02107462
#
# Stress axis : x y z
#
# Youngs Moduli (GPa) = 90.51370 54.19431 74.30884
#
# Poissons Ratio (x) = 0.32873 0.17084
# Poissons Ratio (y) = 0.54904 0.19146
# Poissons Ratio (z) = 0.20810 0.13963
#
# Static dielectric constant tensor:
#      x y z
#    x 3.295430 0.000000 0.000000 
#    y 0.000000 2.841090 0.000000 
#    z 0.000000 0.000000 3.022170 
# 
# 
# High freq. dielectric constant tensor:
#      x y z
#    x 1.612740 0.000000 0.000000 
#    y 0.000000 1.568430 0.000000 
#    z 0.000000 0.000000 1.608760 
# 
# From -- ./inp_files/6803.got.cif
#   From: 2010.03.12/outbox.cif.g09.slc.cpg/sg66_4_cif.got.tgz:6803.got - 2010.04.10 21:57:39.
