data_PCOD8275312
_publ_section_title
;
Structure prediction by ZEFSAII (Michael W. Deem and Ramdas Pophale) SiO2 
 PCOD8275312
Probable space group: C C C M
;
_chemical_formula_sum "Si O2"
_cell_formula_units_Z 112
_cell_length_a 20.308773
_cell_length_b 20.085662
_cell_length_c 17.754401
_cell_angle_alpha 90.000000
_cell_angle_beta 90.000000
_cell_angle_gamma 90.000000
_cell_volume 7242.289149
_symmetry_space_group_name_H-M "C C C M"
_symmetry_group_IT_number 66
_symmetry_cell_setting 'orthorhombic'
loop_
_space_group_symop_operation_xyz
x,y,z
-x,-y,z
x,-y,1/2-z
-x,y,1/2-z
-x,-y,-z
x,y,-z
-x,y,1/2+z
x,-y,1/2+z
1/2+x,1/2+y,z
1/2-x,1/2-y,z
1/2+x,1/2-y,1/2-z
1/2-x,1/2+y,1/2-z
1/2-x,1/2-y,-z
1/2+x,1/2+y,-z
1/2-x,1/2+y,1/2+z
1/2+x,1/2-y,1/2+z
loop_
_atom_site_type_symbol
_atom_site_label
_atom_site_fract_x
_atom_site_fract_y
_atom_site_fract_z
Si Si1 0.203368 0.809128 0.701388
Si Si2 0.540011 0.367897 0.913969
Si Si3 0.610430 0.377149 0.587189
Si Si4 0.285488 0.849865 0.085722
Si Si5 0.345468 0.720313 0.137785
Si Si6 0.894661 0.016111 0.168492
Si Si7 0.753452 0.933242 0.287999
O O1 0.250000 0.750000 0.672437
O O2 0.155855 0.826069 0.632359
O O3 0.162474 0.781600 0.772477
O O4 0.245140 0.874153 0.726299
O O5 0.463738 0.350502 0.903353
O O6 0.582717 0.307352 0.881594
O O7 0.552999 0.437449 0.872581
O O8 0.559137 0.379291 0.000000
O O9 0.631794 0.378103 0.500000
O O10 0.619341 0.450871 0.619881
O O11 0.340577 0.795766 0.107993
O O12 0.212002 0.821240 0.096917
O O13 0.293050 0.913179 0.141509
O O14 0.295450 0.873115 0.000000
O O15 0.827019 0.056050 0.180697
O O16 0.925188 0.000000 0.250000
O O17 0.724843 0.000000 0.250000
#
# Coordination Sequence:
#
# PCOD8275312 Si02
#       7
#    16  16  16  16  16  16  16
#     4  11  19  36  53  66  92 128 171 207 248 287
#     4  11  21  32  46  69 102 133 165 203 242 286
#     4  11  24  35  45  67  99 137 176 205 229 280
#     4  10  17  27  47  73  96 120 156 203 254 296
#     4  10  17  29  49  71  92 123 158 202 255 300
#     4  11  19  32  48  66  95 134 170 202 241 285
#     4  10  18  32  47  70  95 129 162 199 246 288
#
# _framework density 15.464724
#
# number of rings (size 3 to 8) (size 9 to 14) (size 15 to 20)
#    0.000    1.429    8.571    2.571    0.000    4.857 
#    0.000    0.000    0.000    0.000    0.000    0.000 
#    0.000    2.286    0.000    4.571    0.000    0.000 
#
# Total GULP energy -694399.241769 kJ/mol
# GULP energy per Si atom -12399.986460 kJ/mol
# Density = 1.542953 g / cm^3
# Si number density = 15.464724 Si / 1000 Ang^3
#
#
#
# Elastic Constant Matrix: (Units=GPa)
#
#
# Indices 1 2 3 4 5 6 
#
# 1 52.1820 43.0861 39.9374 0.0000 0.0000 0.0000
# 2 43.0861 96.1458 54.9483 0.0000 0.0000 0.0000
# 3 39.9374 54.9483 130.1819 0.0000 0.0000 0.0000
# 4 0.0000 0.0000 0.0000 27.2589 0.0000 0.0000
# 5 0.0000 0.0000 0.0000 0.0000 19.5238 0.0000
# 6 0.0000 0.0000 0.0000 0.0000 0.0000 20.0500
#
#
#
# Elastic Compliance Matrix: (Units=1/GPa)
#
#
# Indices 1 2 3 4 5 6 
#
# 1 0.032787 -0.011788 -0.005083 0.000000 0.000000 0.000000
# 2 -0.011788 0.017946 -0.003958 0.000000 0.000000 0.000000
# 3 -0.005083 -0.003958 0.010912 0.000000 0.000000 0.000000
# 4 0.000000 0.000000 0.000000 0.036685 0.000000 0.000000
# 5 0.000000 0.000000 0.000000 0.000000 0.051219 0.000000
# 6 0.000000 0.000000 0.000000 0.000000 0.000000 0.049875
#
#
# Mechanical properties :
#
#
# Convention : Reuss Voigt Hill
#
# Bulk Modulus (GPa) = 50.03508 61.60594 55.82051
# Shear Modulus (GPa) = 20.18202 22.73573 21.45887
#
# Velocity S-wave (km/s) = 3.61645 3.83844 3.72909
# Velocity P-wave (km/s) = 7.06136 7.71801 7.39698
#
# Compressibility (1/GPa) = 0.01998598
#
# Stress axis : x y z
#
# Youngs Moduli (GPa) = 30.49970 55.72365 91.64513
#
# Poissons Ratio (x) = 0.65688 0.46582
# Poissons Ratio (y) = 0.35953 0.36276
# Poissons Ratio (z) = 0.15503 0.22057
#
# Static dielectric constant tensor:
#      x y z
#    x 2.705030 0.000000 0.000000 
#    y 0.000000 3.027980 0.000000 
#    z 0.000000 0.000000 3.156750 
# 
# 
# High freq. dielectric constant tensor:
#      x y z
#    x 1.550250 0.000000 0.000000 
#    y 0.000000 1.583630 0.000000 
#    z 0.000000 0.000000 1.607020 
# 
# From -- ./inp_files/41971.got.cif
#   From: 2010.03.12/outbox.cif.g09.slc.cpg/sg66_21_cif.got.tgz:41971.got - 2010.04.10 21:57:39.
