data_PCOD8275575
_publ_section_title
;
Structure prediction by ZEFSAII (Michael W. Deem and Ramdas Pophale) SiO2 
 PCOD8275575
Probable space group: C C C M
;
_chemical_formula_sum "Si O2"
_cell_formula_units_Z 104
_cell_length_a 22.693039
_cell_length_b 15.953500
_cell_length_c 13.882263
_cell_angle_alpha 90.000000
_cell_angle_beta 90.000000
_cell_angle_gamma 90.000000
_cell_volume 5025.842841
_symmetry_space_group_name_H-M "C C C M"
_symmetry_group_IT_number 66
_symmetry_cell_setting 'orthorhombic'
loop_
_space_group_symop_operation_xyz
x,y,z
-x,-y,z
x,-y,1/2-z
-x,y,1/2-z
-x,-y,-z
x,y,-z
-x,y,1/2+z
x,-y,1/2+z
1/2+x,1/2+y,z
1/2-x,1/2-y,z
1/2+x,1/2-y,1/2-z
1/2-x,1/2+y,1/2-z
1/2-x,1/2-y,-z
1/2+x,1/2+y,-z
1/2-x,1/2+y,1/2+z
1/2+x,1/2-y,1/2+z
loop_
_atom_site_type_symbol
_atom_site_label
_atom_site_fract_x
_atom_site_fract_y
_atom_site_fract_z
Si Si1 0.243584 0.442285 0.108558
Si Si2 0.636378 0.634482 0.104326
Si Si3 0.152624 0.500000 0.250000
Si Si4 0.731637 0.369939 0.892654
Si Si5 0.868205 0.639559 0.388497
Si Si6 0.117230 0.811533 0.808483
Si Si7 0.436438 0.479886 0.360427
O O1 0.293293 0.371743 0.123534
O O2 0.191569 0.433773 0.186930
O O3 0.274014 0.531675 0.126477
O O4 0.217007 0.438521 0.000000
O O5 0.604914 0.683178 0.192707
O O6 0.611730 0.540011 0.091801
O O7 0.626019 0.679850 0.000000
O O8 0.114567 0.442204 0.323508
O O9 0.798845 0.341563 0.877210
O O10 0.687322 0.324036 0.820519
O O11 0.711297 0.345535 0.000000
O O12 0.885063 0.622060 0.500000
O O13 0.902883 0.720861 0.348146
O O14 0.081786 0.881904 0.870100
O O15 0.500000 0.500000 0.408447
O O16 0.439597 0.500000 0.250000
#
# Coordination Sequence:
#
# PCOD8275575 Si02
#       7
#    16  16   8  16  16  16  16
#     4   9  16  26  43  65  91 131 175 209 250 309
#     4  10  19  30  44  65  96 134 175 207 246 308
#     4  10  18  32  50  66  95 127 164 210 272 314
#     4   9  16  27  45  69  94 125 172 223 262 299
#     4  10  21  33  49  73  96 125 171 220 264 311
#     4  11  19  30  49  69  99 134 171 220 263 298
#     4   9  19  33  50  72 100 137 177 213 254 304
#
# _framework density 20.693045999999999
#
# number of rings (size 3 to 8) (size 9 to 14) (size 15 to 20)
#    0.000    2.308    1.538    4.154    1.077    2.154 
#    0.000    1.538    0.000    3.692    0.000    0.000 
#    0.000    9.846    0.000   23.538    0.000    0.615 
#
# Total GULP energy -644257.438333 kJ/mol
# GULP energy per Si atom -12389.566122 kJ/mol
# Density = 2.064595 g / cm^3
# Si number density = 20.693046 Si / 1000 Ang^3
#
#
#
# Elastic Constant Matrix: (Units=GPa)
#
#
# Indices 1 2 3 4 5 6 
#
# 1 18.3965 20.6972 2.5176 0.0000 0.0000 0.0000
# 2 20.6972 96.2344 53.6246 0.0000 0.0000 0.0000
# 3 2.5176 53.6246 140.7466 0.0000 0.0000 0.0000
# 4 0.0000 0.0000 0.0000 20.2300 0.0000 0.0000
# 5 0.0000 0.0000 0.0000 0.0000 -15.8228 0.0000
# 6 0.0000 0.0000 0.0000 0.0000 0.0000 6.5518
#
#
#
# Elastic Compliance Matrix: (Units=1/GPa)
#
#
# Indices 1 2 3 4 5 6 
#
# 1 0.075689 -0.019708 0.006155 0.000000 0.000000 0.000000
# 2 -0.019708 0.018324 -0.006629 0.000000 0.000000 0.000000
# 3 0.006155 -0.006629 0.009520 0.000000 0.000000 0.000000
# 4 0.000000 0.000000 0.000000 0.049431 0.000000 0.000000
# 5 0.000000 0.000000 0.000000 0.000000 -0.063200 0.000000
# 6 0.000000 0.000000 0.000000 0.000000 0.000000 0.152631
#
#
# Mechanical properties :
#
#
# Convention : Reuss Voigt Hill
#
# Bulk Modulus (GPa) = 15.83053 45.45070 30.64061
# Shear Modulus (GPa) = 16.45732 14.09434 15.27583
#
# Velocity S-wave (km/s) = 2.82318 2.61265 2.71995
# Velocity P-wave (km/s) = 4.27714 5.57792 4.97026
#
# Compressibility (1/GPa) = 0.06316908
#
# Stress axis : x y z
#
# Youngs Moduli (GPa) = 13.21194 54.57395 105.03680
#
# Poissons Ratio (x) = 1.07556 -0.64650
# Poissons Ratio (y) = 0.26038 0.69627
# Poissons Ratio (z) = -0.08132 0.36176
#
# Static dielectric constant tensor:
#      x y z
#    x 3.445990 0.000000 0.000000 
#    y 0.000000 3.599940 0.000000 
#    z 0.000000 0.000000 4.066720 
# 
# 
# High freq. dielectric constant tensor:
#      x y z
#    x 1.735060 0.000000 0.000000 
#    y 0.000000 1.771910 0.000000 
#    z 0.000000 0.000000 1.833550 
# 
# From -- ./inp_files/32630.got.cif
#   From: 2010.03.12/outbox.cif.g09.slc.cpg/sg66_17_cif.got.tgz:32630.got - 2010.04.10 21:57:39.
