data_PCOD8275992
_publ_section_title
;
Structure prediction by ZEFSAII (Michael W. Deem and Ramdas Pophale) SiO2 
 PCOD8275992
Probable space group: C C C M
;
_chemical_formula_sum "Si O2"
_cell_formula_units_Z 96
_cell_length_a 20.647217
_cell_length_b 24.569502
_cell_length_c 9.200492
_cell_angle_alpha 90.000000
_cell_angle_beta 90.000000
_cell_angle_gamma 90.000000
_cell_volume 4667.334510
_symmetry_space_group_name_H-M "C C C M"
_symmetry_group_IT_number 66
_symmetry_cell_setting 'orthorhombic'
loop_
_space_group_symop_operation_xyz
x,y,z
-x,-y,z
x,-y,1/2-z
-x,y,1/2-z
-x,-y,-z
x,y,-z
-x,y,1/2+z
x,-y,1/2+z
1/2+x,1/2+y,z
1/2-x,1/2-y,z
1/2+x,1/2-y,1/2-z
1/2-x,1/2+y,1/2-z
1/2-x,1/2-y,-z
1/2+x,1/2+y,-z
1/2-x,1/2+y,1/2+z
1/2+x,1/2-y,1/2+z
loop_
_atom_site_type_symbol
_atom_site_label
_atom_site_fract_x
_atom_site_fract_y
_atom_site_fract_z
Si Si1 0.564344 0.828484 0.327899
Si Si2 0.564259 0.449081 0.664951
Si Si3 0.748801 0.947749 0.336141
Si Si4 0.904580 0.551661 0.662048
Si Si5 0.174141 0.242756 0.331621
Si Si6 0.174911 0.136702 0.835589
O O1 0.500000 0.804313 0.250000
O O2 0.553775 0.827031 0.500000
O O3 0.573481 0.890503 0.270573
O O4 0.629167 0.794230 0.287382
O O5 0.596269 0.500000 0.750000
O O6 0.500000 0.431569 0.750000
O O7 0.547844 0.465860 0.500000
O O8 0.611463 0.398994 0.668498
O O9 0.776925 0.949215 0.500000
O O10 0.672281 0.949547 0.339146
O O11 0.768822 0.891695 0.258409
O O12 0.776506 0.000000 0.250000
O O13 0.932657 0.500000 0.750000
O O14 0.931997 0.546045 0.500000
O O15 0.163805 0.228463 0.500000
O O16 0.250000 0.250000 0.297244
O O17 0.151647 0.192970 0.233234
O O18 0.200408 0.144973 0.000000
#
# Coordination Sequence:
#
# PCOD8275992 Si02
#       6
#    16  16  16  16  16  16
#     4  10  22  40  61  86 117 152 191 237 290 346
#     4  10  21  36  54  77 108 145 185 229 280 337
#     4  10  19  33  55  83 116 152 190 234 284 338
#     4   9  19  36  58  85 116 150 188 229 276 335
#     4  10  22  42  65  85 110 151 199 244 292 345
#     4  11  23  36  54  83 113 144 186 235 288 345
#
# _framework density 20.568484999999999
#
# number of rings (size 3 to 8) (size 9 to 14) (size 15 to 20)
#    0.000    2.000    0.000    3.500    0.000   10.000 
#    0.000    6.667    0.000    0.000    0.000    0.000 
#    0.000    0.000    0.000    0.000    0.000    0.000 
#
# Total GULP energy -595118.320317 kJ/mol
# GULP energy per Si atom -12398.298340 kJ/mol
# Density = 2.052167 g / cm^3
# Si number density = 20.568485 Si / 1000 Ang^3
#
#
#
# Elastic Constant Matrix: (Units=GPa)
#
#
# Indices 1 2 3 4 5 6 
#
# 1 82.6459 42.3843 38.9969 0.0000 0.0000 0.0000
# 2 42.3843 134.3394 58.1401 0.0000 0.0000 0.0000
# 3 38.9969 58.1401 118.1079 0.0000 0.0000 0.0000
# 4 0.0000 0.0000 0.0000 37.3254 0.0000 0.0000
# 5 0.0000 0.0000 0.0000 0.0000 30.1412 0.0000
# 6 0.0000 0.0000 0.0000 0.0000 0.0000 10.4050
#
#
#
# Elastic Compliance Matrix: (Units=1/GPa)
#
#
# Indices 1 2 3 4 5 6 
#
# 1 0.015460 -0.003391 -0.003435 0.000000 0.000000 0.000000
# 2 -0.003391 0.010203 -0.003903 0.000000 0.000000 0.000000
# 3 -0.003435 -0.003903 0.011522 0.000000 0.000000 0.000000
# 4 0.000000 0.000000 0.000000 0.026791 0.000000 0.000000
# 5 0.000000 0.000000 0.000000 0.000000 0.033177 0.000000
# 6 0.000000 0.000000 0.000000 0.000000 0.000000 0.096108
#
#
# Mechanical properties :
#
#
# Convention : Reuss Voigt Hill
#
# Bulk Modulus (GPa) = 63.58558 68.23732 65.91145
# Shear Modulus (GPa) = 22.73124 28.61245 25.67185
#
# Velocity S-wave (km/s) = 3.32798 3.73377 3.53670
# Velocity P-wave (km/s) = 6.76376 7.19970 6.98513
#
# Compressibility (1/GPa) = 0.01572684
#
# Stress axis : x y z
#
# Youngs Moduli (GPa) = 64.68408 98.01296 86.78792
#
# Poissons Ratio (x) = 0.33234 0.29815
# Poissons Ratio (y) = 0.21933 0.33872
# Poissons Ratio (z) = 0.22221 0.38253
#
# Static dielectric constant tensor:
#      x y z
#    x 3.577060 0.000000 0.000000 
#    y 0.000000 3.835090 0.000000 
#    z 0.000000 0.000000 13.423370 
# 
# 
# High freq. dielectric constant tensor:
#      x y z
#    x 1.805450 0.000000 0.000000 
#    y 0.000000 1.803850 0.000000 
#    z 0.000000 0.000000 1.806630 
# 
# From -- ./inp_files/9121.got.cif
#   From: 2010.03.12/outbox.cif.g09.slc.cpg/sg66_5_cif.got.tgz:9121.got - 2010.04.10 21:57:39.
