data_PCOD8275057
_publ_section_title
;
Structure prediction by ZEFSAII (Michael W. Deem and Ramdas Pophale) SiO2 
 PCOD8275057
Probable space group: C M M M
;
_chemical_formula_sum "Si O2"
_cell_formula_units_Z 96
_cell_length_a 9.690098
_cell_length_b 19.178402
_cell_length_c 30.426626
_cell_angle_alpha 90.000000
_cell_angle_beta 90.000000
_cell_angle_gamma 90.000000
_cell_volume 5654.502276
_symmetry_space_group_name_H-M "C M M M"
_symmetry_group_IT_number 65
_symmetry_cell_setting 'orthorhombic'
loop_
_space_group_symop_operation_xyz
x,y,z
-x,-y,z
x,-y,-z
-x,y,-z
-x,-y,-z
x,y,-z
-x,y,z
x,-y,z
1/2+x,1/2+y,z
1/2-x,1/2-y,z
1/2+x,1/2-y,-z
1/2-x,1/2+y,-z
1/2-x,1/2-y,-z
1/2+x,1/2+y,-z
1/2-x,1/2+y,z
1/2+x,1/2-y,z
loop_
_atom_site_type_symbol
_atom_site_label
_atom_site_fract_x
_atom_site_fract_y
_atom_site_fract_z
Si Si1 0.339861 0.816880 0.550321
Si Si2 0.837055 0.422585 0.376106
Si Si3 0.659508 0.919941 0.126809
Si Si4 0.344772 0.582860 0.951510
Si Si5 0.158695 0.315309 0.202195
Si Si6 0.339267 0.183134 0.302472
O O1 0.314825 0.839074 0.500000
O O2 0.500000 0.798524 0.559086
O O3 0.250000 0.750000 0.563172
O O4 0.289537 0.881007 0.580402
O O5 0.769617 0.500000 0.376128
O O6 0.789968 0.381257 0.332482
O O7 0.000000 0.430267 0.376239
O O8 0.500000 0.911746 0.114617
O O9 0.743641 0.887200 0.085872
O O10 0.698295 0.879809 0.171277
O O11 0.699931 0.000000 0.135224
O O12 0.500000 0.607629 0.940822
O O13 0.336434 0.500000 0.951644
O O14 0.300454 0.610439 0.000000
O O15 0.250000 0.250000 0.187941
O O16 0.189437 0.338344 0.252140
O O17 0.000000 0.293350 0.196406
O O18 0.500000 0.201023 0.310491
O O19 0.250000 0.250000 0.316027
#
# Coordination Sequence:
#
# PCOD8275057 Si02
#       6
#    16  16  16  16  16  16
#     4   9  17  29  46  67  90 118 152 188 223 261
#     4   9  17  28  44  68  93 116 146 184 225 266
#     4   9  17  28  43  65  90 113 140 177 219 259
#     4   8  14  25  41  62  88 116 145 176 211 254
#     4   9  18  31  46  65  88 115 146 179 217 260
#     4   9  17  30  48  66  85 113 148 183 217 258
#
# _framework density 16.977622
#
# number of rings (size 3 to 8) (size 9 to 14) (size 15 to 20)
#    0.000    3.167    0.000    1.000    0.000    2.000 
#    0.000    6.667    0.000    2.500    0.000    7.000 
#    0.000    0.000    0.000    0.000    0.000    0.000 
#
# Total GULP energy -595055.179457 kJ/mol
# GULP energy per Si atom -12396.982905 kJ/mol
# Density = 1.693898 g / cm^3
# Si number density = 16.977622 Si / 1000 Ang^3
#
#
#
# Elastic Constant Matrix: (Units=GPa)
#
#
# Indices 1 2 3 4 5 6 
#
# 1 49.7303 45.8753 50.1234 0.0000 0.0000 0.0000
# 2 45.8753 113.6872 81.1711 0.0000 0.0000 0.0000
# 3 50.1234 81.1711 132.4073 0.0000 0.0000 0.0000
# 4 0.0000 0.0000 0.0000 18.1483 0.0000 0.0000
# 5 0.0000 0.0000 0.0000 0.0000 21.0909 0.0000
# 6 0.0000 0.0000 0.0000 0.0000 0.0000 20.8282
#
#
#
# Elastic Compliance Matrix: (Units=1/GPa)
#
#
# Indices 1 2 3 4 5 6 
#
# 1 0.036810 -0.008722 -0.008587 0.000000 0.000000 0.000000
# 2 -0.008722 0.017710 -0.007555 0.000000 0.000000 0.000000
# 3 -0.008587 -0.007555 0.015435 0.000000 0.000000 0.000000
# 4 0.000000 0.000000 0.000000 0.055102 0.000000 0.000000
# 5 0.000000 0.000000 0.000000 0.000000 0.047414 0.000000
# 6 0.000000 0.000000 0.000000 0.000000 0.000000 0.048012
#
#
# Mechanical properties :
#
#
# Convention : Reuss Voigt Hill
#
# Bulk Modulus (GPa) = 49.44352 72.24050 60.84201
# Shear Modulus (GPa) = 18.05361 19.92383 18.98872
#
# Velocity S-wave (km/s) = 3.26448 3.42941 3.34796
# Velocity P-wave (km/s) = 6.58750 7.63701 7.13158
#
# Compressibility (1/GPa) = 0.02022510
#
# Stress axis : x y z
#
# Youngs Moduli (GPa) = 27.16659 56.46560 64.78865
#
# Poissons Ratio (x) = 0.49251 0.55637
# Poissons Ratio (y) = 0.23696 0.48948
# Poissons Ratio (z) = 0.23329 0.42660
#
# Static dielectric constant tensor:
#      x y z
#    x 3.086990 0.000000 0.000000 
#    y 0.000000 3.105430 0.000000 
#    z 0.000000 0.000000 3.440500 
# 
# 
# High freq. dielectric constant tensor:
#      x y z
#    x 1.635400 0.000000 0.000000 
#    y 0.000000 1.629010 0.000000 
#    z 0.000000 0.000000 1.669390 
# 
# From -- ./inp_files/74369.got.cif
#   From: 2010.03.12/outbox.cif.g09.slc.cpg/sg65_38_cif.got.tgz:74369.got - 2010.04.10 20:52:16.
