data_PCOD8275716
_publ_section_title
;
Structure prediction by ZEFSAII (Michael W. Deem and Ramdas Pophale) SiO2 
 PCOD8275716
Probable space group: C C C M
;
_chemical_formula_sum "Si O2"
_cell_formula_units_Z 80
_cell_length_a 26.912898
_cell_length_b 19.002529
_cell_length_c 9.319693
_cell_angle_alpha 90.000000
_cell_angle_beta 90.000000
_cell_angle_gamma 90.000000
_cell_volume 4766.213319
_symmetry_space_group_name_H-M "C C C M"
_symmetry_group_IT_number 66
_symmetry_cell_setting 'orthorhombic'
loop_
_space_group_symop_operation_xyz
x,y,z
-x,-y,z
x,-y,1/2-z
-x,y,1/2-z
-x,-y,-z
x,y,-z
-x,y,1/2+z
x,-y,1/2+z
1/2+x,1/2+y,z
1/2-x,1/2-y,z
1/2+x,1/2-y,1/2-z
1/2-x,1/2+y,1/2-z
1/2-x,1/2-y,-z
1/2+x,1/2+y,-z
1/2-x,1/2+y,1/2+z
1/2+x,1/2-y,1/2+z
loop_
_atom_site_type_symbol
_atom_site_label
_atom_site_fract_x
_atom_site_fract_y
_atom_site_fract_z
Si Si1 0.193933 0.563893 0.341197
Si Si2 0.643190 0.335733 0.839736
Si Si3 0.298279 0.795442 0.163036
Si Si4 0.949623 0.928350 0.671386
Si Si5 0.308322 0.560001 0.654837
O O1 0.168699 0.500000 0.250000
O O2 0.168980 0.568941 0.500000
O O3 0.190005 0.638500 0.262740
O O4 0.250881 0.543368 0.363602
O O5 0.651180 0.251819 0.828378
O O6 0.588643 0.364179 0.798439
O O7 0.684704 0.366157 0.733282
O O8 0.656255 0.361709 0.000000
O O9 0.250000 0.750000 0.212577
O O10 0.289306 0.821791 0.000000
O O11 0.957409 0.940446 0.500000
O O12 0.000000 0.904168 0.750000
O O13 0.931236 0.000000 0.750000
O O14 0.334929 0.500000 0.750000
O O15 0.334820 0.560938 0.500000
#
# Coordination Sequence:
#
# PCOD8275716 Si02
#       5
#    16  16  16  16  16
#     4  10  20  32  46  64  89 123 162 198 233 275
#     4  10  20  32  47  68  92 122 158 197 240 288
#     4  10  19  32  49  67  94 127 158 196 242 285
#     4  10  20  34  51  70  95 125 163 203 245 288
#     4  10  19  28  41  61  87 119 157 197 232 273
#
# _framework density 16.784813
#
# number of rings (size 3 to 8) (size 9 to 14) (size 15 to 20)
#    0.000    2.000    2.000    3.000    0.000    6.000 
#    0.000    0.000    0.000    0.000    0.000    0.000 
#    0.000    0.800    0.000    9.200    0.000    2.800 
#
# Total GULP energy -495596.373721 kJ/mol
# GULP energy per Si atom -12389.909343 kJ/mol
# Density = 1.674661 g / cm^3
# Si number density = 16.784813 Si / 1000 Ang^3
#
#
#
# Elastic Constant Matrix: (Units=GPa)
#
#
# Indices 1 2 3 4 5 6 
#
# 1 47.6939 28.5413 19.8491 0.0000 0.0000 0.0000
# 2 28.5413 112.9616 67.7062 0.0000 0.0000 0.0000
# 3 19.8491 67.7062 134.1552 0.0000 0.0000 0.0000
# 4 0.0000 0.0000 0.0000 29.8970 0.0000 0.0000
# 5 0.0000 0.0000 0.0000 0.0000 2.3733 0.0000
# 6 0.0000 0.0000 0.0000 0.0000 0.0000 25.4940
#
#
#
# Elastic Compliance Matrix: (Units=1/GPa)
#
#
# Indices 1 2 3 4 5 6 
#
# 1 0.024751 -0.005819 -0.000725 0.000000 0.000000 0.000000
# 2 -0.005819 0.014060 -0.006235 0.000000 0.000000 0.000000
# 3 -0.000725 -0.006235 0.010708 0.000000 0.000000 0.000000
# 4 0.000000 0.000000 0.000000 0.033448 0.000000 0.000000
# 5 0.000000 0.000000 0.000000 0.000000 0.421348 0.000000
# 6 0.000000 0.000000 0.000000 0.000000 0.000000 0.039225
#
#
# Mechanical properties :
#
#
# Convention : Reuss Voigt Hill
#
# Bulk Modulus (GPa) = 41.73506 58.55598 50.14552
# Shear Modulus (GPa) = 8.66424 23.46715 16.06569
#
# Velocity S-wave (km/s) = 2.27446 3.74320 3.09715
# Velocity P-wave (km/s) = 5.64059 7.32421 6.53683
#
# Compressibility (1/GPa) = 0.02396067
#
# Stress axis : x y z
#
# Youngs Moduli (GPa) = 40.40226 71.12477 93.38808
#
# Poissons Ratio (x) = 0.41387 0.06774
# Poissons Ratio (y) = 0.23510 0.58226
# Poissons Ratio (z) = 0.02930 0.44345
#
# Static dielectric constant tensor:
#      x y z
#    x 2.802230 0.000000 0.000000 
#    y 0.000000 3.072290 0.000000 
#    z 0.000000 0.000000 3.562250 
# 
# 
# High freq. dielectric constant tensor:
#      x y z
#    x 1.589890 0.000000 0.000000 
#    y 0.000000 1.636270 0.000000 
#    z 0.000000 0.000000 1.668640 
# 
# From -- ./inp_files/6699.got.cif
#   From: 2010.03.12/outbox.cif.g09.slc.cpg/sg66_4_cif.got.tgz:6699.got - 2010.04.10 21:57:39.
