data_PCOD8275156
_publ_section_title
;
Structure prediction by ZEFSAII (Michael W. Deem and Ramdas Pophale) SiO2 
 PCOD8275156
Probable space group: C M M M
;
_chemical_formula_sum "Si O2"
_cell_formula_units_Z 56
_cell_length_a 9.504970
_cell_length_b 28.347242
_cell_length_c 13.412907
_cell_angle_alpha 90.000000
_cell_angle_beta 90.000000
_cell_angle_gamma 90.000000
_cell_volume 3613.969434
_symmetry_space_group_name_H-M "C M M M"
_symmetry_group_IT_number 65
_symmetry_cell_setting 'orthorhombic'
loop_
_space_group_symop_operation_xyz
x,y,z
-x,-y,z
x,-y,-z
-x,y,-z
-x,-y,-z
x,y,-z
-x,y,z
x,-y,z
1/2+x,1/2+y,z
1/2-x,1/2-y,z
1/2+x,1/2-y,-z
1/2-x,1/2+y,-z
1/2-x,1/2-y,-z
1/2+x,1/2+y,-z
1/2-x,1/2+y,z
1/2+x,1/2-y,z
loop_
_atom_site_type_symbol
_atom_site_label
_atom_site_fract_x
_atom_site_fract_y
_atom_site_fract_z
Si Si1 0.500000 0.552028 0.616687
Si Si2 0.156268 0.883442 0.255678
Si Si3 0.836877 0.553063 0.116216
Si Si4 0.665785 0.296665 0.385946
O O1 0.500000 0.500000 0.661605
O O2 0.500000 0.552415 0.500000
O O3 0.640088 0.578307 0.655467
O O4 0.257322 0.904841 0.172402
O O5 0.217667 0.836355 0.307472
O O6 0.000000 0.873792 0.208946
O O7 0.784652 0.500000 0.145434
O O8 0.000000 0.557702 0.142891
O O9 0.810268 0.561287 0.000000
O O10 0.700007 0.311902 0.500000
O O11 0.500000 0.287584 0.374145
O O12 0.750000 0.250000 0.356690
#
# Coordination Sequence:
#
# PCOD8275156 Si02
#       4
#     8  16  16  16
#     4   9  16  26  43  67  95 125 152 182 228 277
#     4   9  18  28  46  70  93 120 156 196 230 278
#     4   9  18  32  48  67  94 125 155 192 240 288
#     4   9  17  30  47  68  94 123 156 195 237 280
#
# _framework density 15.495426
#
# number of rings (size 3 to 8) (size 9 to 14) (size 15 to 20)
#    0.857    2.143    0.000    2.571    0.000    1.714 
#    0.000    1.429    0.000    3.429    0.000   10.000 
#    0.000    0.000    0.000    0.000    0.000    0.000 
#
# Total GULP energy -346879.069020 kJ/mol
# GULP energy per Si atom -12388.538179 kJ/mol
# Density = 1.546016 g / cm^3
# Si number density = 15.495426 Si / 1000 Ang^3
#
#
#
# Elastic Constant Matrix: (Units=GPa)
#
#
# Indices 1 2 3 4 5 6 
#
# 1 50.7610 49.5881 41.9134 0.0000 0.0000 0.0000
# 2 49.5881 130.3828 61.5003 0.0000 0.0000 0.0000
# 3 41.9134 61.5003 67.3399 0.0000 0.0000 0.0000
# 4 0.0000 0.0000 0.0000 34.8528 0.0000 0.0000
# 5 0.0000 0.0000 0.0000 0.0000 20.6464 0.0000
# 6 0.0000 0.0000 0.0000 0.0000 0.0000 31.4105
#
#
#
# Elastic Compliance Matrix: (Units=1/GPa)
#
#
# Indices 1 2 3 4 5 6 
#
# 1 0.043573 -0.006640 -0.021056 0.000000 0.000000 0.000000
# 2 -0.006640 0.014486 -0.009097 0.000000 0.000000 0.000000
# 3 -0.021056 -0.009097 0.036264 0.000000 0.000000 0.000000
# 4 0.000000 0.000000 0.000000 0.028692 0.000000 0.000000
# 5 0.000000 0.000000 0.000000 0.000000 0.048435 0.000000
# 6 0.000000 0.000000 0.000000 0.000000 0.000000 0.031836
#
#
# Mechanical properties :
#
#
# Convention : Reuss Voigt Hill
#
# Bulk Modulus (GPa) = 48.22454 61.60971 54.91713
# Shear Modulus (GPa) = 17.61897 23.74741 20.68319
#
# Velocity S-wave (km/s) = 3.37566 3.91902 3.65745
# Velocity P-wave (km/s) = 6.81049 7.76689 7.30436
#
# Compressibility (1/GPa) = 0.02073633
#
# Stress axis : x y z
#
# Youngs Moduli (GPa) = 22.95004 69.03186 27.57544
#
# Poissons Ratio (x) = 0.45836 0.58064
# Poissons Ratio (y) = 0.15238 0.25086
# Poissons Ratio (z) = 0.48325 0.62799
#
# Static dielectric constant tensor:
#      x y z
#    x 2.778600 0.000000 0.000000 
#    y 0.000000 3.080100 0.000000 
#    z 0.000000 0.000000 2.736300 
# 
# 
# High freq. dielectric constant tensor:
#      x y z
#    x 1.575010 0.000000 0.000000 
#    y 0.000000 1.597350 0.000000 
#    z 0.000000 0.000000 1.579390 
# 
# From -- ./inp_files/4723.got.cif
#   From: 2010.03.12/outbox.cif.g09.slc.cpg/sg65_3_cif.got.tgz:4723.got - 2010.04.10 20:52:16.
