data_PCOD8275715
_publ_section_title
;
Structure prediction by ZEFSAII (Michael W. Deem and Ramdas Pophale) SiO2 
 PCOD8275715
Probable space group: C C C M
;
_chemical_formula_sum "Si O2"
_cell_formula_units_Z 96
_cell_length_a 26.658974
_cell_length_b 29.120569
_cell_length_c 8.801878
_cell_angle_alpha 90.000000
_cell_angle_beta 90.000000
_cell_angle_gamma 90.000000
_cell_volume 6833.113466
_symmetry_space_group_name_H-M "C C C M"
_symmetry_group_IT_number 66
_symmetry_cell_setting 'orthorhombic'
loop_
_space_group_symop_operation_xyz
x,y,z
-x,-y,z
x,-y,1/2-z
-x,y,1/2-z
-x,-y,-z
x,y,-z
-x,y,1/2+z
x,-y,1/2+z
1/2+x,1/2+y,z
1/2-x,1/2-y,z
1/2+x,1/2-y,1/2-z
1/2-x,1/2+y,1/2-z
1/2-x,1/2-y,-z
1/2+x,1/2+y,-z
1/2-x,1/2+y,1/2+z
1/2+x,1/2-y,1/2+z
loop_
_atom_site_type_symbol
_atom_site_label
_atom_site_fract_x
_atom_site_fract_y
_atom_site_fract_z
Si Si1 0.214033 0.547195 0.322458
Si Si2 0.645754 0.806517 0.319989
Si Si3 0.401582 0.952069 0.320244
Si Si4 0.256658 0.137328 0.679530
Si Si5 0.052320 0.363130 0.318811
Si Si6 0.797828 0.777060 0.680092
O O1 0.233554 0.500000 0.250000
O O2 0.220736 0.542794 0.500000
O O3 0.156380 0.556478 0.276104
O O4 0.248460 0.588572 0.261712
O O5 0.644176 0.807771 0.500000
O O6 0.692069 0.838085 0.265631
O O7 0.593844 0.826963 0.256709
O O8 0.653737 0.752946 0.264230
O O9 0.409990 0.952241 0.500000
O O10 0.435264 0.913347 0.243636
O O11 0.419954 0.000000 0.250000
O O12 0.257171 0.129024 0.500000
O O13 0.208653 0.169473 0.730110
O O14 0.049805 0.364733 0.500000
O O15 0.000000 0.346079 0.250000
O O16 0.796385 0.776148 0.500000
O O17 0.750000 0.750000 0.743992
#
# Coordination Sequence:
#
# PCOD8275715 Si02
#       6
#    16  16  16  16  16  16
#     4  10  19  28  40  57  79 103 129 158 192 232
#     4   8  14  25  41  59  77  97 122 155 190 227
#     4  10  20  33  46  58  72  94 126 164 204 241
#     4   9  14  24  43  62  78  96 123 155 189 227
#     4  11  21  32  45  59  76  98 127 161 199 239
#     4   7  11  20  38  62  79  93 118 151 184 222
#
# _framework density 14.049232
#
# number of rings (size 3 to 8) (size 9 to 14) (size 15 to 20)
#    0.000    2.833    1.667    3.500    0.000    1.667 
#    0.000    1.667    0.000    6.500    0.000    0.000 
#    0.000    0.000    0.000    0.000    0.000    0.833 
#
# Total GULP energy -594637.018858 kJ/mol
# GULP energy per Si atom -12388.271226 kJ/mol
# Density = 1.401726 g / cm^3
# Si number density = 14.049232 Si / 1000 Ang^3
#
#
#
# Elastic Constant Matrix: (Units=GPa)
#
#
# Indices 1 2 3 4 5 6 
#
# 1 55.5000 56.6462 17.5634 0.0000 0.0000 0.0000
# 2 56.6462 115.2447 29.4389 0.0000 0.0000 0.0000
# 3 17.5634 29.4389 40.0420 0.0000 0.0000 0.0000
# 4 0.0000 0.0000 0.0000 16.7218 0.0000 0.0000
# 5 0.0000 0.0000 0.0000 0.0000 0.1440 0.0000
# 6 0.0000 0.0000 0.0000 0.0000 0.0000 21.6053
#
#
#
# Elastic Compliance Matrix: (Units=1/GPa)
#
#
# Indices 1 2 3 4 5 6 
#
# 1 0.036546 -0.017076 -0.003476 0.000000 0.000000 0.000000
# 2 -0.017076 0.018662 -0.006230 0.000000 0.000000 0.000000
# 3 -0.003476 -0.006230 0.031079 0.000000 0.000000 0.000000
# 4 0.000000 0.000000 0.000000 0.059802 0.000000 0.000000
# 5 0.000000 0.000000 0.000000 0.000000 6.944302 0.000000
# 6 0.000000 0.000000 0.000000 0.000000 0.000000 0.046285
#
#
# Mechanical properties :
#
#
# Convention : Reuss Voigt Hill
#
# Bulk Modulus (GPa) = 30.55956 46.45375 38.50666
# Shear Modulus (GPa) = 0.69433 14.83677 7.76555
#
# Velocity S-wave (km/s) = 0.70377 3.25323 2.35359
# Velocity P-wave (km/s) = 4.73913 6.87372 5.90370
#
# Compressibility (1/GPa) = 0.03272298
#
# Stress axis : x y z
#
# Youngs Moduli (GPa) = 27.36244 53.58496 32.17598
#
# Poissons Ratio (x) = 0.91500 0.11185
# Poissons Ratio (y) = 0.46723 0.20047
# Poissons Ratio (z) = 0.09511 0.33386
#
# Static dielectric constant tensor:
#      x y z
#    x 2.710580 0.000000 0.000000 
#    y 0.000000 3.058800 0.000000 
#    z 0.000000 0.000000 2.555490 
# 
# 
# High freq. dielectric constant tensor:
#      x y z
#    x 1.484830 0.000000 0.000000 
#    y 0.000000 1.537760 0.000000 
#    z 0.000000 0.000000 1.522830 
# 
# From -- ./inp_files/10644.got.cif
#   From: 2010.03.12/outbox.cif.g09.slc.cpg/sg66_6_cif.got.tgz:10644.got - 2010.04.10 21:57:39.
