data_PCOD8275573
_publ_section_title
;
Structure prediction by ZEFSAII (Michael W. Deem and Ramdas Pophale) SiO2 
 PCOD8275573
Probable space group: C C C M
;
_chemical_formula_sum "Si O2"
_cell_formula_units_Z 128
_cell_length_a 19.708635
_cell_length_b 19.476260
_cell_length_c 19.571933
_cell_angle_alpha 90.000000
_cell_angle_beta 90.000000
_cell_angle_gamma 90.000000
_cell_volume 7512.696258
_symmetry_space_group_name_H-M "C C C M"
_symmetry_group_IT_number 66
_symmetry_cell_setting 'orthorhombic'
loop_
_space_group_symop_operation_xyz
x,y,z
-x,-y,z
x,-y,1/2-z
-x,y,1/2-z
-x,-y,-z
x,y,-z
-x,y,1/2+z
x,-y,1/2+z
1/2+x,1/2+y,z
1/2-x,1/2-y,z
1/2+x,1/2-y,1/2-z
1/2-x,1/2+y,1/2-z
1/2-x,1/2-y,-z
1/2+x,1/2+y,-z
1/2-x,1/2+y,1/2+z
1/2+x,1/2-y,1/2+z
loop_
_atom_site_type_symbol
_atom_site_label
_atom_site_fract_x
_atom_site_fract_y
_atom_site_fract_z
Si Si1 0.683040 0.504226 0.139972
Si Si2 0.181267 0.109702 0.246573
Si Si3 0.302046 0.933328 0.077710
Si Si4 0.952554 0.317475 0.187687
Si Si5 0.206826 0.318464 0.315481
Si Si6 0.042957 0.565634 0.078568
Si Si7 0.056683 0.947000 0.922238
Si Si8 0.551788 0.336763 0.194201
O O1 0.674487 0.581741 0.168941
O O2 0.671362 0.452958 0.202212
O O3 0.757584 0.495526 0.107927
O O4 0.627745 0.487420 0.082398
O O5 0.255791 0.142878 0.253090
O O6 0.124427 0.165774 0.266887
O O7 0.285953 0.862084 0.115307
O O8 0.379288 0.956928 0.086405
O O9 0.282447 0.919409 0.000000
O O10 0.872181 0.314583 0.205369
O O11 0.970593 0.366980 0.124321
O O12 0.971949 0.238951 0.170498
O O13 0.000000 0.343357 0.250000
O O14 0.250000 0.250000 0.330544
O O15 0.000000 0.500000 0.104078
O O16 0.025024 0.584301 0.000000
O O17 0.053570 0.880791 0.874403
O O18 0.045444 0.922606 0.000000
O O19 0.000000 0.000000 0.897663
O O20 0.500000 0.368073 0.250000
#
# Coordination Sequence:
#
# PCOD8275573 Si02
#       8
#    16  16  16  16  16  16  16  16
#     4   9  17  29  45  69  96 126 167 204 244 306
#     4   9  17  29  47  67  94 132 164 200 252 302
#     4   9  18  31  49  74 101 131 167 208 257 315
#     4  10  21  34  51  78 106 133 174 219 259 311
#     4  10  18  32  49  71 104 133 163 208 258 314
#     4   9  19  36  55  74 102 138 174 215 267 321
#     4  10  20  32  47  70  99 131 170 215 259 304
#     4  10  19  32  49  70  99 133 171 212 256 312
#
# _framework density 17.037824000000001
#
# number of rings (size 3 to 8) (size 9 to 14) (size 15 to 20)
#    0.000    2.500    1.250    1.125    0.000    3.250 
#    0.000    2.500    0.000    0.000    0.000    0.000 
#    0.000    1.500    0.000    0.000    0.000    0.000 
#
# Total GULP energy -793206.644416 kJ/mol
# GULP energy per Si atom -12393.853819 kJ/mol
# Density = 1.699905 g / cm^3
# Si number density = 17.037824 Si / 1000 Ang^3
#
#
#
# Elastic Constant Matrix: (Units=GPa)
#
#
# Indices 1 2 3 4 5 6 
#
# 1 94.8486 36.6243 44.4986 0.0000 0.0000 0.0000
# 2 36.6243 89.4571 49.9058 0.0000 0.0000 0.0000
# 3 44.4986 49.9058 86.1328 0.0000 0.0000 0.0000
# 4 0.0000 0.0000 0.0000 25.0286 0.0000 0.0000
# 5 0.0000 0.0000 0.0000 0.0000 24.4166 0.0000
# 6 0.0000 0.0000 0.0000 0.0000 0.0000 25.3321
#
#
#
# Elastic Compliance Matrix: (Units=1/GPa)
#
#
# Indices 1 2 3 4 5 6 
#
# 1 0.014302 -0.002561 -0.005905 0.000000 0.000000 0.000000
# 2 -0.002561 0.016976 -0.008513 0.000000 0.000000 0.000000
# 3 -0.005905 -0.008513 0.019593 0.000000 0.000000 0.000000
# 4 0.000000 0.000000 0.000000 0.039954 0.000000 0.000000
# 5 0.000000 0.000000 0.000000 0.000000 0.040956 0.000000
# 6 0.000000 0.000000 0.000000 0.000000 0.000000 0.039476
#
#
# Mechanical properties :
#
#
# Convention : Reuss Voigt Hill
#
# Bulk Modulus (GPa) = 59.12467 59.16622 59.14545
# Shear Modulus (GPa) = 23.71310 24.24944 23.98127
#
# Velocity S-wave (km/s) = 3.73472 3.77672 3.75578
# Velocity P-wave (km/s) = 7.30581 7.33621 7.32102
#
# Compressibility (1/GPa) = 0.01691341
#
# Stress axis : x y z
#
# Youngs Moduli (GPa) = 69.91790 58.90579 51.03826
#
# Poissons Ratio (x) = 0.15087 0.30138
# Poissons Ratio (y) = 0.17908 0.43448
# Poissons Ratio (z) = 0.41287 0.50146
#
# Static dielectric constant tensor:
#      x y z
#    x 3.364680 0.000000 0.000000 
#    y 0.000000 3.101100 0.000000 
#    z 0.000000 0.000000 3.106710 
# 
# 
# High freq. dielectric constant tensor:
#      x y z
#    x 1.668930 0.000000 0.000000 
#    y 0.000000 1.643430 0.000000 
#    z 0.000000 0.000000 1.642180 
# 
# From -- ./inp_files/51295.got.cif
#   From: 2010.03.12/outbox.cif.g09.slc.cpg/sg66_26_cif.got.tgz:51295.got - 2010.04.10 21:57:39.
