data_PCOD8275127
_publ_section_title
;
Structure prediction by ZEFSAII (Michael W. Deem and Ramdas Pophale) SiO2 
 PCOD8275127
Probable space group: C M M M
;
_chemical_formula_sum "Si O2"
_cell_formula_units_Z 88
_cell_length_a 27.331576
_cell_length_b 25.994347
_cell_length_c 9.164718
_cell_angle_alpha 90.000000
_cell_angle_beta 90.000000
_cell_angle_gamma 90.000000
_cell_volume 6511.224852
_symmetry_space_group_name_H-M "C M M M"
_symmetry_group_IT_number 65
_symmetry_cell_setting 'orthorhombic'
loop_
_space_group_symop_operation_xyz
x,y,z
-x,-y,z
x,-y,-z
-x,y,-z
-x,-y,-z
x,y,-z
-x,y,z
x,-y,z
1/2+x,1/2+y,z
1/2-x,1/2-y,z
1/2+x,1/2-y,-z
1/2-x,1/2+y,-z
1/2-x,1/2-y,-z
1/2+x,1/2+y,-z
1/2-x,1/2+y,z
1/2+x,1/2-y,z
loop_
_atom_site_type_symbol
_atom_site_label
_atom_site_fract_x
_atom_site_fract_y
_atom_site_fract_z
Si Si1 0.056093 0.706489 0.330425
Si Si2 0.805189 0.648678 0.164879
Si Si3 0.139218 0.756302 0.164619
Si Si4 0.109617 0.398438 0.670657
Si Si5 0.445167 0.000000 0.326550
Si Si6 0.722092 0.696081 0.665089
O O1 0.063642 0.718804 0.500000
O O2 0.086656 0.748442 0.239905
O O3 0.073644 0.648860 0.294982
O O4 0.000000 0.711289 0.282575
O O5 0.831834 0.703155 0.166326
O O6 0.839345 0.606862 0.243873
O O7 0.754127 0.653240 0.251360
O O8 0.794457 0.630680 0.000000
O O9 0.170105 0.798657 0.253498
O O10 0.131544 0.776107 0.000000
O O11 0.121947 0.401606 0.500000
O O12 0.083150 0.449578 0.728919
O O13 0.500000 0.000000 0.261168
O O14 0.448123 0.000000 0.500000
O O15 0.712869 0.677446 0.500000
O O16 0.750000 0.750000 0.665637
#
# Coordination Sequence:
#
# PCOD8275127 Si02
#       6
#    16  16  16  16   8  16
#     4   9  16  25  36  49  66  89 117 148 179 210
#     4   9  16  25  36  50  68  87 106 132 169 211
#     4   9  16  24  34  49  68  88 109 134 166 204
#     4   9  16  26  39  53  67  85 113 148 185 222
#     4   9  16  26  41  57  69  85 115 155 192 223
#     4   9  15  23  36  52  68  85 105 130 162 201
#
# _framework density 13.515122
#
# number of rings (size 3 to 8) (size 9 to 14) (size 15 to 20)
#    0.000    3.000    0.000    2.182    0.000    9.091 
#    0.000    0.455    0.000    2.182    0.000    0.000 
#    0.000    0.000    0.000    0.000    0.000    0.000 
#
# Total GULP energy -545532.281795 kJ/mol
# GULP energy per Si atom -12398.460950 kJ/mol
# Density = 1.348436 g / cm^3
# Si number density = 13.515122 Si / 1000 Ang^3
#
#
#
# Elastic Constant Matrix: (Units=GPa)
#
#
# Indices 1 2 3 4 5 6 
#
# 1 111.9644 47.6394 62.5482 0.0000 0.0000 0.0000
# 2 47.6394 36.1259 29.4433 0.0000 0.0000 0.0000
# 3 62.5482 29.4433 94.6196 0.0000 0.0000 0.0000
# 4 0.0000 0.0000 0.0000 8.8654 0.0000 0.0000
# 5 0.0000 0.0000 0.0000 0.0000 16.6875 0.0000
# 6 0.0000 0.0000 0.0000 0.0000 0.0000 22.7285
#
#
#
# Elastic Compliance Matrix: (Units=1/GPa)
#
#
# Indices 1 2 3 4 5 6 
#
# 1 0.024287 -0.025379 -0.008158 0.000000 0.000000 0.000000
# 2 -0.025379 0.063606 -0.003016 0.000000 0.000000 0.000000
# 3 -0.008158 -0.003016 0.016900 0.000000 0.000000 0.000000
# 4 0.000000 0.000000 0.000000 0.112798 0.000000 0.000000
# 5 0.000000 0.000000 0.000000 0.000000 0.059925 0.000000
# 6 0.000000 0.000000 0.000000 0.000000 0.000000 0.043998
#
#
# Mechanical properties :
#
#
# Convention : Reuss Voigt Hill
#
# Bulk Modulus (GPa) = 31.55770 57.99686 44.77728
# Shear Modulus (GPa) = 12.34017 16.52822 14.43420
#
# Velocity S-wave (km/s) = 3.02497 3.50085 3.27158
# Velocity P-wave (km/s) = 5.96668 7.70370 6.89015
#
# Compressibility (1/GPa) = 0.03168799
#
# Stress axis : x y z
#
# Youngs Moduli (GPa) = 41.17455 15.72178 59.17239
#
# Poissons Ratio (x) = 0.39900 0.48271
# Poissons Ratio (y) = 1.04495 0.17847
# Poissons Ratio (z) = 0.33589 0.04742
#
# Static dielectric constant tensor:
#      x y z
#    x 2.731820 0.000000 0.000000 
#    y 0.000000 2.302700 0.000000 
#    z 0.000000 0.000000 2.775910 
# 
# 
# High freq. dielectric constant tensor:
#      x y z
#    x 1.509190 0.000000 0.000000 
#    y 0.000000 1.450230 0.000000 
#    z 0.000000 0.000000 1.521520 
# 
# From -- ./inp_files/12642.got.cif
#   From: 2010.03.12/outbox.cif.g09.slc.cpg/sg65_7_cif.got.tgz:12642.got - 2010.04.10 20:52:16.
