data_PCOD8275886
_publ_section_title
;
Structure prediction by ZEFSAII (Michael W. Deem and Ramdas Pophale) SiO2 
 PCOD8275886
Probable space group: C C C M
;
_chemical_formula_sum "Si O2"
_cell_formula_units_Z 128
_cell_length_a 20.866871
_cell_length_b 11.705388
_cell_length_c 28.045809
_cell_angle_alpha 90.000000
_cell_angle_beta 90.000000
_cell_angle_gamma 90.000000
_cell_volume 6850.324068
_symmetry_space_group_name_H-M "C C C M"
_symmetry_group_IT_number 66
_symmetry_cell_setting 'orthorhombic'
loop_
_space_group_symop_operation_xyz
x,y,z
-x,-y,z
x,-y,1/2-z
-x,y,1/2-z
-x,-y,-z
x,y,-z
-x,y,1/2+z
x,-y,1/2+z
1/2+x,1/2+y,z
1/2-x,1/2-y,z
1/2+x,1/2-y,1/2-z
1/2-x,1/2+y,1/2-z
1/2-x,1/2-y,-z
1/2+x,1/2+y,-z
1/2-x,1/2+y,1/2+z
1/2+x,1/2-y,1/2+z
loop_
_atom_site_type_symbol
_atom_site_label
_atom_site_fract_x
_atom_site_fract_y
_atom_site_fract_z
Si Si1 0.173573 0.498994 0.943959
Si Si2 0.319403 0.217236 0.125002
Si Si3 0.869175 0.119255 0.448100
Si Si4 0.614473 0.788034 0.599327
Si Si5 0.511062 0.625861 0.553703
Si Si6 0.308649 0.390286 0.553327
Si Si7 0.577330 0.134477 0.302423
Si Si8 0.569981 0.868229 0.694992
O O1 0.171526 0.387115 0.911497
O O2 0.118658 0.588822 0.927156
O O3 0.242500 0.551748 0.933012
O O4 0.163844 0.469264 0.000000
O O5 0.250000 0.250000 0.147518
O O6 0.328513 0.330532 0.094347
O O7 0.371651 0.205501 0.166780
O O8 0.836584 0.143493 0.500000
O O9 0.939211 0.175827 0.447796
O O10 0.867661 0.980800 0.441058
O O11 0.552633 0.716964 0.582520
O O12 0.678457 0.716507 0.587783
O O13 0.612341 0.802252 0.656247
O O14 0.500000 0.500000 0.577295
O O15 0.539209 0.613186 0.500000
O O16 0.306087 0.340235 0.500000
O O17 0.504178 0.155643 0.318355
O O18 0.585846 0.176567 0.247866
O O19 0.589658 0.000368 0.307388
#
# Coordination Sequence:
#
# PCOD8275886 Si02
#       8
#    16  16  16  16  16  16  16  16
#     4  11  23  36  52  82 119 156 195 239 281 335
#     4  12  22  36  59  82 116 152 190 239 288 345
#     4  10  20  34  52  78 111 154 197 223 265 350
#     4  12  20  34  58  86 109 148 194 247 287 334
#     4  10  19  32  51  79 115 153 188 228 279 341
#     4  10  20  35  53  76 114 157 196 226 270 343
#     4   9  19  40  61  89 109 144 191 236 305 355
#     4   9  19  37  67  85 111 140 187 249 293 363
#
# _framework density 18.685248000000001
#
# number of rings (size 3 to 8) (size 9 to 14) (size 15 to 20)
#    0.000    1.625    3.750    3.375    0.000    1.500 
#    0.000    1.250    0.000    3.750    0.000    0.000 
#    0.000    0.000    0.000    0.000    0.000    0.000 
#
# Total GULP energy -793143.448684 kJ/mol
# GULP energy per Si atom -12392.866386 kJ/mol
# Density = 1.864272 g / cm^3
# Si number density = 18.685248 Si / 1000 Ang^3
#
#
#
# Elastic Constant Matrix: (Units=GPa)
#
#
# Indices 1 2 3 4 5 6 
#
# 1 59.5910 23.0369 36.8780 0.0000 0.0000 0.0000
# 2 23.0369 75.1978 45.3174 0.0000 0.0000 0.0000
# 3 36.8780 45.3174 114.9962 0.0000 0.0000 0.0000
# 4 0.0000 0.0000 0.0000 5.4125 0.0000 0.0000
# 5 0.0000 0.0000 0.0000 0.0000 26.1986 0.0000
# 6 0.0000 0.0000 0.0000 0.0000 0.0000 35.4112
#
#
#
# Elastic Compliance Matrix: (Units=1/GPa)
#
#
# Indices 1 2 3 4 5 6 
#
# 1 0.021504 -0.003189 -0.005639 0.000000 0.000000 0.000000
# 2 -0.003189 0.017913 -0.006036 0.000000 0.000000 0.000000
# 3 -0.005639 -0.006036 0.012883 0.000000 0.000000 0.000000
# 4 0.000000 0.000000 0.000000 0.184759 0.000000 0.000000
# 5 0.000000 0.000000 0.000000 0.000000 0.038170 0.000000
# 6 0.000000 0.000000 0.000000 0.000000 0.000000 0.028240
#
#
# Mechanical properties :
#
#
# Convention : Reuss Voigt Hill
#
# Bulk Modulus (GPa) = 44.30597 51.13886 47.72241
# Shear Modulus (GPa) = 14.67474 23.04130 18.85802
#
# Velocity S-wave (km/s) = 2.80548 3.51540 3.18031
# Velocity P-wave (km/s) = 5.85299 6.62611 6.25151
#
# Compressibility (1/GPa) = 0.02257032
#
# Stress axis : x y z
#
# Youngs Moduli (GPa) = 46.50341 55.82515 77.62070
#
# Poissons Ratio (x) = 0.17804 0.43772
# Poissons Ratio (y) = 0.14831 0.46855
# Poissons Ratio (z) = 0.26224 0.33698
#
# Static dielectric constant tensor:
#      x y z
#    x 3.510640 0.000000 0.000000 
#    y 0.000000 3.369710 0.000000 
#    z 0.000000 0.000000 3.319370 
# 
# 
# High freq. dielectric constant tensor:
#      x y z
#    x 1.731150 0.000000 0.000000 
#    y 0.000000 1.718540 0.000000 
#    z 0.000000 0.000000 1.702980 
# 
# From -- ./inp_files/59963.got.cif
#   From: 2010.03.12/outbox.cif.g09.slc.cpg/sg66_30_cif.got.tgz:59963.got - 2010.04.10 21:57:39.
