data_PCOD8275996
_publ_section_title
;
Structure prediction by ZEFSAII (Michael W. Deem and Ramdas Pophale) SiO2 
 PCOD8275996
Probable space group: C C C M
;
_chemical_formula_sum "Si O2"
_cell_formula_units_Z 112
_cell_length_a 13.094024
_cell_length_b 23.590042
_cell_length_c 19.353309
_cell_angle_alpha 90.000000
_cell_angle_beta 90.000000
_cell_angle_gamma 90.000000
_cell_volume 5978.016060
_symmetry_space_group_name_H-M "C C C M"
_symmetry_group_IT_number 66
_symmetry_cell_setting 'orthorhombic'
loop_
_space_group_symop_operation_xyz
x,y,z
-x,-y,z
x,-y,1/2-z
-x,y,1/2-z
-x,-y,-z
x,y,-z
-x,y,1/2+z
x,-y,1/2+z
1/2+x,1/2+y,z
1/2-x,1/2-y,z
1/2+x,1/2-y,1/2-z
1/2-x,1/2+y,1/2-z
1/2-x,1/2-y,-z
1/2+x,1/2+y,-z
1/2-x,1/2+y,1/2+z
1/2+x,1/2-y,1/2+z
loop_
_atom_site_type_symbol
_atom_site_label
_atom_site_fract_x
_atom_site_fract_y
_atom_site_fract_z
Si Si1 0.923934 0.452932 0.081549
Si Si2 0.611760 0.556537 0.717166
Si Si3 0.695623 0.524006 0.579292
Si Si4 0.777704 0.106665 0.575263
Si Si5 0.557105 0.850565 0.922575
Si Si6 0.689469 0.664690 0.211940
Si Si7 0.405344 0.217596 0.794105
O O1 0.807890 0.459139 0.107537
O O2 0.000000 0.500000 0.115022
O O3 0.962283 0.389784 0.100892
O O4 0.923843 0.462257 0.000000
O O5 0.664656 0.500000 0.750000
O O6 0.500000 0.561389 0.750000
O O7 0.613855 0.551200 0.633170
O O8 0.671011 0.613719 0.735460
O O9 0.675448 0.545087 0.500000
O O10 0.683021 0.456858 0.583300
O O11 0.810490 0.130550 0.500000
O O12 0.655098 0.108092 0.581638
O O13 0.828634 0.145355 0.633224
O O14 0.569312 0.795494 0.874242
O O15 0.541298 0.827081 0.000000
O O16 0.610044 0.715947 0.220904
O O17 0.804291 0.683990 0.227529
O O18 0.500000 0.194869 0.750000
#
# Coordination Sequence:
#
# PCOD8275996 Si02
#       7
#    16  16  16  16  16  16  16
#     4   9  15  26  50  84 120 157 182 215 282 349
#     4  11  23  39  59  82 111 151 194 238 293 343
#     4  10  19  33  55  85 120 154 190 231 283 352
#     4   9  16  30  53  83 116 147 184 230 276 336
#     4   9  17  30  51  82 118 149 186 227 274 342
#     4  10  21  39  57  78 112 151 189 239 292 346
#     4  10  22  37  57  81 108 148 196 237 288 345
#
# _framework density 18.735313000000001
#
# number of rings (size 3 to 8) (size 9 to 14) (size 15 to 20)
#    0.000    2.286    2.857    0.429    2.000    0.571 
#    0.000    5.000    0.000    2.571    0.000    2.000 
#    0.000    0.000    0.000    0.000    0.000    0.000 
#
# Total GULP energy -694106.837113 kJ/mol
# GULP energy per Si atom -12394.764948 kJ/mol
# Density = 1.869267 g / cm^3
# Si number density = 18.735313 Si / 1000 Ang^3
#
#
#
# Elastic Constant Matrix: (Units=GPa)
#
#
# Indices 1 2 3 4 5 6 
#
# 1 74.0795 29.1647 43.7469 0.0000 0.0000 0.0000
# 2 29.1647 101.1274 47.4368 0.0000 0.0000 0.0000
# 3 43.7469 47.4368 116.3407 0.0000 0.0000 0.0000
# 4 0.0000 0.0000 0.0000 27.0670 0.0000 0.0000
# 5 0.0000 0.0000 0.0000 0.0000 27.6111 0.0000
# 6 0.0000 0.0000 0.0000 0.0000 0.0000 13.8437
#
#
#
# Elastic Compliance Matrix: (Units=1/GPa)
#
#
# Indices 1 2 3 4 5 6 
#
# 1 0.017838 -0.002471 -0.005700 0.000000 0.000000 0.000000
# 2 -0.002471 0.012569 -0.004196 0.000000 0.000000 0.000000
# 3 -0.005700 -0.004196 0.012450 0.000000 0.000000 0.000000
# 4 0.000000 0.000000 0.000000 0.036945 0.000000 0.000000
# 5 0.000000 0.000000 0.000000 0.000000 0.036217 0.000000
# 6 0.000000 0.000000 0.000000 0.000000 0.000000 0.072235
#
#
# Mechanical properties :
#
#
# Convention : Reuss Voigt Hill
#
# Bulk Modulus (GPa) = 55.17712 59.13827 57.15769
# Shear Modulus (GPa) = 22.82805 25.11763 23.97284
#
# Velocity S-wave (km/s) = 3.49442 3.66547 3.58097
# Velocity P-wave (km/s) = 6.76728 7.03903 6.90449
#
# Compressibility (1/GPa) = 0.01812345
#
# Stress axis : x y z
#
# Youngs Moduli (GPa) = 56.06076 79.55901 80.32316
#
# Poissons Ratio (x) = 0.19655 0.45785
# Poissons Ratio (y) = 0.13850 0.33704
# Poissons Ratio (z) = 0.31955 0.33383
#
# Static dielectric constant tensor:
#      x y z
#    x 3.340920 0.000000 0.000000 
#    y 0.000000 3.351660 0.000000 
#    z 0.000000 0.000000 3.414510 
# 
# 
# High freq. dielectric constant tensor:
#      x y z
#    x 1.712900 0.000000 0.000000 
#    y 0.000000 1.714910 0.000000 
#    z 0.000000 0.000000 1.716710 
# 
# From -- ./inp_files/49037.got.cif
#   From: 2010.03.12/outbox.cif.g09.slc.cpg/sg66_25_cif.got.tgz:49037.got - 2010.04.10 21:57:39.
