data_PCOD8275969
_publ_section_title
;
Structure prediction by ZEFSAII (Michael W. Deem and Ramdas Pophale) SiO2 
 PCOD8275969
Probable space group: C C C M
;
_chemical_formula_sum "Si O2"
_cell_formula_units_Z 96
_cell_length_a 27.903175
_cell_length_b 20.485752
_cell_length_c 8.530092
_cell_angle_alpha 90.000000
_cell_angle_beta 90.000000
_cell_angle_gamma 90.000000
_cell_volume 4875.950061
_symmetry_space_group_name_H-M "C C C M"
_symmetry_group_IT_number 66
_symmetry_cell_setting 'orthorhombic'
loop_
_space_group_symop_operation_xyz
x,y,z
-x,-y,z
x,-y,1/2-z
-x,y,1/2-z
-x,-y,-z
x,y,-z
-x,y,1/2+z
x,-y,1/2+z
1/2+x,1/2+y,z
1/2-x,1/2-y,z
1/2+x,1/2-y,1/2-z
1/2-x,1/2+y,1/2-z
1/2-x,1/2-y,-z
1/2+x,1/2+y,-z
1/2-x,1/2+y,1/2+z
1/2+x,1/2-y,1/2+z
loop_
_atom_site_type_symbol
_atom_site_label
_atom_site_fract_x
_atom_site_fract_y
_atom_site_fract_z
Si Si1 0.947977 0.310490 0.186221
Si Si2 0.891962 0.429546 0.314660
Si Si3 0.722332 0.687038 0.686663
Si Si4 0.788686 0.570139 0.314208
Si Si5 0.447568 0.431232 0.685929
Si Si6 0.614843 0.689084 0.686239
O O1 0.931787 0.378824 0.259013
O O2 0.911900 0.254097 0.244890
O O3 0.000000 0.292052 0.250000
O O4 0.948970 0.315943 0.000000
O O5 0.907025 0.500000 0.250000
O O6 0.889803 0.432731 0.500000
O O7 0.840242 0.408066 0.250053
O O8 0.721146 0.689377 0.500000
O O9 0.750000 0.750000 0.753343
O O10 0.749448 0.622061 0.744232
O O11 0.668572 0.687676 0.755314
O O12 0.772775 0.500000 0.250000
O O13 0.792250 0.567357 0.500000
O O14 0.427940 0.500000 0.750000
O O15 0.500000 0.415780 0.750000
O O16 0.449731 0.433841 0.500000
O O17 0.412533 0.374846 0.748622
O O18 0.616049 0.688292 0.500000
#
# Coordination Sequence:
#
# PCOD8275969 Si02
#       6
#    16  16  16  16  16  16
#     4  11  22  38  59  83 111 143 182 227 276 327
#     4  11  22  38  59  83 112 145 182 222 269 324
#     4   9  17  31  53  79 105 138 181 222 262 313
#     4  10  19  33  56  82 110 144 181 223 271 322
#     4  10  19  33  53  77 106 140 179 221 267 318
#     4   9  19  34  54  80 109 143 184 226 268 322
#
# _framework density 19.688471
#
# number of rings (size 3 to 8) (size 9 to 14) (size 15 to 20)
#    0.000    2.000    0.000    6.000    0.000    3.667 
#    0.000    4.167    0.000   14.000    0.000    0.000 
#    0.000    0.000    0.000    0.000    0.000    0.000 
#
# Total GULP energy -595328.110670 kJ/mol
# GULP energy per Si atom -12402.668972 kJ/mol
# Density = 1.964366 g / cm^3
# Si number density = 19.688471 Si / 1000 Ang^3
#
#
#
# Elastic Constant Matrix: (Units=GPa)
#
#
# Indices 1 2 3 4 5 6 
#
# 1 128.8992 80.8920 22.0205 0.0000 0.0000 0.0000
# 2 80.8920 143.0035 32.1021 0.0000 0.0000 0.0000
# 3 22.0205 32.1021 78.7719 0.0000 0.0000 0.0000
# 4 0.0000 0.0000 0.0000 13.0268 0.0000 0.0000
# 5 0.0000 0.0000 0.0000 0.0000 20.9766 0.0000
# 6 0.0000 0.0000 0.0000 0.0000 0.0000 47.4004
#
#
#
# Elastic Compliance Matrix: (Units=1/GPa)
#
#
# Indices 1 2 3 4 5 6 
#
# 1 0.012058 -0.006675 -0.000651 0.000000 0.000000 0.000000
# 2 -0.006675 0.011392 -0.002777 0.000000 0.000000 0.000000
# 3 -0.000651 -0.002777 0.014008 0.000000 0.000000 0.000000
# 4 0.000000 0.000000 0.000000 0.076765 0.000000 0.000000
# 5 0.000000 0.000000 0.000000 0.000000 0.047672 0.000000
# 6 0.000000 0.000000 0.000000 0.000000 0.000000 0.021097
#
#
# Mechanical properties :
#
#
# Convention : Reuss Voigt Hill
#
# Bulk Modulus (GPa) = 57.95700 68.96707 63.46204
# Shear Modulus (GPa) = 23.92951 30.65810 27.29380
#
# Velocity S-wave (km/s) = 3.49005 3.95037 3.72732
# Velocity P-wave (km/s) = 6.76325 7.47746 7.12930
#
# Compressibility (1/GPa) = 0.01725417
#
# Stress axis : x y z
#
# Youngs Moduli (GPa) = 82.93313 87.78267 71.38617
#
# Poissons Ratio (x) = 0.58592 0.04645
# Poissons Ratio (y) = 0.55355 0.19821
# Poissons Ratio (z) = 0.05396 0.24374
#
# Static dielectric constant tensor:
#      x y z
#    x 3.713670 0.000000 0.000000 
#    y 0.000000 3.878960 0.000000 
#    z 0.000000 0.000000 3.352870 
# 
# 
# High freq. dielectric constant tensor:
#      x y z
#    x 1.770850 0.000000 0.000000 
#    y 0.000000 1.783160 0.000000 
#    z 0.000000 0.000000 1.747380 
# 
# From -- ./inp_files/8039.got.cif
#   From: 2010.03.12/outbox.cif.g09.slc.cpg/sg66_5_cif.got.tgz:8039.got - 2010.04.10 21:57:39.
