data_PCOD8275745
_publ_section_title
;
Structure prediction by ZEFSAII (Michael W. Deem and Ramdas Pophale) SiO2 
 PCOD8275745
Probable space group: C C C M
;
_chemical_formula_sum "Si O2"
_cell_formula_units_Z 80
_cell_length_a 23.398106
_cell_length_b 9.514574
_cell_length_c 19.226759
_cell_angle_alpha 90.000000
_cell_angle_beta 90.000000
_cell_angle_gamma 90.000000
_cell_volume 4280.318980
_symmetry_space_group_name_H-M "C C C M"
_symmetry_group_IT_number 66
_symmetry_cell_setting 'orthorhombic'
loop_
_space_group_symop_operation_xyz
x,y,z
-x,-y,z
x,-y,1/2-z
-x,y,1/2-z
-x,-y,-z
x,y,-z
-x,y,1/2+z
x,-y,1/2+z
1/2+x,1/2+y,z
1/2-x,1/2-y,z
1/2+x,1/2-y,1/2-z
1/2-x,1/2+y,1/2-z
1/2-x,1/2-y,-z
1/2+x,1/2+y,-z
1/2-x,1/2+y,1/2+z
1/2+x,1/2-y,1/2+z
loop_
_atom_site_type_symbol
_atom_site_label
_atom_site_fract_x
_atom_site_fract_y
_atom_site_fract_z
Si Si1 0.606813 0.540809 0.325185
Si Si2 0.711577 0.882033 0.919040
Si Si3 0.478146 0.340747 0.576345
Si Si4 0.399785 0.275075 0.919842
Si Si5 0.263471 0.410128 0.685165
O O1 0.579506 0.500000 0.250000
O O2 0.568991 0.663543 0.362587
O O3 0.615719 0.405571 0.372512
O O4 0.668859 0.601236 0.315871
O O5 0.750000 0.750000 0.894125
O O6 0.644226 0.851554 0.901941
O O7 0.733157 0.023581 0.882300
O O8 0.720653 0.909573 0.000000
O O9 0.500000 0.500000 0.574843
O O10 0.452399 0.301706 0.500000
O O11 0.532695 0.237996 0.592329
O O12 0.390632 0.320569 0.000000
O O13 0.240767 0.500000 0.750000
O O14 0.250000 0.250000 0.695218
#
# Coordination Sequence:
#
# PCOD8275745 Si02
#       5
#    16  16  16  16  16
#     4  10  19  29  49  78 111 142 187 236 278 318
#     4  10  19  34  58  83 110 145 185 230 277 333
#     4   8  15  28  47  74 109 143 176 222 276 323
#     4   9  17  31  53  79 109 146 181 222 279 334
#     4  11  24  38  56  79 111 150 191 233 286 341
#
# _framework density 18.690196
#
# number of rings (size 3 to 8) (size 9 to 14) (size 15 to 20)
#    0.000    2.400    2.000    2.400    2.800    4.800 
#    0.000    0.000    0.000    1.200    0.000    5.600 
#    0.000    0.000    0.000    0.000    0.000    0.000 
#
# Total GULP energy -495587.937820 kJ/mol
# GULP energy per Si atom -12389.698446 kJ/mol
# Density = 1.864766 g / cm^3
# Si number density = 18.690196 Si / 1000 Ang^3
#
#
#
# Elastic Constant Matrix: (Units=GPa)
#
#
# Indices 1 2 3 4 5 6 
#
# 1 104.8565 36.0375 55.5464 0.0000 0.0000 0.0000
# 2 36.0375 85.7833 42.0865 0.0000 0.0000 0.0000
# 3 55.5464 42.0865 100.4785 0.0000 0.0000 0.0000
# 4 0.0000 0.0000 0.0000 17.2772 0.0000 0.0000
# 5 0.0000 0.0000 0.0000 0.0000 21.9119 0.0000
# 6 0.0000 0.0000 0.0000 0.0000 0.0000 22.9241
#
#
#
# Elastic Compliance Matrix: (Units=1/GPa)
#
#
# Indices 1 2 3 4 5 6 
#
# 1 0.013936 -0.002611 -0.006610 0.000000 0.000000 0.000000
# 2 -0.002611 0.015162 -0.004907 0.000000 0.000000 0.000000
# 3 -0.006610 -0.004907 0.015662 0.000000 0.000000 0.000000
# 4 0.000000 0.000000 0.000000 0.057880 0.000000 0.000000
# 5 0.000000 0.000000 0.000000 0.000000 0.045637 0.000000
# 6 0.000000 0.000000 0.000000 0.000000 0.000000 0.043622
#
#
# Mechanical properties :
#
#
# Convention : Reuss Voigt Hill
#
# Bulk Modulus (GPa) = 60.59732 62.05103 61.32418
# Shear Modulus (GPa) = 22.15749 22.91918 22.53834
#
# Velocity S-wave (km/s) = 3.44686 3.50561 3.47636
# Velocity P-wave (km/s) = 6.95223 7.04681 6.99968
#
# Compressibility (1/GPa) = 0.01650238
#
# Stress axis : x y z
#
# Youngs Moduli (GPa) = 71.75624 65.95520 63.84864
#
# Poissons Ratio (x) = 0.17224 0.42206
# Poissons Ratio (y) = 0.18739 0.31331
# Poissons Ratio (z) = 0.47433 0.32365
#
# Static dielectric constant tensor:
#      x y z
#    x 3.975430 0.000000 0.000000 
#    y 0.000000 2.944010 0.000000 
#    z 0.000000 0.000000 3.703510 
# 
# 
# High freq. dielectric constant tensor:
#      x y z
#    x 1.735590 0.000000 0.000000 
#    y 0.000000 1.665210 0.000000 
#    z 0.000000 0.000000 1.735740 
# 
# From -- ./inp_files/44085.got.cif
#   From: 2010.03.12/outbox.cif.g09.slc.cpg/sg66_23_cif.got.tgz:44085.got - 2010.04.10 21:57:39.
