data_PCOD8275812
_publ_section_title
;
Structure prediction by ZEFSAII (Michael W. Deem and Ramdas Pophale) SiO2 
 PCOD8275812
Probable space group: C C C M
;
_chemical_formula_sum "Si O2"
_cell_formula_units_Z 68
_cell_length_a 19.185630
_cell_length_b 6.459558
_cell_length_c 29.277827
_cell_angle_alpha 90.000000
_cell_angle_beta 90.000000
_cell_angle_gamma 90.000000
_cell_volume 3628.421295
_symmetry_space_group_name_H-M "C C C M"
_symmetry_group_IT_number 66
_symmetry_cell_setting 'orthorhombic'
loop_
_space_group_symop_operation_xyz
x,y,z
-x,-y,z
x,-y,1/2-z
-x,y,1/2-z
-x,-y,-z
x,y,-z
-x,y,1/2+z
x,-y,1/2+z
1/2+x,1/2+y,z
1/2-x,1/2-y,z
1/2+x,1/2-y,1/2-z
1/2-x,1/2+y,1/2-z
1/2-x,1/2-y,-z
1/2+x,1/2+y,-z
1/2-x,1/2+y,1/2+z
1/2+x,1/2-y,1/2+z
loop_
_atom_site_type_symbol
_atom_site_label
_atom_site_fract_x
_atom_site_fract_y
_atom_site_fract_z
Si Si1 0.000000 0.000000 0.101437
Si Si2 0.954974 0.696423 0.176811
Si Si3 0.683545 0.871239 0.871972
Si Si4 0.500000 0.500000 0.750000
Si Si5 0.860707 0.060445 0.552002
Si Si6 0.250000 0.250000 0.414516
O O1 0.008684 0.203471 0.132461
O O2 0.067332 0.962239 0.070018
O O3 0.876269 0.630189 0.166018
O O4 0.000000 0.500000 0.192131
O O5 0.950693 0.858437 0.218419
O O6 0.750000 0.750000 0.851472
O O7 0.659591 0.761590 0.918905
O O8 0.702424 0.108236 0.881935
O O9 0.869813 0.133039 0.500000
O O10 0.800163 0.888860 0.554264
#
# Coordination Sequence:
#
# PCOD8275812 Si02
#       6
#     8  16  16   4  16   8
#     4   9  19  33  51  76 104 140 179 219 265 315
#     4  10  19  36  59  81 104 134 172 216 264 327
#     4   9  20  35  53  77 105 142 181 215 260 313
#     4  10  22  36  62  86 106 124 162 212 272 324
#     4  10  19  31  48  74 108 142 182 226 264 302
#     4  10  19  32  50  74 102 144 184 220 256 306
#
# _framework density 18.740935
#
# number of rings (size 3 to 8) (size 9 to 14) (size 15 to 20)
#    0.000    2.353    0.000    2.471    0.000    7.059 
#    0.000    0.000    5.176    7.765    0.000    0.000 
#    0.000    0.000    0.000    0.000    0.000    0.000 
#
# Total GULP energy -421690.696706 kJ/mol
# GULP energy per Si atom -12402.667550 kJ/mol
# Density = 1.869828 g / cm^3
# Si number density = 18.740935 Si / 1000 Ang^3
#
#
#
# Elastic Constant Matrix: (Units=GPa)
#
#
# Indices 1 2 3 4 5 6 
#
# 1 132.3923 43.9106 59.0022 0.0000 0.0000 0.0000
# 2 43.9106 102.6930 42.5328 0.0000 0.0000 0.0000
# 3 59.0022 42.5328 100.1143 0.0000 0.0000 0.0000
# 4 0.0000 0.0000 0.0000 13.8180 0.0000 0.0000
# 5 0.0000 0.0000 0.0000 0.0000 4.5147 0.0000
# 6 0.0000 0.0000 0.0000 0.0000 0.0000 28.8778
#
#
#
# Elastic Compliance Matrix: (Units=1/GPa)
#
#
# Indices 1 2 3 4 5 6 
#
# 1 0.010704 -0.002384 -0.005296 0.000000 0.000000 0.000000
# 2 -0.002384 0.012348 -0.003841 0.000000 0.000000 0.000000
# 3 -0.005296 -0.003841 0.014741 0.000000 0.000000 0.000000
# 4 0.000000 0.000000 0.000000 0.072369 0.000000 0.000000
# 5 0.000000 0.000000 0.000000 0.000000 0.221500 0.000000
# 6 0.000000 0.000000 0.000000 0.000000 0.000000 0.034629
#
#
# Mechanical properties :
#
#
# Convention : Reuss Voigt Hill
#
# Bulk Modulus (GPa) = 67.78536 69.56564 68.67550
# Shear Modulus (GPa) = 12.68232 22.09237 17.38734
#
# Velocity S-wave (km/s) = 2.60420 3.43713 3.04924
# Velocity P-wave (km/s) = 6.72984 7.27682 7.00866
#
# Compressibility (1/GPa) = 0.01475245
#
# Stress axis : x y z
#
# Youngs Moduli (GPa) = 93.42323 80.98570 67.83572
#
# Poissons Ratio (x) = 0.19303 0.35924
# Poissons Ratio (y) = 0.22268 0.26057
# Poissons Ratio (z) = 0.49474 0.31108
#
# Static dielectric constant tensor:
#      x y z
#    x 3.639410 0.000000 0.000000 
#    y 0.000000 3.412670 0.000000 
#    z 0.000000 0.000000 3.214120 
# 
# 
# High freq. dielectric constant tensor:
#      x y z
#    x 1.735950 0.000000 0.000000 
#    y 0.000000 1.730970 0.000000 
#    z 0.000000 0.000000 1.706620 
# 
# From -- ./inp_files/65544.got.cif
#   From: 2010.03.12/outbox.cif.g09.slc.cpg/sg66_33_cif.got.tgz:65544.got - 2010.04.10 21:57:39.
