data_PCOD8275483
_publ_section_title
;
Structure prediction by ZEFSAII (Michael W. Deem and Ramdas Pophale) SiO2 
 PCOD8275483
Probable space group: C C C M
;
_chemical_formula_sum "Si O2"
_cell_formula_units_Z 88
_cell_length_a 22.643929
_cell_length_b 23.701216
_cell_length_c 9.177931
_cell_angle_alpha 90.000000
_cell_angle_beta 90.000000
_cell_angle_gamma 90.000000
_cell_volume 4925.691419
_symmetry_space_group_name_H-M "C C C M"
_symmetry_group_IT_number 66
_symmetry_cell_setting 'orthorhombic'
loop_
_space_group_symop_operation_xyz
x,y,z
-x,-y,z
x,-y,1/2-z
-x,y,1/2-z
-x,-y,-z
x,y,-z
-x,y,1/2+z
x,-y,1/2+z
1/2+x,1/2+y,z
1/2-x,1/2-y,z
1/2+x,1/2-y,1/2-z
1/2-x,1/2+y,1/2-z
1/2-x,1/2-y,-z
1/2+x,1/2+y,-z
1/2-x,1/2+y,1/2+z
1/2+x,1/2-y,1/2+z
loop_
_atom_site_type_symbol
_atom_site_label
_atom_site_fract_x
_atom_site_fract_y
_atom_site_fract_z
Si Si1 0.750000 0.250000 0.264036
Si Si2 0.657249 0.661533 0.837028
Si Si3 0.437133 0.729910 0.825014
Si Si4 0.648093 0.174290 0.834609
Si Si5 0.836384 0.552229 0.661706
Si Si6 0.697421 0.553341 0.336005
O O1 0.705430 0.288469 0.357310
O O2 0.710298 0.207494 0.168935
O O3 0.601450 0.678884 0.738652
O O4 0.685723 0.608896 0.756778
O O5 0.636214 0.645215 0.000000
O O6 0.500000 0.728099 0.750000
O O7 0.405516 0.787933 0.773535
O O8 0.441319 0.724568 0.000000
O O9 0.649804 0.112553 0.757810
O O10 0.635319 0.160150 0.000000
O O11 0.864589 0.500000 0.750000
O O12 0.863787 0.549631 0.500000
O O13 0.766726 0.544789 0.651165
O O14 0.669290 0.500000 0.250000
O O15 0.670450 0.557600 0.500000
#
# Coordination Sequence:
#
# PCOD8275483 Si02
#       6
#     8  16  16  16  16  16
#     4  10  18  30  46  74 107 138 169 210 257 308
#     4  11  21  33  51  77 108 139 172 213 257 309
#     4  10  21  37  56  76 100 134 174 218 264 309
#     4   9  17  30  51  74 101 135 171 212 258 313
#     4   9  17  30  46  71 102 136 171 207 249 305
#     4  10  19  32  50  74 106 142 176 211 254 305
#
# _framework density 17.865511999999999
#
# number of rings (size 3 to 8) (size 9 to 14) (size 15 to 20)
#    0.000    2.182    1.818    2.182    0.000    2.182 
#    0.000    1.818    0.000    1.091    0.000    7.636 
#    0.000    0.000    0.000    0.000    0.000    0.000 
#
# Total GULP energy -545178.363249 kJ/mol
# GULP energy per Si atom -12390.417347 kJ/mol
# Density = 1.782485 g / cm^3
# Si number density = 17.865512 Si / 1000 Ang^3
#
#
#
# Elastic Constant Matrix: (Units=GPa)
#
#
# Indices 1 2 3 4 5 6 
#
# 1 63.0861 7.5115 21.9172 0.0000 0.0000 0.0000
# 2 7.5115 102.1509 41.7405 0.0000 0.0000 0.0000
# 3 21.9172 41.7405 106.7885 0.0000 0.0000 0.0000
# 4 0.0000 0.0000 0.0000 27.1916 0.0000 0.0000
# 5 0.0000 0.0000 0.0000 0.0000 16.9222 0.0000
# 6 0.0000 0.0000 0.0000 0.0000 0.0000 14.7086
#
#
#
# Elastic Compliance Matrix: (Units=1/GPa)
#
#
# Indices 1 2 3 4 5 6 
#
# 1 0.017072 0.000210 -0.003586 0.000000 0.000000 0.000000
# 2 0.000210 0.011653 -0.004598 0.000000 0.000000 0.000000
# 3 -0.003586 -0.004598 0.011897 0.000000 0.000000 0.000000
# 4 0.000000 0.000000 0.000000 0.036776 0.000000 0.000000
# 5 0.000000 0.000000 0.000000 0.000000 0.059094 0.000000
# 6 0.000000 0.000000 0.000000 0.000000 0.000000 0.067987
#
#
# Mechanical properties :
#
#
# Convention : Reuss Voigt Hill
#
# Bulk Modulus (GPa) = 40.52735 46.04043 43.28389
# Shear Modulus (GPa) = 21.86725 25.15490 23.51107
#
# Velocity S-wave (km/s) = 3.50236 3.75642 3.63161
# Velocity P-wave (km/s) = 6.25214 6.68138 6.47032
#
# Compressibility (1/GPa) = 0.02467470
#
# Stress axis : x y z
#
# Youngs Moduli (GPa) = 58.57479 85.81669 84.05175
#
# Poissons Ratio (x) = -0.01801 0.30140
# Poissons Ratio (y) = -0.01230 0.38645
# Poissons Ratio (z) = 0.21005 0.39457
#
# Static dielectric constant tensor:
#      x y z
#    x 2.965350 0.000000 0.000000 
#    y 0.000000 3.698910 0.000000 
#    z 0.000000 0.000000 3.379790 
# 
# 
# High freq. dielectric constant tensor:
#      x y z
#    x 1.645030 0.000000 0.000000 
#    y 0.000000 1.703900 0.000000 
#    z 0.000000 0.000000 1.687870 
# 
# From -- ./inp_files/7775.got.cif
#   From: 2010.03.12/outbox.cif.g09.slc.cpg/sg66_4_cif.got.tgz:7775.got - 2010.04.10 21:57:39.
