data_PCOD8275548
_publ_section_title
;
Structure prediction by ZEFSAII (Michael W. Deem and Ramdas Pophale) SiO2 
 PCOD8275548
Probable space group: C C C M
;
_chemical_formula_sum "Si O2"
_cell_formula_units_Z 96
_cell_length_a 12.135587
_cell_length_b 25.521623
_cell_length_c 17.762151
_cell_angle_alpha 90.000000
_cell_angle_beta 90.000000
_cell_angle_gamma 90.000000
_cell_volume 5501.291211
_symmetry_space_group_name_H-M "C C C M"
_symmetry_group_IT_number 66
_symmetry_cell_setting 'orthorhombic'
loop_
_space_group_symop_operation_xyz
x,y,z
-x,-y,z
x,-y,1/2-z
-x,y,1/2-z
-x,-y,-z
x,y,-z
-x,y,1/2+z
x,-y,1/2+z
1/2+x,1/2+y,z
1/2-x,1/2-y,z
1/2+x,1/2-y,1/2-z
1/2-x,1/2+y,1/2-z
1/2-x,1/2-y,-z
1/2+x,1/2+y,-z
1/2-x,1/2+y,1/2+z
1/2+x,1/2-y,1/2+z
loop_
_atom_site_type_symbol
_atom_site_label
_atom_site_fract_x
_atom_site_fract_y
_atom_site_fract_z
Si Si1 0.474722 0.702380 0.832250
Si Si2 0.884209 0.617198 0.916346
Si Si3 0.742706 0.349628 0.798895
Si Si4 0.085075 0.692667 0.911789
Si Si5 0.123756 0.440067 0.230982
Si Si6 0.782581 0.192394 0.639681
O O1 0.500000 0.727054 0.750000
O O2 0.386135 0.654803 0.823294
O O3 0.433373 0.747894 0.886644
O O4 0.587734 0.679760 0.866383
O O5 0.867021 0.569146 0.858828
O O6 0.773882 0.651784 0.916765
O O7 0.982919 0.655458 0.890654
O O8 0.904116 0.594192 0.000000
O O9 0.808389 0.328301 0.869700
O O10 0.784028 0.408099 0.778132
O O11 0.763449 0.314284 0.724879
O O12 0.109471 0.691871 0.000000
O O13 0.145751 0.500000 0.250000
O O14 0.000000 0.422098 0.250000
O O15 0.750000 0.250000 0.611892
#
# Coordination Sequence:
#
# PCOD8275548 Si02
#       6
#    16  16  16  16  16  16
#     4  10  20  32  50  75 107 147 184 210 253 312
#     4  10  21  34  53  80 113 139 170 223 274 316
#     4  10  20  33  51  74 106 137 179 226 265 320
#     4  11  21  32  48  76 112 145 171 209 267 326
#     4  10  20  37  60  80  99 137 186 231 279 323
#     4  10  18  31  52  75 104 146 183 214 249 313
#
# _framework density 17.450448000000002
#
# number of rings (size 3 to 8) (size 9 to 14) (size 15 to 20)
#    0.000    1.833    3.333    2.500    2.333    2.333 
#    0.000    2.500    0.000   12.500    0.000    1.167 
#    0.000    0.000    0.000    0.000    0.000    0.000 
#
# Total GULP energy -595030.638333 kJ/mol
# GULP energy per Si atom -12396.471632 kJ/mol
# Density = 1.741073 g / cm^3
# Si number density = 17.450448 Si / 1000 Ang^3
#
#
#
# Elastic Constant Matrix: (Units=GPa)
#
#
# Indices 1 2 3 4 5 6 
#
# 1 117.4069 42.9921 36.2201 0.0000 0.0000 0.0000
# 2 42.9921 98.1706 44.4314 0.0000 0.0000 0.0000
# 3 36.2201 44.4314 86.9097 0.0000 0.0000 0.0000
# 4 0.0000 0.0000 0.0000 17.7714 0.0000 0.0000
# 5 0.0000 0.0000 0.0000 0.0000 19.4564 0.0000
# 6 0.0000 0.0000 0.0000 0.0000 0.0000 27.6728
#
#
#
# Elastic Compliance Matrix: (Units=1/GPa)
#
#
# Indices 1 2 3 4 5 6 
#
# 1 0.010596 -0.003437 -0.002659 0.000000 0.000000 0.000000
# 2 -0.003437 0.014368 -0.005913 0.000000 0.000000 0.000000
# 3 -0.002659 -0.005913 0.015637 0.000000 0.000000 0.000000
# 4 0.000000 0.000000 0.000000 0.056270 0.000000 0.000000
# 5 0.000000 0.000000 0.000000 0.000000 0.051397 0.000000
# 6 0.000000 0.000000 0.000000 0.000000 0.000000 0.036137
#
#
# Mechanical properties :
#
#
# Convention : Reuss Voigt Hill
#
# Bulk Modulus (GPa) = 60.30103 61.08605 60.69354
# Shear Modulus (GPa) = 23.36993 24.90303 24.13648
#
# Velocity S-wave (km/s) = 3.66350 3.78176 3.72310
# Velocity P-wave (km/s) = 7.24745 7.35869 7.30328
#
# Compressibility (1/GPa) = 0.01658347
#
# Stress axis : x y z
#
# Youngs Moduli (GPa) = 94.37308 69.60072 63.95020
#
# Poissons Ratio (x) = 0.23922 0.17004
# Poissons Ratio (y) = 0.32436 0.37813
# Poissons Ratio (z) = 0.25093 0.41154
#
# Static dielectric constant tensor:
#      x y z
#    x 3.492810 0.000000 0.000000 
#    y 0.000000 2.924110 0.000000 
#    z 0.000000 0.000000 3.194120 
# 
# 
# High freq. dielectric constant tensor:
#      x y z
#    x 1.681260 0.000000 0.000000 
#    y 0.000000 1.634680 0.000000 
#    z 0.000000 0.000000 1.676490 
# 
# From -- ./inp_files/38824.got.cif
#   From: 2010.03.12/outbox.cif.g09.slc.cpg/sg66_20_cif.got.tgz:38824.got - 2010.04.10 21:57:39.
