data_PCOD8275430
_publ_section_title
;
Structure prediction by ZEFSAII (Michael W. Deem and Ramdas Pophale) SiO2 
 PCOD8275430
Probable space group: C C C M
;
_chemical_formula_sum "Si O2"
_cell_formula_units_Z 68
_cell_length_a 16.845988
_cell_length_b 21.900577
_cell_length_c 9.652233
_cell_angle_alpha 90.000000
_cell_angle_beta 90.000000
_cell_angle_gamma 90.000000
_cell_volume 3561.064509
_symmetry_space_group_name_H-M "C C C M"
_symmetry_group_IT_number 66
_symmetry_cell_setting 'orthorhombic'
loop_
_space_group_symop_operation_xyz
x,y,z
-x,-y,z
x,-y,1/2-z
-x,y,1/2-z
-x,-y,-z
x,y,-z
-x,y,1/2+z
x,-y,1/2+z
1/2+x,1/2+y,z
1/2-x,1/2-y,z
1/2+x,1/2-y,1/2-z
1/2-x,1/2+y,1/2-z
1/2-x,1/2-y,-z
1/2+x,1/2+y,-z
1/2-x,1/2+y,1/2+z
1/2+x,1/2-y,1/2+z
loop_
_atom_site_type_symbol
_atom_site_label
_atom_site_fract_x
_atom_site_fract_y
_atom_site_fract_z
Si Si1 0.325349 0.331293 0.842957
Si Si2 0.297620 0.441264 0.664424
Si Si3 0.500000 0.000000 0.750000
Si Si4 0.859220 0.698920 0.845625
Si Si5 0.620200 0.094775 0.847201
O O1 0.345028 0.383574 0.730146
O O2 0.233202 0.315562 0.837147
O O3 0.373685 0.269647 0.802340
O O4 0.347358 0.352286 0.000000
O O5 0.327556 0.500000 0.750000
O O6 0.315843 0.447262 0.500000
O O7 0.204384 0.433924 0.696125
O O8 0.445193 0.958165 0.846366
O O9 0.906100 0.651474 0.748885
O O10 0.891567 0.688150 0.000000
O O11 0.627174 0.122252 0.000000
#
# Coordination Sequence:
#
# PCOD8275430 Si02
#       5
#    16  16   4  16  16
#     4   8  14  26  43  62  81 105 134 168 215 268
#     4  10  18  28  41  61  85 113 143 179 219 261
#     4  12  22  36  44  58  86 120 158 194 230 254
#     4   8  15  28  45  61  79 103 134 175 221 265
#     4  10  21  32  44  59  78 109 151 191 225 258
#
# _framework density 19.095413000000001
#
# number of rings (size 3 to 8) (size 9 to 14) (size 15 to 20)
#    0.000    2.824    1.176    2.471    0.000    3.765 
#    0.000    4.706    0.000    0.000    0.000    0.000 
#    0.000    0.000    0.000    1.059    0.000   16.000 
#
# Total GULP energy -421348.466699 kJ/mol
# GULP energy per Si atom -12392.601962 kJ/mol
# Density = 1.905195 g / cm^3
# Si number density = 19.095413 Si / 1000 Ang^3
#
#
#
# Elastic Constant Matrix: (Units=GPa)
#
#
# Indices 1 2 3 4 5 6 
#
# 1 12.8724 15.7327 6.6121 0.0000 0.0000 0.0000
# 2 15.7327 166.2393 96.3790 0.0000 0.0000 0.0000
# 3 6.6121 96.3790 126.8633 0.0000 0.0000 0.0000
# 4 0.0000 0.0000 0.0000 38.6536 0.0000 0.0000
# 5 0.0000 0.0000 0.0000 0.0000 8.3659 0.0000
# 6 0.0000 0.0000 0.0000 0.0000 0.0000 20.2379
#
#
#
# Elastic Compliance Matrix: (Units=1/GPa)
#
#
# Indices 1 2 3 4 5 6 
#
# 1 0.088536 -0.010193 0.003129 0.000000 0.000000 0.000000
# 2 -0.010193 0.011924 -0.008527 0.000000 0.000000 0.000000
# 3 0.003129 -0.008527 0.014198 0.000000 0.000000 0.000000
# 4 0.000000 0.000000 0.000000 0.025871 0.000000 0.000000
# 5 0.000000 0.000000 0.000000 0.000000 0.119533 0.000000
# 6 0.000000 0.000000 0.000000 0.000000 0.000000 0.049412
#
#
# Mechanical properties :
#
#
# Convention : Reuss Voigt Hill
#
# Bulk Modulus (GPa) = 11.97958 60.38028 36.17993
# Shear Modulus (GPa) = 13.56917 25.93488 19.75203
#
# Velocity S-wave (km/s) = 2.66860 3.68934 3.21968
# Velocity P-wave (km/s) = 3.97270 7.05955 5.72798
#
# Compressibility (1/GPa) = 0.08347542
#
# Stress axis : x y z
#
# Youngs Moduli (GPa) = 11.29481 83.86445 70.43353
#
# Poissons Ratio (x) = 0.85485 -0.22042
# Poissons Ratio (y) = 0.11513 0.60062
# Poissons Ratio (z) = -0.03535 0.71515
#
# Static dielectric constant tensor:
#      x y z
#    x 2.830470 0.000000 0.000000 
#    y 0.000000 3.896870 0.000000 
#    z 0.000000 0.000000 3.542760 
# 
# 
# High freq. dielectric constant tensor:
#      x y z
#    x 1.665120 0.000000 0.000000 
#    y 0.000000 1.753950 0.000000 
#    z 0.000000 0.000000 1.744590 
# 
# From -- ./inp_files/6264.got.cif
#   From: 2010.03.12/outbox.cif.g09.slc.cpg/sg66_4_cif.got.tgz:6264.got - 2010.04.10 21:57:39.
