data_PCOD8275274
_publ_section_title
;
Structure prediction by ZEFSAII (Michael W. Deem and Ramdas Pophale) SiO2 
 PCOD8275274
Probable space group: C C C M
;
_chemical_formula_sum "Si O2"
_cell_formula_units_Z 80
_cell_length_a 29.178501
_cell_length_b 23.054052
_cell_length_c 8.831220
_cell_angle_alpha 90.000000
_cell_angle_beta 90.000000
_cell_angle_gamma 90.000000
_cell_volume 5940.608731
_symmetry_space_group_name_H-M "C C C M"
_symmetry_group_IT_number 66
_symmetry_cell_setting 'orthorhombic'
loop_
_space_group_symop_operation_xyz
x,y,z
-x,-y,z
x,-y,1/2-z
-x,y,1/2-z
-x,-y,-z
x,y,-z
-x,y,1/2+z
x,-y,1/2+z
1/2+x,1/2+y,z
1/2-x,1/2-y,z
1/2+x,1/2-y,1/2-z
1/2-x,1/2+y,1/2-z
1/2-x,1/2-y,-z
1/2+x,1/2+y,-z
1/2-x,1/2+y,1/2+z
1/2+x,1/2-y,1/2+z
loop_
_atom_site_type_symbol
_atom_site_label
_atom_site_fract_x
_atom_site_fract_y
_atom_site_fract_z
Si Si1 0.952686 0.438748 0.321642
Si Si2 0.181962 0.266348 0.321160
Si Si3 0.635442 0.866246 0.822248
Si Si4 0.721460 0.060424 0.325990
Si Si5 0.730840 0.672936 0.176434
O O1 0.938394 0.500000 0.250000
O O2 0.958695 0.447179 0.500000
O O3 0.913907 0.392130 0.282082
O O4 0.000000 0.415858 0.250000
O O5 0.179505 0.260491 0.500000
O O6 0.138799 0.303744 0.260976
O O7 0.226937 0.299770 0.266793
O O8 0.184405 0.201179 0.247373
O O9 0.674826 0.910242 0.761653
O O10 0.642318 0.855750 0.000000
O O11 0.713267 0.046837 0.500000
O O12 0.765153 0.103428 0.300857
O O13 0.733229 0.000000 0.250000
O O14 0.734731 0.688904 0.000000
#
# Coordination Sequence:
#
# PCOD8275274 Si02
#       5
#    16  16  16  16  16
#     4  10  19  30  43  56  73  96 123 154 191 230
#     4  10  17  24  38  57  70  86 116 153 184 211
#     4   9  18  30  40  52  71  96 121 149 189 230
#     4   9  17  26  37  52  70  94 122 150 181 214
#     4   9  16  27  38  49  71  98 118 141 179 223
#
# _framework density 13.466634000000001
#
# number of rings (size 3 to 8) (size 9 to 14) (size 15 to 20)
#    0.000    2.600    0.000    6.600    0.000    5.600 
#    0.000    0.000    0.000    0.000    0.000    0.000 
#    0.000    0.000    0.000    0.000    0.000    1.000 
#
# Total GULP energy -495650.798202 kJ/mol
# GULP energy per Si atom -12391.269955 kJ/mol
# Density = 1.343598 g / cm^3
# Si number density = 13.466634 Si / 1000 Ang^3
#
#
#
# Elastic Constant Matrix: (Units=GPa)
#
#
# Indices 1 2 3 4 5 6 
#
# 1 60.3388 50.7800 34.1499 0.0000 0.0000 0.0000
# 2 50.7800 93.2931 45.3011 0.0000 0.0000 0.0000
# 3 34.1499 45.3011 67.5255 0.0000 0.0000 0.0000
# 4 0.0000 0.0000 0.0000 23.1952 0.0000 0.0000
# 5 0.0000 0.0000 0.0000 0.0000 24.9358 0.0000
# 6 0.0000 0.0000 0.0000 0.0000 0.0000 23.3133
#
#
#
# Elastic Compliance Matrix: (Units=1/GPa)
#
#
# Indices 1 2 3 4 5 6 
#
# 1 0.032552 -0.014423 -0.006787 0.000000 0.000000 0.000000
# 2 -0.014423 0.022288 -0.007658 0.000000 0.000000 0.000000
# 3 -0.006787 -0.007658 0.023379 0.000000 0.000000 0.000000
# 4 0.000000 0.000000 0.000000 0.043112 0.000000 0.000000
# 5 0.000000 0.000000 0.000000 0.000000 0.040103 0.000000
# 6 0.000000 0.000000 0.000000 0.000000 0.000000 0.042894
#
#
# Mechanical properties :
#
#
# Convention : Reuss Voigt Hill
#
# Bulk Modulus (GPa) = 48.81964 53.51325 51.16645
# Shear Modulus (GPa) = 18.59477 20.35062 19.47269
#
# Velocity S-wave (km/s) = 3.71995 3.89162 3.80675
# Velocity P-wave (km/s) = 7.40146 7.74705 7.57623
#
# Compressibility (1/GPa) = 0.02048356
#
# Stress axis : x y z
#
# Youngs Moduli (GPa) = 30.71993 44.86706 42.77273
#
# Poissons Ratio (x) = 0.64711 0.29029
# Poissons Ratio (y) = 0.44307 0.32757
# Poissons Ratio (z) = 0.20849 0.34361
#
# Static dielectric constant tensor:
#      x y z
#    x 2.584420 0.000000 0.000000 
#    y 0.000000 3.058570 0.000000 
#    z 0.000000 0.000000 2.726240 
# 
# 
# High freq. dielectric constant tensor:
#      x y z
#    x 1.464560 0.000000 0.000000 
#    y 0.000000 1.504380 0.000000 
#    z 0.000000 0.000000 1.525700 
# 
# From -- ./inp_files/9485.got.cif
#   From: 2010.03.12/outbox.cif.g09.slc.cpg/sg66_5_cif.got.tgz:9485.got - 2010.04.10 21:57:39.
