data_PCOD8275906
_publ_section_title
;
Structure prediction by ZEFSAII (Michael W. Deem and Ramdas Pophale) SiO2 
 PCOD8275906
Probable space group: C C C M
;
_chemical_formula_sum "Si O2"
_cell_formula_units_Z 80
_cell_length_a 20.760742
_cell_length_b 12.113952
_cell_length_c 17.004500
_cell_angle_alpha 90.000000
_cell_angle_beta 90.000000
_cell_angle_gamma 90.000000
_cell_volume 4276.540471
_symmetry_space_group_name_H-M "C C C M"
_symmetry_group_IT_number 66
_symmetry_cell_setting 'orthorhombic'
loop_
_space_group_symop_operation_xyz
x,y,z
-x,-y,z
x,-y,1/2-z
-x,y,1/2-z
-x,-y,-z
x,y,-z
-x,y,1/2+z
x,-y,1/2+z
1/2+x,1/2+y,z
1/2-x,1/2-y,z
1/2+x,1/2-y,1/2-z
1/2-x,1/2+y,1/2-z
1/2-x,1/2-y,-z
1/2+x,1/2+y,-z
1/2-x,1/2+y,1/2+z
1/2+x,1/2-y,1/2+z
loop_
_atom_site_type_symbol
_atom_site_label
_atom_site_fract_x
_atom_site_fract_y
_atom_site_fract_z
Si Si1 0.909355 0.055967 0.827804
Si Si2 0.484943 0.254207 0.410625
Si Si3 0.178089 0.779092 0.253762
Si Si4 0.435822 0.877372 0.216004
Si Si5 0.876531 0.159709 0.411633
O O1 0.843838 0.117818 0.799697
O O2 0.960113 0.141773 0.861283
O O3 0.939673 0.000000 0.750000
O O4 0.895876 0.967134 0.895748
O O5 0.461986 0.264346 0.500000
O O6 0.451445 0.140840 0.377190
O O7 0.562484 0.257268 0.404259
O O8 0.250000 0.750000 0.228192
O O9 0.131472 0.675837 0.239108
O O10 0.176387 0.806001 0.346995
O O11 0.500000 0.815438 0.250000
O O12 0.434388 0.000000 0.250000
O O13 0.847769 0.167409 0.500000
#
# Coordination Sequence:
#
# PCOD8275906 Si02
#       5
#    16  16  16  16  16
#     4   9  19  31  53  81 111 142 179 218 275 336
#     4  10  19  33  55  86 116 141 175 227 283 330
#     4  10  21  36  55  78 108 146 188 229 272 328
#     4  10  20  37  58  79 106 147 193 235 272 320
#     4  10  19  32  52  82 113 139 171 218 281 338
#
# _framework density 18.706710000000001
#
# number of rings (size 3 to 8) (size 9 to 14) (size 15 to 20)
#    0.000    2.200    2.000    1.200    0.000    6.800 
#    0.000    3.000    0.000   19.800    0.000    0.000 
#    0.000    0.000    0.000    0.000    0.000    0.000 
#
# Total GULP energy -495566.625963 kJ/mol
# GULP energy per Si atom -12389.165649 kJ/mol
# Density = 1.866413 g / cm^3
# Si number density = 18.706710 Si / 1000 Ang^3
#
#
#
# Elastic Constant Matrix: (Units=GPa)
#
#
# Indices 1 2 3 4 5 6 
#
# 1 104.5435 26.1421 25.5459 0.0000 0.0000 0.0000
# 2 26.1421 90.3545 29.8725 0.0000 0.0000 0.0000
# 3 25.5459 29.8725 98.2942 0.0000 0.0000 0.0000
# 4 0.0000 0.0000 0.0000 24.3716 0.0000 0.0000
# 5 0.0000 0.0000 0.0000 0.0000 18.3984 0.0000
# 6 0.0000 0.0000 0.0000 0.0000 0.0000 18.0413
#
#
#
# Elastic Compliance Matrix: (Units=1/GPa)
#
#
# Indices 1 2 3 4 5 6 
#
# 1 0.010667 -0.002412 -0.002039 0.000000 0.000000 0.000000
# 2 -0.002412 0.012849 -0.003278 0.000000 0.000000 0.000000
# 3 -0.002039 -0.003278 0.011700 0.000000 0.000000 0.000000
# 4 0.000000 0.000000 0.000000 0.041031 0.000000 0.000000
# 5 0.000000 0.000000 0.000000 0.000000 0.054353 0.000000
# 6 0.000000 0.000000 0.000000 0.000000 0.000000 0.055428
#
#
# Mechanical properties :
#
#
# Convention : Reuss Voigt Hill
#
# Bulk Modulus (GPa) = 50.61470 50.70146 50.65808
# Shear Modulus (GPa) = 24.03008 26.27103 25.15055
#
# Velocity S-wave (km/s) = 3.58798 3.75155 3.67068
# Velocity P-wave (km/s) = 6.65436 6.77700 6.71596
#
# Compressibility (1/GPa) = 0.01975711
#
# Stress axis : x y z
#
# Youngs Moduli (GPa) = 93.74849 77.82597 85.47184
#
# Poissons Ratio (x) = 0.18772 0.17429
# Poissons Ratio (y) = 0.22612 0.28019
# Poissons Ratio (z) = 0.19117 0.25512
#
# Static dielectric constant tensor:
#      x y z
#    x 3.140810 0.000000 0.000000 
#    y 0.000000 3.411120 0.000000 
#    z 0.000000 0.000000 3.662300 
# 
# 
# High freq. dielectric constant tensor:
#      x y z
#    x 1.698620 0.000000 0.000000 
#    y 0.000000 1.718100 0.000000 
#    z 0.000000 0.000000 1.732040 
# 
# From -- ./inp_files/30998.got.cif
#   From: 2010.03.12/outbox.cif.g09.slc.cpg/sg66_16_cif.got.tgz:30998.got - 2010.04.10 21:57:39.
