data_PCOD8275724
_publ_section_title
;
Structure prediction by ZEFSAII (Michael W. Deem and Ramdas Pophale) SiO2 
 PCOD8275724
Probable space group: C C C M
;
_chemical_formula_sum "Si O2"
_cell_formula_units_Z 56
_cell_length_a 20.178758
_cell_length_b 18.494937
_cell_length_c 9.543844
_cell_angle_alpha 90.000000
_cell_angle_beta 90.000000
_cell_angle_gamma 90.000000
_cell_volume 3561.808944
_symmetry_space_group_name_H-M "C C C M"
_symmetry_group_IT_number 66
_symmetry_cell_setting 'orthorhombic'
loop_
_space_group_symop_operation_xyz
x,y,z
-x,-y,z
x,-y,1/2-z
-x,y,1/2-z
-x,-y,-z
x,y,-z
-x,y,1/2+z
x,-y,1/2+z
1/2+x,1/2+y,z
1/2-x,1/2-y,z
1/2+x,1/2-y,1/2-z
1/2-x,1/2+y,1/2-z
1/2-x,1/2-y,-z
1/2+x,1/2+y,-z
1/2-x,1/2+y,1/2+z
1/2+x,1/2-y,1/2+z
loop_
_atom_site_type_symbol
_atom_site_label
_atom_site_fract_x
_atom_site_fract_y
_atom_site_fract_z
Si Si1 0.866624 0.434118 0.342380
Si Si2 0.500000 0.123628 0.750000
Si Si3 0.442355 0.262009 0.656753
Si Si4 0.823282 0.275828 0.662848
O O1 0.839394 0.500000 0.250000
O O2 0.850205 0.455905 0.500000
O O3 0.946098 0.425825 0.327350
O O4 0.828782 0.360628 0.300833
O O5 0.462007 0.176914 0.640709
O O6 0.500000 0.301487 0.750000
O O7 0.436618 0.295394 0.500000
O O8 0.373173 0.270119 0.740100
O O9 0.842024 0.262513 0.500000
O O10 0.750000 0.250000 0.698564
#
# Coordination Sequence:
#
# PCOD8275724 Si02
#       4
#    16   8  16  16
#     4  10  19  29  41  60  85 114 147 177 212 252
#     4   8  17  26  42  56  84 118 147 172 199 246
#     4   9  16  26  42  62  85 112 144 181 212 249
#     4   9  18  32  46  59  82 117 151 183 219 257
#
# _framework density 15.722348
#
# number of rings (size 3 to 8) (size 9 to 14) (size 15 to 20)
#    0.857    2.000    0.000    2.143    0.000    7.429 
#    0.000    0.000    0.000    0.000    0.000    0.000 
#    0.000    1.143    0.000   13.143    0.000    4.000 
#
# Total GULP energy -346894.682034 kJ/mol
# GULP energy per Si atom -12389.095787 kJ/mol
# Density = 1.568656 g / cm^3
# Si number density = 15.722348 Si / 1000 Ang^3
#
#
#
# Elastic Constant Matrix: (Units=GPa)
#
#
# Indices 1 2 3 4 5 6 
#
# 1 113.7489 31.1547 53.4041 0.0000 0.0000 0.0000
# 2 31.1547 35.4942 14.9618 0.0000 0.0000 0.0000
# 3 53.4041 14.9618 93.8859 0.0000 0.0000 0.0000
# 4 0.0000 0.0000 0.0000 13.6377 0.0000 0.0000
# 5 0.0000 0.0000 0.0000 0.0000 22.5208 0.0000
# 6 0.0000 0.0000 0.0000 0.0000 0.0000 11.9572
#
#
#
# Elastic Compliance Matrix: (Units=1/GPa)
#
#
# Indices 1 2 3 4 5 6 
#
# 1 0.014731 -0.010075 -0.006774 0.000000 0.000000 0.000000
# 2 -0.010075 0.037093 -0.000181 0.000000 0.000000 0.000000
# 3 -0.006774 -0.000181 0.014533 0.000000 0.000000 0.000000
# 4 0.000000 0.000000 0.000000 0.073326 0.000000 0.000000
# 5 0.000000 0.000000 0.000000 0.000000 0.044403 0.000000
# 6 0.000000 0.000000 0.000000 0.000000 0.000000 0.083631
#
#
# Mechanical properties :
#
#
# Convention : Reuss Voigt Hill
#
# Bulk Modulus (GPa) = 30.96084 49.13002 40.04543
# Shear Modulus (GPa) = 15.99790 19.19704 17.59747
#
# Velocity S-wave (km/s) = 3.19333 3.49808 3.34917
# Velocity P-wave (km/s) = 5.77334 6.90158 6.36252
#
# Compressibility (1/GPa) = 0.03229886
#
# Stress axis : x y z
#
# Youngs Moduli (GPa) = 67.88501 26.95960 68.80898
#
# Poissons Ratio (x) = 0.27161 0.46609
# Poissons Ratio (y) = 0.68391 0.01242
# Poissons Ratio (z) = 0.45983 0.00487
#
# Static dielectric constant tensor:
#      x y z
#    x 2.889180 0.000000 0.000000 
#    y 0.000000 2.523830 0.000000 
#    z 0.000000 0.000000 2.959580 
# 
# 
# High freq. dielectric constant tensor:
#      x y z
#    x 1.591970 0.000000 0.000000 
#    y 0.000000 1.542990 0.000000 
#    z 0.000000 0.000000 1.608310 
# 
# From -- ./inp_files/6129.got.cif
#   From: 2010.03.12/outbox.cif.g09.slc.cpg/sg66_4_cif.got.tgz:6129.got - 2010.04.10 21:57:39.
