data_PCOD8275293
_publ_section_title
;
Structure prediction by ZEFSAII (Michael W. Deem and Ramdas Pophale) SiO2 
 PCOD8275293
Probable space group: C C C M
;
_chemical_formula_sum "Si O2"
_cell_formula_units_Z 80
_cell_length_a 36.749286
_cell_length_b 18.334298
_cell_length_c 8.654474
_cell_angle_alpha 90.000000
_cell_angle_beta 90.000000
_cell_angle_gamma 90.000000
_cell_volume 5831.145379
_symmetry_space_group_name_H-M "C C C M"
_symmetry_group_IT_number 66
_symmetry_cell_setting 'orthorhombic'
loop_
_space_group_symop_operation_xyz
x,y,z
-x,-y,z
x,-y,1/2-z
-x,y,1/2-z
-x,-y,-z
x,y,-z
-x,y,1/2+z
x,-y,1/2+z
1/2+x,1/2+y,z
1/2-x,1/2-y,z
1/2+x,1/2-y,1/2-z
1/2-x,1/2+y,1/2-z
1/2-x,1/2-y,-z
1/2+x,1/2+y,-z
1/2-x,1/2+y,1/2+z
1/2+x,1/2-y,1/2+z
loop_
_atom_site_type_symbol
_atom_site_label
_atom_site_fract_x
_atom_site_fract_y
_atom_site_fract_z
Si Si1 0.323408 0.659701 0.179962
Si Si2 0.750966 0.420534 0.181181
Si Si3 0.390168 0.579717 0.318340
Si Si4 0.788106 0.290753 0.326417
Si Si5 0.536267 0.418864 0.183278
O O1 0.288678 0.610535 0.223879
O O2 0.356713 0.632009 0.281755
O O3 0.316310 0.743949 0.224285
O O4 0.332981 0.653869 0.000000
O O5 0.755163 0.500000 0.250000
O O6 0.782769 0.370336 0.252382
O O7 0.756803 0.422897 0.000000
O O8 0.382147 0.500000 0.250000
O O9 0.395719 0.572043 0.500000
O O10 0.426296 0.617182 0.243798
O O11 0.803308 0.298916 0.500000
O O12 0.750000 0.250000 0.325895
O O13 0.536790 0.500000 0.250000
O O14 0.500000 0.378677 0.250000
O O15 0.534975 0.418878 0.000000
#
# Coordination Sequence:
#
# PCOD8275293 Si02
#       5
#    16  16  16  16  16
#     4  10  19  30  42  57  77 100 126 158 196 233
#     4  10  19  29  42  58  76  98 126 160 195 231
#     4  11  20  29  40  56  76  99 128 161 196 230
#     4   9  17  29  43  57  74  97 124 154 190 232
#     4  10  17  27  40  54  72  95 123 155 190 226
#
# _framework density 13.719431999999999
#
# number of rings (size 3 to 8) (size 9 to 14) (size 15 to 20)
#    0.000    2.000    0.000    7.800    0.000    6.400 
#    0.000    0.000    0.000    0.000    0.000    0.000 
#    0.000    0.000    0.000    0.000    0.000    1.000 
#
# Total GULP energy -495940.843789 kJ/mol
# GULP energy per Si atom -12398.521095 kJ/mol
# Density = 1.368821 g / cm^3
# Si number density = 13.719432 Si / 1000 Ang^3
#
#
#
# Elastic Constant Matrix: (Units=GPa)
#
#
# Indices 1 2 3 4 5 6 
#
# 1 68.6085 34.1792 35.6887 0.0000 0.0000 0.0000
# 2 34.1792 75.6782 30.0872 0.0000 0.0000 0.0000
# 3 35.6887 30.0872 101.4779 0.0000 0.0000 0.0000
# 4 0.0000 0.0000 0.0000 21.8782 0.0000 0.0000
# 5 0.0000 0.0000 0.0000 0.0000 23.6299 0.0000
# 6 0.0000 0.0000 0.0000 0.0000 0.0000 9.8704
#
#
#
# Elastic Compliance Matrix: (Units=1/GPa)
#
#
# Indices 1 2 3 4 5 6 
#
# 1 0.020957 -0.007408 -0.005174 0.000000 0.000000 0.000000
# 2 -0.007408 0.017598 -0.002612 0.000000 0.000000 0.000000
# 3 -0.005174 -0.002612 0.012449 0.000000 0.000000 0.000000
# 4 0.000000 0.000000 0.000000 0.045708 0.000000 0.000000
# 5 0.000000 0.000000 0.000000 0.000000 0.042319 0.000000
# 6 0.000000 0.000000 0.000000 0.000000 0.000000 0.101313
#
#
# Mechanical properties :
#
#
# Convention : Reuss Voigt Hill
#
# Bulk Modulus (GPa) = 48.50803 49.51940 49.01372
# Shear Modulus (GPa) = 18.01117 20.79633 19.40375
#
# Velocity S-wave (km/s) = 3.62722 3.89759 3.76483
# Velocity P-wave (km/s) = 7.27848 7.51183 7.39608
#
# Compressibility (1/GPa) = 0.02061514
#
# Stress axis : x y z
#
# Youngs Moduli (GPa) = 47.71566 56.82389 80.33062
#
# Poissons Ratio (x) = 0.42096 0.41564
# Poissons Ratio (y) = 0.35349 0.20985
# Poissons Ratio (z) = 0.24688 0.14844
#
# Static dielectric constant tensor:
#      x y z
#    x 3.068340 0.000000 0.000000 
#    y 0.000000 2.492400 0.000000 
#    z 0.000000 0.000000 2.890590 
# 
# 
# High freq. dielectric constant tensor:
#      x y z
#    x 1.505650 0.000000 0.000000 
#    y 0.000000 1.480420 0.000000 
#    z 0.000000 0.000000 1.548330 
# 
# From -- ./inp_files/11460.got.cif
#   From: 2010.03.12/outbox.cif.g09.slc.cpg/sg66_6_cif.got.tgz:11460.got - 2010.04.10 21:57:39.
