data_PCOD8275846
_publ_section_title
;
Structure prediction by ZEFSAII (Michael W. Deem and Ramdas Pophale) SiO2 
 PCOD8275846
Probable space group: C C C M
;
_chemical_formula_sum "Si O2"
_cell_formula_units_Z 68
_cell_length_a 10.204793
_cell_length_b 17.789486
_cell_length_c 21.271767
_cell_angle_alpha 90.000000
_cell_angle_beta 90.000000
_cell_angle_gamma 90.000000
_cell_volume 3861.634510
_symmetry_space_group_name_H-M "C C C M"
_symmetry_group_IT_number 66
_symmetry_cell_setting 'orthorhombic'
loop_
_space_group_symop_operation_xyz
x,y,z
-x,-y,z
x,-y,1/2-z
-x,y,1/2-z
-x,-y,-z
x,y,-z
-x,y,1/2+z
x,-y,1/2+z
1/2+x,1/2+y,z
1/2-x,1/2-y,z
1/2+x,1/2-y,1/2-z
1/2-x,1/2+y,1/2-z
1/2-x,1/2-y,-z
1/2+x,1/2+y,-z
1/2-x,1/2+y,1/2+z
1/2+x,1/2-y,1/2+z
loop_
_atom_site_type_symbol
_atom_site_label
_atom_site_fract_x
_atom_site_fract_y
_atom_site_fract_z
Si Si1 0.389761 0.445475 0.370371
Si Si2 0.000000 0.000000 0.750000
Si Si3 0.639860 0.194873 0.574504
Si Si4 0.645966 0.974296 0.073939
Si Si5 0.112763 0.216294 0.425863
O O1 0.500000 0.500000 0.402007
O O2 0.406455 0.448699 0.294438
O O3 0.245185 0.471509 0.389818
O O4 0.416980 0.361497 0.392060
O O5 0.649785 0.193726 0.500000
O O6 0.750000 0.250000 0.603248
O O7 0.663618 0.110643 0.599375
O O8 0.497256 0.224090 0.594886
O O9 0.500000 0.000000 0.090011
O O10 0.674351 0.981265 0.000000
O O11 0.112505 0.201309 0.500000
O O12 0.250000 0.250000 0.402960
#
# Coordination Sequence:
#
# PCOD8275846 Si02
#       5
#    16   4  16  16  16
#     4  10  20  37  58  71 109 145 195 230 262 307
#     4   8  24  40  56  72 100 144 208 250 244 288
#     4   9  17  28  43  73 113 135 157 196 252 326
#     4  10  19  31  52  85 114 136 164 212 279 341
#     4  10  19  31  53  85 113 137 166 215 286 346
#
# _framework density 17.609123
#
# number of rings (size 3 to 8) (size 9 to 14) (size 15 to 20)
#    0.706    1.647    0.000    3.529    0.000    7.529 
#    0.000    0.588    5.176    0.000    0.000    0.000 
#    0.000    0.000    0.000    0.000    0.000    0.000 
#
# Total GULP energy -421513.595743 kJ/mol
# GULP energy per Si atom -12397.458698 kJ/mol
# Density = 1.756904 g / cm^3
# Si number density = 17.609123 Si / 1000 Ang^3
#
#
#
# Elastic Constant Matrix: (Units=GPa)
#
#
# Indices 1 2 3 4 5 6 
#
# 1 91.4636 1.5962 21.6708 0.0000 0.0000 0.0000
# 2 1.5962 72.8206 13.6096 0.0000 0.0000 0.0000
# 3 21.6708 13.6096 47.1101 0.0000 0.0000 0.0000
# 4 0.0000 0.0000 0.0000 -9.3269 0.0000 0.0000
# 5 0.0000 0.0000 0.0000 0.0000 7.8830 0.0000
# 6 0.0000 0.0000 0.0000 0.0000 0.0000 36.3081
#
#
#
# Elastic Compliance Matrix: (Units=1/GPa)
#
#
# Indices 1 2 3 4 5 6 
#
# 1 0.012318 0.000834 -0.005907 0.000000 0.000000 0.000000
# 2 0.000834 0.014573 -0.004594 0.000000 0.000000 0.000000
# 3 -0.005907 -0.004594 0.025271 0.000000 0.000000 0.000000
# 4 0.000000 0.000000 0.000000 -0.107217 0.000000 0.000000
# 5 0.000000 0.000000 0.000000 0.000000 0.126856 0.000000
# 6 0.000000 0.000000 0.000000 0.000000 0.000000 0.027542
#
#
# Mechanical properties :
#
#
# Convention : Reuss Voigt Hill
#
# Bulk Modulus (GPa) = 30.46138 31.68307 31.07222
# Shear Modulus (GPa) = 38.57422 18.60736 28.59079
#
# Velocity S-wave (km/s) = 4.68544 3.25420 4.03381
# Velocity P-wave (km/s) = 6.82696 5.67021 6.27529
#
# Compressibility (1/GPa) = 0.03282846
#
# Stress axis : x y z
#
# Youngs Moduli (GPa) = 81.17911 68.62202 39.57053
#
# Poissons Ratio (x) = -0.05723 0.23376
# Poissons Ratio (y) = -0.06771 0.18177
# Poissons Ratio (z) = 0.47956 0.31522
#
# Static dielectric constant tensor:
#      x y z
#    x 3.401970 0.000000 0.000000 
#    y 0.000000 3.391780 0.000000 
#    z 0.000000 0.000000 2.776590 
# 
# 
# High freq. dielectric constant tensor:
#      x y z
#    x 1.696220 0.000000 0.000000 
#    y 0.000000 1.693300 0.000000 
#    z 0.000000 0.000000 1.619350 
# 
# From -- ./inp_files/62326.got.cif
#   From: 2010.03.12/outbox.cif.g09.slc.cpg/sg66_32_cif.got.tgz:62326.got - 2010.04.10 21:57:39.
