data_PCOD8275121
_publ_section_title
;
Structure prediction by ZEFSAII (Michael W. Deem and Ramdas Pophale) SiO2 
 PCOD8275121
Probable space group: C M M M
;
_chemical_formula_sum "Si O2"
_cell_formula_units_Z 88
_cell_length_a 9.057921
_cell_length_b 19.424933
_cell_length_c 28.963913
_cell_angle_alpha 90.000000
_cell_angle_beta 90.000000
_cell_angle_gamma 90.000000
_cell_volume 5096.186258
_symmetry_space_group_name_H-M "C M M M"
_symmetry_group_IT_number 65
_symmetry_cell_setting 'orthorhombic'
loop_
_space_group_symop_operation_xyz
x,y,z
-x,-y,z
x,-y,-z
-x,y,-z
-x,-y,-z
x,y,-z
-x,y,z
x,-y,z
1/2+x,1/2+y,z
1/2-x,1/2-y,z
1/2+x,1/2-y,-z
1/2-x,1/2+y,-z
1/2-x,1/2-y,-z
1/2+x,1/2+y,-z
1/2-x,1/2+y,z
1/2+x,1/2-y,z
loop_
_atom_site_type_symbol
_atom_site_label
_atom_site_fract_x
_atom_site_fract_y
_atom_site_fract_z
Si Si1 0.666507 0.081954 0.589989
Si Si2 0.833252 0.082168 0.500000
Si Si3 0.327573 0.176206 0.949801
Si Si4 0.828239 0.177504 0.762508
Si Si5 0.172478 0.823499 0.864199
Si Si6 0.326277 0.421181 0.681639
O O1 0.500000 0.110308 0.589375
O O2 0.751184 0.111252 0.545293
O O3 0.746774 0.108342 0.636160
O O4 0.669106 0.000000 0.588702
O O5 0.000000 0.110058 0.500000
O O6 0.831132 0.000000 0.500000
O O7 0.500000 0.185139 0.939309
O O8 0.250000 0.250000 0.952148
O O9 0.250446 0.134678 0.906885
O O10 0.304375 0.139402 0.000000
O O11 0.750000 0.250000 0.755129
O O12 0.799712 0.143995 0.813451
O O13 0.770089 0.122808 0.725223
O O14 0.000000 0.192161 0.755756
O O15 0.250000 0.750000 0.862628
O O16 0.000000 0.816578 0.874886
O O17 0.500000 0.414324 0.673684
O O18 0.281079 0.500000 0.691129
#
# Coordination Sequence:
#
# PCOD8275121 Si02
#       6
#    16   8  16  16  16  16
#     4   9  16  25  38  59  86 112 139 174 214 251
#     4   9  15  23  37  57  82 113 144 171 206 253
#     4   9  15  21  30  46  69  97 128 160 197 242
#     4   9  18  30  44  63  85 112 145 178 212 250
#     4   9  15  23  35  51  73 100 131 165 201 242
#     4   9  17  30  46  63  86 115 145 176 211 252
#
# _framework density 17.267814999999999
#
# number of rings (size 3 to 8) (size 9 to 14) (size 15 to 20)
#    0.000    3.000    0.000    3.000    0.000    5.818 
#    0.000    0.000    0.000    0.000    0.000    0.636 
#    0.000    0.727    0.000    9.091    0.000    4.909 
#
# Total GULP energy -545105.819904 kJ/mol
# GULP energy per Si atom -12388.768634 kJ/mol
# Density = 1.722851 g / cm^3
# Si number density = 17.267815 Si / 1000 Ang^3
#
#
#
# Elastic Constant Matrix: (Units=GPa)
#
#
# Indices 1 2 3 4 5 6 
#
# 1 104.5523 18.9840 81.4716 0.0000 0.0000 0.0000
# 2 18.9840 25.1330 38.3373 0.0000 0.0000 0.0000
# 3 81.4716 38.3373 209.3100 0.0000 0.0000 0.0000
# 4 0.0000 0.0000 0.0000 13.0677 0.0000 0.0000
# 5 0.0000 0.0000 0.0000 0.0000 30.7304 0.0000
# 6 0.0000 0.0000 0.0000 0.0000 0.0000 9.7023
#
#
#
# Elastic Compliance Matrix: (Units=1/GPa)
#
#
# Indices 1 2 3 4 5 6 
#
# 1 0.013903 -0.003118 -0.004840 0.000000 0.000000 0.000000
# 2 -0.003118 0.055914 -0.009028 0.000000 0.000000 0.000000
# 3 -0.004840 -0.009028 0.008315 0.000000 0.000000 0.000000
# 4 0.000000 0.000000 0.000000 0.076524 0.000000 0.000000
# 5 0.000000 0.000000 0.000000 0.000000 0.032541 0.000000
# 6 0.000000 0.000000 0.000000 0.000000 0.000000 0.103069
#
#
# Mechanical properties :
#
#
# Convention : Reuss Voigt Hill
#
# Bulk Modulus (GPa) = 22.64498 68.50903 45.57700
# Shear Modulus (GPa) = 14.75114 24.04691 19.39902
#
# Velocity S-wave (km/s) = 2.92594 3.73578 3.35538
# Velocity P-wave (km/s) = 4.95553 7.63994 6.43917
#
# Compressibility (1/GPa) = 0.04415989
#
# Stress axis : x y z
#
# Youngs Moduli (GPa) = 71.92950 17.88468 120.26234
#
# Poissons Ratio (x) = 0.05576 0.58211
# Poissons Ratio (y) = 0.22426 1.08568
# Poissons Ratio (z) = 0.34816 0.16146
#
# Static dielectric constant tensor:
#      x y z
#    x 3.348020 0.000000 0.000000 
#    y 0.000000 2.495910 0.000000 
#    z 0.000000 0.000000 4.359670 
# 
# 
# High freq. dielectric constant tensor:
#      x y z
#    x 1.678810 0.000000 0.000000 
#    y 0.000000 1.569550 0.000000 
#    z 0.000000 0.000000 1.700600 
# 
# From -- ./inp_files/76805.got.cif
#   From: 2010.03.12/outbox.cif.g09.slc.cpg/sg65_39_cif.got.tgz:76805.got - 2010.04.10 20:52:16.
