data_PCOD8275569
_publ_section_title
;
Structure prediction by ZEFSAII (Michael W. Deem and Ramdas Pophale) SiO2 
 PCOD8275569
Probable space group: C C C M
;
_chemical_formula_sum "Si O2"
_cell_formula_units_Z 96
_cell_length_a 27.543294
_cell_length_b 31.460740
_cell_length_c 7.860432
_cell_angle_alpha 90.000000
_cell_angle_beta 90.000000
_cell_angle_gamma 90.000000
_cell_volume 6811.319095
_symmetry_space_group_name_H-M "C C C M"
_symmetry_group_IT_number 66
_symmetry_cell_setting 'orthorhombic'
loop_
_space_group_symop_operation_xyz
x,y,z
-x,-y,z
x,-y,1/2-z
-x,y,1/2-z
-x,-y,-z
x,y,-z
-x,y,1/2+z
x,-y,1/2+z
1/2+x,1/2+y,z
1/2-x,1/2-y,z
1/2+x,1/2-y,1/2-z
1/2-x,1/2+y,1/2-z
1/2-x,1/2-y,-z
1/2+x,1/2+y,-z
1/2-x,1/2+y,1/2+z
1/2+x,1/2-y,1/2+z
loop_
_atom_site_type_symbol
_atom_site_label
_atom_site_fract_x
_atom_site_fract_y
_atom_site_fract_z
Si Si1 0.761185 0.367078 0.695574
Si Si2 0.091315 0.545798 0.700251
Si Si3 0.053278 0.632598 0.806668
Si Si4 0.172778 0.733930 0.000000
Si Si5 0.727061 0.683637 0.500000
Si Si6 0.200039 0.454915 0.198696
Si Si7 0.641366 0.184749 0.312189
O O1 0.742251 0.362412 0.500000
O O2 0.724444 0.344413 0.827186
O O3 0.765294 0.416226 0.756137
O O4 0.814701 0.347859 0.714544
O O5 0.069043 0.500000 0.750000
O O6 0.090350 0.552885 0.500000
O O7 0.058749 0.581985 0.785851
O O8 0.146015 0.548728 0.778361
O O9 0.092150 0.657828 0.694371
O O10 0.000000 0.646877 0.750000
O O11 0.062019 0.645836 0.000000
O O12 0.142887 0.721522 0.169592
O O13 0.223828 0.710259 0.000000
O O14 0.181128 0.784664 0.000000
O O15 0.224248 0.500000 0.250000
O O16 0.193377 0.451858 0.000000
O O17 0.644877 0.205895 0.500000
#
# Coordination Sequence:
#
# PCOD8275569 Si02
#       7
#    16  16  16   8   8  16  16
#     4   9  17  28  43  62  84 108 132 164 206 248
#     4  10  19  32  44  59  76  99 134 174 217 260
#     4  12  23  34  47  62  78 102 136 173 215 264
#     4   9  18  32  44  68  82 102 133 158 206 262
#     4   9  18  28  46  64  86 103 130 165 199 256
#     4   9  17  26  39  58  79 104 139 170 203 250
#     4  10  18  32  48  61  82 106 130 165 210 256
#
# _framework density 14.094186000000001
#
# number of rings (size 3 to 8) (size 9 to 14) (size 15 to 20)
#    0.000    2.167    2.500    2.000    1.167    1.667 
#    0.000    5.000    0.000    0.000    0.000    0.000 
#    0.000    0.000    0.000    0.000    0.000    0.000 
#
# Total GULP energy -595089.383605 kJ/mol
# GULP energy per Si atom -12397.695492 kJ/mol
# Density = 1.406211 g / cm^3
# Si number density = 14.094186 Si / 1000 Ang^3
#
#
#
# Elastic Constant Matrix: (Units=GPa)
#
#
# Indices 1 2 3 4 5 6 
#
# 1 27.4955 30.6482 18.2586 0.0000 0.0000 0.0000
# 2 30.6482 77.5127 38.4614 0.0000 0.0000 0.0000
# 3 18.2586 38.4614 87.1399 0.0000 0.0000 0.0000
# 4 0.0000 0.0000 0.0000 19.7526 0.0000 0.0000
# 5 0.0000 0.0000 0.0000 0.0000 12.2771 0.0000
# 6 0.0000 0.0000 0.0000 0.0000 0.0000 15.3426
#
#
#
# Elastic Compliance Matrix: (Units=1/GPa)
#
#
# Indices 1 2 3 4 5 6 
#
# 1 0.065614 -0.024484 -0.002942 0.000000 0.000000 0.000000
# 2 -0.024484 0.025655 -0.006193 0.000000 0.000000 0.000000
# 3 -0.002942 -0.006193 0.014826 0.000000 0.000000 0.000000
# 4 0.000000 0.000000 0.000000 0.050626 0.000000 0.000000
# 5 0.000000 0.000000 0.000000 0.000000 0.081452 0.000000
# 6 0.000000 0.000000 0.000000 0.000000 0.000000 0.065178
#
#
# Mechanical properties :
#
#
# Convention : Reuss Voigt Hill
#
# Bulk Modulus (GPa) = 25.73526 40.76495 33.25010
# Shear Modulus (GPa) = 13.03637 16.45980 14.74809
#
# Velocity S-wave (km/s) = 3.04459 3.42108 3.23831
# Velocity P-wave (km/s) = 5.53701 6.67765 6.13391
#
# Compressibility (1/GPa) = 0.03885719
#
# Stress axis : x y z
#
# Youngs Moduli (GPa) = 15.24055 38.97861 67.45018
#
# Poissons Ratio (x) = 0.95435 0.19842
# Poissons Ratio (y) = 0.37315 0.41774
# Poissons Ratio (z) = 0.04483 0.24141
#
# Static dielectric constant tensor:
#      x y z
#    x 2.355680 0.000000 0.000000 
#    y 0.000000 2.507080 0.000000 
#    z 0.000000 0.000000 2.932450 
# 
# 
# High freq. dielectric constant tensor:
#      x y z
#    x 1.470380 0.000000 0.000000 
#    y 0.000000 1.519980 0.000000 
#    z 0.000000 0.000000 1.557540 
# 
# From -- ./inp_files/9321.got.cif
#   From: 2010.03.12/outbox.cif.g09.slc.cpg/sg66_5_cif.got.tgz:9321.got - 2010.04.10 21:57:39.
