data_PCOD8275183
_publ_section_title
;
Structure prediction by ZEFSAII (Michael W. Deem and Ramdas Pophale) SiO2 
 PCOD8275183
Probable space group: C M M M
;
_chemical_formula_sum "Si O2"
_cell_formula_units_Z 80
_cell_length_a 7.900077
_cell_length_b 19.921637
_cell_length_c 27.275892
_cell_angle_alpha 90.000000
_cell_angle_beta 90.000000
_cell_angle_gamma 90.000000
_cell_volume 4292.747153
_symmetry_space_group_name_H-M "C M M M"
_symmetry_group_IT_number 65
_symmetry_cell_setting 'orthorhombic'
loop_
_space_group_symop_operation_xyz
x,y,z
-x,-y,z
x,-y,-z
-x,y,-z
-x,-y,-z
x,y,-z
-x,y,z
x,-y,z
1/2+x,1/2+y,z
1/2-x,1/2-y,z
1/2+x,1/2-y,-z
1/2-x,1/2+y,-z
1/2-x,1/2-y,-z
1/2+x,1/2+y,-z
1/2-x,1/2+y,z
1/2+x,1/2-y,z
loop_
_atom_site_type_symbol
_atom_site_label
_atom_site_fract_x
_atom_site_fract_y
_atom_site_fract_z
Si Si1 0.198083 0.177201 0.708603
Si Si2 0.803844 0.921488 0.376235
Si Si3 0.193872 0.578706 0.000000
Si Si4 0.000000 0.579225 0.554403
Si Si5 0.799816 0.176723 0.182578
Si Si6 0.803285 0.074597 0.896327
O O1 0.250000 0.250000 0.687534
O O2 0.256669 0.118907 0.671780
O O3 0.278067 0.165376 0.762744
O O4 0.000000 0.174581 0.714162
O O5 0.674130 0.898384 0.418797
O O6 0.000000 0.905080 0.391032
O O7 0.783965 0.000000 0.364303
O O8 0.275056 0.607791 0.950065
O O9 0.229490 0.500000 0.000000
O O10 0.000000 0.598493 0.000000
O O11 0.000000 0.500000 0.550291
O O12 0.000000 0.611520 0.500000
O O13 0.750000 0.250000 0.163068
O O14 0.720481 0.121975 0.145337
O O15 0.000000 0.169654 0.183569
O O16 0.000000 0.068368 0.886103
O O17 0.719623 0.000000 0.893220
#
# Coordination Sequence:
#
# PCOD8275183 Si02
#       6
#    16  16   8   8  16  16
#     4   9  18  31  49  73  97 131 167 198 245 299
#     4   9  18  32  51  77 105 133 170 213 252 295
#     4   9  17  29  46  67  92 119 151 193 240 291
#     4   9  18  32  52  78 106 136 169 208 256 302
#     4   9  18  32  48  69  97 125 158 195 238 289
#     4   9  17  30  49  70  91 120 157 196 238 286
#
# _framework density 18.636084
#
# number of rings (size 3 to 8) (size 9 to 14) (size 15 to 20)
#    0.000    3.000    0.000    0.300    1.400    3.200 
#    0.000    6.500    0.000    0.600    0.000    0.000 
#    0.000    0.000    0.000    0.000    0.000    0.000 
#
# Total GULP energy -495696.582737 kJ/mol
# GULP energy per Si atom -12392.414568 kJ/mol
# Density = 1.859367 g / cm^3
# Si number density = 18.636084 Si / 1000 Ang^3
#
#
#
# Elastic Constant Matrix: (Units=GPa)
#
#
# Indices 1 2 3 4 5 6 
#
# 1 39.3955 10.7986 50.6298 0.0000 0.0000 0.0000
# 2 10.7986 67.4248 93.1268 0.0000 0.0000 0.0000
# 3 50.6298 93.1268 146.8739 0.0000 0.0000 0.0000
# 4 0.0000 0.0000 0.0000 19.2475 0.0000 0.0000
# 5 0.0000 0.0000 0.0000 0.0000 15.8894 0.0000
# 6 0.0000 0.0000 0.0000 0.0000 0.0000 20.1685
#
#
#
# Elastic Compliance Matrix: (Units=1/GPa)
#
#
# Indices 1 2 3 4 5 6 
#
# 1 -0.031021 -0.078891 0.060715 0.000000 0.000000 0.000000
# 2 -0.078891 -0.081257 0.078717 0.000000 0.000000 0.000000
# 3 0.060715 0.078717 -0.064032 0.000000 0.000000 0.000000
# 4 0.000000 0.000000 0.000000 0.051955 0.000000 0.000000
# 5 0.000000 0.000000 0.000000 0.000000 0.062935 0.000000
# 6 0.000000 0.000000 0.000000 0.000000 0.000000 0.049582
#
#
# Mechanical properties :
#
#
# Convention : Reuss Voigt Hill
#
# Bulk Modulus (GPa) = -18.10675 62.53385 22.21355
# Shear Modulus (GPa) = -33.04095 17.67034 -7.68530
#
# Velocity S-wave (km/s) = -4.21522 3.08259 -2.03294
# Velocity P-wave (km/s) = 5.78168 6.80426 2.53675
#
# Compressibility (1/GPa) = -0.05522803
#
# Stress axis : x y z
#
# Youngs Moduli (GPa) = -32.23671 -12.30668 -15.61722
#
# Poissons Ratio (x) = -0.97088 0.94820
# Poissons Ratio (y) = -2.54318 1.22933
# Poissons Ratio (z) = 1.95725 0.96874
#
# Static dielectric constant tensor:
#      x y z
#    x 3.310570 0.000000 0.000000 
#    y 0.000000 3.352150 0.000000 
#    z 0.000000 0.000000 3.914740 
# 
# 
# High freq. dielectric constant tensor:
#      x y z
#    x 1.716440 0.000000 0.000000 
#    y 0.000000 1.695240 0.000000 
#    z 0.000000 0.000000 1.723430 
# 
# From -- ./inp_files/67292.got.cif
#   From: 2010.03.12/outbox.cif.g09.slc.cpg/sg65_34_cif.got.tgz:67292.got - 2010.04.10 20:52:16.
