data_PCOD8275224
_publ_section_title
;
Structure prediction by ZEFSAII (Michael W. Deem and Ramdas Pophale) SiO2 
 PCOD8275224
Probable space group: C C C M
;
_chemical_formula_sum "Si O2"
_cell_formula_units_Z 80
_cell_length_a 6.349169
_cell_length_b 29.114261
_cell_length_c 15.792058
_cell_angle_alpha 90.000000
_cell_angle_beta 90.000000
_cell_angle_gamma 90.000000
_cell_volume 2919.183452
_symmetry_space_group_name_H-M "C C C M"
_symmetry_group_IT_number 66
_symmetry_cell_setting 'orthorhombic'
loop_
_space_group_symop_operation_xyz
x,y,z
-x,-y,z
x,-y,1/2-z
-x,y,1/2-z
-x,-y,-z
x,y,-z
-x,y,1/2+z
x,-y,1/2+z
1/2+x,1/2+y,z
1/2-x,1/2-y,z
1/2+x,1/2-y,1/2-z
1/2-x,1/2+y,1/2-z
1/2-x,1/2-y,-z
1/2+x,1/2+y,-z
1/2-x,1/2+y,1/2+z
1/2+x,1/2-y,1/2+z
loop_
_atom_site_type_symbol
_atom_site_label
_atom_site_fract_x
_atom_site_fract_y
_atom_site_fract_z
Si Si1 0.739914 0.053741 0.259813
Si Si2 0.162638 0.618891 0.594815
Si Si3 0.944080 0.801169 0.405949
Si Si4 0.526540 0.209738 0.655170
Si Si5 0.171777 0.900689 0.095342
O O1 0.500000 0.066862 0.250000
O O2 0.791844 0.081371 0.347899
O O3 0.879975 0.068571 0.178374
O O4 0.777635 0.000000 0.250000
O O5 0.234566 0.607048 0.500000
O O6 0.199660 0.674228 0.614710
O O7 0.912675 0.614055 0.605545
O O8 0.998815 0.785680 0.500000
O O9 0.694828 0.794967 0.392488
O O10 0.080660 0.765195 0.347534
O O11 0.985804 0.856498 0.394921
O O12 0.500000 0.192493 0.750000
O O13 0.143813 0.922857 0.000000
#
# Coordination Sequence:
#
# PCOD8275224 Si02
#       5
#    16  16  16  16  16
#     4   9  16  24  34  52  78 106 136 167 200 242
#     4   9  15  23  34  50  73 104 135 162 192 234
#     4   9  16  27  41  59  80 106 141 180 213 247
#     4  10  16  23  38  59  80 103 135 173 210 246
#     4   8  14  24  37  51  72  98 128 167 204 230
#
# _framework density 27.404926
#
# number of rings (size 3 to 8) (size 9 to 14) (size 15 to 20)
#    0.000    3.000    0.000    6.600    0.000    0.800 
#    0.000    4.000    0.000    0.000    0.000   47.600 
#    0.000    0.800    0.000    5.000    0.000   17.600 
#
# Total GULP energy -495532.750980 kJ/mol
# GULP energy per Si atom -12388.318775 kJ/mol
# Density = 2.734255 g / cm^3
# Si number density = 27.404926 Si / 1000 Ang^3
#
#
#
# Elastic Constant Matrix: (Units=GPa)
#
#
# Indices 1 2 3 4 5 6 
#
# 1 73.2171 10.9879 36.2817 0.0000 0.0000 0.0000
# 2 10.9879 189.0708 138.3655 0.0000 0.0000 0.0000
# 3 36.2817 138.3655 249.3852 0.0000 0.0000 0.0000
# 4 0.0000 0.0000 0.0000 42.8122 0.0000 0.0000
# 5 0.0000 0.0000 0.0000 0.0000 4.4114 0.0000
# 6 0.0000 0.0000 0.0000 0.0000 0.0000 -8.0498
#
#
#
# Elastic Compliance Matrix: (Units=1/GPa)
#
#
# Indices 1 2 3 4 5 6 
#
# 1 0.014882 0.001212 -0.002837 0.000000 0.000000 0.000000
# 2 0.001212 0.009003 -0.005171 0.000000 0.000000 0.000000
# 3 -0.002837 -0.005171 0.007292 0.000000 0.000000 0.000000
# 4 0.000000 0.000000 0.000000 0.023358 0.000000 0.000000
# 5 0.000000 0.000000 0.000000 0.000000 0.226685 0.000000
# 6 0.000000 0.000000 0.000000 0.000000 0.000000 -0.124226
#
#
# Mechanical properties :
#
#
# Convention : Reuss Voigt Hill
#
# Bulk Modulus (GPa) = 56.87384 98.10480 77.48932
# Shear Modulus (GPa) = 28.33674 29.57062 28.95368
#
# Velocity S-wave (km/s) = 3.21908 3.28842 3.25393
# Velocity P-wave (km/s) = 5.88344 7.09184 6.51571
#
# Compressibility (1/GPa) = 0.01758277
#
# Stress axis : x y z
#
# Youngs Moduli (GPa) = 67.19443 111.07169 137.13824
#
# Poissons Ratio (x) = -0.13457 0.38910
# Poissons Ratio (y) = -0.08141 0.70921
# Poissons Ratio (z) = 0.19065 0.57440
#
# Static dielectric constant tensor:
#      x y z
#    x 5.416200 0.000000 0.000000 
#    y 0.000000 5.246740 0.000000 
#    z 0.000000 0.000000 5.101550 
# 
# 
# High freq. dielectric constant tensor:
#      x y z
#    x 2.196000 0.000000 0.000000 
#    y 0.000000 2.095160 0.000000 
#    z 0.000000 0.000000 2.095720 
# 
# From -- ./inp_files/26837.got.cif
#   From: 2010.03.12/outbox.cif.g09.slc.cpg/sg66_14_cif.got.tgz:26837.got - 2010.04.10 21:57:39.
