data_PCOD8275814
_publ_section_title
;
Structure prediction by ZEFSAII (Michael W. Deem and Ramdas Pophale) SiO2 
 PCOD8275814
Probable space group: C C C M
;
_chemical_formula_sum "Si O2"
_cell_formula_units_Z 96
_cell_length_a 17.158923
_cell_length_b 21.637355
_cell_length_c 15.078495
_cell_angle_alpha 90.000000
_cell_angle_beta 90.000000
_cell_angle_gamma 90.000000
_cell_volume 5598.248755
_symmetry_space_group_name_H-M "C C C M"
_symmetry_group_IT_number 66
_symmetry_cell_setting 'orthorhombic'
loop_
_space_group_symop_operation_xyz
x,y,z
-x,-y,z
x,-y,1/2-z
-x,y,1/2-z
-x,-y,-z
x,y,-z
-x,y,1/2+z
x,-y,1/2+z
1/2+x,1/2+y,z
1/2-x,1/2-y,z
1/2+x,1/2-y,1/2-z
1/2-x,1/2+y,1/2-z
1/2-x,1/2-y,-z
1/2+x,1/2+y,-z
1/2-x,1/2+y,1/2+z
1/2+x,1/2-y,1/2+z
loop_
_atom_site_type_symbol
_atom_site_label
_atom_site_fract_x
_atom_site_fract_y
_atom_site_fract_z
Si Si1 0.348371 0.040195 0.337554
Si Si2 0.501511 0.883449 0.647981
Si Si3 0.993754 0.248041 0.398011
Si Si4 0.333262 0.082538 0.903730
Si Si5 0.770049 0.650976 0.254961
Si Si6 0.122767 0.231694 0.741555
O O1 0.427556 0.070837 0.374297
O O2 0.285324 0.094423 0.322179
O O3 0.367073 0.000000 0.250000
O O4 0.310604 0.990597 0.405285
O O5 0.500000 0.861506 0.750000
O O6 0.505865 0.821327 0.590597
O O7 0.422538 0.919060 0.627675
O O8 0.988742 0.221324 0.500000
O O9 0.065339 0.220012 0.341378
O O10 0.916848 0.232592 0.339341
O O11 0.279058 0.125291 0.844127
O O12 0.323604 0.111742 0.000000
O O13 0.833698 0.703569 0.273603
O O14 0.682698 0.675084 0.263800
#
# Coordination Sequence:
#
# PCOD8275814 Si02
#       6
#    16  16  16  16  16  16
#     4  10  19  31  49  69 100 143 174 205 246 299
#     4  12  17  31  49  71 106 145 178 204 238 298
#     4  11  20  34  54  77 103 135 177 216 252 303
#     4  11  22  31  47  78 106 135 177 215 249 302
#     4  10  19  35  53  69 103 141 175 207 260 307
#     4  10  20  36  54  74 101 141 176 215 260 305
#
# _framework density 17.148219999999998
#
# number of rings (size 3 to 8) (size 9 to 14) (size 15 to 20)
#    0.000    1.333    8.333    1.000    0.000    2.667 
#    0.000    4.167    0.000    0.000    0.000   21.000 
#    0.000   17.333    0.000    0.000    0.000    0.000 
#
# Total GULP energy -594881.721523 kJ/mol
# GULP energy per Si atom -12393.369198 kJ/mol
# Density = 1.710919 g / cm^3
# Si number density = 17.148220 Si / 1000 Ang^3
#
#
#
# Elastic Constant Matrix: (Units=GPa)
#
#
# Indices 1 2 3 4 5 6 
#
# 1 86.7723 45.7650 23.1114 0.0000 0.0000 0.0000
# 2 45.7650 80.9354 13.0902 0.0000 0.0000 0.0000
# 3 23.1114 13.0902 89.0408 0.0000 0.0000 0.0000
# 4 0.0000 0.0000 0.0000 12.3291 0.0000 0.0000
# 5 0.0000 0.0000 0.0000 0.0000 3.4217 0.0000
# 6 0.0000 0.0000 0.0000 0.0000 0.0000 38.1289
#
#
#
# Elastic Compliance Matrix: (Units=1/GPa)
#
#
# Indices 1 2 3 4 5 6 
#
# 1 0.017225 -0.009236 -0.003113 0.000000 0.000000 0.000000
# 2 -0.009236 0.017609 -0.000191 0.000000 0.000000 0.000000
# 3 -0.003113 -0.000191 0.012067 0.000000 0.000000 0.000000
# 4 0.000000 0.000000 0.000000 0.081109 0.000000 0.000000
# 5 0.000000 0.000000 0.000000 0.000000 0.292252 0.000000
# 6 0.000000 0.000000 0.000000 0.000000 0.000000 0.026227
#
#
# Mechanical properties :
#
#
# Convention : Reuss Voigt Hill
#
# Bulk Modulus (GPa) = 45.83054 46.74240 46.28647
# Shear Modulus (GPa) = 10.44181 22.42805 16.43493
#
# Velocity S-wave (km/s) = 2.47030 3.62040 3.09917
# Velocity P-wave (km/s) = 5.90937 6.69279 6.31324
#
# Compressibility (1/GPa) = 0.02181951
#
# Stress axis : x y z
#
# Youngs Moduli (GPa) = 58.05531 56.78845 82.87089
#
# Poissons Ratio (x) = 0.52452 0.25798
# Poissons Ratio (y) = 0.53622 0.01586
# Poissons Ratio (z) = 0.18073 0.01087
#
# Static dielectric constant tensor:
#      x y z
#    x 3.090590 0.000000 0.000000 
#    y 0.000000 3.222620 0.000000 
#    z 0.000000 0.000000 3.422100 
# 
# 
# High freq. dielectric constant tensor:
#      x y z
#    x 1.633000 0.000000 0.000000 
#    y 0.000000 1.651200 0.000000 
#    z 0.000000 0.000000 1.656760 
# 
# From -- ./inp_files/41920.got.cif
#   From: 2010.03.12/outbox.cif.g09.slc.cpg/sg66_21_cif.got.tgz:41920.got - 2010.04.10 21:57:39.
