data_PCOD8275351
_publ_section_title
;
Structure prediction by ZEFSAII (Michael W. Deem and Ramdas Pophale) SiO2 
 PCOD8275351
Probable space group: C C C M
;
_chemical_formula_sum "Si O2"
_cell_formula_units_Z 112
_cell_length_a 18.537757
_cell_length_b 19.654244
_cell_length_c 17.683613
_cell_angle_alpha 90.000000
_cell_angle_beta 90.000000
_cell_angle_gamma 90.000000
_cell_volume 6442.946576
_symmetry_space_group_name_H-M "C C C M"
_symmetry_group_IT_number 66
_symmetry_cell_setting 'orthorhombic'
loop_
_space_group_symop_operation_xyz
x,y,z
-x,-y,z
x,-y,1/2-z
-x,y,1/2-z
-x,-y,-z
x,y,-z
-x,y,1/2+z
x,-y,1/2+z
1/2+x,1/2+y,z
1/2-x,1/2-y,z
1/2+x,1/2-y,1/2-z
1/2-x,1/2+y,1/2-z
1/2-x,1/2-y,-z
1/2+x,1/2+y,-z
1/2-x,1/2+y,1/2+z
1/2+x,1/2-y,1/2+z
loop_
_atom_site_type_symbol
_atom_site_label
_atom_site_fract_x
_atom_site_fract_y
_atom_site_fract_z
Si Si1 0.577476 0.680392 0.085813
Si Si2 0.680574 0.428887 0.207336
Si Si3 0.774080 0.870498 0.141001
Si Si4 0.069794 0.465643 0.912225
Si Si5 0.022246 0.927474 0.164733
Si Si6 0.872517 0.324250 0.409875
Si Si7 0.277185 0.016122 0.586524
O O1 0.658421 0.653753 0.092714
O O2 0.519915 0.636412 0.131158
O O3 0.579189 0.759135 0.113180
O O4 0.552072 0.676107 0.000000
O O5 0.669357 0.500000 0.250000
O O6 0.703196 0.373647 0.270363
O O7 0.607453 0.411677 0.161609
O O8 0.742967 0.429579 0.143977
O O9 0.706048 0.820019 0.130440
O O10 0.753839 0.942593 0.105556
O O11 0.085904 0.390887 0.878348
O O12 0.137053 0.516094 0.899742
O O13 0.000000 0.500000 0.872556
O O14 0.053559 0.454757 0.000000
O O15 0.000000 0.934181 0.250000
O O16 0.000000 0.000000 0.124679
O O17 0.859402 0.327967 0.500000
O O18 0.258682 0.035452 0.500000
#
# Coordination Sequence:
#
# PCOD8275351 Si02
#       7
#    16  16  16  16  16  16  16
#     4  11  21  31  50  77 103 132 165 209 256 302
#     4  10  18  30  50  69  98 138 170 209 257 300
#     4  10  17  29  49  70 102 136 163 198 255 316
#     4   8  14  28  52  76 100 129 160 201 253 304
#     4  11  19  34  50  68  98 139 176 206 247 297
#     4   9  18  31  49  77 105 127 159 202 254 308
#     4   9  17  28  47  76 101 127 172 216 252 300
#
# _framework density 17.383351000000001
#
# number of rings (size 3 to 8) (size 9 to 14) (size 15 to 20)
#    0.000    2.286    2.857    3.429    0.000    2.000 
#    0.000    0.000    3.143    9.857    0.000    0.000 
#    0.000    8.000    0.000    0.000    0.000    0.000 
#
# Total GULP energy -694105.918391 kJ/mol
# GULP energy per Si atom -12394.748543 kJ/mol
# Density = 1.734379 g / cm^3
# Si number density = 17.383351 Si / 1000 Ang^3
#
#
#
# Elastic Constant Matrix: (Units=GPa)
#
#
# Indices 1 2 3 4 5 6 
#
# 1 121.8794 50.1192 36.0867 0.0000 0.0000 0.0000
# 2 50.1192 66.5436 30.0385 0.0000 0.0000 0.0000
# 3 36.0867 30.0385 52.1146 0.0000 0.0000 0.0000
# 4 0.0000 0.0000 0.0000 19.3956 0.0000 0.0000
# 5 0.0000 0.0000 0.0000 0.0000 18.1713 0.0000
# 6 0.0000 0.0000 0.0000 0.0000 0.0000 27.3755
#
#
#
# Elastic Compliance Matrix: (Units=1/GPa)
#
#
# Indices 1 2 3 4 5 6 
#
# 1 0.012590 -0.007498 -0.004396 0.000000 0.000000 0.000000
# 2 -0.007498 0.024778 -0.009090 0.000000 0.000000 0.000000
# 3 -0.004396 -0.009090 0.027472 0.000000 0.000000 0.000000
# 4 0.000000 0.000000 0.000000 0.051558 0.000000 0.000000
# 5 0.000000 0.000000 0.000000 0.000000 0.055032 0.000000
# 6 0.000000 0.000000 0.000000 0.000000 0.000000 0.036529
#
#
# Mechanical properties :
#
#
# Convention : Reuss Voigt Hill
#
# Bulk Modulus (GPa) = 43.72168 52.55849 48.14009
# Shear Modulus (GPa) = 19.41360 21.27468 20.34414
#
# Velocity S-wave (km/s) = 3.34547 3.50216 3.42471
# Velocity P-wave (km/s) = 6.33474 6.83038 6.58722
#
# Compressibility (1/GPa) = 0.02287195
#
# Stress axis : x y z
#
# Youngs Moduli (GPa) = 79.43005 40.35769 36.40065
#
# Poissons Ratio (x) = 0.30260 0.16002
# Poissons Ratio (y) = 0.59556 0.33089
# Poissons Ratio (z) = 0.34917 0.36686
#
# Static dielectric constant tensor:
#      x y z
#    x 3.601900 0.000000 0.000000 
#    y 0.000000 3.264110 0.000000 
#    z 0.000000 0.000000 3.092610 
# 
# 
# High freq. dielectric constant tensor:
#      x y z
#    x 1.675300 0.000000 0.000000 
#    y 0.000000 1.646820 0.000000 
#    z 0.000000 0.000000 1.647010 
# 
# From -- ./inp_files/41963.got.cif
#   From: 2010.03.12/outbox.cif.g09.slc.cpg/sg66_21_cif.got.tgz:41963.got - 2010.04.10 21:57:39.
