data_PCOD8275839
_publ_section_title
;
Structure prediction by ZEFSAII (Michael W. Deem and Ramdas Pophale) SiO2 
 PCOD8275839
Probable space group: C C C M
;
_chemical_formula_sum "Si O2"
_cell_formula_units_Z 56
_cell_length_a 27.353420
_cell_length_b 5.249783
_cell_length_c 15.739281
_cell_angle_alpha 90.000000
_cell_angle_beta 90.000000
_cell_angle_gamma 90.000000
_cell_volume 2260.153186
_symmetry_space_group_name_H-M "C C C M"
_symmetry_group_IT_number 66
_symmetry_cell_setting 'orthorhombic'
loop_
_space_group_symop_operation_xyz
x,y,z
-x,-y,z
x,-y,1/2-z
-x,y,1/2-z
-x,-y,-z
x,y,-z
-x,y,1/2+z
x,-y,1/2+z
1/2+x,1/2+y,z
1/2-x,1/2-y,z
1/2+x,1/2-y,1/2-z
1/2-x,1/2+y,1/2-z
1/2-x,1/2-y,-z
1/2+x,1/2+y,-z
1/2-x,1/2+y,1/2+z
1/2+x,1/2-y,1/2+z
loop_
_atom_site_type_symbol
_atom_site_label
_atom_site_fract_x
_atom_site_fract_y
_atom_site_fract_z
Si Si1 0.805878 0.175461 0.172539
Si Si2 0.555550 0.493855 0.351481
Si Si3 0.717618 0.498133 0.500000
Si Si4 0.896109 0.489546 0.844156
O O1 0.750000 0.250000 0.190635
O O2 0.837290 0.436819 0.162027
O O3 0.826424 0.000000 0.250000
O O4 0.813317 0.006779 0.087087
O O5 0.500000 0.500000 0.383960
O O6 0.558606 0.500000 0.250000
O O7 0.586397 0.251494 0.388741
O O8 0.580720 0.744927 0.391184
O O9 0.750000 0.750000 0.500000
O O10 0.750000 0.250000 0.500000
O O11 0.918732 0.500000 0.750000
#
# Coordination Sequence:
#
# PCOD8275839 Si02
#       4
#    16  16   8  16
#     4  11  22  38  62  89 126 169 209 260 314 371
#     4   9  17  30  49  77 115 153 192 251 309 357
#     4  10  24  42  60  86 119 164 220 262 307 374
#     4  10  19  31  51  82 114 153 202 245 301 370
#
# _framework density 24.777080000000002
#
# number of rings (size 3 to 8) (size 9 to 14) (size 15 to 20)
#    0.000    2.000    0.000    5.143    0.000   10.286 
#    0.000    0.000    0.000    0.000    0.000    6.000 
#    0.000    0.000    0.000   33.571    0.000    0.714 
#
# Total GULP energy -346917.742658 kJ/mol
# GULP energy per Si atom -12389.919381 kJ/mol
# Density = 2.472069 g / cm^3
# Si number density = 24.777080 Si / 1000 Ang^3
#
#
#
# Elastic Constant Matrix: (Units=GPa)
#
#
# Indices 1 2 3 4 5 6 
#
# 1 183.1848 89.1097 -8.0198 0.0000 0.0000 0.0000
# 2 89.1097 221.2145 22.2897 0.0000 0.0000 0.0000
# 3 -8.0198 22.2897 107.6242 0.0000 0.0000 0.0000
# 4 0.0000 0.0000 0.0000 12.6819 0.0000 0.0000
# 5 0.0000 0.0000 0.0000 0.0000 -5.0937 0.0000
# 6 0.0000 0.0000 0.0000 0.0000 0.0000 57.6398
#
#
#
# Elastic Compliance Matrix: (Units=1/GPa)
#
#
# Indices 1 2 3 4 5 6 
#
# 1 0.006918 -0.002899 0.001116 0.000000 0.000000 0.000000
# 2 -0.002899 0.005832 -0.001424 0.000000 0.000000 0.000000
# 3 0.001116 -0.001424 0.009670 0.000000 0.000000 0.000000
# 4 0.000000 0.000000 0.000000 0.078853 0.000000 0.000000
# 5 0.000000 0.000000 0.000000 0.000000 -0.196322 0.000000
# 6 0.000000 0.000000 0.000000 0.000000 0.000000 0.017349
#
#
# Mechanical properties :
#
#
# Convention : Reuss Voigt Hill
#
# Bulk Modulus (GPa) = 62.47889 79.86474 71.17182
# Shear Modulus (GPa) = -75.81333 40.28852 -17.76240
#
# Velocity S-wave (km/s) = -5.53756 4.03679 -2.68038
# Velocity P-wave (km/s) = 3.95158 7.35057 4.38269
#
# Compressibility (1/GPa) = 0.01600541
#
# Stress axis : x y z
#
# Youngs Moduli (GPa) = 144.54757 171.47283 103.41652
#
# Poissons Ratio (x) = 0.49714 -0.11541
# Poissons Ratio (y) = 0.41907 0.14725
# Poissons Ratio (z) = -0.16131 0.24415
#
# Static dielectric constant tensor:
#      x y z
#    x 4.338000 0.000000 0.000000 
#    y 0.000000 4.858410 0.000000 
#    z 0.000000 0.000000 4.551950 
# 
# 
# High freq. dielectric constant tensor:
#      x y z
#    x 1.981300 0.000000 0.000000 
#    y 0.000000 2.003490 0.000000 
#    z 0.000000 0.000000 1.930530 
# 
# From -- ./inp_files/33549.got.cif
#   From: 2010.03.12/outbox.cif.g09.slc.cpg/sg66_17_cif.got.tgz:33549.got - 2010.04.10 21:57:39.
