data_PCOD8275435
_publ_section_title
;
Structure prediction by ZEFSAII (Michael W. Deem and Ramdas Pophale) SiO2 
 PCOD8275435
Probable space group: C C C M
;
_chemical_formula_sum "Si O2"
_cell_formula_units_Z 96
_cell_length_a 26.714115
_cell_length_b 12.251418
_cell_length_c 17.710554
_cell_angle_alpha 90.000000
_cell_angle_beta 90.000000
_cell_angle_gamma 90.000000
_cell_volume 5796.412646
_symmetry_space_group_name_H-M "C C C M"
_symmetry_group_IT_number 66
_symmetry_cell_setting 'orthorhombic'
loop_
_space_group_symop_operation_xyz
x,y,z
-x,-y,z
x,-y,1/2-z
-x,y,1/2-z
-x,-y,-z
x,y,-z
-x,y,1/2+z
x,-y,1/2+z
1/2+x,1/2+y,z
1/2-x,1/2-y,z
1/2+x,1/2-y,1/2-z
1/2-x,1/2+y,1/2-z
1/2-x,1/2-y,-z
1/2+x,1/2+y,-z
1/2-x,1/2+y,1/2+z
1/2+x,1/2-y,1/2+z
loop_
_atom_site_type_symbol
_atom_site_label
_atom_site_fract_x
_atom_site_fract_y
_atom_site_fract_z
Si Si1 0.829056 0.745546 0.410944
Si Si2 0.494252 0.628261 0.582734
Si Si3 0.910578 0.860250 0.672567
Si Si4 0.892682 0.891060 0.846550
Si Si5 0.285718 0.348636 0.089785
Si Si6 0.249454 0.421311 0.411087
O O1 0.839397 0.755245 0.500000
O O2 0.879678 0.761915 0.364982
O O3 0.805206 0.627339 0.389942
O O4 0.791822 0.839735 0.381063
O O5 0.500000 0.500000 0.577646
O O6 0.506437 0.679434 0.500000
O O7 0.532622 0.666868 0.647643
O O8 0.437394 0.660211 0.603871
O O9 0.905137 0.856850 0.761718
O O10 0.891626 0.977954 0.642082
O O11 0.840178 0.838673 0.872134
O O12 0.250000 0.250000 0.115480
O O13 0.258101 0.457476 0.121093
O O14 0.293176 0.350265 0.000000
O O15 0.254441 0.424693 0.500000
#
# Coordination Sequence:
#
# PCOD8275435 Si02
#       6
#    16  16  16  16  16  16
#     4   9  15  26  46  67  88 115 150 191 231 269
#     4   9  17  28  45  65  88 120 156 189 226 278
#     4  10  18  28  43  67  93 123 147 186 238 281
#     4  10  19  30  41  64  96 125 151 189 230 273
#     4  10  19  32  48  64  89 127 165 192 220 269
#     4   8  15  27  44  66  87 114 152 194 229 260
#
# _framework density 16.561966999999999
#
# number of rings (size 3 to 8) (size 9 to 14) (size 15 to 20)
#    0.000    2.667    1.667    2.500    0.000    3.333 
#    3.000    0.000    0.000    0.000    0.000    1.167 
#    0.000    9.333    0.000    0.000    0.000    0.000 
#
# Total GULP energy -594847.332877 kJ/mol
# GULP energy per Si atom -12392.652768 kJ/mol
# Density = 1.652427 g / cm^3
# Si number density = 16.561967 Si / 1000 Ang^3
#
#
#
# Elastic Constant Matrix: (Units=GPa)
#
#
# Indices 1 2 3 4 5 6 
#
# 1 137.4273 49.0706 50.2824 0.0000 0.0000 0.0000
# 2 49.0706 67.3121 22.5806 0.0000 0.0000 0.0000
# 3 50.2824 22.5806 69.5601 0.0000 0.0000 0.0000
# 4 0.0000 0.0000 0.0000 9.2017 0.0000 0.0000
# 5 0.0000 0.0000 0.0000 0.0000 4.0393 0.0000
# 6 0.0000 0.0000 0.0000 0.0000 0.0000 21.1527
#
#
#
# Elastic Compliance Matrix: (Units=1/GPa)
#
#
# Indices 1 2 3 4 5 6 
#
# 1 0.012019 -0.006562 -0.006558 0.000000 0.000000 0.000000
# 2 -0.006562 0.020254 -0.001832 0.000000 0.000000 0.000000
# 3 -0.006558 -0.001832 0.019711 0.000000 0.000000 0.000000
# 4 0.000000 0.000000 0.000000 0.108675 0.000000 0.000000
# 5 0.000000 0.000000 0.000000 0.000000 0.247569 0.000000
# 6 0.000000 0.000000 0.000000 0.000000 0.000000 0.047275
#
#
# Mechanical properties :
#
#
# Convention : Reuss Voigt Hill
#
# Bulk Modulus (GPa) = 45.28681 57.57406 51.43044
# Shear Modulus (GPa) = 10.14677 17.03646 13.59162
#
# Velocity S-wave (km/s) = 2.47787 3.21074 2.86781
# Velocity P-wave (km/s) = 5.96571 6.97018 6.48741
#
# Compressibility (1/GPa) = 0.02208148
#
# Stress axis : x y z
#
# Youngs Moduli (GPa) = 83.20088 49.37232 50.73270
#
# Poissons Ratio (x) = 0.32398 0.33271
# Poissons Ratio (y) = 0.54596 0.09292
# Poissons Ratio (z) = 0.54563 0.09043
#
# Static dielectric constant tensor:
#      x y z
#    x 3.202340 0.000000 0.000000 
#    y 0.000000 3.029230 0.000000 
#    z 0.000000 0.000000 3.005650 
# 
# 
# High freq. dielectric constant tensor:
#      x y z
#    x 1.641940 0.000000 0.000000 
#    y 0.000000 1.584360 0.000000 
#    z 0.000000 0.000000 1.628340 
# 
# From -- ./inp_files/38868.got.cif
#   From: 2010.03.12/outbox.cif.g09.slc.cpg/sg66_20_cif.got.tgz:38868.got - 2010.04.10 21:57:39.
