data_PCOD8275866
_publ_section_title
;
Structure prediction by ZEFSAII (Michael W. Deem and Ramdas Pophale) SiO2 
 PCOD8275866
Probable space group: C C C M
;
_chemical_formula_sum "Si O2"
_cell_formula_units_Z 88
_cell_length_a 17.252757
_cell_length_b 29.164454
_cell_length_c 9.404557
_cell_angle_alpha 90.000000
_cell_angle_beta 90.000000
_cell_angle_gamma 90.000000
_cell_volume 4732.064969
_symmetry_space_group_name_H-M "C C C M"
_symmetry_group_IT_number 66
_symmetry_cell_setting 'orthorhombic'
loop_
_space_group_symop_operation_xyz
x,y,z
-x,-y,z
x,-y,1/2-z
-x,y,1/2-z
-x,-y,-z
x,y,-z
-x,y,1/2+z
x,-y,1/2+z
1/2+x,1/2+y,z
1/2-x,1/2-y,z
1/2+x,1/2-y,1/2-z
1/2-x,1/2+y,1/2-z
1/2-x,1/2-y,-z
1/2+x,1/2+y,-z
1/2-x,1/2+y,1/2+z
1/2+x,1/2-y,1/2+z
loop_
_atom_site_type_symbol
_atom_site_label
_atom_site_fract_x
_atom_site_fract_y
_atom_site_fract_z
Si Si1 0.432680 0.174854 0.343308
Si Si2 0.376416 0.334500 0.843017
Si Si3 0.074928 0.935761 0.666664
Si Si4 0.000000 0.763077 0.750000
Si Si5 0.227597 0.958342 0.168316
Si Si6 0.731894 0.144212 0.834894
O O1 0.500000 0.150351 0.250000
O O2 0.434571 0.152948 0.500000
O O3 0.450505 0.229528 0.353807
O O4 0.348207 0.165444 0.275115
O O5 0.423029 0.381045 0.816508
O O6 0.437759 0.293547 0.832249
O O7 0.303985 0.330090 0.737322
O O8 0.340139 0.333867 0.000000
O O9 0.074360 0.950350 0.500000
O O10 0.145865 0.957574 0.750972
O O11 0.000000 0.954214 0.750000
O O12 0.270745 0.910280 0.195152
O O13 0.273252 0.000000 0.250000
O O14 0.217981 0.968085 0.000000
O O15 0.742036 0.154794 0.000000
#
# Coordination Sequence:
#
# PCOD8275866 Si02
#       6
#    16  16  16   8  16  16
#     4   9  20  37  56  78 106 140 178 220 268 316
#     4  10  20  33  52  78 108 145 184 223 261 306
#     4  10  19  32  49  73 105 141 179 215 258 303
#     4  10  20  34  54  78 110 142 184 222 260 304
#     4  10  20  35  55  78 103 132 171 215 263 316
#     4   9  20  38  57  78 106 143 177 215 267 322
#
# _framework density 18.596532
#
# number of rings (size 3 to 8) (size 9 to 14) (size 15 to 20)
#    0.545    1.818    0.909    1.636    0.000    4.727 
#    0.000    4.545    0.000    0.545    0.000    3.818 
#    0.000    0.000    0.000    0.000    0.000    0.000 
#
# Total GULP energy -545214.956552 kJ/mol
# GULP energy per Si atom -12391.249013 kJ/mol
# Density = 1.855421 g / cm^3
# Si number density = 18.596532 Si / 1000 Ang^3
#
#
#
# Elastic Constant Matrix: (Units=GPa)
#
#
# Indices 1 2 3 4 5 6 
#
# 1 108.6200 49.2674 50.0656 0.0000 0.0000 0.0000
# 2 49.2674 82.9431 30.1165 0.0000 0.0000 0.0000
# 3 50.0656 30.1165 101.3161 0.0000 0.0000 0.0000
# 4 0.0000 0.0000 0.0000 12.2769 0.0000 0.0000
# 5 0.0000 0.0000 0.0000 0.0000 28.2534 0.0000
# 6 0.0000 0.0000 0.0000 0.0000 0.0000 6.2574
#
#
#
# Elastic Compliance Matrix: (Units=1/GPa)
#
#
# Indices 1 2 3 4 5 6 
#
# 1 0.014727 -0.006844 -0.005243 0.000000 0.000000 0.000000
# 2 -0.006844 0.016696 -0.001581 0.000000 0.000000 0.000000
# 3 -0.005243 -0.001581 0.012931 0.000000 0.000000 0.000000
# 4 0.000000 0.000000 0.000000 0.081454 0.000000 0.000000
# 5 0.000000 0.000000 0.000000 0.000000 0.035394 0.000000
# 6 0.000000 0.000000 0.000000 0.000000 0.000000 0.159812
#
#
# Mechanical properties :
#
#
# Convention : Reuss Voigt Hill
#
# Bulk Modulus (GPa) = 58.76167 61.30870 60.03519
# Shear Modulus (GPa) = 14.12340 20.25286 17.18813
#
# Velocity S-wave (km/s) = 2.75883 3.30368 3.04347
# Velocity P-wave (km/s) = 6.46645 6.89868 6.68606
#
# Compressibility (1/GPa) = 0.01701790
#
# Stress axis : x y z
#
# Youngs Moduli (GPa) = 67.90033 59.89523 77.33402
#
# Poissons Ratio (x) = 0.40993 0.40547
# Poissons Ratio (y) = 0.46472 0.12225
# Poissons Ratio (z) = 0.35601 0.09468
#
# Static dielectric constant tensor:
#      x y z
#    x 3.281170 0.000000 0.000000 
#    y 0.000000 3.622320 0.000000 
#    z 0.000000 0.000000 3.410700 
# 
# 
# High freq. dielectric constant tensor:
#      x y z
#    x 1.700540 0.000000 0.000000 
#    y 0.000000 1.717120 0.000000 
#    z 0.000000 0.000000 1.726120 
# 
# From -- ./inp_files/8270.got.cif
#   From: 2010.03.12/outbox.cif.g09.slc.cpg/sg66_5_cif.got.tgz:8270.got - 2010.04.10 21:57:39.
