data_PCOD8275101
_publ_section_title
;
Structure prediction by ZEFSAII (Michael W. Deem and Ramdas Pophale) SiO2 
 PCOD8275101
Probable space group: C M M M
;
_chemical_formula_sum "Si O2"
_cell_formula_units_Z 80
_cell_length_a 25.898568
_cell_length_b 9.218961
_cell_length_c 22.170087
_cell_angle_alpha 90.000000
_cell_angle_beta 90.000000
_cell_angle_gamma 90.000000
_cell_volume 5293.283157
_symmetry_space_group_name_H-M "C M M M"
_symmetry_group_IT_number 65
_symmetry_cell_setting 'orthorhombic'
loop_
_space_group_symop_operation_xyz
x,y,z
-x,-y,z
x,-y,-z
-x,y,-z
-x,-y,-z
x,y,-z
-x,y,z
x,-y,z
1/2+x,1/2+y,z
1/2-x,1/2-y,z
1/2+x,1/2-y,-z
1/2-x,1/2+y,-z
1/2-x,1/2-y,-z
1/2+x,1/2+y,-z
1/2-x,1/2+y,z
1/2+x,1/2-y,z
loop_
_atom_site_type_symbol
_atom_site_label
_atom_site_fract_x
_atom_site_fract_y
_atom_site_fract_z
Si Si1 0.938543 0.663770 0.115841
Si Si2 0.439817 0.668034 0.233232
Si Si3 0.801653 0.169751 0.569544
Si Si4 0.000000 0.173338 0.568069
Si Si5 0.901539 0.171918 0.638655
Si Si6 0.938389 0.164228 0.000000
O O1 0.917184 0.500000 0.112801
O O2 0.919106 0.738399 0.177234
O O3 0.000000 0.664936 0.114205
O O4 0.916868 0.753234 0.058898
O O5 0.500000 0.696875 0.246935
O O6 0.430931 0.500000 0.217491
O O7 0.406908 0.717316 0.291423
O O8 0.814983 0.204187 0.500000
O O9 0.750000 0.250000 0.590493
O O10 0.848148 0.230984 0.610809
O O11 0.793120 0.000000 0.579616
O O12 0.949409 0.236733 0.601028
O O13 0.000000 0.230845 0.500000
O O14 0.000000 0.000000 0.570388
O O15 0.903180 0.000000 0.632477
O O16 0.000000 0.164283 0.000000
O O17 0.917258 0.000000 0.000000
#
# Coordination Sequence:
#
# PCOD8275101 Si02
#       6
#    16  16  16   8  16   8
#     4   9  16  24  34  49  72 101 133 166 198 232
#     4   9  15  24  37  53  75 102 131 162 199 243
#     4   9  17  29  44  61  80 103 133 169 209 252
#     4   9  14  20  34  58  83 102 125 164 211 249
#     4   9  15  24  38  58  81 104 131 167 208 248
#     4   9  15  23  35  51  69  95 134 173 204 229
#
# _framework density 15.113493999999999
#
# number of rings (size 3 to 8) (size 9 to 14) (size 15 to 20)
#    0.000    3.000    1.000    1.500    0.000    6.000 
#    0.000    1.000    0.000    0.000    0.000    0.000 
#    0.000    4.800    0.000    0.900    0.000   10.900 
#
# Total GULP energy -495895.405856 kJ/mol
# GULP energy per Si atom -12397.385146 kJ/mol
# Density = 1.507909 g / cm^3
# Si number density = 15.113494 Si / 1000 Ang^3
#
#
#
# Elastic Constant Matrix: (Units=GPa)
#
#
# Indices 1 2 3 4 5 6 
#
# 1 77.6682 27.6302 57.7366 0.0000 0.0000 0.0000
# 2 27.6302 66.1601 55.1549 0.0000 0.0000 0.0000
# 3 57.7366 55.1549 141.2953 0.0000 0.0000 0.0000
# 4 0.0000 0.0000 0.0000 14.3774 0.0000 0.0000
# 5 0.0000 0.0000 0.0000 0.0000 12.6578 0.0000
# 6 0.0000 0.0000 0.0000 0.0000 0.0000 12.8914
#
#
#
# Elastic Compliance Matrix: (Units=1/GPa)
#
#
# Indices 1 2 3 4 5 6 
#
# 1 0.018694 -0.002133 -0.006806 0.000000 0.000000 0.000000
# 2 -0.002133 0.022650 -0.007970 0.000000 0.000000 0.000000
# 3 -0.006806 -0.007970 0.012969 0.000000 0.000000 0.000000
# 4 0.000000 0.000000 0.000000 0.069553 0.000000 0.000000
# 5 0.000000 0.000000 0.000000 0.000000 0.079003 0.000000
# 6 0.000000 0.000000 0.000000 0.000000 0.000000 0.077571
#
#
# Mechanical properties :
#
#
# Convention : Reuss Voigt Hill
#
# Bulk Modulus (GPa) = 48.79206 62.90745 55.84975
# Shear Modulus (GPa) = 15.57200 17.62545 16.59872
#
# Velocity S-wave (km/s) = 3.21337 3.41868 3.31761
# Velocity P-wave (km/s) = 6.79128 7.56947 7.19091
#
# Compressibility (1/GPa) = 0.02049514
#
# Stress axis : x y z
#
# Youngs Moduli (GPa) = 53.49449 44.15071 77.10427
#
# Poissons Ratio (x) = 0.09418 0.52477
# Poissons Ratio (y) = 0.11411 0.61450
# Poissons Ratio (z) = 0.36408 0.35187
#
# Static dielectric constant tensor:
#      x y z
#    x 2.610990 0.000000 0.000000 
#    y 0.000000 2.739700 0.000000 
#    z 0.000000 0.000000 3.061930 
# 
# 
# High freq. dielectric constant tensor:
#      x y z
#    x 1.523080 0.000000 0.000000 
#    y 0.000000 1.556910 0.000000 
#    z 0.000000 0.000000 1.589280 
# 
# From -- ./inp_files/71351.got.cif
#   From: 2010.03.12/outbox.cif.g09.slc.cpg/sg65_36_cif.got.tgz:71351.got - 2010.04.10 20:52:16.
