data_PCOD8275409
_publ_section_title
;
Structure prediction by ZEFSAII (Michael W. Deem and Ramdas Pophale) SiO2 
 PCOD8275409
Probable space group: C C C M
;
_chemical_formula_sum "Si O2"
_cell_formula_units_Z 80
_cell_length_a 22.820075
_cell_length_b 29.067474
_cell_length_c 9.149963
_cell_angle_alpha 90.000000
_cell_angle_beta 90.000000
_cell_angle_gamma 90.000000
_cell_volume 6069.371178
_symmetry_space_group_name_H-M "C C C M"
_symmetry_group_IT_number 66
_symmetry_cell_setting 'orthorhombic'
loop_
_space_group_symop_operation_xyz
x,y,z
-x,-y,z
x,-y,1/2-z
-x,y,1/2-z
-x,-y,-z
x,y,-z
-x,y,1/2+z
x,-y,1/2+z
1/2+x,1/2+y,z
1/2-x,1/2-y,z
1/2+x,1/2-y,1/2-z
1/2-x,1/2+y,1/2-z
1/2-x,1/2-y,-z
1/2+x,1/2+y,-z
1/2-x,1/2+y,1/2+z
1/2+x,1/2-y,1/2+z
loop_
_atom_site_type_symbol
_atom_site_label
_atom_site_fract_x
_atom_site_fract_y
_atom_site_fract_z
Si Si1 0.158606 0.229579 0.165563
Si Si2 0.061626 0.723870 0.827460
Si Si3 0.731726 0.177425 0.336206
Si Si4 0.938927 0.453634 0.825757
Si Si5 0.866153 0.635215 0.669554
O O1 0.103220 0.234276 0.273319
O O2 0.201798 0.188164 0.218888
O O3 0.195246 0.276054 0.170230
O O4 0.136857 0.220262 0.000000
O O5 0.089310 0.675084 0.777900
O O6 0.000000 0.729236 0.750000
O O7 0.053202 0.727321 0.000000
O O8 0.734799 0.158255 0.500000
O O9 0.698238 0.139172 0.241088
O O10 0.914789 0.500000 0.750000
O O11 0.892766 0.413953 0.789026
O O12 0.000000 0.440061 0.750000
O O13 0.947695 0.460080 0.000000
O O14 0.855576 0.640794 0.500000
#
# Coordination Sequence:
#
# PCOD8275409 Si02
#       5
#    16  16  16  16  16
#     4   8  14  25  37  51  70  90 113 142 173 208
#     4  10  18  26  36  51  70  94 120 148 180 212
#     4   8  14  24  39  54  68  88 113 141 175 210
#     4  10  19  30  41  53  69  91 118 150 186 223
#     4   9  18  28  38  53  71  89 115 150 185 217
#
# _framework density 13.180937
#
# number of rings (size 3 to 8) (size 9 to 14) (size 15 to 20)
#    0.000    3.000    0.000    3.600    0.000    3.200 
#    0.000    4.000    0.000    0.000    0.000    0.000 
#    0.000    0.000    0.000    0.000    0.000    1.000 
#
# Total GULP energy -495690.658040 kJ/mol
# GULP energy per Si atom -12392.266451 kJ/mol
# Density = 1.315094 g / cm^3
# Si number density = 13.180937 Si / 1000 Ang^3
#
#
#
# Elastic Constant Matrix: (Units=GPa)
#
#
# Indices 1 2 3 4 5 6 
#
# 1 91.8743 50.4857 48.8948 0.0000 0.0000 0.0000
# 2 50.4857 57.0512 33.4584 0.0000 0.0000 0.0000
# 3 48.8948 33.4584 62.5212 0.0000 0.0000 0.0000
# 4 0.0000 0.0000 0.0000 17.3390 0.0000 0.0000
# 5 0.0000 0.0000 0.0000 0.0000 25.5835 0.0000
# 6 0.0000 0.0000 0.0000 0.0000 0.0000 22.5935
#
#
#
# Elastic Compliance Matrix: (Units=1/GPa)
#
#
# Indices 1 2 3 4 5 6 
#
# 1 0.025955 -0.016125 -0.011669 0.000000 0.000000 0.000000
# 2 -0.016125 0.035563 -0.006421 0.000000 0.000000 0.000000
# 3 -0.011669 -0.006421 0.028557 0.000000 0.000000 0.000000
# 4 0.000000 0.000000 0.000000 0.057673 0.000000 0.000000
# 5 0.000000 0.000000 0.000000 0.000000 0.039088 0.000000
# 6 0.000000 0.000000 0.000000 0.000000 0.000000 0.044261
#
#
# Mechanical properties :
#
#
# Convention : Reuss Voigt Hill
#
# Bulk Modulus (GPa) = 46.20058 53.01384 49.60721
# Shear Modulus (GPa) = 16.30031 18.34373 17.32202
#
# Velocity S-wave (km/s) = 3.52043 3.73458 3.62908
# Velocity P-wave (km/s) = 7.18691 7.67486 7.43489
#
# Compressibility (1/GPa) = 0.02164475
#
# Stress axis : x y z
#
# Youngs Moduli (GPa) = 38.52751 28.11900 35.01789
#
# Poissons Ratio (x) = 0.45342 0.40863
# Poissons Ratio (y) = 0.62125 0.22486
# Poissons Ratio (z) = 0.44959 0.18056
#
# Static dielectric constant tensor:
#      x y z
#    x 2.792250 0.000000 0.000000 
#    y 0.000000 2.507900 0.000000 
#    z 0.000000 0.000000 2.758200 
# 
# 
# High freq. dielectric constant tensor:
#      x y z
#    x 1.490040 0.000000 0.000000 
#    y 0.000000 1.456280 0.000000 
#    z 0.000000 0.000000 1.510980 
# 
# From -- ./inp_files/8211.got.cif
#   From: 2010.03.12/outbox.cif.g09.slc.cpg/sg66_5_cif.got.tgz:8211.got - 2010.04.10 21:57:39.
