data_PCOD8275582
_publ_section_title
;
Structure prediction by ZEFSAII (Michael W. Deem and Ramdas Pophale) SiO2 
 PCOD8275582
Probable space group: C C C M
;
_chemical_formula_sum "Si O2"
_cell_formula_units_Z 68
_cell_length_a 20.536908
_cell_length_b 9.119744
_cell_length_c 20.415670
_cell_angle_alpha 90.000000
_cell_angle_beta 90.000000
_cell_angle_gamma 90.000000
_cell_volume 3823.678263
_symmetry_space_group_name_H-M "C C C M"
_symmetry_group_IT_number 66
_symmetry_cell_setting 'orthorhombic'
loop_
_space_group_symop_operation_xyz
x,y,z
-x,-y,z
x,-y,1/2-z
-x,y,1/2-z
-x,-y,-z
x,y,-z
-x,y,1/2+z
x,-y,1/2+z
1/2+x,1/2+y,z
1/2-x,1/2-y,z
1/2+x,1/2-y,1/2-z
1/2-x,1/2+y,1/2-z
1/2-x,1/2-y,-z
1/2+x,1/2+y,-z
1/2-x,1/2+y,1/2+z
1/2+x,1/2-y,1/2+z
loop_
_atom_site_type_symbol
_atom_site_label
_atom_site_fract_x
_atom_site_fract_y
_atom_site_fract_z
Si Si1 0.500000 0.000000 0.250000
Si Si2 0.933617 0.355217 0.632626
Si Si3 0.181063 0.174809 0.923850
Si Si4 0.188898 0.159975 0.577841
Si Si5 0.434142 0.170986 0.576219
O O1 0.450742 0.899711 0.292708
O O2 0.871805 0.249517 0.624216
O O3 0.920514 0.500829 0.590475
O O4 0.997726 0.273019 0.605619
O O5 0.250000 0.250000 0.913503
O O6 0.190294 0.008463 0.900261
O O7 0.158558 0.186153 0.000000
O O8 0.190523 0.172196 0.500000
O O9 0.250000 0.250000 0.607282
O O10 0.123730 0.232767 0.607149
O O11 0.436700 0.197453 0.500000
#
# Coordination Sequence:
#
# PCOD8275582 Si02
#       5
#     4  16  16  16  16
#     4   8  20  36  54  70  92 132 180 218 252 292
#     4  10  18  32  52  71  97 131 170 213 249 297
#     4  10  19  30  50  81 110 134 163 205 259 314
#     4   9  17  28  43  70 109 141 162 193 247 314
#     4   9  16  27  47  73  99 129 160 199 255 308
#
# _framework density 17.783923000000001
#
# number of rings (size 3 to 8) (size 9 to 14) (size 15 to 20)
#    0.000    2.824    0.000    4.235    0.000    4.706 
#    0.000    3.529    0.000   22.588    0.000    0.000 
#    0.000    0.000    0.000    0.000    0.000    0.000 
#
# Total GULP energy -421434.058928 kJ/mol
# GULP energy per Si atom -12395.119380 kJ/mol
# Density = 1.774345 g / cm^3
# Si number density = 17.783923 Si / 1000 Ang^3
#
#
#
# Elastic Constant Matrix: (Units=GPa)
#
#
# Indices 1 2 3 4 5 6 
#
# 1 156.2724 88.2437 43.8402 0.0000 0.0000 0.0000
# 2 88.2437 108.0683 25.6744 0.0000 0.0000 0.0000
# 3 43.8402 25.6744 66.0914 0.0000 0.0000 0.0000
# 4 0.0000 0.0000 0.0000 -10.8429 0.0000 0.0000
# 5 0.0000 0.0000 0.0000 0.0000 -13.1645 0.0000
# 6 0.0000 0.0000 0.0000 0.0000 0.0000 42.0792
#
#
#
# Elastic Compliance Matrix: (Units=1/GPa)
#
#
# Indices 1 2 3 4 5 6 
#
# 1 0.013246 -0.009616 -0.005051 0.000000 0.000000 0.000000
# 2 -0.009616 0.017175 -0.000293 0.000000 0.000000 0.000000
# 3 -0.005051 -0.000293 0.018595 0.000000 0.000000 0.000000
# 4 0.000000 0.000000 0.000000 -0.092227 0.000000 0.000000
# 5 0.000000 0.000000 0.000000 0.000000 -0.075962 0.000000
# 6 0.000000 0.000000 0.000000 0.000000 0.000000 0.023765
#
#
# Mechanical properties :
#
#
# Convention : Reuss Voigt Hill
#
# Bulk Modulus (GPa) = 52.36872 71.77207 62.07039
# Shear Modulus (GPa) = -84.57186 15.12595 -34.72296
#
# Velocity S-wave (km/s) = -6.90351 2.91957 -4.42349
# Velocity P-wave (km/s) = 5.83382 7.19796 2.98137
#
# Compressibility (1/GPa) = 0.01909537
#
# Stress axis : x y z
#
# Youngs Moduli (GPa) = 75.49368 58.22318 53.77807
#
# Poissons Ratio (x) = 0.55989 0.27163
# Poissons Ratio (y) = 0.72596 0.01578
# Poissons Ratio (z) = 0.38131 0.01708
#
# Static dielectric constant tensor:
#      x y z
#    x 3.571640 0.000000 0.000000 
#    y 0.000000 3.306960 0.000000 
#    z 0.000000 0.000000 2.899860 
# 
# 
# High freq. dielectric constant tensor:
#      x y z
#    x 1.703730 0.000000 0.000000 
#    y 0.000000 1.682510 0.000000 
#    z 0.000000 0.000000 1.639190 
# 
# From -- ./inp_files/50604.got.cif
#   From: 2010.03.12/outbox.cif.g09.slc.cpg/sg66_26_cif.got.tgz:50604.got - 2010.04.10 21:57:39.
