data_PCOD8275308
_publ_section_title
;
Structure prediction by ZEFSAII (Michael W. Deem and Ramdas Pophale) SiO2 
 PCOD8275308
Probable space group: C C C M
;
_chemical_formula_sum "Si O2"
_cell_formula_units_Z 96
_cell_length_a 31.266526
_cell_length_b 19.056329
_cell_length_c 8.720202
_cell_angle_alpha 90.000000
_cell_angle_beta 90.000000
_cell_angle_gamma 90.000000
_cell_volume 5195.716154
_symmetry_space_group_name_H-M "C C C M"
_symmetry_group_IT_number 66
_symmetry_cell_setting 'orthorhombic'
loop_
_space_group_symop_operation_xyz
x,y,z
-x,-y,z
x,-y,1/2-z
-x,y,1/2-z
-x,-y,-z
x,y,-z
-x,y,1/2+z
x,-y,1/2+z
1/2+x,1/2+y,z
1/2-x,1/2-y,z
1/2+x,1/2-y,1/2-z
1/2-x,1/2+y,1/2-z
1/2-x,1/2-y,-z
1/2+x,1/2+y,-z
1/2-x,1/2+y,1/2+z
1/2+x,1/2-y,1/2+z
loop_
_atom_site_type_symbol
_atom_site_label
_atom_site_fract_x
_atom_site_fract_y
_atom_site_fract_z
Si Si1 0.710367 0.424113 0.677778
Si Si2 0.955274 0.665177 0.679144
Si Si3 0.455757 0.329089 0.322714
Si Si4 0.884052 0.923594 0.177841
Si Si5 0.620135 0.922969 0.818386
Si Si6 0.206517 0.422104 0.318305
O O1 0.706133 0.500000 0.750000
O O2 0.722216 0.430178 0.500000
O O3 0.663539 0.390002 0.703056
O O4 0.749594 0.382904 0.762831
O O5 0.953743 0.646002 0.500000
O O6 0.948786 0.747242 0.708864
O O7 0.918626 0.625885 0.770785
O O8 0.000000 0.639613 0.750000
O O9 0.500000 0.355614 0.250000
O O10 0.457783 0.347081 0.500000
O O11 0.416365 0.369120 0.250000
O O12 0.889458 0.000000 0.250000
O O13 0.894135 0.932141 0.000000
O O14 0.663655 0.887474 0.751468
O O15 0.612977 0.000000 0.750000
O O16 0.623425 0.928538 0.000000
O O17 0.209059 0.500000 0.250000
O O18 0.203415 0.422322 0.500000
#
# Coordination Sequence:
#
# PCOD8275308 Si02
#       6
#    16  16  16  16  16  16
#     4   9  16  27  44  69 100 134 168 206 249 298
#     4  10  21  38  57  78 102 133 171 210 254 308
#     4  10  21  37  57  77 102 134 171 211 255 308
#     4  10  20  33  52  78 108 137 172 214 258 303
#     4  11  21  34  53  78 107 137 170 212 256 300
#     4  10  17  27  45  70 101 135 169 207 249 299
#
# _framework density 18.476759999999999
#
# number of rings (size 3 to 8) (size 9 to 14) (size 15 to 20)
#    0.000    2.000    0.000    7.000    0.000    4.667 
#    0.000    3.333    0.000    1.000    0.000    7.000 
#    0.000    0.000    0.000    0.000    0.000    0.000 
#
# Total GULP energy -594983.589752 kJ/mol
# GULP energy per Si atom -12395.491453 kJ/mol
# Density = 1.843471 g / cm^3
# Si number density = 18.476760 Si / 1000 Ang^3
#
#
#
# Elastic Constant Matrix: (Units=GPa)
#
#
# Indices 1 2 3 4 5 6 
#
# 1 188.9282 47.3257 95.6430 0.0000 0.0000 0.0000
# 2 47.3257 29.5024 40.5087 0.0000 0.0000 0.0000
# 3 95.6430 40.5087 174.9912 0.0000 0.0000 0.0000
# 4 0.0000 0.0000 0.0000 23.6100 0.0000 0.0000
# 5 0.0000 0.0000 0.0000 0.0000 39.8709 0.0000
# 6 0.0000 0.0000 0.0000 0.0000 0.0000 -7.0240
#
#
#
# Elastic Compliance Matrix: (Units=1/GPa)
#
#
# Indices 1 2 3 4 5 6 
#
# 1 0.009512 -0.011903 -0.002443 0.000000 0.000000 0.000000
# 2 -0.011903 0.064585 -0.008445 0.000000 0.000000 0.000000
# 3 -0.002443 -0.008445 0.009005 0.000000 0.000000 0.000000
# 4 0.000000 0.000000 0.000000 0.042355 0.000000 0.000000
# 5 0.000000 0.000000 0.000000 0.000000 0.025081 0.000000
# 6 0.000000 0.000000 0.000000 0.000000 0.000000 -0.142368
#
#
# Mechanical properties :
#
#
# Convention : Reuss Voigt Hill
#
# Bulk Modulus (GPa) = 26.65317 84.48630 55.56973
# Shear Modulus (GPa) = 75.46204 25.28767 50.37485
#
# Velocity S-wave (km/s) = 6.39768 3.70350 5.22715
# Velocity P-wave (km/s) = 8.30844 8.00705 8.15914
#
# Compressibility (1/GPa) = 0.03751899
#
# Stress axis : x y z
#
# Youngs Moduli (GPa) = 105.13570 15.48338 111.05120
#
# Poissons Ratio (x) = 0.18430 0.27131
# Poissons Ratio (y) = 1.25144 0.93784
# Poissons Ratio (z) = 0.25686 0.13076
#
# Static dielectric constant tensor:
#      x y z
#    x 4.225210 0.000000 0.000000 
#    y 0.000000 3.182960 0.000000 
#    z 0.000000 0.000000 3.607640 
# 
# 
# High freq. dielectric constant tensor:
#      x y z
#    x 1.747750 0.000000 0.000000 
#    y 0.000000 1.658700 0.000000 
#    z 0.000000 0.000000 1.740940 
# 
# From -- ./inp_files/10278.got.cif
#   From: 2010.03.12/outbox.cif.g09.slc.cpg/sg66_6_cif.got.tgz:10278.got - 2010.04.10 21:57:39.
