data_PCOD8275416
_publ_section_title
;
Structure prediction by ZEFSAII (Michael W. Deem and Ramdas Pophale) SiO2 
 PCOD8275416
Probable space group: C C C M
;
_chemical_formula_sum "Si O2"
_cell_formula_units_Z 96
_cell_length_a 31.753134
_cell_length_b 27.127587
_cell_length_c 9.001880
_cell_angle_alpha 90.000000
_cell_angle_beta 90.000000
_cell_angle_gamma 90.000000
_cell_volume 7754.092551
_symmetry_space_group_name_H-M "C C C M"
_symmetry_group_IT_number 66
_symmetry_cell_setting 'orthorhombic'
loop_
_space_group_symop_operation_xyz
x,y,z
-x,-y,z
x,-y,1/2-z
-x,y,1/2-z
-x,-y,-z
x,y,-z
-x,y,1/2+z
x,-y,1/2+z
1/2+x,1/2+y,z
1/2-x,1/2-y,z
1/2+x,1/2-y,1/2-z
1/2-x,1/2+y,1/2-z
1/2-x,1/2-y,-z
1/2+x,1/2+y,-z
1/2-x,1/2+y,1/2+z
1/2+x,1/2-y,1/2+z
loop_
_atom_site_type_symbol
_atom_site_label
_atom_site_fract_x
_atom_site_fract_y
_atom_site_fract_z
Si Si1 0.250420 0.863101 0.167824
Si Si2 0.707184 0.719190 0.167585
Si Si3 0.542936 0.948492 0.824317
Si Si4 0.794765 0.447480 0.675134
Si Si5 0.835641 0.301365 0.166689
Si Si6 0.123868 0.386250 0.172099
O O1 0.213008 0.831807 0.243185
O O2 0.257855 0.912696 0.261488
O O3 0.292289 0.830813 0.169023
O O4 0.237310 0.876688 0.000000
O O5 0.750000 0.750000 0.169841
O O6 0.669809 0.750649 0.242807
O O7 0.693783 0.706613 0.000000
O O8 0.500000 0.928791 0.750000
O O9 0.578741 0.908859 0.788643
O O10 0.556129 0.000000 0.750000
O O11 0.536918 0.956300 0.000000
O O12 0.790414 0.500000 0.750000
O O13 0.789026 0.452666 0.500000
O O14 0.840272 0.425339 0.718220
O O15 0.871779 0.335191 0.239142
O O16 0.849322 0.288061 0.000000
O O17 0.128546 0.373220 0.000000
#
# Coordination Sequence:
#
# PCOD8275416 Si02
#       6
#    16  16  16  16  16  16
#     4   9  16  25  35  48  65  84 107 132 158 190
#     4   9  15  23  35  49  66  86 105 126 154 189
#     4  10  19  30  42  54  67  84 107 135 168 206
#     4  10  18  27  37  49  65  85 109 136 168 202
#     4   9  16  24  36  52  67  83 103 128 158 193
#     4   9  18  29  39  51  67  85 105 132 167 206
#
# _framework density 12.380559
#
# number of rings (size 3 to 8) (size 9 to 14) (size 15 to 20)
#    0.000    2.667    0.000    3.500    0.000    8.000 
#    0.000    0.000    0.000    0.000    0.000    0.000 
#    0.000    0.000    0.000    0.000    0.000    0.000 
#
# Total GULP energy -595150.442023 kJ/mol
# GULP energy per Si atom -12398.967542 kJ/mol
# Density = 1.235238 g / cm^3
# Si number density = 12.380559 Si / 1000 Ang^3
#
#
#
# Elastic Constant Matrix: (Units=GPa)
#
#
# Indices 1 2 3 4 5 6 
#
# 1 44.0889 43.2083 34.5245 0.0000 0.0000 0.0000
# 2 43.2083 74.1374 49.3984 0.0000 0.0000 0.0000
# 3 34.5245 49.3984 97.1702 0.0000 0.0000 0.0000
# 4 0.0000 0.0000 0.0000 25.2514 0.0000 0.0000
# 5 0.0000 0.0000 0.0000 0.0000 13.3464 0.0000
# 6 0.0000 0.0000 0.0000 0.0000 0.0000 20.4239
#
#
#
# Elastic Compliance Matrix: (Units=1/GPa)
#
#
# Indices 1 2 3 4 5 6 
#
# 1 0.054363 -0.028451 -0.004852 0.000000 0.000000 0.000000
# 2 -0.028451 0.035288 -0.007831 0.000000 0.000000 0.000000
# 3 -0.004852 -0.007831 0.015996 0.000000 0.000000 0.000000
# 4 0.000000 0.000000 0.000000 0.039602 0.000000 0.000000
# 5 0.000000 0.000000 0.000000 0.000000 0.074927 0.000000
# 6 0.000000 0.000000 0.000000 0.000000 0.000000 0.048962
#
#
# Mechanical properties :
#
#
# Convention : Reuss Voigt Hill
#
# Bulk Modulus (GPa) = 42.77080 52.18431 47.47755
# Shear Modulus (GPa) = 13.91992 17.68868 15.80430
#
# Velocity S-wave (km/s) = 3.35675 3.78398 3.57675
# Velocity P-wave (km/s) = 7.04595 7.83154 7.44911
#
# Compressibility (1/GPa) = 0.02338044
#
# Stress axis : x y z
#
# Youngs Moduli (GPa) = 18.39475 28.33850 62.51641
#
# Poissons Ratio (x) = 0.80626 0.30330
# Poissons Ratio (y) = 0.52335 0.48954
# Poissons Ratio (z) = 0.08924 0.22191
#
# Static dielectric constant tensor:
#      x y z
#    x 2.235040 0.000000 0.000000 
#    y 0.000000 2.483550 0.000000 
#    z 0.000000 0.000000 2.738160 
# 
# 
# High freq. dielectric constant tensor:
#      x y z
#    x 1.414500 0.000000 0.000000 
#    y 0.000000 1.454630 0.000000 
#    z 0.000000 0.000000 1.491710 
# 
# From -- ./inp_files/10635.got.cif
#   From: 2010.03.12/outbox.cif.g09.slc.cpg/sg66_6_cif.got.tgz:10635.got - 2010.04.10 21:57:39.
