data_PCOD8275506
_publ_section_title
;
Structure prediction by ZEFSAII (Michael W. Deem and Ramdas Pophale) SiO2 
 PCOD8275506
Probable space group: C C C M
;
_chemical_formula_sum "Si O2"
_cell_formula_units_Z 116
_cell_length_a 26.645472
_cell_length_b 26.507100
_cell_length_c 8.979148
_cell_angle_alpha 90.000000
_cell_angle_beta 90.000000
_cell_angle_gamma 90.000000
_cell_volume 6341.920071
_symmetry_space_group_name_H-M "C C C M"
_symmetry_group_IT_number 66
_symmetry_cell_setting 'orthorhombic'
loop_
_space_group_symop_operation_xyz
x,y,z
-x,-y,z
x,-y,1/2-z
-x,y,1/2-z
-x,-y,-z
x,y,-z
-x,y,1/2+z
x,-y,1/2+z
1/2+x,1/2+y,z
1/2-x,1/2-y,z
1/2+x,1/2-y,1/2-z
1/2-x,1/2+y,1/2-z
1/2-x,1/2-y,-z
1/2+x,1/2+y,-z
1/2-x,1/2+y,1/2+z
1/2+x,1/2-y,1/2+z
loop_
_atom_site_type_symbol
_atom_site_label
_atom_site_fract_x
_atom_site_fract_y
_atom_site_fract_z
Si Si1 0.449868 0.795102 0.322378
Si Si2 0.423332 0.313772 0.166700
Si Si3 0.000000 0.000000 0.250000
Si Si4 0.147561 0.681888 0.829232
Si Si5 0.250733 0.355835 0.328287
Si Si6 0.920107 0.077757 0.332342
Si Si7 0.181766 0.050583 0.324338
Si Si8 0.184369 0.778700 0.669043
O O1 0.500000 0.818372 0.250000
O O2 0.451868 0.797188 0.500000
O O3 0.443760 0.737610 0.256031
O O4 0.402105 0.828344 0.269591
O O5 0.440871 0.368095 0.233187
O O6 0.363131 0.315912 0.174685
O O7 0.443698 0.309424 0.000000
O O8 0.964329 0.963351 0.154710
O O9 0.190147 0.638226 0.809286
O O10 0.174573 0.732922 0.779545
O O11 0.130432 0.686300 0.000000
O O12 0.264229 0.343793 0.500000
O O13 0.279431 0.405977 0.275820
O O14 0.267492 0.309152 0.225467
O O15 0.899757 0.086893 0.500000
O O16 0.875023 0.059616 0.228994
O O17 0.179784 0.043555 0.500000
O O18 0.203016 0.000000 0.250000
O O19 0.193226 0.759322 0.500000
#
# Coordination Sequence:
#
# PCOD8275506 Si02
#       8
#    16  16   4  16  16  16  16  16
#     4  10  20  35  53  76 104 139 178 214 255 307
#     4   8  17  32  49  68  95 130 168 211 257 307
#     4  12  26  32  56  78  94 124 178 236 280 316
#     4  10  20  34  51  74 107 140 171 213 256 307
#     4  10  21  35  52  76 104 136 172 210 263 320
#     4  11  22  39  54  70  97 129 169 223 277 320
#     4  11  23  39  58  78 100 131 172 218 268 326
#     4  10  18  30  50  76 103 134 170 211 258 314
#
# _framework density 18.290991000000002
#
# number of rings (size 3 to 8) (size 9 to 14) (size 15 to 20)
#    0.000    1.931    2.069    3.103    0.966    3.862 
#    0.000    0.690    0.000    0.000    0.000    0.000 
#    0.000    0.552    0.000    6.345    0.000    1.931 
#
# Total GULP energy -718730.276316 kJ/mol
# GULP energy per Si atom -12391.901316 kJ/mol
# Density = 1.824936 g / cm^3
# Si number density = 18.290991 Si / 1000 Ang^3
#
#
#
# Elastic Constant Matrix: (Units=GPa)
#
#
# Indices 1 2 3 4 5 6 
#
# 1 126.6803 33.2358 38.2241 0.0000 0.0000 0.0000
# 2 33.2358 39.8463 13.7023 0.0000 0.0000 0.0000
# 3 38.2241 13.7023 75.0359 0.0000 0.0000 0.0000
# 4 0.0000 0.0000 0.0000 17.4629 0.0000 0.0000
# 5 0.0000 0.0000 0.0000 0.0000 24.6646 0.0000
# 6 0.0000 0.0000 0.0000 0.0000 0.0000 26.0173
#
#
#
# Elastic Compliance Matrix: (Units=1/GPa)
#
#
# Indices 1 2 3 4 5 6 
#
# 1 0.011268 -0.007922 -0.004293 0.000000 0.000000 0.000000
# 2 -0.007922 0.032348 -0.001871 0.000000 0.000000 0.000000
# 3 -0.004293 -0.001871 0.015856 0.000000 0.000000 0.000000
# 4 0.000000 0.000000 0.000000 0.057264 0.000000 0.000000
# 5 0.000000 0.000000 0.000000 0.000000 0.040544 0.000000
# 6 0.000000 0.000000 0.000000 0.000000 0.000000 0.038436
#
#
# Mechanical properties :
#
#
# Convention : Reuss Voigt Hill
#
# Bulk Modulus (GPa) = 31.95121 45.76519 38.85820
# Shear Modulus (GPa) = 21.33819 24.05564 22.69691
#
# Velocity S-wave (km/s) = 3.41925 3.63045 3.52643
# Velocity P-wave (km/s) = 5.75279 6.53058 6.15399
#
# Compressibility (1/GPa) = 0.03129772
#
# Stress axis : x y z
#
# Youngs Moduli (GPa) = 88.74884 30.91408 63.06868
#
# Poissons Ratio (x) = 0.24490 0.27077
# Poissons Ratio (y) = 0.70307 0.11803
# Poissons Ratio (z) = 0.38102 0.05785
#
# Static dielectric constant tensor:
#      x y z
#    x 3.465310 0.000000 0.000000 
#    y 0.000000 3.311520 0.000000 
#    z 0.000000 0.000000 3.259690 
# 
# 
# High freq. dielectric constant tensor:
#      x y z
#    x 1.708400 0.000000 0.000000 
#    y 0.000000 1.669530 0.000000 
#    z 0.000000 0.000000 1.706430 
# 
# From -- ./inp_files/10586.got.cif
#   From: 2010.03.12/outbox.cif.g09.slc.cpg/sg66_6_cif.got.tgz:10586.got - 2010.04.10 21:57:39.
