data_PCOD8275044
_publ_section_title
;
Structure prediction by ZEFSAII (Michael W. Deem and Ramdas Pophale) SiO2 
 PCOD8275044
Probable space group: C M M M
;
_chemical_formula_sum "Si O2"
_cell_formula_units_Z 72
_cell_length_a 10.034886
_cell_length_b 15.557565
_cell_length_c 24.813342
_cell_angle_alpha 90.000000
_cell_angle_beta 90.000000
_cell_angle_gamma 90.000000
_cell_volume 3873.819034
_symmetry_space_group_name_H-M "C M M M"
_symmetry_group_IT_number 65
_symmetry_cell_setting 'orthorhombic'
loop_
_space_group_symop_operation_xyz
x,y,z
-x,-y,z
x,-y,-z
-x,y,-z
-x,-y,-z
x,y,-z
-x,y,z
x,-y,z
1/2+x,1/2+y,z
1/2-x,1/2-y,z
1/2+x,1/2-y,-z
1/2-x,1/2+y,-z
1/2-x,1/2-y,-z
1/2+x,1/2+y,-z
1/2-x,1/2+y,z
1/2+x,1/2-y,z
loop_
_atom_site_type_symbol
_atom_site_label
_atom_site_fract_x
_atom_site_fract_y
_atom_site_fract_z
Si Si1 0.343699 0.332093 0.375444
Si Si2 0.351936 0.102253 0.940041
Si Si3 0.157964 0.000000 0.439188
Si Si4 0.644937 0.401214 0.856198
Si Si5 0.849491 0.174988 0.253797
O O1 0.500000 0.309788 0.387129
O O2 0.250000 0.250000 0.388943
O O3 0.291916 0.412777 0.410443
O O4 0.323333 0.362028 0.313536
O O5 0.500000 0.138730 0.929305
O O6 0.253818 0.143563 0.895092
O O7 0.355700 0.000000 0.935112
O O8 0.303162 0.128808 0.000000
O O9 0.213346 0.000000 0.500000
O O10 0.000000 0.000000 0.437642
O O11 0.500000 0.358853 0.867557
O O12 0.639452 0.500000 0.871841
O O13 0.678412 0.395321 0.792428
O O14 0.750000 0.250000 0.239785
O O15 0.000000 0.210657 0.250941
#
# Coordination Sequence:
#
# PCOD8275044 Si02
#       5
#    16  16   8  16  16
#     4   9  18  33  53  75 103 138 174 213 256 303
#     4   8  14  25  40  59  86 118 149 182 226 281
#     4   9  18  32  53  81 107 137 178 215 250 300
#     4   9  17  27  42  66  90 112 146 191 235 279
#     4   9  18  31  47  67  92 123 156 191 237 287
#
# _framework density 18.586309
#
# number of rings (size 3 to 8) (size 9 to 14) (size 15 to 20)
#    0.000    3.222    0.000    0.667    1.556    1.778 
#    0.000    2.778    0.000    1.333    0.000    0.000 
#    0.000    0.000    0.000    0.000    0.000    0.000 
#
# Total GULP energy -446020.289353 kJ/mol
# GULP energy per Si atom -12389.452482 kJ/mol
# Density = 1.854401 g / cm^3
# Si number density = 18.586309 Si / 1000 Ang^3
#
#
#
# Elastic Constant Matrix: (Units=GPa)
#
#
# Indices 1 2 3 4 5 6 
#
# 1 84.0613 39.9499 69.6522 0.0000 0.0000 0.0000
# 2 39.9499 61.0555 50.7458 0.0000 0.0000 0.0000
# 3 69.6522 50.7458 147.7866 0.0000 0.0000 0.0000
# 4 0.0000 0.0000 0.0000 10.9574 0.0000 0.0000
# 5 0.0000 0.0000 0.0000 0.0000 0.2758 0.0000
# 6 0.0000 0.0000 0.0000 0.0000 0.0000 20.5703
#
#
#
# Elastic Compliance Matrix: (Units=1/GPa)
#
#
# Indices 1 2 3 4 5 6 
#
# 1 0.022055 -0.008105 -0.007611 0.000000 0.000000 0.000000
# 2 -0.008105 0.025898 -0.005073 0.000000 0.000000 0.000000
# 3 -0.007611 -0.005073 0.012096 0.000000 0.000000 0.000000
# 4 0.000000 0.000000 0.000000 0.091263 0.000000 0.000000
# 5 0.000000 0.000000 0.000000 0.000000 3.626470 0.000000
# 6 0.000000 0.000000 0.000000 0.000000 0.000000 0.048614
#
#
# Mechanical properties :
#
#
# Convention : Reuss Voigt Hill
#
# Bulk Modulus (GPa) = 54.14117 68.17768 61.15943
# Shear Modulus (GPa) = 1.29061 15.19772 8.24417
#
# Velocity S-wave (km/s) = 0.83420 2.86262 2.10837
# Velocity P-wave (km/s) = 5.48823 6.90561 6.23731
#
# Compressibility (1/GPa) = 0.01847023
#
# Stress axis : x y z
#
# Youngs Moduli (GPa) = 45.34219 38.61329 82.67384
#
# Poissons Ratio (x) = 0.31294 0.62927
# Poissons Ratio (y) = 0.36748 0.41940
# Poissons Ratio (z) = 0.34512 0.19588
#
# Static dielectric constant tensor:
#      x y z
#    x 3.692440 0.000000 0.000000 
#    y 0.000000 3.033880 0.000000 
#    z 0.000000 0.000000 3.641440 
# 
# 
# High freq. dielectric constant tensor:
#      x y z
#    x 1.712850 0.000000 0.000000 
#    y 0.000000 1.683690 0.000000 
#    z 0.000000 0.000000 1.729800 
# 
# From -- ./inp_files/61313.got.cif
#   From: 2010.03.12/outbox.cif.g09.slc.cpg/sg65_31_cif.got.tgz:61313.got - 2010.04.10 20:52:16.
