data_PCOD8275316
_publ_section_title
;
Structure prediction by ZEFSAII (Michael W. Deem and Ramdas Pophale) SiO2 
 PCOD8275316
Probable space group: C C C M
;
_chemical_formula_sum "Si O2"
_cell_formula_units_Z 96
_cell_length_a 28.436803
_cell_length_b 31.097667
_cell_length_c 7.863785
_cell_angle_alpha 90.000000
_cell_angle_beta 90.000000
_cell_angle_gamma 90.000000
_cell_volume 6954.088434
_symmetry_space_group_name_H-M "C C C M"
_symmetry_group_IT_number 66
_symmetry_cell_setting 'orthorhombic'
loop_
_space_group_symop_operation_xyz
x,y,z
-x,-y,z
x,-y,1/2-z
-x,y,1/2-z
-x,-y,-z
x,y,-z
-x,y,1/2+z
x,-y,1/2+z
1/2+x,1/2+y,z
1/2-x,1/2-y,z
1/2+x,1/2-y,1/2-z
1/2-x,1/2+y,1/2-z
1/2-x,1/2-y,-z
1/2+x,1/2+y,-z
1/2-x,1/2+y,1/2+z
1/2+x,1/2-y,1/2+z
loop_
_atom_site_type_symbol
_atom_site_label
_atom_site_fract_x
_atom_site_fract_y
_atom_site_fract_z
Si Si1 0.303365 0.953456 0.200245
Si Si2 0.232169 0.818162 0.000000
Si Si3 0.090499 0.453882 0.301221
Si Si4 0.551295 0.133617 0.305612
Si Si5 0.174504 0.737872 0.000000
Si Si6 0.138410 0.313056 0.198043
Si Si7 0.232256 0.366226 0.810083
O O1 0.356642 0.949981 0.273088
O O2 0.271385 0.917551 0.289116
O O3 0.282506 0.000000 0.250000
O O4 0.302219 0.946020 0.000000
O O5 0.231823 0.847211 0.170584
O O6 0.185439 0.788785 0.000000
O O7 0.277531 0.788392 0.000000
O O8 0.068726 0.500000 0.250000
O O9 0.091731 0.448586 0.500000
O O10 0.057209 0.416889 0.228852
O O11 0.500000 0.149364 0.250000
O O12 0.556959 0.142920 0.500000
O O13 0.592480 0.162743 0.224835
O O14 0.146449 0.727109 0.825386
O O15 0.180626 0.346752 0.217324
O O16 0.134048 0.297555 0.000000
O O17 0.251149 0.355621 0.000000
#
# Coordination Sequence:
#
# PCOD8275316 Si02
#       7
#    16   8  16  16   8  16  16
#     4  10  18  27  41  60  81 106 140 170 203 249
#     4   9  18  30  42  70  82 103 128 161 199 252
#     4  10  20  31  45  58  75  99 130 172 213 255
#     4  11  22  33  45  60  77  98 134 171 211 261
#     4   9  18  30  50  60  86 102 127 158 204 258
#     4   9  19  31  46  62  79 104 131 162 206 255
#     4  10  17  28  45  61  84 107 130 163 204 245
#
# _framework density 13.804828000000001
#
# number of rings (size 3 to 8) (size 9 to 14) (size 15 to 20)
#    0.000    2.167    2.500    1.500    2.333    2.333 
#    0.000    5.000    0.000    0.000    0.000    0.000 
#    0.000    0.000    0.000    0.000    0.000    0.000 
#
# Total GULP energy -595043.215530 kJ/mol
# GULP energy per Si atom -12396.733657 kJ/mol
# Density = 1.377341 g / cm^3
# Si number density = 13.804828 Si / 1000 Ang^3
#
#
#
# Elastic Constant Matrix: (Units=GPa)
#
#
# Indices 1 2 3 4 5 6 
#
# 1 38.7742 38.7618 24.0486 0.0000 0.0000 0.0000
# 2 38.7618 74.6708 36.3867 0.0000 0.0000 0.0000
# 3 24.0486 36.3867 80.3131 0.0000 0.0000 0.0000
# 4 0.0000 0.0000 0.0000 20.4947 0.0000 0.0000
# 5 0.0000 0.0000 0.0000 0.0000 12.3602 0.0000
# 6 0.0000 0.0000 0.0000 0.0000 0.0000 20.0513
#
#
#
# Elastic Compliance Matrix: (Units=1/GPa)
#
#
# Indices 1 2 3 4 5 6 
#
# 1 0.054862 -0.026275 -0.004524 0.000000 0.000000 0.000000
# 2 -0.026275 0.029770 -0.005620 0.000000 0.000000 0.000000
# 3 -0.004524 -0.005620 0.016352 0.000000 0.000000 0.000000
# 4 0.000000 0.000000 0.000000 0.048793 0.000000 0.000000
# 5 0.000000 0.000000 0.000000 0.000000 0.080905 0.000000
# 6 0.000000 0.000000 0.000000 0.000000 0.000000 0.049872
#
#
# Mechanical properties :
#
#
# Convention : Reuss Voigt Hill
#
# Bulk Modulus (GPa) = 35.52721 43.57246 39.54983
# Shear Modulus (GPa) = 13.78267 16.88529 15.33398
#
# Velocity S-wave (km/s) = 3.16317 3.50114 3.33644
# Velocity P-wave (km/s) = 6.25556 6.92645 6.59954
#
# Compressibility (1/GPa) = 0.02814744
#
# Stress axis : x y z
#
# Youngs Moduli (GPa) = 18.22741 33.59081 61.15454
#
# Poissons Ratio (x) = 0.88259 0.27664
# Poissons Ratio (y) = 0.47892 0.34369
# Poissons Ratio (z) = 0.08245 0.18878
#
# Static dielectric constant tensor:
#      x y z
#    x 2.329380 0.000000 0.000000 
#    y 0.000000 2.666740 0.000000 
#    z 0.000000 0.000000 2.890700 
# 
# 
# High freq. dielectric constant tensor:
#      x y z
#    x 1.465690 0.000000 0.000000 
#    y 0.000000 1.505390 0.000000 
#    z 0.000000 0.000000 1.546730 
# 
# From -- ./inp_files/9322.got.cif
#   From: 2010.03.12/outbox.cif.g09.slc.cpg/sg66_5_cif.got.tgz:9322.got - 2010.04.10 21:57:39.
