data_PCOD8275960
_publ_section_title
;
Structure prediction by ZEFSAII (Michael W. Deem and Ramdas Pophale) SiO2 
 PCOD8275960
Probable space group: C C C M
;
_chemical_formula_sum "Si O2"
_cell_formula_units_Z 80
_cell_length_a 9.599567
_cell_length_b 26.993718
_cell_length_c 14.983856
_cell_angle_alpha 90.000000
_cell_angle_beta 90.000000
_cell_angle_gamma 90.000000
_cell_volume 3882.736705
_symmetry_space_group_name_H-M "C C C M"
_symmetry_group_IT_number 66
_symmetry_cell_setting 'orthorhombic'
loop_
_space_group_symop_operation_xyz
x,y,z
-x,-y,z
x,-y,1/2-z
-x,y,1/2-z
-x,-y,-z
x,y,-z
-x,y,1/2+z
x,-y,1/2+z
1/2+x,1/2+y,z
1/2-x,1/2-y,z
1/2+x,1/2-y,1/2-z
1/2-x,1/2+y,1/2-z
1/2-x,1/2-y,-z
1/2+x,1/2+y,-z
1/2-x,1/2+y,1/2+z
1/2+x,1/2-y,1/2+z
loop_
_atom_site_type_symbol
_atom_site_label
_atom_site_fract_x
_atom_site_fract_y
_atom_site_fract_z
Si Si1 0.073022 0.935038 0.901463
Si Si2 0.842303 0.295254 0.735642
Si Si3 0.799221 0.642163 0.397491
Si Si4 0.199748 0.971085 0.340533
Si Si5 0.888237 0.616649 0.102673
O O1 0.178299 0.894155 0.864448
O O2 0.941155 0.937575 0.834186
O O3 0.159706 0.986464 0.911675
O O4 0.019231 0.920350 0.000000
O O5 0.750000 0.250000 0.699332
O O6 0.786965 0.310742 0.833314
O O7 0.827082 0.340027 0.665019
O O8 0.000000 0.277357 0.750000
O O9 0.781194 0.659247 0.500000
O O10 0.945820 0.613854 0.383697
O O11 0.328966 0.937088 0.369545
O O12 0.234323 0.000000 0.250000
O O13 0.849522 0.628467 0.000000
#
# Coordination Sequence:
#
# PCOD8275960 Si02
#       5
#    16  16  16  16  16
#     4  10  19  33  52  78 111 145 185 227 273 329
#     4  10  22  39  58  83 112 142 183 234 288 345
#     4   9  20  38  59  83 113 148 187 234 285 338
#     4  11  21  33  51  79 113 149 187 229 274 325
#     4  10  21  39  59  81 113 150 189 234 283 336
#
# _framework density 20.604025
#
# number of rings (size 3 to 8) (size 9 to 14) (size 15 to 20)
#    0.000    2.000    0.000    4.800    0.000    3.200 
#    0.000    5.000    0.000    0.000    0.000    0.000 
#    0.000    0.000    0.000    0.000    0.000    0.000 
#
# Total GULP energy -495809.544171 kJ/mol
# GULP energy per Si atom -12395.238604 kJ/mol
# Density = 2.055713 g / cm^3
# Si number density = 20.604025 Si / 1000 Ang^3
#
#
#
# Elastic Constant Matrix: (Units=GPa)
#
#
# Indices 1 2 3 4 5 6 
#
# 1 45.3440 25.5363 20.4832 0.0000 0.0000 0.0000
# 2 25.5363 59.5003 21.6967 0.0000 0.0000 0.0000
# 3 20.4832 21.6967 94.9592 0.0000 0.0000 0.0000
# 4 0.0000 0.0000 0.0000 26.5455 0.0000 0.0000
# 5 0.0000 0.0000 0.0000 0.0000 20.8237 0.0000
# 6 0.0000 0.0000 0.0000 0.0000 0.0000 40.1741
#
#
#
# Elastic Compliance Matrix: (Units=1/GPa)
#
#
# Indices 1 2 3 4 5 6 
#
# 1 0.030348 -0.011605 -0.003895 0.000000 0.000000 0.000000
# 2 -0.011605 0.022772 -0.002700 0.000000 0.000000 0.000000
# 3 -0.003895 -0.002700 0.011988 0.000000 0.000000 0.000000
# 4 0.000000 0.000000 0.000000 0.037671 0.000000 0.000000
# 5 0.000000 0.000000 0.000000 0.000000 0.048022 0.000000
# 6 0.000000 0.000000 0.000000 0.000000 0.000000 0.024892
#
#
# Mechanical properties :
#
#
# Convention : Reuss Voigt Hill
#
# Bulk Modulus (GPa) = 34.83190 37.24842 36.04016
# Shear Modulus (GPa) = 22.55695 26.31448 24.43571
#
# Velocity S-wave (km/s) = 3.31234 3.57760 3.44752
# Velocity P-wave (km/s) = 5.61880 5.93154 5.77728
#
# Compressibility (1/GPa) = 0.02870931
#
# Stress axis : x y z
#
# Youngs Moduli (GPa) = 32.95064 43.91434 83.41800
#
# Poissons Ratio (x) = 0.50961 0.32490
# Poissons Ratio (y) = 0.38238 0.22521
# Poissons Ratio (z) = 0.12834 0.11856
#
# Static dielectric constant tensor:
#      x y z
#    x 3.724100 0.000000 0.000000 
#    y 0.000000 3.460310 0.000000 
#    z 0.000000 0.000000 3.833980 
# 
# 
# High freq. dielectric constant tensor:
#      x y z
#    x 1.802900 0.000000 0.000000 
#    y 0.000000 1.780350 0.000000 
#    z 0.000000 0.000000 1.818210 
# 
# From -- ./inp_files/26664.got.cif
#   From: 2010.03.12/outbox.cif.g09.slc.cpg/sg66_14_cif.got.tgz:26664.got - 2010.04.10 21:57:39.
