data_PCOD8275140
_publ_section_title
;
Structure prediction by ZEFSAII (Michael W. Deem and Ramdas Pophale) SiO2 
 PCOD8275140
Probable space group: C M M M
;
_chemical_formula_sum "Si O2"
_cell_formula_units_Z 72
_cell_length_a 21.067147
_cell_length_b 33.838419
_cell_length_c 7.699169
_cell_angle_alpha 90.000000
_cell_angle_beta 90.000000
_cell_angle_gamma 90.000000
_cell_volume 5488.575492
_symmetry_space_group_name_H-M "C M M M"
_symmetry_group_IT_number 65
_symmetry_cell_setting 'orthorhombic'
loop_
_space_group_symop_operation_xyz
x,y,z
-x,-y,z
x,-y,-z
-x,y,-z
-x,-y,-z
x,y,-z
-x,y,z
x,-y,z
1/2+x,1/2+y,z
1/2-x,1/2-y,z
1/2+x,1/2-y,-z
1/2-x,1/2+y,-z
1/2-x,1/2-y,-z
1/2+x,1/2+y,-z
1/2-x,1/2+y,z
1/2+x,1/2-y,z
loop_
_atom_site_type_symbol
_atom_site_label
_atom_site_fract_x
_atom_site_fract_y
_atom_site_fract_z
Si Si1 0.929392 0.916202 0.199980
Si Si2 0.150257 0.733615 0.500000
Si Si3 0.926168 0.235773 0.803760
Si Si4 0.229994 0.186967 0.500000
Si Si5 0.349090 0.343406 0.200700
Si Si6 0.428358 0.500000 0.296288
O O1 0.883506 0.882590 0.276080
O O2 0.896696 0.959402 0.227126
O O3 0.000000 0.915105 0.288211
O O4 0.937370 0.906300 0.000000
O O5 0.107067 0.733479 0.672965
O O6 0.194126 0.771749 0.500000
O O7 0.194248 0.694498 0.500000
O O8 0.899015 0.191952 0.778880
O O9 0.000000 0.233722 0.759043
O O10 0.914070 0.250839 0.000000
O O11 0.211766 0.163439 0.324083
O O12 0.326340 0.347672 0.000000
O O13 0.500000 0.500000 0.223660
O O14 0.424668 0.500000 0.500000
#
# Coordination Sequence:
#
# PCOD8275140 Si02
#       6
#    16   8  16   8  16   8
#     4   9  16  26  38  50  67  91 117 149 189 225
#     4   9  17  28  38  52  71  93 116 143 178 218
#     4   9  16  26  40  57  74  91 114 146 184 221
#     4   9  18  28  38  51  69  92 120 146 177 217
#     4   9  17  27  39  54  71  92 119 152 185 216
#     4   9  17  25  33  49  69  89 115 145 181 225
#
# _framework density 13.118157999999999
#
# number of rings (size 3 to 8) (size 9 to 14) (size 15 to 20)
#    0.000    3.000    0.000    1.333    1.556    4.889 
#    0.000    5.556    0.000    0.000    0.000    0.000 
#    0.000    0.000    0.000    0.000    0.000    0.000 
#
# Total GULP energy -446156.566790 kJ/mol
# GULP energy per Si atom -12393.237966 kJ/mol
# Density = 1.308830 g / cm^3
# Si number density = 13.118158 Si / 1000 Ang^3
#
#
#
# Elastic Constant Matrix: (Units=GPa)
#
#
# Indices 1 2 3 4 5 6 
#
# 1 57.5510 41.4079 38.3288 0.0000 0.0000 0.0000
# 2 41.4079 67.2075 33.1277 0.0000 0.0000 0.0000
# 3 38.3288 33.1277 73.4692 0.0000 0.0000 0.0000
# 4 0.0000 0.0000 0.0000 14.8509 0.0000 0.0000
# 5 0.0000 0.0000 0.0000 0.0000 17.0058 0.0000
# 6 0.0000 0.0000 0.0000 0.0000 0.0000 2.6548
#
#
#
# Elastic Compliance Matrix: (Units=1/GPa)
#
#
# Indices 1 2 3 4 5 6 
#
# 1 0.037850 -0.017470 -0.011869 0.000000 0.000000 0.000000
# 2 -0.017470 0.027195 -0.003148 0.000000 0.000000 0.000000
# 3 -0.011869 -0.003148 0.021223 0.000000 0.000000 0.000000
# 4 0.000000 0.000000 0.000000 0.067336 0.000000 0.000000
# 5 0.000000 0.000000 0.000000 0.000000 0.058803 0.000000
# 6 0.000000 0.000000 0.000000 0.000000 0.000000 0.376674
#
#
# Mechanical properties :
#
#
# Convention : Reuss Voigt Hill
#
# Bulk Modulus (GPa) = 46.96325 47.10629 47.03477
# Shear Modulus (GPa) = 7.56253 12.59319 10.07786
#
# Velocity S-wave (km/s) = 2.40363 3.10172 2.77472
# Velocity P-wave (km/s) = 6.60160 6.98675 6.79691
#
# Compressibility (1/GPa) = 0.02129325
#
# Stress axis : x y z
#
# Youngs Moduli (GPa) = 26.41985 36.77198 47.11903
#
# Poissons Ratio (x) = 0.64240 0.55927
# Poissons Ratio (y) = 0.46155 0.14834
# Poissons Ratio (z) = 0.31358 0.11577
#
# Static dielectric constant tensor:
#      x y z
#    x 2.498140 0.000000 0.000000 
#    y 0.000000 2.621340 0.000000 
#    z 0.000000 0.000000 2.754010 
# 
# 
# High freq. dielectric constant tensor:
#      x y z
#    x 1.452700 0.000000 0.000000 
#    y 0.000000 1.472380 0.000000 
#    z 0.000000 0.000000 1.514140 
# 
# From -- ./inp_files/12049.got.cif
#   From: 2010.03.12/outbox.cif.g09.slc.cpg/sg65_7_cif.got.tgz:12049.got - 2010.04.10 20:52:16.
