data_PCOD8275549
_publ_section_title
;
Structure prediction by ZEFSAII (Michael W. Deem and Ramdas Pophale) SiO2 
 PCOD8275549
Probable space group: C C C M
;
_chemical_formula_sum "Si O2"
_cell_formula_units_Z 80
_cell_length_a 20.007214
_cell_length_b 28.156458
_cell_length_c 8.668468
_cell_angle_alpha 90.000000
_cell_angle_beta 90.000000
_cell_angle_gamma 90.000000
_cell_volume 4883.227849
_symmetry_space_group_name_H-M "C C C M"
_symmetry_group_IT_number 66
_symmetry_cell_setting 'orthorhombic'
loop_
_space_group_symop_operation_xyz
x,y,z
-x,-y,z
x,-y,1/2-z
-x,y,1/2-z
-x,-y,-z
x,y,-z
-x,y,1/2+z
x,-y,1/2+z
1/2+x,1/2+y,z
1/2-x,1/2-y,z
1/2+x,1/2-y,1/2-z
1/2-x,1/2+y,1/2-z
1/2-x,1/2-y,-z
1/2+x,1/2+y,-z
1/2-x,1/2+y,1/2+z
1/2+x,1/2-y,1/2+z
loop_
_atom_site_type_symbol
_atom_site_label
_atom_site_fract_x
_atom_site_fract_y
_atom_site_fract_z
Si Si1 0.826732 0.636246 0.325127
Si Si2 0.571556 0.215196 0.183421
Si Si3 0.271389 0.949422 0.680964
Si Si4 0.929279 0.183953 0.681231
Si Si5 0.318506 0.621712 0.825385
O O1 0.848135 0.623933 0.500000
O O2 0.874539 0.676862 0.256668
O O3 0.831229 0.587771 0.223764
O O4 0.749118 0.654170 0.321626
O O5 0.500000 0.200127 0.250000
O O6 0.593956 0.266365 0.245396
O O7 0.568523 0.217459 0.000000
O O8 0.262295 0.953504 0.500000
O O9 0.201955 0.930118 0.757125
O O10 0.290532 0.000000 0.750000
O O11 0.936861 0.190542 0.500000
O O12 0.874935 0.144163 0.718551
O O13 0.000000 0.167526 0.750000
O O14 0.345370 0.616222 0.000000
#
# Coordination Sequence:
#
# PCOD8275549 Si02
#       5
#    16  16  16  16  16
#     4   8  18  33  50  72  99 130 164 202 247 290
#     4  10  19  33  50  71 100 136 169 202 243 291
#     4  10  18  31  52  76 100 126 160 200 247 296
#     4  11  21  33  49  72 100 135 170 202 242 290
#     4   9  18  34  51  73  99 128 164 205 246 288
#
# _framework density 16.382605999999999
#
# number of rings (size 3 to 8) (size 9 to 14) (size 15 to 20)
#    1.200    1.200    0.000    5.400    0.000    2.400 
#    0.000    4.000    0.000    1.200    0.000    8.400 
#    0.000    0.000    0.000    0.000    0.000    0.000 
#
# Total GULP energy -495672.553367 kJ/mol
# GULP energy per Si atom -12391.813834 kJ/mol
# Density = 1.634532 g / cm^3
# Si number density = 16.382606 Si / 1000 Ang^3
#
#
#
# Elastic Constant Matrix: (Units=GPa)
#
#
# Indices 1 2 3 4 5 6 
#
# 1 29.2374 3.6750 13.1792 0.0000 0.0000 0.0000
# 2 3.6750 36.1822 15.8707 0.0000 0.0000 0.0000
# 3 13.1792 15.8707 97.8765 0.0000 0.0000 0.0000
# 4 0.0000 0.0000 0.0000 28.3095 0.0000 0.0000
# 5 0.0000 0.0000 0.0000 0.0000 20.3696 0.0000
# 6 0.0000 0.0000 0.0000 0.0000 0.0000 8.1922
#
#
#
# Elastic Compliance Matrix: (Units=1/GPa)
#
#
# Indices 1 2 3 4 5 6 
#
# 1 0.036506 -0.001671 -0.004645 0.000000 0.000000 0.000000
# 2 -0.001671 0.029831 -0.004612 0.000000 0.000000 0.000000
# 3 -0.004645 -0.004612 0.011590 0.000000 0.000000 0.000000
# 4 0.000000 0.000000 0.000000 0.035324 0.000000 0.000000
# 5 0.000000 0.000000 0.000000 0.000000 0.049093 0.000000
# 6 0.000000 0.000000 0.000000 0.000000 0.000000 0.122067
#
#
# Mechanical properties :
#
#
# Convention : Reuss Voigt Hill
#
# Bulk Modulus (GPa) = 17.83409 25.41621 21.62515
# Shear Modulus (GPa) = 15.38668 20.07900 17.73284
#
# Velocity S-wave (km/s) = 3.06797 3.50470 3.29358
# Velocity P-wave (km/s) = 4.84351 5.65022 5.26235
#
# Compressibility (1/GPa) = 0.05607239
#
# Stress axis : x y z
#
# Youngs Moduli (GPa) = 27.39239 33.52261 86.27955
#
# Poissons Ratio (x) = 0.05600 0.40075
# Poissons Ratio (y) = 0.04576 0.39793
# Poissons Ratio (z) = 0.12723 0.15461
#
# Static dielectric constant tensor:
#      x y z
#    x 2.952600 0.000000 0.000000 
#    y 0.000000 2.990930 0.000000 
#    z 0.000000 0.000000 3.119300 
# 
# 
# High freq. dielectric constant tensor:
#      x y z
#    x 1.608760 0.000000 0.000000 
#    y 0.000000 1.612980 0.000000 
#    z 0.000000 0.000000 1.646640 
# 
# From -- ./inp_files/6886.got.cif
#   From: 2010.03.12/outbox.cif.g09.slc.cpg/sg66_4_cif.got.tgz:6886.got - 2010.04.10 21:57:39.
