data_PCOD8275520
_publ_section_title
;
Structure prediction by ZEFSAII (Michael W. Deem and Ramdas Pophale) SiO2 
 PCOD8275520
Probable space group: C C C M
;
_chemical_formula_sum "Si O2"
_cell_formula_units_Z 84
_cell_length_a 22.184463
_cell_length_b 10.808160
_cell_length_c 18.078788
_cell_angle_alpha 90.000000
_cell_angle_beta 90.000000
_cell_angle_gamma 90.000000
_cell_volume 4334.809314
_symmetry_space_group_name_H-M "C C C M"
_symmetry_group_IT_number 66
_symmetry_cell_setting 'orthorhombic'
loop_
_space_group_symop_operation_xyz
x,y,z
-x,-y,z
x,-y,1/2-z
-x,y,1/2-z
-x,-y,-z
x,y,-z
-x,y,1/2+z
x,-y,1/2+z
1/2+x,1/2+y,z
1/2-x,1/2-y,z
1/2+x,1/2-y,1/2-z
1/2-x,1/2+y,1/2-z
1/2-x,1/2-y,-z
1/2+x,1/2+y,-z
1/2-x,1/2+y,1/2+z
1/2+x,1/2-y,1/2+z
loop_
_atom_site_type_symbol
_atom_site_label
_atom_site_fract_x
_atom_site_fract_y
_atom_site_fract_z
Si Si1 0.487377 0.355880 0.082407
Si Si2 0.580450 0.807660 0.667472
Si Si3 0.287774 0.133640 0.340913
Si Si4 0.000000 0.500000 0.750000
Si Si5 0.104112 0.881195 0.291764
Si Si6 0.258570 0.382191 0.824226
O O1 0.500000 0.500000 0.080726
O O2 0.545362 0.279550 0.110143
O O3 0.430816 0.336768 0.135579
O O4 0.471303 0.308487 0.000000
O O5 0.643033 0.854962 0.632333
O O6 0.601245 0.734374 0.738965
O O7 0.539848 0.920683 0.693840
O O8 0.250000 0.250000 0.374172
O O9 0.278850 0.130446 0.252180
O O10 0.265818 0.999303 0.371629
O O11 0.172046 0.914446 0.311245
O O12 0.074397 0.000000 0.250000
O O13 0.250000 0.250000 0.866595
#
# Coordination Sequence:
#
# PCOD8275520 Si02
#       6
#    16  16  16   4  16  16
#     4  11  25  40  58  85 121 163 203 249 309 369
#     4  12  22  36  59  87 125 152 202 252 301 359
#     4  10  18  31  50  85 119 145 182 245 306 358
#     4  12  24  32  56  96 112 160 198 256 284 356
#     4  12  19  35  63  89 114 149 194 262 309 351
#     4  10  18  30  52  90 120 143 184 249 315 350
#
# _framework density 19.378014
#
# number of rings (size 3 to 8) (size 9 to 14) (size 15 to 20)
#    0.000    0.952    9.524    1.143    0.000    0.000 
#    0.000    0.476    0.000    2.286    0.000    0.000 
#    0.000    0.000    0.000    0.000    0.000    0.000 
#
# Total GULP energy -520573.578607 kJ/mol
# GULP energy per Si atom -12394.609014 kJ/mol
# Density = 1.933391 g / cm^3
# Si number density = 19.378014 Si / 1000 Ang^3
#
#
#
# Elastic Constant Matrix: (Units=GPa)
#
#
# Indices 1 2 3 4 5 6 
#
# 1 143.2446 58.3062 39.0056 0.0000 0.0000 0.0000
# 2 58.3062 161.7172 14.2986 0.0000 0.0000 0.0000
# 3 39.0056 14.2986 55.3882 0.0000 0.0000 0.0000
# 4 0.0000 0.0000 0.0000 27.6388 0.0000 0.0000
# 5 0.0000 0.0000 0.0000 0.0000 -2.9750 0.0000
# 6 0.0000 0.0000 0.0000 0.0000 0.0000 38.3050
#
#
#
# Elastic Compliance Matrix: (Units=1/GPa)
#
#
# Indices 1 2 3 4 5 6 
#
# 1 0.009896 -0.003021 -0.006189 0.000000 0.000000 0.000000
# 2 -0.003021 0.007250 0.000256 0.000000 0.000000 0.000000
# 3 -0.006189 0.000256 0.022347 0.000000 0.000000 0.000000
# 4 0.000000 0.000000 0.000000 0.036181 0.000000 0.000000
# 5 0.000000 0.000000 0.000000 0.000000 -0.336137 0.000000
# 6 0.000000 0.000000 0.000000 0.000000 0.000000 0.026106
#
#
# Mechanical properties :
#
#
# Convention : Reuss Voigt Hill
#
# Bulk Modulus (GPa) = 46.32944 64.84118 55.58531
# Shear Modulus (GPa) = -23.89444 29.17641 2.64098
#
# Velocity S-wave (km/s) = -3.51532 3.88447 1.16869
# Velocity P-wave (km/s) = 2.73560 7.32480 5.52884
#
# Compressibility (1/GPa) = 0.02158455
#
# Stress axis : x y z
#
# Youngs Moduli (GPa) = 101.05187 137.92863 44.74889
#
# Poissons Ratio (x) = 0.41664 0.27696
# Poissons Ratio (y) = 0.30525 -0.01144
# Poissons Ratio (z) = 0.62542 -0.03525
#
# Static dielectric constant tensor:
#      x y z
#    x 2.744060 0.000000 0.000000 
#    y 0.000000 4.219430 0.000000 
#    z 0.000000 0.000000 3.136330 
# 
# 
# High freq. dielectric constant tensor:
#      x y z
#    x 1.766550 0.000000 0.000000 
#    y 0.000000 1.779690 0.000000 
#    z 0.000000 0.000000 1.679140 
# 
# From -- ./inp_files/51798.got.cif
#   From: 2010.03.12/outbox.cif.g09.slc.cpg/sg66_26_cif.got.tgz:51798.got - 2010.04.10 21:57:39.
