data_PCOD8275783
_publ_section_title
;
Structure prediction by ZEFSAII (Michael W. Deem and Ramdas Pophale) SiO2 
 PCOD8275783
Probable space group: C C C M
;
_chemical_formula_sum "Si O2"
_cell_formula_units_Z 72
_cell_length_a 5.109683
_cell_length_b 31.292018
_cell_length_c 24.900774
_cell_angle_alpha 90.000000
_cell_angle_beta 90.000000
_cell_angle_gamma 90.000000
_cell_volume 3981.441838
_symmetry_space_group_name_H-M "C C C M"
_symmetry_group_IT_number 66
_symmetry_cell_setting 'orthorhombic'
loop_
_space_group_symop_operation_xyz
x,y,z
-x,-y,z
x,-y,1/2-z
-x,y,1/2-z
-x,-y,-z
x,y,-z
-x,y,1/2+z
x,-y,1/2+z
1/2+x,1/2+y,z
1/2-x,1/2-y,z
1/2+x,1/2-y,1/2-z
1/2-x,1/2+y,1/2-z
1/2-x,1/2-y,-z
1/2+x,1/2+y,-z
1/2-x,1/2+y,1/2+z
1/2+x,1/2-y,1/2+z
loop_
_atom_site_type_symbol
_atom_site_label
_atom_site_fract_x
_atom_site_fract_y
_atom_site_fract_z
Si Si1 0.442052 0.660678 0.654961
Si Si2 0.000000 0.222981 0.250000
Si Si3 0.493174 0.722061 0.939768
Si Si4 0.053251 0.615398 0.810573
Si Si5 0.743834 0.980597 0.310032
O O1 0.383176 0.695376 0.700901
O O2 0.441035 0.681021 0.596159
O O3 0.737245 0.645677 0.662588
O O4 0.224106 0.622249 0.658259
O O5 0.250000 0.250000 0.270587
O O6 0.250000 0.750000 0.916909
O O7 0.750000 0.750000 0.940238
O O8 0.424693 0.706031 0.000000
O O9 0.198825 0.569713 0.810577
O O10 0.000000 0.629229 0.750000
O O11 0.500000 0.000000 0.342533
O O12 0.747163 0.000000 0.250000
O O13 0.000000 0.000000 0.339380
#
# Coordination Sequence:
#
# PCOD8275783 Si02
#       5
#    16   8  16  16  16
#     4  12  23  35  52  76 112 141 180 223 277 328
#     4  12  22  32  46  68 103 144 177 206 256 326
#     4  10  21  40  62  79 100 139 191 242 281 315
#     4  12  21  35  49  78 112 151 173 211 275 321
#     4  10  19  30  50  69 100 147 179 214 240 308
#
# _framework density 18.083901000000001
#
# number of rings (size 3 to 8) (size 9 to 14) (size 15 to 20)
#    0.000    0.889    4.444    5.333    3.111    0.000 
#    0.000    0.000    0.000    0.000    0.000    0.000 
#    0.000   17.778    0.000    0.000    0.000    0.000 
#
# Total GULP energy -446015.812546 kJ/mol
# GULP energy per Si atom -12389.328126 kJ/mol
# Density = 1.804274 g / cm^3
# Si number density = 18.083901 Si / 1000 Ang^3
#
#
#
# Elastic Constant Matrix: (Units=GPa)
#
#
# Indices 1 2 3 4 5 6 
#
# 1 146.2343 30.9858 20.6422 0.0000 0.0000 0.0000
# 2 30.9858 82.6926 38.0132 0.0000 0.0000 0.0000
# 3 20.6422 38.0132 74.2821 0.0000 0.0000 0.0000
# 4 0.0000 0.0000 0.0000 19.1512 0.0000 0.0000
# 5 0.0000 0.0000 0.0000 0.0000 46.7035 0.0000
# 6 0.0000 0.0000 0.0000 0.0000 0.0000 48.5905
#
#
#
# Elastic Compliance Matrix: (Units=1/GPa)
#
#
# Indices 1 2 3 4 5 6 
#
# 1 0.007468 -0.002412 -0.000841 0.000000 0.000000 0.000000
# 2 -0.002412 0.016592 -0.007820 0.000000 0.000000 0.000000
# 3 -0.000841 -0.007820 0.017698 0.000000 0.000000 0.000000
# 4 0.000000 0.000000 0.000000 0.052216 0.000000 0.000000
# 5 0.000000 0.000000 0.000000 0.000000 0.021412 0.000000
# 6 0.000000 0.000000 0.000000 0.000000 0.000000 0.020580
#
#
# Mechanical properties :
#
#
# Convention : Reuss Voigt Hill
#
# Bulk Modulus (GPa) = 50.99139 53.61017 52.30078
# Shear Modulus (GPa) = 30.36760 37.12690 33.74725
#
# Velocity S-wave (km/s) = 4.10232 4.53596 4.32458
# Velocity P-wave (km/s) = 7.12019 7.55929 7.34302
#
# Compressibility (1/GPa) = 0.01961115
#
# Stress axis : x y z
#
# Youngs Moduli (GPa) = 133.90295 60.27116 56.50362
#
# Poissons Ratio (x) = 0.14536 0.04753
# Poissons Ratio (y) = 0.32294 0.44188
# Poissons Ratio (z) = 0.11263 0.47135
#
# Static dielectric constant tensor:
#      x y z
#    x 2.413250 0.000000 0.000000 
#    y 0.000000 3.112250 0.000000 
#    z 0.000000 0.000000 3.089100 
# 
# 
# High freq. dielectric constant tensor:
#      x y z
#    x 1.740200 0.000000 0.000000 
#    y 0.000000 1.694210 0.000000 
#    z 0.000000 0.000000 1.640900 
# 
# From -- ./inp_files/54258.got.cif
#   From: 2010.03.12/outbox.cif.g09.slc.cpg/sg66_28_cif.got.tgz:54258.got - 2010.04.10 21:57:39.
