data_PCOD8275254
_publ_section_title
;
Structure prediction by ZEFSAII (Michael W. Deem and Ramdas Pophale) SiO2 
 PCOD8275254
Probable space group: C C C M
;
_chemical_formula_sum "Si O2"
_cell_formula_units_Z 96
_cell_length_a 13.444750
_cell_length_b 12.943276
_cell_length_c 32.111851
_cell_angle_alpha 90.000000
_cell_angle_beta 90.000000
_cell_angle_gamma 90.000000
_cell_volume 5588.075732
_symmetry_space_group_name_H-M "C C C M"
_symmetry_group_IT_number 66
_symmetry_cell_setting 'orthorhombic'
loop_
_space_group_symop_operation_xyz
x,y,z
-x,-y,z
x,-y,1/2-z
-x,y,1/2-z
-x,-y,-z
x,y,-z
-x,y,1/2+z
x,-y,1/2+z
1/2+x,1/2+y,z
1/2-x,1/2-y,z
1/2+x,1/2-y,1/2-z
1/2-x,1/2+y,1/2-z
1/2-x,1/2-y,-z
1/2+x,1/2+y,-z
1/2-x,1/2+y,1/2+z
1/2+x,1/2-y,1/2+z
loop_
_atom_site_type_symbol
_atom_site_label
_atom_site_fract_x
_atom_site_fract_y
_atom_site_fract_z
Si Si1 0.250000 0.750000 0.147134
Si Si2 0.380596 0.387529 0.703093
Si Si3 0.750000 0.750000 0.856792
Si Si4 0.095741 0.638760 0.910075
Si Si5 0.875955 0.599851 0.910670
Si Si6 0.894109 0.874030 0.798595
Si Si7 0.112441 0.450245 0.000000
Si Si8 0.839279 0.331238 0.000000
O O1 0.294015 0.661510 0.176001
O O2 0.160386 0.710960 0.119000
O O3 0.358039 0.361941 0.751131
O O4 0.376574 0.506990 0.690465
O O5 0.490839 0.344020 0.694284
O O6 0.790881 0.658890 0.885870
O O7 0.834413 0.797430 0.827952
O O8 0.137913 0.522925 0.905885
O O9 0.982437 0.639671 0.894098
O O10 0.098206 0.684002 0.957336
O O11 0.869746 0.622361 0.960166
O O12 0.000000 0.500000 0.000000
O O13 0.191377 0.546731 0.000000
O O14 0.750000 0.250000 0.000000
#
# Coordination Sequence:
#
# PCOD8275254 Si02
#       8
#     8  16   8  16  16  16   8   8
#     4  12  19  27  50  84  98 114 162 235 243 282
#     4   9  19  35  54  70  96 134 177 194 254 300
#     4  12  21  31  52  80 108 124 168 215 267 276
#     4  10  19  32  50  73 104 127 169 202 253 296
#     4  10  20  34  50  74 100 141 164 202 245 309
#     4   9  19  37  52  68  98 141 165 203 241 324
#     4  10  16  35  56  65  99 139 177 193 238 313
#     4  10  16  30  50  76  90 130 166 204 240 292
#
# _framework density 17.179438000000001
#
# number of rings (size 3 to 8) (size 9 to 14) (size 15 to 20)
#    0.000    2.000    4.167    3.500    0.000    0.333 
#    0.000    0.000    0.000    0.000    0.000   16.333 
#    0.000    0.000    0.000    0.000    0.000    0.000 
#
# Total GULP energy -594857.159124 kJ/mol
# GULP energy per Si atom -12392.857482 kJ/mol
# Density = 1.714034 g / cm^3
# Si number density = 17.179438 Si / 1000 Ang^3
#
#
#
# Elastic Constant Matrix: (Units=GPa)
#
#
# Indices 1 2 3 4 5 6 
#
# 1 52.5515 27.6922 24.5952 0.0000 0.0000 0.0000
# 2 27.6922 56.0402 27.5771 0.0000 0.0000 0.0000
# 3 24.5952 27.5771 74.8844 0.0000 0.0000 0.0000
# 4 0.0000 0.0000 0.0000 29.5200 0.0000 0.0000
# 5 0.0000 0.0000 0.0000 0.0000 21.6958 0.0000
# 6 0.0000 0.0000 0.0000 0.0000 0.0000 32.6608
#
#
#
# Elastic Compliance Matrix: (Units=1/GPa)
#
#
# Indices 1 2 3 4 5 6 
#
# 1 0.027096 -0.011004 -0.004847 0.000000 0.000000 0.000000
# 2 -0.011004 0.026263 -0.006057 0.000000 0.000000 0.000000
# 3 -0.004847 -0.006057 0.017177 0.000000 0.000000 0.000000
# 4 0.000000 0.000000 0.000000 0.033875 0.000000 0.000000
# 5 0.000000 0.000000 0.000000 0.000000 0.046092 0.000000
# 6 0.000000 0.000000 0.000000 0.000000 0.000000 0.030618
#
#
# Mechanical properties :
#
#
# Convention : Reuss Voigt Hill
#
# Bulk Modulus (GPa) = 37.42764 38.13389 37.78077
# Shear Modulus (GPa) = 21.38173 23.68275 22.53224
#
# Velocity S-wave (km/s) = 3.53173 3.71691 3.62551
# Velocity P-wave (km/s) = 6.20197 6.37700 6.29010
#
# Compressibility (1/GPa) = 0.02671822
#
# Stress axis : x y z
#
# Youngs Moduli (GPa) = 36.90544 38.07651 58.21884
#
# Poissons Ratio (x) = 0.41901 0.28219
# Poissons Ratio (y) = 0.40612 0.35265
# Poissons Ratio (z) = 0.17888 0.23064
#
# Static dielectric constant tensor:
#      x y z
#    x 3.165340 0.000000 0.000000 
#    y 0.000000 3.067220 0.000000 
#    z 0.000000 0.000000 3.303480 
# 
# 
# High freq. dielectric constant tensor:
#      x y z
#    x 1.652970 0.000000 0.000000 
#    y 0.000000 1.650300 0.000000 
#    z 0.000000 0.000000 1.673130 
# 
# From -- ./inp_files/69048.got.cif
#   From: 2010.03.12/outbox.cif.g09.slc.cpg/sg66_35_cif.got.tgz:69048.got - 2010.04.10 21:57:39.
