data_PCOD8275931
_publ_section_title
;
Structure prediction by ZEFSAII (Michael W. Deem and Ramdas Pophale) SiO2 
 PCOD8275931
Probable space group: C C C M
;
_chemical_formula_sum "Si O2"
_cell_formula_units_Z 80
_cell_length_a 16.600990
_cell_length_b 8.780236
_cell_length_c 28.488535
_cell_angle_alpha 90.000000
_cell_angle_beta 90.000000
_cell_angle_gamma 90.000000
_cell_volume 4152.506241
_symmetry_space_group_name_H-M "C C C M"
_symmetry_group_IT_number 66
_symmetry_cell_setting 'orthorhombic'
loop_
_space_group_symop_operation_xyz
x,y,z
-x,-y,z
x,-y,1/2-z
-x,y,1/2-z
-x,-y,-z
x,y,-z
-x,y,1/2+z
x,-y,1/2+z
1/2+x,1/2+y,z
1/2-x,1/2-y,z
1/2+x,1/2-y,1/2-z
1/2-x,1/2+y,1/2-z
1/2-x,1/2-y,-z
1/2+x,1/2+y,-z
1/2-x,1/2+y,1/2+z
1/2+x,1/2-y,1/2+z
loop_
_atom_site_type_symbol
_atom_site_label
_atom_site_fract_x
_atom_site_fract_y
_atom_site_fract_z
Si Si1 0.582664 0.690395 0.947466
Si Si2 0.579381 0.904722 0.132452
Si Si3 0.010197 0.827229 0.805120
Si Si4 0.894145 0.150222 0.946841
Si Si5 0.337562 0.202067 0.645336
O O1 0.616707 0.816736 0.912138
O O2 0.488088 0.674914 0.937648
O O3 0.625887 0.528233 0.939506
O O4 0.599102 0.748602 0.000000
O O5 0.557170 0.781954 0.172239
O O6 0.500000 0.000000 0.117712
O O7 0.648802 0.019975 0.149925
O O8 0.000000 0.810354 0.750000
O O9 0.099541 0.783412 0.820612
O O10 0.000000 0.000000 0.822408
O O11 0.845554 0.249239 0.909247
O O12 0.870949 0.200197 0.000000
O O13 0.250000 0.250000 0.663835
#
# Coordination Sequence:
#
# PCOD8275931 Si02
#       5
#    16  16  16  16  16
#     4   9  16  29  53  82 107 147 205 243 267 323
#     4  10  19  32  55  83 110 148 186 232 283 331
#     4  10  21  41  65  84 105 145 190 233 286 349
#     4   9  17  31  53  79 115 155 191 235 281 334
#     4  11  23  37  55  86 123 150 184 235 289 338
#
# _framework density 19.265474999999999
#
# number of rings (size 3 to 8) (size 9 to 14) (size 15 to 20)
#    0.000    2.200    4.000    2.400    0.000    5.200 
#    0.000    8.000    0.000    2.400    0.000    0.000 
#    0.000    0.000    0.000    0.000    0.000    0.000 
#
# Total GULP energy -495940.217836 kJ/mol
# GULP energy per Si atom -12398.505446 kJ/mol
# Density = 1.922163 g / cm^3
# Si number density = 19.265475 Si / 1000 Ang^3
#
#
#
# Elastic Constant Matrix: (Units=GPa)
#
#
# Indices 1 2 3 4 5 6 
#
# 1 82.3127 48.0458 36.9217 0.0000 0.0000 0.0000
# 2 48.0458 151.2952 60.3732 0.0000 0.0000 0.0000
# 3 36.9217 60.3732 97.6835 0.0000 0.0000 0.0000
# 4 0.0000 0.0000 0.0000 16.1629 0.0000 0.0000
# 5 0.0000 0.0000 0.0000 0.0000 13.1674 0.0000
# 6 0.0000 0.0000 0.0000 0.0000 0.0000 22.5203
#
#
#
# Elastic Compliance Matrix: (Units=1/GPa)
#
#
# Indices 1 2 3 4 5 6 
#
# 1 0.015930 -0.003526 -0.003842 0.000000 0.000000 0.000000
# 2 -0.003526 0.009554 -0.004572 0.000000 0.000000 0.000000
# 3 -0.003842 -0.004572 0.014515 0.000000 0.000000 0.000000
# 4 0.000000 0.000000 0.000000 0.061870 0.000000 0.000000
# 5 0.000000 0.000000 0.000000 0.000000 0.075945 0.000000
# 6 0.000000 0.000000 0.000000 0.000000 0.000000 0.044404
#
#
# Mechanical properties :
#
#
# Convention : Reuss Voigt Hill
#
# Bulk Modulus (GPa) = 62.03760 69.10811 65.57285
# Shear Modulus (GPa) = 19.88300 22.76683 21.32492
#
# Velocity S-wave (km/s) = 3.21604 3.44138 3.33062
# Velocity P-wave (km/s) = 6.78689 7.19306 6.99293
#
# Compressibility (1/GPa) = 0.01611926
#
# Stress axis : x y z
#
# Youngs Moduli (GPa) = 62.77424 104.67212 68.89378
#
# Poissons Ratio (x) = 0.36904 0.26470
# Poissons Ratio (y) = 0.22132 0.31498
# Poissons Ratio (z) = 0.24119 0.47856
#
# Static dielectric constant tensor:
#      x y z
#    x 3.077060 0.000000 0.000000 
#    y 0.000000 3.888090 0.000000 
#    z 0.000000 0.000000 3.512430 
# 
# 
# High freq. dielectric constant tensor:
#      x y z
#    x 1.699190 0.000000 0.000000 
#    y 0.000000 1.763280 0.000000 
#    z 0.000000 0.000000 1.749400 
# 
# From -- ./inp_files/62369.got.cif
#   From: 2010.03.12/outbox.cif.g09.slc.cpg/sg66_32_cif.got.tgz:62369.got - 2010.04.10 21:57:39.
