data_PCOD8275963
_publ_section_title
;
Structure prediction by ZEFSAII (Michael W. Deem and Ramdas Pophale) SiO2 
 PCOD8275963
Probable space group: C C C M
;
_chemical_formula_sum "Si O2"
_cell_formula_units_Z 96
_cell_length_a 18.683777
_cell_length_b 28.144726
_cell_length_c 9.119396
_cell_angle_alpha 90.000000
_cell_angle_beta 90.000000
_cell_angle_gamma 90.000000
_cell_volume 4795.432420
_symmetry_space_group_name_H-M "C C C M"
_symmetry_group_IT_number 66
_symmetry_cell_setting 'orthorhombic'
loop_
_space_group_symop_operation_xyz
x,y,z
-x,-y,z
x,-y,1/2-z
-x,y,1/2-z
-x,-y,-z
x,y,-z
-x,y,1/2+z
x,-y,1/2+z
1/2+x,1/2+y,z
1/2-x,1/2-y,z
1/2+x,1/2-y,1/2-z
1/2-x,1/2+y,1/2-z
1/2-x,1/2-y,-z
1/2+x,1/2+y,-z
1/2-x,1/2+y,1/2+z
1/2+x,1/2-y,1/2+z
loop_
_atom_site_type_symbol
_atom_site_label
_atom_site_fract_x
_atom_site_fract_y
_atom_site_fract_z
Si Si1 0.391611 0.454204 0.668941
Si Si2 0.423841 0.774388 0.830654
Si Si3 0.724507 0.952383 0.330503
Si Si4 0.440484 0.366692 0.161890
Si Si5 0.807000 0.347090 0.831431
Si Si6 0.681035 0.703128 0.835245
O O1 0.420907 0.500000 0.750000
O O2 0.408517 0.459485 0.500000
O O3 0.308042 0.446986 0.700395
O O4 0.436667 0.411931 0.734846
O O5 0.500000 0.775002 0.750000
O O6 0.387672 0.826721 0.820325
O O7 0.366544 0.739103 0.758542
O O8 0.436371 0.759672 0.000000
O O9 0.706097 0.959875 0.500000
O O10 0.691248 0.901906 0.273333
O O11 0.694201 0.000000 0.250000
O O12 0.500000 0.334276 0.250000
O O13 0.362779 0.344937 0.152111
O O14 0.468799 0.378708 0.000000
O O15 0.755812 0.310743 0.740970
O O16 0.779323 0.347026 0.000000
O O17 0.695250 0.723254 0.000000
#
# Coordination Sequence:
#
# PCOD8275963 Si02
#       6
#    16  16  16  16  16  16
#     4  10  19  33  53  74 103 141 182 233 285 340
#     4  11  24  41  62  86 119 157 196 240 293 350
#     4   9  18  33  56  85 116 148 186 233 287 342
#     4  11  23  36  51  74 105 145 190 235 284 337
#     4  10  21  39  62  89 119 156 195 238 290 346
#     4  11  23  38  59  87 117 151 195 242 286 340
#
# _framework density 20.019048000000002
#
# number of rings (size 3 to 8) (size 9 to 14) (size 15 to 20)
#    0.000    1.667    1.667    3.000    0.000    8.333 
#    0.000    1.667    0.000    0.500    0.000    3.500 
#    0.000    0.000    0.000    0.000    0.000    0.000 
#
# Total GULP energy -594821.558853 kJ/mol
# GULP energy per Si atom -12392.115809 kJ/mol
# Density = 1.997348 g / cm^3
# Si number density = 20.019048 Si / 1000 Ang^3
#
#
#
# Elastic Constant Matrix: (Units=GPa)
#
#
# Indices 1 2 3 4 5 6 
#
# 1 78.9730 53.7666 48.5521 0.0000 0.0000 0.0000
# 2 53.7666 95.4966 55.6877 0.0000 0.0000 0.0000
# 3 48.5521 55.6877 138.1816 0.0000 0.0000 0.0000
# 4 0.0000 0.0000 0.0000 27.4735 0.0000 0.0000
# 5 0.0000 0.0000 0.0000 0.0000 5.6180 0.0000
# 6 0.0000 0.0000 0.0000 0.0000 0.0000 9.0873
#
#
#
# Elastic Compliance Matrix: (Units=1/GPa)
#
#
# Indices 1 2 3 4 5 6 
#
# 1 0.021785 -0.010199 -0.003544 0.000000 0.000000 0.000000
# 2 -0.010199 0.018463 -0.003857 0.000000 0.000000 0.000000
# 3 -0.003544 -0.003857 0.010037 0.000000 0.000000 0.000000
# 4 0.000000 0.000000 0.000000 0.036399 0.000000 0.000000
# 5 0.000000 0.000000 0.000000 0.000000 0.178001 0.000000
# 6 0.000000 0.000000 0.000000 0.000000 0.000000 0.110044
#
#
# Mechanical properties :
#
#
# Convention : Reuss Voigt Hill
#
# Bulk Modulus (GPa) = 66.29433 69.85158 68.07295
# Shear Modulus (GPa) = 12.04946 18.74540 15.39743
#
# Velocity S-wave (km/s) = 2.45603 3.06335 2.77634
# Velocity P-wave (km/s) = 6.42108 6.89061 6.65998
#
# Compressibility (1/GPa) = 0.01508425
#
# Stress axis : x y z
#
# Youngs Moduli (GPa) = 45.90300 54.16284 99.63428
#
# Poissons Ratio (x) = 0.55238 0.35315
# Poissons Ratio (y) = 0.46814 0.38431
# Poissons Ratio (z) = 0.16270 0.20892
#
# Static dielectric constant tensor:
#      x y z
#    x 3.604770 0.000000 0.000000 
#    y 0.000000 3.659570 0.000000 
#    z 0.000000 0.000000 3.853750 
# 
# 
# High freq. dielectric constant tensor:
#      x y z
#    x 1.763580 0.000000 0.000000 
#    y 0.000000 1.784680 0.000000 
#    z 0.000000 0.000000 1.791550 
# 
# From -- ./inp_files/7965.got.cif
#   From: 2010.03.12/outbox.cif.g09.slc.cpg/sg66_4_cif.got.tgz:7965.got - 2010.04.10 21:57:39.
