data_PCOD8275130
_publ_section_title
;
Structure prediction by ZEFSAII (Michael W. Deem and Ramdas Pophale) SiO2 
 PCOD8275130
Probable space group: C M M M
;
_chemical_formula_sum "Si O2"
_cell_formula_units_Z 72
_cell_length_a 9.199184
_cell_length_b 30.291586
_cell_length_c 17.745937
_cell_angle_alpha 90.000000
_cell_angle_beta 90.000000
_cell_angle_gamma 90.000000
_cell_volume 4945.045064
_symmetry_space_group_name_H-M "C M M M"
_symmetry_group_IT_number 65
_symmetry_cell_setting 'orthorhombic'
loop_
_space_group_symop_operation_xyz
x,y,z
-x,-y,z
x,-y,-z
-x,y,-z
-x,-y,-z
x,y,-z
-x,y,z
x,-y,z
1/2+x,1/2+y,z
1/2-x,1/2-y,z
1/2+x,1/2-y,-z
1/2-x,1/2+y,-z
1/2-x,1/2-y,-z
1/2+x,1/2+y,-z
1/2-x,1/2+y,z
1/2+x,1/2-y,z
loop_
_atom_site_type_symbol
_atom_site_label
_atom_site_fract_x
_atom_site_fract_y
_atom_site_fract_z
Si Si1 0.831238 0.121723 0.086061
Si Si2 0.164571 0.052684 0.500000
Si Si3 0.163976 0.707853 0.089725
Si Si4 0.164112 0.447468 0.355058
Si Si5 0.331307 0.550481 0.208031
O O1 0.741274 0.163214 0.117599
O O2 0.790977 0.078924 0.134840
O O3 0.000000 0.134191 0.092774
O O4 0.789182 0.110598 0.000000
O O5 0.247198 0.071186 0.426442
O O6 0.000000 0.070728 0.500000
O O7 0.164884 0.000000 0.500000
O O8 0.250000 0.750000 0.122648
O O9 0.000000 0.708847 0.120973
O O10 0.165850 0.709522 0.000000
O O11 0.165024 0.500000 0.357606
O O12 0.240154 0.431104 0.278532
O O13 0.000000 0.429109 0.358046
O O14 0.500000 0.554693 0.229560
O O15 0.290231 0.500000 0.189095
#
# Coordination Sequence:
#
# PCOD8275130 Si02
#       5
#    16   8  16  16  16
#     4   9  17  28  41  57  77 102 134 170 204 237
#     4   9  15  23  37  55  73  93 120 155 194 237
#     4   9  16  26  41  59  77  96 120 154 198 246
#     4   9  16  25  37  53  73  97 126 160 197 235
#     4   9  17  28  40  54  75 105 139 171 201 232
#
# _framework density 14.560028000000001
#
# number of rings (size 3 to 8) (size 9 to 14) (size 15 to 20)
#    0.000    3.000    0.000    1.667    0.000    8.000 
#    0.000    2.222    0.000    0.000    0.000    6.222 
#    0.000    0.000    0.000    1.000    0.000   13.444 
#
# Total GULP energy -446354.568503 kJ/mol
# GULP energy per Si atom -12398.738014 kJ/mol
# Density = 1.452689 g / cm^3
# Si number density = 14.560028 Si / 1000 Ang^3
#
#
#
# Elastic Constant Matrix: (Units=GPa)
#
#
# Indices 1 2 3 4 5 6 
#
# 1 103.7847 44.1124 52.8328 0.0000 0.0000 0.0000
# 2 44.1124 67.4836 42.0903 0.0000 0.0000 0.0000
# 3 52.8328 42.0903 86.1903 0.0000 0.0000 0.0000
# 4 0.0000 0.0000 0.0000 1.2116 0.0000 0.0000
# 5 0.0000 0.0000 0.0000 0.0000 19.1840 0.0000
# 6 0.0000 0.0000 0.0000 0.0000 0.0000 19.0116
#
#
#
# Elastic Compliance Matrix: (Units=1/GPa)
#
#
# Indices 1 2 3 4 5 6 
#
# 1 0.015563 -0.006073 -0.006574 0.000000 0.000000 0.000000
# 2 -0.006073 0.023678 -0.007841 0.000000 0.000000 0.000000
# 3 -0.006574 -0.007841 0.019461 0.000000 0.000000 0.000000
# 4 0.000000 0.000000 0.000000 0.825371 0.000000 0.000000
# 5 0.000000 0.000000 0.000000 0.000000 0.052127 0.000000
# 6 0.000000 0.000000 0.000000 0.000000 0.000000 0.052600
#
#
# Mechanical properties :
#
#
# Convention : Reuss Voigt Hill
#
# Bulk Modulus (GPa) = 56.41074 59.50331 57.95702
# Shear Modulus (GPa) = 4.82773 15.77630 10.30201
#
# Velocity S-wave (km/s) = 1.82289 3.29528 2.66288
# Velocity P-wave (km/s) = 6.57710 7.44545 7.02471
#
# Compressibility (1/GPa) = 0.01772712
#
# Stress axis : x y z
#
# Youngs Moduli (GPa) = 64.25384 42.23258 51.38464
#
# Poissons Ratio (x) = 0.25647 0.33782
# Poissons Ratio (y) = 0.39020 0.40289
# Poissons Ratio (z) = 0.42243 0.33113
#
# Static dielectric constant tensor:
#      x y z
#    x 3.018460 0.000000 0.000000 
#    y 0.000000 2.560090 0.000000 
#    z 0.000000 0.000000 2.717940 
# 
# 
# High freq. dielectric constant tensor:
#      x y z
#    x 1.570560 0.000000 0.000000 
#    y 0.000000 1.512080 0.000000 
#    z 0.000000 0.000000 1.533220 
# 
# From -- ./inp_files/37006.got.cif
#   From: 2010.03.12/outbox.cif.g09.slc.cpg/sg65_19_cif.got.tgz:37006.got - 2010.04.10 20:52:16.
