data_PCOD8275189
_publ_section_title
;
Structure prediction by ZEFSAII (Michael W. Deem and Ramdas Pophale) SiO2 
 PCOD8275189
Probable space group: C M M M
;
_chemical_formula_sum "Si O2"
_cell_formula_units_Z 120
_cell_length_a 24.976964
_cell_length_b 27.826174
_cell_length_c 9.786934
_cell_angle_alpha 90.000000
_cell_angle_beta 90.000000
_cell_angle_gamma 90.000000
_cell_volume 6802.049749
_symmetry_space_group_name_H-M "C M M M"
_symmetry_group_IT_number 65
_symmetry_cell_setting 'orthorhombic'
loop_
_space_group_symop_operation_xyz
x,y,z
-x,-y,z
x,-y,-z
-x,y,-z
-x,-y,-z
x,y,-z
-x,y,z
x,-y,z
1/2+x,1/2+y,z
1/2-x,1/2-y,z
1/2+x,1/2-y,-z
1/2-x,1/2+y,-z
1/2-x,1/2-y,-z
1/2+x,1/2+y,-z
1/2-x,1/2+y,z
1/2+x,1/2-y,z
loop_
_atom_site_type_symbol
_atom_site_label
_atom_site_fract_x
_atom_site_fract_y
_atom_site_fract_z
Si Si1 0.649281 0.446248 0.337967
Si Si2 0.635705 0.914268 0.838800
Si Si3 0.560098 0.000000 0.838341
Si Si4 0.120099 0.307546 0.156442
Si Si5 0.562325 0.630026 0.659608
Si Si6 0.286368 0.795906 0.349992
Si Si7 0.738924 0.097887 0.341145
Si Si8 0.437835 0.285076 0.150261
O O1 0.649971 0.447014 0.500000
O O2 0.641478 0.500000 0.279046
O O3 0.598951 0.414193 0.288618
O O4 0.706238 0.425738 0.286304
O O5 0.592515 0.953191 0.789135
O O6 0.607821 0.862859 0.804522
O O7 0.689951 0.921166 0.751868
O O8 0.649247 0.919720 0.000000
O O9 0.500000 0.000000 0.774836
O O10 0.555324 0.000000 0.000000
O O11 0.169453 0.286972 0.238395
O O12 0.071991 0.270826 0.190683
O O13 0.136956 0.305489 0.000000
O O14 0.570893 0.640398 0.500000
O O15 0.500000 0.617989 0.690849
O O16 0.584093 0.677297 0.738338
O O17 0.313097 0.799612 0.500000
O O18 0.250000 0.750000 0.340667
O O19 0.253662 0.844896 0.321837
O O20 0.727839 0.084366 0.500000
O O21 0.500000 0.292867 0.142377
O O22 0.412450 0.295730 0.000000
#
# Coordination Sequence:
#
# PCOD8275189 Si02
#       8
#    16  16   8  16  16  16  16  16
#     4   9  18  31  49  74  99 125 163 207 246 292
#     4   9  18  33  51  72 100 129 160 202 245 285
#     4   9  18  32  53  79 101 127 164 203 246 290
#     4   9  18  31  47  69  96 126 159 196 239 284
#     4   9  18  32  51  74  98 126 161 203 249 292
#     4   9  18  30  46  69  95 126 159 194 237 284
#     4   9  18  32  49  71  97 129 165 196 238 292
#     4   9  18  32  49  70  97 129 162 195 238 291
#
# _framework density 17.641741
#
# number of rings (size 3 to 8) (size 9 to 14) (size 15 to 20)
#    0.000    3.000    0.000    0.000    2.800    1.600 
#    0.000    4.667    0.000    2.000    0.000    5.600 
#    0.000    0.000    0.000    0.000    0.000    0.000 
#
# Total GULP energy -743547.082736 kJ/mol
# GULP energy per Si atom -12392.451379 kJ/mol
# Density = 1.760159 g / cm^3
# Si number density = 17.641741 Si / 1000 Ang^3
#
#
#
# Elastic Constant Matrix: (Units=GPa)
#
#
# Indices 1 2 3 4 5 6 
#
# 1 95.6038 70.8521 36.0527 0.0000 0.0000 0.0000
# 2 70.8521 135.2068 44.2434 0.0000 0.0000 0.0000
# 3 36.0527 44.2434 42.5033 0.0000 0.0000 0.0000
# 4 0.0000 0.0000 0.0000 26.0974 0.0000 0.0000
# 5 0.0000 0.0000 0.0000 0.0000 22.1608 0.0000
# 6 0.0000 0.0000 0.0000 0.0000 0.0000 31.0544
#
#
#
# Elastic Compliance Matrix: (Units=1/GPa)
#
#
# Indices 1 2 3 4 5 6 
#
# 1 0.019023 -0.007111 -0.008735 0.000000 0.000000 0.000000
# 2 -0.007111 0.013875 -0.008411 0.000000 0.000000 0.000000
# 3 -0.008735 -0.008411 0.039692 0.000000 0.000000 0.000000
# 4 0.000000 0.000000 0.000000 0.038318 0.000000 0.000000
# 5 0.000000 0.000000 0.000000 0.000000 0.045125 0.000000
# 6 0.000000 0.000000 0.000000 0.000000 0.000000 0.032202
#
#
# Mechanical properties :
#
#
# Convention : Reuss Voigt Hill
#
# Bulk Modulus (GPa) = 41.53278 63.95672 52.74475
# Shear Modulus (GPa) = 20.42711 24.00689 22.21700
#
# Velocity S-wave (km/s) = 3.40646 3.69291 3.55257
# Velocity P-wave (km/s) = 6.25023 7.38344 6.84034
#
# Compressibility (1/GPa) = 0.02407737
#
# Stress axis : x y z
#
# Youngs Moduli (GPa) = 52.56697 72.07411 25.19393
#
# Poissons Ratio (x) = 0.51249 0.22006
# Poissons Ratio (y) = 0.37378 0.21191
# Poissons Ratio (z) = 0.45915 0.60623
#
# Static dielectric constant tensor:
#      x y z
#    x 3.232690 0.000000 0.000000 
#    y 0.000000 3.557300 0.000000 
#    z 0.000000 0.000000 3.326540 
# 
# 
# High freq. dielectric constant tensor:
#      x y z
#    x 1.667880 0.000000 0.000000 
#    y 0.000000 1.694530 0.000000 
#    z 0.000000 0.000000 1.660390 
# 
# From -- ./inp_files/29684.got.cif
#   From: 2010.03.12/outbox.cif.g09.slc.cpg/sg65_15_cif.got.tgz:29684.got - 2010.04.10 20:52:16.
