data_PCOD8275436
_publ_section_title
;
Structure prediction by ZEFSAII (Michael W. Deem and Ramdas Pophale) SiO2 
 PCOD8275436
Probable space group: C C C M
;
_chemical_formula_sum "Si O2"
_cell_formula_units_Z 96
_cell_length_a 28.595898
_cell_length_b 26.197844
_cell_length_c 8.854194
_cell_angle_alpha 90.000000
_cell_angle_beta 90.000000
_cell_angle_gamma 90.000000
_cell_volume 6633.127181
_symmetry_space_group_name_H-M "C C C M"
_symmetry_group_IT_number 66
_symmetry_cell_setting 'orthorhombic'
loop_
_space_group_symop_operation_xyz
x,y,z
-x,-y,z
x,-y,1/2-z
-x,y,1/2-z
-x,-y,-z
x,y,-z
-x,y,1/2+z
x,-y,1/2+z
1/2+x,1/2+y,z
1/2-x,1/2-y,z
1/2+x,1/2-y,1/2-z
1/2-x,1/2+y,1/2-z
1/2-x,1/2-y,-z
1/2+x,1/2+y,-z
1/2-x,1/2+y,1/2+z
1/2+x,1/2-y,1/2+z
loop_
_atom_site_type_symbol
_atom_site_label
_atom_site_fract_x
_atom_site_fract_y
_atom_site_fract_z
Si Si1 0.547776 0.282672 0.321362
Si Si2 0.858895 0.245932 0.822748
Si Si3 0.356268 0.553680 0.679284
Si Si4 0.220891 0.698365 0.329540
Si Si5 0.698298 0.644522 0.322938
Si Si6 0.047044 0.899892 0.322771
O O1 0.500000 0.260957 0.250000
O O2 0.546615 0.276000 0.500000
O O3 0.590420 0.250638 0.253198
O O4 0.554142 0.341480 0.271741
O O5 0.828266 0.291774 0.753345
O O6 0.835883 0.191432 0.784246
O O7 0.863228 0.254609 0.000000
O O8 0.341937 0.500000 0.750000
O O9 0.353745 0.551115 0.500000
O O10 0.319591 0.595049 0.736518
O O11 0.408448 0.568255 0.735112
O O12 0.211887 0.679182 0.500000
O O13 0.250000 0.750000 0.329912
O O14 0.249568 0.655864 0.237093
O O15 0.700408 0.633647 0.500000
O O16 0.041323 0.903917 0.500000
O O17 0.000000 0.923033 0.250000
#
# Coordination Sequence:
#
# PCOD8275436 Si02
#       6
#    16  16  16  16  16  16
#     4  10  18  29  43  61  83 110 141 173 213 256
#     4  10  18  28  44  65  86 108 136 170 207 250
#     4  11  22  35  47  62  80 105 138 176 220 265
#     4   9  17  28  44  64  85 108 132 163 204 249
#     4  10  19  31  46  63  83 106 133 171 212 254
#     4   9  19  32  46  59  76 101 134 175 219 262
#
# _framework density 14.472810000000001
#
# number of rings (size 3 to 8) (size 9 to 14) (size 15 to 20)
#    0.000    2.167    1.667    2.500    0.000    5.667 
#    0.000    1.667    0.000    0.000    0.000    0.000 
#    0.000    0.000    0.000    0.000    0.000    0.833 
#
# Total GULP energy -595308.701806 kJ/mol
# GULP energy per Si atom -12402.264621 kJ/mol
# Density = 1.443987 g / cm^3
# Si number density = 14.472810 Si / 1000 Ang^3
#
#
#
# Elastic Constant Matrix: (Units=GPa)
#
#
# Indices 1 2 3 4 5 6 
#
# 1 110.3982 48.4617 51.2095 0.0000 0.0000 0.0000
# 2 48.4617 48.5407 27.4972 0.0000 0.0000 0.0000
# 3 51.2095 27.4972 75.6761 0.0000 0.0000 0.0000
# 4 0.0000 0.0000 0.0000 18.4776 0.0000 0.0000
# 5 0.0000 0.0000 0.0000 0.0000 29.8120 0.0000
# 6 0.0000 0.0000 0.0000 0.0000 0.0000 1.5565
#
#
#
# Elastic Compliance Matrix: (Units=1/GPa)
#
#
# Indices 1 2 3 4 5 6 
#
# 1 0.019003 -0.014716 -0.007512 0.000000 0.000000 0.000000
# 2 -0.014716 0.037338 -0.003608 0.000000 0.000000 0.000000
# 3 -0.007512 -0.003608 0.019608 0.000000 0.000000 0.000000
# 4 0.000000 0.000000 0.000000 0.054119 0.000000 0.000000
# 5 0.000000 0.000000 0.000000 0.000000 0.033544 0.000000
# 6 0.000000 0.000000 0.000000 0.000000 0.000000 0.642475
#
#
# Mechanical properties :
#
#
# Convention : Reuss Voigt Hill
#
# Bulk Modulus (GPa) = 41.19304 54.32798 47.76051
# Shear Modulus (GPa) = 5.77466 17.13234 11.45350
#
# Velocity S-wave (km/s) = 1.99967 3.44431 2.81620
# Velocity P-wave (km/s) = 5.81857 7.31007 6.60655
#
# Compressibility (1/GPa) = 0.02427595
#
# Stress axis : x y z
#
# Youngs Moduli (GPa) = 52.62435 26.78253 50.99866
#
# Poissons Ratio (x) = 0.39414 0.38308
# Poissons Ratio (y) = 0.77445 0.18402
# Poissons Ratio (z) = 0.39530 0.09664
#
# Static dielectric constant tensor:
#      x y z
#    x 2.894620 0.000000 0.000000 
#    y 0.000000 2.482430 0.000000 
#    z 0.000000 0.000000 2.908450 
# 
# 
# High freq. dielectric constant tensor:
#      x y z
#    x 1.549010 0.000000 0.000000 
#    y 0.000000 1.498110 0.000000 
#    z 0.000000 0.000000 1.571750 
# 
# From -- ./inp_files/7959.got.cif
#   From: 2010.03.12/outbox.cif.g09.slc.cpg/sg66_4_cif.got.tgz:7959.got - 2010.04.10 21:57:39.
