data_PCOD8275851
_publ_section_title
;
Structure prediction by ZEFSAII (Michael W. Deem and Ramdas Pophale) SiO2 
 PCOD8275851
Probable space group: C C C M
;
_chemical_formula_sum "Si O2"
_cell_formula_units_Z 64
_cell_length_a 16.351818
_cell_length_b 8.536288
_cell_length_c 24.301797
_cell_angle_alpha 90.000000
_cell_angle_beta 90.000000
_cell_angle_gamma 90.000000
_cell_volume 3392.137847
_symmetry_space_group_name_H-M "C C C M"
_symmetry_group_IT_number 66
_symmetry_cell_setting 'orthorhombic'
loop_
_space_group_symop_operation_xyz
x,y,z
-x,-y,z
x,-y,1/2-z
-x,y,1/2-z
-x,-y,-z
x,y,-z
-x,y,1/2+z
x,-y,1/2+z
1/2+x,1/2+y,z
1/2-x,1/2-y,z
1/2+x,1/2-y,1/2-z
1/2-x,1/2+y,1/2-z
1/2-x,1/2-y,-z
1/2+x,1/2+y,-z
1/2-x,1/2+y,1/2+z
1/2+x,1/2-y,1/2+z
loop_
_atom_site_type_symbol
_atom_site_label
_atom_site_fract_x
_atom_site_fract_y
_atom_site_fract_z
Si Si1 0.590363 0.944425 0.000000
Si Si2 0.264855 0.067100 0.689392
Si Si3 0.910769 0.076154 0.500000
Si Si4 0.673191 0.641711 0.105415
Si Si5 0.093529 0.548489 0.619263
O O1 0.582379 0.760195 0.000000
O O2 0.629911 0.000089 0.058039
O O3 0.500000 0.000000 0.000000
O O4 0.250000 0.250000 0.690158
O O5 0.260995 0.000000 0.750000
O O6 0.196617 0.976554 0.653966
O O7 0.354873 0.041481 0.664837
O O8 0.859517 0.033177 0.444936
O O9 0.000000 0.000000 0.500000
O O10 0.750000 0.750000 0.086954
O O11 0.602856 0.762635 0.126503
O O12 0.000000 0.500000 0.626766
#
# Coordination Sequence:
#
# PCOD8275851 Si02
#       5
#     8  16   8  16  16
#     4   8  16  31  51  78 113 145 170 207 268 329
#     4  11  23  39  57  78 107 145 189 236 280 328
#     4  10  19  31  55  86 115 141 177 227 269 313
#     4   9  19  36  56  80 112 150 182 216 272 336
#     4   9  18  35  59  83 111 147 183 221 269 330
#
# _framework density 18.867158
#
# number of rings (size 3 to 8) (size 9 to 14) (size 15 to 20)
#    0.000    2.500    0.000    2.625    0.000    9.500 
#    0.000    1.250    0.000    5.250    0.000    0.000 
#    0.000    0.000    0.000    0.000    0.000    0.000 
#
# Total GULP energy -396449.841925 kJ/mol
# GULP energy per Si atom -12389.057560 kJ/mol
# Density = 1.882422 g / cm^3
# Si number density = 18.867158 Si / 1000 Ang^3
#
#
#
# Elastic Constant Matrix: (Units=GPa)
#
#
# Indices 1 2 3 4 5 6 
#
# 1 107.2187 56.0539 74.9860 0.0000 0.0000 0.0000
# 2 56.0539 91.7295 69.7273 0.0000 0.0000 0.0000
# 3 74.9860 69.7273 185.2729 0.0000 0.0000 0.0000
# 4 0.0000 0.0000 0.0000 28.4607 0.0000 0.0000
# 5 0.0000 0.0000 0.0000 0.0000 20.9503 0.0000
# 6 0.0000 0.0000 0.0000 0.0000 0.0000 39.0929
#
#
#
# Elastic Compliance Matrix: (Units=1/GPa)
#
#
# Indices 1 2 3 4 5 6 
#
# 1 0.015375 -0.006535 -0.003764 0.000000 0.000000 0.000000
# 2 -0.006535 0.018047 -0.004147 0.000000 0.000000 0.000000
# 3 -0.003764 -0.004147 0.008482 0.000000 0.000000 0.000000
# 4 0.000000 0.000000 0.000000 0.035136 0.000000 0.000000
# 5 0.000000 0.000000 0.000000 0.000000 0.047732 0.000000
# 6 0.000000 0.000000 0.000000 0.000000 0.000000 0.025580
#
#
# Mechanical properties :
#
#
# Convention : Reuss Voigt Hill
#
# Bulk Modulus (GPa) = 76.84593 87.30617 82.07605
# Shear Modulus (GPa) = 27.23597 29.93105 28.58351
#
# Velocity S-wave (km/s) = 3.80355 3.98730 3.89651
# Velocity P-wave (km/s) = 7.75292 8.22026 7.99001
#
# Compressibility (1/GPa) = 0.01301305
#
# Stress axis : x y z
#
# Youngs Moduli (GPa) = 65.04006 55.40987 117.90360
#
# Poissons Ratio (x) = 0.36208 0.44373
# Poissons Ratio (y) = 0.42501 0.48898
# Poissons Ratio (z) = 0.24478 0.22980
#
# Static dielectric constant tensor:
#      x y z
#    x 3.471940 0.000000 0.000000 
#    y 0.000000 3.440240 0.000000 
#    z 0.000000 0.000000 3.679860 
# 
# 
# High freq. dielectric constant tensor:
#      x y z
#    x 1.723730 0.000000 0.000000 
#    y 0.000000 1.720130 0.000000 
#    z 0.000000 0.000000 1.743080 
# 
# From -- ./inp_files/46657.got.cif
#   From: 2010.03.12/outbox.cif.g09.slc.cpg/sg66_24_cif.got.tgz:46657.got - 2010.04.10 21:57:39.
