data_PCOD8275304
_publ_section_title
;
Structure prediction by ZEFSAII (Michael W. Deem and Ramdas Pophale) SiO2 
 PCOD8275304
Probable space group: C C C M
;
_chemical_formula_sum "Si O2"
_cell_formula_units_Z 64
_cell_length_a 40.722709
_cell_length_b 10.095948
_cell_length_c 8.656144
_cell_angle_alpha 90.000000
_cell_angle_beta 90.000000
_cell_angle_gamma 90.000000
_cell_volume 3558.838158
_symmetry_space_group_name_H-M "C C C M"
_symmetry_group_IT_number 66
_symmetry_cell_setting 'orthorhombic'
loop_
_space_group_symop_operation_xyz
x,y,z
-x,-y,z
x,-y,1/2-z
-x,y,1/2-z
-x,-y,-z
x,y,-z
-x,y,1/2+z
x,-y,1/2+z
1/2+x,1/2+y,z
1/2-x,1/2-y,z
1/2+x,1/2-y,1/2-z
1/2-x,1/2+y,1/2-z
1/2-x,1/2-y,-z
1/2+x,1/2+y,-z
1/2-x,1/2+y,1/2+z
1/2+x,1/2-y,1/2+z
loop_
_atom_site_type_symbol
_atom_site_label
_atom_site_fract_x
_atom_site_fract_y
_atom_site_fract_z
Si Si1 0.651704 0.361716 0.817959
Si Si2 0.400377 0.854372 0.183460
Si Si3 0.774180 0.862074 0.682941
Si Si4 0.532742 0.852671 0.816336
O O1 0.638496 0.500000 0.750000
O O2 0.629101 0.240570 0.762140
O O3 0.688734 0.332898 0.759501
O O4 0.650531 0.374900 0.000000
O O5 0.433641 0.788155 0.253142
O O6 0.393405 0.000000 0.250000
O O7 0.403600 0.864065 0.000000
O O8 0.772598 0.868254 0.500000
O O9 0.750000 0.750000 0.748883
O O10 0.761307 0.000000 0.750000
O O11 0.500000 0.779272 0.750000
O O12 0.532794 0.000000 0.750000
O O13 0.532057 0.852190 0.000000
#
# Coordination Sequence:
#
# PCOD8275304 Si02
#       4
#    16  16  16  16
#     4   9  19  34  51  70  96 130 164 198 239 288
#     4  10  19  31  47  71  99 126 160 201 242 284
#     4   9  18  33  51  72  98 127 161 200 241 286
#     4  10  17  27  44  67  95 126 158 195 240 285
#
# _framework density 17.983395999999999
#
# number of rings (size 3 to 8) (size 9 to 14) (size 15 to 20)
#    0.000    2.500    0.000    5.250    0.000    3.500 
#    0.000    0.000    0.000    0.750    0.000    5.250 
#    0.000    0.000    0.000    0.000    0.000    0.000 
#
# Total GULP energy -396677.707693 kJ/mol
# GULP energy per Si atom -12396.178365 kJ/mol
# Density = 1.794247 g / cm^3
# Si number density = 17.983396 Si / 1000 Ang^3
#
#
#
# Elastic Constant Matrix: (Units=GPa)
#
#
# Indices 1 2 3 4 5 6 
#
# 1 139.7733 88.1195 41.9978 0.0000 0.0000 0.0000
# 2 88.1195 110.0766 33.2497 0.0000 0.0000 0.0000
# 3 41.9978 33.2497 75.4940 0.0000 0.0000 0.0000
# 4 0.0000 0.0000 0.0000 23.9563 0.0000 0.0000
# 5 0.0000 0.0000 0.0000 0.0000 27.4115 0.0000
# 6 0.0000 0.0000 0.0000 0.0000 0.0000 13.8603
#
#
#
# Elastic Compliance Matrix: (Units=1/GPa)
#
#
# Indices 1 2 3 4 5 6 
#
# 1 0.015240 -0.011118 -0.003581 0.000000 0.000000 0.000000
# 2 -0.011118 0.018590 -0.002002 0.000000 0.000000 0.000000
# 3 -0.003581 -0.002002 0.016120 0.000000 0.000000 0.000000
# 4 0.000000 0.000000 0.000000 0.041743 0.000000 0.000000
# 5 0.000000 0.000000 0.000000 0.000000 0.036481 0.000000
# 6 0.000000 0.000000 0.000000 0.000000 0.000000 0.072148
#
#
# Mechanical properties :
#
#
# Convention : Reuss Voigt Hill
#
# Bulk Modulus (GPa) = 60.43637 72.45308 66.44473
# Shear Modulus (GPa) = 20.89936 23.84408 22.37172
#
# Velocity S-wave (km/s) = 3.41273 3.64523 3.53089
# Velocity P-wave (km/s) = 7.01489 7.62190 7.32468
#
# Compressibility (1/GPa) = 0.01654633
#
# Stress axis : x y z
#
# Youngs Moduli (GPa) = 65.61676 53.79253 62.03365
#
# Poissons Ratio (x) = 0.59808 0.22216
# Poissons Ratio (y) = 0.72955 0.12421
# Poissons Ratio (z) = 0.23499 0.10771
#
# Static dielectric constant tensor:
#      x y z
#    x 4.309420 0.000000 0.000000 
#    y 0.000000 3.111000 0.000000 
#    z 0.000000 0.000000 3.265860 
# 
# 
# High freq. dielectric constant tensor:
#      x y z
#    x 1.713150 0.000000 0.000000 
#    y 0.000000 1.659300 0.000000 
#    z 0.000000 0.000000 1.700230 
# 
# From -- ./inp_files/11202.got.cif
#   From: 2010.03.12/outbox.cif.g09.slc.cpg/sg66_6_cif.got.tgz:11202.got - 2010.04.10 21:57:39.
