data_PCOD8275087
_publ_section_title
;
Structure prediction by ZEFSAII (Michael W. Deem and Ramdas Pophale) SiO2 
 PCOD8275087
Probable space group: C M M M
;
_chemical_formula_sum "Si O2"
_cell_formula_units_Z 88
_cell_length_a 9.333372
_cell_length_b 19.531440
_cell_length_c 29.375743
_cell_angle_alpha 90.000000
_cell_angle_beta 90.000000
_cell_angle_gamma 90.000000
_cell_volume 5355.027429
_symmetry_space_group_name_H-M "C M M M"
_symmetry_group_IT_number 65
_symmetry_cell_setting 'orthorhombic'
loop_
_space_group_symop_operation_xyz
x,y,z
-x,-y,z
x,-y,-z
-x,y,-z
-x,-y,-z
x,y,-z
-x,y,z
x,-y,z
1/2+x,1/2+y,z
1/2-x,1/2-y,z
1/2+x,1/2-y,-z
1/2-x,1/2+y,-z
1/2-x,1/2-y,-z
1/2+x,1/2+y,-z
1/2-x,1/2+y,z
1/2+x,1/2-y,z
loop_
_atom_site_type_symbol
_atom_site_label
_atom_site_fract_x
_atom_site_fract_y
_atom_site_fract_z
Si Si1 0.159302 0.574865 0.879536
Si Si2 0.831934 0.681210 0.296615
Si Si3 0.332608 0.818170 0.447910
Si Si4 0.831706 0.000000 0.052711
Si Si5 0.169605 0.423287 0.627447
Si Si6 0.167915 0.682408 0.806748
O O1 0.149483 0.500000 0.856085
O O2 0.262902 0.568365 0.923897
O O3 0.223660 0.624805 0.841482
O O4 0.000000 0.598718 0.895212
O O5 0.750000 0.750000 0.311279
O O6 0.779230 0.618376 0.327951
O O7 0.794107 0.660728 0.244794
O O8 0.000000 0.695426 0.303234
O O9 0.297404 0.837097 0.500000
O O10 0.500000 0.803677 0.440428
O O11 0.250000 0.750000 0.432510
O O12 0.279942 0.882026 0.417437
O O13 0.000000 0.000000 0.060985
O O14 0.791058 0.000000 0.000000
O O15 0.237154 0.500000 0.627456
O O16 0.000000 0.429824 0.627618
O O17 0.250000 0.750000 0.821326
O O18 0.000000 0.695330 0.811868
#
# Coordination Sequence:
#
# PCOD8275087 Si02
#       6
#    16  16  16   8  16  16
#     4   8  16  29  45  66  91 119 151 185 221 264
#     4   9  17  29  46  65  86 116 150 183 219 263
#     4   9  17  29  46  66  87 113 146 184 224 268
#     4   9  17  29  47  71  95 119 151 189 226 263
#     4   9  17  28  43  66  90 113 146 186 226 265
#     4   9  17  29  45  67  92 119 150 185 226 268
#
# _framework density 16.433156
#
# number of rings (size 3 to 8) (size 9 to 14) (size 15 to 20)
#    0.545    2.636    0.000    0.545    0.000    2.545 
#    0.000    5.455    0.000    2.727    0.000    2.545 
#    0.000    0.000    0.000    0.000    0.000    0.000 
#
# Total GULP energy -545263.257478 kJ/mol
# GULP energy per Si atom -12392.346761 kJ/mol
# Density = 1.639575 g / cm^3
# Si number density = 16.433156 Si / 1000 Ang^3
#
#
#
# Elastic Constant Matrix: (Units=GPa)
#
#
# Indices 1 2 3 4 5 6 
#
# 1 35.8284 37.2649 39.2418 0.0000 0.0000 0.0000
# 2 37.2649 132.3149 86.6576 0.0000 0.0000 0.0000
# 3 39.2418 86.6576 126.9426 0.0000 0.0000 0.0000
# 4 0.0000 0.0000 0.0000 26.9459 0.0000 0.0000
# 5 0.0000 0.0000 0.0000 0.0000 18.9176 0.0000
# 6 0.0000 0.0000 0.0000 0.0000 0.0000 22.3359
#
#
#
# Elastic Compliance Matrix: (Units=1/GPa)
#
#
# Indices 1 2 3 4 5 6 
#
# 1 0.045051 -0.006451 -0.009522 0.000000 0.000000 0.000000
# 2 -0.006451 0.014593 -0.007968 0.000000 0.000000 0.000000
# 3 -0.009522 -0.007968 0.016260 0.000000 0.000000 0.000000
# 4 0.000000 0.000000 0.000000 0.037111 0.000000 0.000000
# 5 0.000000 0.000000 0.000000 0.000000 0.052861 0.000000
# 6 0.000000 0.000000 0.000000 0.000000 0.000000 0.044771
#
#
# Mechanical properties :
#
#
# Convention : Reuss Voigt Hill
#
# Bulk Modulus (GPa) = 35.68750 69.04606 52.36678
# Shear Modulus (GPa) = 18.66577 22.43465 20.55021
#
# Velocity S-wave (km/s) = 3.37391 3.69888 3.54012
# Velocity P-wave (km/s) = 6.07796 7.76851 6.97465
#
# Compressibility (1/GPa) = 0.02802101
#
# Stress axis : x y z
#
# Youngs Moduli (GPa) = 22.19730 68.52642 61.49942
#
# Poissons Ratio (x) = 0.44209 0.58562
# Poissons Ratio (y) = 0.14320 0.49000
# Poissons Ratio (z) = 0.21137 0.54599
#
# Static dielectric constant tensor:
#      x y z
#    x 2.898050 0.000000 0.000000 
#    y 0.000000 3.155540 0.000000 
#    z 0.000000 0.000000 3.126190 
# 
# 
# High freq. dielectric constant tensor:
#      x y z
#    x 1.611040 0.000000 0.000000 
#    y 0.000000 1.620130 0.000000 
#    z 0.000000 0.000000 1.632140 
# 
# From -- ./inp_files/76801.got.cif
#   From: 2010.03.12/outbox.cif.g09.slc.cpg/sg65_39_cif.got.tgz:76801.got - 2010.04.10 20:52:16.
