data_PCOD8275747
_publ_section_title
;
Structure prediction by ZEFSAII (Michael W. Deem and Ramdas Pophale) SiO2 
 PCOD8275747
Probable space group: C C C M
;
_chemical_formula_sum "Si O2"
_cell_formula_units_Z 96
_cell_length_a 18.809335
_cell_length_b 16.390175
_cell_length_c 17.439383
_cell_angle_alpha 90.000000
_cell_angle_beta 90.000000
_cell_angle_gamma 90.000000
_cell_volume 5376.357604
_symmetry_space_group_name_H-M "C C C M"
_symmetry_group_IT_number 66
_symmetry_cell_setting 'orthorhombic'
loop_
_space_group_symop_operation_xyz
x,y,z
-x,-y,z
x,-y,1/2-z
-x,y,1/2-z
-x,-y,-z
x,y,-z
-x,y,1/2+z
x,-y,1/2+z
1/2+x,1/2+y,z
1/2-x,1/2-y,z
1/2+x,1/2-y,1/2-z
1/2-x,1/2+y,1/2-z
1/2-x,1/2-y,-z
1/2+x,1/2+y,-z
1/2-x,1/2+y,1/2+z
1/2+x,1/2-y,1/2+z
loop_
_atom_site_type_symbol
_atom_site_label
_atom_site_fract_x
_atom_site_fract_y
_atom_site_fract_z
Si Si1 0.827319 0.732199 0.181772
Si Si2 0.836994 0.835317 0.672048
Si Si3 0.463175 0.745477 0.589294
Si Si4 0.612624 0.819128 0.591050
Si Si5 0.983102 0.089270 0.161304
Si Si6 0.692866 0.086638 0.792639
O O1 0.750000 0.750000 0.143165
O O2 0.846441 0.804736 0.240675
O O3 0.889197 0.719894 0.120378
O O4 0.824357 0.647688 0.225148
O O5 0.835233 0.755956 0.615966
O O6 0.900392 0.894096 0.646902
O O7 0.767427 0.891537 0.666318
O O8 0.458808 0.751960 0.500000
O O9 0.532101 0.796581 0.617508
O O10 0.469196 0.651758 0.613860
O O11 0.618745 0.834538 0.500000
O O12 0.634849 0.900863 0.638535
O O13 0.000000 0.098077 0.250000
O O14 0.000000 0.000000 0.129292
O O15 0.691837 0.000000 0.750000
#
# Coordination Sequence:
#
# PCOD8275747 Si02
#       6
#    16  16  16  16  16  16
#     4   9  18  34  53  74 102 137 180 212 257 316
#     4   9  18  32  53  79 107 138 177 211 250 321
#     4  10  20  35  54  75 103 138 179 220 257 314
#     4   9  19  36  57  80 104 138 180 222 267 312
#     4  10  19  29  52  81 106 138 164 203 258 318
#     4  10  21  33  52  80 108 136 173 228 266 309
#
# _framework density 17.855955999999999
#
# number of rings (size 3 to 8) (size 9 to 14) (size 15 to 20)
#    0.000    2.500    1.667    1.500    2.333    2.000 
#    0.000    2.500    0.000    7.000    0.000    0.000 
#    0.000    0.000    0.000    0.000    0.000    0.000 
#
# Total GULP energy -594894.437373 kJ/mol
# GULP energy per Si atom -12393.634112 kJ/mol
# Density = 1.781531 g / cm^3
# Si number density = 17.855956 Si / 1000 Ang^3
#
#
#
# Elastic Constant Matrix: (Units=GPa)
#
#
# Indices 1 2 3 4 5 6 
#
# 1 112.0694 52.4677 42.3539 0.0000 0.0000 0.0000
# 2 52.4677 87.3739 30.2944 0.0000 0.0000 0.0000
# 3 42.3539 30.2944 56.4754 0.0000 0.0000 0.0000
# 4 0.0000 0.0000 0.0000 21.2728 0.0000 0.0000
# 5 0.0000 0.0000 0.0000 0.0000 28.4576 0.0000
# 6 0.0000 0.0000 0.0000 0.0000 0.0000 21.4392
#
#
#
# Elastic Compliance Matrix: (Units=1/GPa)
#
#
# Indices 1 2 3 4 5 6 
#
# 1 0.014736 -0.006163 -0.007745 0.000000 0.000000 0.000000
# 2 -0.006163 0.016638 -0.004303 0.000000 0.000000 0.000000
# 3 -0.007745 -0.004303 0.025823 0.000000 0.000000 0.000000
# 4 0.000000 0.000000 0.000000 0.047008 0.000000 0.000000
# 5 0.000000 0.000000 0.000000 0.000000 0.035140 0.000000
# 6 0.000000 0.000000 0.000000 0.000000 0.000000 0.046644
#
#
# Mechanical properties :
#
#
# Convention : Reuss Voigt Hill
#
# Bulk Modulus (GPa) = 48.13499 56.23895 52.18697
# Shear Modulus (GPa) = 21.80218 22.95413 22.37815
#
# Velocity S-wave (km/s) = 3.49808 3.58930 3.54398
# Velocity P-wave (km/s) = 6.58265 6.98153 6.78502
#
# Compressibility (1/GPa) = 0.02077491
#
# Stress axis : x y z
#
# Youngs Moduli (GPa) = 67.86330 60.10358 38.72507
#
# Poissons Ratio (x) = 0.37044 0.29992
# Poissons Ratio (y) = 0.41826 0.16662
# Poissons Ratio (z) = 0.52559 0.25861
#
# Static dielectric constant tensor:
#      x y z
#    x 3.716190 0.000000 0.000000 
#    y 0.000000 3.186880 0.000000 
#    z 0.000000 0.000000 3.151970 
# 
# 
# High freq. dielectric constant tensor:
#      x y z
#    x 1.703010 0.000000 0.000000 
#    y 0.000000 1.668480 0.000000 
#    z 0.000000 0.000000 1.673410 
# 
# From -- ./inp_files/41763.got.cif
#   From: 2010.03.12/outbox.cif.g09.slc.cpg/sg66_21_cif.got.tgz:41763.got - 2010.04.10 21:57:39.
