data_PCOD8275592
_publ_section_title
;
Structure prediction by ZEFSAII (Michael W. Deem and Ramdas Pophale) SiO2 
 PCOD8275592
Probable space group: C C C M
;
_chemical_formula_sum "Si O2"
_cell_formula_units_Z 96
_cell_length_a 10.996848
_cell_length_b 26.947116
_cell_length_c 17.985124
_cell_angle_alpha 90.000000
_cell_angle_beta 90.000000
_cell_angle_gamma 90.000000
_cell_volume 5329.591842
_symmetry_space_group_name_H-M "C C C M"
_symmetry_group_IT_number 66
_symmetry_cell_setting 'orthorhombic'
loop_
_space_group_symop_operation_xyz
x,y,z
-x,-y,z
x,-y,1/2-z
-x,y,1/2-z
-x,-y,-z
x,y,-z
-x,y,1/2+z
x,-y,1/2+z
1/2+x,1/2+y,z
1/2-x,1/2-y,z
1/2+x,1/2-y,1/2-z
1/2-x,1/2+y,1/2-z
1/2-x,1/2-y,-z
1/2+x,1/2+y,-z
1/2-x,1/2+y,1/2+z
1/2+x,1/2-y,1/2+z
loop_
_atom_site_type_symbol
_atom_site_label
_atom_site_fract_x
_atom_site_fract_y
_atom_site_fract_z
Si Si1 0.107431 0.961054 0.917118
Si Si2 0.972928 0.570648 0.086775
Si Si3 0.170872 0.497048 0.663297
Si Si4 0.108824 0.240350 0.309533
Si Si5 0.635698 0.350659 0.916241
Si Si6 0.409488 0.169623 0.583064
O O1 0.193908 0.979449 0.851903
O O2 0.070483 0.903709 0.899635
O O3 0.167615 0.961590 0.000000
O O4 0.000000 0.000000 0.915669
O O5 0.848822 0.551256 0.125134
O O6 0.081787 0.542301 0.126583
O O7 0.985917 0.629367 0.100488
O O8 0.973715 0.557909 0.000000
O O9 0.145361 0.500000 0.750000
O O10 0.250000 0.250000 0.280431
O O11 0.095288 0.189836 0.356115
O O12 0.073706 0.285421 0.361931
O O13 0.000000 0.238204 0.250000
O O14 0.780561 0.358186 0.909049
O O15 0.602445 0.332481 0.000000
O O16 0.423932 0.191008 0.500000
#
# Coordination Sequence:
#
# PCOD8275592 Si02
#       6
#    16  16  16  16  16  16
#     4  10  20  37  57  76 102 143 191 229 262 313
#     4  10  18  32  54  77 105 141 180 222 266 314
#     4  11  21  32  47  76 112 144 176 215 275 327
#     4  10  21  37  57  85 114 143 178 224 287 340
#     4   9  17  35  59  80 103 140 194 234 258 307
#     4   9  17  32  58  84 104 135 185 233 265 313
#
# _framework density 18.012636000000001
#
# number of rings (size 3 to 8) (size 9 to 14) (size 15 to 20)
#    0.000    2.167    1.667    3.500    0.000    3.667 
#    3.000    0.000    0.000    4.000    0.000    0.000 
#    0.000    0.000    0.000    0.000    0.000    0.000 
#
# Total GULP energy -594741.531450 kJ/mol
# GULP energy per Si atom -12390.448572 kJ/mol
# Density = 1.797164 g / cm^3
# Si number density = 18.012636 Si / 1000 Ang^3
#
#
#
# Elastic Constant Matrix: (Units=GPa)
#
#
# Indices 1 2 3 4 5 6 
#
# 1 60.9269 47.6194 52.7702 0.0000 0.0000 0.0000
# 2 47.6194 134.4031 70.5860 0.0000 0.0000 0.0000
# 3 52.7702 70.5860 127.4456 0.0000 0.0000 0.0000
# 4 0.0000 0.0000 0.0000 -37.9929 0.0000 0.0000
# 5 0.0000 0.0000 0.0000 0.0000 81.0327 0.0000
# 6 0.0000 0.0000 0.0000 0.0000 0.0000 26.0529
#
#
#
# Elastic Compliance Matrix: (Units=1/GPa)
#
#
# Indices 1 2 3 4 5 6 
#
# 1 0.028147 -0.005432 -0.008646 0.000000 0.000000 0.000000
# 2 -0.005432 0.011540 -0.004143 0.000000 0.000000 0.000000
# 3 -0.008646 -0.004143 0.013721 0.000000 0.000000 0.000000
# 4 0.000000 0.000000 0.000000 -0.026321 0.000000 0.000000
# 5 0.000000 0.000000 0.000000 0.000000 0.012341 0.000000
# 6 0.000000 0.000000 0.000000 0.000000 0.000000 0.038383
#
#
# Mechanical properties :
#
#
# Convention : Reuss Voigt Hill
#
# Bulk Modulus (GPa) = 58.93686 73.85854 66.39770
# Shear Modulus (GPa) = 41.69830 23.93855 32.81842
#
# Velocity S-wave (km/s) = 4.81661 3.64948 4.27308
# Velocity P-wave (km/s) = 7.98271 7.67144 7.82863
#
# Compressibility (1/GPa) = 0.01696731
#
# Stress axis : x y z
#
# Youngs Moduli (GPa) = 35.52751 86.65198 72.88144
#
# Poissons Ratio (x) = 0.47068 0.63015
# Poissons Ratio (y) = 0.19298 0.30192
# Poissons Ratio (z) = 0.30718 0.35896
#
# Static dielectric constant tensor:
#      x y z
#    x 3.257070 0.000000 0.000000 
#    y 0.000000 3.387040 0.000000 
#    z 0.000000 0.000000 3.428390 
# 
# 
# High freq. dielectric constant tensor:
#      x y z
#    x 1.663860 0.000000 0.000000 
#    y 0.000000 1.707900 0.000000 
#    z 0.000000 0.000000 1.697210 
# 
# From -- ./inp_files/38977.got.cif
#   From: 2010.03.12/outbox.cif.g09.slc.cpg/sg66_20_cif.got.tgz:38977.got - 2010.04.10 21:57:39.
