data_PCOD8275177
_publ_section_title
;
Structure prediction by ZEFSAII (Michael W. Deem and Ramdas Pophale) SiO2 
 PCOD8275177
Probable space group: C M M M
;
_chemical_formula_sum "Si O2"
_cell_formula_units_Z 88
_cell_length_a 19.472185
_cell_length_b 9.601351
_cell_length_c 27.514727
_cell_angle_alpha 90.000000
_cell_angle_beta 90.000000
_cell_angle_gamma 90.000000
_cell_volume 5144.133630
_symmetry_space_group_name_H-M "C M M M"
_symmetry_group_IT_number 65
_symmetry_cell_setting 'orthorhombic'
loop_
_space_group_symop_operation_xyz
x,y,z
-x,-y,z
x,-y,-z
-x,y,-z
-x,-y,-z
x,y,-z
-x,y,z
x,-y,z
1/2+x,1/2+y,z
1/2-x,1/2-y,z
1/2+x,1/2-y,-z
1/2-x,1/2+y,-z
1/2-x,1/2-y,-z
1/2+x,1/2+y,-z
1/2-x,1/2+y,z
1/2+x,1/2-y,z
loop_
_atom_site_type_symbol
_atom_site_label
_atom_site_fract_x
_atom_site_fract_y
_atom_site_fract_z
Si Si1 0.816568 0.162585 0.079928
Si Si2 0.315010 0.838891 0.444665
Si Si3 0.921302 0.338854 0.363257
Si Si4 0.314925 0.339400 0.191054
Si Si5 0.578677 0.338832 0.727605
Si Si6 0.576768 0.664445 0.000000
O O1 0.750000 0.250000 0.063953
O O2 0.836025 0.193788 0.135705
O O3 0.881354 0.212105 0.047841
O O4 0.800049 0.000000 0.071190
O O5 0.335741 0.803093 0.500000
O O6 0.250000 0.750000 0.427549
O O7 0.379054 0.797949 0.411115
O O8 0.295177 0.000000 0.438962
O O9 0.911968 0.500000 0.349676
O O10 0.893776 0.249984 0.317829
O O11 0.000000 0.301774 0.374824
O O12 0.294545 0.500000 0.197312
O O13 0.250000 0.250000 0.207814
O O14 0.378957 0.298082 0.224569
O O15 0.500000 0.301523 0.739206
O O16 0.587852 0.500000 0.714013
O O17 0.569012 0.500000 0.000000
O O18 0.500000 0.731548 0.000000
#
# Coordination Sequence:
#
# PCOD8275177 Si02
#       6
#    16  16  16  16  16   8
#     4   9  17  30  48  68  91 120 152 186 225 269
#     4   9  18  32  49  69  93 120 149 183 224 268
#     4   9  18  32  49  69  92 119 152 187 223 265
#     4   9  18  31  47  68  92 119 152 188 225 267
#     4   9  18  32  48  66  90 120 152 186 225 267
#     4   9  17  28  45  71  96 117 148 190 230 267
#
# _framework density 17.106864999999999
#
# number of rings (size 3 to 8) (size 9 to 14) (size 15 to 20)
#    0.000    3.000    0.000    0.273    0.000    3.273 
#    0.000    9.091    0.000    1.091    0.000   10.182 
#    0.000    0.000    0.000    0.000    0.000    0.000 
#
# Total GULP energy -545622.207733 kJ/mol
# GULP energy per Si atom -12400.504721 kJ/mol
# Density = 1.706793 g / cm^3
# Si number density = 17.106865 Si / 1000 Ang^3
#
#
#
# Elastic Constant Matrix: (Units=GPa)
#
#
# Indices 1 2 3 4 5 6 
#
# 1 120.8300 48.4809 83.5350 0.0000 0.0000 0.0000
# 2 48.4809 45.8638 47.4065 0.0000 0.0000 0.0000
# 3 83.5350 47.4065 118.2269 0.0000 0.0000 0.0000
# 4 0.0000 0.0000 0.0000 22.9599 0.0000 0.0000
# 5 0.0000 0.0000 0.0000 0.0000 35.6050 0.0000
# 6 0.0000 0.0000 0.0000 0.0000 0.0000 26.6391
#
#
#
# Elastic Compliance Matrix: (Units=1/GPa)
#
#
# Indices 1 2 3 4 5 6 
#
# 1 0.018711 -0.010441 -0.009034 0.000000 0.000000 0.000000
# 2 -0.010441 0.043063 -0.009890 0.000000 0.000000 0.000000
# 3 -0.009034 -0.009890 0.018807 0.000000 0.000000 0.000000
# 4 0.000000 0.000000 0.000000 0.043554 0.000000 0.000000
# 5 0.000000 0.000000 0.000000 0.000000 0.028086 0.000000
# 6 0.000000 0.000000 0.000000 0.000000 0.000000 0.037539
#
#
# Mechanical properties :
#
#
# Convention : Reuss Voigt Hill
#
# Bulk Modulus (GPa) = 45.76402 71.52952 58.64677
# Shear Modulus (GPa) = 19.54852 24.07403 21.81127
#
# Velocity S-wave (km/s) = 3.38410 3.75543 3.57459
# Velocity P-wave (km/s) = 6.48686 7.79157 7.16896
#
# Compressibility (1/GPa) = 0.02185123
#
# Stress axis : x y z
#
# Youngs Moduli (GPa) = 53.44531 23.22160 53.17122
#
# Poissons Ratio (x) = 0.24245 0.48034
# Poissons Ratio (y) = 0.55801 0.52589
# Poissons Ratio (z) = 0.48282 0.22967
#
# Static dielectric constant tensor:
#      x y z
#    x 3.251080 0.000000 0.000000 
#    y 0.000000 3.127990 0.000000 
#    z 0.000000 0.000000 3.307740 
# 
# 
# High freq. dielectric constant tensor:
#      x y z
#    x 1.654810 0.000000 0.000000 
#    y 0.000000 1.647800 0.000000 
#    z 0.000000 0.000000 1.666260 
# 
# From -- ./inp_files/63628.got.cif
#   From: 2010.03.12/outbox.cif.g09.slc.cpg/sg65_32_cif.got.tgz:63628.got - 2010.04.10 20:52:16.
