data_PCOD8275540
_publ_section_title
;
Structure prediction by ZEFSAII (Michael W. Deem and Ramdas Pophale) SiO2 
 PCOD8275540
Probable space group: C C C M
;
_chemical_formula_sum "Si O2"
_cell_formula_units_Z 128
_cell_length_a 20.228168
_cell_length_b 20.505761
_cell_length_c 18.822522
_cell_angle_alpha 90.000000
_cell_angle_beta 90.000000
_cell_angle_gamma 90.000000
_cell_volume 7807.468785
_symmetry_space_group_name_H-M "C C C M"
_symmetry_group_IT_number 66
_symmetry_cell_setting 'orthorhombic'
loop_
_space_group_symop_operation_xyz
x,y,z
-x,-y,z
x,-y,1/2-z
-x,y,1/2-z
-x,-y,-z
x,y,-z
-x,y,1/2+z
x,-y,1/2+z
1/2+x,1/2+y,z
1/2-x,1/2-y,z
1/2+x,1/2-y,1/2-z
1/2-x,1/2+y,1/2-z
1/2-x,1/2-y,-z
1/2+x,1/2+y,-z
1/2-x,1/2+y,1/2+z
1/2+x,1/2-y,1/2+z
loop_
_atom_site_type_symbol
_atom_site_label
_atom_site_fract_x
_atom_site_fract_y
_atom_site_fract_z
Si Si1 0.472834 0.702040 0.581658
Si Si2 0.192071 0.300967 0.577795
Si Si3 0.943998 0.051547 0.580404
Si Si4 0.212277 0.119191 0.353818
Si Si5 0.603023 0.277302 0.833370
Si Si6 0.745791 0.147524 0.303731
Si Si7 0.858355 0.247765 0.676496
Si Si8 0.818473 0.978402 0.830106
O O1 0.484753 0.724551 0.500000
O O2 0.471008 0.624280 0.584802
O O3 0.530308 0.722137 0.635168
O O4 0.407185 0.738948 0.609802
O O5 0.160038 0.296236 0.500000
O O6 0.250000 0.250000 0.591448
O O7 0.230766 0.368475 0.587892
O O8 0.135769 0.288389 0.635551
O O9 0.920487 0.035254 0.500000
O O10 0.884184 0.049911 0.635348
O O11 0.000000 0.000000 0.604273
O O12 0.143308 0.158836 0.361057
O O13 0.245535 0.140273 0.280085
O O14 0.201275 0.043745 0.370061
O O15 0.601837 0.270509 0.748393
O O16 0.799796 0.196593 0.334926
O O17 0.673305 0.178579 0.321038
O O18 0.759462 0.075380 0.336515
O O19 0.834581 0.000000 0.750000
#
# Coordination Sequence:
#
# PCOD8275540 Si02
#       8
#    16  16  16  16  16  16  16  16
#     4  11  22  34  48  73 104 136 175 210 246 296
#     4   9  16  27  45  72 101 129 163 202 250 302
#     4  10  21  36  47  65 105 147 174 202 242 288
#     4   9  17  29  48  74 102 130 161 203 250 300
#     4  10  18  31  50  72 100 134 167 203 251 298
#     4   9  17  32  51  72  96 128 168 218 256 284
#     4  10  18  33  53  69  96 132 171 213 256 296
#     4  10  19  32  50  75  99 131 172 211 248 293
#
# _framework density 16.394558
#
# number of rings (size 3 to 8) (size 9 to 14) (size 15 to 20)
#    0.000    2.250    2.500    1.500    0.000    1.250 
#    2.250    1.875    0.000    0.000    0.000    0.875 
#    0.000    2.000    0.000    0.000    0.000    0.000 
#
# Total GULP energy -793012.346765 kJ/mol
# GULP energy per Si atom -12390.817918 kJ/mol
# Density = 1.635724 g / cm^3
# Si number density = 16.394558 Si / 1000 Ang^3
#
#
#
# Elastic Constant Matrix: (Units=GPa)
#
#
# Indices 1 2 3 4 5 6 
#
# 1 73.0151 41.5138 31.7654 0.0000 0.0000 0.0000
# 2 41.5138 50.6269 13.2911 0.0000 0.0000 0.0000
# 3 31.7654 13.2911 48.6718 0.0000 0.0000 0.0000
# 4 0.0000 0.0000 0.0000 19.1179 0.0000 0.0000
# 5 0.0000 0.0000 0.0000 0.0000 19.3560 0.0000
# 6 0.0000 0.0000 0.0000 0.0000 0.0000 22.6687
#
#
#
# Elastic Compliance Matrix: (Units=1/GPa)
#
#
# Indices 1 2 3 4 5 6 
#
# 1 0.034087 -0.023818 -0.015742 0.000000 0.000000 0.000000
# 2 -0.023818 0.037921 0.005190 0.000000 0.000000 0.000000
# 3 -0.015742 0.005190 0.029403 0.000000 0.000000 0.000000
# 4 0.000000 0.000000 0.000000 0.052307 0.000000 0.000000
# 5 0.000000 0.000000 0.000000 0.000000 0.051664 0.000000
# 6 0.000000 0.000000 0.000000 0.000000 0.000000 0.044114
#
#
# Mechanical properties :
#
#
# Convention : Reuss Voigt Hill
#
# Bulk Modulus (GPa) = 30.61069 38.38384 34.49726
# Shear Modulus (GPa) = 15.19177 17.94475 16.56826
#
# Velocity S-wave (km/s) = 3.04737 3.31200 3.18243
# Velocity P-wave (km/s) = 5.57618 6.17164 5.88145
#
# Compressibility (1/GPa) = 0.03266833
#
# Stress axis : x y z
#
# Youngs Moduli (GPa) = 29.33698 26.37086 34.01030
#
# Poissons Ratio (x) = 0.62810 0.53540
# Poissons Ratio (y) = 0.69875 -0.17650
# Poissons Ratio (z) = 0.46183 -0.13685
#
# Static dielectric constant tensor:
#      x y z
#    x 2.979340 0.000000 0.000000 
#    y 0.000000 3.278950 0.000000 
#    z 0.000000 0.000000 3.064620 
# 
# 
# High freq. dielectric constant tensor:
#      x y z
#    x 1.610770 0.000000 0.000000 
#    y 0.000000 1.615340 0.000000 
#    z 0.000000 0.000000 1.629010 
# 
# From -- ./inp_files/43188.got.cif
#   From: 2010.03.12/outbox.cif.g09.slc.cpg/sg66_22_cif.got.tgz:43188.got - 2010.04.10 21:57:39.
