data_PCOD8275610
_publ_section_title
;
Structure prediction by ZEFSAII (Michael W. Deem and Ramdas Pophale) SiO2 
 PCOD8275610
Probable space group: C C C M
;
_chemical_formula_sum "Si O2"
_cell_formula_units_Z 104
_cell_length_a 13.453593
_cell_length_b 20.019625
_cell_length_c 18.884209
_cell_angle_alpha 90.000000
_cell_angle_beta 90.000000
_cell_angle_gamma 90.000000
_cell_volume 5086.195177
_symmetry_space_group_name_H-M "C C C M"
_symmetry_group_IT_number 66
_symmetry_cell_setting 'orthorhombic'
loop_
_space_group_symop_operation_xyz
x,y,z
-x,-y,z
x,-y,1/2-z
-x,y,1/2-z
-x,-y,-z
x,y,-z
-x,y,1/2+z
x,-y,1/2+z
1/2+x,1/2+y,z
1/2-x,1/2-y,z
1/2+x,1/2-y,1/2-z
1/2-x,1/2+y,1/2-z
1/2-x,1/2-y,-z
1/2+x,1/2+y,-z
1/2-x,1/2+y,1/2+z
1/2+x,1/2-y,1/2+z
loop_
_atom_site_type_symbol
_atom_site_label
_atom_site_fract_x
_atom_site_fract_y
_atom_site_fract_z
Si Si1 0.761812 0.500000 0.750000
Si Si2 0.832455 0.108567 0.422552
Si Si3 0.394815 0.125899 0.718846
Si Si4 0.542762 0.348420 0.917686
Si Si5 0.461854 0.198186 0.582462
Si Si6 0.609473 0.517598 0.366611
Si Si7 0.175831 0.689557 0.647248
O O1 0.826405 0.561807 0.723818
O O2 0.688218 0.485325 0.686394
O O3 0.808985 0.138093 0.500000
O O4 0.735283 0.122370 0.374468
O O5 0.929723 0.145402 0.388725
O O6 0.862201 0.030026 0.432921
O O7 0.500000 0.103333 0.750000
O O8 0.402648 0.150213 0.636982
O O9 0.353428 0.184974 0.769720
O O10 0.580401 0.273164 0.904362
O O11 0.616868 0.402589 0.880830
O O12 0.541638 0.366823 0.000000
O O13 0.443642 0.176923 0.500000
O O14 0.579049 0.196407 0.598098
O O15 0.500000 0.500000 0.338642
O O16 0.250000 0.750000 0.632903
#
# Coordination Sequence:
#
# PCOD8275610 Si02
#       7
#     8  16  16  16  16  16  16
#     4  12  22  42  64  80 114 166 218 264 324 368
#     4  10  18  32  56  90 126 161 200 250 309 375
#     4  10  24  42  63  87 122 166 213 268 321 376
#     4   9  18  34  58  89 131 167 193 243 319 390
#     4  10  21  39  62  93 130 170 212 265 322 384
#     4  10  21  36  57  91 124 165 206 256 312 386
#     4  11  20  35  61  97 126 162 213 265 316 375
#
# _framework density 20.447505
#
# number of rings (size 3 to 8) (size 9 to 14) (size 15 to 20)
#    0.000    1.846    3.077    1.385    0.000    3.692 
#    0.000    3.077    0.000    4.154    0.000    0.000 
#    0.000    0.000    0.000    0.000    0.000    0.000 
#
# Total GULP energy -644210.395101 kJ/mol
# GULP energy per Si atom -12388.661444 kJ/mol
# Density = 2.040097 g / cm^3
# Si number density = 20.447505 Si / 1000 Ang^3
#
#
#
# Elastic Constant Matrix: (Units=GPa)
#
#
# Indices 1 2 3 4 5 6 
#
# 1 87.2763 52.7732 44.9289 0.0000 0.0000 0.0000
# 2 52.7732 118.3251 48.9101 0.0000 0.0000 0.0000
# 3 44.9289 48.9101 121.8068 0.0000 0.0000 0.0000
# 4 0.0000 0.0000 0.0000 26.7025 0.0000 0.0000
# 5 0.0000 0.0000 0.0000 0.0000 29.3830 0.0000
# 6 0.0000 0.0000 0.0000 0.0000 0.0000 29.3537
#
#
#
# Elastic Compliance Matrix: (Units=1/GPa)
#
#
# Indices 1 2 3 4 5 6 
#
# 1 0.017100 -0.006018 -0.003891 0.000000 0.000000 0.000000
# 2 -0.006018 0.012251 -0.002699 0.000000 0.000000 0.000000
# 3 -0.003891 -0.002699 0.010729 0.000000 0.000000 0.000000
# 4 0.000000 0.000000 0.000000 0.037450 0.000000 0.000000
# 5 0.000000 0.000000 0.000000 0.000000 0.034033 0.000000
# 6 0.000000 0.000000 0.000000 0.000000 0.000000 0.034067
#
#
# Mechanical properties :
#
#
# Convention : Reuss Voigt Hill
#
# Bulk Modulus (GPa) = 67.28191 68.95916 68.12054
# Shear Modulus (GPa) = 28.44114 29.14090 28.79102
#
# Velocity S-wave (km/s) = 3.73357 3.77922 3.75646
# Velocity P-wave (km/s) = 7.18068 7.26922 7.22509
#
# Compressibility (1/GPa) = 0.01486284
#
# Stress axis : x y z
#
# Youngs Moduli (GPa) = 58.47996 81.62395 93.20705
#
# Poissons Ratio (x) = 0.49124 0.36265
# Poissons Ratio (y) = 0.35195 0.25161
# Poissons Ratio (z) = 0.22753 0.22034
#
# Static dielectric constant tensor:
#      x y z
#    x 3.683220 0.000000 0.000000 
#    y 0.000000 3.702000 0.000000 
#    z 0.000000 0.000000 3.660570 
# 
# 
# High freq. dielectric constant tensor:
#      x y z
#    x 1.791030 0.000000 0.000000 
#    y 0.000000 1.795780 0.000000 
#    z 0.000000 0.000000 1.792380 
# 
# From -- ./inp_files/40551.got.cif
#   From: 2010.03.12/outbox.cif.g09.slc.cpg/sg66_21_cif.got.tgz:40551.got - 2010.04.10 21:57:39.
