data_PCOD8275904
_publ_section_title
;
Structure prediction by ZEFSAII (Michael W. Deem and Ramdas Pophale) SiO2 
 PCOD8275904
Probable space group: C C C M
;
_chemical_formula_sum "Si O2"
_cell_formula_units_Z 112
_cell_length_a 32.100588
_cell_length_b 12.179108
_cell_length_c 14.665066
_cell_angle_alpha 90.000000
_cell_angle_beta 90.000000
_cell_angle_gamma 90.000000
_cell_volume 5733.403288
_symmetry_space_group_name_H-M "C C C M"
_symmetry_group_IT_number 66
_symmetry_cell_setting 'orthorhombic'
loop_
_space_group_symop_operation_xyz
x,y,z
-x,-y,z
x,-y,1/2-z
-x,y,1/2-z
-x,-y,-z
x,y,-z
-x,y,1/2+z
x,-y,1/2+z
1/2+x,1/2+y,z
1/2-x,1/2-y,z
1/2+x,1/2-y,1/2-z
1/2-x,1/2+y,1/2-z
1/2-x,1/2-y,-z
1/2+x,1/2+y,-z
1/2-x,1/2+y,1/2+z
1/2+x,1/2-y,1/2+z
loop_
_atom_site_type_symbol
_atom_site_label
_atom_site_fract_x
_atom_site_fract_y
_atom_site_fract_z
Si Si1 0.954091 0.734899 0.241979
Si Si2 0.258408 0.377983 0.398262
Si Si3 0.168664 0.471969 0.607496
Si Si4 0.838847 0.114660 0.211132
Si Si5 0.962853 0.926580 0.102522
Si Si6 0.084760 0.135088 0.600197
Si Si7 0.864293 0.661529 0.771096
O O1 0.954232 0.819778 0.159859
O O2 0.946989 0.799252 0.335910
O O3 0.914947 0.655115 0.220859
O O4 0.000000 0.676342 0.250000
O O5 0.275121 0.403556 0.500000
O O6 0.250000 0.250000 0.388288
O O7 0.217818 0.451569 0.379536
O O8 0.292223 0.408246 0.322462
O O9 0.156198 0.463096 0.500000
O O10 0.145252 0.381984 0.668963
O O11 0.156578 0.591018 0.648046
O O12 0.867430 0.153283 0.127131
O O13 0.844578 0.215754 0.282838
O O14 0.856054 0.000000 0.250000
O O15 0.922417 0.004206 0.103968
O O16 0.974531 0.889094 0.000000
O O17 0.000000 0.000000 0.144252
O O18 0.077412 0.183245 0.500000
#
# Coordination Sequence:
#
# PCOD8275904 Si02
#       7
#    16  16  16  16  16  16  16
#     4  11  21  34  56  83 120 156 202 268 311 367
#     4  10  20  36  62  92 116 153 204 257 308 359
#     4  10  22  44  68  87 119 163 214 265 310 370
#     4  11  22  35  58  93 131 162 196 251 310 372
#     4  10  19  32  52  80 117 166 207 242 306 380
#     4  10  20  33  50  78 118 164 208 245 297 365
#     4  10  23  40  62  94 118 166 216 248 321 375
#
# _framework density 19.534645999999999
#
# number of rings (size 3 to 8) (size 9 to 14) (size 15 to 20)
#    0.000    1.714    2.857    2.571    2.000    2.857 
#    0.000    2.857    0.000    2.571    0.000    0.000 
#    0.000    0.000    0.000    0.000    0.000    0.000 
#
# Total GULP energy -693986.120518 kJ/mol
# GULP energy per Si atom -12392.609295 kJ/mol
# Density = 1.949018 g / cm^3
# Si number density = 19.534646 Si / 1000 Ang^3
#
#
#
# Elastic Constant Matrix: (Units=GPa)
#
#
# Indices 1 2 3 4 5 6 
#
# 1 130.5394 29.6629 38.8806 0.0000 0.0000 0.0000
# 2 29.6629 91.0724 30.0242 0.0000 0.0000 0.0000
# 3 38.8806 30.0242 98.7037 0.0000 0.0000 0.0000
# 4 0.0000 0.0000 0.0000 -57.7870 0.0000 0.0000
# 5 0.0000 0.0000 0.0000 0.0000 20.9750 0.0000
# 6 0.0000 0.0000 0.0000 0.0000 0.0000 31.3825
#
#
#
# Elastic Compliance Matrix: (Units=1/GPa)
#
#
# Indices 1 2 3 4 5 6 
#
# 1 0.008981 -0.001955 -0.002943 0.000000 0.000000 0.000000
# 2 -0.001955 0.012630 -0.003072 0.000000 0.000000 0.000000
# 3 -0.002943 -0.003072 0.012225 0.000000 0.000000 0.000000
# 4 0.000000 0.000000 0.000000 -0.017305 0.000000 0.000000
# 5 0.000000 0.000000 0.000000 0.000000 0.047676 0.000000
# 6 0.000000 0.000000 0.000000 0.000000 0.000000 0.031865
#
#
# Mechanical properties :
#
#
# Convention : Reuss Voigt Hill
#
# Bulk Modulus (GPa) = 55.87718 57.49454 56.68586
# Shear Modulus (GPa) = 42.38110 13.69728 28.03919
#
# Velocity S-wave (km/s) = 4.66288 2.65085 3.79272
# Velocity P-wave (km/s) = 7.59317 6.23421 6.94700
#
# Compressibility (1/GPa) = 0.01789639
#
# Stress axis : x y z
#
# Youngs Moduli (GPa) = 111.34145 79.17856 81.79936
#
# Poissons Ratio (x) = 0.15479 0.24075
# Poissons Ratio (y) = 0.21767 0.25126
# Poissons Ratio (z) = 0.32770 0.24321
#
# Static dielectric constant tensor:
#      x y z
#    x 3.936960 0.000000 0.000000 
#    y 0.000000 3.420570 0.000000 
#    z 0.000000 0.000000 3.571390 
# 
# 
# High freq. dielectric constant tensor:
#      x y z
#    x 1.770480 0.000000 0.000000 
#    y 0.000000 1.735820 0.000000 
#    z 0.000000 0.000000 1.758170 
# 
# From -- ./inp_files/33793.got.cif
#   From: 2010.03.12/outbox.cif.g09.slc.cpg/sg66_17_cif.got.tgz:33793.got - 2010.04.10 21:57:39.
