data_PCOD8275868
_publ_section_title
;
Structure prediction by ZEFSAII (Michael W. Deem and Ramdas Pophale) SiO2 
 PCOD8275868
Probable space group: C C C M
;
_chemical_formula_sum "Si O2"
_cell_formula_units_Z 68
_cell_length_a 28.566762
_cell_length_b 14.789727
_cell_length_c 9.253820
_cell_angle_alpha 90.000000
_cell_angle_beta 90.000000
_cell_angle_gamma 90.000000
_cell_volume 3909.689084
_symmetry_space_group_name_H-M "C C C M"
_symmetry_group_IT_number 66
_symmetry_cell_setting 'orthorhombic'
loop_
_space_group_symop_operation_xyz
x,y,z
-x,-y,z
x,-y,1/2-z
-x,y,1/2-z
-x,-y,-z
x,y,-z
-x,y,1/2+z
x,-y,1/2+z
1/2+x,1/2+y,z
1/2-x,1/2-y,z
1/2+x,1/2-y,1/2-z
1/2-x,1/2+y,1/2-z
1/2-x,1/2-y,-z
1/2+x,1/2+y,-z
1/2-x,1/2+y,1/2+z
1/2+x,1/2-y,1/2+z
loop_
_atom_site_type_symbol
_atom_site_label
_atom_site_fract_x
_atom_site_fract_y
_atom_site_fract_z
Si Si1 0.771325 0.651454 0.837729
Si Si2 0.814312 0.084742 0.169465
Si Si3 0.355578 0.779042 0.169207
Si Si4 0.500000 0.000000 0.750000
Si Si5 0.542058 0.174647 0.159928
O O1 0.750000 0.750000 0.847821
O O2 0.737202 0.591380 0.739887
O O3 0.821494 0.655836 0.759379
O O4 0.776675 0.610942 0.000000
O O5 0.844906 0.173852 0.198793
O O6 0.839412 0.000000 0.250000
O O7 0.809067 0.065401 0.000000
O O8 0.407638 0.800643 0.227066
O O9 0.349714 0.802137 0.000000
O O10 0.533793 0.065542 0.844352
O O11 0.500000 0.221726 0.250000
O O12 0.539855 0.215031 0.000000
#
# Coordination Sequence:
#
# PCOD8275868 Si02
#       5
#    16  16  16   4  16
#     4   9  17  30  48  71  97 126 163 201 238 286
#     4  10  19  32  50  70  97 130 166 205 246 289
#     4   9  18  33  51  71  97 132 165 199 246 295
#     4   8  18  32  54  72 100 120 154 192 238 288
#     4   9  18  32  51  73  98 126 158 196 241 292
#
# _framework density 17.392688
#
# number of rings (size 3 to 8) (size 9 to 14) (size 15 to 20)
#    0.706    2.118    0.000    1.765    0.000    4.706 
#    2.118    0.000    0.000    0.706    0.000    4.941 
#    0.000    0.000    0.000    0.000    0.000    0.000 
#
# Total GULP energy -421318.476309 kJ/mol
# GULP energy per Si atom -12391.719891 kJ/mol
# Density = 1.735310 g / cm^3
# Si number density = 17.392688 Si / 1000 Ang^3
#
#
#
# Elastic Constant Matrix: (Units=GPa)
#
#
# Indices 1 2 3 4 5 6 
#
# 1 145.7519 33.4213 48.4600 0.0000 0.0000 0.0000
# 2 33.4213 61.0119 25.9098 0.0000 0.0000 0.0000
# 3 48.4600 25.9098 92.5961 0.0000 0.0000 0.0000
# 4 0.0000 0.0000 0.0000 23.8786 0.0000 0.0000
# 5 0.0000 0.0000 0.0000 0.0000 27.8600 0.0000
# 6 0.0000 0.0000 0.0000 0.0000 0.0000 21.1765
#
#
#
# Elastic Compliance Matrix: (Units=1/GPa)
#
#
# Indices 1 2 3 4 5 6 
#
# 1 0.008845 -0.003268 -0.003715 0.000000 0.000000 0.000000
# 2 -0.003268 0.019808 -0.003832 0.000000 0.000000 0.000000
# 3 -0.003715 -0.003832 0.013816 0.000000 0.000000 0.000000
# 4 0.000000 0.000000 0.000000 0.041879 0.000000 0.000000
# 5 0.000000 0.000000 0.000000 0.000000 0.035894 0.000000
# 6 0.000000 0.000000 0.000000 0.000000 0.000000 0.047222
#
#
# Mechanical properties :
#
#
# Convention : Reuss Voigt Hill
#
# Bulk Modulus (GPa) = 47.98620 57.21580 52.60100
# Shear Modulus (GPa) = 25.50498 27.35426 26.42962
#
# Velocity S-wave (km/s) = 3.83354 3.97009 3.90241
# Velocity P-wave (km/s) = 6.87346 7.34734 7.11434
#
# Compressibility (1/GPa) = 0.02083933
#
# Stress axis : x y z
#
# Youngs Moduli (GPa) = 113.05292 50.48531 72.37937
#
# Poissons Ratio (x) = 0.16498 0.26888
# Poissons Ratio (y) = 0.36943 0.27738
# Poissons Ratio (z) = 0.41997 0.19348
#
# Static dielectric constant tensor:
#      x y z
#    x 3.165050 0.000000 0.000000 
#    y 0.000000 3.084390 0.000000 
#    z 0.000000 0.000000 3.299650 
# 
# 
# High freq. dielectric constant tensor:
#      x y z
#    x 1.655760 0.000000 0.000000 
#    y 0.000000 1.649590 0.000000 
#    z 0.000000 0.000000 1.678500 
# 
# From -- ./inp_files/6833.got.cif
#   From: 2010.03.12/outbox.cif.g09.slc.cpg/sg66_4_cif.got.tgz:6833.got - 2010.04.10 21:57:39.
