data_PCOD8275368
_publ_section_title
;
Structure prediction by ZEFSAII (Michael W. Deem and Ramdas Pophale) SiO2 
 PCOD8275368
Probable space group: C C C M
;
_chemical_formula_sum "Si O2"
_cell_formula_units_Z 80
_cell_length_a 19.331973
_cell_length_b 13.468554
_cell_length_c 17.772853
_cell_angle_alpha 90.000000
_cell_angle_beta 90.000000
_cell_angle_gamma 90.000000
_cell_volume 4627.583891
_symmetry_space_group_name_H-M "C C C M"
_symmetry_group_IT_number 66
_symmetry_cell_setting 'orthorhombic'
loop_
_space_group_symop_operation_xyz
x,y,z
-x,-y,z
x,-y,1/2-z
-x,y,1/2-z
-x,-y,-z
x,y,-z
-x,y,1/2+z
x,-y,1/2+z
1/2+x,1/2+y,z
1/2-x,1/2-y,z
1/2+x,1/2-y,1/2-z
1/2-x,1/2+y,1/2-z
1/2-x,1/2-y,-z
1/2+x,1/2+y,-z
1/2-x,1/2+y,1/2+z
1/2+x,1/2-y,1/2+z
loop_
_atom_site_type_symbol
_atom_site_label
_atom_site_fract_x
_atom_site_fract_y
_atom_site_fract_z
Si Si1 0.645942 0.808394 0.777958
Si Si2 0.789400 0.107478 0.232257
Si Si3 0.567093 0.878975 0.088990
Si Si4 0.772241 0.361123 0.079241
Si Si5 0.081084 0.396552 0.362290
O O1 0.718596 0.867632 0.776843
O O2 0.656031 0.695333 0.748158
O O3 0.617415 0.805504 0.863773
O O4 0.589898 0.865165 0.725353
O O5 0.771733 0.090395 0.144950
O O6 0.821677 0.000000 0.250000
O O7 0.487550 0.847211 0.101978
O O8 0.578781 0.985587 0.126831
O O9 0.585270 0.876902 0.000000
O O10 0.750000 0.250000 0.071672
O O11 0.853715 0.355875 0.093246
O O12 0.758141 0.417886 0.000000
#
# Coordination Sequence:
#
# PCOD8275368 Si02
#       5
#    16  16  16  16  16
#     4  10  19  34  51  75 100 138 170 203 256 310
#     4  10  19  34  52  74 102 135 173 213 250 304
#     4  11  21  31  49  78 108 135 161 207 258 315
#     4  10  17  30  52  78 101 126 166 215 258 295
#     4  10  18  33  50  75 105 131 167 204 259 313
#
# _framework density 17.287638000000001
#
# number of rings (size 3 to 8) (size 9 to 14) (size 15 to 20)
#    0.000    1.800    4.000    6.000    0.000    1.600 
#    0.000    3.000    0.000    2.400    0.000    1.400 
#    0.000    0.000    0.000    0.000    0.000    0.000 
#
# Total GULP energy -495619.829209 kJ/mol
# GULP energy per Si atom -12390.495730 kJ/mol
# Density = 1.724829 g / cm^3
# Si number density = 17.287638 Si / 1000 Ang^3
#
#
#
# Elastic Constant Matrix: (Units=GPa)
#
#
# Indices 1 2 3 4 5 6 
#
# 1 69.8302 33.7973 48.2009 0.0000 0.0000 0.0000
# 2 33.7973 78.6375 42.8550 0.0000 0.0000 0.0000
# 3 48.2009 42.8550 154.5868 0.0000 0.0000 0.0000
# 4 0.0000 0.0000 0.0000 18.1998 0.0000 0.0000
# 5 0.0000 0.0000 0.0000 0.0000 16.8985 0.0000
# 6 0.0000 0.0000 0.0000 0.0000 0.0000 24.8296
#
#
#
# Elastic Compliance Matrix: (Units=1/GPa)
#
#
# Indices 1 2 3 4 5 6 
#
# 1 0.020599 -0.006306 -0.004675 0.000000 0.000000 0.000000
# 2 -0.006306 0.016910 -0.002722 0.000000 0.000000 0.000000
# 3 -0.004675 -0.002722 0.008681 0.000000 0.000000 0.000000
# 4 0.000000 0.000000 0.000000 0.054946 0.000000 0.000000
# 5 0.000000 0.000000 0.000000 0.000000 0.059177 0.000000
# 6 0.000000 0.000000 0.000000 0.000000 0.000000 0.040274
#
#
# Mechanical properties :
#
#
# Convention : Reuss Voigt Hill
#
# Bulk Modulus (GPa) = 53.23177 61.41788 57.32482
# Shear Modulus (GPa) = 21.34441 23.86566 22.60504
#
# Velocity S-wave (km/s) = 3.51759 3.71954 3.61998
# Velocity P-wave (km/s) = 6.88161 7.35193 7.12065
#
# Compressibility (1/GPa) = 0.01878578
#
# Stress axis : x y z
#
# Youngs Moduli (GPa) = 48.54565 59.13704 115.19380
#
# Poissons Ratio (x) = 0.37289 0.53852
# Poissons Ratio (y) = 0.30611 0.31352
# Poissons Ratio (z) = 0.22694 0.16095
#
# Static dielectric constant tensor:
#      x y z
#    x 3.191780 0.000000 0.000000 
#    y 0.000000 2.995420 0.000000 
#    z 0.000000 0.000000 2.052790 
# 
# 
# High freq. dielectric constant tensor:
#      x y z
#    x 1.652590 0.000000 0.000000 
#    y 0.000000 1.636150 0.000000 
#    z 0.000000 0.000000 1.680720 
# 
# From -- ./inp_files/40229.got.cif
#   From: 2010.03.12/outbox.cif.g09.slc.cpg/sg66_21_cif.got.tgz:40229.got - 2010.04.10 21:57:39.
