data_PCOD8275020
_publ_section_title
;
Structure prediction by ZEFSAII (Michael W. Deem and Ramdas Pophale) SiO2 
 PCOD8275020
Probable space group: C M M M
;
_chemical_formula_sum "Si O2"
_cell_formula_units_Z 96
_cell_length_a 27.547873
_cell_length_b 29.162232
_cell_length_c 9.925952
_cell_angle_alpha 90.000000
_cell_angle_beta 90.000000
_cell_angle_gamma 90.000000
_cell_volume 7974.087622
_symmetry_space_group_name_H-M "C M M M"
_symmetry_group_IT_number 65
_symmetry_cell_setting 'orthorhombic'
loop_
_space_group_symop_operation_xyz
x,y,z
-x,-y,z
x,-y,-z
-x,y,-z
-x,-y,-z
x,y,-z
-x,y,z
x,-y,z
1/2+x,1/2+y,z
1/2-x,1/2-y,z
1/2+x,1/2-y,-z
1/2-x,1/2+y,-z
1/2-x,1/2-y,-z
1/2+x,1/2+y,-z
1/2-x,1/2+y,z
1/2+x,1/2-y,z
loop_
_atom_site_type_symbol
_atom_site_label
_atom_site_fract_x
_atom_site_fract_y
_atom_site_fract_z
Si Si1 0.396289 0.223923 0.345116
Si Si2 0.833683 0.366732 0.655251
Si Si3 0.826659 0.767618 0.849128
Si Si4 0.000000 0.693240 0.659438
Si Si5 0.263439 0.823487 0.151012
Si Si6 0.000000 0.590668 0.338920
Si Si7 0.899588 0.449003 0.339923
O O1 0.392911 0.239579 0.500000
O O2 0.371758 0.174413 0.325568
O O3 0.370726 0.263319 0.256166
O O4 0.451892 0.220439 0.294587
O O5 0.817679 0.370849 0.500000
O O6 0.784978 0.359808 0.742986
O O7 0.859011 0.413065 0.709464
O O8 0.792100 0.810623 0.810066
O O9 0.795077 0.722055 0.843034
O O10 0.847524 0.774379 0.000000
O O11 0.000000 0.642132 0.720666
O O12 0.000000 0.687981 0.500000
O O13 0.265234 0.844230 0.000000
O O14 0.952487 0.564687 0.283119
O O15 0.000000 0.591369 0.500000
O O16 0.901840 0.447212 0.500000
O O17 0.886062 0.500000 0.288389
#
# Coordination Sequence:
#
# PCOD8275020 Si02
#       7
#    16  16  16   8  16   8  16
#     4   9  15  22  33  47  64  84 105 130 161 193
#     4   9  15  22  33  49  65  80 101 133 166 195
#     4   8  14  24  35  47  62  79  99 125 156 192
#     4   9  14  21  31  44  65  88 108 134 167 199
#     4   8  14  24  36  47  61  80  99 121 156 200
#     4   9  13  20  31  43  61  85 111 139 171 204
#     4   9  15  21  30  46  66  85 107 138 174 205
#
# _framework density 12.038995
#
# number of rings (size 3 to 8) (size 9 to 14) (size 15 to 20)
#    0.000    3.333    1.667    1.250    0.000    1.667 
#    0.000    3.750    0.000    0.500    0.000    0.583 
#    0.000    1.333    0.000    0.000    0.000    0.000 
#
# Total GULP energy -594838.887445 kJ/mol
# GULP energy per Si atom -12392.476822 kJ/mol
# Density = 1.201159 g / cm^3
# Si number density = 12.038995 Si / 1000 Ang^3
#
#
#
# Elastic Constant Matrix: (Units=GPa)
#
#
# Indices 1 2 3 4 5 6 
#
# 1 80.5136 46.8143 42.8192 0.0000 0.0000 0.0000
# 2 46.8143 48.5573 29.7474 0.0000 0.0000 0.0000
# 3 42.8192 29.7474 47.5284 0.0000 0.0000 0.0000
# 4 0.0000 0.0000 0.0000 6.5643 0.0000 0.0000
# 5 0.0000 0.0000 0.0000 0.0000 9.0917 0.0000
# 6 0.0000 0.0000 0.0000 0.0000 0.0000 17.3102
#
#
#
# Elastic Compliance Matrix: (Units=1/GPa)
#
#
# Indices 1 2 3 4 5 6 
#
# 1 0.035017 -0.023409 -0.016896 0.000000 0.000000 0.000000
# 2 -0.023409 0.049051 -0.009610 0.000000 0.000000 0.000000
# 3 -0.016896 -0.009610 0.042277 0.000000 0.000000 0.000000
# 4 0.000000 0.000000 0.000000 0.152339 0.000000 0.000000
# 5 0.000000 0.000000 0.000000 0.000000 0.109991 0.000000
# 6 0.000000 0.000000 0.000000 0.000000 0.000000 0.057770
#
#
# Mechanical properties :
#
#
# Convention : Reuss Voigt Hill
#
# Bulk Modulus (GPa) = 37.71658 46.15124 41.93391
# Shear Modulus (GPa) = 9.00717 10.40779 9.70748
#
# Velocity S-wave (km/s) = 2.73823 2.94344 2.84269
# Velocity P-wave (km/s) = 6.43381 7.06893 6.75883
#
# Compressibility (1/GPa) = 0.02651354
#
# Stress axis : x y z
#
# Youngs Moduli (GPa) = 28.55725 20.38707 23.65346
#
# Poissons Ratio (x) = 0.47725 0.39965
# Poissons Ratio (y) = 0.66851 0.22732
# Poissons Ratio (z) = 0.48251 0.19593
#
# Static dielectric constant tensor:
#      x y z
#    x 2.601350 0.000000 0.000000 
#    y 0.000000 2.347010 0.000000 
#    z 0.000000 0.000000 2.387480 
# 
# 
# High freq. dielectric constant tensor:
#      x y z
#    x 1.444420 0.000000 0.000000 
#    y 0.000000 1.414710 0.000000 
#    z 0.000000 0.000000 1.435320 
# 
# From -- ./inp_files/19191.got.cif
#   From: 2010.03.12/outbox.cif.g09.slc.cpg/sg65_10_cif.got.tgz:19191.got - 2010.04.10 20:52:16.
