data_PCOD8275546
_publ_section_title
;
Structure prediction by ZEFSAII (Michael W. Deem and Ramdas Pophale) SiO2 
 PCOD8275546
Probable space group: C C C M
;
_chemical_formula_sum "Si O2"
_cell_formula_units_Z 72
_cell_length_a 15.888401
_cell_length_b 17.481458
_cell_length_c 13.976296
_cell_angle_alpha 90.000000
_cell_angle_beta 90.000000
_cell_angle_gamma 90.000000
_cell_volume 3881.949964
_symmetry_space_group_name_H-M "C C C M"
_symmetry_group_IT_number 66
_symmetry_cell_setting 'orthorhombic'
loop_
_space_group_symop_operation_xyz
x,y,z
-x,-y,z
x,-y,1/2-z
-x,y,1/2-z
-x,-y,-z
x,y,-z
-x,y,1/2+z
x,-y,1/2+z
1/2+x,1/2+y,z
1/2-x,1/2-y,z
1/2+x,1/2-y,1/2-z
1/2-x,1/2+y,1/2-z
1/2-x,1/2-y,-z
1/2+x,1/2+y,-z
1/2-x,1/2+y,1/2+z
1/2+x,1/2-y,1/2+z
loop_
_atom_site_type_symbol
_atom_site_label
_atom_site_fract_x
_atom_site_fract_y
_atom_site_fract_z
Si Si1 0.255042 0.339551 0.192390
Si Si2 0.919537 0.552640 0.000000
Si Si3 0.086079 0.587227 0.288277
Si Si4 0.089800 0.086054 0.711481
Si Si5 0.261008 0.566642 0.500000
Si Si6 0.085212 0.045772 0.500000
O O1 0.250000 0.250000 0.176565
O O2 0.170032 0.368968 0.246092
O O3 0.335973 0.358660 0.255839
O O4 0.265466 0.379548 0.091224
O O5 0.922823 0.600148 0.097652
O O6 0.825277 0.515194 0.000000
O O7 0.000000 0.500000 0.000000
O O8 0.092273 0.500000 0.250000
O O9 0.000000 0.625346 0.250000
O O10 0.088772 0.094801 0.596651
O O11 0.000000 0.115646 0.750000
O O12 0.106639 0.000000 0.750000
O O13 0.337930 0.511144 0.500000
O O14 0.000000 0.000000 0.500000
#
# Coordination Sequence:
#
# PCOD8275546 Si02
#       6
#    16   8  16  16   8   8
#     4  11  23  38  55  83 120 154 188 228 285 351
#     4  10  18  31  51  85 107 132 172 236 277 312
#     4  10  20  34  57  81 107 140 187 228 274 321
#     4  11  21  37  62  88 115 147 194 242 292 334
#     4  10  21  34  60  81 112 149 191 238 280 329
#     4  12  20  35  60  94 113 139 193 254 289 334
#
# _framework density 18.54738
#
# number of rings (size 3 to 8) (size 9 to 14) (size 15 to 20)
#    0.000    1.333    6.667    1.000    3.111    0.889 
#    0.000    0.556    0.000    2.667    0.000    0.000 
#    0.000    0.000    0.000    0.000    0.000    0.000 
#
# Total GULP energy -446071.804932 kJ/mol
# GULP energy per Si atom -12390.883470 kJ/mol
# Density = 1.850517 g / cm^3
# Si number density = 18.547380 Si / 1000 Ang^3
#
#
#
# Elastic Constant Matrix: (Units=GPa)
#
#
# Indices 1 2 3 4 5 6 
#
# 1 209.9423 51.5853 59.7143 0.0000 0.0000 0.0000
# 2 51.5853 44.9292 23.3261 0.0000 0.0000 0.0000
# 3 59.7143 23.3261 144.1684 0.0000 0.0000 0.0000
# 4 0.0000 0.0000 0.0000 32.3551 0.0000 0.0000
# 5 0.0000 0.0000 0.0000 0.0000 32.6455 0.0000
# 6 0.0000 0.0000 0.0000 0.0000 0.0000 15.5215
#
#
#
# Elastic Compliance Matrix: (Units=1/GPa)
#
#
# Indices 1 2 3 4 5 6 
#
# 1 0.007017 -0.007149 -0.001750 0.000000 0.000000 0.000000
# 2 -0.007149 0.031580 -0.002149 0.000000 0.000000 0.000000
# 3 -0.001750 -0.002149 0.008009 0.000000 0.000000 0.000000
# 4 0.000000 0.000000 0.000000 0.030907 0.000000 0.000000
# 5 0.000000 0.000000 0.000000 0.000000 0.030632 0.000000
# 6 0.000000 0.000000 0.000000 0.000000 0.000000 0.064427
#
#
# Mechanical properties :
#
#
# Convention : Reuss Voigt Hill
#
# Bulk Modulus (GPa) = 40.79606 74.25461 57.52533
# Shear Modulus (GPa) = 24.65022 33.73202 29.19112
#
# Velocity S-wave (km/s) = 3.64956 4.26924 3.97150
# Velocity P-wave (km/s) = 6.30891 8.02645 7.21894
#
# Compressibility (1/GPa) = 0.02451217
#
# Stress axis : x y z
#
# Youngs Moduli (GPa) = 142.50202 31.66524 124.86205
#
# Poissons Ratio (x) = 0.22636 0.21851
# Poissons Ratio (y) = 1.01868 0.26830
# Poissons Ratio (z) = 0.24938 0.06804
#
# Static dielectric constant tensor:
#      x y z
#    x 4.046280 0.000000 0.000000 
#    y 0.000000 2.890680 0.000000 
#    z 0.000000 0.000000 4.223120 
# 
# 
# High freq. dielectric constant tensor:
#      x y z
#    x 1.757230 0.000000 0.000000 
#    y 0.000000 1.658290 0.000000 
#    z 0.000000 0.000000 1.733740 
# 
# From -- ./inp_files/27988.got.cif
#   From: 2010.03.12/outbox.cif.g09.slc.cpg/sg66_14_cif.got.tgz:27988.got - 2010.04.10 21:57:39.
