data_PCOD8275445
_publ_section_title
;
Structure prediction by ZEFSAII (Michael W. Deem and Ramdas Pophale) SiO2 
 PCOD8275445
Probable space group: C C C M
;
_chemical_formula_sum "Si O2"
_cell_formula_units_Z 88
_cell_length_a 26.063484
_cell_length_b 15.477709
_cell_length_c 13.398786
_cell_angle_alpha 90.000000
_cell_angle_beta 90.000000
_cell_angle_gamma 90.000000
_cell_volume 5405.110748
_symmetry_space_group_name_H-M "C C C M"
_symmetry_group_IT_number 66
_symmetry_cell_setting 'orthorhombic'
loop_
_space_group_symop_operation_xyz
x,y,z
-x,-y,z
x,-y,1/2-z
-x,y,1/2-z
-x,-y,-z
x,y,-z
-x,y,1/2+z
x,-y,1/2+z
1/2+x,1/2+y,z
1/2-x,1/2-y,z
1/2+x,1/2-y,1/2-z
1/2-x,1/2+y,1/2-z
1/2-x,1/2-y,-z
1/2+x,1/2+y,-z
1/2-x,1/2+y,1/2+z
1/2+x,1/2-y,1/2+z
loop_
_atom_site_type_symbol
_atom_site_label
_atom_site_fract_x
_atom_site_fract_y
_atom_site_fract_z
Si Si1 0.201303 0.437186 0.615095
Si Si2 0.079038 0.325808 0.886531
Si Si3 0.259520 0.120594 0.187955
Si Si4 0.914466 0.526408 0.387687
Si Si5 0.824391 0.774352 0.114551
Si Si6 0.000000 0.385212 0.750000
O O1 0.213931 0.413146 0.500000
O O2 0.226826 0.371279 0.694050
O O3 0.225797 0.529508 0.640546
O O4 0.140232 0.429937 0.634754
O O5 0.097435 0.425009 0.874820
O O6 0.120464 0.257602 0.843669
O O7 0.027314 0.318077 0.823535
O O8 0.066740 0.303002 0.000000
O O9 0.198629 0.143809 0.176055
O O10 0.288085 0.191252 0.122142
O O11 0.933237 0.547209 0.500000
O O12 0.959340 0.555857 0.312470
O O13 0.829475 0.801912 0.000000
#
# Coordination Sequence:
#
# PCOD8275445 Si02
#       6
#    16  16  16  16  16   8
#     4  10  19  31  46  67  94 119 151 192 231 277
#     4  10  19  29  42  61  86 117 154 191 221 255
#     4  10  18  28  48  66  84 118 156 189 234 272
#     4  10  19  29  41  62  89 120 155 187 221 261
#     4  10  18  30  46  65  87 115 158 201 228 261
#     4  12  21  28  44  62  92 125 154 185 224 266
#
# _framework density 16.280887
#
# number of rings (size 3 to 8) (size 9 to 14) (size 15 to 20)
#    0.000    1.818    1.818    5.455    2.545    1.455 
#    0.000    1.818    0.000    2.182    0.000    0.000 
#    0.000    2.909    0.000   18.000    0.000    0.000 
#
# Total GULP energy -545084.638937 kJ/mol
# GULP energy per Si atom -12388.287249 kJ/mol
# Density = 1.624383 g / cm^3
# Si number density = 16.280887 Si / 1000 Ang^3
#
#
#
# Elastic Constant Matrix: (Units=GPa)
#
#
# Indices 1 2 3 4 5 6 
#
# 1 116.1973 40.5566 63.1172 0.0000 0.0000 0.0000
# 2 40.5566 29.1496 19.6000 0.0000 0.0000 0.0000
# 3 63.1172 19.6000 109.2796 0.0000 0.0000 0.0000
# 4 0.0000 0.0000 0.0000 19.2014 0.0000 0.0000
# 5 0.0000 0.0000 0.0000 0.0000 31.1081 0.0000
# 6 0.0000 0.0000 0.0000 0.0000 0.0000 35.2167
#
#
#
# Elastic Compliance Matrix: (Units=1/GPa)
#
#
# Indices 1 2 3 4 5 6 
#
# 1 0.021553 -0.024581 -0.008039 0.000000 0.000000 0.000000
# 2 -0.024581 0.067045 0.002172 0.000000 0.000000 0.000000
# 3 -0.008039 0.002172 0.013405 0.000000 0.000000 0.000000
# 4 0.000000 0.000000 0.000000 0.052080 0.000000 0.000000
# 5 0.000000 0.000000 0.000000 0.000000 0.032146 0.000000
# 6 0.000000 0.000000 0.000000 0.000000 0.000000 0.028396
#
#
# Mechanical properties :
#
#
# Convention : Reuss Voigt Hill
#
# Bulk Modulus (GPa) = 24.32718 55.68601 40.00660
# Shear Modulus (GPa) = 17.28778 25.86208 21.57493
#
# Velocity S-wave (km/s) = 3.26213 3.98991 3.64424
# Velocity P-wave (km/s) = 5.40030 7.45006 6.50641
#
# Compressibility (1/GPa) = 0.04110628
#
# Stress axis : x y z
#
# Youngs Moduli (GPa) = 46.39825 14.91531 74.60120
#
# Poissons Ratio (x) = 0.36663 0.59975
# Poissons Ratio (y) = 1.14051 -0.16206
# Poissons Ratio (z) = 0.37302 -0.03240
#
# Static dielectric constant tensor:
#      x y z
#    x 3.436100 0.000000 0.000000 
#    y 0.000000 2.868860 0.000000 
#    z 0.000000 0.000000 3.518950 
# 
# 
# High freq. dielectric constant tensor:
#      x y z
#    x 1.619980 0.000000 0.000000 
#    y 0.000000 1.564880 0.000000 
#    z 0.000000 0.000000 1.645710 
# 
# From -- ./inp_files/33255.got.cif
#   From: 2010.03.12/outbox.cif.g09.slc.cpg/sg66_17_cif.got.tgz:33255.got - 2010.04.10 21:57:39.
