data_PCOD8275167
_publ_section_title
;
Structure prediction by ZEFSAII (Michael W. Deem and Ramdas Pophale) SiO2 
 PCOD8275167
Probable space group: C M M M
;
_chemical_formula_sum "Si O2"
_cell_formula_units_Z 72
_cell_length_a 28.005720
_cell_length_b 17.329769
_cell_length_c 9.427697
_cell_angle_alpha 90.000000
_cell_angle_beta 90.000000
_cell_angle_gamma 90.000000
_cell_volume 4575.569246
_symmetry_space_group_name_H-M "C M M M"
_symmetry_group_IT_number 65
_symmetry_cell_setting 'orthorhombic'
loop_
_space_group_symop_operation_xyz
x,y,z
-x,-y,z
x,-y,-z
-x,y,-z
-x,-y,-z
x,y,-z
-x,y,z
x,-y,z
1/2+x,1/2+y,z
1/2-x,1/2-y,z
1/2+x,1/2-y,-z
1/2-x,1/2+y,-z
1/2-x,1/2-y,-z
1/2+x,1/2+y,-z
1/2-x,1/2+y,z
1/2+x,1/2-y,z
loop_
_atom_site_type_symbol
_atom_site_label
_atom_site_fract_x
_atom_site_fract_y
_atom_site_fract_z
Si Si1 0.946028 0.145256 0.337275
Si Si2 0.785948 0.678915 0.160384
Si Si3 0.647079 0.726156 0.338143
Si Si4 0.715842 0.587380 0.336746
Si Si5 0.943493 0.000000 0.842044
O O1 0.943858 0.116930 0.500000
O O2 0.909830 0.216550 0.313423
O O3 0.000000 0.171250 0.297107
O O4 0.926835 0.075775 0.240881
O O5 0.750000 0.750000 0.165550
O O6 0.834700 0.705060 0.237757
O O7 0.762147 0.607359 0.242003
O O8 0.797945 0.654066 0.000000
O O9 0.658491 0.749291 0.500000
O O10 0.672165 0.644436 0.301037
O O11 0.731360 0.595836 0.500000
O O12 0.699486 0.500000 0.301890
O O13 0.000000 0.000000 0.849797
O O14 0.921079 0.000000 0.000000
#
# Coordination Sequence:
#
# PCOD8275167 Si02
#       5
#    16  16  16  16   8
#     4   9  17  28  42  59  80 108 142 178 210 240
#     4   9  17  29  43  59  82 108 136 170 211 252
#     4   9  17  28  44  61  82 111 143 174 206 245
#     4   9  17  28  43  62  83 108 140 174 206 245
#     4   9  17  27  37  51  75 107 139 173 211 243
#
# _framework density 15.735747999999999
#
# number of rings (size 3 to 8) (size 9 to 14) (size 15 to 20)
#    0.000    3.000    0.000    1.000    1.556    5.333 
#    0.000    0.000    0.000    0.000    0.000    0.000 
#    0.000    0.889    0.000   10.222    0.000    2.889 
#
# Total GULP energy -446274.381655 kJ/mol
# GULP energy per Si atom -12396.510602 kJ/mol
# Density = 1.569993 g / cm^3
# Si number density = 15.735748 Si / 1000 Ang^3
#
#
#
# Elastic Constant Matrix: (Units=GPa)
#
#
# Indices 1 2 3 4 5 6 
#
# 1 76.4065 18.9855 34.6879 0.0000 0.0000 0.0000
# 2 18.9855 28.4946 15.6544 0.0000 0.0000 0.0000
# 3 34.6879 15.6544 75.8514 0.0000 0.0000 0.0000
# 4 0.0000 0.0000 0.0000 12.8288 0.0000 0.0000
# 5 0.0000 0.0000 0.0000 0.0000 15.0893 0.0000
# 6 0.0000 0.0000 0.0000 0.0000 0.0000 20.2414
#
#
#
# Elastic Compliance Matrix: (Units=1/GPa)
#
#
# Indices 1 2 3 4 5 6 
#
# 1 0.018179 -0.008510 -0.006557 0.000000 0.000000 0.000000
# 2 -0.008510 0.043566 -0.005099 0.000000 0.000000 0.000000
# 3 -0.006557 -0.005099 0.017235 0.000000 0.000000 0.000000
# 4 0.000000 0.000000 0.000000 0.077950 0.000000 0.000000
# 5 0.000000 0.000000 0.000000 0.000000 0.066272 0.000000
# 6 0.000000 0.000000 0.000000 0.000000 0.000000 0.049404
#
#
# Mechanical properties :
#
#
# Convention : Reuss Voigt Hill
#
# Bulk Modulus (GPa) = 25.87562 35.48979 30.68270
# Shear Modulus (GPa) = 15.34578 17.06021 16.20300
#
# Velocity S-wave (km/s) = 3.12624 3.29624 3.21236
# Velocity P-wave (km/s) = 5.43237 6.09012 5.77062
#
# Compressibility (1/GPa) = 0.03864642
#
# Stress axis : x y z
#
# Youngs Moduli (GPa) = 55.00704 22.95363 58.02190
#
# Poissons Ratio (x) = 0.19534 0.38047
# Poissons Ratio (y) = 0.46812 0.29588
# Poissons Ratio (z) = 0.36070 0.11705
#
# Static dielectric constant tensor:
#      x y z
#    x 2.931010 0.000000 0.000000 
#    y 0.000000 2.681660 0.000000 
#    z 0.000000 0.000000 3.190470 
# 
# 
# High freq. dielectric constant tensor:
#      x y z
#    x 1.586700 0.000000 0.000000 
#    y 0.000000 1.557520 0.000000 
#    z 0.000000 0.000000 1.610970 
# 
# From -- ./inp_files/7669.got.cif
#   From: 2010.03.12/outbox.cif.g09.slc.cpg/sg65_4_cif.got.tgz:7669.got - 2010.04.10 20:52:16.
