data_PCOD8275292
_publ_section_title
;
Structure prediction by ZEFSAII (Michael W. Deem and Ramdas Pophale) SiO2 
 PCOD8275292
Probable space group: C C C M
;
_chemical_formula_sum "Si O2"
_cell_formula_units_Z 104
_cell_length_a 27.456504
_cell_length_b 30.994143
_cell_length_c 9.125502
_cell_angle_alpha 90.000000
_cell_angle_beta 90.000000
_cell_angle_gamma 90.000000
_cell_volume 7765.718350
_symmetry_space_group_name_H-M "C C C M"
_symmetry_group_IT_number 66
_symmetry_cell_setting 'orthorhombic'
loop_
_space_group_symop_operation_xyz
x,y,z
-x,-y,z
x,-y,1/2-z
-x,y,1/2-z
-x,-y,-z
x,y,-z
-x,y,1/2+z
x,-y,1/2+z
1/2+x,1/2+y,z
1/2-x,1/2-y,z
1/2+x,1/2-y,1/2-z
1/2-x,1/2+y,1/2-z
1/2-x,1/2-y,-z
1/2+x,1/2+y,-z
1/2-x,1/2+y,1/2+z
1/2+x,1/2-y,1/2+z
loop_
_atom_site_type_symbol
_atom_site_label
_atom_site_fract_x
_atom_site_fract_y
_atom_site_fract_z
Si Si1 0.000000 0.816092 0.250000
Si Si2 0.955354 0.267635 0.162845
Si Si3 0.552329 0.457685 0.175820
Si Si4 0.323035 0.321799 0.164185
Si Si5 0.915097 0.876524 0.834539
Si Si6 0.266457 0.200633 0.664804
Si Si7 0.356787 0.224022 0.834210
O O1 0.033657 0.784197 0.150807
O O2 0.036785 0.846548 0.339371
O O3 0.906649 0.279687 0.247067
O O4 0.000000 0.290202 0.250000
O O5 0.951474 0.286662 0.000000
O O6 0.577067 0.500000 0.250000
O O7 0.500000 0.452091 0.250000
O O8 0.582549 0.415424 0.218720
O O9 0.548486 0.462245 0.000000
O O10 0.368067 0.350280 0.219443
O O11 0.276276 0.328998 0.267366
O O12 0.339644 0.272810 0.167682
O O13 0.307811 0.334880 0.000000
O O14 0.908486 0.894122 0.000000
O O15 0.276317 0.184916 0.500000
O O16 0.250000 0.250000 0.667795
O O17 0.315804 0.194415 0.757690
O O18 0.364701 0.207754 0.000000
#
# Coordination Sequence:
#
# PCOD8275292 Si02
#       7
#     8  16  16  16  16  16  16
#     4  10  20  28  43  54  78  96 120 150 184 228
#     4  10  19  28  38  52  73  96 121 152 183 218
#     4  11  22  35  48  60  75  95 119 146 181 224
#     4   9  17  29  41  55  73  93 116 144 178 218
#     4  11  20  32  46  61  78  96 119 148 187 228
#     4   9  17  27  38  54  72  92 118 147 177 212
#     4  10  17  27  40  53  71  97 122 145 180 219
#
# _framework density 13.392194
#
# number of rings (size 3 to 8) (size 9 to 14) (size 15 to 20)
#    0.462    1.538    2.308    3.692    0.000    3.692 
#    0.000    0.000    0.000    0.000    0.000    0.000 
#    0.000    0.000    0.000    0.000    0.000    0.000 
#
# Total GULP energy -644414.355350 kJ/mol
# GULP energy per Si atom -12392.583757 kJ/mol
# Density = 1.336171 g / cm^3
# Si number density = 13.392194 Si / 1000 Ang^3
#
#
#
# Elastic Constant Matrix: (Units=GPa)
#
#
# Indices 1 2 3 4 5 6 
#
# 1 105.5515 26.3465 58.3933 0.0000 0.0000 0.0000
# 2 26.3465 28.0611 17.8133 0.0000 0.0000 0.0000
# 3 58.3933 17.8133 122.3117 0.0000 0.0000 0.0000
# 4 0.0000 0.0000 0.0000 12.8015 0.0000 0.0000
# 5 0.0000 0.0000 0.0000 0.0000 26.2706 0.0000
# 6 0.0000 0.0000 0.0000 0.0000 0.0000 8.2212
#
#
#
# Elastic Compliance Matrix: (Units=1/GPa)
#
#
# Indices 1 2 3 4 5 6 
#
# 1 0.015344 -0.010750 -0.005760 0.000000 0.000000 0.000000
# 2 -0.010750 0.046798 -0.001684 0.000000 0.000000 0.000000
# 3 -0.005760 -0.001684 0.011171 0.000000 0.000000 0.000000
# 4 0.000000 0.000000 0.000000 0.078116 0.000000 0.000000
# 5 0.000000 0.000000 0.000000 0.000000 0.038065 0.000000
# 6 0.000000 0.000000 0.000000 0.000000 0.000000 0.121637
#
#
# Mechanical properties :
#
#
# Convention : Reuss Voigt Hill
#
# Bulk Modulus (GPa) = 27.08079 51.22561 39.15320
# Shear Modulus (GPa) = 13.89559 19.68339 16.78949
#
# Velocity S-wave (km/s) = 3.22466 3.83791 3.54457
# Velocity P-wave (km/s) = 5.84207 7.61399 6.78611
#
# Compressibility (1/GPa) = 0.03692654
#
# Stress axis : x y z
#
# Youngs Moduli (GPa) = 65.17343 21.36837 89.51931
#
# Poissons Ratio (x) = 0.22971 0.51560
# Poissons Ratio (y) = 0.70060 0.15071
# Poissons Ratio (z) = 0.37538 0.03597
#
# Static dielectric constant tensor:
#      x y z
#    x 2.735260 0.000000 0.000000 
#    y 0.000000 2.337870 0.000000 
#    z 0.000000 0.000000 2.800130 
# 
# 
# High freq. dielectric constant tensor:
#      x y z
#    x 1.505260 0.000000 0.000000 
#    y 0.000000 1.440940 0.000000 
#    z 0.000000 0.000000 1.526550 
# 
# From -- ./inp_files/10882.got.cif
#   From: 2010.03.12/outbox.cif.g09.slc.cpg/sg66_6_cif.got.tgz:10882.got - 2010.04.10 21:57:39.
