data_PCOD8275450
_publ_section_title
;
Structure prediction by ZEFSAII (Michael W. Deem and Ramdas Pophale) SiO2 
 PCOD8275450
Probable space group: C C C M
;
_chemical_formula_sum "Si O2"
_cell_formula_units_Z 80
_cell_length_a 26.416261
_cell_length_b 19.502685
_cell_length_c 9.140813
_cell_angle_alpha 90.000000
_cell_angle_beta 90.000000
_cell_angle_gamma 90.000000
_cell_volume 4709.237325
_symmetry_space_group_name_H-M "C C C M"
_symmetry_group_IT_number 66
_symmetry_cell_setting 'orthorhombic'
loop_
_space_group_symop_operation_xyz
x,y,z
-x,-y,z
x,-y,1/2-z
-x,y,1/2-z
-x,-y,-z
x,y,-z
-x,y,1/2+z
x,-y,1/2+z
1/2+x,1/2+y,z
1/2-x,1/2-y,z
1/2+x,1/2-y,1/2-z
1/2-x,1/2+y,1/2-z
1/2-x,1/2-y,-z
1/2+x,1/2+y,-z
1/2-x,1/2+y,1/2+z
1/2+x,1/2-y,1/2+z
loop_
_atom_site_type_symbol
_atom_site_label
_atom_site_fract_x
_atom_site_fract_y
_atom_site_fract_z
Si Si1 0.447993 0.929392 0.826155
Si Si2 0.356766 0.171456 0.328793
Si Si3 0.807896 0.560467 0.840377
Si Si4 0.808064 0.938030 0.158496
Si Si5 0.696241 0.716412 0.825512
O O1 0.500000 0.906061 0.750000
O O2 0.409136 0.867428 0.793936
O O3 0.429483 0.000000 0.750000
O O4 0.454958 0.940890 0.000000
O O5 0.347004 0.178194 0.500000
O O6 0.311448 0.129306 0.253296
O O7 0.351383 0.245563 0.252360
O O8 0.835712 0.500000 0.750000
O O9 0.750014 0.541477 0.864752
O O10 0.834285 0.568156 0.000000
O O11 0.809903 0.862195 0.229776
O O12 0.834219 0.000000 0.250000
O O13 0.835110 0.936598 0.000000
O O14 0.750000 0.750000 0.776809
O O15 0.691277 0.720912 0.000000
#
# Coordination Sequence:
#
# PCOD8275450 Si02
#       5
#    16  16  16  16  16
#     4  10  21  36  53  73  98 128 167 208 253 299
#     4  11  22  32  46  71  96 124 162 205 249 295
#     4  10  18  29  43  62  89 122 161 201 237 282
#     4   9  18  31  46  63  87 122 162 199 236 278
#     4  10  19  34  49  66  95 131 166 203 246 291
#
# _framework density 16.987888000000002
#
# number of rings (size 3 to 8) (size 9 to 14) (size 15 to 20)
#    0.000    2.000    2.000    3.000    0.000    6.800 
#    0.000    0.000    0.000    0.000    0.000    0.000 
#    0.000    0.800    0.000    8.800    0.000    6.400 
#
# Total GULP energy -495561.922967 kJ/mol
# GULP energy per Si atom -12389.048074 kJ/mol
# Density = 1.694922 g / cm^3
# Si number density = 16.987888 Si / 1000 Ang^3
#
#
#
# Elastic Constant Matrix: (Units=GPa)
#
#
# Indices 1 2 3 4 5 6 
#
# 1 44.6486 32.2545 29.1899 0.0000 0.0000 0.0000
# 2 32.2545 156.1874 62.9668 0.0000 0.0000 0.0000
# 3 29.1899 62.9668 89.6068 0.0000 0.0000 0.0000
# 4 0.0000 0.0000 0.0000 30.8655 0.0000 0.0000
# 5 0.0000 0.0000 0.0000 0.0000 16.9360 0.0000
# 6 0.0000 0.0000 0.0000 0.0000 0.0000 21.2242
#
#
#
# Elastic Compliance Matrix: (Units=1/GPa)
#
#
# Indices 1 2 3 4 5 6 
#
# 1 0.029492 -0.003094 -0.007433 0.000000 0.000000 0.000000
# 2 -0.003094 0.009258 -0.005498 0.000000 0.000000 0.000000
# 3 -0.007433 -0.005498 0.017444 0.000000 0.000000 0.000000
# 4 0.000000 0.000000 0.000000 0.032399 0.000000 0.000000
# 5 0.000000 0.000000 0.000000 0.000000 0.059046 0.000000
# 6 0.000000 0.000000 0.000000 0.000000 0.000000 0.047116
#
#
# Mechanical properties :
#
#
# Convention : Reuss Voigt Hill
#
# Bulk Modulus (GPa) = 41.41660 59.91835 50.66748
# Shear Modulus (GPa) = 21.29003 24.87391 23.08197
#
# Velocity S-wave (km/s) = 3.54396 3.83066 3.69010
# Velocity P-wave (km/s) = 6.41711 7.41033 6.93153
#
# Compressibility (1/GPa) = 0.02414491
#
# Stress axis : x y z
#
# Youngs Moduli (GPa) = 33.90794 108.01653 57.32469
#
# Poissons Ratio (x) = 0.33417 0.42610
# Poissons Ratio (y) = 0.10490 0.31515
# Poissons Ratio (z) = 0.25204 0.59384
#
# Static dielectric constant tensor:
#      x y z
#    x 2.753500 0.000000 0.000000 
#    y 0.000000 3.335190 0.000000 
#    z 0.000000 0.000000 3.600150 
# 
# 
# High freq. dielectric constant tensor:
#      x y z
#    x 1.594180 0.000000 0.000000 
#    y 0.000000 1.655430 0.000000 
#    z 0.000000 0.000000 1.668950 
# 
# From -- ./inp_files/6905.got.cif
#   From: 2010.03.12/outbox.cif.g09.slc.cpg/sg66_4_cif.got.tgz:6905.got - 2010.04.10 21:57:39.
