data_PCOD8275849
_publ_section_title
;
Structure prediction by ZEFSAII (Michael W. Deem and Ramdas Pophale) SiO2 
 PCOD8275849
Probable space group: C C C M
;
_chemical_formula_sum "Si O2"
_cell_formula_units_Z 112
_cell_length_a 22.473120
_cell_length_b 13.715702
_cell_length_c 19.591139
_cell_angle_alpha 90.000000
_cell_angle_beta 90.000000
_cell_angle_gamma 90.000000
_cell_volume 6038.667225
_symmetry_space_group_name_H-M "C C C M"
_symmetry_group_IT_number 66
_symmetry_cell_setting 'orthorhombic'
loop_
_space_group_symop_operation_xyz
x,y,z
-x,-y,z
x,-y,1/2-z
-x,y,1/2-z
-x,-y,-z
x,y,-z
-x,y,1/2+z
x,-y,1/2+z
1/2+x,1/2+y,z
1/2-x,1/2-y,z
1/2+x,1/2-y,1/2-z
1/2-x,1/2+y,1/2-z
1/2-x,1/2-y,-z
1/2+x,1/2+y,-z
1/2-x,1/2+y,1/2+z
1/2+x,1/2-y,1/2+z
loop_
_atom_site_type_symbol
_atom_site_label
_atom_site_fract_x
_atom_site_fract_y
_atom_site_fract_z
Si Si1 0.891554 0.217812 0.642674
Si Si2 0.005492 0.888667 0.169035
Si Si3 0.149488 0.563760 0.187191
Si Si4 0.345795 0.903929 0.421664
Si Si5 0.285324 0.567540 0.188882
Si Si6 0.289402 0.588592 0.421466
Si Si7 0.881013 0.221781 0.803564
O O1 0.890277 0.325298 0.610839
O O2 0.835913 0.161414 0.611609
O O3 0.888576 0.221369 0.723153
O O4 0.954721 0.167724 0.626121
O O5 0.069119 0.838448 0.154037
O O6 0.000000 0.882689 0.250000
O O7 0.000000 0.000000 0.143997
O O8 0.122293 0.500000 0.250000
O O9 0.144442 0.505442 0.116880
O O10 0.217189 0.590134 0.207158
O O11 0.115840 0.665420 0.173954
O O12 0.362812 0.920987 0.500000
O O13 0.277331 0.867830 0.414017
O O14 0.312805 0.500000 0.250000
O O15 0.292455 0.514331 0.116642
O O16 0.318357 0.670244 0.181255
O O17 0.306024 0.570961 0.500000
#
# Coordination Sequence:
#
# PCOD8275849 Si02
#       7
#    16  16  16  16  16  16  16
#     4  11  19  32  55  80 111 146 185 235 283 329
#     4   9  20  34  53  80 111 143 181 227 277 330
#     4  10  20  34  53  83 115 143 185 232 277 331
#     4  10  21  36  55  81 116 152 184 228 289 345
#     4  10  19  31  54  83 114 149 180 225 282 338
#     4  10  20  33  53  85 118 148 185 229 284 348
#     4  11  20  33  56  82 111 146 188 232 279 329
#
# _framework density 18.547138
#
# number of rings (size 3 to 8) (size 9 to 14) (size 15 to 20)
#    0.000    1.857    2.857    2.143    2.000    2.286 
#    0.000    1.429    0.000   13.714    0.000    0.000 
#    0.000    0.000    0.000    0.000    0.000    0.000 
#
# Total GULP energy -694282.444531 kJ/mol
# GULP energy per Si atom -12397.900795 kJ/mol
# Density = 1.850492 g / cm^3
# Si number density = 18.547138 Si / 1000 Ang^3
#
#
#
# Elastic Constant Matrix: (Units=GPa)
#
#
# Indices 1 2 3 4 5 6 
#
# 1 72.9882 59.7576 33.2014 0.0000 0.0000 0.0000
# 2 59.7576 137.2885 40.9942 0.0000 0.0000 0.0000
# 3 33.2014 40.9942 82.3392 0.0000 0.0000 0.0000
# 4 0.0000 0.0000 0.0000 35.2162 0.0000 0.0000
# 5 0.0000 0.0000 0.0000 0.0000 19.5562 0.0000
# 6 0.0000 0.0000 0.0000 0.0000 0.0000 37.8354
#
#
#
# Elastic Compliance Matrix: (Units=1/GPa)
#
#
# Indices 1 2 3 4 5 6 
#
# 1 0.022929 -0.008480 -0.005024 0.000000 0.000000 0.000000
# 2 -0.008480 0.011692 -0.002402 0.000000 0.000000 0.000000
# 3 -0.005024 -0.002402 0.015366 0.000000 0.000000 0.000000
# 4 0.000000 0.000000 0.000000 0.028396 0.000000 0.000000
# 5 0.000000 0.000000 0.000000 0.000000 0.051135 0.000000
# 6 0.000000 0.000000 0.000000 0.000000 0.000000 0.026430
#
#
# Mechanical properties :
#
#
# Convention : Reuss Voigt Hill
#
# Bulk Modulus (GPa) = 55.01624 62.28024 58.64824
# Shear Modulus (GPa) = 25.79729 29.09905 27.44817
#
# Velocity S-wave (km/s) = 3.73353 3.96526 3.85114
# Velocity P-wave (km/s) = 6.95075 7.39031 7.17390
#
# Compressibility (1/GPa) = 0.01817645
#
# Stress axis : x y z
#
# Youngs Moduli (GPa) = 43.61276 85.52616 65.07763
#
# Poissons Ratio (x) = 0.72529 0.32692
# Poissons Ratio (y) = 0.36985 0.15630
# Poissons Ratio (z) = 0.21909 0.20541
#
# Static dielectric constant tensor:
#      x y z
#    x 3.474990 0.000000 0.000000 
#    y 0.000000 3.437720 0.000000 
#    z 0.000000 0.000000 3.274940 
# 
# 
# High freq. dielectric constant tensor:
#      x y z
#    x 1.702470 0.000000 0.000000 
#    y 0.000000 1.723600 0.000000 
#    z 0.000000 0.000000 1.697560 
# 
# From -- ./inp_files/52614.got.cif
#   From: 2010.03.12/outbox.cif.g09.slc.cpg/sg66_27_cif.got.tgz:52614.got - 2010.04.10 21:57:39.
