data_PCOD8275428
_publ_section_title
;
Structure prediction by ZEFSAII (Michael W. Deem and Ramdas Pophale) SiO2 
 PCOD8275428
Probable space group: C C C M
;
_chemical_formula_sum "Si O2"
_cell_formula_units_Z 96
_cell_length_a 26.385461
_cell_length_b 29.066104
_cell_length_c 8.937340
_cell_angle_alpha 90.000000
_cell_angle_beta 90.000000
_cell_angle_gamma 90.000000
_cell_volume 6854.247614
_symmetry_space_group_name_H-M "C C C M"
_symmetry_group_IT_number 66
_symmetry_cell_setting 'orthorhombic'
loop_
_space_group_symop_operation_xyz
x,y,z
-x,-y,z
x,-y,1/2-z
-x,y,1/2-z
-x,-y,-z
x,y,-z
-x,y,1/2+z
x,-y,1/2+z
1/2+x,1/2+y,z
1/2-x,1/2-y,z
1/2+x,1/2-y,1/2-z
1/2-x,1/2+y,1/2-z
1/2-x,1/2-y,-z
1/2+x,1/2+y,-z
1/2-x,1/2+y,1/2+z
1/2+x,1/2-y,1/2+z
loop_
_atom_site_type_symbol
_atom_site_label
_atom_site_fract_x
_atom_site_fract_y
_atom_site_fract_z
Si Si1 0.553594 0.140282 0.177741
Si Si2 0.698788 0.278386 0.663642
Si Si3 0.780142 0.546488 0.323688
Si Si4 0.142719 0.692816 0.321545
Si Si5 0.742419 0.862091 0.821861
Si Si6 0.896809 0.454036 0.175297
O O1 0.500000 0.151410 0.250000
O O2 0.592058 0.178715 0.236677
O O3 0.571610 0.089847 0.231866
O O4 0.550368 0.143161 0.000000
O O5 0.677323 0.290519 0.500000
O O6 0.750000 0.250000 0.644115
O O7 0.657727 0.244261 0.740667
O O8 0.713844 0.326966 0.742040
O O9 0.758429 0.500000 0.250000
O O10 0.772743 0.543954 0.500000
O O11 0.748716 0.589276 0.258114
O O12 0.838640 0.552835 0.276188
O O13 0.134481 0.693543 0.500000
O O14 0.187015 0.657079 0.278592
O O15 0.747141 0.867290 0.000000
O O16 0.919610 0.500000 0.250000
O O17 0.901685 0.460379 0.000000
#
# Coordination Sequence:
#
# PCOD8275428 Si02
#       6
#    16  16  16  16  16  16
#     4  11  22  34  44  58  76  98 129 167 208 249
#     4   7  12  23  40  62  82  99 123 151 186 233
#     4  10  18  28  40  57  79 104 133 164 200 239
#     4   9  16  28  45  61  78 101 126 158 196 236
#     4   9  15  25  43  63  81 102 127 157 192 233
#     4   9  19  32  44  55  71  94 125 165 207 246
#
# _framework density 14.005914000000001
#
# number of rings (size 3 to 8) (size 9 to 14) (size 15 to 20)
#    0.000    2.833    1.667    3.000    0.000    2.333 
#    0.000    2.500    0.000    3.000    0.000    0.000 
#    0.000    0.000    0.000    0.000    0.000    0.833 
#
# Total GULP energy -594764.602574 kJ/mol
# GULP energy per Si atom -12390.929220 kJ/mol
# Density = 1.397404 g / cm^3
# Si number density = 14.005914 Si / 1000 Ang^3
#
#
#
# Elastic Constant Matrix: (Units=GPa)
#
#
# Indices 1 2 3 4 5 6 
#
# 1 52.9391 57.3715 22.3391 0.0000 0.0000 0.0000
# 2 57.3715 127.9436 40.2617 0.0000 0.0000 0.0000
# 3 22.3391 40.2617 37.8841 0.0000 0.0000 0.0000
# 4 0.0000 0.0000 0.0000 18.3667 0.0000 0.0000
# 5 0.0000 0.0000 0.0000 0.0000 7.8625 0.0000
# 6 0.0000 0.0000 0.0000 0.0000 0.0000 19.5317
#
#
#
# Elastic Compliance Matrix: (Units=1/GPa)
#
#
# Indices 1 2 3 4 5 6 
#
# 1 0.037758 -0.014912 -0.006417 0.000000 0.000000 0.000000
# 2 -0.014912 0.017632 -0.009946 0.000000 0.000000 0.000000
# 3 -0.006417 -0.009946 0.040750 0.000000 0.000000 0.000000
# 4 0.000000 0.000000 0.000000 0.054446 0.000000 0.000000
# 5 0.000000 0.000000 0.000000 0.000000 0.127186 0.000000
# 6 0.000000 0.000000 0.000000 0.000000 0.000000 0.051199
#
#
# Mechanical properties :
#
#
# Convention : Reuss Voigt Hill
#
# Bulk Modulus (GPa) = 29.76978 50.96793 40.36886
# Shear Modulus (GPa) = 12.41564 15.73848 14.07706
#
# Velocity S-wave (km/s) = 2.98057 3.35580 3.17374
# Velocity P-wave (km/s) = 5.75729 7.17527 6.50503
#
# Compressibility (1/GPa) = 0.03359111
#
# Stress axis : x y z
#
# Youngs Moduli (GPa) = 26.48468 56.71385 24.53962
#
# Poissons Ratio (x) = 0.84570 0.15747
# Poissons Ratio (y) = 0.39493 0.24407
# Poissons Ratio (z) = 0.16995 0.56408
#
# Static dielectric constant tensor:
#      x y z
#    x 2.493270 0.000000 0.000000 
#    y 0.000000 2.997100 0.000000 
#    z 0.000000 0.000000 2.581260 
# 
# 
# High freq. dielectric constant tensor:
#      x y z
#    x 1.481950 0.000000 0.000000 
#    y 0.000000 1.537080 0.000000 
#    z 0.000000 0.000000 1.524850 
# 
# From -- ./inp_files/9279.got.cif
#   From: 2010.03.12/outbox.cif.g09.slc.cpg/sg66_5_cif.got.tgz:9279.got - 2010.04.10 21:57:39.
