data_PCOD8275932
_publ_section_title
;
Structure prediction by ZEFSAII (Michael W. Deem and Ramdas Pophale) SiO2 
 PCOD8275932
Probable space group: C C C M
;
_chemical_formula_sum "Si O2"
_cell_formula_units_Z 116
_cell_length_a 22.701971
_cell_length_b 17.154055
_cell_length_c 14.172592
_cell_angle_alpha 90.000000
_cell_angle_beta 90.000000
_cell_angle_gamma 90.000000
_cell_volume 5519.244679
_symmetry_space_group_name_H-M "C C C M"
_symmetry_group_IT_number 66
_symmetry_cell_setting 'orthorhombic'
loop_
_space_group_symop_operation_xyz
x,y,z
-x,-y,z
x,-y,1/2-z
-x,y,1/2-z
-x,-y,-z
x,y,-z
-x,y,1/2+z
x,-y,1/2+z
1/2+x,1/2+y,z
1/2-x,1/2-y,z
1/2+x,1/2-y,1/2-z
1/2-x,1/2+y,1/2-z
1/2-x,1/2-y,-z
1/2+x,1/2+y,-z
1/2-x,1/2+y,1/2+z
1/2+x,1/2-y,1/2+z
loop_
_atom_site_type_symbol
_atom_site_label
_atom_site_fract_x
_atom_site_fract_y
_atom_site_fract_z
Si Si1 0.298381 0.405424 0.107394
Si Si2 0.857337 0.766644 0.795005
Si Si3 0.000000 0.000000 0.750000
Si Si4 0.093474 0.818285 0.895632
Si Si5 0.518902 0.227515 0.645913
Si Si6 0.909632 0.000923 0.107667
Si Si7 0.547051 0.943367 0.896085
Si Si8 0.668805 0.890412 0.889109
O O1 0.313128 0.334150 0.175156
O O2 0.342585 0.476386 0.128490
O O3 0.231218 0.434623 0.124824
O O4 0.305425 0.376122 0.000000
O O5 0.867506 0.772544 0.681690
O O6 0.919209 0.774138 0.851407
O O7 0.827441 0.685432 0.822848
O O8 0.955382 0.954580 0.822518
O O9 0.028537 0.781675 0.904506
O O10 0.085794 0.908153 0.865811
O O11 0.123181 0.812469 0.000000
O O12 0.500000 0.204580 0.750000
O O13 0.524323 0.145031 0.593881
O O14 0.927931 0.983677 0.000000
O O15 0.613482 0.942843 0.851968
O O16 0.500000 0.000000 0.841210
O O17 0.553867 0.979799 0.000000
O O18 0.659123 0.868116 0.000000
#
# Coordination Sequence:
#
# PCOD8275932 Si02
#       8
#    16  16   4  16  16  16  16  16
#     4  10  20  35  56  84 116 149 188 238 291 342
#     4  10  19  32  55  84 111 149 190 238 288 343
#     4  12  22  36  56  78 116 148 190 252 292 338
#     4  10  21  36  53  77 116 158 195 237 281 343
#     4   9  19  32  51  78 108 143 183 231 286 335
#     4  10  23  36  53  82 115 155 201 240 287 348
#     4   9  17  31  54  85 115 142 174 221 285 349
#     4   9  18  34  58  88 117 145 183 236 292 349
#
# _framework density 21.017368000000001
#
# number of rings (size 3 to 8) (size 9 to 14) (size 15 to 20)
#    0.000    2.345    0.000    2.276    4.828    3.034 
#    0.000    0.000    0.000   19.862    0.000    5.793 
#    0.000    0.000    0.000    0.000    0.000    0.000 
#
# Total GULP energy -718581.404060 kJ/mol
# GULP energy per Si atom -12389.334553 kJ/mol
# Density = 2.096953 g / cm^3
# Si number density = 21.017368 Si / 1000 Ang^3
#
#
#
# Elastic Constant Matrix: (Units=GPa)
#
#
# Indices 1 2 3 4 5 6 
#
# 1 179.6004 65.7260 41.3597 0.0000 0.0000 0.0000
# 2 65.7260 77.5001 21.9302 0.0000 0.0000 0.0000
# 3 41.3597 21.9302 100.7553 0.0000 0.0000 0.0000
# 4 0.0000 0.0000 0.0000 23.0937 0.0000 0.0000
# 5 0.0000 0.0000 0.0000 0.0000 24.7699 0.0000
# 6 0.0000 0.0000 0.0000 0.0000 0.0000 32.3114
#
#
#
# Elastic Compliance Matrix: (Units=1/GPa)
#
#
# Indices 1 2 3 4 5 6 
#
# 1 0.008447 -0.006589 -0.002034 0.000000 0.000000 0.000000
# 2 -0.006589 0.018889 -0.001407 0.000000 0.000000 0.000000
# 3 -0.002034 -0.001407 0.011066 0.000000 0.000000 0.000000
# 4 0.000000 0.000000 0.000000 0.043302 0.000000 0.000000
# 5 0.000000 0.000000 0.000000 0.000000 0.040372 0.000000
# 6 0.000000 0.000000 0.000000 0.000000 0.000000 0.030949
#
#
# Mechanical properties :
#
#
# Convention : Reuss Voigt Hill
#
# Bulk Modulus (GPa) = 54.51221 68.43195 61.47208
# Shear Modulus (GPa) = 27.90226 31.29100 29.59663
#
# Velocity S-wave (km/s) = 3.64755 3.86270 3.75667
# Velocity P-wave (km/s) = 6.61306 7.24737 6.93747
#
# Compressibility (1/GPa) = 0.01834451
#
# Stress axis : x y z
#
# Youngs Moduli (GPa) = 118.38037 52.94125 90.36699
#
# Poissons Ratio (x) = 0.34881 0.18377
# Poissons Ratio (y) = 0.77996 0.12712
# Poissons Ratio (z) = 0.24073 0.07447
#
# Static dielectric constant tensor:
#      x y z
#    x 4.049830 0.000000 0.000000 
#    y 0.000000 3.478060 0.000000 
#    z 0.000000 0.000000 3.783620 
# 
# 
# High freq. dielectric constant tensor:
#      x y z
#    x 1.824220 0.000000 0.000000 
#    y 0.000000 1.788830 0.000000 
#    z 0.000000 0.000000 1.822230 
# 
# From -- ./inp_files/32641.got.cif
#   From: 2010.03.12/outbox.cif.g09.slc.cpg/sg66_17_cif.got.tgz:32641.got - 2010.04.10 21:57:39.
