data_PCOD8275495
_publ_section_title
;
Structure prediction by ZEFSAII (Michael W. Deem and Ramdas Pophale) SiO2 
 PCOD8275495
Probable space group: C C C M
;
_chemical_formula_sum "Si O2"
_cell_formula_units_Z 80
_cell_length_a 19.486382
_cell_length_b 13.894991
_cell_length_c 16.851302
_cell_angle_alpha 90.000000
_cell_angle_beta 90.000000
_cell_angle_gamma 90.000000
_cell_volume 4562.710811
_symmetry_space_group_name_H-M "C C C M"
_symmetry_group_IT_number 66
_symmetry_cell_setting 'orthorhombic'
loop_
_space_group_symop_operation_xyz
x,y,z
-x,-y,z
x,-y,1/2-z
-x,y,1/2-z
-x,-y,-z
x,y,-z
-x,y,1/2+z
x,-y,1/2+z
1/2+x,1/2+y,z
1/2-x,1/2-y,z
1/2+x,1/2-y,1/2-z
1/2-x,1/2+y,1/2-z
1/2-x,1/2-y,-z
1/2+x,1/2+y,-z
1/2-x,1/2+y,1/2+z
1/2+x,1/2-y,1/2+z
loop_
_atom_site_type_symbol
_atom_site_label
_atom_site_fract_x
_atom_site_fract_y
_atom_site_fract_z
Si Si1 0.647715 0.982214 0.911049
Si Si2 0.398630 0.193209 0.410765
Si Si3 0.466353 0.863511 0.329626
Si Si4 0.144778 0.248754 0.751491
Si Si5 0.750269 0.596242 0.205772
O O1 0.581283 0.947625 0.863043
O O2 0.718663 0.935097 0.879215
O O3 0.648567 0.097706 0.906233
O O4 0.640677 0.944520 0.000000
O O5 0.392449 0.237906 0.500000
O O6 0.478052 0.166734 0.395270
O O7 0.373704 0.268529 0.342195
O O8 0.500000 0.906108 0.250000
O O9 0.422394 0.769272 0.304151
O O10 0.192020 0.343676 0.748222
O O11 0.181303 0.160119 0.796267
O O12 0.730250 0.500000 0.250000
#
# Coordination Sequence:
#
# PCOD8275495 Si02
#       5
#    16  16  16  16  16
#     4  10  19  30  47  77 105 132 166 209 264 307
#     4  10  18  30  48  75 105 129 162 214 263 302
#     4   9  18  29  47  71 103 138 170 203 251 308
#     4   9  19  32  49  75  96 135 177 201 250 307
#     4  10  18  34  52  68  99 136 171 211 246 299
#
# _framework density 17.533435999999998
#
# number of rings (size 3 to 8) (size 9 to 14) (size 15 to 20)
#    0.000    2.400    2.000    1.200    0.000    4.000 
#    0.000   12.000    0.000    5.400    0.000    1.400 
#    0.000    0.000    0.000    0.000    0.000    0.000 
#
# Total GULP energy -495649.180875 kJ/mol
# GULP energy per Si atom -12391.229522 kJ/mol
# Density = 1.749353 g / cm^3
# Si number density = 17.533436 Si / 1000 Ang^3
#
#
#
# Elastic Constant Matrix: (Units=GPa)
#
#
# Indices 1 2 3 4 5 6 
#
# 1 68.0318 32.9851 37.2341 0.0000 0.0000 0.0000
# 2 32.9851 57.5149 22.7877 0.0000 0.0000 0.0000
# 3 37.2341 22.7877 105.4211 0.0000 0.0000 0.0000
# 4 0.0000 0.0000 0.0000 18.0914 0.0000 0.0000
# 5 0.0000 0.0000 0.0000 0.0000 24.0942 0.0000
# 6 0.0000 0.0000 0.0000 0.0000 0.0000 15.3179
#
#
#
# Elastic Compliance Matrix: (Units=1/GPa)
#
#
# Indices 1 2 3 4 5 6 
#
# 1 0.023225 -0.011013 -0.005822 0.000000 0.000000 0.000000
# 2 -0.011013 0.024237 -0.001349 0.000000 0.000000 0.000000
# 3 -0.005822 -0.001349 0.011834 0.000000 0.000000 0.000000
# 4 0.000000 0.000000 0.000000 0.055275 0.000000 0.000000
# 5 0.000000 0.000000 0.000000 0.000000 0.041504 0.000000
# 6 0.000000 0.000000 0.000000 0.000000 0.000000 0.065283
#
#
# Mechanical properties :
#
#
# Convention : Reuss Voigt Hill
#
# Bulk Modulus (GPa) = 43.61680 46.33128 44.97404
# Shear Modulus (GPa) = 18.84162 20.69811 19.76986
#
# Velocity S-wave (km/s) = 3.28168 3.43956 3.36155
# Velocity P-wave (km/s) = 6.26814 6.50046 6.38536
#
# Compressibility (1/GPa) = 0.02292694
#
# Stress axis : x y z
#
# Youngs Moduli (GPa) = 43.05661 41.25854 84.50285
#
# Poissons Ratio (x) = 0.45438 0.49202
# Poissons Ratio (y) = 0.47418 0.11403
# Poissons Ratio (z) = 0.25070 0.05568
#
# Static dielectric constant tensor:
#      x y z
#    x 3.325820 0.000000 0.000000 
#    y 0.000000 2.886990 0.000000 
#    z 0.000000 0.000000 3.357990 
# 
# 
# High freq. dielectric constant tensor:
#      x y z
#    x 1.670290 0.000000 0.000000 
#    y 0.000000 1.632840 0.000000 
#    z 0.000000 0.000000 1.681320 
# 
# From -- ./inp_files/28122.got.cif
#   From: 2010.03.12/outbox.cif.g09.slc.cpg/sg66_15_cif.got.tgz:28122.got - 2010.04.10 21:57:39.
