data_PCOD8275885
_publ_section_title
;
Structure prediction by ZEFSAII (Michael W. Deem and Ramdas Pophale) SiO2 
 PCOD8275885
Probable space group: C C C M
;
_chemical_formula_sum "Si O2"
_cell_formula_units_Z 112
_cell_length_a 20.579201
_cell_length_b 12.729692
_cell_length_c 22.572434
_cell_angle_alpha 90.000000
_cell_angle_beta 90.000000
_cell_angle_gamma 90.000000
_cell_volume 5913.230342
_symmetry_space_group_name_H-M "C C C M"
_symmetry_group_IT_number 66
_symmetry_cell_setting 'orthorhombic'
loop_
_space_group_symop_operation_xyz
x,y,z
-x,-y,z
x,-y,1/2-z
-x,y,1/2-z
-x,-y,-z
x,y,-z
-x,y,1/2+z
x,-y,1/2+z
1/2+x,1/2+y,z
1/2-x,1/2-y,z
1/2+x,1/2-y,1/2-z
1/2-x,1/2+y,1/2-z
1/2-x,1/2-y,-z
1/2+x,1/2+y,-z
1/2-x,1/2+y,1/2+z
1/2+x,1/2-y,1/2+z
loop_
_atom_site_type_symbol
_atom_site_label
_atom_site_fract_x
_atom_site_fract_y
_atom_site_fract_z
Si Si1 0.312441 0.308111 0.174179
Si Si2 0.825961 0.335659 0.566587
Si Si3 0.934013 0.549019 0.882300
Si Si4 0.147142 0.637237 0.154821
Si Si5 0.762782 0.008107 0.126513
Si Si6 0.680956 0.694758 0.565578
Si Si7 0.570738 0.805693 0.229799
O O1 0.250000 0.250000 0.206007
O O2 0.313437 0.266143 0.106662
O O3 0.302245 0.434010 0.172648
O O4 0.381590 0.285371 0.205209
O O5 0.810076 0.302977 0.500000
O O6 0.902337 0.366916 0.572857
O O7 0.782256 0.433562 0.586786
O O8 0.885652 0.452548 0.882914
O O9 0.942228 0.602505 0.817688
O O10 0.000000 0.500000 0.906930
O O11 0.221461 0.595875 0.163567
O O12 0.140454 0.743980 0.116255
O O13 0.110013 0.645164 0.216242
O O14 0.812253 0.072846 0.084825
O O15 0.647594 0.698524 0.500000
O O16 0.750000 0.750000 0.560192
O O17 0.500000 0.760591 0.250000
#
# Coordination Sequence:
#
# PCOD8275885 Si02
#       7
#    16  16  16  16  16  16  16
#     4   9  20  35  52  83 116 144 182 233 281 333
#     4   9  18  31  50  79 112 141 177 226 279 332
#     4  10  19  32  51  79 106 141 180 218 275 337
#     4  10  20  32  52  81 108 140 181 225 276 328
#     4   9  18  34  54  77 109 146 183 223 275 338
#     4   9  18  33  53  79 109 142 180 223 272 327
#     4  11  21  36  59  81 112 148 187 231 283 343
#
# _framework density 18.940577999999999
#
# number of rings (size 3 to 8) (size 9 to 14) (size 15 to 20)
#    0.000    2.429    1.429    1.714    0.000    8.571 
#    0.000    5.000    0.000    1.714    0.000    1.000 
#    0.000    0.000    0.000    0.000    0.000    0.000 
#
# Total GULP energy -693784.846400 kJ/mol
# GULP energy per Si atom -12389.015114 kJ/mol
# Density = 1.889747 g / cm^3
# Si number density = 18.940578 Si / 1000 Ang^3
#
#
#
# Elastic Constant Matrix: (Units=GPa)
#
#
# Indices 1 2 3 4 5 6 
#
# 1 93.2350 34.5685 25.8675 0.0000 0.0000 0.0000
# 2 34.5685 96.8785 18.7690 0.0000 0.0000 0.0000
# 3 25.8675 18.7690 50.8679 0.0000 0.0000 0.0000
# 4 0.0000 0.0000 0.0000 12.1528 0.0000 0.0000
# 5 0.0000 0.0000 0.0000 0.0000 10.6988 0.0000
# 6 0.0000 0.0000 0.0000 0.0000 0.0000 27.7014
#
#
#
# Elastic Compliance Matrix: (Units=1/GPa)
#
#
# Indices 1 2 3 4 5 6 
#
# 1 0.013676 -0.003805 -0.005551 0.000000 0.000000 0.000000
# 2 -0.003805 0.012175 -0.002558 0.000000 0.000000 0.000000
# 3 -0.005551 -0.002558 0.023425 0.000000 0.000000 0.000000
# 4 0.000000 0.000000 0.000000 0.082286 0.000000 0.000000
# 5 0.000000 0.000000 0.000000 0.000000 0.093468 0.000000
# 6 0.000000 0.000000 0.000000 0.000000 0.000000 0.036099
#
#
# Mechanical properties :
#
#
# Convention : Reuss Voigt Hill
#
# Bulk Modulus (GPa) = 39.29194 44.37679 41.83437
# Shear Modulus (GPa) = 17.03929 20.89571 18.96750
#
# Velocity S-wave (km/s) = 3.00262 3.32509 3.16796
# Velocity P-wave (km/s) = 5.72807 6.18239 5.95956
#
# Compressibility (1/GPa) = 0.02545051
#
# Stress axis : x y z
#
# Youngs Moduli (GPa) = 73.11934 82.13362 42.68900
#
# Poissons Ratio (x) = 0.31248 0.23696
# Poissons Ratio (y) = 0.27819 0.10918
# Poissons Ratio (z) = 0.40588 0.21007
#
# Static dielectric constant tensor:
#      x y z
#    x 3.772350 0.000000 0.000000 
#    y 0.000000 3.555000 0.000000 
#    z 0.000000 0.000000 3.342760 
# 
# 
# High freq. dielectric constant tensor:
#      x y z
#    x 1.715280 0.000000 0.000000 
#    y 0.000000 1.724960 0.000000 
#    z 0.000000 0.000000 1.722510 
# 
# From -- ./inp_files/59538.got.cif
#   From: 2010.03.12/outbox.cif.g09.slc.cpg/sg66_30_cif.got.tgz:59538.got - 2010.04.10 21:57:39.
