data_PCOD8275204
_publ_section_title
;
Structure prediction by ZEFSAII (Michael W. Deem and Ramdas Pophale) SiO2 
 PCOD8275204
Probable space group: C M M M
;
_chemical_formula_sum "Si O2"
_cell_formula_units_Z 32
_cell_length_a 9.000000
_cell_length_b 18.000000
_cell_length_c 21.000000
_cell_angle_alpha 90.000000
_cell_angle_beta 90.000000
_cell_angle_gamma 90.000000
_cell_volume 3402.000000
_symmetry_space_group_name_H-M "C M M M"
_symmetry_group_IT_number 65
_symmetry_cell_setting 'orthorhombic'
loop_
_space_group_symop_operation_xyz
x,y,z
-x,-y,z
x,-y,-z
-x,y,-z
-x,-y,-z
x,y,-z
-x,y,z
x,-y,z
1/2+x,1/2+y,z
1/2-x,1/2-y,z
1/2+x,1/2-y,-z
1/2-x,1/2+y,-z
1/2-x,1/2-y,-z
1/2+x,1/2+y,-z
1/2-x,1/2+y,z
1/2+x,1/2-y,z
loop_
_atom_site_type_symbol
_atom_site_label
_atom_site_fract_x
_atom_site_fract_y
_atom_site_fract_z
Si Si1 0.832281 0.088175 0.122292
Si Si2 0.833038 0.911722 0.738259
Si Si3 0.176214 0.170032 0.500000
Si Si4 0.330039 0.911886 0.386133
Si Si5 0.166237 0.411260 0.000000
O O1 0.774851 0.115438 0.192054
O O2 0.738990 0.122479 0.064083
O O3 0.000000 0.115041 0.112881
O O4 0.822189 0.000000 0.119447
O O5 0.722699 0.883066 0.683279
O O6 0.000000 0.881619 0.725721
O O7 0.837188 0.000000 0.737853
O O8 0.250000 0.250000 0.500000
O O9 0.225873 0.125302 0.561957
O O10 0.000000 0.178261 0.500000
O O11 0.500000 0.887147 0.396473
O O12 0.313019 0.000000 0.392396
O O13 0.178544 0.500000 0.000000
O O14 0.000000 0.382660 0.000000
#
# Coordination Sequence:
#
# PCOD8275204 Si02
#       5
#    16  16   8  16   8
#     4   8  13  21  32  46  69 104 145 186 226 271
#     4   8  14  25  41  61  84 113 152 194 234 277
#     4  12  25  40  57  75  99 129 161 198 241 290
#     4  10  20  34  53  77 103 129 160 199 241 287
#     4   9  15  19  25  41  67 101 142 185 228 275
#
# _framework density 9.4062319999999993
#
# number of rings (size 3 to 8) (size 9 to 14) (size 15 to 20)
#    0.000    2.875    0.000    4.125    0.000    5.500 
#    0.000    5.000    0.000    0.000    0.000    0.000 
#    0.000    0.000    0.000    1.125    0.000   16.000 
#
# Total GULP energy -396563.438711 kJ/mol
# GULP energy per Si atom -12392.607460 kJ/mol
# Density = 0.938482 g / cm^3
# Si number density = 9.406232 Si / 1000 Ang^3
#
#
#
# Elastic Constant Matrix: (Units=GPa)
#
#
# Indices 1 2 3 4 5 6 
#
# 1 134.9339 24.1055 93.7788 0.0000 0.0000 0.0000
# 2 24.1055 17.7010 24.2836 0.0000 0.0000 0.0000
# 3 93.7788 24.2836 193.9457 0.0000 0.0000 0.0000
# 4 0.0000 0.0000 0.0000 -2.1213 0.0000 0.0000
# 5 0.0000 0.0000 0.0000 0.0000 26.7505 0.0000
# 6 0.0000 0.0000 0.0000 0.0000 0.0000 13.8875
#
#
#
# Elastic Compliance Matrix: (Units=1/GPa)
#
#
# Indices 1 2 3 4 5 6 
#
# 1 0.012632 -0.010653 -0.004774 0.000000 0.000000 0.000000
# 2 -0.010653 0.077195 -0.004514 0.000000 0.000000 0.000000
# 3 -0.004774 -0.004514 0.008030 0.000000 0.000000 0.000000
# 4 0.000000 0.000000 0.000000 -0.471417 0.000000 0.000000
# 5 0.000000 0.000000 0.000000 0.000000 0.037382 0.000000
# 6 0.000000 0.000000 0.000000 0.000000 0.000000 0.072007
#
#
# Mechanical properties :
#
#
# Convention : Reuss Voigt Hill
#
# Bulk Modulus (GPa) = 17.24931 70.10184 43.67557
# Shear Modulus (GPa) = -24.39468 21.33086 -1.53191
#
# Velocity S-wave (km/s) = -3.60492 3.37095 -0.90337
# Velocity P-wave (km/s) = 2.85277 7.24538 4.70942
#
# Compressibility (1/GPa) = 0.05797335
#
# Stress axis : x y z
#
# Youngs Moduli (GPa) = 79.16231 12.95426 124.53614
#
# Poissons Ratio (x) = 0.13800 0.59456
# Poissons Ratio (y) = 0.84333 0.56219
# Poissons Ratio (z) = 0.37794 0.05848
#
# Static dielectric constant tensor:
#      x y z
#    x 3.518020 0.000000 0.000000 
#    y 0.000000 2.751660 0.000000 
#    z 0.000000 0.000000 4.193350 
# 
# 
# High freq. dielectric constant tensor:
#      x y z
#    x 1.729380 0.000000 0.000000 
#    y 0.000000 1.648280 0.000000 
#    z 0.000000 0.000000 1.758480 
# 
# From -- ./inp_files/58852.got.cif
#   From: 2010.03.12/outbox.ucp.g09.slc.cvg/sg65_30_cif.got.tgz:58852.got - 2010.05.04 19:44:54.
