data_PCOD8275399
_publ_section_title
;
Structure prediction by ZEFSAII (Michael W. Deem and Ramdas Pophale) SiO2 
 PCOD8275399
Probable space group: C C C M
;
_chemical_formula_sum "Si O2"
_cell_formula_units_Z 72
_cell_length_a 16.687330
_cell_length_b 9.484147
_cell_length_c 23.099256
_cell_angle_alpha 90.000000
_cell_angle_beta 90.000000
_cell_angle_gamma 90.000000
_cell_volume 3655.805847
_symmetry_space_group_name_H-M "C C C M"
_symmetry_group_IT_number 66
_symmetry_cell_setting 'orthorhombic'
loop_
_space_group_symop_operation_xyz
x,y,z
-x,-y,z
x,-y,1/2-z
-x,y,1/2-z
-x,-y,-z
x,y,-z
-x,y,1/2+z
x,-y,1/2+z
1/2+x,1/2+y,z
1/2-x,1/2-y,z
1/2+x,1/2-y,1/2-z
1/2-x,1/2+y,1/2-z
1/2-x,1/2-y,-z
1/2+x,1/2+y,-z
1/2-x,1/2+y,1/2+z
1/2+x,1/2-y,1/2+z
loop_
_atom_site_type_symbol
_atom_site_label
_atom_site_fract_x
_atom_site_fract_y
_atom_site_fract_z
Si Si1 0.367895 0.841197 0.334927
Si Si2 0.205982 0.042172 0.815633
Si Si3 0.983313 0.664663 0.934460
Si Si4 0.063215 0.876161 0.855726
Si Si5 0.500000 0.791467 0.750000
O O1 0.297969 0.958489 0.338603
O O2 0.331893 0.695416 0.314288
O O3 0.401903 0.813067 0.398842
O O4 0.438196 0.885832 0.288931
O O5 0.207849 0.000000 0.750000
O O6 0.153674 0.936958 0.855629
O O7 0.000000 0.500000 0.931863
O O8 0.054783 0.756268 0.905298
O O9 0.971049 0.717134 0.000000
O O10 0.048410 0.810005 0.792918
O O11 0.000000 0.000000 0.868544
#
# Coordination Sequence:
#
# PCOD8275399 Si02
#       5
#    16  16  16  16   8
#     4  10  22  35  58  90 124 165 204 252 321 370
#     4  11  20  36  57  92 131 157 195 257 316 381
#     4  10  23  43  61  83 118 160 213 266 310 373
#     4  11  18  35  64  88 117 158 207 254 311 376
#     4  10  17  34  61  88 121 166 203 250 311 390
#
# _framework density 19.694701999999999
#
# number of rings (size 3 to 8) (size 9 to 14) (size 15 to 20)
#    0.000    1.556    6.667    0.333    0.000    4.000 
#    0.000    8.333    0.000    2.667    0.000    0.000 
#    0.000    0.000    0.000    0.000    0.000    0.000 
#
# Total GULP energy -446217.074000 kJ/mol
# GULP energy per Si atom -12394.918722 kJ/mol
# Density = 1.964988 g / cm^3
# Si number density = 19.694702 Si / 1000 Ang^3
#
#
#
# Elastic Constant Matrix: (Units=GPa)
#
#
# Indices 1 2 3 4 5 6 
#
# 1 164.0415 48.1826 64.7321 0.0000 0.0000 0.0000
# 2 48.1826 64.4372 44.4249 0.0000 0.0000 0.0000
# 3 64.7321 44.4249 147.6016 0.0000 0.0000 0.0000
# 4 0.0000 0.0000 0.0000 24.1745 0.0000 0.0000
# 5 0.0000 0.0000 0.0000 0.0000 21.7201 0.0000
# 6 0.0000 0.0000 0.0000 0.0000 0.0000 37.8205
#
#
#
# Elastic Compliance Matrix: (Units=1/GPa)
#
#
# Indices 1 2 3 4 5 6 
#
# 1 0.008367 -0.004702 -0.002254 0.000000 0.000000 0.000000
# 2 -0.004702 0.022225 -0.004627 0.000000 0.000000 0.000000
# 3 -0.002254 -0.004627 0.009156 0.000000 0.000000 0.000000
# 4 0.000000 0.000000 0.000000 0.041366 0.000000 0.000000
# 5 0.000000 0.000000 0.000000 0.000000 0.046040 0.000000
# 6 0.000000 0.000000 0.000000 0.000000 0.000000 0.026441
#
#
# Mechanical properties :
#
#
# Convention : Reuss Voigt Hill
#
# Bulk Modulus (GPa) = 60.30874 76.75105 68.52989
# Shear Modulus (GPa) = 27.42909 31.32573 29.37741
#
# Velocity S-wave (km/s) = 3.73596 3.99252 3.86637
# Velocity P-wave (km/s) = 7.02126 7.76586 7.40293
#
# Compressibility (1/GPa) = 0.01658135
#
# Stress axis : x y z
#
# Youngs Moduli (GPa) = 119.52314 44.99440 109.21593
#
# Poissons Ratio (x) = 0.21157 0.24617
# Poissons Ratio (y) = 0.56201 0.50535
# Poissons Ratio (z) = 0.26941 0.20819
#
# Static dielectric constant tensor:
#      x y z
#    x 4.799790 0.000000 0.000000 
#    y 0.000000 3.518180 0.000000 
#    z 0.000000 0.000000 3.575620 
# 
# 
# High freq. dielectric constant tensor:
#      x y z
#    x 1.765260 0.000000 0.000000 
#    y 0.000000 1.770220 0.000000 
#    z 0.000000 0.000000 1.746530 
# 
# From -- ./inp_files/50770.got.cif
#   From: 2010.03.12/outbox.cif.g09.slc.cpg/sg66_26_cif.got.tgz:50770.got - 2010.04.10 21:57:39.
