data_PCOD8275097
_publ_section_title
;
Structure prediction by ZEFSAII (Michael W. Deem and Ramdas Pophale) SiO2 
 PCOD8275097
Probable space group: C M M M
;
_chemical_formula_sum "Si O2"
_cell_formula_units_Z 80
_cell_length_a 7.905412
_cell_length_b 26.063660
_cell_length_c 23.942342
_cell_angle_alpha 90.000000
_cell_angle_beta 90.000000
_cell_angle_gamma 90.000000
_cell_volume 4933.175209
_symmetry_space_group_name_H-M "C M M M"
_symmetry_group_IT_number 65
_symmetry_cell_setting 'orthorhombic'
loop_
_space_group_symop_operation_xyz
x,y,z
-x,-y,z
x,-y,-z
-x,y,-z
-x,-y,-z
x,y,-z
-x,y,z
x,-y,z
1/2+x,1/2+y,z
1/2-x,1/2-y,z
1/2+x,1/2-y,-z
1/2-x,1/2+y,-z
1/2-x,1/2-y,-z
1/2+x,1/2+y,-z
1/2-x,1/2+y,z
1/2+x,1/2-y,z
loop_
_atom_site_type_symbol
_atom_site_label
_atom_site_fract_x
_atom_site_fract_y
_atom_site_fract_z
Si Si1 0.298528 0.598007 0.629500
Si Si2 0.500000 0.438713 0.063074
Si Si3 0.187167 0.560897 0.134688
Si Si4 0.199151 0.941175 0.746425
Si Si5 0.199423 0.805403 0.562720
Si Si6 0.798205 0.000000 0.437063
O O1 0.500000 0.597232 0.627381
O O2 0.238778 0.592682 0.693775
O O3 0.225177 0.650597 0.603140
O O4 0.227384 0.550398 0.593796
O O5 0.500000 0.500000 0.063773
O O6 0.668434 0.416944 0.093599
O O7 0.500000 0.417720 0.000000
O O8 0.204820 0.500000 0.135764
O O9 0.212596 0.580950 0.197927
O O10 0.000000 0.577617 0.113582
O O11 0.000000 0.937202 0.755819
O O12 0.251030 0.000000 0.734694
O O13 0.274614 0.811809 0.500000
O O14 0.250000 0.750000 0.587371
O O15 0.000000 0.810944 0.560384
O O16 0.728850 0.000000 0.500000
O O17 0.000000 0.000000 0.436143
#
# Coordination Sequence:
#
# PCOD8275097 Si02
#       6
#    16   8  16  16  16   8
#     4   9  15  23  37  59  79 103 134 171 216 263
#     4   9  16  26  38  54  76 106 144 184 218 244
#     4   9  16  25  37  54  76 106 141 177 214 252
#     4   9  14  23  38  54  77 103 132 168 213 262
#     4   9  17  29  43  58  77 103 137 175 212 257
#     4   9  14  20  32  56  85 103 123 167 223 266
#
# _framework density 16.216736000000001
#
# number of rings (size 3 to 8) (size 9 to 14) (size 15 to 20)
#    0.000    3.000    2.000    0.600    0.000    2.800 
#    0.000    3.000    0.000    0.000    0.000    0.000 
#    0.000    4.800    0.000    0.000    0.000    1.000 
#
# Total GULP energy -495764.466145 kJ/mol
# GULP energy per Si atom -12394.111654 kJ/mol
# Density = 1.617983 g / cm^3
# Si number density = 16.216736 Si / 1000 Ang^3
#
#
#
# Elastic Constant Matrix: (Units=GPa)
#
#
# Indices 1 2 3 4 5 6 
#
# 1 57.9048 15.4013 47.2126 0.0000 0.0000 0.0000
# 2 15.4013 79.2812 46.1997 0.0000 0.0000 0.0000
# 3 47.2126 46.1997 134.2672 0.0000 0.0000 0.0000
# 4 0.0000 0.0000 0.0000 11.0200 0.0000 0.0000
# 5 0.0000 0.0000 0.0000 0.0000 8.6405 0.0000
# 6 0.0000 0.0000 0.0000 0.0000 0.0000 10.2458
#
#
#
# Elastic Compliance Matrix: (Units=1/GPa)
#
#
# Indices 1 2 3 4 5 6 
#
# 1 0.024218 0.000322 -0.008627 0.000000 0.000000 0.000000
# 2 0.000322 0.015781 -0.005543 0.000000 0.000000 0.000000
# 3 -0.008627 -0.005543 0.012389 0.000000 0.000000 0.000000
# 4 0.000000 0.000000 0.000000 0.090744 0.000000 0.000000
# 5 0.000000 0.000000 0.000000 0.000000 0.115734 0.000000
# 6 0.000000 0.000000 0.000000 0.000000 0.000000 0.097601
#
#
# Mechanical properties :
#
#
# Convention : Reuss Voigt Hill
#
# Bulk Modulus (GPa) = 40.49880 54.34229 47.42054
# Shear Modulus (GPa) = 12.74234 16.82390 14.78312
#
# Velocity S-wave (km/s) = 2.80617 3.22443 3.02254
# Velocity P-wave (km/s) = 5.96046 6.88806 6.44098
#
# Compressibility (1/GPa) = 0.02469209
#
# Stress axis : x y z
#
# Youngs Moduli (GPa) = 41.29212 63.36725 80.71890
#
# Poissons Ratio (x) = -0.02043 0.69633
# Poissons Ratio (y) = -0.01332 0.44746
# Poissons Ratio (z) = 0.35621 0.35127
#
# Static dielectric constant tensor:
#      x y z
#    x 2.901120 0.000000 0.000000 
#    y 0.000000 2.785950 0.000000 
#    z 0.000000 0.000000 3.220510 
# 
# 
# High freq. dielectric constant tensor:
#      x y z
#    x 1.611080 0.000000 0.000000 
#    y 0.000000 1.559730 0.000000 
#    z 0.000000 0.000000 1.621170 
# 
# From -- ./inp_files/67981.got.cif
#   From: 2010.03.12/outbox.cif.g09.slc.cpg/sg65_34_cif.got.tgz:67981.got - 2010.04.10 20:52:16.
