data_PCOD8275958
_publ_section_title
;
Structure prediction by ZEFSAII (Michael W. Deem and Ramdas Pophale) SiO2 
 PCOD8275958
Probable space group: C C C M
;
_chemical_formula_sum "Si O2"
_cell_formula_units_Z 96
_cell_length_a 19.448119
_cell_length_b 30.847072
_cell_length_c 8.802679
_cell_angle_alpha 90.000000
_cell_angle_beta 90.000000
_cell_angle_gamma 90.000000
_cell_volume 5280.881417
_symmetry_space_group_name_H-M "C C C M"
_symmetry_group_IT_number 66
_symmetry_cell_setting 'orthorhombic'
loop_
_space_group_symop_operation_xyz
x,y,z
-x,-y,z
x,-y,1/2-z
-x,y,1/2-z
-x,-y,-z
x,y,-z
-x,y,1/2+z
x,-y,1/2+z
1/2+x,1/2+y,z
1/2-x,1/2-y,z
1/2+x,1/2-y,1/2-z
1/2-x,1/2+y,1/2-z
1/2-x,1/2-y,-z
1/2+x,1/2+y,-z
1/2-x,1/2+y,1/2+z
1/2+x,1/2-y,1/2+z
loop_
_atom_site_type_symbol
_atom_site_label
_atom_site_fract_x
_atom_site_fract_y
_atom_site_fract_z
Si Si1 0.072947 0.202278 0.819609
Si Si2 0.330883 0.368249 0.678566
Si Si3 0.167903 0.457357 0.830712
Si Si4 0.672370 0.129802 0.176888
Si Si5 0.072646 0.706349 0.180695
Si Si6 0.668405 0.543260 0.827902
O O1 0.129138 0.167266 0.774441
O O2 0.096694 0.248209 0.751376
O O3 0.000000 0.188223 0.750000
O O4 0.066440 0.205743 0.000000
O O5 0.344539 0.362489 0.500000
O O6 0.251223 0.361899 0.722043
O O7 0.356933 0.415572 0.730709
O O8 0.137344 0.500000 0.750000
O O9 0.141690 0.413311 0.753305
O O10 0.249814 0.458894 0.826130
O O11 0.139040 0.457617 0.000000
O O12 0.628742 0.171048 0.230345
O O13 0.665566 0.121681 0.000000
O O14 0.000000 0.691838 0.250000
O O15 0.066494 0.711060 0.000000
O O16 0.637892 0.500000 0.750000
O O17 0.640616 0.546787 0.000000
#
# Coordination Sequence:
#
# PCOD8275958 Si02
#       6
#    16  16  16  16  16  16
#     4  11  22  37  55  75  99 131 169 208 249 301
#     4  10  19  33  52  76 104 134 167 208 252 295
#     4   9  16  26  44  69 100 133 167 204 246 294
#     4   9  19  33  51  75 104 134 167 206 252 299
#     4  10  20  36  55  75  99 132 170 208 250 302
#     4   9  16  27  44  70 101 134 168 204 245 293
#
# _framework density 18.178785000000001
#
# number of rings (size 3 to 8) (size 9 to 14) (size 15 to 20)
#    0.000    2.333    0.000    4.500    0.000    6.667 
#    0.000    3.333    0.000    1.000    0.000    7.000 
#    0.000    0.000    0.000    0.000    0.000    0.000 
#
# Total GULP energy -595227.462720 kJ/mol
# GULP energy per Si atom -12400.572140 kJ/mol
# Density = 1.813741 g / cm^3
# Si number density = 18.178785 Si / 1000 Ang^3
#
#
#
# Elastic Constant Matrix: (Units=GPa)
#
#
# Indices 1 2 3 4 5 6 
#
# 1 51.1542 65.8616 36.1096 0.0000 0.0000 0.0000
# 2 65.8616 163.8735 68.7574 0.0000 0.0000 0.0000
# 3 36.1096 68.7574 106.0353 0.0000 0.0000 0.0000
# 4 0.0000 0.0000 0.0000 38.7484 0.0000 0.0000
# 5 0.0000 0.0000 0.0000 0.0000 16.5463 0.0000
# 6 0.0000 0.0000 0.0000 0.0000 0.0000 -2.6461
#
#
#
# Elastic Compliance Matrix: (Units=1/GPa)
#
#
# Indices 1 2 3 4 5 6 
#
# 1 0.042099 -0.014980 -0.004623 0.000000 0.000000 0.000000
# 2 -0.014980 0.013714 -0.003791 0.000000 0.000000 0.000000
# 3 -0.004623 -0.003791 0.013463 0.000000 0.000000 0.000000
# 4 0.000000 0.000000 0.000000 0.025808 0.000000 0.000000
# 5 0.000000 0.000000 0.000000 0.000000 0.060437 0.000000
# 6 0.000000 0.000000 0.000000 0.000000 0.000000 -0.377922
#
#
# Mechanical properties :
#
#
# Convention : Reuss Voigt Hill
#
# Bulk Modulus (GPa) = 44.46821 73.61336 59.04078
# Shear Modulus (GPa) = -29.74116 20.55201 -4.59458
#
# Velocity S-wave (km/s) = -4.04918 3.36601 -1.59152
# Velocity P-wave (km/s) = 1.62896 7.46249 5.40103
#
# Compressibility (1/GPa) = 0.02248798
#
# Stress axis : x y z
#
# Youngs Moduli (GPa) = 23.75335 72.92071 74.27607
#
# Poissons Ratio (x) = 1.09238 0.34337
# Poissons Ratio (y) = 0.35583 0.28158
# Poissons Ratio (z) = 0.10981 0.27644
#
# Static dielectric constant tensor:
#      x y z
#    x 3.029830 0.000000 0.000000 
#    y 0.000000 3.564050 0.000000 
#    z 0.000000 0.000000 3.495400 
# 
# 
# High freq. dielectric constant tensor:
#      x y z
#    x 1.658110 0.000000 0.000000 
#    y 0.000000 1.720130 0.000000 
#    z 0.000000 0.000000 1.720560 
# 
# From -- ./inp_files/9135.got.cif
#   From: 2010.03.12/outbox.cif.g09.slc.cpg/sg66_5_cif.got.tgz:9135.got - 2010.04.10 21:57:39.
