data_PCOD8275769
_publ_section_title
;
Structure prediction by ZEFSAII (Michael W. Deem and Ramdas Pophale) SiO2 
 PCOD8275769
Probable space group: C C C M
;
_chemical_formula_sum "Si O2"
_cell_formula_units_Z 84
_cell_length_a 15.105247
_cell_length_b 30.635836
_cell_length_c 9.510736
_cell_angle_alpha 90.000000
_cell_angle_beta 90.000000
_cell_angle_gamma 90.000000
_cell_volume 4401.205975
_symmetry_space_group_name_H-M "C C C M"
_symmetry_group_IT_number 66
_symmetry_cell_setting 'orthorhombic'
loop_
_space_group_symop_operation_xyz
x,y,z
-x,-y,z
x,-y,1/2-z
-x,y,1/2-z
-x,-y,-z
x,y,-z
-x,y,1/2+z
x,-y,1/2+z
1/2+x,1/2+y,z
1/2-x,1/2-y,z
1/2+x,1/2-y,1/2-z
1/2-x,1/2+y,1/2-z
1/2-x,1/2-y,-z
1/2+x,1/2+y,-z
1/2-x,1/2+y,1/2+z
1/2+x,1/2-y,1/2+z
loop_
_atom_site_type_symbol
_atom_site_label
_atom_site_fract_x
_atom_site_fract_y
_atom_site_fract_z
Si Si1 0.911069 0.364209 0.833423
Si Si2 0.332881 0.958690 0.165729
Si Si3 0.500000 0.500000 0.750000
Si Si4 0.260595 0.202427 0.661685
Si Si5 0.919882 0.846382 0.338183
Si Si6 0.641342 0.436611 0.842975
O O1 0.883853 0.414017 0.798054
O O2 0.835870 0.330223 0.776976
O O3 0.000000 0.352621 0.750000
O O4 0.926360 0.359140 0.000000
O O5 0.232230 0.953710 0.225540
O O6 0.374912 0.000000 0.250000
O O7 0.336522 0.969263 0.000000
O O8 0.563985 0.472198 0.849276
O O9 0.286224 0.209153 0.500000
O O10 0.250000 0.250000 0.735755
O O11 0.164783 0.182825 0.681520
O O12 0.949646 0.850159 0.500000
O O13 0.896476 0.893417 0.268443
O O14 0.000000 0.825462 0.250000
O O15 0.668456 0.422200 0.000000
#
# Coordination Sequence:
#
# PCOD8275769 Si02
#       6
#    16  16   4  16  16  16
#     4  10  21  38  60  83 112 146 187 235 282 331
#     4  10  20  36  55  77 107 146 185 225 271 325
#     4  12  18  28  48  74 106 136 182 220 262 316
#     4   9  18  35  60  84 108 144 185 223 272 336
#     4  10  19  34  54  78 108 140 177 217 264 321
#     4  10  19  30  46  71 104 140 175 215 261 313
#
# _framework density 19.085678000000001
#
# number of rings (size 3 to 8) (size 9 to 14) (size 15 to 20)
#    0.000    2.095    3.810    0.286    0.000    1.905 
#    0.000    3.810    0.000    1.143    0.000    0.000 
#    0.000    0.000    0.000    0.000    0.000    0.000 
#
# Total GULP energy -520490.765674 kJ/mol
# GULP energy per Si atom -12392.637278 kJ/mol
# Density = 1.904224 g / cm^3
# Si number density = 19.085678 Si / 1000 Ang^3
#
#
#
# Elastic Constant Matrix: (Units=GPa)
#
#
# Indices 1 2 3 4 5 6 
#
# 1 85.5232 44.2061 35.6169 0.0000 0.0000 0.0000
# 2 44.2061 140.8936 33.7396 0.0000 0.0000 0.0000
# 3 35.6169 33.7396 44.2890 0.0000 0.0000 0.0000
# 4 0.0000 0.0000 0.0000 14.5368 0.0000 0.0000
# 5 0.0000 0.0000 0.0000 0.0000 23.4826 0.0000
# 6 0.0000 0.0000 0.0000 0.0000 0.0000 15.6840
#
#
#
# Elastic Compliance Matrix: (Units=1/GPa)
#
#
# Indices 1 2 3 4 5 6 
#
# 1 0.018399 -0.002727 -0.012719 0.000000 0.000000 0.000000
# 2 -0.002727 0.009085 -0.004728 0.000000 0.000000 0.000000
# 3 -0.012719 -0.004728 0.036410 0.000000 0.000000 0.000000
# 4 0.000000 0.000000 0.000000 0.068791 0.000000 0.000000
# 5 0.000000 0.000000 0.000000 0.000000 0.042585 0.000000
# 6 0.000000 0.000000 0.000000 0.000000 0.000000 0.063759
#
#
# Mechanical properties :
#
#
# Convention : Reuss Voigt Hill
#
# Bulk Modulus (GPa) = 42.47097 55.31457 48.89277
# Shear Modulus (GPa) = 17.40785 21.21690 19.31238
#
# Velocity S-wave (km/s) = 3.02336 3.33778 3.18445
# Velocity P-wave (km/s) = 5.87271 6.62567 6.26052
#
# Compressibility (1/GPa) = 0.02354550
#
# Stress axis : x y z
#
# Youngs Moduli (GPa) = 54.34987 110.06613 27.46529
#
# Poissons Ratio (x) = 0.30016 0.34933
# Poissons Ratio (y) = 0.14822 0.12986
# Poissons Ratio (z) = 0.69128 0.52042
#
# Static dielectric constant tensor:
#      x y z
#    x 3.477320 0.000000 0.000000 
#    y 0.000000 3.705140 0.000000 
#    z 0.000000 0.000000 3.056180 
# 
# 
# High freq. dielectric constant tensor:
#      x y z
#    x 1.748540 0.000000 0.000000 
#    y 0.000000 1.752470 0.000000 
#    z 0.000000 0.000000 1.692550 
# 
# From -- ./inp_files/15069.got.cif
#   From: 2010.03.12/outbox.cif.g09.slc.cpg/sg66_8_cif.got.tgz:15069.got - 2010.04.10 21:57:39.
