data_PCOD8275246
_publ_section_title
;
Structure prediction by ZEFSAII (Michael W. Deem and Ramdas Pophale) SiO2 
 PCOD8275246
Probable space group: C C C M
;
_chemical_formula_sum "Si O2"
_cell_formula_units_Z 84
_cell_length_a 9.051142
_cell_length_b 19.084016
_cell_length_c 25.634989
_cell_angle_alpha 90.000000
_cell_angle_beta 90.000000
_cell_angle_gamma 90.000000
_cell_volume 4427.986477
_symmetry_space_group_name_H-M "C C C M"
_symmetry_group_IT_number 66
_symmetry_cell_setting 'orthorhombic'
loop_
_space_group_symop_operation_xyz
x,y,z
-x,-y,z
x,-y,1/2-z
-x,y,1/2-z
-x,-y,-z
x,y,-z
-x,y,1/2+z
x,-y,1/2+z
1/2+x,1/2+y,z
1/2-x,1/2-y,z
1/2+x,1/2-y,1/2-z
1/2-x,1/2+y,1/2-z
1/2-x,1/2-y,-z
1/2+x,1/2+y,-z
1/2-x,1/2+y,1/2+z
1/2+x,1/2-y,1/2+z
loop_
_atom_site_type_symbol
_atom_site_label
_atom_site_fract_x
_atom_site_fract_y
_atom_site_fract_z
Si Si1 0.250000 0.750000 0.823002
Si Si2 0.919802 0.394841 0.000000
Si Si3 0.836094 0.976799 0.889540
Si Si4 0.500000 0.000000 0.250000
Si Si5 0.342771 0.119333 0.611781
Si Si6 0.869409 0.606409 0.176579
Si Si7 0.000000 0.717288 0.750000
Si Si8 0.224244 0.454645 0.000000
O O1 0.257586 0.819904 0.857506
O O2 0.396826 0.737716 0.788197
O O3 0.854462 0.357083 0.051342
O O4 0.864217 0.473707 0.000000
O O5 0.099275 0.393625 0.000000
O O6 0.785320 0.910961 0.852789
O O7 0.733984 0.044508 0.880587
O O8 0.828394 0.949318 0.949152
O O9 0.000000 0.000000 0.874832
O O10 0.611317 0.957470 0.215034
O O11 0.507971 0.110074 0.631996
O O12 0.882214 0.674049 0.214140
#
# Coordination Sequence:
#
# PCOD8275246 Si02
#       8
#     8   8  16   4  16  16   8   8
#     4  10  22  39  56  76 104 145 190 230 264 326
#     4   9  16  29  58  81 104 143 180 225 258 325
#     4  11  20  31  52  86 115 138 167 223 281 327
#     4  10  16  28  54  66 100 132 176 216 254 328
#     4  10  19  35  55  80 108 142 186 217 265 328
#     4  10  18  33  54  76 100 141 181 221 270 324
#     4   9  22  37  58  72 101 146 185 232 276 321
#     4   9  17  30  50  83 116 141 170 208 279 337
#
# _framework density 18.970248000000002
#
# number of rings (size 3 to 8) (size 9 to 14) (size 15 to 20)
#    0.000    2.095    3.810    0.286    0.000    1.905 
#    0.000    0.476    0.000    0.000    0.000    1.333 
#    0.000    0.000    0.000    0.000    0.000    0.000 
#
# Total GULP energy -520411.867319 kJ/mol
# GULP energy per Si atom -12390.758746 kJ/mol
# Density = 1.892707 g / cm^3
# Si number density = 18.970248 Si / 1000 Ang^3
#
#
#
# Elastic Constant Matrix: (Units=GPa)
#
#
# Indices 1 2 3 4 5 6 
#
# 1 95.5993 26.3136 47.5817 0.0000 0.0000 0.0000
# 2 26.3136 52.5374 39.8614 0.0000 0.0000 0.0000
# 3 47.5817 39.8614 139.7239 0.0000 0.0000 0.0000
# 4 0.0000 0.0000 0.0000 17.0722 0.0000 0.0000
# 5 0.0000 0.0000 0.0000 0.0000 27.6550 0.0000
# 6 0.0000 0.0000 0.0000 0.0000 0.0000 26.4855
#
#
#
# Elastic Compliance Matrix: (Units=1/GPa)
#
#
# Indices 1 2 3 4 5 6 
#
# 1 0.013253 -0.004101 -0.003343 0.000000 0.000000 0.000000
# 2 -0.004101 0.025561 -0.005896 0.000000 0.000000 0.000000
# 3 -0.003343 -0.005896 0.009977 0.000000 0.000000 0.000000
# 4 0.000000 0.000000 0.000000 0.058575 0.000000 0.000000
# 5 0.000000 0.000000 0.000000 0.000000 0.036160 0.000000
# 6 0.000000 0.000000 0.000000 0.000000 0.000000 0.037756
#
#
# Mechanical properties :
#
#
# Convention : Reuss Voigt Hill
#
# Bulk Modulus (GPa) = 45.22513 57.26380 51.24446
# Shear Modulus (GPa) = 23.21976 25.84948 24.53462
#
# Velocity S-wave (km/s) = 3.50238 3.69539 3.60018
# Velocity P-wave (km/s) = 6.34408 6.96129 6.65984
#
# Compressibility (1/GPa) = 0.02211160
#
# Stress axis : x y z
#
# Youngs Moduli (GPa) = 75.45350 39.12150 100.22640
#
# Poissons Ratio (x) = 0.16045 0.33508
# Poissons Ratio (y) = 0.30946 0.59090
# Poissons Ratio (z) = 0.25226 0.23065
#
# Static dielectric constant tensor:
#      x y z
#    x 3.247460 0.000000 0.000000 
#    y 0.000000 3.038320 0.000000 
#    z 0.000000 0.000000 3.969430 
# 
# 
# High freq. dielectric constant tensor:
#      x y z
#    x 1.718070 0.000000 0.000000 
#    y 0.000000 1.699130 0.000000 
#    z 0.000000 0.000000 1.763110 
# 
# From -- ./inp_files/55458.got.cif
#   From: 2010.03.12/outbox.cif.g09.slc.cpg/sg66_28_cif.got.tgz:55458.got - 2010.04.10 21:57:39.
