data_PCOD8275867
_publ_section_title
;
Structure prediction by ZEFSAII (Michael W. Deem and Ramdas Pophale) SiO2 
 PCOD8275867
Probable space group: C C C M
;
_chemical_formula_sum "Si O2"
_cell_formula_units_Z 84
_cell_length_a 28.801181
_cell_length_b 18.990035
_cell_length_c 9.515378
_cell_angle_alpha 90.000000
_cell_angle_beta 90.000000
_cell_angle_gamma 90.000000
_cell_volume 5204.297408
_symmetry_space_group_name_H-M "C C C M"
_symmetry_group_IT_number 66
_symmetry_cell_setting 'orthorhombic'
loop_
_space_group_symop_operation_xyz
x,y,z
-x,-y,z
x,-y,1/2-z
-x,y,1/2-z
-x,-y,-z
x,y,-z
-x,y,1/2+z
x,-y,1/2+z
1/2+x,1/2+y,z
1/2-x,1/2-y,z
1/2+x,1/2-y,1/2-z
1/2-x,1/2+y,1/2-z
1/2-x,1/2-y,-z
1/2+x,1/2+y,-z
1/2-x,1/2+y,1/2+z
1/2+x,1/2-y,1/2+z
loop_
_atom_site_type_symbol
_atom_site_label
_atom_site_fract_x
_atom_site_fract_y
_atom_site_fract_z
Si Si1 0.642333 0.325558 0.340135
Si Si2 0.000000 0.000000 0.250000
Si Si3 0.208172 0.563290 0.157456
Si Si4 0.959658 0.137106 0.343184
Si Si5 0.706589 0.201031 0.659380
Si Si6 0.816279 0.061251 0.155704
O O1 0.647021 0.354584 0.500000
O O2 0.590049 0.337690 0.284396
O O3 0.658351 0.244584 0.333927
O O4 0.676808 0.365873 0.236352
O O5 0.033869 0.051525 0.159607
O O6 0.185586 0.500000 0.250000
O O7 0.199979 0.637069 0.234526
O O8 0.262162 0.547222 0.140307
O O9 0.185983 0.565585 0.000000
O O10 0.965524 0.165423 0.500000
O O11 0.000000 0.173386 0.250000
O O12 0.715163 0.173151 0.500000
O O13 0.750000 0.250000 0.704356
O O14 0.839844 0.000000 0.250000
O O15 0.839190 0.062715 0.000000
#
# Coordination Sequence:
#
# PCOD8275867 Si02
#       6
#    16   4  16  16  16  16
#     4  10  20  33  47  68  94 125 162 204 246 294
#     4   8  18  32  50  60  90 124 160 200 246 284
#     4  10  20  33  49  67  93 125 165 204 241 286
#     4   9  19  32  47  66  90 120 160 201 244 286
#     4  10  19  32  50  68  96 131 163 199 247 294
#     4  10  20  30  42  63  90 123 160 203 242 283
#
# _framework density 16.140506999999999
#
# number of rings (size 3 to 8) (size 9 to 14) (size 15 to 20)
#    0.571    1.714    1.905    1.429    1.333    3.429 
#    0.000    0.000    0.000    0.000    0.000    0.000 
#    0.000    0.762    0.000    8.762    0.000    2.667 
#
# Total GULP energy -520481.544505 kJ/mol
# GULP energy per Si atom -12392.417726 kJ/mol
# Density = 1.610377 g / cm^3
# Si number density = 16.140507 Si / 1000 Ang^3
#
#
#
# Elastic Constant Matrix: (Units=GPa)
#
#
# Indices 1 2 3 4 5 6 
#
# 1 53.2941 20.7680 12.4567 0.0000 0.0000 0.0000
# 2 20.7680 86.9654 54.3616 0.0000 0.0000 0.0000
# 3 12.4567 54.3616 112.4466 0.0000 0.0000 0.0000
# 4 0.0000 0.0000 0.0000 27.4095 0.0000 0.0000
# 5 0.0000 0.0000 0.0000 0.0000 16.2390 0.0000
# 6 0.0000 0.0000 0.0000 0.0000 0.0000 22.7531
#
#
#
# Elastic Compliance Matrix: (Units=1/GPa)
#
#
# Indices 1 2 3 4 5 6 
#
# 1 0.020691 -0.005028 0.000138 0.000000 0.000000 0.000000
# 2 -0.005028 0.017700 -0.008000 0.000000 0.000000 0.000000
# 3 0.000138 -0.008000 0.012745 0.000000 0.000000 0.000000
# 4 0.000000 0.000000 0.000000 0.036484 0.000000 0.000000
# 5 0.000000 0.000000 0.000000 0.000000 0.061580 0.000000
# 6 0.000000 0.000000 0.000000 0.000000 0.000000 0.043950
#
#
# Mechanical properties :
#
#
# Convention : Reuss Voigt Hill
#
# Bulk Modulus (GPa) = 39.43569 47.54209 43.48889
# Shear Modulus (GPa) = 21.98949 24.28831 23.13890
#
# Velocity S-wave (km/s) = 3.69505 3.88339 3.79039
# Velocity P-wave (km/s) = 6.53378 7.04462 6.79400
#
# Compressibility (1/GPa) = 0.02535774
#
# Stress axis : x y z
#
# Youngs Moduli (GPa) = 48.33104 56.49619 78.45973
#
# Poissons Ratio (x) = 0.28404 -0.01087
# Poissons Ratio (y) = 0.24299 0.62769
# Poissons Ratio (z) = -0.00669 0.45198
#
# Static dielectric constant tensor:
#      x y z
#    x 2.779190 0.000000 0.000000 
#    y 0.000000 2.842540 0.000000 
#    z 0.000000 0.000000 3.267660 
# 
# 
# High freq. dielectric constant tensor:
#      x y z
#    x 1.577210 0.000000 0.000000 
#    y 0.000000 1.596330 0.000000 
#    z 0.000000 0.000000 1.634400 
# 
# From -- ./inp_files/10196.got.cif
#   From: 2010.03.12/outbox.cif.g09.slc.cpg/sg66_6_cif.got.tgz:10196.got - 2010.04.10 21:57:39.
