data_PCOD8275404
_publ_section_title
;
Structure prediction by ZEFSAII (Michael W. Deem and Ramdas Pophale) SiO2 
 PCOD8275404
Probable space group: C C C M
;
_chemical_formula_sum "Si O2"
_cell_formula_units_Z 56
_cell_length_a 16.427457
_cell_length_b 9.840800
_cell_length_c 18.004197
_cell_angle_alpha 90.000000
_cell_angle_beta 90.000000
_cell_angle_gamma 90.000000
_cell_volume 2910.546223
_symmetry_space_group_name_H-M "C C C M"
_symmetry_group_IT_number 66
_symmetry_cell_setting 'orthorhombic'
loop_
_space_group_symop_operation_xyz
x,y,z
-x,-y,z
x,-y,1/2-z
-x,y,1/2-z
-x,-y,-z
x,y,-z
-x,y,1/2+z
x,-y,1/2+z
1/2+x,1/2+y,z
1/2-x,1/2-y,z
1/2+x,1/2-y,1/2-z
1/2-x,1/2+y,1/2-z
1/2-x,1/2-y,-z
1/2+x,1/2+y,-z
1/2-x,1/2+y,1/2+z
1/2+x,1/2-y,1/2+z
loop_
_atom_site_type_symbol
_atom_site_label
_atom_site_fract_x
_atom_site_fract_y
_atom_site_fract_z
Si Si1 0.672573 0.845028 0.917032
Si Si2 0.355351 0.500000 0.250000
Si Si3 0.779413 0.606591 0.349160
Si Si4 0.411116 0.208510 0.769032
O O1 0.750000 0.750000 0.898640
O O2 0.604189 0.816737 0.855939
O O3 0.687778 0.008152 0.913509
O O4 0.640516 0.812121 0.000000
O O5 0.297687 0.477824 0.320465
O O6 0.412350 0.369889 0.241428
O O7 0.750000 0.750000 0.383530
O O8 0.843455 0.634198 0.281910
O O9 0.500000 0.149785 0.750000
#
# Coordination Sequence:
#
# PCOD8275404 Si02
#       4
#    16   8  16  16
#     4  11  21  37  60  86 119 155 194 235 292 353
#     4  10  17  36  59  82 114 148 206 232 275 334
#     4  10  19  35  59  82 113 149 201 242 270 339
#     4  11  21  35  59  90 115 150 194 243 287 337
#
# _framework density 19.240373999999999
#
# number of rings (size 3 to 8) (size 9 to 14) (size 15 to 20)
#    0.000    1.429    5.714    1.286    0.000    2.857 
#    0.000    2.857    0.000    5.143    0.000    0.000 
#    0.000    0.000    0.000    0.000    0.000    0.000 
#
# Total GULP energy -346991.368826 kJ/mol
# GULP energy per Si atom -12392.548887 kJ/mol
# Density = 1.919658 g / cm^3
# Si number density = 19.240374 Si / 1000 Ang^3
#
#
#
# Elastic Constant Matrix: (Units=GPa)
#
#
# Indices 1 2 3 4 5 6 
#
# 1 92.5729 20.4919 45.8739 0.0000 0.0000 0.0000
# 2 20.4919 107.0348 35.6355 0.0000 0.0000 0.0000
# 3 45.8739 35.6355 110.2248 0.0000 0.0000 0.0000
# 4 0.0000 0.0000 0.0000 17.0349 0.0000 0.0000
# 5 0.0000 0.0000 0.0000 0.0000 23.2915 0.0000
# 6 0.0000 0.0000 0.0000 0.0000 0.0000 8.6108
#
#
#
# Elastic Compliance Matrix: (Units=1/GPa)
#
#
# Indices 1 2 3 4 5 6 
#
# 1 0.013671 -0.000810 -0.005428 0.000000 0.000000 0.000000
# 2 -0.000810 0.010518 -0.003063 0.000000 0.000000 0.000000
# 3 -0.005428 -0.003063 0.012322 0.000000 0.000000 0.000000
# 4 0.000000 0.000000 0.000000 0.058703 0.000000 0.000000
# 5 0.000000 0.000000 0.000000 0.000000 0.042934 0.000000
# 6 0.000000 0.000000 0.000000 0.000000 0.000000 0.116133
#
#
# Mechanical properties :
#
#
# Convention : Reuss Voigt Hill
#
# Bulk Modulus (GPa) = 55.84027 57.09278 56.46652
# Shear Modulus (GPa) = 17.93057 23.64285 20.78671
#
# Velocity S-wave (km/s) = 3.05606 3.50925 3.29046
# Velocity P-wave (km/s) = 6.44500 6.79394 6.62177
#
# Compressibility (1/GPa) = 0.01790822
#
# Stress axis : x y z
#
# Youngs Moduli (GPa) = 73.14539 95.07778 81.15792
#
# Poissons Ratio (x) = 0.07704 0.44051
# Poissons Ratio (y) = 0.05927 0.24860
# Poissons Ratio (z) = 0.39702 0.29123
#
# Static dielectric constant tensor:
#      x y z
#    x 3.222090 0.000000 0.000000 
#    y 0.000000 3.918830 0.000000 
#    z 0.000000 0.000000 3.165010 
# 
# 
# High freq. dielectric constant tensor:
#      x y z
#    x 1.721200 0.000000 0.000000 
#    y 0.000000 1.779340 0.000000 
#    z 0.000000 0.000000 1.718270 
# 
# From -- ./inp_files/36058.got.cif
#   From: 2010.03.12/outbox.cif.g09.slc.cpg/sg66_19_cif.got.tgz:36058.got - 2010.04.10 21:57:39.
