data_PCOD8275533
_publ_section_title
;
Structure prediction by ZEFSAII (Michael W. Deem and Ramdas Pophale) SiO2 
 PCOD8275533
Probable space group: C C C M
;
_chemical_formula_sum "Si O2"
_cell_formula_units_Z 96
_cell_length_a 26.580211
_cell_length_b 9.780831
_cell_length_c 22.585109
_cell_angle_alpha 90.000000
_cell_angle_beta 90.000000
_cell_angle_gamma 90.000000
_cell_volume 5871.598758
_symmetry_space_group_name_H-M "C C C M"
_symmetry_group_IT_number 66
_symmetry_cell_setting 'orthorhombic'
loop_
_space_group_symop_operation_xyz
x,y,z
-x,-y,z
x,-y,1/2-z
-x,y,1/2-z
-x,-y,-z
x,y,-z
-x,y,1/2+z
x,-y,1/2+z
1/2+x,1/2+y,z
1/2-x,1/2-y,z
1/2+x,1/2-y,1/2-z
1/2-x,1/2+y,1/2-z
1/2-x,1/2-y,-z
1/2+x,1/2+y,-z
1/2-x,1/2+y,1/2+z
1/2+x,1/2-y,1/2+z
loop_
_atom_site_type_symbol
_atom_site_label
_atom_site_fract_x
_atom_site_fract_y
_atom_site_fract_z
Si Si1 0.736599 0.102080 0.881055
Si Si2 0.643490 0.822290 0.695738
Si Si3 0.554492 0.982706 0.818791
Si Si4 0.702163 0.157037 0.434147
Si Si5 0.834448 0.023054 0.184086
Si Si6 0.128646 0.733256 0.329810
O O1 0.750000 0.250000 0.908717
O O2 0.696529 0.123075 0.828330
O O3 0.785714 0.024521 0.856912
O O4 0.715924 0.003974 0.932330
O O5 0.634550 0.663856 0.677873
O O6 0.647622 0.832760 0.767354
O O7 0.597557 0.905324 0.665198
O O8 0.572943 0.830453 0.837645
O O9 0.500000 0.000000 0.850947
O O10 0.544992 0.000000 0.750000
O O11 0.681007 0.188835 0.500000
O O12 0.750000 0.250000 0.420202
O O13 0.661690 0.182520 0.383990
O O14 0.813894 0.000000 0.250000
O O15 0.872140 0.897845 0.168612
#
# Coordination Sequence:
#
# PCOD8275533 Si02
#       6
#    16  16  16  16  16  16
#     4  10  19  30  46  69  95 122 152 191 233 278
#     4   9  18  29  47  73  97 121 151 193 239 283
#     4   9  17  29  48  72  95 120 151 190 242 290
#     4  11  22  32  45  66  95 131 166 193 223 275
#     4   9  18  27  43  70  98 122 152 184 227 282
#     4  10  18  31  48  66  97 125 156 192 236 276
#
# _framework density 16.349891
#
# number of rings (size 3 to 8) (size 9 to 14) (size 15 to 20)
#    0.000    2.333    3.333    0.000    2.333    1.000 
#    0.000    0.833    0.000    5.500    0.000    0.000 
#    0.000    1.333    0.000    0.000    0.000    0.000 
#
# Total GULP energy -594691.143986 kJ/mol
# GULP energy per Si atom -12389.398833 kJ/mol
# Density = 1.631268 g / cm^3
# Si number density = 16.349891 Si / 1000 Ang^3
#
#
#
# Elastic Constant Matrix: (Units=GPa)
#
#
# Indices 1 2 3 4 5 6 
#
# 1 93.4584 47.1198 23.7966 0.0000 0.0000 0.0000
# 2 47.1198 110.3747 25.3954 0.0000 0.0000 0.0000
# 3 23.7966 25.3954 51.7399 0.0000 0.0000 0.0000
# 4 0.0000 0.0000 0.0000 11.3911 0.0000 0.0000
# 5 0.0000 0.0000 0.0000 0.0000 3.4406 0.0000
# 6 0.0000 0.0000 0.0000 0.0000 0.0000 15.6366
#
#
#
# Elastic Compliance Matrix: (Units=1/GPa)
#
#
# Indices 1 2 3 4 5 6 
#
# 1 0.014350 -0.005194 -0.004051 0.000000 0.000000 0.000000
# 2 -0.005194 0.012094 -0.003547 0.000000 0.000000 0.000000
# 3 -0.004051 -0.003547 0.022931 0.000000 0.000000 0.000000
# 4 0.000000 0.000000 0.000000 0.087787 0.000000 0.000000
# 5 0.000000 0.000000 0.000000 0.000000 0.290648 0.000000
# 6 0.000000 0.000000 0.000000 0.000000 0.000000 0.063953
#
#
# Mechanical properties :
#
#
# Convention : Reuss Voigt Hill
#
# Bulk Modulus (GPa) = 42.03148 49.79962 45.91555
# Shear Modulus (GPa) = 9.51878 16.71108 13.11493
#
# Velocity S-wave (km/s) = 2.41548 3.20048 2.83528
# Velocity P-wave (km/s) = 5.79161 6.64697 6.23398
#
# Compressibility (1/GPa) = 0.02379169
#
# Stress axis : x y z
#
# Youngs Moduli (GPa) = 69.68587 82.68850 43.60849
#
# Poissons Ratio (x) = 0.42950 0.17664
# Poissons Ratio (y) = 0.36196 0.15468
# Poissons Ratio (z) = 0.28226 0.29329
#
# Static dielectric constant tensor:
#      x y z
#    x 3.128010 0.000000 0.000000 
#    y 0.000000 3.545890 0.000000 
#    z 0.000000 0.000000 2.743110 
# 
# 
# High freq. dielectric constant tensor:
#      x y z
#    x 1.601390 0.000000 0.000000 
#    y 0.000000 1.650710 0.000000 
#    z 0.000000 0.000000 1.590380 
# 
# From -- ./inp_files/60100.got.cif
#   From: 2010.03.12/outbox.cif.g09.slc.cpg/sg66_31_cif.got.tgz:60100.got - 2010.04.10 21:57:39.
