data_PCOD8275631
_publ_section_title
;
Structure prediction by ZEFSAII (Michael W. Deem and Ramdas Pophale) SiO2 
 PCOD8275631
Probable space group: C C C M
;
_chemical_formula_sum "Si O2"
_cell_formula_units_Z 112
_cell_length_a 24.501969
_cell_length_b 14.282862
_cell_length_c 18.070514
_cell_angle_alpha 90.000000
_cell_angle_beta 90.000000
_cell_angle_gamma 90.000000
_cell_volume 6323.925311
_symmetry_space_group_name_H-M "C C C M"
_symmetry_group_IT_number 66
_symmetry_cell_setting 'orthorhombic'
loop_
_space_group_symop_operation_xyz
x,y,z
-x,-y,z
x,-y,1/2-z
-x,y,1/2-z
-x,-y,-z
x,y,-z
-x,y,1/2+z
x,-y,1/2+z
1/2+x,1/2+y,z
1/2-x,1/2-y,z
1/2+x,1/2-y,1/2-z
1/2-x,1/2+y,1/2-z
1/2-x,1/2-y,-z
1/2+x,1/2+y,-z
1/2-x,1/2+y,1/2+z
1/2+x,1/2-y,1/2+z
loop_
_atom_site_type_symbol
_atom_site_label
_atom_site_fract_x
_atom_site_fract_y
_atom_site_fract_z
Si Si1 0.403216 0.670670 0.584657
Si Si2 0.700863 0.815327 0.586695
Si Si3 0.505059 0.606596 0.662933
Si Si4 0.173107 0.993901 0.417988
Si Si5 0.305386 0.195205 0.087216
Si Si6 0.780290 0.509601 0.163266
Si Si7 0.390844 0.322975 0.417222
O O1 0.418688 0.689825 0.500000
O O2 0.458462 0.675519 0.631633
O O3 0.380639 0.566250 0.597201
O O4 0.357567 0.743648 0.611694
O O5 0.710478 0.831107 0.500000
O O6 0.750000 0.750000 0.618106
O O7 0.699445 0.915266 0.625348
O O8 0.640939 0.772159 0.603191
O O9 0.500000 0.500000 0.631687
O O10 0.500000 0.605342 0.750000
O O11 0.562510 0.652872 0.641169
O O12 0.196747 0.967555 0.500000
O O13 0.217115 0.971611 0.355578
O O14 0.157614 0.101711 0.415084
O O15 0.250000 0.250000 0.109584
O O16 0.312937 0.098800 0.131908
O O17 0.305552 0.174756 0.000000
O O18 0.789118 0.500000 0.250000
O O19 0.416287 0.318619 0.500000
#
# Coordination Sequence:
#
# PCOD8275631 Si02
#       7
#    16  16  16  16  16  16  16
#     4  10  20  35  58  81 106 145 190 231 266 315
#     4  10  20  37  59  81 107 144 190 233 273 319
#     4  11  23  35  51  80 119 152 177 217 276 336
#     4  10  18  33  55  80 110 145 188 229 264 317
#     4  10  20  37  59  81 107 144 190 233 273 319
#     4  12  24  34  51  82 119 152 179 219 279 343
#     4  10  20  35  58  81 106 145 190 231 266 315
#
# _framework density 17.710519000000001
#
# number of rings (size 3 to 8) (size 9 to 14) (size 15 to 20)
#    0.000    1.571    4.286    1.714    0.000    3.429 
#    0.000    0.000    0.000    0.857    0.000    6.000 
#    0.000    0.000    0.000    0.000    0.000    0.000 
#
# Total GULP energy -694389.095976 kJ/mol
# GULP energy per Si atom -12399.805285 kJ/mol
# Density = 1.767021 g / cm^3
# Si number density = 17.710519 Si / 1000 Ang^3
#
#
#
# Elastic Constant Matrix: (Units=GPa)
#
#
# Indices 1 2 3 4 5 6 
#
# 1 92.7484 38.7998 39.7559 0.0000 0.0000 0.0000
# 2 38.7998 108.3400 46.0565 0.0000 0.0000 0.0000
# 3 39.7559 46.0565 73.2707 0.0000 0.0000 0.0000
# 4 0.0000 0.0000 0.0000 18.7383 0.0000 0.0000
# 5 0.0000 0.0000 0.0000 0.0000 21.3050 0.0000
# 6 0.0000 0.0000 0.0000 0.0000 0.0000 22.2106
#
#
#
# Elastic Compliance Matrix: (Units=1/GPa)
#
#
# Indices 1 2 3 4 5 6 
#
# 1 0.014540 -0.002529 -0.006299 0.000000 0.000000 0.000000
# 2 -0.002529 0.013036 -0.006822 0.000000 0.000000 0.000000
# 3 -0.006299 -0.006822 0.021354 0.000000 0.000000 0.000000
# 4 0.000000 0.000000 0.000000 0.053367 0.000000 0.000000
# 5 0.000000 0.000000 0.000000 0.000000 0.046937 0.000000
# 6 0.000000 0.000000 0.000000 0.000000 0.000000 0.045024
#
#
# Mechanical properties :
#
#
# Convention : Reuss Voigt Hill
#
# Bulk Modulus (GPa) = 56.72431 58.17595 57.45013
# Shear Modulus (GPa) = 21.60430 22.43391 22.01910
#
# Velocity S-wave (km/s) = 3.49643 3.56293 3.52984
# Velocity P-wave (km/s) = 6.95688 7.06014 7.00870
#
# Compressibility (1/GPa) = 0.01762913
#
# Stress axis : x y z
#
# Youngs Moduli (GPa) = 68.77499 76.71036 46.82939
#
# Poissons Ratio (x) = 0.19402 0.29500
# Poissons Ratio (y) = 0.17395 0.31946
# Poissons Ratio (z) = 0.43325 0.52330
#
# Static dielectric constant tensor:
#      x y z
#    x 3.124840 0.000000 0.000000 
#    y 0.000000 3.315510 0.000000 
#    z 0.000000 0.000000 3.077470 
# 
# 
# High freq. dielectric constant tensor:
#      x y z
#    x 1.672050 0.000000 0.000000 
#    y 0.000000 1.680110 0.000000 
#    z 0.000000 0.000000 1.672700 
# 
# From -- ./inp_files/32497.got.cif
#   From: 2010.03.12/outbox.cif.g09.slc.cpg/sg66_17_cif.got.tgz:32497.got - 2010.04.10 21:57:39.
