data_PCOD8275517
_publ_section_title
;
Structure prediction by ZEFSAII (Michael W. Deem and Ramdas Pophale) SiO2 
 PCOD8275517
Probable space group: C C C M
;
_chemical_formula_sum "Si O2"
_cell_formula_units_Z 96
_cell_length_a 15.450004
_cell_length_b 19.427193
_cell_length_c 19.137115
_cell_angle_alpha 90.000000
_cell_angle_beta 90.000000
_cell_angle_gamma 90.000000
_cell_volume 5744.009078
_symmetry_space_group_name_H-M "C C C M"
_symmetry_group_IT_number 66
_symmetry_cell_setting 'orthorhombic'
loop_
_space_group_symop_operation_xyz
x,y,z
-x,-y,z
x,-y,1/2-z
-x,y,1/2-z
-x,-y,-z
x,y,-z
-x,y,1/2+z
x,-y,1/2+z
1/2+x,1/2+y,z
1/2-x,1/2-y,z
1/2+x,1/2-y,1/2-z
1/2-x,1/2+y,1/2-z
1/2-x,1/2-y,-z
1/2+x,1/2+y,-z
1/2-x,1/2+y,1/2+z
1/2+x,1/2-y,1/2+z
loop_
_atom_site_type_symbol
_atom_site_label
_atom_site_fract_x
_atom_site_fract_y
_atom_site_fract_z
Si Si1 0.251572 0.928331 0.922876
Si Si2 0.902069 0.421883 0.273198
Si Si3 0.907105 0.108648 0.258463
Si Si4 0.094887 0.469278 0.078285
Si Si5 0.593711 0.500248 0.866306
Si Si6 0.255469 0.830282 0.203639
O O1 0.242170 0.865023 0.871130
O O2 0.339652 0.968525 0.907584
O O3 0.171031 0.981404 0.918356
O O4 0.252805 0.896470 0.000000
O O5 0.874921 0.500000 0.250000
O O6 0.894082 0.415185 0.357992
O O7 0.840195 0.363384 0.240266
O O8 0.000000 0.406136 0.250000
O O9 0.892957 0.076230 0.335038
O O10 0.827811 0.159964 0.252115
O O11 0.000000 0.147348 0.250000
O O12 0.906050 0.051177 0.198829
O O13 0.000000 0.500000 0.083601
O O14 0.110068 0.436976 0.000000
O O15 0.500000 0.500000 0.904995
O O16 0.250000 0.750000 0.189880
#
# Coordination Sequence:
#
# PCOD8275517 Si02
#       6
#    16  16  16  16  16  16
#     4  10  19  30  45  67  98 132 162 200 249 303
#     4  11  19  34  56  80 104 134 170 223 261 295
#     4   8  15  28  46  66  90 117 153 199 242 288
#     4  10  18  30  51  80 106 129 164 212 267 311
#     4   8  14  26  46  69  87 112 151 200 245 283
#     4  11  22  32  48  72 100 136 169 205 252 303
#
# _framework density 16.713065
#
# number of rings (size 3 to 8) (size 9 to 14) (size 15 to 20)
#    0.000    2.333    3.333    2.000    2.333    1.333 
#    0.000    0.000    0.000    0.500    0.000    0.000 
#    0.000    0.000    0.000    0.000    0.000    0.000 
#
# Total GULP energy -594647.246740 kJ/mol
# GULP energy per Si atom -12388.484307 kJ/mol
# Density = 1.667503 g / cm^3
# Si number density = 16.713065 Si / 1000 Ang^3
#
#
#
# Elastic Constant Matrix: (Units=GPa)
#
#
# Indices 1 2 3 4 5 6 
#
# 1 132.6067 53.7832 32.9524 0.0000 0.0000 0.0000
# 2 53.7832 71.2739 36.1032 0.0000 0.0000 0.0000
# 3 32.9524 36.1032 101.3843 0.0000 0.0000 0.0000
# 4 0.0000 0.0000 0.0000 13.6451 0.0000 0.0000
# 5 0.0000 0.0000 0.0000 0.0000 45.1023 0.0000
# 6 0.0000 0.0000 0.0000 0.0000 0.0000 13.0509
#
#
#
# Elastic Compliance Matrix: (Units=1/GPa)
#
#
# Indices 1 2 3 4 5 6 
#
# 1 0.010913 -0.007856 -0.000750 0.000000 0.000000 0.000000
# 2 -0.007856 0.022773 -0.005556 0.000000 0.000000 0.000000
# 3 -0.000750 -0.005556 0.012086 0.000000 0.000000 0.000000
# 4 0.000000 0.000000 0.000000 0.073287 0.000000 0.000000
# 5 0.000000 0.000000 0.000000 0.000000 0.022172 0.000000
# 6 0.000000 0.000000 0.000000 0.000000 0.000000 0.076623
#
#
# Mechanical properties :
#
#
# Convention : Reuss Voigt Hill
#
# Bulk Modulus (GPa) = 57.31018 61.21584 59.26301
# Shear Modulus (GPa) = 19.84190 26.52139 23.18164
#
# Velocity S-wave (km/s) = 3.44933 3.98787 3.72834
# Velocity P-wave (km/s) = 7.08724 7.60994 7.35323
#
# Compressibility (1/GPa) = 0.01744891
#
# Stress axis : x y z
#
# Youngs Moduli (GPa) = 91.62970 43.91250 82.74235
#
# Poissons Ratio (x) = 0.34496 0.06204
# Poissons Ratio (y) = 0.71980 0.45973
# Poissons Ratio (z) = 0.06870 0.24398
#
# Static dielectric constant tensor:
#      x y z
#    x 3.566360 0.000000 0.000000 
#    y 0.000000 2.739140 0.000000 
#    z 0.000000 0.000000 3.309090 
# 
# 
# High freq. dielectric constant tensor:
#      x y z
#    x 1.669610 0.000000 0.000000 
#    y 0.000000 1.583990 0.000000 
#    z 0.000000 0.000000 1.641650 
# 
# From -- ./inp_files/50144.got.cif
#   From: 2010.03.12/outbox.cif.g09.slc.cpg/sg66_26_cif.got.tgz:50144.got - 2010.04.10 21:57:39.
