data_PCOD8275576
_publ_section_title
;
Structure prediction by ZEFSAII (Michael W. Deem and Ramdas Pophale) SiO2 
 PCOD8275576
Probable space group: C C C M
;
_chemical_formula_sum "Si O2"
_cell_formula_units_Z 104
_cell_length_a 23.133392
_cell_length_b 15.918751
_cell_length_c 13.985410
_cell_angle_alpha 90.000000
_cell_angle_beta 90.000000
_cell_angle_gamma 90.000000
_cell_volume 5150.193062
_symmetry_space_group_name_H-M "C C C M"
_symmetry_group_IT_number 66
_symmetry_cell_setting 'orthorhombic'
loop_
_space_group_symop_operation_xyz
x,y,z
-x,-y,z
x,-y,1/2-z
-x,y,1/2-z
-x,-y,-z
x,y,-z
-x,y,1/2+z
x,-y,1/2+z
1/2+x,1/2+y,z
1/2-x,1/2-y,z
1/2+x,1/2-y,1/2-z
1/2-x,1/2+y,1/2-z
1/2-x,1/2-y,-z
1/2+x,1/2+y,-z
1/2-x,1/2+y,1/2+z
1/2+x,1/2-y,1/2+z
loop_
_atom_site_type_symbol
_atom_site_label
_atom_site_fract_x
_atom_site_fract_y
_atom_site_fract_z
Si Si1 0.244949 0.442108 0.105449
Si Si2 0.634522 0.628163 0.106979
Si Si3 0.158764 0.500000 0.250000
Si Si4 0.729260 0.367802 0.894356
Si Si5 0.862668 0.639821 0.388879
Si Si6 0.118229 0.807687 0.799828
Si Si7 0.439038 0.466449 0.389192
O O1 0.295874 0.374521 0.115298
O O2 0.197448 0.433153 0.189000
O O3 0.274244 0.532692 0.115388
O O4 0.215554 0.434163 0.000000
O O5 0.611390 0.695648 0.184206
O O6 0.609304 0.536332 0.131671
O O7 0.615538 0.656164 0.000000
O O8 0.122152 0.443378 0.325082
O O9 0.794904 0.337506 0.877986
O O10 0.685364 0.328225 0.819429
O O11 0.708177 0.339987 0.000000
O O12 0.878749 0.622621 0.500000
O O13 0.898850 0.718389 0.346944
O O14 0.076126 0.879387 0.838523
O O15 0.500000 0.500000 0.349135
O O16 0.443854 0.445077 0.500000
#
# Coordination Sequence:
#
# PCOD8275576 Si02
#       7
#    16  16   8  16  16  16  16
#     4   9  16  27  44  65  92 133 177 213 255 311
#     4  10  20  32  45  65  97 135 177 214 251 308
#     4  10  18  32  50  68  95 129 168 212 274 322
#     4   9  16  27  45  70  97 128 173 225 266 303
#     4  10  21  33  49  74  99 127 172 224 268 314
#     4  12  20  30  50  71  99 136 177 220 265 309
#     4  10  21  35  52  76 106 139 175 215 261 314
#
# _framework density 20.193417
#
# number of rings (size 3 to 8) (size 9 to 14) (size 15 to 20)
#    0.000    2.000    1.538    5.538    0.000    2.462 
#    0.000    1.538    0.000    3.692    0.000    0.000 
#    0.000    2.462    0.000   11.385    0.000    0.308 
#
# Total GULP energy -644458.638415 kJ/mol
# GULP energy per Si atom -12393.435354 kJ/mol
# Density = 2.014746 g / cm^3
# Si number density = 20.193417 Si / 1000 Ang^3
#
#
#
# Elastic Constant Matrix: (Units=GPa)
#
#
# Indices 1 2 3 4 5 6 
#
# 1 21.1258 22.2319 14.8678 0.0000 0.0000 0.0000
# 2 22.2319 83.0920 66.9636 0.0000 0.0000 0.0000
# 3 14.8678 66.9636 163.8535 0.0000 0.0000 0.0000
# 4 0.0000 0.0000 0.0000 30.3504 0.0000 0.0000
# 5 0.0000 0.0000 0.0000 0.0000 6.1274 0.0000
# 6 0.0000 0.0000 0.0000 0.0000 0.0000 7.2425
#
#
#
# Elastic Compliance Matrix: (Units=1/GPa)
#
#
# Indices 1 2 3 4 5 6 
#
# 1 0.066257 -0.019209 0.001838 0.000000 0.000000 0.000000
# 2 -0.019209 0.023514 -0.007867 0.000000 0.000000 0.000000
# 3 0.001838 -0.007867 0.009151 0.000000 0.000000 0.000000
# 4 0.000000 0.000000 0.000000 0.032948 0.000000 0.000000
# 5 0.000000 0.000000 0.000000 0.000000 0.163201 0.000000
# 6 0.000000 0.000000 0.000000 0.000000 0.000000 0.138073
#
#
# Mechanical properties :
#
#
# Convention : Reuss Voigt Hill
#
# Bulk Modulus (GPa) = 20.64109 52.91087 36.77598
# Shear Modulus (GPa) = 10.00464 19.67793 14.84129
#
# Velocity S-wave (km/s) = 2.22826 3.12504 2.71395
# Velocity P-wave (km/s) = 4.10659 6.26738 5.29831
#
# Compressibility (1/GPa) = 0.04844706
#
# Stress axis : x y z
#
# Youngs Moduli (GPa) = 15.09285 42.52752 109.27526
#
# Poissons Ratio (x) = 0.81691 -0.20088
# Poissons Ratio (y) = 0.28992 0.85964
# Poissons Ratio (z) = -0.02775 0.33455
#
# Static dielectric constant tensor:
#      x y z
#    x 3.175600 0.000000 0.000000 
#    y 0.000000 3.429910 0.000000 
#    z 0.000000 0.000000 4.084860 
# 
# 
# High freq. dielectric constant tensor:
#      x y z
#    x 1.717070 0.000000 0.000000 
#    y 0.000000 1.751970 0.000000 
#    z 0.000000 0.000000 1.816370 
# 
# From -- ./inp_files/32628.got.cif
#   From: 2010.03.12/outbox.cif.g09.slc.cpg/sg66_17_cif.got.tgz:32628.got - 2010.04.10 21:57:39.
