data_PCOD8275486
_publ_section_title
;
Structure prediction by ZEFSAII (Michael W. Deem and Ramdas Pophale) SiO2 
 PCOD8275486
Probable space group: C C C M
;
_chemical_formula_sum "Si O2"
_cell_formula_units_Z 112
_cell_length_a 15.345637
_cell_length_b 22.883742
_cell_length_c 19.129663
_cell_angle_alpha 90.000000
_cell_angle_beta 90.000000
_cell_angle_gamma 90.000000
_cell_volume 6717.679546
_symmetry_space_group_name_H-M "C C C M"
_symmetry_group_IT_number 66
_symmetry_cell_setting 'orthorhombic'
loop_
_space_group_symop_operation_xyz
x,y,z
-x,-y,z
x,-y,1/2-z
-x,y,1/2-z
-x,-y,-z
x,y,-z
-x,y,1/2+z
x,-y,1/2+z
1/2+x,1/2+y,z
1/2-x,1/2-y,z
1/2+x,1/2-y,1/2-z
1/2-x,1/2+y,1/2-z
1/2-x,1/2-y,-z
1/2+x,1/2+y,-z
1/2-x,1/2+y,1/2+z
1/2+x,1/2-y,1/2+z
loop_
_atom_site_type_symbol
_atom_site_label
_atom_site_fract_x
_atom_site_fract_y
_atom_site_fract_z
Si Si1 0.229923 0.148034 0.709108
Si Si2 0.411423 0.285237 0.792065
Si Si3 0.439413 0.636085 0.420533
Si Si4 0.207181 0.447042 0.798328
Si Si5 0.136036 0.106659 0.578310
Si Si6 0.595777 0.155130 0.726882
Si Si7 0.326847 0.524318 0.420967
O O1 0.170418 0.198117 0.743526
O O2 0.218111 0.087748 0.753979
O O3 0.204192 0.137896 0.629159
O O4 0.333308 0.164810 0.710105
O O5 0.500000 0.300670 0.750000
O O6 0.401579 0.317810 0.865786
O O7 0.408716 0.216852 0.813395
O O8 0.417154 0.655744 0.500000
O O9 0.542057 0.633858 0.408728
O O10 0.398741 0.572995 0.404496
O O11 0.171444 0.500000 0.750000
O O12 0.130622 0.400287 0.818168
O O13 0.243747 0.470796 0.870839
O O14 0.169244 0.119352 0.500000
O O15 0.127653 0.037676 0.591858
O O16 0.500000 0.136839 0.750000
O O17 0.291719 0.530072 0.500000
#
# Coordination Sequence:
#
# PCOD8275486 Si02
#       7
#    16  16  16  16  16  16  16
#     4  10  19  32  54  76 101 132 174 217 253 308
#     4  11  19  33  54  77 104 140 173 209 259 306
#     4  10  19  30  47  75 111 146 173 202 250 312
#     4  10  19  33  53  76  99 127 176 218 261 303
#     4  10  19  31  48  76 110 143 171 205 254 309
#     4   9  21  35  54  77  97 130 177 224 267 302
#     4  10  18  30  47  73 111 144 170 204 253 310
#
# _framework density 16.672422999999998
#
# number of rings (size 3 to 8) (size 9 to 14) (size 15 to 20)
#    0.857    1.143    4.286    0.857    0.000    2.000 
#    0.000    0.714    0.000    8.571    0.000    3.000 
#    0.000    0.000    0.000    0.000    0.000    0.000 
#
# Total GULP energy -693895.108732 kJ/mol
# GULP energy per Si atom -12390.984085 kJ/mol
# Density = 1.663448 g / cm^3
# Si number density = 16.672423 Si / 1000 Ang^3
#
#
#
# Elastic Constant Matrix: (Units=GPa)
#
#
# Indices 1 2 3 4 5 6 
#
# 1 88.4282 8.4691 32.7868 0.0000 0.0000 0.0000
# 2 8.4691 59.7248 24.2090 0.0000 0.0000 0.0000
# 3 32.7868 24.2090 88.5794 0.0000 0.0000 0.0000
# 4 0.0000 0.0000 0.0000 20.8606 0.0000 0.0000
# 5 0.0000 0.0000 0.0000 0.0000 12.8682 0.0000
# 6 0.0000 0.0000 0.0000 0.0000 0.0000 19.3904
#
#
#
# Elastic Compliance Matrix: (Units=1/GPa)
#
#
# Indices 1 2 3 4 5 6 
#
# 1 0.013108 0.000121 -0.004885 0.000000 0.000000 0.000000
# 2 0.000121 0.018831 -0.005191 0.000000 0.000000 0.000000
# 3 -0.004885 -0.005191 0.014516 0.000000 0.000000 0.000000
# 4 0.000000 0.000000 0.000000 0.047937 0.000000 0.000000
# 5 0.000000 0.000000 0.000000 0.000000 0.077711 0.000000
# 6 0.000000 0.000000 0.000000 0.000000 0.000000 0.051572
#
#
# Mechanical properties :
#
#
# Convention : Reuss Voigt Hill
#
# Bulk Modulus (GPa) = 37.67199 40.85136 39.26168
# Shear Modulus (GPa) = 19.80721 22.04169 20.92445
#
# Velocity S-wave (km/s) = 3.45051 3.63994 3.54649
# Velocity P-wave (km/s) = 6.20638 6.49777 6.35375
#
# Compressibility (1/GPa) = 0.02654492
#
# Stress axis : x y z
#
# Youngs Moduli (GPa) = 76.28791 53.10527 68.88823
#
# Poissons Ratio (x) = -0.00644 0.33652
# Poissons Ratio (y) = -0.00926 0.35762
# Poissons Ratio (z) = 0.37267 0.27569
#
# Static dielectric constant tensor:
#      x y z
#    x 2.944110 0.000000 0.000000 
#    y 0.000000 3.143250 0.000000 
#    z 0.000000 0.000000 3.044670 
# 
# 
# High freq. dielectric constant tensor:
#      x y z
#    x 1.625920 0.000000 0.000000 
#    y 0.000000 1.647200 0.000000 
#    z 0.000000 0.000000 1.624190 
# 
# From -- ./inp_files/42122.got.cif
#   From: 2010.03.12/outbox.cif.g09.slc.cpg/sg66_22_cif.got.tgz:42122.got - 2010.04.10 21:57:39.
