data_PCOD8275255
_publ_section_title
;
Structure prediction by ZEFSAII (Michael W. Deem and Ramdas Pophale) SiO2 
 PCOD8275255
Probable space group: C C C M
;
_chemical_formula_sum "Si O2"
_cell_formula_units_Z 56
_cell_length_a 9.734531
_cell_length_b 11.679953
_cell_length_c 18.926313
_cell_angle_alpha 90.000000
_cell_angle_beta 90.000000
_cell_angle_gamma 90.000000
_cell_volume 2151.900298
_symmetry_space_group_name_H-M "C C C M"
_symmetry_group_IT_number 66
_symmetry_cell_setting 'orthorhombic'
loop_
_space_group_symop_operation_xyz
x,y,z
-x,-y,z
x,-y,1/2-z
-x,y,1/2-z
-x,-y,-z
x,y,-z
-x,y,1/2+z
x,-y,1/2+z
1/2+x,1/2+y,z
1/2-x,1/2-y,z
1/2+x,1/2-y,1/2-z
1/2-x,1/2+y,1/2-z
1/2-x,1/2-y,-z
1/2+x,1/2+y,-z
1/2-x,1/2+y,1/2+z
1/2+x,1/2-y,1/2+z
loop_
_atom_site_type_symbol
_atom_site_label
_atom_site_fract_x
_atom_site_fract_y
_atom_site_fract_z
Si Si1 0.813309 0.000000 0.250000
Si Si2 0.902079 0.390326 0.349079
Si Si3 0.100199 0.808056 0.151549
Si Si4 0.645502 0.938858 0.000000
Si Si5 0.850821 0.144714 0.000000
O O1 0.722882 0.912659 0.203562
O O2 0.907279 0.920546 0.299811
O O3 0.845281 0.364706 0.428131
O O4 0.000000 0.500000 0.349355
O O5 0.985987 0.280910 0.321204
O O6 0.250000 0.750000 0.152750
O O7 0.060014 0.846886 0.071624
O O8 0.500000 0.000000 0.000000
O O9 0.768495 0.027668 0.000000
O O10 0.750000 0.250000 0.000000
#
# Coordination Sequence:
#
# PCOD8275255 Si02
#       5
#     8  16  16   8   8
#     4  12  23  38  60  97 142 181 232 282 353 422
#     4  11  20  35  59  94 135 184 231 289 346 409
#     4  11  21  34  59  93 138 184 233 289 345 413
#     4  10  16  30  54  89 135 176 233 289 340 401
#     4  10  16  32  52  93 137 178 237 289 334 405
#
# _framework density 26.023510000000002
#
# number of rings (size 3 to 8) (size 9 to 14) (size 15 to 20)
#    0.000    1.143    5.714    6.429    0.000    0.000 
#    0.000    0.000    0.000    5.143    0.000   12.000 
#    0.000   29.714    0.000    0.000    0.000    1.143 
#
# Total GULP energy -347208.595654 kJ/mol
# GULP energy per Si atom -12400.306988 kJ/mol
# Density = 2.596428 g / cm^3
# Si number density = 26.023510 Si / 1000 Ang^3
#
#
#
# Elastic Constant Matrix: (Units=GPa)
#
#
# Indices 1 2 3 4 5 6 
#
# 1 56.2538 67.7764 34.3799 0.0000 0.0000 0.0000
# 2 67.7764 165.1119 79.5064 0.0000 0.0000 0.0000
# 3 34.3799 79.5064 207.0291 0.0000 0.0000 0.0000
# 4 0.0000 0.0000 0.0000 41.1802 0.0000 0.0000
# 5 0.0000 0.0000 0.0000 0.0000 -1.6013 0.0000
# 6 0.0000 0.0000 0.0000 0.0000 0.0000 64.7172
#
#
#
# Elastic Compliance Matrix: (Units=1/GPa)
#
#
# Indices 1 2 3 4 5 6 
#
# 1 0.035193 -0.014271 -0.000364 0.000000 0.000000 0.000000
# 2 -0.014271 0.013218 -0.002706 0.000000 0.000000 0.000000
# 3 -0.000364 -0.002706 0.005930 0.000000 0.000000 0.000000
# 4 0.000000 0.000000 0.000000 0.024283 0.000000 0.000000
# 5 0.000000 0.000000 0.000000 0.000000 -0.624474 0.000000
# 6 0.000000 0.000000 0.000000 0.000000 0.000000 0.015452
#
#
# Mechanical properties :
#
#
# Convention : Reuss Voigt Hill
#
# Bulk Modulus (GPa) = 50.86780 87.96891 69.41835
# Shear Modulus (GPa) = -10.22155 37.30801 13.54323
#
# Velocity S-wave (km/s) = -1.98402 3.79043 2.28375
# Velocity P-wave (km/s) = 3.78693 7.28241 5.80407
#
# Compressibility (1/GPa) = 0.01965880
#
# Stress axis : x y z
#
# Youngs Moduli (GPa) = 28.41443 75.65553 168.63740
#
# Poissons Ratio (x) = 1.07971 0.06132
# Poissons Ratio (y) = 0.40551 0.45636
# Poissons Ratio (z) = 0.01033 0.20474
#
# Static dielectric constant tensor:
#      x y z
#    x 4.412520 0.000000 0.000000 
#    y 0.000000 4.526120 0.000000 
#    z 0.000000 0.000000 6.140040 
# 
# 
# High freq. dielectric constant tensor:
#      x y z
#    x 2.013670 0.000000 0.000000 
#    y 0.000000 2.031270 0.000000 
#    z 0.000000 0.000000 2.075980 
# 
# From -- ./inp_files/47930.got.cif
#   From: 2010.03.12/outbox.cif.g09.slc.cpg/sg66_24_cif.got.tgz:47930.got - 2010.04.10 21:57:39.
