data_PCOD8275984
_publ_section_title
;
Structure prediction by ZEFSAII (Michael W. Deem and Ramdas Pophale) SiO2 
 PCOD8275984
Probable space group: C C C M
;
_chemical_formula_sum "Si O2"
_cell_formula_units_Z 96
_cell_length_a 28.792054
_cell_length_b 18.673871
_cell_length_c 8.791492
_cell_angle_alpha 90.000000
_cell_angle_beta 90.000000
_cell_angle_gamma 90.000000
_cell_volume 4726.825696
_symmetry_space_group_name_H-M "C C C M"
_symmetry_group_IT_number 66
_symmetry_cell_setting 'orthorhombic'
loop_
_space_group_symop_operation_xyz
x,y,z
-x,-y,z
x,-y,1/2-z
-x,y,1/2-z
-x,-y,-z
x,y,-z
-x,y,1/2+z
x,-y,1/2+z
1/2+x,1/2+y,z
1/2-x,1/2-y,z
1/2+x,1/2-y,1/2-z
1/2-x,1/2+y,1/2-z
1/2-x,1/2-y,-z
1/2+x,1/2+y,-z
1/2-x,1/2+y,1/2+z
1/2+x,1/2-y,1/2+z
loop_
_atom_site_type_symbol
_atom_site_label
_atom_site_fract_x
_atom_site_fract_y
_atom_site_fract_z
Si Si1 0.775141 0.182610 0.668021
Si Si2 0.105265 0.427178 0.677899
Si Si3 0.799235 0.563570 0.168067
Si Si4 0.854457 0.077534 0.318283
Si Si5 0.047470 0.305857 0.179386
Si Si6 0.451912 0.642607 0.678841
O O1 0.791571 0.209225 0.500000
O O2 0.750000 0.250000 0.756067
O O3 0.733079 0.129775 0.649415
O O4 0.819139 0.140508 0.744157
O O5 0.083383 0.500000 0.750000
O O6 0.094390 0.425405 0.500000
O O7 0.159584 0.423448 0.712813
O O8 0.087339 0.355583 0.756659
O O9 0.769909 0.500000 0.250000
O O10 0.818712 0.542385 0.000000
O O11 0.848988 0.073509 0.500000
O O12 0.907052 0.097140 0.267653
O O13 0.841668 0.000000 0.250000
O O14 0.056615 0.224225 0.231752
O O15 0.000000 0.334744 0.250000
O O16 0.045512 0.312159 0.000000
O O17 0.500000 0.612244 0.750000
O O18 0.457862 0.637459 0.500000
#
# Coordination Sequence:
#
# PCOD8275984 Si02
#       6
#    16  16  16  16  16  16
#     4   9  19  34  57  85 112 147 193 236 280 339
#     4  11  22  36  54  79 110 147 190 236 284 341
#     4  10  19  33  55  79 107 146 185 230 280 333
#     4  10  21  38  60  88 118 154 194 238 289 343
#     4  10  20  36  57  82 110 146 187 236 290 346
#     4   9  20  37  60  86 116 152 193 237 288 349
#
# _framework density 20.309614
#
# number of rings (size 3 to 8) (size 9 to 14) (size 15 to 20)
#    0.000    2.167    0.000    4.000    2.333    2.000 
#    0.000    4.167    0.000    2.500    0.000    0.000 
#    0.000    0.000    0.000    0.000    0.000    0.000 
#
# Total GULP energy -594681.823150 kJ/mol
# GULP energy per Si atom -12389.204649 kJ/mol
# Density = 2.026339 g / cm^3
# Si number density = 20.309614 Si / 1000 Ang^3
#
#
#
# Elastic Constant Matrix: (Units=GPa)
#
#
# Indices 1 2 3 4 5 6 
#
# 1 99.3837 65.8099 21.0310 0.0000 0.0000 0.0000
# 2 65.8099 104.4117 26.6910 0.0000 0.0000 0.0000
# 3 21.0310 26.6910 63.9983 0.0000 0.0000 0.0000
# 4 0.0000 0.0000 0.0000 27.5449 0.0000 0.0000
# 5 0.0000 0.0000 0.0000 0.0000 -20.4473 0.0000
# 6 0.0000 0.0000 0.0000 0.0000 0.0000 32.1551
#
#
#
# Elastic Compliance Matrix: (Units=1/GPa)
#
#
# Indices 1 2 3 4 5 6 
#
# 1 0.017363 -0.010617 -0.001278 0.000000 0.000000 0.000000
# 2 -0.010617 0.017212 -0.003690 0.000000 0.000000 0.000000
# 3 -0.001278 -0.003690 0.017584 0.000000 0.000000 0.000000
# 4 0.000000 0.000000 0.000000 0.036304 0.000000 0.000000
# 5 0.000000 0.000000 0.000000 0.000000 -0.048906 0.000000
# 6 0.000000 0.000000 0.000000 0.000000 0.000000 0.031099
#
#
# Mechanical properties :
#
#
# Convention : Reuss Voigt Hill
#
# Bulk Modulus (GPa) = 47.64073 54.98416 51.31244
# Shear Modulus (GPa) = 45.94637 18.13466 32.04051
#
# Velocity S-wave (km/s) = 4.76152 2.99140 3.97621
# Velocity P-wave (km/s) = 7.33059 6.25004 6.81178
#
# Compressibility (1/GPa) = 0.02099044
#
# Stress axis : x y z
#
# Youngs Moduli (GPa) = 57.59453 58.09745 56.86948
#
# Poissons Ratio (x) = 0.61682 0.07267
# Poissons Ratio (y) = 0.61148 0.20983
# Poissons Ratio (z) = 0.07360 0.21436
#
# Static dielectric constant tensor:
#      x y z
#    x 3.663370 0.000000 0.000000 
#    y 0.000000 3.936920 0.000000 
#    z 0.000000 0.000000 3.658470 
# 
# 
# High freq. dielectric constant tensor:
#      x y z
#    x 1.793180 0.000000 0.000000 
#    y 0.000000 1.801960 0.000000 
#    z 0.000000 0.000000 1.772070 
# 
# From -- ./inp_files/10255.got.cif
#   From: 2010.03.12/outbox.cif.g09.slc.cpg/sg66_6_cif.got.tgz:10255.got - 2010.04.10 21:57:39.
