data_PCOD8275440
_publ_section_title
;
Structure prediction by ZEFSAII (Michael W. Deem and Ramdas Pophale) SiO2 
 PCOD8275440
Probable space group: C C C M
;
_chemical_formula_sum "Si O2"
_cell_formula_units_Z 128
_cell_length_a 25.460568
_cell_length_b 11.058561
_cell_length_c 25.506644
_cell_angle_alpha 90.000000
_cell_angle_beta 90.000000
_cell_angle_gamma 90.000000
_cell_volume 7181.580397
_symmetry_space_group_name_H-M "C C C M"
_symmetry_group_IT_number 66
_symmetry_cell_setting 'orthorhombic'
loop_
_space_group_symop_operation_xyz
x,y,z
-x,-y,z
x,-y,1/2-z
-x,y,1/2-z
-x,-y,-z
x,y,-z
-x,y,1/2+z
x,-y,1/2+z
1/2+x,1/2+y,z
1/2-x,1/2-y,z
1/2+x,1/2-y,1/2-z
1/2-x,1/2+y,1/2-z
1/2-x,1/2-y,-z
1/2+x,1/2+y,-z
1/2-x,1/2+y,1/2+z
1/2+x,1/2-y,1/2+z
loop_
_atom_site_type_symbol
_atom_site_label
_atom_site_fract_x
_atom_site_fract_y
_atom_site_fract_z
Si Si1 0.651118 0.893898 0.610642
Si Si2 0.813873 0.373303 0.227923
Si Si3 0.440726 0.964155 0.438651
Si Si4 0.884857 0.768374 0.057901
Si Si5 0.696122 0.320504 0.939730
Si Si6 0.303606 0.377589 0.768047
Si Si7 0.812225 0.925876 0.887698
Si Si8 0.712644 0.093318 0.442229
O O1 0.662931 0.859097 0.670217
O O2 0.650104 0.772835 0.575575
O O3 0.595124 0.957137 0.600158
O O4 0.698609 0.981508 0.594917
O O5 0.837611 0.500000 0.250000
O O6 0.750752 0.376960 0.234634
O O7 0.833593 0.250017 0.257628
O O8 0.425197 0.985482 0.500000
O O9 0.432505 0.820873 0.425307
O O10 0.500000 0.000000 0.427053
O O11 0.871415 0.876854 0.098376
O O12 0.832288 0.690641 0.057999
O O13 0.895983 0.822460 0.000000
O O14 0.750000 0.250000 0.929075
O O15 0.690329 0.432404 0.900118
O O16 0.689935 0.362398 0.000000
O O17 0.334997 0.500000 0.750000
O O18 0.294857 0.391505 0.829575
O O19 0.769017 0.856336 0.923498
O O20 0.720105 0.038453 0.500000
#
# Coordination Sequence:
#
# PCOD8275440 Si02
#       8
#    16  16  16  16  16  16  16  16
#     4  11  20  33  55  74 108 146 188 225 276 332
#     4  10  22  33  50  73 102 144 197 238 272 318
#     4   9  19  37  61  85 109 138 178 235 300 359
#     4   9  19  30  47  77 107 137 179 221 271 337
#     4  11  22  32  48  77 115 156 187 215 266 347
#     4  10  22  35  45  67 104 151 195 229 266 317
#     4  12  21  30  50  69 112 151 185 223 270 326
#     4  10  18  28  45  72 106 141 174 209 259 330
#
# _framework density 17.823374999999999
#
# number of rings (size 3 to 8) (size 9 to 14) (size 15 to 20)
#    0.000    1.750    1.250    5.625    8.750    1.000 
#    0.000    0.000    0.000    1.125    0.000    3.500 
#    0.000    0.000    0.000    0.000    0.000    0.000 
#
# Total GULP energy -792837.072382 kJ/mol
# GULP energy per Si atom -12388.079256 kJ/mol
# Density = 1.778281 g / cm^3
# Si number density = 17.823375 Si / 1000 Ang^3
#
#
#
# Elastic Constant Matrix: (Units=GPa)
#
#
# Indices 1 2 3 4 5 6 
#
# 1 62.8558 24.9441 29.6219 0.0000 0.0000 0.0000
# 2 24.9441 117.8010 43.0577 0.0000 0.0000 0.0000
# 3 29.6219 43.0577 90.3846 0.0000 0.0000 0.0000
# 4 0.0000 0.0000 0.0000 29.2039 0.0000 0.0000
# 5 0.0000 0.0000 0.0000 0.0000 13.7354 0.0000
# 6 0.0000 0.0000 0.0000 0.0000 0.0000 21.0601
#
#
#
# Elastic Compliance Matrix: (Units=1/GPa)
#
#
# Indices 1 2 3 4 5 6 
#
# 1 0.019252 -0.002144 -0.005288 0.000000 0.000000 0.000000
# 2 -0.002144 0.010517 -0.004308 0.000000 0.000000 0.000000
# 3 -0.005288 -0.004308 0.014849 0.000000 0.000000 0.000000
# 4 0.000000 0.000000 0.000000 0.034242 0.000000 0.000000
# 5 0.000000 0.000000 0.000000 0.000000 0.072805 0.000000
# 6 0.000000 0.000000 0.000000 0.000000 0.000000 0.047483
#
#
# Mechanical properties :
#
#
# Convention : Reuss Voigt Hill
#
# Bulk Modulus (GPa) = 47.30539 51.80988 49.55763
# Shear Modulus (GPa) = 21.76992 24.36106 23.06549
#
# Velocity S-wave (km/s) = 3.49868 3.70104 3.60128
# Velocity P-wave (km/s) = 6.55132 6.88442 6.71994
#
# Compressibility (1/GPa) = 0.02113924
#
# Stress axis : x y z
#
# Youngs Moduli (GPa) = 51.94166 95.08110 67.34403
#
# Poissons Ratio (x) = 0.20382 0.35614
# Poissons Ratio (y) = 0.11135 0.29010
# Poissons Ratio (z) = 0.27469 0.40958
#
# Static dielectric constant tensor:
#      x y z
#    x 2.877930 0.000000 0.000000 
#    y 0.000000 3.936630 0.000000 
#    z 0.000000 0.000000 3.269820 
# 
# 
# High freq. dielectric constant tensor:
#      x y z
#    x 1.615360 0.000000 0.000000 
#    y 0.000000 1.712240 0.000000 
#    z 0.000000 0.000000 1.687740 
# 
# From -- ./inp_files/60269.got.cif
#   From: 2010.03.12/outbox.cif.g09.slc.cpg/sg66_31_cif.got.tgz:60269.got - 2010.04.10 21:57:39.
