data_PCOD8275229
_publ_section_title
;
Structure prediction by ZEFSAII (Michael W. Deem and Ramdas Pophale) SiO2 
 PCOD8275229
Probable space group: C C C M
;
_chemical_formula_sum "Si O2"
_cell_formula_units_Z 64
_cell_length_a 20.875919
_cell_length_b 9.359890
_cell_length_c 14.289854
_cell_angle_alpha 90.000000
_cell_angle_beta 90.000000
_cell_angle_gamma 90.000000
_cell_volume 2792.184678
_symmetry_space_group_name_H-M "C C C M"
_symmetry_group_IT_number 66
_symmetry_cell_setting 'orthorhombic'
loop_
_space_group_symop_operation_xyz
x,y,z
-x,-y,z
x,-y,1/2-z
-x,y,1/2-z
-x,-y,-z
x,y,-z
-x,y,1/2+z
x,-y,1/2+z
1/2+x,1/2+y,z
1/2-x,1/2-y,z
1/2+x,1/2-y,1/2-z
1/2-x,1/2+y,1/2-z
1/2-x,1/2-y,-z
1/2+x,1/2+y,-z
1/2-x,1/2+y,1/2+z
1/2+x,1/2-y,1/2+z
loop_
_atom_site_type_symbol
_atom_site_label
_atom_site_fract_x
_atom_site_fract_y
_atom_site_fract_z
Si Si1 0.654901 0.237885 0.697646
Si Si2 0.245584 0.552920 0.393466
Si Si3 0.331066 0.693267 0.102635
Si Si4 0.933972 0.940255 0.894513
O O1 0.706882 0.360373 0.673928
O O2 0.673893 0.091071 0.643439
O O3 0.654006 0.205450 0.809386
O O4 0.586511 0.300088 0.664830
O O5 0.255053 0.605422 0.500000
O O6 0.259520 0.381389 0.388061
O O7 0.379409 0.559919 0.107787
O O8 0.338178 0.769669 0.000000
O O9 0.946257 0.887555 0.000000
O O10 0.000000 0.000000 0.851073
#
# Coordination Sequence:
#
# PCOD8275229 Si02
#       4
#    16  16  16  16
#     4  10  16  25  42  59  79 111 146 175 211 252
#     4   9  16  27  42  59  78 107 148 183 210 251
#     4   9  18  29  40  57  84 117 149 179 212 254
#     4   9  16  25  38  58  82 108 139 173 209 249
#
# _framework density 22.921119000000001
#
# number of rings (size 3 to 8) (size 9 to 14) (size 15 to 20)
#    0.000    2.750    0.000    7.500    0.000    2.000 
#    0.000    2.500    0.000    4.500    0.000    0.000 
#    0.000    0.000    0.000  162.000    0.000 1509.500 
#
# Total GULP energy -396498.135371 kJ/mol
# GULP energy per Si atom -12390.566730 kJ/mol
# Density = 2.286895 g / cm^3
# Si number density = 22.921119 Si / 1000 Ang^3
#
#
#
# Elastic Constant Matrix: (Units=GPa)
#
#
# Indices 1 2 3 4 5 6 
#
# 1 91.8571 10.3439 28.2832 0.0000 0.0000 0.0000
# 2 10.3439 50.9195 21.0871 0.0000 0.0000 0.0000
# 3 28.2832 21.0871 178.4788 0.0000 0.0000 0.0000
# 4 0.0000 0.0000 0.0000 16.5952 0.0000 0.0000
# 5 0.0000 0.0000 0.0000 0.0000 16.0943 0.0000
# 6 0.0000 0.0000 0.0000 0.0000 0.0000 32.4472
#
#
#
# Elastic Compliance Matrix: (Units=1/GPa)
#
#
# Indices 1 2 3 4 5 6 
#
# 1 0.011579 -0.001674 -0.001637 0.000000 0.000000 0.000000
# 2 -0.001674 0.020891 -0.002203 0.000000 0.000000 0.000000
# 3 -0.001637 -0.002203 0.006123 0.000000 0.000000 0.000000
# 4 0.000000 0.000000 0.000000 0.060258 0.000000 0.000000
# 5 0.000000 0.000000 0.000000 0.000000 0.062134 0.000000
# 6 0.000000 0.000000 0.000000 0.000000 0.000000 0.030819
#
#
# Mechanical properties :
#
#
# Convention : Reuss Voigt Hill
#
# Bulk Modulus (GPa) = 36.27874 48.96484 42.62179
# Shear Modulus (GPa) = 23.58256 30.46343 27.02300
#
# Velocity S-wave (km/s) = 3.21106 3.64958 3.43732
# Velocity P-wave (km/s) = 5.44150 6.25843 5.86420
#
# Compressibility (1/GPa) = 0.02756435
#
# Stress axis : x y z
#
# Youngs Moduli (GPa) = 86.36262 47.86692 163.32896
#
# Poissons Ratio (x) = 0.08014 0.26739
# Poissons Ratio (y) = 0.14459 0.35981
# Poissons Ratio (z) = 0.14138 0.10545
#
# Static dielectric constant tensor:
#      x y z
#    x 4.262050 0.000000 0.000000 
#    y 0.000000 4.071890 0.000000 
#    z 0.000000 0.000000 4.392150 
# 
# 
# High freq. dielectric constant tensor:
#      x y z
#    x 1.866760 0.000000 0.000000 
#    y 0.000000 1.868890 0.000000 
#    z 0.000000 0.000000 1.931310 
# 
# From -- ./inp_files/31887.got.cif
#   From: 2010.03.12/outbox.cif.g09.slc.cpg/sg66_16_cif.got.tgz:31887.got - 2010.04.10 21:57:39.
