data_PCOD8275154
_publ_section_title
;
Structure prediction by ZEFSAII (Michael W. Deem and Ramdas Pophale) SiO2 
 PCOD8275154
Probable space group: C M M M
;
_chemical_formula_sum "Si O2"
_cell_formula_units_Z 72
_cell_length_a 27.014267
_cell_length_b 16.290579
_cell_length_c 9.764523
_cell_angle_alpha 90.000000
_cell_angle_beta 90.000000
_cell_angle_gamma 90.000000
_cell_volume 4297.152248
_symmetry_space_group_name_H-M "C M M M"
_symmetry_group_IT_number 65
_symmetry_cell_setting 'orthorhombic'
loop_
_space_group_symop_operation_xyz
x,y,z
-x,-y,z
x,-y,-z
-x,y,-z
-x,-y,-z
x,y,-z
-x,y,z
x,-y,z
1/2+x,1/2+y,z
1/2-x,1/2-y,z
1/2+x,1/2-y,-z
1/2-x,1/2+y,-z
1/2-x,1/2-y,-z
1/2+x,1/2+y,-z
1/2-x,1/2+y,z
1/2+x,1/2-y,z
loop_
_atom_site_type_symbol
_atom_site_label
_atom_site_fract_x
_atom_site_fract_y
_atom_site_fract_z
Si Si1 0.694368 0.773480 0.842521
Si Si2 0.100038 0.171551 0.840196
Si Si3 0.443516 0.500000 0.161882
Si Si4 0.351766 0.093235 0.658117
Si Si5 0.444841 0.195087 0.654383
O O1 0.750000 0.750000 0.807107
O O2 0.657183 0.697294 0.809694
O O3 0.683887 0.851737 0.749403
O O4 0.688510 0.800077 0.000000
O O5 0.088046 0.079264 0.789219
O O6 0.063662 0.230857 0.758432
O O7 0.087673 0.181065 0.000000
O O8 0.500000 0.500000 0.221916
O O9 0.447330 0.500000 0.000000
O O10 0.336704 0.104425 0.500000
O O11 0.408439 0.119425 0.683996
O O12 0.345688 0.000000 0.706095
O O13 0.436781 0.228603 0.500000
O O14 0.500000 0.160797 0.675055
#
# Coordination Sequence:
#
# PCOD8275154 Si02
#       5
#    16  16   8  16  16
#     4   9  18  33  50  70  93 120 155 194 240 284
#     4   9  17  30  47  66  91 120 155 194 230 277
#     4   9  16  26  43  67  91 117 151 189 228 271
#     4   9  18  32  49  70  95 123 156 191 229 276
#     4   9  17  29  46  68  94 124 155 188 229 274
#
# _framework density 16.755282000000001
#
# number of rings (size 3 to 8) (size 9 to 14) (size 15 to 20)
#    0.000    3.000    0.000    0.667    0.000    2.667 
#    2.000    2.778    0.000    2.000    0.000    6.222 
#    0.000    0.000    0.000    0.000    0.000    0.000 
#
# Total GULP energy -446273.874523 kJ/mol
# GULP energy per Si atom -12396.496515 kJ/mol
# Density = 1.671715 g / cm^3
# Si number density = 16.755282 Si / 1000 Ang^3
#
#
#
# Elastic Constant Matrix: (Units=GPa)
#
#
# Indices 1 2 3 4 5 6 
#
# 1 121.6911 70.4821 46.5864 0.0000 0.0000 0.0000
# 2 70.4821 148.5784 56.5777 0.0000 0.0000 0.0000
# 3 46.5864 56.5777 55.2891 0.0000 0.0000 0.0000
# 4 0.0000 0.0000 0.0000 26.6176 0.0000 0.0000
# 5 0.0000 0.0000 0.0000 0.0000 21.0028 0.0000
# 6 0.0000 0.0000 0.0000 0.0000 0.0000 14.9492
#
#
#
# Elastic Compliance Matrix: (Units=1/GPa)
#
#
# Indices 1 2 3 4 5 6 
#
# 1 0.013038 -0.003280 -0.007630 0.000000 0.000000 0.000000
# 2 -0.003280 0.011852 -0.009365 0.000000 0.000000 0.000000
# 3 -0.007630 -0.009365 0.034099 0.000000 0.000000 0.000000
# 4 0.000000 0.000000 0.000000 0.037569 0.000000 0.000000
# 5 0.000000 0.000000 0.000000 0.000000 0.047613 0.000000
# 6 0.000000 0.000000 0.000000 0.000000 0.000000 0.066893
#
#
# Mechanical properties :
#
#
# Convention : Reuss Voigt Hill
#
# Bulk Modulus (GPa) = 54.22916 74.76121 64.49519
# Shear Modulus (GPa) = 19.39786 22.64141 21.01964
#
# Velocity S-wave (km/s) = 3.40621 3.67999 3.54575
# Velocity P-wave (km/s) = 6.92137 7.92293 7.43903
#
# Compressibility (1/GPa) = 0.01844026
#
# Stress axis : x y z
#
# Youngs Moduli (GPa) = 76.70005 84.37073 29.32629
#
# Poissons Ratio (x) = 0.27669 0.22375
# Poissons Ratio (y) = 0.25154 0.27465
# Poissons Ratio (z) = 0.58519 0.79016
#
# Static dielectric constant tensor:
#      x y z
#    x 3.190840 0.000000 0.000000 
#    y 0.000000 3.175750 0.000000 
#    z 0.000000 0.000000 3.104760 
# 
# 
# High freq. dielectric constant tensor:
#      x y z
#    x 1.647090 0.000000 0.000000 
#    y 0.000000 1.636390 0.000000 
#    z 0.000000 0.000000 1.636910 
# 
# From -- ./inp_files/7247.got.cif
#   From: 2010.03.12/outbox.cif.g09.slc.cpg/sg65_4_cif.got.tgz:7247.got - 2010.04.10 20:52:16.
