data_PCOD8275817
_publ_section_title
;
Structure prediction by ZEFSAII (Michael W. Deem and Ramdas Pophale) SiO2 
 PCOD8275817
Probable space group: C C C M
;
_chemical_formula_sum "Si O2"
_cell_formula_units_Z 96
_cell_length_a 28.439917
_cell_length_b 20.819610
_cell_length_c 9.021988
_cell_angle_alpha 90.000000
_cell_angle_beta 90.000000
_cell_angle_gamma 90.000000
_cell_volume 5341.991094
_symmetry_space_group_name_H-M "C C C M"
_symmetry_group_IT_number 66
_symmetry_cell_setting 'orthorhombic'
loop_
_space_group_symop_operation_xyz
x,y,z
-x,-y,z
x,-y,1/2-z
-x,y,1/2-z
-x,-y,-z
x,y,-z
-x,y,1/2+z
x,-y,1/2+z
1/2+x,1/2+y,z
1/2-x,1/2-y,z
1/2+x,1/2-y,1/2-z
1/2-x,1/2+y,1/2-z
1/2-x,1/2-y,-z
1/2+x,1/2+y,-z
1/2-x,1/2+y,1/2+z
1/2+x,1/2-y,1/2+z
loop_
_atom_site_type_symbol
_atom_site_label
_atom_site_fract_x
_atom_site_fract_y
_atom_site_fract_z
Si Si1 0.050296 0.201700 0.826959
Si Si2 0.777723 0.437860 0.666149
Si Si3 0.221245 0.311007 0.327997
Si Si4 0.550034 0.559265 0.828383
Si Si5 0.389722 0.937018 0.332063
Si Si6 0.111530 0.308162 0.326676
O O1 0.072419 0.129988 0.806425
O O2 0.086696 0.249064 0.751446
O O3 0.000000 0.208940 0.750000
O O4 0.044327 0.218216 0.000000
O O5 0.757271 0.500000 0.750000
O O6 0.758071 0.439167 0.500000
O O7 0.759316 0.373420 0.743881
O O8 0.833748 0.439529 0.668806
O O9 0.230992 0.322836 0.500000
O O10 0.250000 0.250000 0.268026
O O11 0.166600 0.299498 0.296096
O O12 0.578815 0.500000 0.750000
O O13 0.500000 0.562258 0.750000
O O14 0.544224 0.542705 0.000000
O O15 0.408997 0.935087 0.500000
O O16 0.407390 0.874314 0.244336
O O17 0.410081 0.000000 0.250000
O O18 0.099712 0.309160 0.500000
#
# Coordination Sequence:
#
# PCOD8275817 Si02
#       6
#    16  16  16  16  16  16
#     4  10  20  33  49  71  98 127 159 196 237 282
#     4   9  16  26  43  67  93 121 155 196 238 279
#     4   9  18  32  49  70  97 127 159 196 238 284
#     4   9  16  26  43  66  91 118 150 190 232 272
#     4   9  16  27  44  67  94 122 155 196 237 277
#     4  10  19  31  49  72  97 127 160 195 238 284
#
# _framework density 17.970827
#
# number of rings (size 3 to 8) (size 9 to 14) (size 15 to 20)
#    0.000    2.667    0.000    3.000    0.000    7.000 
#    0.000    0.000    0.000    1.500    0.000    5.833 
#    0.000    0.000    0.000    0.000    0.000    0.000 
#
# Total GULP energy -594990.508409 kJ/mol
# GULP energy per Si atom -12395.635592 kJ/mol
# Density = 1.792992 g / cm^3
# Si number density = 17.970827 Si / 1000 Ang^3
#
#
#
# Elastic Constant Matrix: (Units=GPa)
#
#
# Indices 1 2 3 4 5 6 
#
# 1 22.4522 39.1397 31.1758 0.0000 0.0000 0.0000
# 2 39.1397 198.3565 104.3035 0.0000 0.0000 0.0000
# 3 31.1758 104.3035 153.9082 0.0000 0.0000 0.0000
# 4 0.0000 0.0000 0.0000 41.5783 0.0000 0.0000
# 5 0.0000 0.0000 0.0000 0.0000 13.7971 0.0000
# 6 0.0000 0.0000 0.0000 0.0000 0.0000 24.0314
#
#
#
# Elastic Compliance Matrix: (Units=1/GPa)
#
#
# Indices 1 2 3 4 5 6 
#
# 1 0.073551 -0.010377 -0.007866 0.000000 0.000000 0.000000
# 2 -0.010377 0.009297 -0.004198 0.000000 0.000000 0.000000
# 3 -0.007866 -0.004198 0.010936 0.000000 0.000000 0.000000
# 4 0.000000 0.000000 0.000000 0.024051 0.000000 0.000000
# 5 0.000000 0.000000 0.000000 0.000000 0.072479 0.000000
# 6 0.000000 0.000000 0.000000 0.000000 0.000000 0.041612
#
#
# Mechanical properties :
#
#
# Convention : Reuss Voigt Hill
#
# Bulk Modulus (GPa) = 20.44963 80.43943 50.44453
# Shear Modulus (GPa) = 17.05853 29.22121 23.13987
#
# Velocity S-wave (km/s) = 3.08431 4.03679 3.59226
# Velocity P-wave (km/s) = 4.90795 8.16001 6.73327
#
# Compressibility (1/GPa) = 0.04890065
#
# Stress axis : x y z
#
# Youngs Moduli (GPa) = 13.59610 107.56574 91.44080
#
# Poissons Ratio (x) = 1.11617 0.71929
# Poissons Ratio (y) = 0.14108 0.38391
# Poissons Ratio (z) = 0.10695 0.45161
#
# Static dielectric constant tensor:
#      x y z
#    x 2.744030 0.000000 0.000000 
#    y 0.000000 3.983700 0.000000 
#    z 0.000000 0.000000 3.524450 
# 
# 
# High freq. dielectric constant tensor:
#      x y z
#    x 1.623050 0.000000 0.000000 
#    y 0.000000 1.720730 0.000000 
#    z 0.000000 0.000000 1.714220 
# 
# From -- ./inp_files/8045.got.cif
#   From: 2010.03.12/outbox.cif.g09.slc.cpg/sg66_5_cif.got.tgz:8045.got - 2010.04.10 21:57:39.
