data_PCOD8275935
_publ_section_title
;
Structure prediction by ZEFSAII (Michael W. Deem and Ramdas Pophale) SiO2 
 PCOD8275935
Probable space group: C C C M
;
_chemical_formula_sum "Si O2"
_cell_formula_units_Z 116
_cell_length_a 29.125558
_cell_length_b 23.798156
_cell_length_c 9.359687
_cell_angle_alpha 90.000000
_cell_angle_beta 90.000000
_cell_angle_gamma 90.000000
_cell_volume 6487.522651
_symmetry_space_group_name_H-M "C C C M"
_symmetry_group_IT_number 66
_symmetry_cell_setting 'orthorhombic'
loop_
_space_group_symop_operation_xyz
x,y,z
-x,-y,z
x,-y,1/2-z
-x,y,1/2-z
-x,-y,-z
x,y,-z
-x,y,1/2+z
x,-y,1/2+z
1/2+x,1/2+y,z
1/2-x,1/2-y,z
1/2+x,1/2-y,1/2-z
1/2-x,1/2+y,1/2-z
1/2-x,1/2-y,-z
1/2+x,1/2+y,-z
1/2-x,1/2+y,1/2+z
1/2+x,1/2-y,1/2+z
loop_
_atom_site_type_symbol
_atom_site_label
_atom_site_fract_x
_atom_site_fract_y
_atom_site_fract_z
Si Si1 0.321827 0.864559 0.660628
Si Si2 0.457145 0.142926 0.660885
Si Si3 0.589676 0.551843 0.662779
Si Si4 0.876858 0.554255 0.661011
Si Si5 0.600877 0.221770 0.338826
Si Si6 0.229510 0.193125 0.163901
Si Si7 0.000000 0.000000 0.750000
Si Si8 0.131518 0.845242 0.334110
O O1 0.333423 0.884521 0.500000
O O2 0.333723 0.914257 0.769067
O O3 0.349848 0.807220 0.695003
O O4 0.267839 0.854607 0.677799
O O5 0.500000 0.120490 0.750000
O O6 0.471940 0.157203 0.500000
O O7 0.420480 0.093902 0.666226
O O8 0.437607 0.199536 0.731258
O O9 0.612952 0.500000 0.750000
O O10 0.607491 0.553109 0.500000
O O11 0.533981 0.541660 0.660524
O O12 0.604843 0.608909 0.740618
O O13 0.890084 0.500000 0.750000
O O14 0.863610 0.537659 0.500000
O O15 0.585931 0.206700 0.500000
O O16 0.603104 0.288127 0.317873
O O17 0.250000 0.250000 0.237764
O O18 0.182635 0.167521 0.229736
O O19 0.217511 0.208808 0.000000
O O20 0.133503 0.864933 0.500000
#
# Coordination Sequence:
#
# PCOD8275935 Si02
#       8
#    16  16  16  16  16  16   4  16
#     4   9  16  30  54  79 107 141 179 215 254 308
#     4  10  21  36  53  74 103 137 173 219 270 322
#     4  10  21  38  60  82 107 140 182 227 275 327
#     4  10  21  36  54  76 102 134 176 222 268 316
#     4   9  17  31  52  78 108 143 175 212 260 316
#     4   9  15  28  53  84 113 144 181 215 256 315
#     4   8  22  40  66  80 102 140 186 228 276 336
#     4  10  19  32  55  86 116 143 178 223 267 318
#
# _framework density 17.880476999999999
#
# number of rings (size 3 to 8) (size 9 to 14) (size 15 to 20)
#    0.414    2.069    1.379    1.448    0.000    2.483 
#    1.241    2.759    0.000    0.828    0.000    0.000 
#    0.000    0.000    0.000    0.000    0.000    0.000 
#
# Total GULP energy -718877.494427 kJ/mol
# GULP energy per Si atom -12394.439559 kJ/mol
# Density = 1.783978 g / cm^3
# Si number density = 17.880477 Si / 1000 Ang^3
#
#
#
# Elastic Constant Matrix: (Units=GPa)
#
#
# Indices 1 2 3 4 5 6 
#
# 1 76.2232 32.6826 36.4176 0.0000 0.0000 0.0000
# 2 32.6826 93.6703 55.6757 0.0000 0.0000 0.0000
# 3 36.4176 55.6757 119.4098 0.0000 0.0000 0.0000
# 4 0.0000 0.0000 0.0000 26.1645 0.0000 0.0000
# 5 0.0000 0.0000 0.0000 0.0000 14.1606 0.0000
# 6 0.0000 0.0000 0.0000 0.0000 0.0000 20.4271
#
#
#
# Elastic Compliance Matrix: (Units=1/GPa)
#
#
# Indices 1 2 3 4 5 6 
#
# 1 0.016267 -0.003772 -0.003202 0.000000 0.000000 0.000000
# 2 -0.003772 0.015643 -0.006143 0.000000 0.000000 0.000000
# 3 -0.003202 -0.006143 0.012216 0.000000 0.000000 0.000000
# 4 0.000000 0.000000 0.000000 0.038220 0.000000 0.000000
# 5 0.000000 0.000000 0.000000 0.000000 0.070619 0.000000
# 6 0.000000 0.000000 0.000000 0.000000 0.000000 0.048955
#
#
# Mechanical properties :
#
#
# Convention : Reuss Voigt Hill
#
# Bulk Modulus (GPa) = 55.89728 59.87277 57.88502
# Shear Modulus (GPa) = 21.35678 23.11893 22.23785
#
# Velocity S-wave (km/s) = 3.45979 3.59969 3.53043
# Velocity P-wave (km/s) = 6.87675 7.12985 7.00444
#
# Compressibility (1/GPa) = 0.01788996
#
# Stress axis : x y z
#
# Youngs Moduli (GPa) = 61.47502 63.92446 81.86315
#
# Poissons Ratio (x) = 0.24115 0.26214
# Poissons Ratio (y) = 0.23191 0.50292
# Poissons Ratio (z) = 0.19685 0.39271
#
# Static dielectric constant tensor:
#      x y z
#    x 3.211890 0.000000 0.000000 
#    y 0.000000 3.149300 0.000000 
#    z 0.000000 0.000000 3.301020 
# 
# 
# High freq. dielectric constant tensor:
#      x y z
#    x 1.682870 0.000000 0.000000 
#    y 0.000000 1.683020 0.000000 
#    z 0.000000 0.000000 1.677730 
# 
# From -- ./inp_files/11731.got.cif
#   From: 2010.03.12/outbox.cif.g09.slc.cpg/sg66_6_cif.got.tgz:11731.got - 2010.04.10 21:57:39.
