data_PCOD8275135
_publ_section_title
;
Structure prediction by ZEFSAII (Michael W. Deem and Ramdas Pophale) SiO2 
 PCOD8275135
Probable space group: C M M M
;
_chemical_formula_sum "Si O2"
_cell_formula_units_Z 72
_cell_length_a 12.696562
_cell_length_b 32.207215
_cell_length_c 9.206817
_cell_angle_alpha 90.000000
_cell_angle_beta 90.000000
_cell_angle_gamma 90.000000
_cell_volume 3764.859913
_symmetry_space_group_name_H-M "C M M M"
_symmetry_group_IT_number 65
_symmetry_cell_setting 'orthorhombic'
loop_
_space_group_symop_operation_xyz
x,y,z
-x,-y,z
x,-y,-z
-x,y,-z
-x,-y,-z
x,y,-z
-x,y,z
x,-y,z
1/2+x,1/2+y,z
1/2-x,1/2-y,z
1/2+x,1/2-y,-z
1/2-x,1/2+y,-z
1/2-x,1/2-y,-z
1/2+x,1/2+y,-z
1/2-x,1/2+y,z
1/2+x,1/2-y,z
loop_
_atom_site_type_symbol
_atom_site_label
_atom_site_fract_x
_atom_site_fract_y
_atom_site_fract_z
Si Si1 0.116435 0.857862 0.829759
Si Si2 0.874306 0.224032 0.336694
Si Si3 0.172809 0.391745 0.170204
Si Si4 0.500000 0.953580 0.826267
Si Si5 0.121433 0.698399 0.161456
O O1 0.161894 0.815691 0.758534
O O2 0.200971 0.894787 0.795821
O O3 0.000000 0.870215 0.769798
O O4 0.110114 0.849347 0.000000
O O5 0.831374 0.219274 0.500000
O O6 0.827621 0.267061 0.268818
O O7 0.000000 0.225222 0.336122
O O8 0.132882 0.347494 0.230761
O O9 0.104481 0.429792 0.235016
O O10 0.150710 0.392168 0.000000
O O11 0.500000 0.000000 0.761121
O O12 0.500000 0.955652 0.000000
O O13 0.000000 0.709817 0.145981
O O14 0.173850 0.700341 0.000000
#
# Coordination Sequence:
#
# PCOD8275135 Si02
#       5
#    16  16  16   8  16
#     4   9  17  29  44  62  88 124 161 188 217 263
#     4   9  17  28  41  60  90 124 158 196 230 261
#     4   9  16  27  44  66  89 116 151 189 228 273
#     4   9  16  28  48  74  99 117 141 187 245 289
#     4   9  15  25  42  61  85 116 153 194 231 268
#
# _framework density 19.124217000000002
#
# number of rings (size 3 to 8) (size 9 to 14) (size 15 to 20)
#    0.000    3.000    1.111    0.667    0.000    3.556 
#    0.000    5.556    0.000    0.667    0.000    4.667 
#    0.000    7.111    0.000    5.556    0.000    5.778 
#
# Total GULP energy -446075.573990 kJ/mol
# GULP energy per Si atom -12390.988166 kJ/mol
# Density = 1.908069 g / cm^3
# Si number density = 19.124217 Si / 1000 Ang^3
#
#
#
# Elastic Constant Matrix: (Units=GPa)
#
#
# Indices 1 2 3 4 5 6 
#
# 1 102.5805 75.3295 9.6260 0.0000 0.0000 0.0000
# 2 75.3295 132.1735 30.1316 0.0000 0.0000 0.0000
# 3 9.6260 30.1316 49.2020 0.0000 0.0000 0.0000
# 4 0.0000 0.0000 0.0000 3.7206 0.0000 0.0000
# 5 0.0000 0.0000 0.0000 0.0000 11.5745 0.0000
# 6 0.0000 0.0000 0.0000 0.0000 0.0000 24.0208
#
#
#
# Elastic Compliance Matrix: (Units=1/GPa)
#
#
# Indices 1 2 3 4 5 6 
#
# 1 0.017152 -0.010472 0.003058 0.000000 0.000000 0.000000
# 2 -0.010472 0.015188 -0.007252 0.000000 0.000000 0.000000
# 3 0.003058 -0.007252 0.024167 0.000000 0.000000 0.000000
# 4 0.000000 0.000000 0.000000 0.268777 0.000000 0.000000
# 5 0.000000 0.000000 0.000000 0.000000 0.086397 0.000000
# 6 0.000000 0.000000 0.000000 0.000000 0.000000 0.041631
#
#
# Mechanical properties :
#
#
# Convention : Reuss Voigt Hill
#
# Bulk Modulus (GPa) = 36.80089 57.12556 46.96322
# Shear Modulus (GPa) = 10.16876 19.12112 14.64494
#
# Velocity S-wave (km/s) = 2.30841 3.16545 2.77028
# Velocity P-wave (km/s) = 5.13711 6.57995 5.90278
#
# Compressibility (1/GPa) = 0.02717326
#
# Stress axis : x y z
#
# Youngs Moduli (GPa) = 58.30269 65.84315 41.37808
#
# Poissons Ratio (x) = 0.68954 -0.12652
# Poissons Ratio (y) = 0.61057 0.30008
# Poissons Ratio (z) = -0.17827 0.47750
#
# Static dielectric constant tensor:
#      x y z
#    x 3.982180 0.000000 0.000000 
#    y 0.000000 3.372330 0.000000 
#    z 0.000000 0.000000 3.221420 
# 
# 
# High freq. dielectric constant tensor:
#      x y z
#    x 1.779530 0.000000 0.000000 
#    y 0.000000 1.695340 0.000000 
#    z 0.000000 0.000000 1.693280 
# 
# From -- ./inp_files/7313.got.cif
#   From: 2010.03.12/outbox.cif.g09.slc.cpg/sg65_4_cif.got.tgz:7313.got - 2010.04.10 20:52:16.
