data_PCOD8275682
_publ_section_title
;
Structure prediction by ZEFSAII (Michael W. Deem and Ramdas Pophale) SiO2 
 PCOD8275682
Probable space group: C C C M
;
_chemical_formula_sum "Si O2"
_cell_formula_units_Z 80
_cell_length_a 11.535955
_cell_length_b 14.040536
_cell_length_c 24.511277
_cell_angle_alpha 90.000000
_cell_angle_beta 90.000000
_cell_angle_gamma 90.000000
_cell_volume 3970.115838
_symmetry_space_group_name_H-M "C C C M"
_symmetry_group_IT_number 66
_symmetry_cell_setting 'orthorhombic'
loop_
_space_group_symop_operation_xyz
x,y,z
-x,-y,z
x,-y,1/2-z
-x,y,1/2-z
-x,-y,-z
x,y,-z
-x,y,1/2+z
x,-y,1/2+z
1/2+x,1/2+y,z
1/2-x,1/2-y,z
1/2+x,1/2-y,1/2-z
1/2-x,1/2+y,1/2-z
1/2-x,1/2-y,-z
1/2+x,1/2+y,-z
1/2-x,1/2+y,1/2+z
1/2+x,1/2-y,1/2+z
loop_
_atom_site_type_symbol
_atom_site_label
_atom_site_fract_x
_atom_site_fract_y
_atom_site_fract_z
Si Si1 0.735864 0.100532 0.720713
Si Si2 0.528518 0.390072 0.341021
Si Si3 0.884726 0.764739 0.061642
Si Si4 0.097374 0.275884 0.292873
Si Si5 0.037100 0.603895 0.369870
O O1 0.866525 0.121415 0.701661
O O2 0.716633 0.186441 0.764760
O O3 0.649022 0.105679 0.669672
O O4 0.721133 0.000000 0.750000
O O5 0.500000 0.500000 0.349771
O O6 0.564896 0.346354 0.398928
O O7 0.417429 0.333699 0.314918
O O8 0.750000 0.750000 0.070654
O O9 0.938060 0.661859 0.075101
O O10 0.916053 0.794316 0.000000
O O11 0.000000 0.301938 0.250000
O O12 0.074424 0.346269 0.343187
O O13 0.000000 0.500000 0.388170
#
# Coordination Sequence:
#
# PCOD8275682 Si02
#       5
#    16  16  16  16  16
#     4  11  21  37  59  85 126 173 196 251 299 366
#     4  11  25  42  58  92 127 161 217 254 303 381
#     4  10  21  41  66  88 118 162 211 271 323 356
#     4   9  21  34  55  82 121 164 202 234 292 363
#     4  10  18  35  59  93 118 156 212 252 296 378
#
# _framework density 20.150545000000001
#
# number of rings (size 3 to 8) (size 9 to 14) (size 15 to 20)
#    0.000    1.800    4.000    0.000    2.800    0.800 
#    0.000    0.000    0.000    0.000    0.000    1.400 
#    0.000    0.000    0.000    0.000    0.000    0.800 
#
# Total GULP energy -495661.421723 kJ/mol
# GULP energy per Si atom -12391.535543 kJ/mol
# Density = 2.010468 g / cm^3
# Si number density = 20.150545 Si / 1000 Ang^3
#
#
#
# Elastic Constant Matrix: (Units=GPa)
#
#
# Indices 1 2 3 4 5 6 
#
# 1 77.6056 59.8524 50.9535 0.0000 0.0000 0.0000
# 2 59.8524 190.9837 68.1161 0.0000 0.0000 0.0000
# 3 50.9535 68.1161 120.0103 0.0000 0.0000 0.0000
# 4 0.0000 0.0000 0.0000 7.3900 0.0000 0.0000
# 5 0.0000 0.0000 0.0000 0.0000 22.5372 0.0000
# 6 0.0000 0.0000 0.0000 0.0000 0.0000 28.9133
#
#
#
# Elastic Compliance Matrix: (Units=1/GPa)
#
#
# Indices 1 2 3 4 5 6 
#
# 1 0.020125 -0.004087 -0.006225 0.000000 0.000000 0.000000
# 2 -0.004087 0.007395 -0.002462 0.000000 0.000000 0.000000
# 3 -0.006225 -0.002462 0.012373 0.000000 0.000000 0.000000
# 4 0.000000 0.000000 0.000000 0.135319 0.000000 0.000000
# 5 0.000000 0.000000 0.000000 0.000000 0.044371 0.000000
# 6 0.000000 0.000000 0.000000 0.000000 0.000000 0.034586
#
#
# Mechanical properties :
#
#
# Convention : Reuss Voigt Hill
#
# Bulk Modulus (GPa) = 69.71011 82.93816 76.32414
# Shear Modulus (GPa) = 17.57487 25.74661 21.66074
#
# Velocity S-wave (km/s) = 2.95647 3.57839 3.28219
# Velocity P-wave (km/s) = 6.80618 7.63687 7.23346
#
# Compressibility (1/GPa) = 0.01434512
#
# Stress axis : x y z
#
# Youngs Moduli (GPa) = 49.69062 135.22796 80.82098
#
# Poissons Ratio (x) = 0.55263 0.50310
# Poissons Ratio (y) = 0.20307 0.19899
# Poissons Ratio (z) = 0.30932 0.33295
#
# Static dielectric constant tensor:
#      x y z
#    x 3.864420 0.000000 0.000000 
#    y 0.000000 3.916010 0.000000 
#    z 0.000000 0.000000 3.566630 
# 
# 
# High freq. dielectric constant tensor:
#      x y z
#    x 1.783670 0.000000 0.000000 
#    y 0.000000 1.811280 0.000000 
#    z 0.000000 0.000000 1.762970 
# 
# From -- ./inp_files/56626.got.cif
#   From: 2010.03.12/outbox.cif.g09.slc.cpg/sg66_29_cif.got.tgz:56626.got - 2010.04.10 21:57:39.
