data_PCOD8275382
_publ_section_title
;
Structure prediction by ZEFSAII (Michael W. Deem and Ramdas Pophale) SiO2 
 PCOD8275382
Probable space group: C C C M
;
_chemical_formula_sum "Si O2"
_cell_formula_units_Z 80
_cell_length_a 18.938811
_cell_length_b 12.716494
_cell_length_c 18.761691
_cell_angle_alpha 90.000000
_cell_angle_beta 90.000000
_cell_angle_gamma 90.000000
_cell_volume 4518.477039
_symmetry_space_group_name_H-M "C C C M"
_symmetry_group_IT_number 66
_symmetry_cell_setting 'orthorhombic'
loop_
_space_group_symop_operation_xyz
x,y,z
-x,-y,z
x,-y,1/2-z
-x,y,1/2-z
-x,-y,-z
x,y,-z
-x,y,1/2+z
x,-y,1/2+z
1/2+x,1/2+y,z
1/2-x,1/2-y,z
1/2+x,1/2-y,1/2-z
1/2-x,1/2+y,1/2-z
1/2-x,1/2-y,-z
1/2+x,1/2+y,-z
1/2-x,1/2+y,1/2+z
1/2+x,1/2-y,1/2+z
loop_
_atom_site_type_symbol
_atom_site_label
_atom_site_fract_x
_atom_site_fract_y
_atom_site_fract_z
Si Si1 0.134502 0.032101 0.640816
Si Si2 0.796849 0.470070 0.144005
Si Si3 0.817046 0.378214 0.000000
Si Si4 0.580441 0.350732 0.273262
Si Si5 0.648547 0.353404 0.000000
Si Si6 0.815813 0.675036 0.225816
O O1 0.215441 0.001388 0.632187
O O2 0.128206 0.107563 0.708598
O O3 0.111402 0.091918 0.568502
O O4 0.088503 0.926691 0.657250
O O5 0.828855 0.575921 0.175125
O O6 0.805595 0.367496 0.193962
O O7 0.836626 0.444365 0.070303
O O8 0.733004 0.361075 0.000000
O O9 0.864233 0.272016 0.000000
O O10 0.500000 0.346135 0.250000
O O11 0.610751 0.235651 0.287432
O O12 0.750000 0.750000 0.204760
#
# Coordination Sequence:
#
# PCOD8275382 Si02
#       6
#    16  16   8  16   8  16
#     4  10  17  32  51  79 105 130 172 213 264 307
#     4  10  19  31  54  80 101 133 173 226 255 307
#     4   9  18  30  46  82 113 130 173 216 269 297
#     4  11  21  33  51  75 108 140 169 212 263 313
#     4   9  18  28  52  77 108 141 166 215 259 317
#     4  11  18  33  54  76 101 135 178 212 261 308
#
# _framework density 17.705079999999999
#
# number of rings (size 3 to 8) (size 9 to 14) (size 15 to 20)
#    0.000    1.800    4.000    3.600    2.800    0.000 
#    0.000    5.500    0.000    0.000    0.000    2.800 
#    0.000    0.000    0.000    0.000    0.000    0.000 
#
# Total GULP energy -495792.283703 kJ/mol
# GULP energy per Si atom -12394.807093 kJ/mol
# Density = 1.766478 g / cm^3
# Si number density = 17.705080 Si / 1000 Ang^3
#
#
#
# Elastic Constant Matrix: (Units=GPa)
#
#
# Indices 1 2 3 4 5 6 
#
# 1 62.0119 42.5149 17.9893 0.0000 0.0000 0.0000
# 2 42.5149 127.2038 58.0699 0.0000 0.0000 0.0000
# 3 17.9893 58.0699 125.4303 0.0000 0.0000 0.0000
# 4 0.0000 0.0000 0.0000 20.2894 0.0000 0.0000
# 5 0.0000 0.0000 0.0000 0.0000 10.2432 0.0000
# 6 0.0000 0.0000 0.0000 0.0000 0.0000 17.3022
#
#
#
# Elastic Compliance Matrix: (Units=1/GPa)
#
#
# Indices 1 2 3 4 5 6 
#
# 1 0.020928 -0.007132 0.000300 0.000000 0.000000 0.000000
# 2 -0.007132 0.012399 -0.004717 0.000000 0.000000 0.000000
# 3 0.000300 -0.004717 0.010113 0.000000 0.000000 0.000000
# 4 0.000000 0.000000 0.000000 0.049287 0.000000 0.000000
# 5 0.000000 0.000000 0.000000 0.000000 0.097626 0.000000
# 6 0.000000 0.000000 0.000000 0.000000 0.000000 0.057796
#
#
# Mechanical properties :
#
#
# Convention : Reuss Voigt Hill
#
# Bulk Modulus (GPa) = 49.15789 61.31045 55.23417
# Shear Modulus (GPa) = 17.98381 22.63842 20.31112
#
# Velocity S-wave (km/s) = 3.19053 3.57969 3.39070
# Velocity P-wave (km/s) = 6.43411 7.19649 6.82595
#
# Compressibility (1/GPa) = 0.02034261
#
# Stress axis : x y z
#
# Youngs Moduli (GPa) = 47.78190 80.65470 98.87869
#
# Poissons Ratio (x) = 0.57522 -0.02969
# Poissons Ratio (y) = 0.34078 0.46643
# Poissons Ratio (z) = -0.01435 0.38047
#
# Static dielectric constant tensor:
#      x y z
#    x 2.852940 0.000000 0.000000 
#    y 0.000000 3.430780 0.000000 
#    z 0.000000 0.000000 3.454130 
# 
# 
# High freq. dielectric constant tensor:
#      x y z
#    x 1.640850 0.000000 0.000000 
#    y 0.000000 1.692610 0.000000 
#    z 0.000000 0.000000 1.678270 
# 
# From -- ./inp_files/42699.got.cif
#   From: 2010.03.12/outbox.cif.g09.slc.cpg/sg66_22_cif.got.tgz:42699.got - 2010.04.10 21:57:39.
