data_PCOD8275620
_publ_section_title
;
Structure prediction by ZEFSAII (Michael W. Deem and Ramdas Pophale) SiO2 
 PCOD8275620
Probable space group: C C C M
;
_chemical_formula_sum "Si O2"
_cell_formula_units_Z 96
_cell_length_a 9.262316
_cell_length_b 22.248701
_cell_length_c 25.183803
_cell_angle_alpha 90.000000
_cell_angle_beta 90.000000
_cell_angle_gamma 90.000000
_cell_volume 5189.739592
_symmetry_space_group_name_H-M "C C C M"
_symmetry_group_IT_number 66
_symmetry_cell_setting 'orthorhombic'
loop_
_space_group_symop_operation_xyz
x,y,z
-x,-y,z
x,-y,1/2-z
-x,y,1/2-z
-x,-y,-z
x,y,-z
-x,y,1/2+z
x,-y,1/2+z
1/2+x,1/2+y,z
1/2-x,1/2-y,z
1/2+x,1/2-y,1/2-z
1/2-x,1/2+y,1/2-z
1/2-x,1/2-y,-z
1/2+x,1/2+y,-z
1/2-x,1/2+y,1/2+z
1/2+x,1/2-y,1/2+z
loop_
_atom_site_type_symbol
_atom_site_label
_atom_site_fract_x
_atom_site_fract_y
_atom_site_fract_z
Si Si1 0.853409 0.481060 0.880503
Si Si2 0.147611 0.384228 0.301444
Si Si3 0.218516 0.055597 0.789580
Si Si4 0.919528 0.745989 0.301914
Si Si5 0.413751 0.561249 0.940406
Si Si6 0.527982 0.633024 0.341093
O O1 0.921635 0.434238 0.838433
O O2 0.769600 0.531904 0.846874
O O3 0.751119 0.451332 0.924195
O O4 0.000000 0.500000 0.911101
O O5 0.152681 0.405396 0.239248
O O6 0.052455 0.324435 0.312918
O O7 0.315870 0.380896 0.317360
O O8 0.085314 0.100273 0.802124
O O9 0.174050 0.000000 0.750000
O O10 0.750000 0.750000 0.292756
O O11 0.982516 0.793548 0.345057
O O12 0.000000 0.768146 0.250000
O O13 0.500000 0.500000 0.936480
O O14 0.486690 0.609444 0.901264
O O15 0.417145 0.587557 0.000000
#
# Coordination Sequence:
#
# PCOD8275620 Si02
#       6
#    16  16  16  16  16  16
#     4  10  21  33  50  79 106 141 172 214 270 320
#     4   9  20  30  49  72 114 145 173 204 247 310
#     4  10  19  30  52  80 113 145 180 213 261 319
#     4  10  20  34  49  73 109 149 180 210 246 310
#     4  10  20  36  57  79 101 127 173 237 288 322
#     4  10  18  33  51  76  99 138 177 217 262 308
#
# _framework density 18.498038000000001
#
# number of rings (size 3 to 8) (size 9 to 14) (size 15 to 20)
#    0.000    2.167    1.667    2.500    2.333    6.000 
#    0.000    0.000    0.000   12.500    0.000    0.000 
#    0.000    5.000    0.000    0.000    0.000    0.000 
#
# Total GULP energy -594635.073534 kJ/mol
# GULP energy per Si atom -12388.230699 kJ/mol
# Density = 1.845594 g / cm^3
# Si number density = 18.498038 Si / 1000 Ang^3
#
#
#
# Elastic Constant Matrix: (Units=GPa)
#
#
# Indices 1 2 3 4 5 6 
#
# 1 42.1148 20.5551 13.8861 0.0000 0.0000 0.0000
# 2 20.5551 125.0688 38.7259 0.0000 0.0000 0.0000
# 3 13.8861 38.7259 96.0413 0.0000 0.0000 0.0000
# 4 0.0000 0.0000 0.0000 19.1230 0.0000 0.0000
# 5 0.0000 0.0000 0.0000 0.0000 17.0764 0.0000
# 6 0.0000 0.0000 0.0000 0.0000 0.0000 0.0403
#
#
#
# Elastic Compliance Matrix: (Units=1/GPa)
#
#
# Indices 1 2 3 4 5 6 
#
# 1 0.026272 -0.003590 -0.002351 0.000000 0.000000 0.000000
# 2 -0.003590 0.009627 -0.003363 0.000000 0.000000 0.000000
# 3 -0.002351 -0.003363 0.012108 0.000000 0.000000 0.000000
# 4 0.000000 0.000000 0.000000 0.052293 0.000000 0.000000
# 5 0.000000 0.000000 0.000000 0.000000 0.058560 0.000000
# 6 0.000000 0.000000 0.000000 0.000000 0.000000 24.840331
#
#
# Mechanical properties :
#
#
# Convention : Reuss Voigt Hill
#
# Bulk Modulus (GPa) = 34.01406 45.50658 39.76032
# Shear Modulus (GPa) = 0.19978 19.91847 10.05912
#
# Velocity S-wave (km/s) = 0.32899 3.28500 2.33447
# Velocity P-wave (km/s) = 4.30954 6.24840 5.36725
#
# Compressibility (1/GPa) = 0.02939961
#
# Stress axis : x y z
#
# Youngs Moduli (GPa) = 38.06352 103.87665 82.58983
#
# Poissons Ratio (x) = 0.37290 0.19417
# Poissons Ratio (y) = 0.13664 0.27773
# Poissons Ratio (z) = 0.08949 0.34931
#
# Static dielectric constant tensor:
#      x y z
#    x 3.322220 0.000000 0.000000 
#    y 0.000000 4.015440 0.000000 
#    z 0.000000 0.000000 3.274610 
# 
# 
# High freq. dielectric constant tensor:
#      x y z
#    x 1.721360 0.000000 0.000000 
#    y 0.000000 1.720070 0.000000 
#    z 0.000000 0.000000 1.676480 
# 
# From -- ./inp_files/55657.got.cif
#   From: 2010.03.12/outbox.cif.g09.slc.cpg/sg66_28_cif.got.tgz:55657.got - 2010.04.10 21:57:39.
