data_PCOD8275008
_publ_section_title
;
Structure prediction by ZEFSAII (Michael W. Deem and Ramdas Pophale) SiO2 
 PCOD8275008
Probable space group: C M M M
;
_chemical_formula_sum "Si O2"
_cell_formula_units_Z 80
_cell_length_a 14.225448
_cell_length_b 14.576458
_cell_length_c 19.012248
_cell_angle_alpha 90.000000
_cell_angle_beta 90.000000
_cell_angle_gamma 90.000000
_cell_volume 3942.315965
_symmetry_space_group_name_H-M "C M M M"
_symmetry_group_IT_number 65
_symmetry_cell_setting 'orthorhombic'
loop_
_space_group_symop_operation_xyz
x,y,z
-x,-y,z
x,-y,-z
-x,y,-z
-x,-y,-z
x,y,-z
-x,y,z
x,-y,z
1/2+x,1/2+y,z
1/2-x,1/2-y,z
1/2+x,1/2-y,-z
1/2-x,1/2+y,-z
1/2-x,1/2-y,-z
1/2+x,1/2+y,-z
1/2-x,1/2+y,z
1/2+x,1/2-y,z
loop_
_atom_site_type_symbol
_atom_site_label
_atom_site_fract_x
_atom_site_fract_y
_atom_site_fract_z
Si Si1 0.106082 0.391336 0.710627
Si Si2 0.605890 0.609328 0.922026
Si Si3 0.111248 0.897798 0.653098
Si Si4 0.218423 0.892193 0.791971
Si Si5 0.111395 0.720118 0.422989
O O1 0.110411 0.500000 0.702295
O O2 0.175896 0.356996 0.772984
O O3 0.144782 0.350895 0.636832
O O4 0.000000 0.357823 0.727892
O O5 0.500000 0.644278 0.906213
O O6 0.606391 0.500000 0.918251
O O7 0.678112 0.651632 0.864247
O O8 0.637544 0.641874 0.000000
O O9 0.149186 0.866147 0.728657
O O10 0.145772 0.823445 0.595812
O O11 0.000000 0.897537 0.659133
O O12 0.147795 0.000000 0.632434
O O13 0.222274 0.000000 0.802179
O O14 0.152957 0.694362 0.500000
O O15 0.000000 0.717292 0.426217
#
# Coordination Sequence:
#
# PCOD8275008 Si02
#       5
#    16  16  16  16  16
#     4   9  18  32  48  65  87 120 165 212 247 272
#     4   8  13  22  40  69 102 130 154 186 232 283
#     4   9  17  29  46  69  96 123 149 181 229 294
#     4   9  16  27  44  66  93 124 157 191 230 280
#     4   9  18  32  49  69  92 120 157 199 245 294
#
# _framework density 20.292639999999999
#
# number of rings (size 3 to 8) (size 9 to 14) (size 15 to 20)
#    0.000    3.200    0.000    1.200    0.000    4.000 
#    0.000    6.000    0.000    4.200    0.000    7.000 
#    0.000    4.800    0.000    0.400    0.000    0.000 
#
# Total GULP energy -495587.617609 kJ/mol
# GULP energy per Si atom -12389.690440 kJ/mol
# Density = 2.024645 g / cm^3
# Si number density = 20.292640 Si / 1000 Ang^3
#
#
#
# Elastic Constant Matrix: (Units=GPa)
#
#
# Indices 1 2 3 4 5 6 
#
# 1 76.4426 11.8186 77.1595 0.0000 0.0000 0.0000
# 2 11.8186 28.0344 23.2925 0.0000 0.0000 0.0000
# 3 77.1595 23.2925 173.7057 0.0000 0.0000 0.0000
# 4 0.0000 0.0000 0.0000 13.0509 0.0000 0.0000
# 5 0.0000 0.0000 0.0000 0.0000 23.2651 0.0000
# 6 0.0000 0.0000 0.0000 0.0000 0.0000 8.0840
#
#
#
# Elastic Compliance Matrix: (Units=1/GPa)
#
#
# Indices 1 2 3 4 5 6 
#
# 1 0.023763 -0.001404 -0.010367 0.000000 0.000000 0.000000
# 2 -0.001404 0.040226 -0.004770 0.000000 0.000000 0.000000
# 3 -0.010367 -0.004770 0.011002 0.000000 0.000000 0.000000
# 4 0.000000 0.000000 0.000000 0.076623 0.000000 0.000000
# 5 0.000000 0.000000 0.000000 0.000000 0.042983 0.000000
# 6 0.000000 0.000000 0.000000 0.000000 0.000000 0.123701
#
#
# Mechanical properties :
#
#
# Convention : Reuss Voigt Hill
#
# Bulk Modulus (GPa) = 23.86223 55.85821 39.86022
# Shear Modulus (GPa) = 13.68549 19.94081 16.81315
#
# Velocity S-wave (km/s) = 2.59975 3.13815 2.88155
# Velocity P-wave (km/s) = 4.56028 6.38096 5.54585
#
# Compressibility (1/GPa) = 0.04190724
#
# Stress axis : x y z
#
# Youngs Moduli (GPa) = 42.08163 24.85969 90.89566
#
# Poissons Ratio (x) = 0.03491 0.94234
# Poissons Ratio (y) = 0.05909 0.43359
# Poissons Ratio (z) = 0.43627 0.11858
#
# Static dielectric constant tensor:
#      x y z
#    x 3.873820 0.000000 0.000000 
#    y 0.000000 3.488210 0.000000 
#    z 0.000000 0.000000 4.434740 
# 
# 
# High freq. dielectric constant tensor:
#      x y z
#    x 1.792000 0.000000 0.000000 
#    y 0.000000 1.762440 0.000000 
#    z 0.000000 0.000000 1.779630 
# 
# From -- ./inp_files/52886.got.cif
#   From: 2010.03.12/outbox.cif.g09.slc.cpg/sg65_27_cif.got.tgz:52886.got - 2010.04.10 20:52:16.
