data_PCOD8275907
_publ_section_title
;
Structure prediction by ZEFSAII (Michael W. Deem and Ramdas Pophale) SiO2 
 PCOD8275907
Probable space group: C C C M
;
_chemical_formula_sum "Si O2"
_cell_formula_units_Z 80
_cell_length_a 14.186002
_cell_length_b 17.251768
_cell_length_c 17.803196
_cell_angle_alpha 90.000000
_cell_angle_beta 90.000000
_cell_angle_gamma 90.000000
_cell_volume 4357.040522
_symmetry_space_group_name_H-M "C C C M"
_symmetry_group_IT_number 66
_symmetry_cell_setting 'orthorhombic'
loop_
_space_group_symop_operation_xyz
x,y,z
-x,-y,z
x,-y,1/2-z
-x,y,1/2-z
-x,-y,-z
x,y,-z
-x,y,1/2+z
x,-y,1/2+z
1/2+x,1/2+y,z
1/2-x,1/2-y,z
1/2+x,1/2-y,1/2-z
1/2-x,1/2+y,1/2-z
1/2-x,1/2-y,-z
1/2+x,1/2+y,-z
1/2-x,1/2+y,1/2+z
1/2+x,1/2-y,1/2+z
loop_
_atom_site_type_symbol
_atom_site_label
_atom_site_fract_x
_atom_site_fract_y
_atom_site_fract_z
Si Si1 0.508667 0.212071 0.585141
Si Si2 0.251251 0.929496 0.201581
Si Si3 0.588443 0.052221 0.085627
Si Si4 0.425038 0.672858 0.193370
Si Si5 0.837824 0.701313 0.798063
O O1 0.539252 0.227651 0.500000
O O2 0.431888 0.143906 0.590000
O O3 0.471302 0.294504 0.617007
O O4 0.599023 0.181821 0.630344
O O5 0.317847 0.961446 0.135015
O O6 0.160616 0.883165 0.169925
O O7 0.311048 0.878415 0.259028
O O8 0.210556 0.000000 0.250000
O O9 0.500000 0.000000 0.114845
O O10 0.611198 0.027316 0.000000
O O11 0.500000 0.630694 0.250000
O O12 0.391964 0.749401 0.236163
O O13 0.750000 0.750000 0.828760
#
# Coordination Sequence:
#
# PCOD8275907 Si02
#       5
#    16  16  16  16  16
#     4  10  19  32  53  77 107 145 178 223 280 327
#     4  11  21  33  55  80 104 144 186 227 281 331
#     4  10  21  34  50  80 117 147 178 221 278 341
#     4   9  19  36  54  74 105 138 182 234 271 323
#     4   9  18  33  51  75 103 136 181 229 266 322
#
# _framework density 18.361086
#
# number of rings (size 3 to 8) (size 9 to 14) (size 15 to 20)
#    0.000    2.200    2.000    1.200    0.000    3.600 
#    0.000    2.000    0.000    4.800    0.000   14.000 
#    0.000    0.000    0.000    0.000    0.000    0.000 
#
# Total GULP energy -495922.038549 kJ/mol
# GULP energy per Si atom -12398.050964 kJ/mol
# Density = 1.831930 g / cm^3
# Si number density = 18.361086 Si / 1000 Ang^3
#
#
#
# Elastic Constant Matrix: (Units=GPa)
#
#
# Indices 1 2 3 4 5 6 
#
# 1 87.3779 25.3108 35.9373 0.0000 0.0000 0.0000
# 2 25.3108 55.3132 27.6620 0.0000 0.0000 0.0000
# 3 35.9373 27.6620 89.8086 0.0000 0.0000 0.0000
# 4 0.0000 0.0000 0.0000 54.5088 0.0000 0.0000
# 5 0.0000 0.0000 0.0000 0.0000 14.3419 0.0000
# 6 0.0000 0.0000 0.0000 0.0000 0.0000 31.6672
#
#
#
# Elastic Compliance Matrix: (Units=1/GPa)
#
#
# Indices 1 2 3 4 5 6 
#
# 1 0.014564 -0.004433 -0.004463 0.000000 0.000000 0.000000
# 2 -0.004433 0.022720 -0.005224 0.000000 0.000000 0.000000
# 3 -0.004463 -0.005224 0.014530 0.000000 0.000000 0.000000
# 4 0.000000 0.000000 0.000000 0.018346 0.000000 0.000000
# 5 0.000000 0.000000 0.000000 0.000000 0.069726 0.000000
# 6 0.000000 0.000000 0.000000 0.000000 0.000000 0.031578
#
#
# Mechanical properties :
#
#
# Convention : Reuss Voigt Hill
#
# Bulk Modulus (GPa) = 42.41849 45.59111 44.00480
# Shear Modulus (GPa) = 24.08941 29.67621 26.88281
#
# Velocity S-wave (km/s) = 3.62606 4.02463 3.83053
# Velocity P-wave (km/s) = 6.37837 6.81770 6.60169
#
# Compressibility (1/GPa) = 0.02357462
#
# Stress axis : x y z
#
# Youngs Moduli (GPa) = 68.66287 44.01439 68.82503
#
# Poissons Ratio (x) = 0.19510 0.30713
# Poissons Ratio (y) = 0.30436 0.35956
# Poissons Ratio (z) = 0.30641 0.22994
#
# Static dielectric constant tensor:
#      x y z
#    x -7.032660 0.000000 0.000000 
#    y 0.000000 3.216710 0.000000 
#    z 0.000000 0.000000 3.284580 
# 
# 
# High freq. dielectric constant tensor:
#      x y z
#    x 1.708260 0.000000 0.000000 
#    y 0.000000 1.700140 0.000000 
#    z 0.000000 0.000000 1.702960 
# 
# From -- ./inp_files/28091.got.cif
#   From: 2010.03.12/outbox.cif.g09.slc.cpg/sg66_15_cif.got.tgz:28091.got - 2010.04.10 21:57:39.
