data_PCOD8275043
_publ_section_title
;
Structure prediction by ZEFSAII (Michael W. Deem and Ramdas Pophale) SiO2 
 PCOD8275043
Probable space group: C M M M
;
_chemical_formula_sum "Si O2"
_cell_formula_units_Z 104
_cell_length_a 21.604289
_cell_length_b 20.508499
_cell_length_c 14.936747
_cell_angle_alpha 90.000000
_cell_angle_beta 90.000000
_cell_angle_gamma 90.000000
_cell_volume 6618.047486
_symmetry_space_group_name_H-M "C M M M"
_symmetry_group_IT_number 65
_symmetry_cell_setting 'orthorhombic'
loop_
_space_group_symop_operation_xyz
x,y,z
-x,-y,z
x,-y,-z
-x,y,-z
-x,-y,-z
x,y,-z
-x,y,z
x,-y,z
1/2+x,1/2+y,z
1/2-x,1/2-y,z
1/2+x,1/2-y,-z
1/2-x,1/2+y,-z
1/2-x,1/2-y,-z
1/2+x,1/2+y,-z
1/2-x,1/2+y,z
1/2+x,1/2-y,z
loop_
_atom_site_type_symbol
_atom_site_label
_atom_site_fract_x
_atom_site_fract_y
_atom_site_fract_z
Si Si1 0.337215 0.573115 0.600194
Si Si2 0.809717 0.427339 0.400519
Si Si3 0.000000 0.572058 0.893055
Si Si4 0.164468 0.178896 0.258309
Si Si5 0.070068 0.192134 0.101223
Si Si6 0.308842 0.825001 0.257442
Si Si7 0.893938 0.337905 0.899794
O O1 0.363100 0.586257 0.500000
O O2 0.357705 0.500000 0.631924
O O3 0.263796 0.576697 0.597975
O O4 0.362516 0.629958 0.665838
O O5 0.834887 0.410611 0.500000
O O6 0.831133 0.500000 0.372449
O O7 0.836188 0.375198 0.330245
O O8 0.060940 0.607999 0.858038
O O9 0.000000 0.500000 0.853082
O O10 0.000000 0.573967 0.000000
O O11 0.121848 0.165888 0.170734
O O12 0.236254 0.164262 0.240942
O O13 0.165702 0.254399 0.290105
O O14 0.069947 0.269972 0.103032
O O15 0.000000 0.169287 0.127285
O O16 0.086239 0.167722 0.000000
O O17 0.332710 0.838814 0.158587
O O18 0.872818 0.355325 0.000000
#
# Coordination Sequence:
#
# PCOD8275043 Si02
#       7
#    16  16   8  16  16  16  16
#     4   8  14  26  44  63  84 112 140 166 207 264
#     4   8  14  25  40  58  83 116 148 172 201 252
#     4   9  16  26  40  58  81 111 150 187 211 239
#     4   9  17  27  41  66  91 110 138 181 223 256
#     4   9  16  28  46  62  80 112 150 179 207 252
#     4   9  17  26  39  64  93 113 136 178 226 261
#     4   9  16  27  41  58  83 115 145 175 215 257
#
# _framework density 15.714604
#
# number of rings (size 3 to 8) (size 9 to 14) (size 15 to 20)
#    0.000    3.308    0.769    0.923    0.000    1.846 
#    0.000    6.154    0.000    1.385    0.000    7.000 
#    0.000    1.846    0.000    0.000    0.000    0.000 
#
# Total GULP energy -644187.197470 kJ/mol
# GULP energy per Si atom -12388.215336 kJ/mol
# Density = 1.567884 g / cm^3
# Si number density = 15.714604 Si / 1000 Ang^3
#
#
#
# Elastic Constant Matrix: (Units=GPa)
#
#
# Indices 1 2 3 4 5 6 
#
# 1 44.6577 30.6873 40.9736 0.0000 0.0000 0.0000
# 2 30.6873 92.4704 64.4778 0.0000 0.0000 0.0000
# 3 40.9736 64.4778 107.2134 0.0000 0.0000 0.0000
# 4 0.0000 0.0000 0.0000 22.5701 0.0000 0.0000
# 5 0.0000 0.0000 0.0000 0.0000 4.4003 0.0000
# 6 0.0000 0.0000 0.0000 0.0000 0.0000 12.6452
#
#
#
# Elastic Compliance Matrix: (Units=1/GPa)
#
#
# Indices 1 2 3 4 5 6 
#
# 1 0.035313 -0.003976 -0.011104 0.000000 0.000000 0.000000
# 2 -0.003976 0.019072 -0.009950 0.000000 0.000000 0.000000
# 3 -0.011104 -0.009950 0.019555 0.000000 0.000000 0.000000
# 4 0.000000 0.000000 0.000000 0.044306 0.000000 0.000000
# 5 0.000000 0.000000 0.000000 0.000000 0.227258 0.000000
# 6 0.000000 0.000000 0.000000 0.000000 0.000000 0.079081
#
#
# Mechanical properties :
#
#
# Convention : Reuss Voigt Hill
#
# Bulk Modulus (GPa) = 41.87867 57.40212 49.64040
# Shear Modulus (GPa) = 10.36042 15.13665 12.74853
#
# Velocity S-wave (km/s) = 2.57044 3.10695 2.85134
# Velocity P-wave (km/s) = 5.95961 7.03406 6.51901
#
# Compressibility (1/GPa) = 0.02387850
#
# Stress axis : x y z
#
# Youngs Moduli (GPa) = 28.31812 52.43313 51.13806
#
# Poissons Ratio (x) = 0.20849 0.56785
# Poissons Ratio (y) = 0.11260 0.50883
# Poissons Ratio (z) = 0.31445 0.52172
#
# Static dielectric constant tensor:
#      x y z
#    x 2.670340 0.000000 0.000000 
#    y 0.000000 3.150620 0.000000 
#    z 0.000000 0.000000 3.124430 
# 
# 
# High freq. dielectric constant tensor:
#      x y z
#    x 1.567060 0.000000 0.000000 
#    y 0.000000 1.596640 0.000000 
#    z 0.000000 0.000000 1.596050 
# 
# From -- ./inp_files/46033.got.cif
#   From: 2010.03.12/outbox.cif.g09.slc.cpg/sg65_24_cif.got.tgz:46033.got - 2010.04.10 20:52:16.
