data_PCOD8275702
_publ_section_title
;
Structure prediction by ZEFSAII (Michael W. Deem and Ramdas Pophale) SiO2 
 PCOD8275702
Probable space group: C C C M
;
_chemical_formula_sum "Si O2"
_cell_formula_units_Z 104
_cell_length_a 29.363885
_cell_length_b 7.592984
_cell_length_c 22.120673
_cell_angle_alpha 90.000000
_cell_angle_beta 90.000000
_cell_angle_gamma 90.000000
_cell_volume 4932.014390
_symmetry_space_group_name_H-M "C C C M"
_symmetry_group_IT_number 66
_symmetry_cell_setting 'orthorhombic'
loop_
_space_group_symop_operation_xyz
x,y,z
-x,-y,z
x,-y,1/2-z
-x,y,1/2-z
-x,-y,-z
x,y,-z
-x,y,1/2+z
x,-y,1/2+z
1/2+x,1/2+y,z
1/2-x,1/2-y,z
1/2+x,1/2-y,1/2-z
1/2-x,1/2+y,1/2-z
1/2-x,1/2-y,-z
1/2+x,1/2+y,-z
1/2-x,1/2+y,1/2+z
1/2+x,1/2-y,1/2+z
loop_
_atom_site_type_symbol
_atom_site_label
_atom_site_fract_x
_atom_site_fract_y
_atom_site_fract_z
Si Si1 0.357530 0.824628 0.000000
Si Si2 0.139009 0.457258 0.818441
Si Si3 0.121045 0.945652 0.500000
Si Si4 0.049315 0.052134 0.819661
Si Si5 0.196535 0.265969 0.378589
Si Si6 0.142944 0.931766 0.368010
Si Si7 0.046796 0.428812 0.132442
Si Si8 0.432768 0.881647 0.500000
O O1 0.391152 0.653855 0.000000
O O2 0.324732 0.811437 0.056984
O O3 0.386333 0.004180 0.000000
O O4 0.127146 0.500000 0.750000
O O5 0.183173 0.571773 0.835383
O O6 0.149960 0.249851 0.830951
O O7 0.094523 0.530954 0.856095
O O8 0.149024 0.892465 0.439595
O O9 0.075997 0.827688 0.500000
O O10 0.093018 0.976314 0.855725
O O11 0.055389 0.258114 0.827687
O O12 0.052091 0.000000 0.750000
O O13 0.000000 0.000000 0.847782
O O14 0.250000 0.250000 0.384775
O O15 0.179254 0.080791 0.349819
O O16 0.000000 0.500000 0.160589
O O17 0.038494 0.413735 0.060564
#
# Coordination Sequence:
#
# PCOD8275702 Si02
#       8
#     8  16   8  16  16  16  16   8
#     4  10  21  39  73  97 132 169 221 276 341 399
#     4  11  25  43  64  95 131 181 224 274 335 391
#     4  10  18  38  67  95 121 176 212 261 337 395
#     4  10  23  39  62  93 129 174 220 271 321 386
#     4  11  24  43  69 100 131 173 221 281 341 397
#     4  10  23  42  67  95 132 169 224 269 331 401
#     4  11  25  41  68  99 132 176 227 274 339 402
#     4  12  19  45  66  96 142 173 216 286 334 405
#
# _framework density 21.086718999999999
#
# number of rings (size 3 to 8) (size 9 to 14) (size 15 to 20)
#    0.000    1.385    4.615    0.462    6.462    3.385 
#    2.769    1.538    0.000    5.538    0.000    0.000 
#    0.000    0.000    0.000    0.000    0.000    0.000 
#
# Total GULP energy -644233.335276 kJ/mol
# GULP energy per Si atom -12389.102601 kJ/mol
# Density = 2.103872 g / cm^3
# Si number density = 21.086719 Si / 1000 Ang^3
#
#
#
# Elastic Constant Matrix: (Units=GPa)
#
#
# Indices 1 2 3 4 5 6 
#
# 1 137.4266 52.6069 17.9985 0.0000 0.0000 0.0000
# 2 52.6069 94.5435 39.6970 0.0000 0.0000 0.0000
# 3 17.9985 39.6970 114.8933 0.0000 0.0000 0.0000
# 4 0.0000 0.0000 0.0000 29.4879 0.0000 0.0000
# 5 0.0000 0.0000 0.0000 0.0000 288.6527 0.0000
# 6 0.0000 0.0000 0.0000 0.0000 0.0000 31.1409
#
#
#
# Elastic Compliance Matrix: (Units=1/GPa)
#
#
# Indices 1 2 3 4 5 6 
#
# 1 0.009261 -0.005315 0.000386 0.000000 0.000000 0.000000
# 2 -0.005315 0.015422 -0.004496 0.000000 0.000000 0.000000
# 3 0.000386 -0.004496 0.010197 0.000000 0.000000 0.000000
# 4 0.000000 0.000000 0.000000 0.033912 0.000000 0.000000
# 5 0.000000 0.000000 0.000000 0.000000 0.003464 0.000000
# 6 0.000000 0.000000 0.000000 0.000000 0.000000 0.032112
#
#
# Mechanical properties :
#
#
# Convention : Reuss Voigt Hill
#
# Bulk Modulus (GPa) = 62.38596 63.05203 62.71899
# Shear Modulus (GPa) = 38.89182 85.62702 62.25942
#
# Velocity S-wave (km/s) = 4.29928 6.37928 5.43962
# Velocity P-wave (km/s) = 7.36849 9.17750 8.32230
#
# Compressibility (1/GPa) = 0.01602925
#
# Stress axis : x y z
#
# Youngs Moduli (GPa) = 107.98418 64.84140 98.07055
#
# Poissons Ratio (x) = 0.34462 -0.03782
# Poissons Ratio (y) = 0.57391 0.44092
# Poissons Ratio (z) = -0.04164 0.29153
#
# Static dielectric constant tensor:
#      x y z
#    x 3.947430 0.000000 0.000000 
#    y 0.000000 3.909360 0.000000 
#    z 0.000000 0.000000 3.899100 
# 
# 
# High freq. dielectric constant tensor:
#      x y z
#    x 1.807320 0.000000 0.000000 
#    y 0.000000 1.826870 0.000000 
#    z 0.000000 0.000000 1.832490 
# 
# From -- ./inp_files/53338.got.cif
#   From: 2010.03.12/outbox.cif.g09.slc.cpg/sg66_27_cif.got.tgz:53338.got - 2010.04.10 21:57:39.
