data_PCOD8275108
_publ_section_title
;
Structure prediction by ZEFSAII (Michael W. Deem and Ramdas Pophale) SiO2 
 PCOD8275108
Probable space group: C M M M
;
_chemical_formula_sum "Si O2"
_cell_formula_units_Z 56
_cell_length_a 10.434001
_cell_length_b 37.288564
_cell_length_c 7.604077
_cell_angle_alpha 90.000000
_cell_angle_beta 90.000000
_cell_angle_gamma 90.000000
_cell_volume 2958.509981
_symmetry_space_group_name_H-M "C M M M"
_symmetry_group_IT_number 65
_symmetry_cell_setting 'orthorhombic'
loop_
_space_group_symop_operation_xyz
x,y,z
-x,-y,z
x,-y,-z
-x,y,-z
-x,-y,-z
x,y,-z
-x,y,z
x,-y,z
1/2+x,1/2+y,z
1/2-x,1/2-y,z
1/2+x,1/2-y,-z
1/2-x,1/2+y,-z
1/2-x,1/2-y,-z
1/2+x,1/2+y,-z
1/2-x,1/2+y,z
1/2+x,1/2-y,z
loop_
_atom_site_type_symbol
_atom_site_label
_atom_site_fract_x
_atom_site_fract_y
_atom_site_fract_z
Si Si1 0.759918 0.830042 0.291448
Si Si2 0.650983 0.592837 0.700271
Si Si3 0.000000 0.785643 0.709930
Si Si4 0.500000 0.795560 0.709759
Si Si5 0.348028 0.539906 0.000000
O O1 0.762923 0.827243 0.500000
O O2 0.778149 0.871244 0.234591
O O3 0.874381 0.805605 0.214882
O O4 0.625227 0.815799 0.215882
O O5 0.687560 0.582814 0.500000
O O6 0.500000 0.599895 0.717400
O O7 0.697986 0.560556 0.824756
O O8 0.000000 0.786425 0.500000
O O9 0.000000 0.745047 0.780339
O O10 0.500000 0.795985 0.500000
O O11 0.287652 0.500000 0.000000
O O12 0.500000 0.537263 0.000000
#
# Coordination Sequence:
#
# PCOD8275108 Si02
#       5
#    16  16   8   8   8
#     4   9  15  24  38  60  90 125 162 197 236 283
#     4   9  16  28  46  67  94 127 158 191 234 284
#     4   9  14  22  36  57  89 126 161 201 244 280
#     4   9  16  22  34  61  93 122 161 207 240 272
#     4   9  18  30  46  73 100 120 151 192 237 289
#
# _framework density 18.928446999999998
#
# number of rings (size 3 to 8) (size 9 to 14) (size 15 to 20)
#    0.000    3.000    1.429    0.857    0.000    4.000 
#    0.000    2.857    0.000    0.857    0.000    8.000 
#    0.000    5.714    0.000    0.000    0.000    0.000 
#
# Total GULP energy -347121.537188 kJ/mol
# GULP energy per Si atom -12397.197757 kJ/mol
# Density = 1.888537 g / cm^3
# Si number density = 18.928447 Si / 1000 Ang^3
#
#
#
# Elastic Constant Matrix: (Units=GPa)
#
#
# Indices 1 2 3 4 5 6 
#
# 1 114.4276 72.2538 17.4928 0.0000 0.0000 0.0000
# 2 72.2538 198.7857 57.9342 0.0000 0.0000 0.0000
# 3 17.4928 57.9342 63.8881 0.0000 0.0000 0.0000
# 4 0.0000 0.0000 0.0000 -15.8106 0.0000 0.0000
# 5 0.0000 0.0000 0.0000 0.0000 0.6746 0.0000
# 6 0.0000 0.0000 0.0000 0.0000 0.0000 10.1261
#
#
#
# Elastic Compliance Matrix: (Units=1/GPa)
#
#
# Indices 1 2 3 4 5 6 
#
# 1 0.011377 -0.004387 0.000863 0.000000 0.000000 0.000000
# 2 -0.004387 0.008529 -0.006533 0.000000 0.000000 0.000000
# 3 0.000863 -0.006533 0.021340 0.000000 0.000000 0.000000
# 4 0.000000 0.000000 0.000000 -0.063249 0.000000 0.000000
# 5 0.000000 0.000000 0.000000 0.000000 1.482304 0.000000
# 6 0.000000 0.000000 0.000000 0.000000 0.000000 0.098755
#
#
# Mechanical properties :
#
#
# Convention : Reuss Voigt Hill
#
# Bulk Modulus (GPa) = 47.32031 74.71813 61.01922
# Shear Modulus (GPa) = 3.15216 14.29273 8.72244
#
# Velocity S-wave (km/s) = 1.29187 2.75088 2.14898
# Velocity P-wave (km/s) = 5.22294 7.04624 6.20196
#
# Compressibility (1/GPa) = 0.02113258
#
# Stress axis : x y z
#
# Youngs Moduli (GPa) = 87.89468 117.24632 46.85961
#
# Poissons Ratio (x) = 0.51434 -0.04043
# Poissons Ratio (y) = 0.38558 0.30614
# Poissons Ratio (z) = -0.07584 0.76598
#
# Static dielectric constant tensor:
#      x y z
#    x 3.414260 0.000000 0.000000 
#    y 0.000000 3.622100 0.000000 
#    z 0.000000 0.000000 3.148740 
# 
# 
# High freq. dielectric constant tensor:
#      x y z
#    x 1.701410 0.000000 0.000000 
#    y 0.000000 1.733910 0.000000 
#    z 0.000000 0.000000 1.711740 
# 
# From -- ./inp_files/4752.got.cif
#   From: 2010.03.12/outbox.cif.g09.slc.cpg/sg65_3_cif.got.tgz:4752.got - 2010.04.10 20:52:16.
