data_PCOD8275031
_publ_section_title
;
Structure prediction by ZEFSAII (Michael W. Deem and Ramdas Pophale) SiO2 
 PCOD8275031
Probable space group: C M M M
;
_chemical_formula_sum "Si O2"
_cell_formula_units_Z 112
_cell_length_a 24.679155
_cell_length_b 28.573089
_cell_length_c 9.668427
_cell_angle_alpha 90.000000
_cell_angle_beta 90.000000
_cell_angle_gamma 90.000000
_cell_volume 6817.785008
_symmetry_space_group_name_H-M "C M M M"
_symmetry_group_IT_number 65
_symmetry_cell_setting 'orthorhombic'
loop_
_space_group_symop_operation_xyz
x,y,z
-x,-y,z
x,-y,-z
-x,y,-z
-x,-y,-z
x,y,-z
-x,y,z
x,-y,z
1/2+x,1/2+y,z
1/2-x,1/2-y,z
1/2+x,1/2-y,-z
1/2-x,1/2+y,-z
1/2-x,1/2-y,-z
1/2+x,1/2+y,-z
1/2-x,1/2+y,z
1/2+x,1/2-y,z
loop_
_atom_site_type_symbol
_atom_site_label
_atom_site_fract_x
_atom_site_fract_y
_atom_site_fract_z
Si Si1 0.827567 0.369098 0.158293
Si Si2 0.243408 0.304081 0.660652
Si Si3 0.559319 0.348041 0.664169
Si Si4 0.063011 0.254785 0.651053
Si Si5 0.439798 0.162369 0.158383
Si Si6 0.245002 0.053378 0.160663
Si Si7 0.827920 0.883500 0.339178
O O1 0.805076 0.327367 0.253268
O O2 0.892643 0.376425 0.179726
O O3 0.799989 0.418517 0.195741
O O4 0.814718 0.355241 0.000000
O O5 0.227413 0.306377 0.500000
O O6 0.250000 0.250000 0.707609
O O7 0.298448 0.333671 0.689161
O O8 0.556025 0.344245 0.500000
O O9 0.500000 0.365364 0.720549
O O10 0.573443 0.296030 0.718473
O O11 0.608947 0.381211 0.708146
O O12 0.092084 0.260147 0.500000
O O13 0.083376 0.293598 0.757168
O O14 0.000000 0.262111 0.627829
O O15 0.500000 0.144765 0.206904
O O16 0.443364 0.178176 0.000000
O O17 0.196278 0.074648 0.249413
O O18 0.254672 0.000000 0.205050
O O19 0.229326 0.057520 0.000000
O O20 0.822761 0.896898 0.500000
#
# Coordination Sequence:
#
# PCOD8275031 Si02
#       7
#    16  16  16  16  16  16  16
#     4   9  18  31  46  65  87 115 150 182 221 270
#     4   9  18  29  42  63  92 122 149 182 220 255
#     4   8  14  25  42  64  90 119 150 182 213 249
#     4   8  14  24  39  59  83 118 159 185 202 236
#     4   9  17  28  41  60  89 120 148 181 219 257
#     4   9  18  34  53  68  84 109 144 187 231 274
#     4   9  17  29  46  69  92 115 146 182 222 264
#
# _framework density 16.427623000000001
#
# number of rings (size 3 to 8) (size 9 to 14) (size 15 to 20)
#    0.000    3.286    0.000    0.857    2.000    1.143 
#    0.000    0.714    0.000    2.143    0.000    6.000 
#    0.000    0.000    0.000   10.714    0.000   11.143 
#
# Total GULP energy -693783.534407 kJ/mol
# GULP energy per Si atom -12388.991686 kJ/mol
# Density = 1.639023 g / cm^3
# Si number density = 16.427623 Si / 1000 Ang^3
#
#
#
# Elastic Constant Matrix: (Units=GPa)
#
#
# Indices 1 2 3 4 5 6 
#
# 1 132.9543 59.4990 37.5676 0.0000 0.0000 0.0000
# 2 59.4990 106.2858 37.3054 0.0000 0.0000 0.0000
# 3 37.5676 37.3054 42.4279 0.0000 0.0000 0.0000
# 4 0.0000 0.0000 0.0000 21.3117 0.0000 0.0000
# 5 0.0000 0.0000 0.0000 0.0000 17.9417 0.0000
# 6 0.0000 0.0000 0.0000 0.0000 0.0000 14.8522
#
#
#
# Elastic Compliance Matrix: (Units=1/GPa)
#
#
# Indices 1 2 3 4 5 6 
#
# 1 0.011092 -0.003995 -0.006309 0.000000 0.000000 0.000000
# 2 -0.003995 0.015047 -0.009693 0.000000 0.000000 0.000000
# 3 -0.006309 -0.009693 0.037678 0.000000 0.000000 0.000000
# 4 0.000000 0.000000 0.000000 0.046923 0.000000 0.000000
# 5 0.000000 0.000000 0.000000 0.000000 0.055736 0.000000
# 6 0.000000 0.000000 0.000000 0.000000 0.000000 0.067330
#
#
# Mechanical properties :
#
#
# Convention : Reuss Voigt Hill
#
# Bulk Modulus (GPa) = 41.97486 61.15689 51.56588
# Shear Modulus (GPa) = 17.74683 20.64084 19.19384
#
# Velocity S-wave (km/s) = 3.29036 3.54852 3.42188
# Velocity P-wave (km/s) = 6.32789 7.35515 6.86077
#
# Compressibility (1/GPa) = 0.02382378
#
# Stress axis : x y z
#
# Youngs Moduli (GPa) = 90.15743 66.45761 26.54061
#
# Poissons Ratio (x) = 0.26549 0.16743
# Poissons Ratio (y) = 0.36017 0.25726
# Poissons Ratio (z) = 0.56876 0.64418
#
# Static dielectric constant tensor:
#      x y z
#    x 3.334370 0.000000 0.000000 
#    y 0.000000 2.899390 0.000000 
#    z 0.000000 0.000000 3.251540 
# 
# 
# High freq. dielectric constant tensor:
#      x y z
#    x 1.638220 0.000000 0.000000 
#    y 0.000000 1.595750 0.000000 
#    z 0.000000 0.000000 1.617690 
# 
# From -- ./inp_files/31237.got.cif
#   From: 2010.03.12/outbox.cif.g09.slc.cpg/sg65_16_cif.got.tgz:31237.got - 2010.04.10 20:52:16.
