data_PCOD8275203
_publ_section_title
;
Structure prediction by ZEFSAII (Michael W. Deem and Ramdas Pophale) SiO2 
 PCOD8275203
Probable space group: C M M M
;
_chemical_formula_sum "Si O2"
_cell_formula_units_Z 52
_cell_length_a 30.000000
_cell_length_b 9.000000
_cell_length_c 21.000000
_cell_angle_alpha 90.000000
_cell_angle_beta 90.000000
_cell_angle_gamma 90.000000
_cell_volume 5670.000000
_symmetry_space_group_name_H-M "C M M M"
_symmetry_group_IT_number 65
_symmetry_cell_setting 'orthorhombic'
loop_
_space_group_symop_operation_xyz
x,y,z
-x,-y,z
x,-y,-z
-x,y,-z
-x,-y,-z
x,y,-z
-x,y,z
x,-y,z
1/2+x,1/2+y,z
1/2-x,1/2-y,z
1/2+x,1/2-y,-z
1/2-x,1/2+y,-z
1/2-x,1/2-y,-z
1/2+x,1/2+y,-z
1/2-x,1/2+y,z
1/2+x,1/2-y,z
loop_
_atom_site_type_symbol
_atom_site_label
_atom_site_fract_x
_atom_site_fract_y
_atom_site_fract_z
Si Si1 0.296452 0.325489 0.925286
Si Si2 0.050841 0.825529 0.784643
Si Si3 0.050631 0.324107 0.000000
Si Si4 0.887539 0.322876 0.115416
Si Si5 0.793527 0.332572 0.424042
Si Si6 0.550537 0.168244 0.346601
Si Si7 0.119780 0.833178 0.575289
O O1 0.294614 0.500000 0.908959
O O2 0.250000 0.250000 0.902259
O O3 0.338763 0.251248 0.890257
O O4 0.302838 0.296980 0.000000
O O5 0.087984 0.731200 0.821280
O O6 0.057312 0.778473 0.712124
O O7 0.000000 0.786933 0.806894
O O8 0.060220 0.000000 0.792440
O O9 0.078892 0.268240 0.939802
O O10 0.046863 0.500000 0.000000
O O11 0.000000 0.256827 0.000000
O O12 0.881257 0.500000 0.115280
O O13 0.793364 0.335112 0.500000
O O14 0.794799 0.500000 0.397081
O O15 0.750000 0.250000 0.397508
O O16 0.835481 0.241606 0.397244
O O17 0.500000 0.169771 0.370318
O O18 0.578679 0.231174 0.404955
O O19 0.565126 0.000000 0.328833
O O20 0.121506 0.837545 0.500000
O O21 0.115670 0.000000 0.602842
#
# Coordination Sequence:
#
# PCOD8275203 Si02
#       7
#    16  16   8  16  16  16  16
#     4  10  20  34  53  77 108 142 181 224 269 318
#     4  10  21  37  56  78 105 139 179 221 265 316
#     4   9  18  30  46  73 108 141 172 211 258 307
#     4  11  20  33  54  79 109 142 179 219 266 316
#     4   9  16  27  45  70 101 135 170 208 251 302
#     4  10  21  37  56  77 102 136 179 223 266 315
#     4  10  20  33  51  77 108 140 174 215 266 320
#
# _framework density 9.1710759999999993
#
# number of rings (size 3 to 8) (size 9 to 14) (size 15 to 20)
#    0.000    2.077    0.769    3.231    0.000    6.154 
#    0.000    1.538    0.000    2.769    0.000    6.462 
#    0.000    0.000    0.000    0.000    0.000    0.000 
#
# Total GULP energy -644760.691945 kJ/mol
# GULP energy per Si atom -12399.244076 kJ/mol
# Density = 0.915020 g / cm^3
# Si number density = 9.171076 Si / 1000 Ang^3
#
#
#
# Elastic Constant Matrix: (Units=GPa)
#
#
# Indices 1 2 3 4 5 6 
#
# 1 150.9169 66.0357 32.3519 0.0000 0.0000 0.0000
# 2 66.0357 123.3066 23.6718 0.0000 0.0000 0.0000
# 3 32.3519 23.6718 20.5463 0.0000 0.0000 0.0000
# 4 0.0000 0.0000 0.0000 26.3704 0.0000 0.0000
# 5 0.0000 0.0000 0.0000 0.0000 14.5871 0.0000
# 6 0.0000 0.0000 0.0000 0.0000 0.0000 39.8194
#
#
#
# Elastic Compliance Matrix: (Units=1/GPa)
#
#
# Indices 1 2 3 4 5 6 
#
# 1 0.010946 -0.003278 -0.013458 0.000000 0.000000 0.000000
# 2 -0.003278 0.011395 -0.007966 0.000000 0.000000 0.000000
# 3 -0.013458 -0.007966 0.079039 0.000000 0.000000 0.000000
# 4 0.000000 0.000000 0.000000 0.037921 0.000000 0.000000
# 5 0.000000 0.000000 0.000000 0.000000 0.068554 0.000000
# 6 0.000000 0.000000 0.000000 0.000000 0.000000 0.025113
#
#
# Mechanical properties :
#
#
# Convention : Reuss Voigt Hill
#
# Bulk Modulus (GPa) = 19.24010 59.87651 39.55830
# Shear Modulus (GPa) = 16.68350 27.66940 22.17645
#
# Velocity S-wave (km/s) = 3.01918 3.88817 3.48090
# Velocity P-wave (km/s) = 4.76091 7.27133 6.14567
#
# Compressibility (1/GPa) = 0.05197478
#
# Stress axis : x y z
#
# Youngs Moduli (GPa) = 91.36161 87.75909 12.65197
#
# Poissons Ratio (x) = 0.28769 0.17027
# Poissons Ratio (y) = 0.29950 0.10079
# Poissons Ratio (z) = 1.22952 0.69912
#
# Static dielectric constant tensor:
#      x y z
#    x 3.608390 0.000000 0.000000 
#    y 0.000000 3.566160 0.000000 
#    z 0.000000 0.000000 2.935950 
# 
# 
# High freq. dielectric constant tensor:
#      x y z
#    x 1.728400 0.000000 0.000000 
#    y 0.000000 1.729240 0.000000 
#    z 0.000000 0.000000 1.667530 
# 
# From -- ./inp_files/66424.got.cif
#   From: 2010.03.12/outbox.ucp.g09.slc.cvg/sg65_34_cif.got.tgz:66424.got - 2010.05.04 19:44:54.
