data_PCOD8275011
_publ_section_title
;
Structure prediction by ZEFSAII (Michael W. Deem and Ramdas Pophale) SiO2 
 PCOD8275011
Probable space group: C M M M
;
_chemical_formula_sum "Si O2"
_cell_formula_units_Z 96
_cell_length_a 19.983894
_cell_length_b 9.432777
_cell_length_c 30.411302
_cell_angle_alpha 90.000000
_cell_angle_beta 90.000000
_cell_angle_gamma 90.000000
_cell_volume 5732.640385
_symmetry_space_group_name_H-M "C M M M"
_symmetry_group_IT_number 65
_symmetry_cell_setting 'orthorhombic'
loop_
_space_group_symop_operation_xyz
x,y,z
-x,-y,z
x,-y,-z
-x,y,-z
-x,-y,-z
x,y,-z
-x,y,z
x,-y,z
1/2+x,1/2+y,z
1/2-x,1/2-y,z
1/2+x,1/2-y,-z
1/2-x,1/2+y,-z
1/2-x,1/2-y,-z
1/2+x,1/2+y,-z
1/2-x,1/2+y,z
1/2+x,1/2-y,z
loop_
_atom_site_type_symbol
_atom_site_label
_atom_site_fract_x
_atom_site_fract_y
_atom_site_fract_z
Si Si1 0.420387 0.658010 0.214913
Si Si2 0.425890 0.331444 0.117900
Si Si3 0.576774 0.664527 0.379139
Si Si4 0.079619 0.340533 0.704815
Si Si5 0.316018 0.665313 0.050348
Si Si6 0.314380 0.664572 0.550156
O O1 0.500000 0.651117 0.217814
O O2 0.391312 0.500000 0.223136
O O3 0.400109 0.715049 0.166403
O O4 0.391006 0.763572 0.251794
O O5 0.500000 0.268550 0.108459
O O6 0.430015 0.500000 0.116616
O O7 0.375585 0.274768 0.080751
O O8 0.500000 0.701307 0.390807
O O9 0.584207 0.500000 0.366400
O O10 0.603381 0.755597 0.338134
O O11 0.621019 0.705632 0.421227
O O12 0.108273 0.500000 0.702914
O O13 0.000000 0.341682 0.706958
O O14 0.302421 0.500000 0.058907
O O15 0.250000 0.750000 0.063396
O O16 0.336670 0.693750 0.000000
O O17 0.331487 0.705910 0.500000
O O18 0.296876 0.500000 0.554720
O O19 0.250000 0.750000 0.567296
#
# Coordination Sequence:
#
# PCOD8275011 Si02
#       6
#    16  16  16  16  16  16
#     4   8  13  23  40  60  83 111 142 177 217 260
#     4   8  14  25  43  67  89 110 143 185 221 252
#     4   9  17  29  46  68  92 118 149 183 218 256
#     4   9  16  25  39  62  91 118 144 177 217 260
#     4   9  17  29  45  64  87 116 147 178 215 261
#     4   9  18  32  49  68  90 118 150 182 218 261
#
# _framework density 16.746210000000001
#
# number of rings (size 3 to 8) (size 9 to 14) (size 15 to 20)
#    0.000    3.333    0.000    1.500    0.000    3.333 
#    0.000    4.167    0.000    2.500    0.000    9.333 
#    0.000    0.000    0.000    0.000    0.000    0.000 
#
# Total GULP energy -595019.987519 kJ/mol
# GULP energy per Si atom -12396.249740 kJ/mol
# Density = 1.670809 g / cm^3
# Si number density = 16.746210 Si / 1000 Ang^3
#
#
#
# Elastic Constant Matrix: (Units=GPa)
#
#
# Indices 1 2 3 4 5 6 
#
# 1 75.4375 37.3913 70.7319 0.0000 0.0000 0.0000
# 2 37.3913 65.2614 56.2284 0.0000 0.0000 0.0000
# 3 70.7319 56.2284 134.9183 0.0000 0.0000 0.0000
# 4 0.0000 0.0000 0.0000 18.1710 0.0000 0.0000
# 5 0.0000 0.0000 0.0000 0.0000 7.2834 0.0000
# 6 0.0000 0.0000 0.0000 0.0000 0.0000 18.9963
#
#
#
# Elastic Compliance Matrix: (Units=1/GPa)
#
#
# Indices 1 2 3 4 5 6 
#
# 1 0.027131 -0.005133 -0.012084 0.000000 0.000000 0.000000
# 2 -0.005133 0.024879 -0.007678 0.000000 0.000000 0.000000
# 3 -0.012084 -0.007678 0.016947 0.000000 0.000000 0.000000
# 4 0.000000 0.000000 0.000000 0.055033 0.000000 0.000000
# 5 0.000000 0.000000 0.000000 0.000000 0.137299 0.000000
# 6 0.000000 0.000000 0.000000 0.000000 0.000000 0.052642
#
#
# Mechanical properties :
#
#
# Convention : Reuss Voigt Hill
#
# Bulk Modulus (GPa) = 52.17303 67.14671 59.65987
# Shear Modulus (GPa) = 13.50959 16.30785 14.90872
#
# Velocity S-wave (km/s) = 2.84337 3.12400 2.98698
# Velocity P-wave (km/s) = 6.48093 7.29357 6.89923
#
# Compressibility (1/GPa) = 0.01916699
#
# Stress axis : x y z
#
# Youngs Moduli (GPa) = 36.85875 40.19520 59.00794
#
# Poissons Ratio (x) = 0.20631 0.71307
# Poissons Ratio (y) = 0.18918 0.45303
# Poissons Ratio (z) = 0.44541 0.30860
#
# Static dielectric constant tensor:
#      x y z
#    x 2.930730 0.000000 0.000000 
#    y 0.000000 3.100850 0.000000 
#    z 0.000000 0.000000 3.378340 
# 
# 
# High freq. dielectric constant tensor:
#      x y z
#    x 1.604740 0.000000 0.000000 
#    y 0.000000 1.628330 0.000000 
#    z 0.000000 0.000000 1.655320 
# 
# From -- ./inp_files/75683.got.cif
#   From: 2010.03.12/outbox.cif.g09.slc.cpg/sg65_38_cif.got.tgz:75683.got - 2010.04.10 20:52:16.
