data_PCOD8275771
_publ_section_title
;
Structure prediction by ZEFSAII (Michael W. Deem and Ramdas Pophale) SiO2 
 PCOD8275771
Probable space group: C C C M
;
_chemical_formula_sum "Si O2"
_cell_formula_units_Z 116
_cell_length_a 26.532554
_cell_length_b 26.918993
_cell_length_c 9.296707
_cell_angle_alpha 90.000000
_cell_angle_beta 90.000000
_cell_angle_gamma 90.000000
_cell_volume 6639.983651
_symmetry_space_group_name_H-M "C C C M"
_symmetry_group_IT_number 66
_symmetry_cell_setting 'orthorhombic'
loop_
_space_group_symop_operation_xyz
x,y,z
-x,-y,z
x,-y,1/2-z
-x,y,1/2-z
-x,-y,-z
x,y,-z
-x,y,1/2+z
x,-y,1/2+z
1/2+x,1/2+y,z
1/2-x,1/2-y,z
1/2+x,1/2-y,1/2-z
1/2-x,1/2+y,1/2-z
1/2-x,1/2-y,-z
1/2+x,1/2+y,-z
1/2-x,1/2+y,1/2+z
1/2+x,1/2-y,1/2+z
loop_
_atom_site_type_symbol
_atom_site_label
_atom_site_fract_x
_atom_site_fract_y
_atom_site_fract_z
Si Si1 0.250949 0.640233 0.335733
Si Si2 0.345202 0.695429 0.662450
Si Si3 0.315964 0.210956 0.663274
Si Si4 0.500000 0.000000 0.750000
Si Si5 0.546459 0.276760 0.332367
Si Si6 0.074088 0.322509 0.334086
Si Si7 0.925599 0.417792 0.661374
Si Si8 0.814467 0.549266 0.831072
O O1 0.233789 0.646704 0.500000
O O2 0.312232 0.644599 0.319568
O O3 0.229084 0.686233 0.248888
O O4 0.227945 0.588721 0.279199
O O5 0.338224 0.716304 0.500000
O O6 0.325247 0.734852 0.775136
O O7 0.404895 0.687574 0.690177
O O8 0.298757 0.217212 0.500000
O O9 0.365541 0.177002 0.676275
O O10 0.463761 0.964452 0.656731
O O11 0.500000 0.303314 0.250000
O O12 0.534097 0.269193 0.500000
O O13 0.553036 0.222933 0.258929
O O14 0.055912 0.318303 0.500000
O O15 0.054321 0.374342 0.266734
O O16 0.921311 0.396297 0.500000
O O17 0.870487 0.434495 0.716290
O O18 0.798535 0.500000 0.750000
O O19 0.812271 0.539247 0.000000
#
# Coordination Sequence:
#
# PCOD8275771 Si02
#       8
#    16  16  16   4  16  16  16  16
#     4  10  19  33  52  73  97 130 166 201 248 304
#     4   9  19  33  50  72 100 132 166 200 238 296
#     4  10  19  30  47  74 103 130 161 201 249 297
#     4  12  26  40  52  70  94 120 168 230 276 304
#     4  10  20  35  53  73 100 133 166 200 240 288
#     4  10  21  35  52  72  96 128 166 208 251 300
#     4  11  23  39  55  70  90 123 167 218 268 308
#     4  10  21  37  56  74  95 127 166 210 260 313
#
# _framework density 17.469923000000001
#
# number of rings (size 3 to 8) (size 9 to 14) (size 15 to 20)
#    0.000    1.931    2.069    1.862    0.966    6.069 
#    0.000    0.000    0.000    0.000    0.000    0.000 
#    0.000    0.552    0.000    6.897    0.000    0.000 
#
# Total GULP energy -718963.861567 kJ/mol
# GULP energy per Si atom -12395.928648 kJ/mol
# Density = 1.743016 g / cm^3
# Si number density = 17.469923 Si / 1000 Ang^3
#
#
#
# Elastic Constant Matrix: (Units=GPa)
#
#
# Indices 1 2 3 4 5 6 
#
# 1 119.2968 50.0784 40.3882 0.0000 0.0000 0.0000
# 2 50.0784 56.7147 23.6806 0.0000 0.0000 0.0000
# 3 40.3882 23.6806 78.4744 0.0000 0.0000 0.0000
# 4 0.0000 0.0000 0.0000 17.5287 0.0000 0.0000
# 5 0.0000 0.0000 0.0000 0.0000 20.6496 0.0000
# 6 0.0000 0.0000 0.0000 0.0000 0.0000 28.2821
#
#
#
# Elastic Compliance Matrix: (Units=1/GPa)
#
#
# Indices 1 2 3 4 5 6 
#
# 1 0.014379 -0.010991 -0.004084 0.000000 0.000000 0.000000
# 2 -0.010991 0.028576 -0.002966 0.000000 0.000000 0.000000
# 3 -0.004084 -0.002966 0.015740 0.000000 0.000000 0.000000
# 4 0.000000 0.000000 0.000000 0.057049 0.000000 0.000000
# 5 0.000000 0.000000 0.000000 0.000000 0.048427 0.000000
# 6 0.000000 0.000000 0.000000 0.000000 0.000000 0.035358
#
#
# Mechanical properties :
#
#
# Convention : Reuss Voigt Hill
#
# Bulk Modulus (GPa) = 44.22382 53.64224 48.93303
# Shear Modulus (GPa) = 20.56355 22.64799 21.60577
#
# Velocity S-wave (km/s) = 3.43459 3.60446 3.52055
# Velocity P-wave (km/s) = 6.41075 6.93505 6.67805
#
# Compressibility (1/GPa) = 0.02261225
#
# Stress axis : x y z
#
# Youngs Moduli (GPa) = 69.54638 34.99460 63.53324
#
# Poissons Ratio (x) = 0.38464 0.25944
# Poissons Ratio (y) = 0.76441 0.18845
# Poissons Ratio (z) = 0.28400 0.10380
#
# Static dielectric constant tensor:
#      x y z
#    x 3.589230 0.000000 0.000000 
#    y 0.000000 2.948000 0.000000 
#    z 0.000000 0.000000 3.355740 
# 
# 
# High freq. dielectric constant tensor:
#      x y z
#    x 1.680130 0.000000 0.000000 
#    y 0.000000 1.627360 0.000000 
#    z 0.000000 0.000000 1.683880 
# 
# From -- ./inp_files/9476.got.cif
#   From: 2010.03.12/outbox.cif.g09.slc.cpg/sg66_5_cif.got.tgz:9476.got - 2010.04.10 21:57:39.
