data_PCOD8275199
_publ_section_title
;
Structure prediction by ZEFSAII (Michael W. Deem and Ramdas Pophale) SiO2 
 PCOD8275199
Probable space group: C M M M
;
_chemical_formula_sum "Si O2"
_cell_formula_units_Z 36
_cell_length_a 9.000000
_cell_length_b 24.000000
_cell_length_c 18.000000
_cell_angle_alpha 90.000000
_cell_angle_beta 90.000000
_cell_angle_gamma 90.000000
_cell_volume 3888.000000
_symmetry_space_group_name_H-M "C M M M"
_symmetry_group_IT_number 65
_symmetry_cell_setting 'orthorhombic'
loop_
_space_group_symop_operation_xyz
x,y,z
-x,-y,z
x,-y,-z
-x,y,-z
-x,-y,-z
x,y,-z
-x,y,z
x,-y,z
1/2+x,1/2+y,z
1/2-x,1/2-y,z
1/2+x,1/2-y,-z
1/2-x,1/2+y,-z
1/2-x,1/2-y,-z
1/2+x,1/2+y,-z
1/2-x,1/2+y,z
1/2+x,1/2-y,z
loop_
_atom_site_type_symbol
_atom_site_label
_atom_site_fract_x
_atom_site_fract_y
_atom_site_fract_z
Si Si1 0.664329 0.438615 0.360397
Si Si2 0.675253 0.412026 0.805240
Si Si3 0.676718 0.000000 0.088484
Si Si4 0.177783 0.305663 0.742674
Si Si5 0.174390 0.339924 0.418764
O O1 0.500000 0.411835 0.369720
O O2 0.668623 0.500000 0.394203
O O3 0.702759 0.442953 0.272905
O O4 0.781259 0.404178 0.408628
O O5 0.500000 0.405285 0.822630
O O6 0.751405 0.445563 0.872794
O O7 0.755794 0.352666 0.796357
O O8 0.500000 0.000000 0.101709
O O9 0.713090 0.000000 0.000000
O O10 0.250000 0.250000 0.775001
O O11 0.234234 0.309705 0.655933
O O12 0.000000 0.305888 0.747587
O O13 0.236669 0.318192 0.500000
O O14 0.000000 0.334867 0.421046
#
# Coordination Sequence:
#
# PCOD8275199 Si02
#       5
#    16  16   8  16  16
#     4   9  17  30  47  69  97 132 175 221 268 318
#     4  10  19  35  57  81 110 144 182 224 264 315
#     4  11  23  37  57  89 124 151 174 207 257 316
#     4  10  20  35  55  79 105 141 186 232 278 325
#     4   9  19  33  46  66  98 135 178 227 277 326
#
# _framework density 9.2592590000000001
#
# number of rings (size 3 to 8) (size 9 to 14) (size 15 to 20)
#    0.000    2.333    1.111    1.667    0.000    4.444 
#    0.000    2.222    0.000    0.667    0.000    0.000 
#    0.000    0.000    0.000    0.000    0.000    0.000 
#
# Total GULP energy -446002.015307 kJ/mol
# GULP energy per Si atom -12388.944870 kJ/mol
# Density = 0.923818 g / cm^3
# Si number density = 9.259259 Si / 1000 Ang^3
#
#
#
# Elastic Constant Matrix: (Units=GPa)
#
#
# Indices 1 2 3 4 5 6 
#
# 1 78.0894 44.2006 37.2657 0.0000 0.0000 0.0000
# 2 44.2006 118.1167 39.5637 0.0000 0.0000 0.0000
# 3 37.2657 39.5637 104.8658 0.0000 0.0000 0.0000
# 4 0.0000 0.0000 0.0000 4.4482 0.0000 0.0000
# 5 0.0000 0.0000 0.0000 0.0000 26.7675 0.0000
# 6 0.0000 0.0000 0.0000 0.0000 0.0000 31.0167
#
#
#
# Elastic Compliance Matrix: (Units=1/GPa)
#
#
# Indices 1 2 3 4 5 6 
#
# 1 0.017844 -0.005212 -0.004375 0.000000 0.000000 0.000000
# 2 -0.005212 0.011213 -0.002378 0.000000 0.000000 0.000000
# 3 -0.004375 -0.002378 0.011988 0.000000 0.000000 0.000000
# 4 0.000000 0.000000 0.000000 0.224812 0.000000 0.000000
# 5 0.000000 0.000000 0.000000 0.000000 0.037359 0.000000
# 6 0.000000 0.000000 0.000000 0.000000 0.000000 0.032241
#
#
# Mechanical properties :
#
#
# Convention : Reuss Voigt Hill
#
# Bulk Modulus (GPa) = 58.42901 60.34800 59.38850
# Shear Modulus (GPa) = 13.69521 24.44926 19.07223
#
# Velocity S-wave (km/s) = 2.72240 3.63748 3.21269
# Velocity P-wave (km/s) = 6.44221 7.09227 6.77504
#
# Compressibility (1/GPa) = 0.01711479
#
# Stress axis : x y z
#
# Youngs Moduli (GPa) = 56.04243 89.18036 83.41745
#
# Poissons Ratio (x) = 0.46481 0.36492
# Poissons Ratio (y) = 0.29209 0.19840
# Poissons Ratio (z) = 0.24517 0.21210
#
# Static dielectric constant tensor:
#      x y z
#    x 3.443450 0.000000 0.000000 
#    y 0.000000 3.316360 0.000000 
#    z 0.000000 0.000000 3.493600 
# 
# 
# High freq. dielectric constant tensor:
#      x y z
#    x 1.725910 0.000000 0.000000 
#    y 0.000000 1.710770 0.000000 
#    z 0.000000 0.000000 1.699150 
# 
# From -- ./inp_files/36573.got.cif
#   From: 2010.03.12/outbox.ucp.g09.slc.cvg/sg65_19_cif.got.tgz:36573.got - 2010.05.04 19:44:54.
