data_PCOD8275623
_publ_section_title
;
Structure prediction by ZEFSAII (Michael W. Deem and Ramdas Pophale) SiO2 
 PCOD8275623
Probable space group: C C C M
;
_chemical_formula_sum "Si O2"
_cell_formula_units_Z 120
_cell_length_a 31.333967
_cell_length_b 13.111615
_cell_length_c 17.389873
_cell_angle_alpha 90.000000
_cell_angle_beta 90.000000
_cell_angle_gamma 90.000000
_cell_volume 7144.436498
_symmetry_space_group_name_H-M "C C C M"
_symmetry_group_IT_number 66
_symmetry_cell_setting 'orthorhombic'
loop_
_space_group_symop_operation_xyz
x,y,z
-x,-y,z
x,-y,1/2-z
-x,y,1/2-z
-x,-y,-z
x,y,-z
-x,y,1/2+z
x,-y,1/2+z
1/2+x,1/2+y,z
1/2-x,1/2-y,z
1/2+x,1/2-y,1/2-z
1/2-x,1/2+y,1/2-z
1/2-x,1/2-y,-z
1/2+x,1/2+y,-z
1/2-x,1/2+y,1/2+z
1/2+x,1/2-y,1/2+z
loop_
_atom_site_type_symbol
_atom_site_label
_atom_site_fract_x
_atom_site_fract_y
_atom_site_fract_z
Si Si1 0.703829 0.904532 0.700795
Si Si2 0.250000 0.250000 0.809700
Si Si3 0.341084 0.765408 0.910408
Si Si4 0.909855 0.095437 0.591108
Si Si5 0.919297 0.866747 0.590424
Si Si6 0.504580 0.379495 0.662956
Si Si7 0.221808 0.917492 0.085275
Si Si8 0.316527 0.369376 0.086564
O O1 0.719224 0.818336 0.758815
O O2 0.666884 0.863014 0.644075
O O3 0.742846 0.941615 0.648285
O O4 0.686139 0.000000 0.750000
O O5 0.281476 0.317494 0.860765
O O6 0.384067 0.712645 0.879353
O O7 0.301328 0.689210 0.898091
O O8 0.344758 0.797918 0.000000
O O9 0.916633 0.095788 0.500000
O O10 0.949403 0.155698 0.630101
O O11 0.865396 0.151577 0.613579
O O12 0.909479 0.979522 0.623549
O O13 0.916293 0.871239 0.500000
O O14 0.966013 0.827480 0.615826
O O15 0.500000 0.500000 0.653033
O O16 0.500000 0.343086 0.750000
O O17 0.187528 0.008100 0.088503
O O18 0.242856 0.912966 0.000000
O O19 0.309763 0.328224 0.000000
#
# Coordination Sequence:
#
# PCOD8275623 Si02
#       8
#    16   8  16  16  16  16  16  16
#     4  12  23  35  47  70  99 130 169 216 263 301
#     4  12  23  34  49  68  98 132 164 206 259 302
#     4  10  19  33  53  75  96 129 173 215 253 293
#     4   9  16  29  48  67  94 131 168 198 232 285
#     4   9  16  28  48  71  95 126 166 202 234 279
#     4   9  17  27  39  67 102 134 158 187 234 290
#     4  10  18  33  53  71  94 128 172 216 251 290
#     4  10  20  34  50  70  96 133 174 207 241 294
#
# _framework density 16.796285999999998
#
# number of rings (size 3 to 8) (size 9 to 14) (size 15 to 20)
#    0.000    2.000    4.000    1.000    0.000    3.733 
#    0.000    1.333    0.000    0.000    0.000    0.000 
#    0.000    4.800    0.000   14.933    0.000    0.267 
#
# Total GULP energy -743823.152390 kJ/mol
# GULP energy per Si atom -12397.052540 kJ/mol
# Density = 1.675806 g / cm^3
# Si number density = 16.796286 Si / 1000 Ang^3
#
#
#
# Elastic Constant Matrix: (Units=GPa)
#
#
# Indices 1 2 3 4 5 6 
#
# 1 101.2966 21.0948 36.2828 0.0000 0.0000 0.0000
# 2 21.0948 53.6063 29.1133 0.0000 0.0000 0.0000
# 3 36.2828 29.1133 63.5643 0.0000 0.0000 0.0000
# 4 0.0000 0.0000 0.0000 21.8878 0.0000 0.0000
# 5 0.0000 0.0000 0.0000 0.0000 4.6515 0.0000
# 6 0.0000 0.0000 0.0000 0.0000 0.0000 19.2626
#
#
#
# Elastic Compliance Matrix: (Units=1/GPa)
#
#
# Indices 1 2 3 4 5 6 
#
# 1 0.012486 -0.001388 -0.006491 0.000000 0.000000 0.000000
# 2 -0.001388 0.024985 -0.010651 0.000000 0.000000 0.000000
# 3 -0.006491 -0.010651 0.024316 0.000000 0.000000 0.000000
# 4 0.000000 0.000000 0.000000 0.045687 0.000000 0.000000
# 5 0.000000 0.000000 0.000000 0.000000 0.214986 0.000000
# 6 0.000000 0.000000 0.000000 0.000000 0.000000 0.051914
#
#
# Mechanical properties :
#
#
# Convention : Reuss Voigt Hill
#
# Bulk Modulus (GPa) = 40.44347 43.49432 41.96890
# Shear Modulus (GPa) = 11.91387 17.95880 14.93633
#
# Velocity S-wave (km/s) = 2.66619 3.27343 2.98529
# Velocity P-wave (km/s) = 5.79734 6.34339 6.07650
#
# Compressibility (1/GPa) = 0.02472587
#
# Stress axis : x y z
#
# Youngs Moduli (GPa) = 80.08858 40.02336 41.12533
#
# Poissons Ratio (x) = 0.05555 0.26696
# Poissons Ratio (y) = 0.11116 0.43804
# Poissons Ratio (z) = 0.51989 0.42630
#
# Static dielectric constant tensor:
#      x y z
#    x 3.338590 0.000000 0.000000 
#    y 0.000000 2.832320 0.000000 
#    z 0.000000 0.000000 3.218780 
# 
# 
# High freq. dielectric constant tensor:
#      x y z
#    x 1.645160 0.000000 0.000000 
#    y 0.000000 1.593870 0.000000 
#    z 0.000000 0.000000 1.655240 
# 
# From -- ./inp_files/34012.got.cif
#   From: 2010.03.12/outbox.cif.g09.slc.cpg/sg66_18_cif.got.tgz:34012.got - 2010.04.10 21:57:39.
