data_PCOD8275238
_publ_section_title
;
Structure prediction by ZEFSAII (Michael W. Deem and Ramdas Pophale) SiO2 
 PCOD8275238
Probable space group: C C C M
;
_chemical_formula_sum "Si O2"
_cell_formula_units_Z 56
_cell_length_a 19.605277
_cell_length_b 29.812474
_cell_length_c 5.325513
_cell_angle_alpha 90.000000
_cell_angle_beta 90.000000
_cell_angle_gamma 90.000000
_cell_volume 3112.665482
_symmetry_space_group_name_H-M "C C C M"
_symmetry_group_IT_number 66
_symmetry_cell_setting 'orthorhombic'
loop_
_space_group_symop_operation_xyz
x,y,z
-x,-y,z
x,-y,1/2-z
-x,y,1/2-z
-x,-y,-z
x,y,-z
-x,y,1/2+z
x,-y,1/2+z
1/2+x,1/2+y,z
1/2-x,1/2-y,z
1/2+x,1/2-y,1/2-z
1/2-x,1/2+y,1/2-z
1/2-x,1/2-y,-z
1/2+x,1/2+y,-z
1/2-x,1/2+y,1/2+z
1/2+x,1/2-y,1/2+z
loop_
_atom_site_type_symbol
_atom_site_label
_atom_site_fract_x
_atom_site_fract_y
_atom_site_fract_z
Si Si1 0.695250 0.380181 0.500000
Si Si2 0.761013 0.017525 0.500000
Si Si3 0.171811 0.733230 0.000000
Si Si4 0.087899 0.020571 0.500000
Si Si5 0.292958 0.796289 0.500000
Si Si6 0.460631 0.290085 0.500000
Si Si7 0.392424 0.620907 0.000000
O O1 0.730137 0.429016 0.500000
O O2 0.750382 0.341367 0.500000
O O3 0.651592 0.373261 0.250745
O O4 0.721338 0.000000 0.250000
O O5 0.831896 0.990049 0.500000
O O6 0.250000 0.750000 0.000000
O O7 0.160138 0.703439 0.749936
O O8 0.117391 0.773211 0.000000
O O9 0.072340 0.072888 0.500000
O O10 0.053658 0.000000 0.250000
O O11 0.250000 0.750000 0.500000
O O12 0.500000 0.273516 0.250000
O O13 0.454336 0.343816 0.500000
#
# Coordination Sequence:
#
# PCOD8275238 Si02
#       7
#     8   8   8   8   8   8   8
#     4  12  19  29  53  80 103 140 180 235 283 317
#     4  10  16  28  41  72 103 133 182 224 266 338
#     4  10  20  39  58  77 108 135 174 226 271 336
#     4  10  16  29  44  70  92 132 183 231 270 324
#     4  10  19  31  48  77 105 128 173 221 274 327
#     4  12  26  42  58  82 109 143 185 234 289 334
#     4  12  20  32  53  71 103 136 182 238 273 325
#
# _framework density 17.991012000000001
#
# number of rings (size 3 to 8) (size 9 to 14) (size 15 to 20)
#    0.000    1.143    5.714    6.000    0.000    0.000 
#    0.000    0.000    0.000    2.571    0.000    0.000 
#    0.000    0.000    0.000    0.000    0.000   50.000 
#
# Total GULP energy -346988.642672 kJ/mol
# GULP energy per Si atom -12392.451524 kJ/mol
# Density = 1.795006 g / cm^3
# Si number density = 17.991012 Si / 1000 Ang^3
#
#
#
# Elastic Constant Matrix: (Units=GPa)
#
#
# Indices 1 2 3 4 5 6 
#
# 1 55.2280 34.3174 28.1206 0.0000 0.0000 0.0000
# 2 34.3174 70.3235 28.1547 0.0000 0.0000 0.0000
# 3 28.1206 28.1547 213.2766 0.0000 0.0000 0.0000
# 4 0.0000 0.0000 0.0000 28.7456 0.0000 0.0000
# 5 0.0000 0.0000 0.0000 0.0000 10.3494 0.0000
# 6 0.0000 0.0000 0.0000 0.0000 0.0000 16.8583
#
#
#
# Elastic Compliance Matrix: (Units=1/GPa)
#
#
# Indices 1 2 3 4 5 6 
#
# 1 0.026697 -0.012267 -0.001901 0.000000 0.000000 0.000000
# 2 -0.012267 0.020650 -0.001109 0.000000 0.000000 0.000000
# 3 -0.001901 -0.001109 0.005086 0.000000 0.000000 0.000000
# 4 0.000000 0.000000 0.000000 0.034788 0.000000 0.000000
# 5 0.000000 0.000000 0.000000 0.000000 0.096624 0.000000
# 6 0.000000 0.000000 0.000000 0.000000 0.000000 0.059318
#
#
# Mechanical properties :
#
#
# Convention : Reuss Voigt Hill
#
# Bulk Modulus (GPa) = 45.70339 57.77926 51.74133
# Shear Modulus (GPa) = 17.79304 27.73968 22.76636
#
# Velocity S-wave (km/s) = 3.14824 3.93092 3.56115
# Velocity P-wave (km/s) = 6.21883 7.26555 6.76247
#
# Compressibility (1/GPa) = 0.02188021
#
# Stress axis : x y z
#
# Youngs Moduli (GPa) = 37.45754 48.42605 196.63000
#
# Poissons Ratio (x) = 0.59404 0.37372
# Poissons Ratio (y) = 0.45949 0.21799
# Poissons Ratio (z) = 0.07119 0.05369
#
# Static dielectric constant tensor:
#      x y z
#    x 2.739650 0.000000 0.000000 
#    y 0.000000 3.240120 0.000000 
#    z 0.000000 0.000000 4.830620 
# 
# 
# High freq. dielectric constant tensor:
#      x y z
#    x 1.620630 0.000000 0.000000 
#    y 0.000000 1.686410 0.000000 
#    z 0.000000 0.000000 1.747540 
# 
# From -- ./inp_files/699.got.cif
#   From: 2010.03.12/outbox.cif.g09.slc.cpg/sg66_1_cif.got.tgz:699.got - 2010.04.10 21:57:39.
