data_PCOD8275672
_publ_section_title
;
Structure prediction by ZEFSAII (Michael W. Deem and Ramdas Pophale) SiO2 
 PCOD8275672
Probable space group: C C C M
;
_chemical_formula_sum "Si O2"
_cell_formula_units_Z 64
_cell_length_a 12.437380
_cell_length_b 15.567513
_cell_length_c 17.458318
_cell_angle_alpha 90.000000
_cell_angle_beta 90.000000
_cell_angle_gamma 90.000000
_cell_volume 3380.263379
_symmetry_space_group_name_H-M "C C C M"
_symmetry_group_IT_number 66
_symmetry_cell_setting 'orthorhombic'
loop_
_space_group_symop_operation_xyz
x,y,z
-x,-y,z
x,-y,1/2-z
-x,y,1/2-z
-x,-y,-z
x,y,-z
-x,y,1/2+z
x,-y,1/2+z
1/2+x,1/2+y,z
1/2-x,1/2-y,z
1/2+x,1/2-y,1/2-z
1/2-x,1/2+y,1/2-z
1/2-x,1/2-y,-z
1/2+x,1/2+y,-z
1/2-x,1/2+y,1/2+z
1/2+x,1/2-y,1/2+z
loop_
_atom_site_type_symbol
_atom_site_label
_atom_site_fract_x
_atom_site_fract_y
_atom_site_fract_z
Si Si1 0.670435 0.021976 0.090516
Si Si2 0.362798 0.297297 0.087601
Si Si3 0.115887 0.976602 0.338436
Si Si4 0.476314 0.868870 0.409405
O O1 0.595572 0.102131 0.117344
O O2 0.789325 0.033064 0.124360
O O3 0.614587 0.934616 0.122156
O O4 0.681841 0.019223 0.000000
O O5 0.250000 0.250000 0.091868
O O6 0.364148 0.376188 0.145930
O O7 0.453163 0.228893 0.115919
O O8 0.383614 0.328618 0.000000
O O9 0.115530 0.000000 0.250000
O O10 0.000000 0.000000 0.374919
O O11 0.468612 0.876071 0.500000
#
# Coordination Sequence:
#
# PCOD8275672 Si02
#       4
#    16  16  16  16
#     4   9  16  32  59  88 115 139 175 236 292 334
#     4  10  18  34  63  90 108 143 197 239 275 337
#     4  11  24  39  51  75 119 162 196 227 280 342
#     4   8  15  29  57  93 114 129 172 240 292 323
#
# _framework density 18.933436
#
# number of rings (size 3 to 8) (size 9 to 14) (size 15 to 20)
#    0.000    2.500    2.500    2.250    0.000    2.000 
#    0.000    8.750    0.000    4.500    0.000    0.000 
#    0.000    0.000    0.000    0.000    0.000    0.000 
#
# Total GULP energy -396558.180310 kJ/mol
# GULP energy per Si atom -12392.443135 kJ/mol
# Density = 1.889034 g / cm^3
# Si number density = 18.933436 Si / 1000 Ang^3
#
#
#
# Elastic Constant Matrix: (Units=GPa)
#
#
# Indices 1 2 3 4 5 6 
#
# 1 160.3143 47.1548 35.2859 0.0000 0.0000 0.0000
# 2 47.1548 112.4357 44.9489 0.0000 0.0000 0.0000
# 3 35.2859 44.9489 50.2860 0.0000 0.0000 0.0000
# 4 0.0000 0.0000 0.0000 23.9279 0.0000 0.0000
# 5 0.0000 0.0000 0.0000 0.0000 7.5003 0.0000
# 6 0.0000 0.0000 0.0000 0.0000 0.0000 32.0159
#
#
#
# Elastic Compliance Matrix: (Units=1/GPa)
#
#
# Indices 1 2 3 4 5 6 
#
# 1 0.007565 -0.001635 -0.003847 0.000000 0.000000 0.000000
# 2 -0.001635 0.014193 -0.011539 0.000000 0.000000 0.000000
# 3 -0.003847 -0.011539 0.032900 0.000000 0.000000 0.000000
# 4 0.000000 0.000000 0.000000 0.041792 0.000000 0.000000
# 5 0.000000 0.000000 0.000000 0.000000 0.133328 0.000000
# 6 0.000000 0.000000 0.000000 0.000000 0.000000 0.031234
#
#
# Mechanical properties :
#
#
# Convention : Reuss Voigt Hill
#
# Bulk Modulus (GPa) = 48.50653 64.20170 56.35411
# Shear Modulus (GPa) = 16.56025 25.73192 21.14609
#
# Velocity S-wave (km/s) = 2.96067 3.69056 3.34558
# Velocity P-wave (km/s) = 6.11249 7.22102 6.68975
#
# Compressibility (1/GPa) = 0.02061578
#
# Stress axis : x y z
#
# Youngs Moduli (GPa) = 132.18007 70.45902 30.39476
#
# Poissons Ratio (x) = 0.11519 0.11694
# Poissons Ratio (y) = 0.21609 0.35073
# Poissons Ratio (z) = 0.50855 0.81304
#
# Static dielectric constant tensor:
#      x y z
#    x 4.021940 0.000000 0.000000 
#    y 0.000000 3.830540 0.000000 
#    z 0.000000 0.000000 3.021940 
# 
# 
# High freq. dielectric constant tensor:
#      x y z
#    x 1.747180 0.000000 0.000000 
#    y 0.000000 1.725860 0.000000 
#    z 0.000000 0.000000 1.691250 
# 
# From -- ./inp_files/29699.got.cif
#   From: 2010.03.12/outbox.cif.g09.slc.cpg/sg66_15_cif.got.tgz:29699.got - 2010.04.10 21:57:39.
