data_PCOD8275542
_publ_section_title
;
Structure prediction by ZEFSAII (Michael W. Deem and Ramdas Pophale) SiO2 
 PCOD8275542
Probable space group: C C C M
;
_chemical_formula_sum "Si O2"
_cell_formula_units_Z 80
_cell_length_a 8.917275
_cell_length_b 20.754425
_cell_length_c 26.711346
_cell_angle_alpha 90.000000
_cell_angle_beta 90.000000
_cell_angle_gamma 90.000000
_cell_volume 4943.546673
_symmetry_space_group_name_H-M "C C C M"
_symmetry_group_IT_number 66
_symmetry_cell_setting 'orthorhombic'
loop_
_space_group_symop_operation_xyz
x,y,z
-x,-y,z
x,-y,1/2-z
-x,y,1/2-z
-x,-y,-z
x,y,-z
-x,y,1/2+z
x,-y,1/2+z
1/2+x,1/2+y,z
1/2-x,1/2-y,z
1/2+x,1/2-y,1/2-z
1/2-x,1/2+y,1/2-z
1/2-x,1/2-y,-z
1/2+x,1/2+y,-z
1/2-x,1/2+y,1/2+z
1/2+x,1/2-y,1/2+z
loop_
_atom_site_type_symbol
_atom_site_label
_atom_site_fract_x
_atom_site_fract_y
_atom_site_fract_z
Si Si1 0.091310 0.399897 0.643975
Si Si2 0.326332 0.509819 0.622692
Si Si3 0.407687 0.934486 0.444542
Si Si4 0.822586 0.439579 0.286446
Si Si5 0.343878 0.813499 0.226815
O O1 0.235290 0.443503 0.631278
O O2 0.145095 0.332338 0.667731
O O3 0.994508 0.386561 0.593610
O O4 0.985428 0.434025 0.686163
O O5 0.500000 0.500000 0.610700
O O6 0.258215 0.549323 0.575756
O O7 0.308814 0.552112 0.672804
O O8 0.396507 0.903417 0.500000
O O9 0.500000 0.000000 0.446022
O O10 0.826376 0.500000 0.250000
O O11 0.778052 0.375111 0.256487
O O12 0.500000 0.793449 0.250000
O O13 0.250000 0.750000 0.233362
#
# Coordination Sequence:
#
# PCOD8275542 Si02
#       5
#    16  16  16  16  16
#     4   9  18  30  50  66  92 125 168 194 227 290
#     4  10  19  26  41  74  99 120 152 200 245 281
#     4   8  15  29  48  67  89 121 161 199 240 292
#     4  10  18  31  51  65  89 134 170 189 221 284
#     4  10  21  32  47  66  96 131 162 196 234 279
#
# _framework density 16.182713
#
# number of rings (size 3 to 8) (size 9 to 14) (size 15 to 20)
#    0.000    2.600    2.000    1.800    5.600    2.400 
#    0.000    0.000    0.000    0.600    0.000    0.000 
#    0.000   66.400    0.000    0.000    0.000    0.000 
#
# Total GULP energy -495645.962796 kJ/mol
# GULP energy per Si atom -12391.149070 kJ/mol
# Density = 1.614588 g / cm^3
# Si number density = 16.182713 Si / 1000 Ang^3
#
#
#
# Elastic Constant Matrix: (Units=GPa)
#
#
# Indices 1 2 3 4 5 6 
#
# 1 100.3253 35.8880 45.5646 0.0000 0.0000 0.0000
# 2 35.8880 86.3805 46.6410 0.0000 0.0000 0.0000
# 3 45.5646 46.6410 129.2193 0.0000 0.0000 0.0000
# 4 0.0000 0.0000 0.0000 10.0503 0.0000 0.0000
# 5 0.0000 0.0000 0.0000 0.0000 12.5846 0.0000
# 6 0.0000 0.0000 0.0000 0.0000 0.0000 15.9122
#
#
#
# Elastic Compliance Matrix: (Units=1/GPa)
#
#
# Indices 1 2 3 4 5 6 
#
# 1 0.012687 -0.003547 -0.003193 0.000000 0.000000 0.000000
# 2 -0.003547 0.015370 -0.004297 0.000000 0.000000 0.000000
# 3 -0.003193 -0.004297 0.010416 0.000000 0.000000 0.000000
# 4 0.000000 0.000000 0.000000 0.099500 0.000000 0.000000
# 5 0.000000 0.000000 0.000000 0.000000 0.079462 0.000000
# 6 0.000000 0.000000 0.000000 0.000000 0.000000 0.062845
#
#
# Mechanical properties :
#
#
# Convention : Reuss Voigt Hill
#
# Bulk Modulus (GPa) = 60.98130 63.56803 62.27466
# Shear Modulus (GPa) = 16.24324 20.23152 18.23738
#
# Velocity S-wave (km/s) = 3.17162 3.53964 3.36067
# Velocity P-wave (km/s) = 7.15381 7.48813 7.32288
#
# Compressibility (1/GPa) = 0.01639847
#
# Stress axis : x y z
#
# Youngs Moduli (GPa) = 78.82359 65.05976 96.00711
#
# Poissons Ratio (x) = 0.23074 0.30658
# Poissons Ratio (y) = 0.27955 0.41257
# Poissons Ratio (z) = 0.25171 0.27958
#
# Static dielectric constant tensor:
#      x y z
#    x 2.901080 0.000000 0.000000 
#    y 0.000000 2.758920 0.000000 
#    z 0.000000 0.000000 3.563920 
# 
# 
# High freq. dielectric constant tensor:
#      x y z
#    x 1.609280 0.000000 0.000000 
#    y 0.000000 1.579050 0.000000 
#    z 0.000000 0.000000 1.627980 
# 
# From -- ./inp_files/68229.got.cif
#   From: 2010.03.12/outbox.cif.g09.slc.cpg/sg66_35_cif.got.tgz:68229.got - 2010.04.10 21:57:39.
