data_PCOD8275176
_publ_section_title
;
Structure prediction by ZEFSAII (Michael W. Deem and Ramdas Pophale) SiO2 
 PCOD8275176
Probable space group: C M M M
;
_chemical_formula_sum "Si O2"
_cell_formula_units_Z 64
_cell_length_a 19.407611
_cell_length_b 7.660070
_cell_length_c 22.297086
_cell_angle_alpha 90.000000
_cell_angle_beta 90.000000
_cell_angle_gamma 90.000000
_cell_volume 3314.766385
_symmetry_space_group_name_H-M "C M M M"
_symmetry_group_IT_number 65
_symmetry_cell_setting 'orthorhombic'
loop_
_space_group_symop_operation_xyz
x,y,z
-x,-y,z
x,-y,-z
-x,y,-z
-x,-y,-z
x,y,-z
-x,y,z
x,-y,z
1/2+x,1/2+y,z
1/2-x,1/2-y,z
1/2+x,1/2-y,-z
1/2-x,1/2+y,-z
1/2-x,1/2-y,-z
1/2+x,1/2+y,-z
1/2-x,1/2+y,z
1/2+x,1/2-y,z
loop_
_atom_site_type_symbol
_atom_site_label
_atom_site_fract_x
_atom_site_fract_y
_atom_site_fract_z
Si Si1 0.080665 0.701291 0.844638
Si Si2 0.081508 0.000000 0.066578
Si Si3 0.674174 0.204054 0.262570
Si Si4 0.422108 0.208624 0.500000
Si Si5 0.173676 0.294714 0.395178
O O1 0.100006 0.500000 0.859779
O O2 0.118623 0.772950 0.785148
O O3 0.000000 0.721504 0.832224
O O4 0.105276 0.823778 0.899369
O O5 0.000000 0.000000 0.061450
O O6 0.114580 0.000000 0.000000
O O7 0.750000 0.250000 0.238444
O O8 0.662185 0.288596 0.328679
O O9 0.665147 0.000000 0.268777
O O10 0.500000 0.280965 0.500000
O O11 0.382690 0.282180 0.441214
O O12 0.421393 0.000000 0.500000
O O13 0.164640 0.500000 0.391902
O O14 0.250000 0.250000 0.418824
#
# Coordination Sequence:
#
# PCOD8275176 Si02
#       5
#    16   8  16   8  16
#     4   9  18  32  50  75 103 131 167 209 253 297
#     4   9  18  32  52  78 104 133 168 204 247 299
#     4   9  18  30  47  72  96 127 164 203 251 297
#     4   9  17  28  45  69  94 125 162 202 250 295
#     4   9  17  30  47  68  93 122 164 203 241 293
#
# _framework density 19.307545999999999
#
# number of rings (size 3 to 8) (size 9 to 14) (size 15 to 20)
#    0.000    3.000    0.000    0.375    1.750    1.500 
#    0.000    7.500    0.000    2.250    0.000    0.000 
#    0.000    0.000    0.000    0.000    0.000    0.000 
#
# Total GULP energy -396624.497936 kJ/mol
# GULP energy per Si atom -12394.515561 kJ/mol
# Density = 1.926360 g / cm^3
# Si number density = 19.307546 Si / 1000 Ang^3
#
#
#
# Elastic Constant Matrix: (Units=GPa)
#
#
# Indices 1 2 3 4 5 6 
#
# 1 105.9745 21.8071 85.9002 0.0000 0.0000 0.0000
# 2 21.8071 51.1981 43.5298 0.0000 0.0000 0.0000
# 3 85.9002 43.5298 168.7470 0.0000 0.0000 0.0000
# 4 0.0000 0.0000 0.0000 9.3498 0.0000 0.0000
# 5 0.0000 0.0000 0.0000 0.0000 31.0027 0.0000
# 6 0.0000 0.0000 0.0000 0.0000 0.0000 20.1671
#
#
#
# Elastic Compliance Matrix: (Units=1/GPa)
#
#
# Indices 1 2 3 4 5 6 
#
# 1 0.016066 0.000141 -0.008215 0.000000 0.000000 0.000000
# 2 0.000141 0.025021 -0.006526 0.000000 0.000000 0.000000
# 3 -0.008215 -0.006526 0.011791 0.000000 0.000000 0.000000
# 4 0.000000 0.000000 0.000000 0.106954 0.000000 0.000000
# 5 0.000000 0.000000 0.000000 0.000000 0.032255 0.000000
# 6 0.000000 0.000000 0.000000 0.000000 0.000000 0.049586
#
#
# Mechanical properties :
#
#
# Convention : Reuss Voigt Hill
#
# Bulk Modulus (GPa) = 42.23272 69.82154 56.02713
# Shear Modulus (GPa) = 17.93631 23.74943 20.84287
#
# Velocity S-wave (km/s) = 3.05122 3.51103 3.28917
# Velocity P-wave (km/s) = 5.85956 7.25794 6.59591
#
# Compressibility (1/GPa) = 0.02367832
#
# Stress axis : x y z
#
# Youngs Moduli (GPa) = 62.24416 39.96720 84.80913
#
# Poissons Ratio (x) = -0.00565 0.69668
# Poissons Ratio (y) = -0.00880 0.55348
# Poissons Ratio (z) = 0.51132 0.26083
#
# Static dielectric constant tensor:
#      x y z
#    x 3.391700 0.000000 0.000000 
#    y 0.000000 3.386250 0.000000 
#    z 0.000000 0.000000 4.084930 
# 
# 
# High freq. dielectric constant tensor:
#      x y z
#    x 1.728540 0.000000 0.000000 
#    y 0.000000 1.740270 0.000000 
#    z 0.000000 0.000000 1.751470 
# 
# From -- ./inp_files/55339.got.cif
#   From: 2010.03.12/outbox.cif.g09.slc.cpg/sg65_28_cif.got.tgz:55339.got - 2010.04.10 20:52:16.
