data_PCOD8275710
_publ_section_title
;
Structure prediction by ZEFSAII (Michael W. Deem and Ramdas Pophale) SiO2 
 PCOD8275710
Probable space group: C C C M
;
_chemical_formula_sum "Si O2"
_cell_formula_units_Z 96
_cell_length_a 27.914047
_cell_length_b 30.714962
_cell_length_c 8.921647
_cell_angle_alpha 90.000000
_cell_angle_beta 90.000000
_cell_angle_gamma 90.000000
_cell_volume 7649.231827
_symmetry_space_group_name_H-M "C C C M"
_symmetry_group_IT_number 66
_symmetry_cell_setting 'orthorhombic'
loop_
_space_group_symop_operation_xyz
x,y,z
-x,-y,z
x,-y,1/2-z
-x,y,1/2-z
-x,-y,-z
x,y,-z
-x,y,1/2+z
x,-y,1/2+z
1/2+x,1/2+y,z
1/2-x,1/2-y,z
1/2+x,1/2-y,1/2-z
1/2-x,1/2+y,1/2-z
1/2-x,1/2-y,-z
1/2+x,1/2+y,-z
1/2-x,1/2+y,1/2+z
1/2+x,1/2-y,1/2+z
loop_
_atom_site_type_symbol
_atom_site_label
_atom_site_fract_x
_atom_site_fract_y
_atom_site_fract_z
Si Si1 0.602534 0.620014 0.169596
Si Si2 0.949032 0.789443 0.825447
Si Si3 0.135865 0.750705 0.824744
Si Si4 0.225723 0.702918 0.831238
Si Si5 0.949587 0.045185 0.177651
Si Si6 0.690211 0.673217 0.170942
O O1 0.573460 0.663592 0.212291
O O2 0.589125 0.582097 0.284885
O O3 0.659923 0.628381 0.183267
O O4 0.589515 0.605794 0.000000
O O5 0.914319 0.750977 0.764214
O O6 0.000000 0.784994 0.750000
O O7 0.955197 0.782281 0.000000
O O8 0.169493 0.708680 0.785108
O O9 0.165391 0.793449 0.782713
O O10 0.124595 0.752010 0.000000
O O11 0.250000 0.750000 0.817256
O O12 0.254095 0.668829 0.723256
O O13 0.229254 0.685049 0.000000
O O14 0.000000 0.059325 0.250000
O O15 0.932028 0.000000 0.250000
O O16 0.955094 0.039957 0.000000
O O17 0.687921 0.690484 0.000000
#
# Coordination Sequence:
#
# PCOD8275710 Si02
#       6
#    16  16  16  16  16  16
#     4   9  18  30  40  53  70  85 105 132 164 202
#     4  10  19  28  38  51  67  87 110 138 169 201
#     4   9  16  25  35  47  65  87 109 133 160 192
#     4   8  14  23  34  48  66  86 106 129 157 190
#     4  11  21  32  45  56  67  84 105 132 165 202
#     4   9  16  24  36  52  68  85 104 129 159 193
#
# _framework density 12.550280000000001
#
# number of rings (size 3 to 8) (size 9 to 14) (size 15 to 20)
#    0.000    2.667    0.000    6.000    0.000    9.000 
#    0.000    0.000    0.000    0.000    0.000    0.000 
#    0.000    0.000    0.000    0.000    0.000    0.000 
#
# Total GULP energy -594743.897884 kJ/mol
# GULP energy per Si atom -12390.497873 kJ/mol
# Density = 1.252171 g / cm^3
# Si number density = 12.550280 Si / 1000 Ang^3
#
#
#
# Elastic Constant Matrix: (Units=GPa)
#
#
# Indices 1 2 3 4 5 6 
#
# 1 89.1727 39.2137 50.1656 0.0000 0.0000 0.0000
# 2 39.2137 30.0021 27.7581 0.0000 0.0000 0.0000
# 3 50.1656 27.7581 79.0106 0.0000 0.0000 0.0000
# 4 0.0000 0.0000 0.0000 14.2582 0.0000 0.0000
# 5 0.0000 0.0000 0.0000 0.0000 24.1007 0.0000
# 6 0.0000 0.0000 0.0000 0.0000 0.0000 15.7878
#
#
#
# Elastic Compliance Matrix: (Units=1/GPa)
#
#
# Indices 1 2 3 4 5 6 
#
# 1 0.029151 -0.031079 -0.007590 0.000000 0.000000 0.000000
# 2 -0.031079 0.082517 -0.009257 0.000000 0.000000 0.000000
# 3 -0.007590 -0.009257 0.020728 0.000000 0.000000 0.000000
# 4 0.000000 0.000000 0.000000 0.070135 0.000000 0.000000
# 5 0.000000 0.000000 0.000000 0.000000 0.041493 0.000000
# 6 0.000000 0.000000 0.000000 0.000000 0.000000 0.063340
#
#
# Mechanical properties :
#
#
# Convention : Reuss Voigt Hill
#
# Bulk Modulus (GPa) = 27.36462 48.05114 37.70788
# Shear Modulus (GPa) = 12.03666 16.23253 14.13459
#
# Velocity S-wave (km/s) = 3.10025 3.60029 3.35959
# Velocity P-wave (km/s) = 5.88785 7.46008 6.72010
#
# Compressibility (1/GPa) = 0.03654354
#
# Stress axis : x y z
#
# Youngs Moduli (GPa) = 34.30406 12.11868 48.24443
#
# Poissons Ratio (x) = 0.37664 0.36617
# Poissons Ratio (y) = 1.06614 0.44661
# Poissons Ratio (z) = 0.26036 0.11219
#
# Static dielectric constant tensor:
#      x y z
#    x 2.923390 0.000000 0.000000 
#    y 0.000000 2.257420 0.000000 
#    z 0.000000 0.000000 2.686840 
# 
# 
# High freq. dielectric constant tensor:
#      x y z
#    x 1.472210 0.000000 0.000000 
#    y 0.000000 1.411300 0.000000 
#    z 0.000000 0.000000 1.493940 
# 
# From -- ./inp_files/10655.got.cif
#   From: 2010.03.12/outbox.cif.g09.slc.cpg/sg66_6_cif.got.tgz:10655.got - 2010.04.10 21:57:39.
