data_PCOD8275967
_publ_section_title
;
Structure prediction by ZEFSAII (Michael W. Deem and Ramdas Pophale) SiO2 
 PCOD8275967
Probable space group: C C C M
;
_chemical_formula_sum "Si O2"
_cell_formula_units_Z 96
_cell_length_a 30.510833
_cell_length_b 19.579297
_cell_length_c 9.008035
_cell_angle_alpha 90.000000
_cell_angle_beta 90.000000
_cell_angle_gamma 90.000000
_cell_volume 5381.225903
_symmetry_space_group_name_H-M "C C C M"
_symmetry_group_IT_number 66
_symmetry_cell_setting 'orthorhombic'
loop_
_space_group_symop_operation_xyz
x,y,z
-x,-y,z
x,-y,1/2-z
-x,y,1/2-z
-x,-y,-z
x,y,-z
-x,y,1/2+z
x,-y,1/2+z
1/2+x,1/2+y,z
1/2-x,1/2-y,z
1/2+x,1/2-y,1/2-z
1/2-x,1/2+y,1/2-z
1/2-x,1/2-y,-z
1/2+x,1/2+y,-z
1/2-x,1/2+y,1/2+z
1/2+x,1/2-y,1/2+z
loop_
_atom_site_type_symbol
_atom_site_label
_atom_site_fract_x
_atom_site_fract_y
_atom_site_fract_z
Si Si1 0.546911 0.436839 0.826761
Si Si2 0.334808 0.933284 0.828239
Si Si3 0.734256 0.569594 0.324035
Si Si4 0.292069 0.705648 0.324611
Si Si5 0.954322 0.786426 0.328753
Si Si6 0.631909 0.212016 0.174307
O O1 0.573933 0.500000 0.750000
O O2 0.500000 0.435444 0.750000
O O3 0.566668 0.361678 0.795342
O O4 0.542971 0.452298 0.000000
O O5 0.284885 0.920110 0.778154
O O6 0.363362 0.867553 0.784910
O O7 0.354846 0.000000 0.750000
O O8 0.336686 0.949169 0.000000
O O9 0.716246 0.500000 0.250000
O O10 0.727147 0.566425 0.500000
O O11 0.707777 0.633044 0.257673
O O12 0.293016 0.693547 0.500000
O O13 0.250000 0.750000 0.276140
O O14 0.335254 0.744688 0.273586
O O15 0.965969 0.780862 0.500000
O O16 0.917603 0.731953 0.281811
O O17 0.000000 0.770534 0.250000
O O18 0.641766 0.225304 0.000000
#
# Coordination Sequence:
#
# PCOD8275967 Si02
#       6
#    16  16  16  16  16  16
#     4   9  15  25  43  68  93 122 157 200 245 291
#     4   9  18  31  51  76 102 132 171 214 258 310
#     4  10  19  33  53  76 105 143 180 217 262 313
#     4  11  22  34  51  78 109 139 174 218 261 311
#     4   9  19  34  53  75 102 133 173 218 264 314
#     4  10  20  36  55  77 104 140 178 214 264 322
#
# _framework density 17.839801000000001
#
# number of rings (size 3 to 8) (size 9 to 14) (size 15 to 20)
#    0.000    2.333    1.667    2.000    0.000    3.333 
#    0.000    0.833    0.000    2.500    0.000    3.500 
#    0.000    0.000    0.000    0.000    0.000    0.000 
#
# Total GULP energy -595021.177290 kJ/mol
# GULP energy per Si atom -12396.274527 kJ/mol
# Density = 1.779920 g / cm^3
# Si number density = 17.839801 Si / 1000 Ang^3
#
#
#
# Elastic Constant Matrix: (Units=GPa)
#
#
# Indices 1 2 3 4 5 6 
#
# 1 74.4482 53.1076 32.5729 0.0000 0.0000 0.0000
# 2 53.1076 147.2196 53.8574 0.0000 0.0000 0.0000
# 3 32.5729 53.8574 73.6588 0.0000 0.0000 0.0000
# 4 0.0000 0.0000 0.0000 31.4366 0.0000 0.0000
# 5 0.0000 0.0000 0.0000 0.0000 16.8205 0.0000
# 6 0.0000 0.0000 0.0000 0.0000 0.0000 25.2771
#
#
#
# Elastic Compliance Matrix: (Units=1/GPa)
#
#
# Indices 1 2 3 4 5 6 
#
# 1 0.019198 -0.005215 -0.004677 0.000000 0.000000 0.000000
# 2 -0.005215 0.010689 -0.005510 0.000000 0.000000 0.000000
# 3 -0.004677 -0.005510 0.019673 0.000000 0.000000 0.000000
# 4 0.000000 0.000000 0.000000 0.031810 0.000000 0.000000
# 5 0.000000 0.000000 0.000000 0.000000 0.059451 0.000000
# 6 0.000000 0.000000 0.000000 0.000000 0.000000 0.039561
#
#
# Mechanical properties :
#
#
# Convention : Reuss Voigt Hill
#
# Bulk Modulus (GPa) = 53.31098 63.82250 58.56674
# Shear Modulus (GPa) = 22.99501 25.09276 24.04388
#
# Velocity S-wave (km/s) = 3.59412 3.75448 3.67518
# Velocity P-wave (km/s) = 6.86816 7.39242 7.13511
#
# Compressibility (1/GPa) = 0.01875786
#
# Stress axis : x y z
#
# Youngs Moduli (GPa) = 52.08804 93.55137 50.83113
#
# Poissons Ratio (x) = 0.48783 0.23774
# Poissons Ratio (y) = 0.27162 0.28007
# Poissons Ratio (z) = 0.24362 0.51545
#
# Static dielectric constant tensor:
#      x y z
#    x 3.006550 0.000000 0.000000 
#    y 0.000000 4.264250 0.000000 
#    z 0.000000 0.000000 3.320180 
# 
# 
# High freq. dielectric constant tensor:
#      x y z
#    x 1.647860 0.000000 0.000000 
#    y 0.000000 1.704150 0.000000 
#    z 0.000000 0.000000 1.696020 
# 
# From -- ./inp_files/7991.got.cif
#   From: 2010.03.12/outbox.cif.g09.slc.cpg/sg66_4_cif.got.tgz:7991.got - 2010.04.10 21:57:39.
