data_PCOD8275944
_publ_section_title
;
Structure prediction by ZEFSAII (Michael W. Deem and Ramdas Pophale) SiO2 
 PCOD8275944
Probable space group: C C C M
;
_chemical_formula_sum "Si O2"
_cell_formula_units_Z 80
_cell_length_a 9.692686
_cell_length_b 15.602025
_cell_length_c 24.915309
_cell_angle_alpha 90.000000
_cell_angle_beta 90.000000
_cell_angle_gamma 90.000000
_cell_volume 3767.830791
_symmetry_space_group_name_H-M "C C C M"
_symmetry_group_IT_number 66
_symmetry_cell_setting 'orthorhombic'
loop_
_space_group_symop_operation_xyz
x,y,z
-x,-y,z
x,-y,1/2-z
-x,y,1/2-z
-x,-y,-z
x,y,-z
-x,y,1/2+z
x,-y,1/2+z
1/2+x,1/2+y,z
1/2-x,1/2-y,z
1/2+x,1/2-y,1/2-z
1/2-x,1/2+y,1/2-z
1/2-x,1/2-y,-z
1/2+x,1/2+y,-z
1/2-x,1/2+y,1/2+z
1/2+x,1/2-y,1/2+z
loop_
_atom_site_type_symbol
_atom_site_label
_atom_site_fract_x
_atom_site_fract_y
_atom_site_fract_z
Si Si1 0.155527 0.485222 0.812418
Si Si2 0.799310 0.521408 0.500000
Si Si3 0.121160 0.699791 0.293421
Si Si4 0.057794 0.649014 0.500000
Si Si5 0.472123 0.240791 0.603363
Si Si6 0.726297 0.393096 0.895255
O O1 0.169783 0.500000 0.750000
O O2 0.184984 0.385272 0.820090
O O3 0.266384 0.544508 0.843325
O O4 0.000000 0.500000 0.834385
O O5 0.815708 0.417987 0.500000
O O6 0.718345 0.544944 0.553680
O O7 0.931724 0.582919 0.500000
O O8 0.250000 0.750000 0.266086
O O9 0.000000 0.681087 0.250000
O O10 0.062814 0.752014 0.343502
O O11 0.060458 0.712713 0.551233
O O12 0.408903 0.335407 0.598214
O O13 0.357190 0.168342 0.610132
#
# Coordination Sequence:
#
# PCOD8275944 Si02
#       6
#    16   8  16   8  16  16
#     4  11  20  37  60  87 113 159 211 254 310 382
#     4   9  17  27  51  94 125 161 210 267 310 362
#     4  12  26  41  64  90 124 162 212 260 320 382
#     4   9  17  31  56  86 130 168 213 260 312 378
#     4  10  20  35  57  91 126 165 207 261 322 376
#     4  10  19  32  60  89 127 159 207 265 319 367
#
# _framework density 21.232377
#
# number of rings (size 3 to 8) (size 9 to 14) (size 15 to 20)
#    0.000    1.600    4.000    1.800    8.400    2.400 
#    0.000    1.500    0.000    0.000    0.000    4.200 
#    0.000    0.000    0.000    0.000    0.000    0.000 
#
# Total GULP energy -495658.797922 kJ/mol
# GULP energy per Si atom -12391.469948 kJ/mol
# Density = 2.118405 g / cm^3
# Si number density = 21.232377 Si / 1000 Ang^3
#
#
#
# Elastic Constant Matrix: (Units=GPa)
#
#
# Indices 1 2 3 4 5 6 
#
# 1 47.5800 56.3845 33.1139 0.0000 0.0000 0.0000
# 2 56.3845 150.9901 56.9486 0.0000 0.0000 0.0000
# 3 33.1139 56.9486 130.9238 0.0000 0.0000 0.0000
# 4 0.0000 0.0000 0.0000 24.0993 0.0000 0.0000
# 5 0.0000 0.0000 0.0000 0.0000 16.9356 0.0000
# 6 0.0000 0.0000 0.0000 0.0000 0.0000 22.4569
#
#
#
# Elastic Compliance Matrix: (Units=1/GPa)
#
#
# Indices 1 2 3 4 5 6 
#
# 1 0.039617 -0.013177 -0.004289 0.000000 0.000000 0.000000
# 2 -0.013177 0.012305 -0.002020 0.000000 0.000000 0.000000
# 3 -0.004289 -0.002020 0.009601 0.000000 0.000000 0.000000
# 4 0.000000 0.000000 0.000000 0.041495 0.000000 0.000000
# 5 0.000000 0.000000 0.000000 0.000000 0.059047 0.000000
# 6 0.000000 0.000000 0.000000 0.000000 0.000000 0.044530
#
#
# Mechanical properties :
#
#
# Convention : Reuss Voigt Hill
#
# Bulk Modulus (GPa) = 44.33925 69.15422 56.74673
# Shear Modulus (GPa) = 19.75634 24.90149 22.32892
#
# Velocity S-wave (km/s) = 3.05369 3.42834 3.24643
# Velocity P-wave (km/s) = 5.77594 6.95070 6.39038
#
# Compressibility (1/GPa) = 0.02255338
#
# Stress axis : x y z
#
# Youngs Moduli (GPa) = 25.24178 81.26548 104.15267
#
# Poissons Ratio (x) = 1.07081 0.44667
# Poissons Ratio (y) = 0.33260 0.21037
# Poissons Ratio (z) = 0.10825 0.16414
#
# Static dielectric constant tensor:
#      x y z
#    x 3.432410 0.000000 0.000000 
#    y 0.000000 3.893490 0.000000 
#    z 0.000000 0.000000 3.851910 
# 
# 
# High freq. dielectric constant tensor:
#      x y z
#    x 1.778610 0.000000 0.000000 
#    y 0.000000 1.842080 0.000000 
#    z 0.000000 0.000000 1.841080 
# 
# From -- ./inp_files/56665.got.cif
#   From: 2010.03.12/outbox.cif.g09.slc.cpg/sg66_29_cif.got.tgz:56665.got - 2010.04.10 21:57:39.
