data_PCOD8275360
_publ_section_title
;
Structure prediction by ZEFSAII (Michael W. Deem and Ramdas Pophale) SiO2 
 PCOD8275360
Probable space group: C C C M
;
_chemical_formula_sum "Si O2"
_cell_formula_units_Z 88
_cell_length_a 18.042918
_cell_length_b 13.769857
_cell_length_c 20.847360
_cell_angle_alpha 90.000000
_cell_angle_beta 90.000000
_cell_angle_gamma 90.000000
_cell_volume 5179.493251
_symmetry_space_group_name_H-M "C C C M"
_symmetry_group_IT_number 66
_symmetry_cell_setting 'orthorhombic'
loop_
_space_group_symop_operation_xyz
x,y,z
-x,-y,z
x,-y,1/2-z
-x,y,1/2-z
-x,-y,-z
x,y,-z
-x,y,1/2+z
x,-y,1/2+z
1/2+x,1/2+y,z
1/2-x,1/2-y,z
1/2+x,1/2-y,1/2-z
1/2-x,1/2+y,1/2-z
1/2-x,1/2-y,-z
1/2+x,1/2+y,-z
1/2-x,1/2+y,1/2+z
1/2+x,1/2-y,1/2+z
loop_
_atom_site_type_symbol
_atom_site_label
_atom_site_fract_x
_atom_site_fract_y
_atom_site_fract_z
Si Si1 0.450586 0.661046 0.187767
Si Si2 0.228232 0.500000 0.750000
Si Si3 0.541461 0.602216 0.072610
Si Si4 0.267676 0.861319 0.931982
Si Si5 0.659141 0.509510 0.360501
Si Si6 0.674857 0.185038 0.806891
O O1 0.500000 0.646185 0.250000
O O2 0.498374 0.674424 0.121833
O O3 0.402338 0.564135 0.181837
O O4 0.398966 0.753613 0.202076
O O5 0.277057 0.524680 0.687578
O O6 0.177953 0.596671 0.756470
O O7 0.500000 0.500000 0.069128
O O8 0.623407 0.582330 0.102145
O O9 0.546371 0.646558 0.000000
O O10 0.250000 0.750000 0.942513
O O11 0.191902 0.916127 0.912788
O O12 0.328930 0.868597 0.876270
O O13 0.296877 0.904535 0.000000
O O14 0.750000 0.250000 0.802421
#
# Coordination Sequence:
#
# PCOD8275360 Si02
#       6
#    16   8  16  16  16  16
#     4  11  20  32  48  71 103 134 167 208 253 307
#     4  10  18  30  54  70 100 130 172 216 250 296
#     4   9  19  29  43  71 109 141 164 196 249 315
#     4   9  15  25  46  70 103 136 162 199 244 303
#     4  10  17  30  46  74 102 136 166 204 253 312
#     4  10  19  34  47  75  99 132 171 206 256 304
#
# _framework density 16.990079999999999
#
# number of rings (size 3 to 8) (size 9 to 14) (size 15 to 20)
#    0.000    2.182    5.455    1.636    0.000    4.000 
#    0.000    0.455    0.000    0.000    0.000    7.636 
#    0.000    7.273    0.000    0.000    0.000    0.000 
#
# Total GULP energy -545103.399583 kJ/mol
# GULP energy per Si atom -12388.713627 kJ/mol
# Density = 1.695141 g / cm^3
# Si number density = 16.990080 Si / 1000 Ang^3
#
#
#
# Elastic Constant Matrix: (Units=GPa)
#
#
# Indices 1 2 3 4 5 6 
#
# 1 55.7417 35.9739 39.5155 0.0000 0.0000 0.0000
# 2 35.9739 63.7733 45.7120 0.0000 0.0000 0.0000
# 3 39.5155 45.7120 127.7792 0.0000 0.0000 0.0000
# 4 0.0000 0.0000 0.0000 198.2186 0.0000 0.0000
# 5 0.0000 0.0000 0.0000 0.0000 12.4987 0.0000
# 6 0.0000 0.0000 0.0000 0.0000 0.0000 26.8148
#
#
#
# Elastic Compliance Matrix: (Units=1/GPa)
#
#
# Indices 1 2 3 4 5 6 
#
# 1 0.029882 -0.013761 -0.004318 0.000000 0.000000 0.000000
# 2 -0.013761 0.027425 -0.005556 0.000000 0.000000 0.000000
# 3 -0.004318 -0.005556 0.011149 0.000000 0.000000 0.000000
# 4 0.000000 0.000000 0.000000 0.005045 0.000000 0.000000
# 5 0.000000 0.000000 0.000000 0.000000 0.080008 0.000000
# 6 0.000000 0.000000 0.000000 0.000000 0.000000 0.037293
#
#
# Mechanical properties :
#
#
# Convention : Reuss Voigt Hill
#
# Bulk Modulus (GPa) = 47.19945 54.41076 50.80511
# Shear Modulus (GPa) = 20.39707 55.91261 38.15484
#
# Velocity S-wave (km/s) = 3.46862 5.74286 4.74404
# Velocity P-wave (km/s) = 6.62440 8.72172 7.74439
#
# Compressibility (1/GPa) = 0.02118669
#
# Stress axis : x y z
#
# Youngs Moduli (GPa) = 33.46516 36.46294 89.69570
#
# Poissons Ratio (x) = 0.50176 0.38731
# Poissons Ratio (y) = 0.46051 0.49831
# Poissons Ratio (z) = 0.14450 0.20257
#
# Static dielectric constant tensor:
#      x y z
#    x 3.063730 0.000000 0.000000 
#    y 0.000000 2.887850 0.000000 
#    z 0.000000 0.000000 3.864850 
# 
# 
# High freq. dielectric constant tensor:
#      x y z
#    x 1.627380 0.000000 0.000000 
#    y 0.000000 1.608090 0.000000 
#    z 0.000000 0.000000 1.674310 
# 
# From -- ./inp_files/51041.got.cif
#   From: 2010.03.12/outbox.cif.g09.slc.cpg/sg66_26_cif.got.tgz:51041.got - 2010.04.10 21:57:39.
