data_PCOD8275658
_publ_section_title
;
Structure prediction by ZEFSAII (Michael W. Deem and Ramdas Pophale) SiO2 
 PCOD8275658
Probable space group: C C C M
;
_chemical_formula_sum "Si O2"
_cell_formula_units_Z 88
_cell_length_a 12.837063
_cell_length_b 17.954435
_cell_length_c 18.666626
_cell_angle_alpha 90.000000
_cell_angle_beta 90.000000
_cell_angle_gamma 90.000000
_cell_volume 4302.325274
_symmetry_space_group_name_H-M "C C C M"
_symmetry_group_IT_number 66
_symmetry_cell_setting 'orthorhombic'
loop_
_space_group_symop_operation_xyz
x,y,z
-x,-y,z
x,-y,1/2-z
-x,y,1/2-z
-x,-y,-z
x,y,-z
-x,y,1/2+z
x,-y,1/2+z
1/2+x,1/2+y,z
1/2-x,1/2-y,z
1/2+x,1/2-y,1/2-z
1/2-x,1/2+y,1/2-z
1/2-x,1/2-y,-z
1/2+x,1/2+y,-z
1/2-x,1/2+y,1/2+z
1/2+x,1/2-y,1/2+z
loop_
_atom_site_type_symbol
_atom_site_label
_atom_site_fract_x
_atom_site_fract_y
_atom_site_fract_z
Si Si1 0.776470 0.477421 0.172647
Si Si2 0.695358 0.628384 0.851997
Si Si3 0.498827 0.300921 0.581726
Si Si4 0.685703 0.673650 0.689057
Si Si5 0.000000 0.500000 0.125942
Si Si6 0.903592 0.649066 0.921502
O O1 0.735402 0.500000 0.250000
O O2 0.715563 0.540732 0.126933
O O3 0.748348 0.393476 0.151094
O O4 0.901267 0.479998 0.174104
O O5 0.608062 0.656857 0.906130
O O6 0.662210 0.650892 0.771186
O O7 0.810407 0.663235 0.864890
O O8 0.461170 0.318675 0.500000
O O9 0.419067 0.324286 0.643144
O O10 0.511826 0.212813 0.592204
O O11 0.750000 0.750000 0.683384
O O12 0.034630 0.428978 0.079547
O O13 0.853239 0.657390 0.000000
#
# Coordination Sequence:
#
# PCOD8275658 Si02
#       6
#    16  16  16  16   8  16
#     4   9  20  36  56  84 115 146 185 235 282 325
#     4  10  21  38  60  84 111 146 190 235 275 327
#     4  11  23  38  57  82 114 150 187 232 283 332
#     4  11  22  38  59  84 113 148 188 229 279 337
#     4  10  18  34  58  84 114 150 186 224 279 342
#     4  10  20  35  57  86 117 147 183 229 281 336
#
# _framework density 20.454056000000001
#
# number of rings (size 3 to 8) (size 9 to 14) (size 15 to 20)
#    0.000    1.818    0.000    4.364    0.000    2.545 
#    0.000   14.545    0.000    0.000    0.000    0.000 
#    0.000    0.000    0.000    0.000    0.000    0.000 
#
# Total GULP energy -545105.919699 kJ/mol
# GULP energy per Si atom -12388.770902 kJ/mol
# Density = 2.040750 g / cm^3
# Si number density = 20.454056 Si / 1000 Ang^3
#
#
#
# Elastic Constant Matrix: (Units=GPa)
#
#
# Indices 1 2 3 4 5 6 
#
# 1 102.2398 65.2921 41.0802 0.0000 0.0000 0.0000
# 2 65.2921 141.2561 34.7887 0.0000 0.0000 0.0000
# 3 41.0802 34.7887 96.9230 0.0000 0.0000 0.0000
# 4 0.0000 0.0000 0.0000 23.1684 0.0000 0.0000
# 5 0.0000 0.0000 0.0000 0.0000 33.1014 0.0000
# 6 0.0000 0.0000 0.0000 0.0000 0.0000 32.3395
#
#
#
# Elastic Compliance Matrix: (Units=1/GPa)
#
#
# Indices 1 2 3 4 5 6 
#
# 1 0.015388 -0.006040 -0.004354 0.000000 0.000000 0.000000
# 2 -0.006040 0.010137 -0.001078 0.000000 0.000000 0.000000
# 3 -0.004354 -0.001078 0.012550 0.000000 0.000000 0.000000
# 4 0.000000 0.000000 0.000000 0.043162 0.000000 0.000000
# 5 0.000000 0.000000 0.000000 0.000000 0.030210 0.000000
# 6 0.000000 0.000000 0.000000 0.000000 0.000000 0.030922
#
#
# Mechanical properties :
#
#
# Convention : Reuss Voigt Hill
#
# Bulk Modulus (GPa) = 66.09632 69.19343 67.64488
# Shear Modulus (GPa) = 29.35008 31.00572 30.17790
#
# Velocity S-wave (km/s) = 3.79215 3.89764 3.84526
# Velocity P-wave (km/s) = 7.18043 7.35919 7.27036
#
# Compressibility (1/GPa) = 0.01512943
#
# Stress axis : x y z
#
# Youngs Moduli (GPa) = 64.98647 98.64954 79.68185
#
# Poissons Ratio (x) = 0.59588 0.34693
# Poissons Ratio (y) = 0.39254 0.08592
# Poissons Ratio (z) = 0.28295 0.10637
#
# Static dielectric constant tensor:
#      x y z
#    x 3.476280 0.000000 0.000000 
#    y 0.000000 4.181910 0.000000 
#    z 0.000000 0.000000 3.570360 
# 
# 
# High freq. dielectric constant tensor:
#      x y z
#    x 1.789860 0.000000 0.000000 
#    y 0.000000 1.817540 0.000000 
#    z 0.000000 0.000000 1.786840 
# 
# From -- ./inp_files/48549.got.cif
#   From: 2010.03.12/outbox.cif.g09.slc.cpg/sg66_25_cif.got.tgz:48549.got - 2010.04.10 21:57:39.
