data_PCOD8275501
_publ_section_title
;
Structure prediction by ZEFSAII (Michael W. Deem and Ramdas Pophale) SiO2 
 PCOD8275501
Probable space group: C C C M
;
_chemical_formula_sum "Si O2"
_cell_formula_units_Z 80
_cell_length_a 20.766268
_cell_length_b 11.366617
_cell_length_c 14.741949
_cell_angle_alpha 90.000000
_cell_angle_beta 90.000000
_cell_angle_gamma 90.000000
_cell_volume 3479.722294
_symmetry_space_group_name_H-M "C C C M"
_symmetry_group_IT_number 66
_symmetry_cell_setting 'orthorhombic'
loop_
_space_group_symop_operation_xyz
x,y,z
-x,-y,z
x,-y,1/2-z
-x,y,1/2-z
-x,-y,-z
x,y,-z
-x,y,1/2+z
x,-y,1/2+z
1/2+x,1/2+y,z
1/2-x,1/2-y,z
1/2+x,1/2-y,1/2-z
1/2-x,1/2+y,1/2-z
1/2-x,1/2-y,-z
1/2+x,1/2+y,-z
1/2-x,1/2+y,1/2+z
1/2+x,1/2-y,1/2+z
loop_
_atom_site_type_symbol
_atom_site_label
_atom_site_fract_x
_atom_site_fract_y
_atom_site_fract_z
Si Si1 0.283422 0.492515 0.395266
Si Si2 0.010310 0.867583 0.356215
Si Si3 0.878449 0.214593 0.901406
Si Si4 0.801017 0.349359 0.771928
Si Si5 0.150141 0.764681 0.396860
O O1 0.260683 0.476507 0.500000
O O2 0.345352 0.410497 0.374512
O O3 0.227411 0.469260 0.318963
O O4 0.302221 0.626834 0.374305
O O5 0.078071 0.810409 0.382451
O O6 0.000000 0.861953 0.250000
O O7 0.955184 0.793963 0.405551
O O8 0.000000 0.000000 0.392033
O O9 0.863778 0.316709 0.830092
O O10 0.852500 0.253035 0.000000
O O11 0.750000 0.250000 0.796605
O O12 0.826553 0.343615 0.667238
O O13 0.159055 0.721540 0.500000
#
# Coordination Sequence:
#
# PCOD8275501 Si02
#       5
#    16  16  16  16  16
#     4   9  19  35  56  78 108 151 202 244 285 344
#     4  11  20  30  51  78 117 152 191 225 284 356
#     4  10  18  30  49  74 106 147 186 227 278 337
#     4  10  21  34  52  75 112 150 198 247 287 333
#     4  11  22  36  55  82 115 161 201 237 291 350
#
# _framework density 22.990338999999999
#
# number of rings (size 3 to 8) (size 9 to 14) (size 15 to 20)
#    0.000    1.800    4.000    1.200    0.000    6.800 
#    0.000    0.000    0.000    2.400    0.000    0.000 
#    0.000   27.200    0.000   81.400    3.600    0.600 
#
# Total GULP energy -495682.841481 kJ/mol
# GULP energy per Si atom -12392.071037 kJ/mol
# Density = 2.293801 g / cm^3
# Si number density = 22.990339 Si / 1000 Ang^3
#
#
#
# Elastic Constant Matrix: (Units=GPa)
#
#
# Indices 1 2 3 4 5 6 
#
# 1 128.1807 43.6148 62.4302 0.0000 0.0000 0.0000
# 2 43.6148 68.7620 55.6538 0.0000 0.0000 0.0000
# 3 62.4302 55.6538 181.2447 0.0000 0.0000 0.0000
# 4 0.0000 0.0000 0.0000 42.1219 0.0000 0.0000
# 5 0.0000 0.0000 0.0000 0.0000 35.2680 0.0000
# 6 0.0000 0.0000 0.0000 0.0000 0.0000 28.1933
#
#
#
# Elastic Compliance Matrix: (Units=1/GPa)
#
#
# Indices 1 2 3 4 5 6 
#
# 1 0.010514 -0.004974 -0.002094 0.000000 0.000000 0.000000
# 2 -0.004974 0.021706 -0.004952 0.000000 0.000000 0.000000
# 3 -0.002094 -0.004952 0.007759 0.000000 0.000000 0.000000
# 4 0.000000 0.000000 0.000000 0.023741 0.000000 0.000000
# 5 0.000000 0.000000 0.000000 0.000000 0.028354 0.000000
# 6 0.000000 0.000000 0.000000 0.000000 0.000000 0.035469
#
#
# Mechanical properties :
#
#
# Convention : Reuss Voigt Hill
#
# Bulk Modulus (GPa) = 62.73892 77.95391 70.34642
# Shear Modulus (GPa) = 31.86831 35.54921 33.70876
#
# Velocity S-wave (km/s) = 3.72716 3.93653 3.83327
# Velocity P-wave (km/s) = 6.77280 7.39206 7.08919
#
# Compressibility (1/GPa) = 0.01593907
#
# Stress axis : x y z
#
# Youngs Moduli (GPa) = 95.11239 46.07125 128.87785
#
# Poissons Ratio (x) = 0.22915 0.26990
# Poissons Ratio (y) = 0.47307 0.63817
# Poissons Ratio (z) = 0.19919 0.22813
#
# Static dielectric constant tensor:
#      x y z
#    x 4.235600 0.000000 0.000000 
#    y 0.000000 3.894020 0.000000 
#    z 0.000000 0.000000 4.411590 
# 
# 
# High freq. dielectric constant tensor:
#      x y z
#    x 1.902050 0.000000 0.000000 
#    y 0.000000 1.871860 0.000000 
#    z 0.000000 0.000000 1.940750 
# 
# From -- ./inp_files/32111.got.cif
#   From: 2010.03.12/outbox.cif.g09.slc.cpg/sg66_17_cif.got.tgz:32111.got - 2010.04.10 21:57:39.
