data_PCOD8275902
_publ_section_title
;
Structure prediction by ZEFSAII (Michael W. Deem and Ramdas Pophale) SiO2 
 PCOD8275902
Probable space group: C C C M
;
_chemical_formula_sum "Si O2"
_cell_formula_units_Z 116
_cell_length_a 26.510258
_cell_length_b 26.382011
_cell_length_c 8.853101
_cell_angle_alpha 90.000000
_cell_angle_beta 90.000000
_cell_angle_gamma 90.000000
_cell_volume 6191.804996
_symmetry_space_group_name_H-M "C C C M"
_symmetry_group_IT_number 66
_symmetry_cell_setting 'orthorhombic'
loop_
_space_group_symop_operation_xyz
x,y,z
-x,-y,z
x,-y,1/2-z
-x,y,1/2-z
-x,-y,-z
x,y,-z
-x,y,1/2+z
x,-y,1/2+z
1/2+x,1/2+y,z
1/2-x,1/2-y,z
1/2+x,1/2-y,1/2-z
1/2-x,1/2+y,1/2-z
1/2-x,1/2-y,-z
1/2+x,1/2+y,-z
1/2-x,1/2+y,1/2+z
1/2+x,1/2-y,1/2+z
loop_
_atom_site_type_symbol
_atom_site_label
_atom_site_fract_x
_atom_site_fract_y
_atom_site_fract_z
Si Si1 0.183745 0.052377 0.321783
Si Si2 0.588705 0.313993 0.327568
Si Si3 0.551328 0.205857 0.322745
Si Si4 0.686581 0.288079 0.173026
Si Si5 0.500000 0.500000 0.250000
Si Si6 0.347729 0.174782 0.325033
Si Si7 0.245842 0.637322 0.678036
Si Si8 0.582477 0.424904 0.664585
O O1 0.190830 0.050852 0.500000
O O2 0.218362 0.096012 0.253791
O O3 0.124279 0.060096 0.287164
O O4 0.202655 0.000000 0.250000
O O5 0.607315 0.305987 0.500000
O O6 0.554698 0.265864 0.281515
O O7 0.636417 0.318315 0.217743
O O8 0.560430 0.367929 0.306281
O O9 0.500000 0.184898 0.250000
O O10 0.550203 0.196126 0.500000
O O11 0.597629 0.174430 0.252931
O O12 0.678150 0.229023 0.198549
O O13 0.732080 0.307446 0.277911
O O14 0.700421 0.300444 0.000000
O O15 0.464210 0.536589 0.346643
O O16 0.354329 0.160807 0.500000
O O17 0.311175 0.133910 0.244038
O O18 0.244354 0.629515 0.500000
O O19 0.609283 0.425893 0.500000
#
# Coordination Sequence:
#
# PCOD8275902 Si02
#       8
#    16  16  16  16   4  16  16  16
#     4  12  25  42  63  83 107 141 182 232 288 346
#     4   9  19  34  52  72 101 139 183 229 279 338
#     4  10  20  35  54  78 109 148 187 229 276 328
#     4  10  19  32  52  79 109 142 180 223 275 333
#     4  12  26  36  60  78 106 136 190 252 304 344
#     4  10  21  36  54  80 113 146 185 229 272 331
#     4  12  23  36  56  82 112 145 181 224 278 340
#     4  11  23  40  56  76 104 138 182 238 296 347
#
# _framework density 18.734439999999999
#
# number of rings (size 3 to 8) (size 9 to 14) (size 15 to 20)
#    0.000    1.379    2.069    4.345    0.966    4.414 
#    0.000    0.000    0.000    0.000    0.000    0.000 
#    0.000    0.552    0.000    5.517    0.000    3.310 
#
# Total GULP energy -719054.542967 kJ/mol
# GULP energy per Si atom -12397.492120 kJ/mol
# Density = 1.869180 g / cm^3
# Si number density = 18.734440 Si / 1000 Ang^3
#
#
#
# Elastic Constant Matrix: (Units=GPa)
#
#
# Indices 1 2 3 4 5 6 
#
# 1 130.3509 39.2392 61.6005 0.0000 0.0000 0.0000
# 2 39.2392 35.6561 18.0977 0.0000 0.0000 0.0000
# 3 61.6005 18.0977 124.8874 0.0000 0.0000 0.0000
# 4 0.0000 0.0000 0.0000 20.0620 0.0000 0.0000
# 5 0.0000 0.0000 0.0000 0.0000 30.0042 0.0000
# 6 0.0000 0.0000 0.0000 0.0000 0.0000 28.2624
#
#
#
# Elastic Compliance Matrix: (Units=1/GPa)
#
#
# Indices 1 2 3 4 5 6 
#
# 1 0.013860 -0.012718 -0.004993 0.000000 0.000000 0.000000
# 2 -0.012718 0.041943 0.000195 0.000000 0.000000 0.000000
# 3 -0.004993 0.000195 0.010442 0.000000 0.000000 0.000000
# 4 0.000000 0.000000 0.000000 0.049845 0.000000 0.000000
# 5 0.000000 0.000000 0.000000 0.000000 0.033329 0.000000
# 6 0.000000 0.000000 0.000000 0.000000 0.000000 0.035383
#
#
# Mechanical properties :
#
#
# Convention : Reuss Voigt Hill
#
# Bulk Modulus (GPa) = 32.03901 58.75212 45.39557
# Shear Modulus (GPa) = 21.71666 27.12953 24.42309
#
# Velocity S-wave (km/s) = 3.40837 3.80953 3.61452
# Velocity P-wave (km/s) = 5.71210 7.12591 6.45781
#
# Compressibility (1/GPa) = 0.03121195
#
# Stress axis : x y z
#
# Youngs Moduli (GPa) = 72.15094 23.84195 95.76824
#
# Poissons Ratio (x) = 0.30323 0.47820
# Poissons Ratio (y) = 0.91763 -0.01869
# Poissons Ratio (z) = 0.36027 -0.00465
#
# Static dielectric constant tensor:
#      x y z
#    x 3.376420 0.000000 0.000000 
#    y 0.000000 3.312940 0.000000 
#    z 0.000000 0.000000 3.493790 
# 
# 
# High freq. dielectric constant tensor:
#      x y z
#    x 1.716330 0.000000 0.000000 
#    y 0.000000 1.693660 0.000000 
#    z 0.000000 0.000000 1.739930 
# 
# From -- ./inp_files/9399.got.cif
#   From: 2010.03.12/outbox.cif.g09.slc.cpg/sg66_5_cif.got.tgz:9399.got - 2010.04.10 21:57:39.
