data_PCOD8275806
_publ_section_title
;
Structure prediction by ZEFSAII (Michael W. Deem and Ramdas Pophale) SiO2 
 PCOD8275806
Probable space group: C C C M
;
_chemical_formula_sum "Si O2"
_cell_formula_units_Z 96
_cell_length_a 9.679704
_cell_length_b 25.658866
_cell_length_c 22.840116
_cell_angle_alpha 90.000000
_cell_angle_beta 90.000000
_cell_angle_gamma 90.000000
_cell_volume 5672.804815
_symmetry_space_group_name_H-M "C C C M"
_symmetry_group_IT_number 66
_symmetry_cell_setting 'orthorhombic'
loop_
_space_group_symop_operation_xyz
x,y,z
-x,-y,z
x,-y,1/2-z
-x,y,1/2-z
-x,-y,-z
x,y,-z
-x,y,1/2+z
x,-y,1/2+z
1/2+x,1/2+y,z
1/2-x,1/2-y,z
1/2+x,1/2-y,1/2-z
1/2-x,1/2+y,1/2-z
1/2-x,1/2-y,-z
1/2+x,1/2+y,-z
1/2-x,1/2+y,1/2+z
1/2+x,1/2-y,1/2+z
loop_
_atom_site_type_symbol
_atom_site_label
_atom_site_fract_x
_atom_site_fract_y
_atom_site_fract_z
Si Si1 0.493761 0.165330 0.876624
Si Si2 0.498500 0.711462 0.373449
Si Si3 0.085669 0.798743 0.500000
Si Si4 0.500964 0.442275 0.319189
Si Si5 0.719999 0.359559 0.823469
Si Si6 0.615069 0.823723 0.000000
Si Si7 0.219669 0.858720 0.684824
O O1 0.498657 0.226832 0.866538
O O2 0.633945 0.137801 0.856018
O O3 0.465150 0.152860 0.944532
O O4 0.373013 0.138995 0.839594
O O5 0.500277 0.690907 0.440724
O O6 0.638146 0.691492 0.344101
O O7 0.362238 0.691367 0.339808
O O8 0.220736 0.836662 0.500000
O O9 0.120743 0.738185 0.500000
O O10 0.500000 0.500000 0.347837
O O11 0.500000 0.447017 0.250000
O O12 0.365493 0.411303 0.341136
O O13 0.638766 0.410542 0.336633
O O14 0.733873 0.355039 0.754186
#
# Coordination Sequence:
#
# PCOD8275806 Si02
#       7
#    16  16   8  16  16   8  16
#     4  11  20  31  47  71 103 133 161 199 236 278
#     4  10  19  31  48  68  99 137 169 197 227 273
#     4   9  16  31  49  65  86 131 188 206 212 268
#     4   8  16  34  54  69  92 124 159 201 240 283
#     4  10  21  31  45  76 104 124 159 198 245 294
#     4   9  18  31  47  65  92 132 174 206 230 263
#     4  10  19  31  49  73  99 131 163 189 237 303
#
# _framework density 16.922846
#
# number of rings (size 3 to 8) (size 9 to 14) (size 15 to 20)
#    0.000    2.333    1.667    3.000    0.000    4.667 
#    0.000    3.333    0.000    4.000    0.000   22.167 
#    0.000    0.000    0.000    0.000    0.000    0.000 
#
# Total GULP energy -595035.745275 kJ/mol
# GULP energy per Si atom -12396.578027 kJ/mol
# Density = 1.688433 g / cm^3
# Si number density = 16.922846 Si / 1000 Ang^3
#
#
#
# Elastic Constant Matrix: (Units=GPa)
#
#
# Indices 1 2 3 4 5 6 
#
# 1 147.1726 49.6293 54.4092 0.0000 0.0000 0.0000
# 2 49.6293 92.5874 32.2207 0.0000 0.0000 0.0000
# 3 54.4092 32.2207 106.7811 0.0000 0.0000 0.0000
# 4 0.0000 0.0000 0.0000 7.2585 0.0000 0.0000
# 5 0.0000 0.0000 0.0000 0.0000 13.2100 0.0000
# 6 0.0000 0.0000 0.0000 0.0000 0.0000 4.3172
#
#
#
# Elastic Compliance Matrix: (Units=1/GPa)
#
#
# Indices 1 2 3 4 5 6 
#
# 1 0.009422 -0.003776 -0.003661 0.000000 0.000000 0.000000
# 2 -0.003776 0.013581 -0.002174 0.000000 0.000000 0.000000
# 3 -0.003661 -0.002174 0.011887 0.000000 0.000000 0.000000
# 4 0.000000 0.000000 0.000000 0.137769 0.000000 0.000000
# 5 0.000000 0.000000 0.000000 0.000000 0.075700 0.000000
# 6 0.000000 0.000000 0.000000 0.000000 0.000000 0.231629
#
#
# Mechanical properties :
#
#
# Convention : Reuss Voigt Hill
#
# Bulk Modulus (GPa) = 63.82992 68.78439 66.30715
# Shear Modulus (GPa) = 9.91212 18.97594 14.44403
#
# Velocity S-wave (km/s) = 2.42280 3.35225 2.92468
# Velocity P-wave (km/s) = 6.75475 7.46442 7.11843
#
# Compressibility (1/GPa) = 0.01566663
#
# Stress axis : x y z
#
# Youngs Moduli (GPa) = 106.13806 73.63088 84.12885
#
# Poissons Ratio (x) = 0.27804 0.30802
# Poissons Ratio (y) = 0.40079 0.18290
# Poissons Ratio (z) = 0.38860 0.16007
#
# Static dielectric constant tensor:
#      x y z
#    x 3.254080 0.000000 0.000000 
#    y 0.000000 3.126590 0.000000 
#    z 0.000000 0.000000 3.318430 
# 
# 
# High freq. dielectric constant tensor:
#      x y z
#    x 1.657020 0.000000 0.000000 
#    y 0.000000 1.616790 0.000000 
#    z 0.000000 0.000000 1.650540 
# 
# From -- ./inp_files/55695.got.cif
#   From: 2010.03.12/outbox.cif.g09.slc.cpg/sg66_28_cif.got.tgz:55695.got - 2010.04.10 21:57:39.
