data_PCOD8275285
_publ_section_title
;
Structure prediction by ZEFSAII (Michael W. Deem and Ramdas Pophale) SiO2 
 PCOD8275285
Probable space group: C C C M
;
_chemical_formula_sum "Si O2"
_cell_formula_units_Z 80
_cell_length_a 29.361163
_cell_length_b 23.014344
_cell_length_c 8.490265
_cell_angle_alpha 90.000000
_cell_angle_beta 90.000000
_cell_angle_gamma 90.000000
_cell_volume 5737.108986
_symmetry_space_group_name_H-M "C C C M"
_symmetry_group_IT_number 66
_symmetry_cell_setting 'orthorhombic'
loop_
_space_group_symop_operation_xyz
x,y,z
-x,-y,z
x,-y,1/2-z
-x,y,1/2-z
-x,-y,-z
x,y,-z
-x,y,1/2+z
x,-y,1/2+z
1/2+x,1/2+y,z
1/2-x,1/2-y,z
1/2+x,1/2-y,1/2-z
1/2-x,1/2+y,1/2-z
1/2-x,1/2-y,-z
1/2+x,1/2+y,-z
1/2-x,1/2+y,1/2+z
1/2+x,1/2-y,1/2+z
loop_
_atom_site_type_symbol
_atom_site_label
_atom_site_fract_x
_atom_site_fract_y
_atom_site_fract_z
Si Si1 0.318829 0.734891 0.316042
Si Si2 0.547904 0.436921 0.184627
Si Si3 0.723222 0.435728 0.685469
Si Si4 0.267069 0.831157 0.184882
Si Si5 0.136983 0.130025 0.314859
O O1 0.327740 0.742151 0.500000
O O2 0.314160 0.799155 0.236446
O O3 0.272912 0.699366 0.283174
O O4 0.359780 0.697520 0.238924
O O5 0.560441 0.500000 0.250000
O O6 0.500000 0.413394 0.250000
O O7 0.587111 0.391968 0.234383
O O8 0.543679 0.442738 0.000000
O O9 0.727236 0.500000 0.750000
O O10 0.729875 0.435391 0.500000
O O11 0.764511 0.398696 0.765626
O O12 0.674041 0.409592 0.727610
O O13 0.258725 0.823395 0.000000
O O14 0.145905 0.124502 0.500000
#
# Coordination Sequence:
#
# PCOD8275285 Si02
#       5
#    16  16  16  16  16
#     4  10  17  26  40  57  74  95 121 153 188 225
#     4  10  20  31  44  57  74  97 125 158 196 237
#     4  11  20  29  40  56  76 100 128 159 192 228
#     4  10  17  27  40  54  74  98 122 153 187 223
#     4  10  19  30  42  58  75  96 125 160 196 231
#
# _framework density 13.944305
#
# number of rings (size 3 to 8) (size 9 to 14) (size 15 to 20)
#    0.000    1.800    0.000   11.400    0.000    4.800 
#    0.000    0.000    0.000    0.000    0.000    0.000 
#    0.000    0.000    0.000    0.000    0.000    1.000 
#
# Total GULP energy -495824.069239 kJ/mol
# GULP energy per Si atom -12395.601731 kJ/mol
# Density = 1.391257 g / cm^3
# Si number density = 13.944305 Si / 1000 Ang^3
#
#
#
# Elastic Constant Matrix: (Units=GPa)
#
#
# Indices 1 2 3 4 5 6 
#
# 1 68.6077 56.1455 27.9745 0.0000 0.0000 0.0000
# 2 56.1455 94.9244 32.9673 0.0000 0.0000 0.0000
# 3 27.9745 32.9673 74.3235 0.0000 0.0000 0.0000
# 4 0.0000 0.0000 0.0000 22.1591 0.0000 0.0000
# 5 0.0000 0.0000 0.0000 0.0000 8.9158 0.0000
# 6 0.0000 0.0000 0.0000 0.0000 0.0000 20.8283
#
#
#
# Elastic Compliance Matrix: (Units=1/GPa)
#
#
# Indices 1 2 3 4 5 6 
#
# 1 0.029191 -0.015899 -0.003935 0.000000 0.000000 0.000000
# 2 -0.015899 0.021113 -0.003381 0.000000 0.000000 0.000000
# 3 -0.003935 -0.003381 0.016435 0.000000 0.000000 0.000000
# 4 0.000000 0.000000 0.000000 0.045128 0.000000 0.000000
# 5 0.000000 0.000000 0.000000 0.000000 0.112161 0.000000
# 6 0.000000 0.000000 0.000000 0.000000 0.000000 0.048012
#
#
# Mechanical properties :
#
#
# Convention : Reuss Voigt Hill
#
# Bulk Modulus (GPa) = 49.23735 52.44781 50.84258
# Shear Modulus (GPa) = 15.37325 18.43186 16.90255
#
# Velocity S-wave (km/s) = 3.32396 3.63963 3.48537
# Velocity P-wave (km/s) = 7.07942 7.44020 7.26205
#
# Compressibility (1/GPa) = 0.02030978
#
# Stress axis : x y z
#
# Youngs Moduli (GPa) = 34.25656 47.36431 60.84478
#
# Poissons Ratio (x) = 0.75307 0.23942
# Poissons Ratio (y) = 0.54466 0.20569
# Poissons Ratio (z) = 0.13480 0.16012
#
# Static dielectric constant tensor:
#      x y z
#    x 2.723980 0.000000 0.000000 
#    y 0.000000 3.118760 0.000000 
#    z 0.000000 0.000000 2.880810 
# 
# 
# High freq. dielectric constant tensor:
#      x y z
#    x 1.480940 0.000000 0.000000 
#    y 0.000000 1.524850 0.000000 
#    z 0.000000 0.000000 1.557550 
# 
# From -- ./inp_files/11459.got.cif
#   From: 2010.03.12/outbox.cif.g09.slc.cpg/sg66_6_cif.got.tgz:11459.got - 2010.04.10 21:57:39.
