data_PCOD8275826
_publ_section_title
;
Structure prediction by ZEFSAII (Michael W. Deem and Ramdas Pophale) SiO2 
 PCOD8275826
Probable space group: C C C M
;
_chemical_formula_sum "Si O2"
_cell_formula_units_Z 64
_cell_length_a 23.003169
_cell_length_b 19.159625
_cell_length_c 8.844724
_cell_angle_alpha 90.000000
_cell_angle_beta 90.000000
_cell_angle_gamma 90.000000
_cell_volume 3898.153710
_symmetry_space_group_name_H-M "C C C M"
_symmetry_group_IT_number 66
_symmetry_cell_setting 'orthorhombic'
loop_
_space_group_symop_operation_xyz
x,y,z
-x,-y,z
x,-y,1/2-z
-x,y,1/2-z
-x,-y,-z
x,y,-z
-x,y,1/2+z
x,-y,1/2+z
1/2+x,1/2+y,z
1/2-x,1/2-y,z
1/2+x,1/2-y,1/2-z
1/2-x,1/2+y,1/2-z
1/2-x,1/2-y,-z
1/2+x,1/2+y,-z
1/2-x,1/2+y,1/2+z
1/2+x,1/2-y,1/2+z
loop_
_atom_site_type_symbol
_atom_site_label
_atom_site_fract_x
_atom_site_fract_y
_atom_site_fract_z
Si Si1 0.325370 0.202196 0.828589
Si Si2 0.841621 0.161508 0.178426
Si Si3 0.751212 0.572666 0.179041
Si Si4 0.059775 0.232649 0.828532
O O1 0.304680 0.269329 0.729344
O O2 0.299399 0.129565 0.768782
O O3 0.396408 0.200403 0.821724
O O4 0.304357 0.215942 0.000000
O O5 0.811300 0.094216 0.252939
O O6 0.907774 0.168345 0.242072
O O7 0.842450 0.153287 0.000000
O O8 0.771464 0.500000 0.250000
O O9 0.746750 0.565642 0.000000
O O10 0.000000 0.253639 0.750000
O O11 0.047305 0.209612 0.000000
#
# Coordination Sequence:
#
# PCOD8275826 Si02
#       4
#    16  16  16  16
#     4   8  18  33  50  70 100 131 161 203 250 289
#     4  10  19  31  50  75 100 129 164 203 244 293
#     4  11  21  34  49  71 102 135 165 202 248 295
#     4   9  17  31  50  75  99 126 162 206 248 287
#
# _framework density 16.418030000000002
#
# number of rings (size 3 to 8) (size 9 to 14) (size 15 to 20)
#    1.500    1.000    0.000    3.750    0.000    5.000 
#    0.000    0.000    0.000    1.500    0.000   10.500 
#    0.000    0.000    0.000    0.000    0.000    0.000 
#
# Total GULP energy -396435.244282 kJ/mol
# GULP energy per Si atom -12388.601384 kJ/mol
# Density = 1.638066 g / cm^3
# Si number density = 16.418030 Si / 1000 Ang^3
#
#
#
# Elastic Constant Matrix: (Units=GPa)
#
#
# Indices 1 2 3 4 5 6 
#
# 1 72.8220 22.0731 23.0535 0.0000 0.0000 0.0000
# 2 22.0731 64.3347 26.5444 0.0000 0.0000 0.0000
# 3 23.0535 26.5444 105.9228 0.0000 0.0000 0.0000
# 4 0.0000 0.0000 0.0000 26.6653 0.0000 0.0000
# 5 0.0000 0.0000 0.0000 0.0000 18.2744 0.0000
# 6 0.0000 0.0000 0.0000 0.0000 0.0000 11.6475
#
#
#
# Elastic Compliance Matrix: (Units=1/GPa)
#
#
# Indices 1 2 3 4 5 6 
#
# 1 0.015823 -0.004470 -0.002324 0.000000 0.000000 0.000000
# 2 -0.004470 0.018599 -0.003688 0.000000 0.000000 0.000000
# 3 -0.002324 -0.003688 0.010871 0.000000 0.000000 0.000000
# 4 0.000000 0.000000 0.000000 0.037502 0.000000 0.000000
# 5 0.000000 0.000000 0.000000 0.000000 0.054721 0.000000
# 6 0.000000 0.000000 0.000000 0.000000 0.000000 0.085855
#
#
# Mechanical properties :
#
#
# Convention : Reuss Voigt Hill
#
# Bulk Modulus (GPa) = 41.10286 42.93575 42.01930
# Shear Modulus (GPa) = 19.80638 22.74467 21.27552
#
# Velocity S-wave (km/s) = 3.47707 3.72606 3.60372
# Velocity P-wave (km/s) = 6.41946 6.68728 6.55474
#
# Compressibility (1/GPa) = 0.02432921
#
# Stress axis : x y z
#
# Youngs Moduli (GPa) = 63.20079 53.76609 91.98978
#
# Poissons Ratio (x) = 0.24034 0.21374
# Poissons Ratio (y) = 0.28251 0.33927
# Poissons Ratio (z) = 0.14685 0.19829
#
# Static dielectric constant tensor:
#      x y z
#    x 3.035290 0.000000 0.000000 
#    y 0.000000 2.853820 0.000000 
#    z 0.000000 0.000000 3.069840 
# 
# 
# High freq. dielectric constant tensor:
#      x y z
#    x 1.622580 0.000000 0.000000 
#    y 0.000000 1.593340 0.000000 
#    z 0.000000 0.000000 1.643930 
# 
# From -- ./inp_files/6159.got.cif
#   From: 2010.03.12/outbox.cif.g09.slc.cpg/sg66_4_cif.got.tgz:6159.got - 2010.04.10 21:57:39.
