data_PCOD8275150
_publ_section_title
;
Structure prediction by ZEFSAII (Michael W. Deem and Ramdas Pophale) SiO2 
 PCOD8275150
Probable space group: C M M M
;
_chemical_formula_sum "Si O2"
_cell_formula_units_Z 56
_cell_length_a 20.031470
_cell_length_b 7.857797
_cell_length_c 19.666726
_cell_angle_alpha 90.000000
_cell_angle_beta 90.000000
_cell_angle_gamma 90.000000
_cell_volume 3095.606095
_symmetry_space_group_name_H-M "C M M M"
_symmetry_group_IT_number 65
_symmetry_cell_setting 'orthorhombic'
loop_
_space_group_symop_operation_xyz
x,y,z
-x,-y,z
x,-y,-z
-x,y,-z
-x,-y,-z
x,y,-z
-x,y,z
x,-y,z
1/2+x,1/2+y,z
1/2-x,1/2-y,z
1/2+x,1/2-y,-z
1/2-x,1/2+y,-z
1/2-x,1/2-y,-z
1/2+x,1/2+y,-z
1/2-x,1/2+y,z
1/2+x,1/2-y,z
loop_
_atom_site_type_symbol
_atom_site_label
_atom_site_fract_x
_atom_site_fract_y
_atom_site_fract_z
Si Si1 0.420766 0.688693 0.165499
Si Si2 0.075714 0.702091 0.312352
Si Si3 0.322953 0.799471 0.424272
Si Si4 0.420225 0.000000 0.076779
O O1 0.500000 0.702999 0.165335
O O2 0.397491 0.500000 0.141937
O O3 0.395791 0.721936 0.242116
O O4 0.391883 0.831154 0.114253
O O5 0.079240 0.500000 0.306853
O O6 0.121440 0.774950 0.373239
O O7 0.000000 0.762674 0.326299
O O8 0.333896 0.721883 0.500000
O O9 0.250000 0.750000 0.396632
O O10 0.330294 0.000000 0.427355
O O11 0.500000 0.000000 0.077742
O O12 0.392907 0.000000 0.000000
#
# Coordination Sequence:
#
# PCOD8275150 Si02
#       4
#    16  16  16   8
#     4   9  16  26  41  62  89 122 157 193 236 280
#     4   9  16  28  46  65  89 123 160 200 242 282
#     4   9  18  31  46  65  91 124 157 195 244 288
#     4   9  16  26  40  60  91 127 157 189 233 284
#
# _framework density 18.090157000000001
#
# number of rings (size 3 to 8) (size 9 to 14) (size 15 to 20)
#    0.000    3.000    1.429    0.000    0.000    2.286 
#    0.000    5.714    0.000    0.000    0.000    8.000 
#    0.000    1.143    0.571    0.000    0.000    0.000 
#
# Total GULP energy -347065.275804 kJ/mol
# GULP energy per Si atom -12395.188422 kJ/mol
# Density = 1.804898 g / cm^3
# Si number density = 18.090157 Si / 1000 Ang^3
#
#
#
# Elastic Constant Matrix: (Units=GPa)
#
#
# Indices 1 2 3 4 5 6 
#
# 1 56.2926 19.3306 56.1873 0.0000 0.0000 0.0000
# 2 19.3306 86.0276 59.7115 0.0000 0.0000 0.0000
# 3 56.1873 59.7115 152.5022 0.0000 0.0000 0.0000
# 4 0.0000 0.0000 0.0000 14.7838 0.0000 0.0000
# 5 0.0000 0.0000 0.0000 0.0000 -0.7829 0.0000
# 6 0.0000 0.0000 0.0000 0.0000 0.0000 13.6666
#
#
#
# Elastic Compliance Matrix: (Units=1/GPa)
#
#
# Indices 1 2 3 4 5 6 
#
# 1 0.028187 0.001201 -0.010855 0.000000 0.000000 0.000000
# 2 0.001201 0.016013 -0.006712 0.000000 0.000000 0.000000
# 3 -0.010855 -0.006712 0.013185 0.000000 0.000000 0.000000
# 4 0.000000 0.000000 0.000000 0.067641 0.000000 0.000000
# 5 0.000000 0.000000 0.000000 0.000000 -1.277328 0.000000
# 6 0.000000 0.000000 0.000000 0.000000 0.000000 0.073171
#
#
# Mechanical properties :
#
#
# Convention : Reuss Voigt Hill
#
# Bulk Modulus (GPa) = 40.56502 62.80902 51.68702
# Shear Modulus (GPa) = -4.81613 16.17303 5.67845
#
# Velocity S-wave (km/s) = -1.63342 2.99327 1.77364
# Velocity P-wave (km/s) = 4.34914 6.83678 5.72960
#
# Compressibility (1/GPa) = 0.02465178
#
# Stress axis : x y z
#
# Youngs Moduli (GPa) = 35.47736 62.44768 75.84364
#
# Poissons Ratio (x) = -0.07500 0.82331
# Poissons Ratio (y) = -0.04261 0.50910
# Poissons Ratio (z) = 0.38512 0.41918
#
# Static dielectric constant tensor:
#      x y z
#    x 2.946690 0.000000 0.000000 
#    y 0.000000 3.379080 0.000000 
#    z 0.000000 0.000000 3.600810 
# 
# 
# High freq. dielectric constant tensor:
#      x y z
#    x 1.638140 0.000000 0.000000 
#    y 0.000000 1.703140 0.000000 
#    z 0.000000 0.000000 1.701930 
# 
# From -- ./inp_files/35784.got.cif
#   From: 2010.03.12/outbox.cif.g09.slc.cpg/sg65_18_cif.got.tgz:35784.got - 2010.04.10 20:52:16.
