data_PCOD8275077
_publ_section_title
;
Structure prediction by ZEFSAII (Michael W. Deem and Ramdas Pophale) SiO2 
 PCOD8275077
Probable space group: C M M M
;
_chemical_formula_sum "Si O2"
_cell_formula_units_Z 72
_cell_length_a 19.589446
_cell_length_b 9.582751
_cell_length_c 22.944134
_cell_angle_alpha 90.000000
_cell_angle_beta 90.000000
_cell_angle_gamma 90.000000
_cell_volume 4307.090805
_symmetry_space_group_name_H-M "C M M M"
_symmetry_group_IT_number 65
_symmetry_cell_setting 'orthorhombic'
loop_
_space_group_symop_operation_xyz
x,y,z
-x,-y,z
x,-y,-z
-x,y,-z
-x,-y,-z
x,y,-z
-x,y,z
x,-y,z
1/2+x,1/2+y,z
1/2-x,1/2-y,z
1/2+x,1/2-y,-z
1/2-x,1/2+y,-z
1/2-x,1/2-y,-z
1/2+x,1/2+y,-z
1/2-x,1/2+y,z
1/2+x,1/2-y,z
loop_
_atom_site_type_symbol
_atom_site_label
_atom_site_fract_x
_atom_site_fract_y
_atom_site_fract_z
Si Si1 0.578332 0.662868 0.273622
Si Si2 0.680866 0.337661 0.626429
Si Si3 0.685312 0.838485 0.933603
Si Si4 0.078170 0.338860 0.837031
Si Si5 0.815210 0.157394 0.500000
O O1 0.500000 0.699169 0.288808
O O2 0.587512 0.500000 0.260334
O O3 0.624387 0.712486 0.327665
O O4 0.603451 0.746983 0.217182
O O5 0.699156 0.500000 0.635967
O O6 0.750000 0.250000 0.634797
O O7 0.646435 0.313942 0.561682
O O8 0.750000 0.750000 0.912613
O O9 0.621336 0.797483 0.893730
O O10 0.704778 0.000000 0.926901
O O11 0.665293 0.801809 0.000000
O O12 0.088392 0.500000 0.820027
O O13 0.000000 0.305326 0.852545
O O14 0.750000 0.250000 0.500000
O O15 0.788600 0.000000 0.500000
#
# Coordination Sequence:
#
# PCOD8275077 Si02
#       5
#    16  16  16  16   8
#     4   9  18  32  47  64  90 121 149 180 221 265
#     4   9  17  29  46  67  89 115 148 184 221 262
#     4   9  18  32  49  69  93 119 146 180 222 264
#     4   9  18  32  49  68  89 116 151 186 219 258
#     4   8  14  26  43  63  87 113 143 180 220 260
#
# _framework density 16.716619000000001
#
# number of rings (size 3 to 8) (size 9 to 14) (size 15 to 20)
#    0.000    3.111    0.000    0.000    0.000    3.111 
#    0.000    7.222    0.000    3.333    0.000    6.222 
#    0.000   12.444    0.000    0.000    0.000    0.000 
#
# Total GULP energy -446174.685167 kJ/mol
# GULP energy per Si atom -12393.741255 kJ/mol
# Density = 1.667857 g / cm^3
# Si number density = 16.716619 Si / 1000 Ang^3
#
#
#
# Elastic Constant Matrix: (Units=GPa)
#
#
# Indices 1 2 3 4 5 6 
#
# 1 85.4282 39.5429 81.9474 0.0000 0.0000 0.0000
# 2 39.5429 45.0962 53.2367 0.0000 0.0000 0.0000
# 3 81.9474 53.2367 148.0160 0.0000 0.0000 0.0000
# 4 0.0000 0.0000 0.0000 27.0096 0.0000 0.0000
# 5 0.0000 0.0000 0.0000 0.0000 28.6435 0.0000
# 6 0.0000 0.0000 0.0000 0.0000 0.0000 23.9645
#
#
#
# Elastic Compliance Matrix: (Units=1/GPa)
#
#
# Indices 1 2 3 4 5 6 
#
# 1 0.027661 -0.010733 -0.011454 0.000000 0.000000 0.000000
# 2 -0.010733 0.042703 -0.009416 0.000000 0.000000 0.000000
# 3 -0.011454 -0.009416 0.016484 0.000000 0.000000 0.000000
# 4 0.000000 0.000000 0.000000 0.037024 0.000000 0.000000
# 5 0.000000 0.000000 0.000000 0.000000 0.034912 0.000000
# 6 0.000000 0.000000 0.000000 0.000000 0.000000 0.041728
#
#
# Mechanical properties :
#
#
# Convention : Reuss Voigt Hill
#
# Bulk Modulus (GPa) = 42.30006 69.77716 56.03861
# Shear Modulus (GPa) = 18.40947 22.84442 20.62695
#
# Velocity S-wave (km/s) = 3.32214 3.70072 3.51653
# Velocity P-wave (km/s) = 6.33045 7.75192 7.07696
#
# Compressibility (1/GPa) = 0.02364063
#
# Stress axis : x y z
#
# Youngs Moduli (GPa) = 36.15188 23.41774 60.66480
#
# Poissons Ratio (x) = 0.25135 0.69484
# Poissons Ratio (y) = 0.38804 0.57124
# Poissons Ratio (z) = 0.41407 0.22051
#
# Static dielectric constant tensor:
#      x y z
#    x 2.766040 0.000000 0.000000 
#    y 0.000000 3.141890 0.000000 
#    z 0.000000 0.000000 3.584010 
# 
# 
# High freq. dielectric constant tensor:
#      x y z
#    x 1.621290 0.000000 0.000000 
#    y 0.000000 1.643920 0.000000 
#    z 0.000000 0.000000 1.656770 
# 
# From -- ./inp_files/54110.got.cif
#   From: 2010.03.12/outbox.cif.g09.slc.cpg/sg65_28_cif.got.tgz:54110.got - 2010.04.10 20:52:16.
