data_PCOD8275887
_publ_section_title
;
Structure prediction by ZEFSAII (Michael W. Deem and Ramdas Pophale) SiO2 
 PCOD8275887
Probable space group: C C C M
;
_chemical_formula_sum "Si O2"
_cell_formula_units_Z 88
_cell_length_a 8.446253
_cell_length_b 19.760224
_cell_length_c 27.571130
_cell_angle_alpha 90.000000
_cell_angle_beta 90.000000
_cell_angle_gamma 90.000000
_cell_volume 4601.617496
_symmetry_space_group_name_H-M "C C C M"
_symmetry_group_IT_number 66
_symmetry_cell_setting 'orthorhombic'
loop_
_space_group_symop_operation_xyz
x,y,z
-x,-y,z
x,-y,1/2-z
-x,y,1/2-z
-x,-y,-z
x,y,-z
-x,y,1/2+z
x,-y,1/2+z
1/2+x,1/2+y,z
1/2-x,1/2-y,z
1/2+x,1/2-y,1/2-z
1/2-x,1/2+y,1/2-z
1/2-x,1/2-y,-z
1/2+x,1/2+y,-z
1/2-x,1/2+y,1/2+z
1/2+x,1/2-y,1/2+z
loop_
_atom_site_type_symbol
_atom_site_label
_atom_site_fract_x
_atom_site_fract_y
_atom_site_fract_z
Si Si1 0.963941 0.289229 0.945903
Si Si2 0.234227 0.389578 0.054326
Si Si3 0.934271 0.268326 0.803570
Si Si4 0.671730 0.879841 0.367914
Si Si5 0.500000 0.000000 0.406474
Si Si6 0.003593 0.834386 0.619356
O O1 0.141808 0.318588 0.943714
O O2 0.847127 0.339105 0.917883
O O3 0.956426 0.213840 0.925069
O O4 0.898919 0.285657 0.000000
O O5 0.113603 0.452333 0.061296
O O6 0.360368 0.384770 0.098815
O O7 0.310046 0.397959 0.000000
O O8 0.750000 0.250000 0.805292
O O9 0.936710 0.343224 0.826998
O O10 0.043022 0.215813 0.834948
O O11 0.000000 0.270878 0.750000
O O12 0.611229 0.956070 0.371449
O O13 0.860826 0.880949 0.360180
#
# Coordination Sequence:
#
# PCOD8275887 Si02
#       6
#    16  16  16  16   8  16
#     4   9  17  30  49  75 105 133 164 209 264 316
#     4  10  20  33  51  75 107 146 185 220 258 313
#     4   9  19  35  57  83 107 129 162 213 273 329
#     4   9  20  35  51  74 104 137 175 215 256 309
#     4  10  21  38  51  66 102 150 188 220 256 300
#     4  10  19  32  51  80 106 129 169 220 268 313
#
# _framework density 19.123711
#
# number of rings (size 3 to 8) (size 9 to 14) (size 15 to 20)
#    0.000    2.545    0.000    3.000    0.000    9.455 
#    0.000    1.364    0.000    0.000    0.000    1.273 
#    0.000    0.000    0.000    0.000    0.000    0.000 
#
# Total GULP energy -545116.839445 kJ/mol
# GULP energy per Si atom -12389.019078 kJ/mol
# Density = 1.908018 g / cm^3
# Si number density = 19.123711 Si / 1000 Ang^3
#
#
#
# Elastic Constant Matrix: (Units=GPa)
#
#
# Indices 1 2 3 4 5 6 
#
# 1 70.9645 34.0417 32.6349 0.0000 0.0000 0.0000
# 2 34.0417 90.9655 29.3742 0.0000 0.0000 0.0000
# 3 32.6349 29.3742 135.2788 0.0000 0.0000 0.0000
# 4 0.0000 0.0000 0.0000 11.6489 0.0000 0.0000
# 5 0.0000 0.0000 0.0000 0.0000 28.1980 0.0000
# 6 0.0000 0.0000 0.0000 0.0000 0.0000 24.9174
#
#
#
# Elastic Compliance Matrix: (Units=1/GPa)
#
#
# Indices 1 2 3 4 5 6 
#
# 1 0.018348 -0.005847 -0.003157 0.000000 0.000000 0.000000
# 2 -0.005847 0.013685 -0.001561 0.000000 0.000000 0.000000
# 3 -0.003157 -0.001561 0.008493 0.000000 0.000000 0.000000
# 4 0.000000 0.000000 0.000000 0.085845 0.000000 0.000000
# 5 0.000000 0.000000 0.000000 0.000000 0.035464 0.000000
# 6 0.000000 0.000000 0.000000 0.000000 0.000000 0.040133
#
#
# Mechanical properties :
#
#
# Convention : Reuss Voigt Hill
#
# Bulk Modulus (GPa) = 51.55562 54.36780 52.96171
# Shear Modulus (GPa) = 21.78055 26.36338 24.07196
#
# Velocity S-wave (km/s) = 3.37846 3.71694 3.55174
# Velocity P-wave (km/s) = 6.49894 6.84924 6.67639
#
# Compressibility (1/GPa) = 0.01939653
#
# Stress axis : x y z
#
# Youngs Moduli (GPa) = 54.50170 73.07071 117.74897
#
# Poissons Ratio (x) = 0.42724 0.37170
# Poissons Ratio (y) = 0.31867 0.18382
# Poissons Ratio (z) = 0.17205 0.11407
#
# Static dielectric constant tensor:
#      x y z
#    x 3.461690 0.000000 0.000000 
#    y 0.000000 3.416030 0.000000 
#    z 0.000000 0.000000 3.524650 
# 
# 
# High freq. dielectric constant tensor:
#      x y z
#    x 1.737390 0.000000 0.000000 
#    y 0.000000 1.725600 0.000000 
#    z 0.000000 0.000000 1.727900 
# 
# From -- ./inp_files/55481.got.cif
#   From: 2010.03.12/outbox.cif.g09.slc.cpg/sg66_28_cif.got.tgz:55481.got - 2010.04.10 21:57:39.
