data_PCOD8275511
_publ_section_title
;
Structure prediction by ZEFSAII (Michael W. Deem and Ramdas Pophale) SiO2 
 PCOD8275511
Probable space group: C C C M
;
_chemical_formula_sum "Si O2"
_cell_formula_units_Z 80
_cell_length_a 14.500252
_cell_length_b 17.179450
_cell_length_c 14.878306
_cell_angle_alpha 90.000000
_cell_angle_beta 90.000000
_cell_angle_gamma 90.000000
_cell_volume 3706.280565
_symmetry_space_group_name_H-M "C C C M"
_symmetry_group_IT_number 66
_symmetry_cell_setting 'orthorhombic'
loop_
_space_group_symop_operation_xyz
x,y,z
-x,-y,z
x,-y,1/2-z
-x,y,1/2-z
-x,-y,-z
x,y,-z
-x,y,1/2+z
x,-y,1/2+z
1/2+x,1/2+y,z
1/2-x,1/2-y,z
1/2+x,1/2-y,1/2-z
1/2-x,1/2+y,1/2-z
1/2-x,1/2-y,-z
1/2+x,1/2+y,-z
1/2-x,1/2+y,1/2+z
1/2+x,1/2-y,1/2+z
loop_
_atom_site_type_symbol
_atom_site_label
_atom_site_fract_x
_atom_site_fract_y
_atom_site_fract_z
Si Si1 0.864769 0.550542 0.398702
Si Si2 0.499584 0.825907 0.854496
Si Si3 0.706288 0.411869 0.233018
Si Si4 0.687191 0.122749 0.599904
Si Si5 0.345420 0.293056 0.399529
O O1 0.831816 0.569827 0.500000
O O2 0.965403 0.586921 0.380761
O O3 0.797435 0.590575 0.327689
O O4 0.863963 0.458872 0.382189
O O5 0.500000 0.811364 0.750000
O O6 0.604893 0.814441 0.889121
O O7 0.431796 0.764861 0.901202
O O8 0.669225 0.500000 0.250000
O O9 0.730172 0.369180 0.327794
O O10 0.633798 0.360629 0.175200
O O11 0.730485 0.129546 0.500000
O O12 0.337624 0.328923 0.500000
O O13 0.250000 0.250000 0.373555
#
# Coordination Sequence:
#
# PCOD8275511 Si02
#       5
#    16  16  16  16  16
#     4  10  18  30  50  79 115 150 185 223 271 336
#     4  12  21  32  51  79 117 150 184 229 279 338
#     4  10  20  35  55  82 115 151 190 234 288 341
#     4  10  20  32  50  79 115 153 189 226 280 344
#     4  11  21  35  57  84 116 150 193 241 286 340
#
# _framework density 21.584982
#
# number of rings (size 3 to 8) (size 9 to 14) (size 15 to 20)
#    0.000    1.400    4.000    3.000    0.000    3.200 
#    0.000    0.000    0.000    8.400    0.000    1.400 
#    0.000    0.000    0.000    0.000    0.000    0.000 
#
# Total GULP energy -495796.964715 kJ/mol
# GULP energy per Si atom -12394.924118 kJ/mol
# Density = 2.153585 g / cm^3
# Si number density = 21.584982 Si / 1000 Ang^3
#
#
#
# Elastic Constant Matrix: (Units=GPa)
#
#
# Indices 1 2 3 4 5 6 
#
# 1 29.8694 23.5921 15.7999 0.0000 0.0000 0.0000
# 2 23.5921 75.3270 34.0761 0.0000 0.0000 0.0000
# 3 15.7999 34.0761 158.7168 0.0000 0.0000 0.0000
# 4 0.0000 0.0000 0.0000-2125.7439 0.0000 0.0000
# 5 0.0000 0.0000 0.0000 0.0000 21.4437 0.0000
# 6 0.0000 0.0000 0.0000 0.0000 0.0000 20.9383
#
#
#
# Elastic Compliance Matrix: (Units=1/GPa)
#
#
# Indices 1 2 3 4 5 6 
#
# 1 0.044849 -0.013321 -0.001605 0.000000 0.000000 0.000000
# 2 -0.013321 0.018660 -0.002680 0.000000 0.000000 0.000000
# 3 -0.001605 -0.002680 0.007036 0.000000 0.000000 0.000000
# 4 0.000000 0.000000 0.000000 -0.000470 0.000000 0.000000
# 5 0.000000 0.000000 0.000000 0.000000 0.046634 0.000000
# 6 0.000000 0.000000 0.000000 0.000000 0.000000 0.047759
#
#
# Mechanical properties :
#
#
# Convention : Reuss Voigt Hill
#
# Bulk Modulus (GPa) = 28.30169 45.64994 36.97582
# Shear Modulus (GPa) = 23.64556 -403.97603 -190.16524
#
# Velocity S-wave (km/s) = 3.31337 -13.69534 -9.39638
# Velocity P-wave (km/s) = 5.27049 15.12906 10.02772
#
# Compressibility (1/GPa) = 0.03533357
#
# Stress axis : x y z
#
# Youngs Moduli (GPa) = 22.29703 53.59100 142.13215
#
# Poissons Ratio (x) = 0.71386 0.22809
# Poissons Ratio (y) = 0.29701 0.38094
# Poissons Ratio (z) = 0.03578 0.14363
#
# Static dielectric constant tensor:
#      x y z
#    x 3.468970 0.000000 0.000000 
#    y 0.000000 3.898660 0.000000 
#    z 0.000000 0.000000 4.244410 
# 
# 
# High freq. dielectric constant tensor:
#      x y z
#    x 1.789890 0.000000 0.000000 
#    y 0.000000 1.825520 0.000000 
#    z 0.000000 0.000000 1.873080 
# 
# From -- ./inp_files/29932.got.cif
#   From: 2010.03.12/outbox.cif.g09.slc.cpg/sg66_15_cif.got.tgz:29932.got - 2010.04.10 21:57:39.
