data_PCOD8275086
_publ_section_title
;
Structure prediction by ZEFSAII (Michael W. Deem and Ramdas Pophale) SiO2 
 PCOD8275086
Probable space group: C M M M
;
_chemical_formula_sum "Si O2"
_cell_formula_units_Z 80
_cell_length_a 19.602675
_cell_length_b 25.215508
_cell_length_c 9.733146
_cell_angle_alpha 90.000000
_cell_angle_beta 90.000000
_cell_angle_gamma 90.000000
_cell_volume 4811.010443
_symmetry_space_group_name_H-M "C M M M"
_symmetry_group_IT_number 65
_symmetry_cell_setting 'orthorhombic'
loop_
_space_group_symop_operation_xyz
x,y,z
-x,-y,z
x,-y,-z
-x,y,-z
-x,-y,-z
x,y,-z
-x,y,z
x,-y,z
1/2+x,1/2+y,z
1/2-x,1/2-y,z
1/2+x,1/2-y,-z
1/2-x,1/2+y,-z
1/2-x,1/2-y,-z
1/2+x,1/2+y,-z
1/2-x,1/2+y,z
1/2+x,1/2-y,z
loop_
_atom_site_type_symbol
_atom_site_label
_atom_site_fract_x
_atom_site_fract_y
_atom_site_fract_z
Si Si1 0.081013 0.252630 0.347943
Si Si2 0.920573 0.347530 0.160177
Si Si3 0.578692 0.634339 0.660494
Si Si4 0.172780 0.061993 0.843088
Si Si5 0.826365 0.441619 0.837012
O O1 0.109057 0.266977 0.500000
O O2 0.107563 0.295808 0.239149
O O3 0.105328 0.193783 0.304769
O O4 0.000000 0.252208 0.352086
O O5 0.879876 0.398339 0.218439
O O6 0.000000 0.357787 0.189738
O O7 0.906405 0.337975 0.000000
O O8 0.588484 0.622372 0.500000
O O9 0.500000 0.627948 0.702932
O O10 0.621457 0.592900 0.746711
O O11 0.249816 0.074173 0.792974
O O12 0.156991 0.000000 0.829686
O O13 0.162547 0.080730 0.000000
O O14 0.845373 0.500000 0.777451
O O15 0.829999 0.444527 0.000000
#
# Coordination Sequence:
#
# PCOD8275086 Si02
#       5
#    16  16  16  16  16
#     4   8  15  29  46  63  88 120 146 173 219 271
#     4   9  16  26  45  72  93 112 147 189 221 254
#     4   9  18  32  49  68  89 115 148 184 222 264
#     4   9  18  32  48  65  88 120 152 180 217 265
#     4   8  15  29  46  64  91 123 149 178 220 265
#
# _framework density 16.628523000000001
#
# number of rings (size 3 to 8) (size 9 to 14) (size 15 to 20)
#    0.000    3.400    0.000    2.400    0.000    2.400 
#    0.000    8.000    0.000    7.800    0.000    2.800 
#    0.000    0.000    0.000    0.000    0.000    0.000 
#
# Total GULP energy -495789.517369 kJ/mol
# GULP energy per Si atom -12394.737934 kJ/mol
# Density = 1.659068 g / cm^3
# Si number density = 16.628523 Si / 1000 Ang^3
#
#
#
# Elastic Constant Matrix: (Units=GPa)
#
#
# Indices 1 2 3 4 5 6 
#
# 1 69.7450 62.4444 40.8582 0.0000 0.0000 0.0000
# 2 62.4444 112.3271 56.0497 0.0000 0.0000 0.0000
# 3 40.8582 56.0497 55.9472 0.0000 0.0000 0.0000
# 4 0.0000 0.0000 0.0000 4.5043 0.0000 0.0000
# 5 0.0000 0.0000 0.0000 0.0000 13.9713 0.0000
# 6 0.0000 0.0000 0.0000 0.0000 0.0000 5.1185
#
#
#
# Elastic Compliance Matrix: (Units=1/GPa)
#
#
# Indices 1 2 3 4 5 6 
#
# 1 0.031577 -0.012092 -0.010946 0.000000 0.000000 0.000000
# 2 -0.012092 0.022432 -0.013642 0.000000 0.000000 0.000000
# 3 -0.010946 -0.013642 0.039536 0.000000 0.000000 0.000000
# 4 0.000000 0.000000 0.000000 0.222008 0.000000 0.000000
# 5 0.000000 0.000000 0.000000 0.000000 0.071575 0.000000
# 6 0.000000 0.000000 0.000000 0.000000 0.000000 0.195371
#
#
# Mechanical properties :
#
#
# Convention : Reuss Voigt Hill
#
# Bulk Modulus (GPa) = 49.54696 61.85822 55.70259
# Shear Modulus (GPa) = 7.54617 9.96328 8.75473
#
# Velocity S-wave (km/s) = 2.13259 2.45045 2.29702
# Velocity P-wave (km/s) = 5.99374 6.72957 6.37229
#
# Compressibility (1/GPa) = 0.02018287
#
# Stress axis : x y z
#
# Youngs Moduli (GPa) = 31.66878 44.57896 25.29369
#
# Poissons Ratio (x) = 0.53905 0.27687
# Poissons Ratio (y) = 0.38294 0.34507
# Poissons Ratio (z) = 0.34666 0.60817
#
# Static dielectric constant tensor:
#      x y z
#    x 2.984870 0.000000 0.000000 
#    y 0.000000 3.437180 0.000000 
#    z 0.000000 0.000000 2.991400 
# 
# 
# High freq. dielectric constant tensor:
#      x y z
#    x 1.619980 0.000000 0.000000 
#    y 0.000000 1.648550 0.000000 
#    z 0.000000 0.000000 1.619240 
# 
# From -- ./inp_files/9588.got.cif
#   From: 2010.03.12/outbox.cif.g09.slc.cpg/sg65_5_cif.got.tgz:9588.got - 2010.04.10 20:52:16.
