data_PCOD8275273
_publ_section_title
;
Structure prediction by ZEFSAII (Michael W. Deem and Ramdas Pophale) SiO2 
 PCOD8275273
Probable space group: C C C M
;
_chemical_formula_sum "Si O2"
_cell_formula_units_Z 52
_cell_length_a 30.731317
_cell_length_b 9.755070
_cell_length_c 8.757902
_cell_angle_alpha 90.000000
_cell_angle_beta 90.000000
_cell_angle_gamma 90.000000
_cell_volume 2625.497710
_symmetry_space_group_name_H-M "C C C M"
_symmetry_group_IT_number 66
_symmetry_cell_setting 'orthorhombic'
loop_
_space_group_symop_operation_xyz
x,y,z
-x,-y,z
x,-y,1/2-z
-x,y,1/2-z
-x,-y,-z
x,y,-z
-x,y,1/2+z
x,-y,1/2+z
1/2+x,1/2+y,z
1/2-x,1/2-y,z
1/2+x,1/2-y,1/2-z
1/2-x,1/2+y,1/2-z
1/2-x,1/2-y,-z
1/2+x,1/2+y,-z
1/2-x,1/2+y,1/2+z
1/2+x,1/2-y,1/2+z
loop_
_atom_site_type_symbol
_atom_site_label
_atom_site_fract_x
_atom_site_fract_y
_atom_site_fract_z
Si Si1 0.878254 0.149601 0.818923
Si Si2 0.958479 0.741444 0.833151
Si Si3 0.000000 0.000000 0.250000
Si Si4 0.711780 0.354708 0.679353
O O1 0.914527 0.261852 0.767610
O O2 0.831940 0.203105 0.757677
O O3 0.887737 0.000000 0.750000
O O4 0.877995 0.140263 0.000000
O O5 0.970421 0.902434 0.856473
O O6 0.000000 0.667084 0.750000
O O7 0.950564 0.674921 0.000000
O O8 0.725183 0.500000 0.750000
O O9 0.703390 0.372146 0.500000
O O10 0.750000 0.250000 0.716421
#
# Coordination Sequence:
#
# PCOD8275273 Si02
#       4
#    16  16   4  16
#     4  11  19  27  42  62  88 122 159 197 241 291
#     4  10  17  24  36  54  82 117 155 193 234 286
#     4   8  18  20  34  48  78 116 152 188 230 276
#     4  10  21  36  54  75 100 131 167 208 253 299
#
# _framework density 19.805766999999999
#
# number of rings (size 3 to 8) (size 9 to 14) (size 15 to 20)
#    0.923    0.923    1.538    6.923    0.000    2.462 
#    0.000    0.000    0.000    0.000    0.000    0.000 
#    0.000    1.231    0.000   12.923    0.000   12.308 
#
# Total GULP energy -322096.118986 kJ/mol
# GULP energy per Si atom -12388.312269 kJ/mol
# Density = 1.976069 g / cm^3
# Si number density = 19.805767 Si / 1000 Ang^3
#
#
#
# Elastic Constant Matrix: (Units=GPa)
#
#
# Indices 1 2 3 4 5 6 
#
# 1 178.2611 34.6939 86.7587 0.0000 0.0000 0.0000
# 2 34.6939 25.6565 23.8753 0.0000 0.0000 0.0000
# 3 86.7587 23.8753 185.9813 0.0000 0.0000 0.0000
# 4 0.0000 0.0000 0.0000 9.5601 0.0000 0.0000
# 5 0.0000 0.0000 0.0000 0.0000 35.9032 0.0000
# 6 0.0000 0.0000 0.0000 0.0000 0.0000 7.4793
#
#
#
# Elastic Compliance Matrix: (Units=1/GPa)
#
#
# Indices 1 2 3 4 5 6 
#
# 1 0.008832 -0.009209 -0.002938 0.000000 0.000000 0.000000
# 2 -0.009209 0.053867 -0.002619 0.000000 0.000000 0.000000
# 3 -0.002938 -0.002619 0.007084 0.000000 0.000000 0.000000
# 4 0.000000 0.000000 0.000000 0.104601 0.000000 0.000000
# 5 0.000000 0.000000 0.000000 0.000000 0.027853 0.000000
# 6 0.000000 0.000000 0.000000 0.000000 0.000000 0.133703
#
#
# Mechanical properties :
#
#
# Convention : Reuss Voigt Hill
#
# Bulk Modulus (GPa) = 24.84463 75.61719 50.23091
# Shear Modulus (GPa) = 13.19654 26.89326 20.04490
#
# Velocity S-wave (km/s) = 2.58407 3.68890 3.18476
# Velocity P-wave (km/s) = 4.63407 7.51041 6.24023
#
# Compressibility (1/GPa) = 0.04025015
#
# Stress axis : x y z
#
# Youngs Moduli (GPa) = 113.22670 18.56435 141.17175
#
# Poissons Ratio (x) = 0.17096 0.41473
# Poissons Ratio (y) = 1.04270 0.36976
# Poissons Ratio (z) = 0.33263 0.04862
#
# Static dielectric constant tensor:
#      x y z
#    x 3.898000 0.000000 0.000000 
#    y 0.000000 2.907090 0.000000 
#    z 0.000000 0.000000 3.586880 
# 
# 
# High freq. dielectric constant tensor:
#      x y z
#    x 1.789740 0.000000 0.000000 
#    y 0.000000 1.695010 0.000000 
#    z 0.000000 0.000000 1.786690 
# 
# From -- ./inp_files/9771.got.cif
#   From: 2010.03.12/outbox.cif.g09.slc.cpg/sg66_5_cif.got.tgz:9771.got - 2010.04.10 21:57:39.
