data_PCOD8275737
_publ_section_title
;
Structure prediction by ZEFSAII (Michael W. Deem and Ramdas Pophale) SiO2 
 PCOD8275737
Probable space group: C C C M
;
_chemical_formula_sum "Si O2"
_cell_formula_units_Z 112
_cell_length_a 16.312548
_cell_length_b 20.020275
_cell_length_c 21.699459
_cell_angle_alpha 90.000000
_cell_angle_beta 90.000000
_cell_angle_gamma 90.000000
_cell_volume 7086.646142
_symmetry_space_group_name_H-M "C C C M"
_symmetry_group_IT_number 66
_symmetry_cell_setting 'orthorhombic'
loop_
_space_group_symop_operation_xyz
x,y,z
-x,-y,z
x,-y,1/2-z
-x,y,1/2-z
-x,-y,-z
x,y,-z
-x,y,1/2+z
x,-y,1/2+z
1/2+x,1/2+y,z
1/2-x,1/2-y,z
1/2+x,1/2-y,1/2-z
1/2-x,1/2+y,1/2-z
1/2-x,1/2-y,-z
1/2+x,1/2+y,-z
1/2-x,1/2+y,1/2+z
1/2+x,1/2-y,1/2+z
loop_
_atom_site_type_symbol
_atom_site_label
_atom_site_fract_x
_atom_site_fract_y
_atom_site_fract_z
Si Si1 0.408693 0.974587 0.668679
Si Si2 0.152886 0.614643 0.430539
Si Si3 0.051183 0.251013 0.930631
Si Si4 0.849059 0.395256 0.216479
Si Si5 0.197398 0.182981 0.120533
Si Si6 0.303247 0.684615 0.756669
Si Si7 0.556927 0.238087 0.810104
O O1 0.396586 0.945345 0.601219
O O2 0.384564 0.915554 0.716367
O O3 0.500000 0.000000 0.681640
O O4 0.351021 0.039482 0.673749
O O5 0.164122 0.592310 0.500000
O O6 0.098621 0.680072 0.423256
O O7 0.243969 0.623455 0.402568
O O8 0.117168 0.191247 0.922387
O O9 0.984643 0.248370 0.876069
O O10 0.012643 0.244970 0.000000
O O11 0.753570 0.374902 0.218287
O O12 0.902178 0.335034 0.188156
O O13 0.250000 0.250000 0.118226
O O14 0.164052 0.165546 0.188754
O O15 0.250000 0.750000 0.746789
O O16 0.377106 0.701913 0.803024
O O17 0.500000 0.241391 0.750000
#
# Coordination Sequence:
#
# PCOD8275737 Si02
#       7
#    16  16  16  16  16  16  16
#     4  11  20  30  45  68  95 130 162 192 225 274
#     4  10  19  30  45  66  99 134 160 189 224 279
#     4  10  19  29  45  71 101 127 152 193 245 285
#     4  10  19  31  45  65  94 124 157 196 236 271
#     4   9  15  28  44  68  96 124 154 191 239 284
#     4   9  17  28  47  69  91 118 155 199 238 278
#     4  11  18  29  49  71  94 120 156 199 240 284
#
# _framework density 15.804373
#
# number of rings (size 3 to 8) (size 9 to 14) (size 15 to 20)
#    0.000    2.000    2.857    3.857    0.000    2.000 
#    0.000    0.714    0.000    4.714    0.000    7.000 
#    0.000    2.286    0.000    0.000    0.000    0.000 
#
# Total GULP energy -694021.034573 kJ/mol
# GULP energy per Si atom -12393.232760 kJ/mol
# Density = 1.576840 g / cm^3
# Si number density = 15.804373 Si / 1000 Ang^3
#
#
#
# Elastic Constant Matrix: (Units=GPa)
#
#
# Indices 1 2 3 4 5 6 
#
# 1 75.5603 35.5192 57.3001 0.0000 0.0000 0.0000
# 2 35.5192 51.5894 27.9008 0.0000 0.0000 0.0000
# 3 57.3001 27.9008 121.1470 0.0000 0.0000 0.0000
# 4 0.0000 0.0000 0.0000 18.1920 0.0000 0.0000
# 5 0.0000 0.0000 0.0000 0.0000 24.0210 0.0000
# 6 0.0000 0.0000 0.0000 0.0000 0.0000 24.8079
#
#
#
# Elastic Compliance Matrix: (Units=1/GPa)
#
#
# Indices 1 2 3 4 5 6 
#
# 1 0.026720 -0.013207 -0.009596 0.000000 0.000000 0.000000
# 2 -0.013207 0.028669 -0.000356 0.000000 0.000000 0.000000
# 3 -0.009596 -0.000356 0.012875 0.000000 0.000000 0.000000
# 4 0.000000 0.000000 0.000000 0.054969 0.000000 0.000000
# 5 0.000000 0.000000 0.000000 0.000000 0.041630 0.000000
# 6 0.000000 0.000000 0.000000 0.000000 0.000000 0.040310
#
#
# Mechanical properties :
#
#
# Convention : Reuss Voigt Hill
#
# Bulk Modulus (GPa) = 45.56641 54.41522 49.99082
# Shear Modulus (GPa) = 19.31938 21.90930 20.61434
#
# Velocity S-wave (km/s) = 3.50009 3.72732 3.61549
# Velocity P-wave (km/s) = 6.72520 7.28211 7.00919
#
# Compressibility (1/GPa) = 0.02194599
#
# Stress axis : x y z
#
# Youngs Moduli (GPa) = 37.42520 34.88058 77.66755
#
# Poissons Ratio (x) = 0.46066 0.74533
# Poissons Ratio (y) = 0.49426 0.02766
# Poissons Ratio (z) = 0.35915 0.01242
#
# Static dielectric constant tensor:
#      x y z
#    x 3.071030 0.000000 0.000000 
#    y 0.000000 2.942290 0.000000 
#    z 0.000000 0.000000 3.025900 
# 
# 
# High freq. dielectric constant tensor:
#      x y z
#    x 1.593470 0.000000 0.000000 
#    y 0.000000 1.577370 0.000000 
#    z 0.000000 0.000000 1.602870 
# 
# From -- ./inp_files/59011.got.cif
#   From: 2010.03.12/outbox.cif.g09.slc.cpg/sg66_30_cif.got.tgz:59011.got - 2010.04.10 21:57:39.
