data_PCOD8275405
_publ_section_title
;
Structure prediction by ZEFSAII (Michael W. Deem and Ramdas Pophale) SiO2 
 PCOD8275405
Probable space group: C C C M
;
_chemical_formula_sum "Si O2"
_cell_formula_units_Z 56
_cell_length_a 16.289912
_cell_length_b 9.694805
_cell_length_c 16.703456
_cell_angle_alpha 90.000000
_cell_angle_beta 90.000000
_cell_angle_gamma 90.000000
_cell_volume 2637.935387
_symmetry_space_group_name_H-M "C C C M"
_symmetry_group_IT_number 66
_symmetry_cell_setting 'orthorhombic'
loop_
_space_group_symop_operation_xyz
x,y,z
-x,-y,z
x,-y,1/2-z
-x,y,1/2-z
-x,-y,-z
x,y,-z
-x,y,1/2+z
x,-y,1/2+z
1/2+x,1/2+y,z
1/2-x,1/2-y,z
1/2+x,1/2-y,1/2-z
1/2-x,1/2+y,1/2-z
1/2-x,1/2-y,-z
1/2+x,1/2+y,-z
1/2-x,1/2+y,1/2+z
1/2+x,1/2-y,1/2+z
loop_
_atom_site_type_symbol
_atom_site_label
_atom_site_fract_x
_atom_site_fract_y
_atom_site_fract_z
Si Si1 0.375575 0.143106 0.782747
Si Si2 0.422893 0.582256 0.669415
Si Si3 0.250000 0.750000 0.841753
Si Si4 0.243535 0.039933 0.090430
O O1 0.444026 0.254714 0.812359
O O2 0.329158 0.224178 0.712616
O O3 0.310596 0.106883 0.851971
O O4 0.415634 0.000000 0.750000
O O5 0.500000 0.500000 0.630423
O O6 0.397873 0.500000 0.750000
O O7 0.346916 0.595757 0.609924
O O8 0.263415 0.623089 0.900437
O O9 0.266864 0.080048 0.000000
#
# Coordination Sequence:
#
# PCOD8275405 Si02
#       4
#    16  16   8  16
#     4  10  19  36  62  86 117 153 206 255 294 349
#     4  11  21  37  58  84 119 162 202 239 294 371
#     4  10  17  36  59  84 112 158 200 250 297 352
#     4  11  21  34  59  91 123 154 197 254 310 351
#
# _framework density 21.228724
#
# number of rings (size 3 to 8) (size 9 to 14) (size 15 to 20)
#    0.000    1.429    5.714    1.286    0.000    2.857 
#    0.000    2.857    0.000    0.000    0.000    6.000 
#    0.000    0.000    0.000    0.000    0.000    0.000 
#
# Total GULP energy -346919.037116 kJ/mol
# GULP energy per Si atom -12389.965611 kJ/mol
# Density = 2.118041 g / cm^3
# Si number density = 21.228724 Si / 1000 Ang^3
#
#
#
# Elastic Constant Matrix: (Units=GPa)
#
#
# Indices 1 2 3 4 5 6 
#
# 1 53.3598 46.4499 18.1936 0.0000 0.0000 0.0000
# 2 46.4499 194.7618 15.0128 0.0000 0.0000 0.0000
# 3 18.1936 15.0128 93.4618 0.0000 0.0000 0.0000
# 4 0.0000 0.0000 0.0000 198.4746 0.0000 0.0000
# 5 0.0000 0.0000 0.0000 0.0000 -19.2721 0.0000
# 6 0.0000 0.0000 0.0000 0.0000 0.0000 16.3905
#
#
#
# Elastic Compliance Matrix: (Units=1/GPa)
#
#
# Indices 1 2 3 4 5 6 
#
# 1 0.025020 -0.005662 -0.003961 0.000000 0.000000 0.000000
# 2 -0.005662 0.006480 0.000061 0.000000 0.000000 0.000000
# 3 -0.003961 0.000061 0.011461 0.000000 0.000000 0.000000
# 4 0.000000 0.000000 0.000000 0.005038 0.000000 0.000000
# 5 0.000000 0.000000 0.000000 0.000000 -0.051889 0.000000
# 6 0.000000 0.000000 0.000000 0.000000 0.000000 0.061011
#
#
# Mechanical properties :
#
#
# Convention : Reuss Voigt Hill
#
# Bulk Modulus (GPa) = 41.95049 55.65510 48.80280
# Shear Modulus (GPa) = 59.38904 56.58042 57.98473
#
# Velocity S-wave (km/s) = 5.29495 5.16823 5.23198
# Velocity P-wave (km/s) = 7.56215 7.86689 7.71603
#
# Compressibility (1/GPa) = 0.02383762
#
# Stress axis : x y z
#
# Youngs Moduli (GPa) = 39.96818 154.31919 87.25406
#
# Poissons Ratio (x) = 0.87373 0.34561
# Poissons Ratio (y) = 0.22629 -0.00534
# Poissons Ratio (z) = 0.15831 -0.00945
#
# Static dielectric constant tensor:
#      x y z
#    x 3.482320 0.000000 0.000000 
#    y 0.000000 4.606360 0.000000 
#    z 0.000000 0.000000 3.489740 
# 
# 
# High freq. dielectric constant tensor:
#      x y z
#    x 1.801030 0.000000 0.000000 
#    y 0.000000 1.871420 0.000000 
#    z 0.000000 0.000000 1.798500 
# 
# From -- ./inp_files/36088.got.cif
#   From: 2010.03.12/outbox.cif.g09.slc.cpg/sg66_19_cif.got.tgz:36088.got - 2010.04.10 21:57:39.
