data_PCOD8275415
_publ_section_title
;
Structure prediction by ZEFSAII (Michael W. Deem and Ramdas Pophale) SiO2 
 PCOD8275415
Probable space group: C C C M
;
_chemical_formula_sum "Si O2"
_cell_formula_units_Z 96
_cell_length_a 9.881039
_cell_length_b 17.040907
_cell_length_c 28.058209
_cell_angle_alpha 90.000000
_cell_angle_beta 90.000000
_cell_angle_gamma 90.000000
_cell_volume 4724.493607
_symmetry_space_group_name_H-M "C C C M"
_symmetry_group_IT_number 66
_symmetry_cell_setting 'orthorhombic'
loop_
_space_group_symop_operation_xyz
x,y,z
-x,-y,z
x,-y,1/2-z
-x,y,1/2-z
-x,-y,-z
x,y,-z
-x,y,1/2+z
x,-y,1/2+z
1/2+x,1/2+y,z
1/2-x,1/2-y,z
1/2+x,1/2-y,1/2-z
1/2-x,1/2+y,1/2-z
1/2-x,1/2-y,-z
1/2+x,1/2+y,-z
1/2-x,1/2+y,1/2+z
1/2+x,1/2-y,1/2+z
loop_
_atom_site_type_symbol
_atom_site_label
_atom_site_fract_x
_atom_site_fract_y
_atom_site_fract_z
Si Si1 0.837024 0.176650 0.747654
Si Si2 0.268016 0.575003 0.167109
Si Si3 0.521231 0.092507 0.103036
Si Si4 0.910856 0.423153 0.000000
Si Si5 0.596454 0.424737 0.000000
Si Si6 0.247458 0.890978 0.350364
Si Si7 0.993574 0.907479 0.596517
O O1 0.750000 0.250000 0.767378
O O2 0.786536 0.102282 0.778575
O O3 0.786848 0.163399 0.694040
O O4 0.000000 0.189405 0.750000
O O5 0.138672 0.611772 0.140691
O O6 0.261287 0.481150 0.166362
O O7 0.396722 0.611674 0.140452
O O8 0.389553 0.132821 0.125952
O O9 0.500000 0.000000 0.098751
O O10 0.555464 0.124434 0.049313
O O11 0.753860 0.449347 0.000000
O O12 0.000000 0.500000 0.000000
O O13 0.500000 0.500000 0.000000
O O14 0.563889 0.372278 0.953126
O O15 0.140369 0.872987 0.392156
O O16 0.000000 0.000000 0.589406
#
# Coordination Sequence:
#
# PCOD8275415 Si02
#       7
#    16  16  16   8   8  16  16
#     4  12  27  42  59  83 113 147 189 239 293 345
#     4  10  19  37  60  84 112 151 191 233 278 332
#     4   9  19  31  52  83 121 152 183 227 283 339
#     4  10  18  28  44  78 125 156 179 223 291 338
#     4  10  18  26  46  80 119 154 188 232 274 333
#     4  10  21  37  59  86 112 151 194 233 281 334
#     4   9  17  29  51  81 114 144 188 232 276 322
#
# _framework density 20.319638000000001
#
# number of rings (size 3 to 8) (size 9 to 14) (size 15 to 20)
#    0.000    2.000    3.333    0.500    9.333    0.667 
#    0.000    2.500    0.000    0.000    0.000    7.000 
#    0.000    0.000    0.000    0.000    0.000    0.000 
#
# Total GULP energy -594819.000632 kJ/mol
# GULP energy per Si atom -12392.062513 kJ/mol
# Density = 2.027339 g / cm^3
# Si number density = 20.319638 Si / 1000 Ang^3
#
#
#
# Elastic Constant Matrix: (Units=GPa)
#
#
# Indices 1 2 3 4 5 6 
#
# 1 171.1216 19.6702 55.1576 0.0000 0.0000 0.0000
# 2 19.6702 26.6751 12.6202 0.0000 0.0000 0.0000
# 3 55.1576 12.6202 128.8505 0.0000 0.0000 0.0000
# 4 0.0000 0.0000 0.0000 4.0508 0.0000 0.0000
# 5 0.0000 0.0000 0.0000 0.0000 34.7558 0.0000
# 6 0.0000 0.0000 0.0000 0.0000 0.0000 15.7673
#
#
#
# Elastic Compliance Matrix: (Units=1/GPa)
#
#
# Indices 1 2 3 4 5 6 
#
# 1 0.007168 -0.004020 -0.002675 0.000000 0.000000 0.000000
# 2 -0.004020 0.041565 -0.002350 0.000000 0.000000 0.000000
# 3 -0.002675 -0.002350 0.009136 0.000000 0.000000 0.000000
# 4 0.000000 0.000000 0.000000 0.246867 0.000000 0.000000
# 5 0.000000 0.000000 0.000000 0.000000 0.028772 0.000000
# 6 0.000000 0.000000 0.000000 0.000000 0.000000 0.063422
#
#
# Mechanical properties :
#
#
# Convention : Reuss Voigt Hill
#
# Bulk Modulus (GPa) = 25.13914 55.72703 40.43308
# Shear Modulus (GPa) = 11.67461 26.86138 19.26799
#
# Velocity S-wave (km/s) = 2.39957 3.63980 3.08270
# Velocity P-wave (km/s) = 4.48062 6.71929 5.71073
#
# Compressibility (1/GPa) = 0.03977861
#
# Stress axis : x y z
#
# Youngs Moduli (GPa) = 139.50780 24.05896 109.45620
#
# Poissons Ratio (x) = 0.09672 0.29276
# Poissons Ratio (y) = 0.56086 0.25723
# Poissons Ratio (z) = 0.37314 0.05654
#
# Static dielectric constant tensor:
#      x y z
#    x 3.752640 0.000000 0.000000 
#    y 0.000000 2.985920 0.000000 
#    z 0.000000 0.000000 4.268840 
# 
# 
# High freq. dielectric constant tensor:
#      x y z
#    x 1.813390 0.000000 0.000000 
#    y 0.000000 1.718990 0.000000 
#    z 0.000000 0.000000 1.816340 
# 
# From -- ./inp_files/62806.got.cif
#   From: 2010.03.12/outbox.cif.g09.slc.cpg/sg66_32_cif.got.tgz:62806.got - 2010.04.10 21:57:39.
