data_PCOD8275754
_publ_section_title
;
Structure prediction by ZEFSAII (Michael W. Deem and Ramdas Pophale) SiO2 
 PCOD8275754
Probable space group: C C C M
;
_chemical_formula_sum "Si O2"
_cell_formula_units_Z 96
_cell_length_a 24.712461
_cell_length_b 25.234350
_cell_length_c 9.233931
_cell_angle_alpha 90.000000
_cell_angle_beta 90.000000
_cell_angle_gamma 90.000000
_cell_volume 5758.306060
_symmetry_space_group_name_H-M "C C C M"
_symmetry_group_IT_number 66
_symmetry_cell_setting 'orthorhombic'
loop_
_space_group_symop_operation_xyz
x,y,z
-x,-y,z
x,-y,1/2-z
-x,y,1/2-z
-x,-y,-z
x,y,-z
-x,y,1/2+z
x,-y,1/2+z
1/2+x,1/2+y,z
1/2-x,1/2-y,z
1/2+x,1/2-y,1/2-z
1/2-x,1/2+y,1/2-z
1/2-x,1/2-y,-z
1/2+x,1/2+y,-z
1/2-x,1/2+y,1/2+z
1/2+x,1/2-y,1/2+z
loop_
_atom_site_type_symbol
_atom_site_label
_atom_site_fract_x
_atom_site_fract_y
_atom_site_fract_z
Si Si1 0.447416 0.748099 0.664396
Si Si2 0.948572 0.877252 0.836838
Si Si3 0.114182 0.048278 0.660174
Si Si4 0.338058 0.246519 0.329841
Si Si5 0.740451 0.451053 0.159986
Si Si6 0.244203 0.166010 0.330227
O O1 0.500000 0.770236 0.750000
O O2 0.448223 0.770271 0.500000
O O3 0.448686 0.685338 0.663192
O O4 0.392766 0.765879 0.743945
O O5 0.896205 0.897704 0.749452
O O6 0.000000 0.899920 0.750000
O O7 0.948492 0.899488 0.000000
O O8 0.088111 0.051892 0.500000
O O9 0.177298 0.038719 0.644788
O O10 0.087389 0.000000 0.750000
O O11 0.351208 0.251689 0.500000
O O12 0.299525 0.196646 0.298373
O O13 0.307281 0.299711 0.272225
O O14 0.766597 0.500000 0.250000
O O15 0.748892 0.393317 0.237113
O O16 0.767347 0.451711 0.000000
O O17 0.234163 0.159318 0.500000
#
# Coordination Sequence:
#
# PCOD8275754 Si02
#       6
#    16  16  16  16  16  16
#     4  10  20  32  46  65  89 116 146 182 222 265
#     4  10  20  32  44  58  77 103 138 178 219 260
#     4  10  19  30  44  60  79 105 139 179 220 259
#     4   9  16  29  49  69  90 119 153 187 224 268
#     4   9  17  29  44  63  87 115 146 178 213 257
#     4   8  15  28  47  69  92 120 152 184 223 271
#
# _framework density 16.671569999999999
#
# number of rings (size 3 to 8) (size 9 to 14) (size 15 to 20)
#    0.000    2.667    0.000    3.500    0.000    4.333 
#    0.000    5.000    0.000    0.000    0.000    0.000 
#    0.000    0.667    0.000    7.667    0.000    2.333 
#
# Total GULP energy -594856.940752 kJ/mol
# GULP energy per Si atom -12392.852932 kJ/mol
# Density = 1.663363 g / cm^3
# Si number density = 16.671570 Si / 1000 Ang^3
#
#
#
# Elastic Constant Matrix: (Units=GPa)
#
#
# Indices 1 2 3 4 5 6 
#
# 1 73.4201 16.1340 33.6740 0.0000 0.0000 0.0000
# 2 16.1340 84.0381 24.5268 0.0000 0.0000 0.0000
# 3 33.6740 24.5268 97.5875 0.0000 0.0000 0.0000
# 4 0.0000 0.0000 0.0000 19.7653 0.0000 0.0000
# 5 0.0000 0.0000 0.0000 0.0000 21.8653 0.0000
# 6 0.0000 0.0000 0.0000 0.0000 0.0000 18.9224
#
#
#
# Elastic Compliance Matrix: (Units=1/GPa)
#
#
# Indices 1 2 3 4 5 6 
#
# 1 0.016381 -0.001614 -0.005247 0.000000 0.000000 0.000000
# 2 -0.001614 0.013000 -0.002711 0.000000 0.000000 0.000000
# 3 -0.005247 -0.002711 0.012739 0.000000 0.000000 0.000000
# 4 0.000000 0.000000 0.000000 0.050594 0.000000 0.000000
# 5 0.000000 0.000000 0.000000 0.000000 0.045734 0.000000
# 6 0.000000 0.000000 0.000000 0.000000 0.000000 0.052847
#
#
# Mechanical properties :
#
#
# Convention : Reuss Voigt Hill
#
# Bulk Modulus (GPa) = 43.51955 44.85724 44.18840
# Shear Modulus (GPa) = 22.92546 24.15801 23.54174
#
# Velocity S-wave (km/s) = 3.71229 3.81077 3.76185
# Velocity P-wave (km/s) = 6.67349 6.80643 6.74029
#
# Compressibility (1/GPa) = 0.02297818
#
# Stress axis : x y z
#
# Youngs Moduli (GPa) = 61.04481 76.92170 78.49873
#
# Poissons Ratio (x) = 0.12412 0.41189
# Poissons Ratio (y) = 0.09850 0.21278
# Poissons Ratio (z) = 0.32031 0.20850
#
# Static dielectric constant tensor:
#      x y z
#    x 2.900000 0.000000 0.000000 
#    y 0.000000 3.132620 0.000000 
#    z 0.000000 0.000000 3.340240 
# 
# 
# High freq. dielectric constant tensor:
#      x y z
#    x 1.611130 0.000000 0.000000 
#    y 0.000000 1.619410 0.000000 
#    z 0.000000 0.000000 1.638090 
# 
# From -- ./inp_files/7946.got.cif
#   From: 2010.03.12/outbox.cif.g09.slc.cpg/sg66_4_cif.got.tgz:7946.got - 2010.04.10 21:57:39.
