data_PCOD8275202
_publ_section_title
;
Structure prediction by ZEFSAII (Michael W. Deem and Ramdas Pophale) SiO2 
 PCOD8275202
Probable space group: C M M M
;
_chemical_formula_sum "Si O2"
_cell_formula_units_Z 40
_cell_length_a 24.000000
_cell_length_b 21.000000
_cell_length_c 9.000000
_cell_angle_alpha 90.000000
_cell_angle_beta 90.000000
_cell_angle_gamma 90.000000
_cell_volume 4536.000000
_symmetry_space_group_name_H-M "C M M M"
_symmetry_group_IT_number 65
_symmetry_cell_setting 'orthorhombic'
loop_
_space_group_symop_operation_xyz
x,y,z
-x,-y,z
x,-y,-z
-x,y,-z
-x,-y,-z
x,y,-z
-x,y,z
x,-y,z
1/2+x,1/2+y,z
1/2-x,1/2-y,z
1/2+x,1/2-y,-z
1/2-x,1/2+y,-z
1/2-x,1/2-y,-z
1/2+x,1/2+y,-z
1/2-x,1/2+y,z
1/2+x,1/2-y,z
loop_
_atom_site_type_symbol
_atom_site_label
_atom_site_fract_x
_atom_site_fract_y
_atom_site_fract_z
Si Si1 0.185387 0.823153 0.824603
Si Si2 0.500000 0.424655 0.834401
Si Si3 0.188144 0.317014 0.824656
Si Si4 0.388969 0.573271 0.675110
Si Si5 0.110645 0.427703 0.823760
Si Si6 0.500000 0.075103 0.664314
O O1 0.162339 0.752413 0.780382
O O2 0.248946 0.823799 0.770958
O O3 0.158336 0.880203 0.733662
O O4 0.178305 0.836142 0.000000
O O5 0.500000 0.500000 0.842079
O O6 0.554126 0.401185 0.747152
O O7 0.500000 0.395092 0.000000
O O8 0.155111 0.377438 0.758770
O O9 0.187206 0.320936 0.000000
O O10 0.394709 0.578879 0.500000
O O11 0.375834 0.500000 0.721578
O O12 0.125913 0.500000 0.772913
O O13 0.053351 0.402683 0.755606
O O14 0.105558 0.425027 0.000000
O O15 0.500000 0.106086 0.500000
O O16 0.500000 0.000000 0.650445
#
# Coordination Sequence:
#
# PCOD8275202 Si02
#       6
#    16   8  16  16  16   8
#     4   9  17  32  52  71  95 128 164 198 234 281
#     4   9  17  31  52  75  96 123 161 199 238 287
#     4   8  16  31  50  72  97 125 159 201 241 274
#     4  10  20  33  49  72 102 130 157 196 244 289
#     4   9  16  28  48  71  93 120 155 192 232 279
#     4   9  17  29  44  65  94 123 151 189 236 279
#
# _framework density 8.8183419999999995
#
# number of rings (size 3 to 8) (size 9 to 14) (size 15 to 20)
#    0.000    3.000    0.000    2.400    0.000    4.400 
#    0.000    7.000    0.000    4.800    0.000    0.000 
#    0.000    0.000    0.000    0.000    0.000    0.000 
#
# Total GULP energy -495669.130988 kJ/mol
# GULP energy per Si atom -12391.728275 kJ/mol
# Density = 0.879827 g / cm^3
# Si number density = 8.818342 Si / 1000 Ang^3
#
#
#
# Elastic Constant Matrix: (Units=GPa)
#
#
# Indices 1 2 3 4 5 6 
#
# 1 87.1123 69.9789 30.4312 0.0000 0.0000 0.0000
# 2 69.9789 121.7166 38.8183 0.0000 0.0000 0.0000
# 3 30.4312 38.8183 53.3282 0.0000 0.0000 0.0000
# 4 0.0000 0.0000 0.0000 19.1508 0.0000 0.0000
# 5 0.0000 0.0000 0.0000 0.0000 -13.1066 0.0000
# 6 0.0000 0.0000 0.0000 0.0000 0.0000 0.5021
#
#
#
# Elastic Compliance Matrix: (Units=1/GPa)
#
#
# Indices 1 2 3 4 5 6 
#
# 1 0.022089 -0.011304 -0.004377 0.000000 0.000000 0.000000
# 2 -0.011304 0.016484 -0.005549 0.000000 0.000000 0.000000
# 3 -0.004377 -0.005549 0.025288 0.000000 0.000000 0.000000
# 4 0.000000 0.000000 0.000000 0.052217 0.000000 0.000000
# 5 0.000000 0.000000 0.000000 0.000000 -0.076298 0.000000
# 6 0.000000 0.000000 0.000000 0.000000 0.000000 1.991621
#
#
# Mechanical properties :
#
#
# Convention : Reuss Voigt Hill
#
# Bulk Modulus (GPa) = 46.72210 60.06821 53.39515
# Shear Modulus (GPa) = 2.40270 9.50452 5.95361
#
# Velocity S-wave (km/s) = 1.16845 2.32395 1.83930
# Velocity P-wave (km/s) = 5.32629 6.42912 5.90351
#
# Compressibility (1/GPa) = 0.02140315
#
# Stress axis : x y z
#
# Youngs Moduli (GPa) = 45.27156 60.66341 39.54401
#
# Poissons Ratio (x) = 0.68573 0.17307
# Poissons Ratio (y) = 0.51174 0.21942
# Poissons Ratio (z) = 0.19814 0.33661
#
# Static dielectric constant tensor:
#      x y z
#    x 3.656770 0.000000 0.000000 
#    y 0.000000 3.540490 0.000000 
#    z 0.000000 0.000000 3.120760 
# 
# 
# High freq. dielectric constant tensor:
#      x y z
#    x 1.670650 0.000000 0.000000 
#    y 0.000000 1.676710 0.000000 
#    z 0.000000 0.000000 1.662180 
# 
# From -- ./inp_files/13822.got.cif
#   From: 2010.03.12/outbox.ucp.g09.slc.cvg/sg65_7_cif.got.tgz:13822.got - 2010.05.04 19:44:54.
