data_PCOD8275188
_publ_section_title
;
Structure prediction by ZEFSAII (Michael W. Deem and Ramdas Pophale) SiO2 
 PCOD8275188
Probable space group: C M M M
;
_chemical_formula_sum "Si O2"
_cell_formula_units_Z 120
_cell_length_a 23.238822
_cell_length_b 29.187216
_cell_length_c 9.933100
_cell_angle_alpha 90.000000
_cell_angle_beta 90.000000
_cell_angle_gamma 90.000000
_cell_volume 6737.388474
_symmetry_space_group_name_H-M "C M M M"
_symmetry_group_IT_number 65
_symmetry_cell_setting 'orthorhombic'
loop_
_space_group_symop_operation_xyz
x,y,z
-x,-y,z
x,-y,-z
-x,y,-z
-x,-y,-z
x,y,-z
-x,y,z
x,-y,z
1/2+x,1/2+y,z
1/2-x,1/2-y,z
1/2+x,1/2-y,-z
1/2-x,1/2+y,-z
1/2-x,1/2-y,-z
1/2+x,1/2+y,-z
1/2-x,1/2+y,z
1/2+x,1/2-y,z
loop_
_atom_site_type_symbol
_atom_site_label
_atom_site_fract_x
_atom_site_fract_y
_atom_site_fract_z
Si Si1 0.666931 0.448678 0.340652
Si Si2 0.610414 0.893234 0.158825
Si Si3 0.500000 0.948648 0.840268
Si Si4 0.110847 0.290361 0.152652
Si Si5 0.432897 0.618419 0.656389
Si Si6 0.292489 0.791601 0.355093
Si Si7 0.721008 0.106128 0.343242
Si Si8 0.434927 0.304371 0.146294
O O1 0.669217 0.450773 0.500000
O O2 0.666100 0.500000 0.279397
O O3 0.607817 0.423471 0.296512
O O4 0.724298 0.422635 0.289518
O O5 0.558046 0.924379 0.211105
O O6 0.588179 0.841238 0.186875
O O7 0.666123 0.905445 0.248722
O O8 0.624414 0.900918 0.000000
O O9 0.500000 0.000000 0.783261
O O10 0.500000 0.947328 0.000000
O O11 0.165424 0.277509 0.238718
O O12 0.065730 0.249798 0.183804
O O13 0.131616 0.289333 0.000000
O O14 0.423520 0.630042 0.500000
O O15 0.500000 0.605891 0.684178
O O16 0.409587 0.662978 0.737598
O O17 0.324521 0.796207 0.500000
O O18 0.250000 0.750000 0.363507
O O19 0.262106 0.840415 0.325158
O O20 0.706807 0.094462 0.500000
O O21 0.500000 0.319444 0.131455
O O22 0.404229 0.312395 0.000000
#
# Coordination Sequence:
#
# PCOD8275188 Si02
#       8
#    16  16   8  16  16  16  16  16
#     4   9  18  32  52  76  99 128 166 206 249 294
#     4   9  18  33  52  73 100 131 164 205 247 292
#     4   9  18  32  53  79 101 127 165 207 254 299
#     4   9  18  30  46  70  96 127 163 199 240 285
#     4   9  18  32  51  75 101 128 163 206 248 292
#     4   9  18  30  46  68  94 129 164 195 238 290
#     4   9  18  33  50  70  99 132 165 201 244 295
#     4   9  18  31  47  69  98 130 162 196 241 295
#
# _framework density 17.811055
#
# number of rings (size 3 to 8) (size 9 to 14) (size 15 to 20)
#    0.000    3.000    0.000    0.000    2.800    1.600 
#    0.000    2.333    0.000    1.600    0.000    1.867 
#    0.000    0.000    0.000    0.000    0.000    0.000 
#
# Total GULP energy -743321.571488 kJ/mol
# GULP energy per Si atom -12388.692858 kJ/mol
# Density = 1.777052 g / cm^3
# Si number density = 17.811055 Si / 1000 Ang^3
#
#
#
# Elastic Constant Matrix: (Units=GPa)
#
#
# Indices 1 2 3 4 5 6 
#
# 1 103.8650 70.4431 42.5249 0.0000 0.0000 0.0000
# 2 70.4431 132.0170 47.9214 0.0000 0.0000 0.0000
# 3 42.5249 47.9214 53.4097 0.0000 0.0000 0.0000
# 4 0.0000 0.0000 0.0000 24.9958 0.0000 0.0000
# 5 0.0000 0.0000 0.0000 0.0000 22.3199 0.0000
# 6 0.0000 0.0000 0.0000 0.0000 0.0000 30.5940
#
#
#
# Elastic Compliance Matrix: (Units=1/GPa)
#
#
# Indices 1 2 3 4 5 6 
#
# 1 0.017154 -0.006222 -0.008076 0.000000 0.000000 0.000000
# 2 -0.006222 0.013490 -0.007150 0.000000 0.000000 0.000000
# 3 -0.008076 -0.007150 0.031568 0.000000 0.000000 0.000000
# 4 0.000000 0.000000 0.000000 0.040007 0.000000 0.000000
# 5 0.000000 0.000000 0.000000 0.000000 0.044803 0.000000
# 6 0.000000 0.000000 0.000000 0.000000 0.000000 0.032686
#
#
# Mechanical properties :
#
#
# Convention : Reuss Voigt Hill
#
# Bulk Modulus (GPa) = 51.76651 67.89673 59.83162
# Shear Modulus (GPa) = 21.83002 24.14210 22.98606
#
# Velocity S-wave (km/s) = 3.50472 3.68565 3.59632
# Velocity P-wave (km/s) = 6.74572 7.50435 7.13513
#
# Compressibility (1/GPa) = 0.01931751
#
# Stress axis : x y z
#
# Youngs Moduli (GPa) = 58.29557 74.12833 31.67734
#
# Poissons Ratio (x) = 0.46121 0.25581
# Poissons Ratio (y) = 0.36270 0.22649
# Poissons Ratio (z) = 0.47077 0.53002
#
# Static dielectric constant tensor:
#      x y z
#    x 3.190100 0.000000 0.000000 
#    y 0.000000 3.530410 0.000000 
#    z 0.000000 0.000000 3.424720 
# 
# 
# High freq. dielectric constant tensor:
#      x y z
#    x 1.671770 0.000000 0.000000 
#    y 0.000000 1.695360 0.000000 
#    z 0.000000 0.000000 1.670960 
# 
# From -- ./inp_files/29683.got.cif
#   From: 2010.03.12/outbox.cif.g09.slc.cpg/sg65_15_cif.got.tgz:29683.got - 2010.04.10 20:52:16.
