data_PCOD8275143
_publ_section_title
;
Structure prediction by ZEFSAII (Michael W. Deem and Ramdas Pophale) SiO2 
 PCOD8275143
Probable space group: C M M M
;
_chemical_formula_sum "Si O2"
_cell_formula_units_Z 72
_cell_length_a 30.799797
_cell_length_b 8.080901
_cell_length_c 19.448559
_cell_angle_alpha 90.000000
_cell_angle_beta 90.000000
_cell_angle_gamma 90.000000
_cell_volume 4840.553996
_symmetry_space_group_name_H-M "C M M M"
_symmetry_group_IT_number 65
_symmetry_cell_setting 'orthorhombic'
loop_
_space_group_symop_operation_xyz
x,y,z
-x,-y,z
x,-y,-z
-x,y,-z
-x,-y,-z
x,y,-z
-x,y,z
x,-y,z
1/2+x,1/2+y,z
1/2-x,1/2-y,z
1/2+x,1/2-y,-z
1/2-x,1/2+y,-z
1/2-x,1/2-y,-z
1/2+x,1/2+y,-z
1/2-x,1/2+y,z
1/2+x,1/2-y,z
loop_
_atom_site_type_symbol
_atom_site_label
_atom_site_fract_x
_atom_site_fract_y
_atom_site_fract_z
Si Si1 0.614079 0.808994 0.076089
Si Si2 0.551788 0.000000 0.421723
Si Si3 0.294928 0.315579 0.918569
Si Si4 0.450299 0.804668 0.190540
Si Si5 0.051444 0.184047 0.661385
O O1 0.663073 0.788500 0.105029
O O2 0.579416 0.731804 0.129036
O O3 0.603278 0.000000 0.068890
O O4 0.609534 0.725230 0.000000
O O5 0.570495 0.167768 0.386090
O O6 0.500000 0.000000 0.416454
O O7 0.567918 0.000000 0.500000
O O8 0.302453 0.500000 0.892089
O O9 0.250000 0.250000 0.885182
O O10 0.290401 0.305878 0.000000
O O11 0.500000 0.761962 0.172471
O O12 0.434934 0.715238 0.259952
O O13 0.444000 0.000000 0.201243
O O14 0.000000 0.189002 0.655140
O O15 0.068355 0.000000 0.638949
#
# Coordination Sequence:
#
# PCOD8275143 Si02
#       5
#    16   8  16  16  16
#     4   9  17  27  39  57  78 100 133 175 211 246
#     4   9  16  26  40  58  79  99 125 165 204 238
#     4   9  16  26  40  55  72  94 120 157 205 252
#     4   9  16  27  41  54  75 108 141 174 208 242
#     4   9  16  26  40  56  75 102 134 165 199 242
#
# _framework density 14.87433
#
# number of rings (size 3 to 8) (size 9 to 14) (size 15 to 20)
#    0.000    3.000    1.111    0.667    0.000    4.444 
#    0.000    4.444    0.000    0.000    0.000    6.222 
#    0.000    0.000    0.000    0.000    0.000    1.111 
#
# Total GULP energy -446079.394322 kJ/mol
# GULP energy per Si atom -12391.094287 kJ/mol
# Density = 1.484048 g / cm^3
# Si number density = 14.874330 Si / 1000 Ang^3
#
#
#
# Elastic Constant Matrix: (Units=GPa)
#
#
# Indices 1 2 3 4 5 6 
#
# 1 58.0660 18.5729 41.3574 0.0000 0.0000 0.0000
# 2 18.5729 76.3783 43.6687 0.0000 0.0000 0.0000
# 3 41.3574 43.6687 83.2228 0.0000 0.0000 0.0000
# 4 0.0000 0.0000 0.0000 10.9124 0.0000 0.0000
# 5 0.0000 0.0000 0.0000 0.0000 1.4217 0.0000
# 6 0.0000 0.0000 0.0000 0.0000 0.0000 13.9450
#
#
#
# Elastic Compliance Matrix: (Units=1/GPa)
#
#
# Indices 1 2 3 4 5 6 
#
# 1 0.026788 0.001567 -0.014134 0.000000 0.000000 0.000000
# 2 0.001567 0.018796 -0.010641 0.000000 0.000000 0.000000
# 3 -0.014134 -0.010641 0.024624 0.000000 0.000000 0.000000
# 4 0.000000 0.000000 0.000000 0.091639 0.000000 0.000000
# 5 0.000000 0.000000 0.000000 0.000000 0.703380 0.000000
# 6 0.000000 0.000000 0.000000 0.000000 0.000000 0.071710
#
#
# Mechanical properties :
#
#
# Convention : Reuss Voigt Hill
#
# Bulk Modulus (GPa) = 42.03424 47.20723 44.62073
# Shear Modulus (GPa) = 5.04397 12.86038 8.95217
#
# Velocity S-wave (km/s) = 1.84348 2.94360 2.45593
# Velocity P-wave (km/s) = 5.73168 6.58478 6.17299
#
# Compressibility (1/GPa) = 0.02379013
#
# Stress axis : x y z
#
# Youngs Moduli (GPa) = 37.33056 53.20365 40.61117
#
# Poissons Ratio (x) = -0.08339 0.57402
# Poissons Ratio (y) = -0.05851 0.43216
# Poissons Ratio (z) = 0.52765 0.56616
#
# Static dielectric constant tensor:
#      x y z
#    x 2.690730 0.000000 0.000000 
#    y 0.000000 3.017300 0.000000 
#    z 0.000000 0.000000 2.798880 
# 
# 
# High freq. dielectric constant tensor:
#      x y z
#    x 1.525440 0.000000 0.000000 
#    y 0.000000 1.577760 0.000000 
#    z 0.000000 0.000000 1.534180 
# 
# From -- ./inp_files/65625.got.cif
#   From: 2010.03.12/outbox.cif.g09.slc.cpg/sg65_33_cif.got.tgz:65625.got - 2010.04.10 20:52:16.
