data_PCOD8275222
_publ_section_title
;
Structure prediction by ZEFSAII (Michael W. Deem and Ramdas Pophale) SiO2 
 PCOD8275222
Probable space group: C C C M
;
_chemical_formula_sum "Si O2"
_cell_formula_units_Z 96
_cell_length_a 27.368940
_cell_length_b 13.557400
_cell_length_c 17.467082
_cell_angle_alpha 90.000000
_cell_angle_beta 90.000000
_cell_angle_gamma 90.000000
_cell_volume 6481.189896
_symmetry_space_group_name_H-M "C C C M"
_symmetry_group_IT_number 66
_symmetry_cell_setting 'orthorhombic'
loop_
_space_group_symop_operation_xyz
x,y,z
-x,-y,z
x,-y,1/2-z
-x,y,1/2-z
-x,-y,-z
x,y,-z
-x,y,1/2+z
x,-y,1/2+z
1/2+x,1/2+y,z
1/2-x,1/2-y,z
1/2+x,1/2-y,1/2-z
1/2-x,1/2+y,1/2-z
1/2-x,1/2-y,-z
1/2+x,1/2+y,-z
1/2-x,1/2+y,1/2+z
1/2+x,1/2-y,1/2+z
loop_
_atom_site_type_symbol
_atom_site_label
_atom_site_fract_x
_atom_site_fract_y
_atom_site_fract_z
Si Si1 0.857859 0.408227 0.697857
Si Si2 0.703484 0.029176 0.088608
Si Si3 0.143210 0.299093 0.655916
Si Si4 0.559105 0.899857 0.086808
Si Si5 0.450621 0.867666 0.086685
Si Si6 0.288254 0.338368 0.414778
O O1 0.876729 0.500000 0.750000
O O2 0.812038 0.439942 0.644620
O O3 0.842139 0.322287 0.756333
O O4 0.900208 0.361450 0.645386
O O5 0.665902 0.119937 0.098139
O O6 0.758579 0.063679 0.111803
O O7 0.701248 0.995271 0.000000
O O8 0.084624 0.303514 0.642008
O O9 0.165385 0.190370 0.638238
O O10 0.506990 0.854992 0.112529
O O11 0.561586 0.017429 0.091616
O O12 0.570981 0.866490 0.000000
O O13 0.443985 0.829787 0.000000
O O14 0.308509 0.355136 0.500000
O O15 0.250000 0.250000 0.412975
#
# Coordination Sequence:
#
# PCOD8275222 Si02
#       6
#    16  16  16  16  16  16
#     4  10  17  22  30  47  67  85 108 146 180 204
#     4   9  15  24  35  46  61  83 110 143 180 216
#     4  10  16  22  31  48  66  81 108 147 183 210
#     4   9  16  24  30  39  58  88 115 137 167 196
#     4   9  15  22  32  41  57  86 115 141 167 195
#     4   8  14  23  36  47  59  82 109 142 182 216
#
# _framework density 14.812096
#
# number of rings (size 3 to 8) (size 9 to 14) (size 15 to 20)
#    0.000    2.833    3.333    4.000    0.000    0.667 
#    0.000    0.000    0.000    0.000    0.000    0.000 
#    0.000  102.667    0.000    0.000    0.000    0.000 
#
# Total GULP energy -594697.061507 kJ/mol
# GULP energy per Si atom -12389.522115 kJ/mol
# Density = 1.477838 g / cm^3
# Si number density = 14.812096 Si / 1000 Ang^3
#
#
#
# Elastic Constant Matrix: (Units=GPa)
#
#
# Indices 1 2 3 4 5 6 
#
# 1 97.1300 34.8922 56.2952 0.0000 0.0000 0.0000
# 2 34.8922 19.1387 28.8942 0.0000 0.0000 0.0000
# 3 56.2952 28.8942 97.9134 0.0000 0.0000 0.0000
# 4 0.0000 0.0000 0.0000 8.5073 0.0000 0.0000
# 5 0.0000 0.0000 0.0000 0.0000 14.0261 0.0000
# 6 0.0000 0.0000 0.0000 0.0000 0.0000 15.5453
#
#
#
# Elastic Compliance Matrix: (Units=1/GPa)
#
#
# Indices 1 2 3 4 5 6 
#
# 1 0.030052 -0.051765 -0.002002 0.000000 0.000000 0.000000
# 2 -0.051765 0.183399 -0.024359 0.000000 0.000000 0.000000
# 3 -0.002002 -0.024359 0.018553 0.000000 0.000000 0.000000
# 4 0.000000 0.000000 0.000000 0.117546 0.000000 0.000000
# 5 0.000000 0.000000 0.000000 0.000000 0.071296 0.000000
# 6 0.000000 0.000000 0.000000 0.000000 0.000000 0.064328
#
#
# Mechanical properties :
#
#
# Convention : Reuss Voigt Hill
#
# Bulk Modulus (GPa) = 13.20110 50.48281 31.84195
# Shear Modulus (GPa) = 7.49990 13.88910 10.69450
#
# Velocity S-wave (km/s) = 2.25263 3.06549 2.68994
# Velocity P-wave (km/s) = 3.96201 6.83270 5.58495
#
# Compressibility (1/GPa) = 0.07575128
#
# Stress axis : x y z
#
# Youngs Moduli (GPa) = 33.27611 5.45260 53.90065
#
# Poissons Ratio (x) = 0.28225 0.10793
# Poissons Ratio (y) = 1.72253 1.31296
# Poissons Ratio (z) = 0.06663 0.13282
#
# Static dielectric constant tensor:
#      x y z
#    x 3.089400 0.000000 0.000000 
#    y 0.000000 2.313190 0.000000 
#    z 0.000000 0.000000 2.997150 
# 
# 
# High freq. dielectric constant tensor:
#      x y z
#    x 1.560240 0.000000 0.000000 
#    y 0.000000 1.472600 0.000000 
#    z 0.000000 0.000000 1.572940 
# 
# From -- ./inp_files/42064.got.cif
#   From: 2010.03.12/outbox.cif.g09.slc.cpg/sg66_22_cif.got.tgz:42064.got - 2010.04.10 21:57:39.
