data_PCOD8275500
_publ_section_title
;
Structure prediction by ZEFSAII (Michael W. Deem and Ramdas Pophale) SiO2 
 PCOD8275500
Probable space group: C C C M
;
_chemical_formula_sum "Si O2"
_cell_formula_units_Z 96
_cell_length_a 20.478021
_cell_length_b 29.865633
_cell_length_c 8.967158
_cell_angle_alpha 90.000000
_cell_angle_beta 90.000000
_cell_angle_gamma 90.000000
_cell_volume 5484.215730
_symmetry_space_group_name_H-M "C C C M"
_symmetry_group_IT_number 66
_symmetry_cell_setting 'orthorhombic'
loop_
_space_group_symop_operation_xyz
x,y,z
-x,-y,z
x,-y,1/2-z
-x,y,1/2-z
-x,-y,-z
x,y,-z
-x,y,1/2+z
x,-y,1/2+z
1/2+x,1/2+y,z
1/2-x,1/2-y,z
1/2+x,1/2-y,1/2-z
1/2-x,1/2+y,1/2-z
1/2-x,1/2-y,-z
1/2+x,1/2+y,-z
1/2-x,1/2+y,1/2+z
1/2+x,1/2-y,1/2+z
loop_
_atom_site_type_symbol
_atom_site_label
_atom_site_fract_x
_atom_site_fract_y
_atom_site_fract_z
Si Si1 0.617757 0.368724 0.671769
Si Si2 0.066944 0.227628 0.824731
Si Si3 0.611887 0.543510 0.666870
Si Si4 0.232480 0.455880 0.669557
Si Si5 0.267586 0.865704 0.323683
Si Si6 0.813820 0.278057 0.176292
O O1 0.616732 0.382392 0.500000
O O2 0.575435 0.325081 0.707098
O O3 0.586602 0.410465 0.759794
O O4 0.692027 0.358815 0.720979
O O5 0.124491 0.254673 0.748906
O O6 0.000000 0.243700 0.750000
O O7 0.066396 0.237872 0.000000
O O8 0.583103 0.500000 0.750000
O O9 0.585032 0.542138 0.500000
O O10 0.689682 0.542690 0.673217
O O11 0.204050 0.500000 0.750000
O O12 0.206752 0.453902 0.500000
O O13 0.206812 0.413026 0.760741
O O14 0.278739 0.863658 0.500000
O O15 0.309214 0.827451 0.243979
O O16 0.750000 0.250000 0.220833
O O17 0.823124 0.280992 0.000000
#
# Coordination Sequence:
#
# PCOD8275500 Si02
#       6
#    16  16  16  16  16  16
#     4   9  18  31  48  69  96 129 167 209 257 308
#     4  11  23  39  56  76 103 137 174 216 264 316
#     4   9  16  25  41  64  92 124 162 206 254 304
#     4   9  16  26  40  64  98 134 168 205 253 306
#     4  10  18  30  49  73 101 134 172 213 259 309
#     4  11  22  35  54  79 106 136 174 219 263 312
#
# _framework density 17.504781999999999
#
# number of rings (size 3 to 8) (size 9 to 14) (size 15 to 20)
#    0.000    2.167    1.667    2.500    0.000    6.667 
#    0.000    0.000    0.000    0.500    0.000    3.500 
#    0.000    0.667    0.000    6.667    0.000    4.333 
#
# Total GULP energy -595295.032030 kJ/mol
# GULP energy per Si atom -12401.979834 kJ/mol
# Density = 1.746494 g / cm^3
# Si number density = 17.504782 Si / 1000 Ang^3
#
#
#
# Elastic Constant Matrix: (Units=GPa)
#
#
# Indices 1 2 3 4 5 6 
#
# 1 68.5519 39.8552 45.0985 0.0000 0.0000 0.0000
# 2 39.8552 113.6271 66.9665 0.0000 0.0000 0.0000
# 3 45.0985 66.9665 116.4036 0.0000 0.0000 0.0000
# 4 0.0000 0.0000 0.0000 39.3101 0.0000 0.0000
# 5 0.0000 0.0000 0.0000 0.0000 15.6852 0.0000
# 6 0.0000 0.0000 0.0000 0.0000 0.0000 13.7443
#
#
#
# Elastic Compliance Matrix: (Units=1/GPa)
#
#
# Indices 1 2 3 4 5 6 
#
# 1 0.020617 -0.003819 -0.005791 0.000000 0.000000 0.000000
# 2 -0.003819 0.014023 -0.006588 0.000000 0.000000 0.000000
# 3 -0.005791 -0.006588 0.014624 0.000000 0.000000 0.000000
# 4 0.000000 0.000000 0.000000 0.025439 0.000000 0.000000
# 5 0.000000 0.000000 0.000000 0.000000 0.063754 0.000000
# 6 0.000000 0.000000 0.000000 0.000000 0.000000 0.072758
#
#
# Mechanical properties :
#
#
# Convention : Reuss Voigt Hill
#
# Bulk Modulus (GPa) = 59.27826 66.93588 63.10707
# Shear Modulus (GPa) = 20.06157 23.52540 21.79348
#
# Velocity S-wave (km/s) = 3.38903 3.66996 3.53229
# Velocity P-wave (km/s) = 7.01795 7.50198 7.26400
#
# Compressibility (1/GPa) = 0.01686959
#
# Stress axis : x y z
#
# Youngs Moduli (GPa) = 48.50283 71.31347 68.37965
#
# Poissons Ratio (x) = 0.27233 0.39598
# Poissons Ratio (y) = 0.18522 0.45046
# Poissons Ratio (z) = 0.28088 0.46979
#
# Static dielectric constant tensor:
#      x y z
#    x 2.882170 0.000000 0.000000 
#    y 0.000000 3.419720 0.000000 
#    z 0.000000 0.000000 3.391560 
# 
# 
# High freq. dielectric constant tensor:
#      x y z
#    x 1.615640 0.000000 0.000000 
#    y 0.000000 1.687060 0.000000 
#    z 0.000000 0.000000 1.694010 
# 
# From -- ./inp_files/7951.got.cif
#   From: 2010.03.12/outbox.cif.g09.slc.cpg/sg66_4_cif.got.tgz:7951.got - 2010.04.10 21:57:39.
