data_PCOD8275872
_publ_section_title
;
Structure prediction by ZEFSAII (Michael W. Deem and Ramdas Pophale) SiO2 
 PCOD8275872
Probable space group: C C C M
;
_chemical_formula_sum "Si O2"
_cell_formula_units_Z 96
_cell_length_a 25.733210
_cell_length_b 22.670084
_cell_length_c 9.086886
_cell_angle_alpha 90.000000
_cell_angle_beta 90.000000
_cell_angle_gamma 90.000000
_cell_volume 5301.053327
_symmetry_space_group_name_H-M "C C C M"
_symmetry_group_IT_number 66
_symmetry_cell_setting 'orthorhombic'
loop_
_space_group_symop_operation_xyz
x,y,z
-x,-y,z
x,-y,1/2-z
-x,y,1/2-z
-x,-y,-z
x,y,-z
-x,y,1/2+z
x,-y,1/2+z
1/2+x,1/2+y,z
1/2-x,1/2-y,z
1/2+x,1/2-y,1/2-z
1/2-x,1/2+y,1/2-z
1/2-x,1/2-y,-z
1/2+x,1/2+y,-z
1/2-x,1/2+y,1/2+z
1/2+x,1/2-y,1/2+z
loop_
_atom_site_type_symbol
_atom_site_label
_atom_site_fract_x
_atom_site_fract_y
_atom_site_fract_z
Si Si1 0.885559 0.667903 0.829404
Si Si2 0.945337 0.214047 0.326190
Si Si3 0.360516 0.649801 0.160974
Si Si4 0.771862 0.060806 0.827660
Si Si5 0.847108 0.561410 0.672593
Si Si6 0.804460 0.730013 0.661423
O O1 0.925753 0.719649 0.784294
O O2 0.890261 0.607800 0.734733
O O3 0.827838 0.689288 0.787826
O O4 0.889379 0.652261 0.000000
O O5 0.950639 0.208341 0.500000
O O6 0.908535 0.159836 0.272673
O O7 0.000000 0.204599 0.250000
O O8 0.314590 0.608649 0.227515
O O9 0.339395 0.714172 0.132990
O O10 0.379190 0.625502 0.000000
O O11 0.712668 0.080949 0.790614
O O12 0.785951 0.000000 0.750000
O O13 0.777589 0.050815 0.000000
O O14 0.859416 0.500000 0.750000
O O15 0.856099 0.554279 0.500000
O O16 0.798717 0.697284 0.500000
O O17 0.750000 0.750000 0.725575
#
# Coordination Sequence:
#
# PCOD8275872 Si02
#       6
#    16  16  16  16  16  16
#     4  10  20  32  47  71  99 126 160 201 245 294
#     4  10  21  36  54  75  97 123 159 204 255 304
#     4   9  17  30  48  70  97 128 162 199 241 289
#     4   9  18  31  48  72 102 137 172 202 234 279
#     4  10  19  32  50  73 103 139 174 203 235 279
#     4   9  16  27  44  66  94 128 162 195 235 287
#
# _framework density 18.109608000000001
#
# number of rings (size 3 to 8) (size 9 to 14) (size 15 to 20)
#    0.000    2.500    0.000    2.500    0.000    6.333 
#    0.000    3.333    0.000    1.000    0.000    7.000 
#    0.000    0.000    0.000    0.000    0.000    0.000 
#
# Total GULP energy -594633.972086 kJ/mol
# GULP energy per Si atom -12388.207752 kJ/mol
# Density = 1.806839 g / cm^3
# Si number density = 18.109608 Si / 1000 Ang^3
#
#
#
# Elastic Constant Matrix: (Units=GPa)
#
#
# Indices 1 2 3 4 5 6 
#
# 1 34.9119 -5.0569 15.0782 0.0000 0.0000 0.0000
# 2 -5.0569 50.5227 21.7309 0.0000 0.0000 0.0000
# 3 15.0782 21.7309 59.4344 0.0000 0.0000 0.0000
# 4 0.0000 0.0000 0.0000 41.5364 0.0000 0.0000
# 5 0.0000 0.0000 0.0000 0.0000 19.7573 0.0000
# 6 0.0000 0.0000 0.0000 0.0000 0.0000 23.6372
#
#
#
# Elastic Compliance Matrix: (Units=1/GPa)
#
#
# Indices 1 2 3 4 5 6 
#
# 1 0.035134 0.008722 -0.012102 0.000000 0.000000 0.000000
# 2 0.008722 0.025652 -0.011592 0.000000 0.000000 0.000000
# 3 -0.012102 -0.011592 0.024134 0.000000 0.000000 0.000000
# 4 0.000000 0.000000 0.000000 0.024075 0.000000 0.000000
# 5 0.000000 0.000000 0.000000 0.000000 0.050614 0.000000
# 6 0.000000 0.000000 0.000000 0.000000 0.000000 0.042306
#
#
# Mechanical properties :
#
#
# Convention : Reuss Voigt Hill
#
# Bulk Modulus (GPa) = 18.18989 23.15259 20.67124
# Shear Modulus (GPa) = 19.98523 24.52731 22.25627
#
# Velocity S-wave (km/s) = 3.32561 3.68418 3.50948
# Velocity P-wave (km/s) = 4.98120 5.55968 5.27837
#
# Compressibility (1/GPa) = 0.05497560
#
# Stress axis : x y z
#
# Youngs Moduli (GPa) = 28.46254 38.98331 41.43547
#
# Poissons Ratio (x) = -0.34002 0.50147
# Poissons Ratio (y) = -0.24825 0.48031
# Poissons Ratio (z) = 0.34446 0.45189
#
# Static dielectric constant tensor:
#      x y z
#    x 2.842110 0.000000 0.000000 
#    y 0.000000 3.296300 0.000000 
#    z 0.000000 0.000000 3.495210 
# 
# 
# High freq. dielectric constant tensor:
#      x y z
#    x 1.672240 0.000000 0.000000 
#    y 0.000000 1.693290 0.000000 
#    z 0.000000 0.000000 1.702690 
# 
# From -- ./inp_files/7940.got.cif
#   From: 2010.03.12/outbox.cif.g09.slc.cpg/sg66_4_cif.got.tgz:7940.got - 2010.04.10 21:57:39.
