data_PCOD8275493
_publ_section_title
;
Structure prediction by ZEFSAII (Michael W. Deem and Ramdas Pophale) SiO2 
 PCOD8275493
Probable space group: C C C M
;
_chemical_formula_sum "Si O2"
_cell_formula_units_Z 96
_cell_length_a 32.688821
_cell_length_b 18.651718
_cell_length_c 8.766770
_cell_angle_alpha 90.000000
_cell_angle_beta 90.000000
_cell_angle_gamma 90.000000
_cell_volume 5345.123085
_symmetry_space_group_name_H-M "C C C M"
_symmetry_group_IT_number 66
_symmetry_cell_setting 'orthorhombic'
loop_
_space_group_symop_operation_xyz
x,y,z
-x,-y,z
x,-y,1/2-z
-x,y,1/2-z
-x,-y,-z
x,y,-z
-x,y,1/2+z
x,-y,1/2+z
1/2+x,1/2+y,z
1/2-x,1/2-y,z
1/2+x,1/2-y,1/2-z
1/2-x,1/2+y,1/2-z
1/2-x,1/2-y,-z
1/2+x,1/2+y,-z
1/2-x,1/2+y,1/2+z
1/2+x,1/2-y,1/2+z
loop_
_atom_site_type_symbol
_atom_site_label
_atom_site_fract_x
_atom_site_fract_y
_atom_site_fract_z
Si Si1 0.376416 0.703475 0.179556
Si Si2 0.331514 0.423183 0.819656
Si Si3 0.913558 0.575185 0.680666
Si Si4 0.753766 0.422954 0.818167
Si Si5 0.165507 0.346188 0.319541
Si Si6 0.042398 0.716125 0.178458
O O1 0.366924 0.632095 0.274312
O O2 0.345256 0.765935 0.235457
O O3 0.422514 0.726688 0.221165
O O4 0.371493 0.688384 0.000000
O O5 0.342887 0.500000 0.750000
O O6 0.288780 0.394515 0.750040
O O7 0.327598 0.430564 0.000000
O O8 0.927538 0.500000 0.750000
O O9 0.913998 0.568850 0.500000
O O10 0.868258 0.597047 0.741099
O O11 0.944931 0.636805 0.736625
O O12 0.764695 0.500000 0.750000
O O13 0.789310 0.368381 0.764690
O O14 0.750434 0.428177 0.000000
O O15 0.162364 0.346913 0.500000
O O16 0.000000 0.741719 0.250000
O O17 0.036583 0.713561 0.000000
#
# Coordination Sequence:
#
# PCOD8275493 Si02
#       6
#    16  16  16  16  16  16
#     4   9  18  36  56  74  97 129 164 201 244 295
#     4  11  22  36  53  75 100 128 160 199 244 295
#     4   9  17  30  46  69  99 135 174 211 245 282
#     4  10  18  30  48  71  99 135 173 209 244 284
#     4   8  16  30  49  70  97 134 174 207 244 288
#     4   9  19  34  53  74 100 130 163 201 246 296
#
# _framework density 17.960297000000001
#
# number of rings (size 3 to 8) (size 9 to 14) (size 15 to 20)
#    0.000    2.667    0.000    5.500    0.000    2.333 
#    0.000   10.000    0.000    0.500    0.000    3.500 
#    0.000    0.000    0.000    0.000    0.000    0.000 
#
# Total GULP energy -595066.019153 kJ/mol
# GULP energy per Si atom -12397.208732 kJ/mol
# Density = 1.791942 g / cm^3
# Si number density = 17.960297 Si / 1000 Ang^3
#
#
#
# Elastic Constant Matrix: (Units=GPa)
#
#
# Indices 1 2 3 4 5 6 
#
# 1 124.3307 73.6117 44.4000 0.0000 0.0000 0.0000
# 2 73.6117 98.0524 35.6451 0.0000 0.0000 0.0000
# 3 44.4000 35.6451 66.7370 0.0000 0.0000 0.0000
# 4 0.0000 0.0000 0.0000 28.2803 0.0000 0.0000
# 5 0.0000 0.0000 0.0000 0.0000 316.0346 0.0000
# 6 0.0000 0.0000 0.0000 0.0000 0.0000 17.2175
#
#
#
# Elastic Compliance Matrix: (Units=1/GPa)
#
#
# Indices 1 2 3 4 5 6 
#
# 1 0.015802 -0.009979 -0.005183 0.000000 0.000000 0.000000
# 2 -0.009979 0.018958 -0.003486 0.000000 0.000000 0.000000
# 3 -0.005183 -0.003486 0.020295 0.000000 0.000000 0.000000
# 4 0.000000 0.000000 0.000000 0.035360 0.000000 0.000000
# 5 0.000000 0.000000 0.000000 0.000000 0.003164 0.000000
# 6 0.000000 0.000000 0.000000 0.000000 0.000000 0.058080
#
#
# Mechanical properties :
#
#
# Convention : Reuss Voigt Hill
#
# Bulk Modulus (GPa) = 56.31551 66.27043 61.29297
# Shear Modulus (GPa) = 25.65722 81.33736 53.49729
#
# Velocity S-wave (km/s) = 3.78372 6.73689 5.46361
# Velocity P-wave (km/s) = 7.10720 9.87383 8.60247
#
# Compressibility (1/GPa) = 0.01775710
#
# Stress axis : x y z
#
# Youngs Moduli (GPa) = 63.28153 52.74869 49.27365
#
# Poissons Ratio (x) = 0.52639 0.25540
# Poissons Ratio (y) = 0.63150 0.17179
# Poissons Ratio (z) = 0.32801 0.18391
#
# Static dielectric constant tensor:
#      x y z
#    x 3.728310 0.000000 0.000000 
#    y 0.000000 3.241120 0.000000 
#    z 0.000000 0.000000 3.084130 
# 
# 
# High freq. dielectric constant tensor:
#      x y z
#    x 1.689890 0.000000 0.000000 
#    y 0.000000 1.686560 0.000000 
#    z 0.000000 0.000000 1.679450 
# 
# From -- ./inp_files/10269.got.cif
#   From: 2010.03.12/outbox.cif.g09.slc.cpg/sg66_6_cif.got.tgz:10269.got - 2010.04.10 21:57:39.
