data_PCOD8275738
_publ_section_title
;
Structure prediction by ZEFSAII (Michael W. Deem and Ramdas Pophale) SiO2 
 PCOD8275738
Probable space group: C C C M
;
_chemical_formula_sum "Si O2"
_cell_formula_units_Z 96
_cell_length_a 8.987633
_cell_length_b 22.984566
_cell_length_c 24.473694
_cell_angle_alpha 90.000000
_cell_angle_beta 90.000000
_cell_angle_gamma 90.000000
_cell_volume 5055.698464
_symmetry_space_group_name_H-M "C C C M"
_symmetry_group_IT_number 66
_symmetry_cell_setting 'orthorhombic'
loop_
_space_group_symop_operation_xyz
x,y,z
-x,-y,z
x,-y,1/2-z
-x,y,1/2-z
-x,-y,-z
x,y,-z
-x,y,1/2+z
x,-y,1/2+z
1/2+x,1/2+y,z
1/2-x,1/2-y,z
1/2+x,1/2-y,1/2-z
1/2-x,1/2+y,1/2-z
1/2-x,1/2-y,-z
1/2+x,1/2+y,-z
1/2-x,1/2+y,1/2+z
1/2+x,1/2-y,1/2+z
loop_
_atom_site_type_symbol
_atom_site_label
_atom_site_fract_x
_atom_site_fract_y
_atom_site_fract_z
Si Si1 0.580883 0.060027 0.166449
Si Si2 0.390714 0.168207 0.793006
Si Si3 0.654103 0.696707 0.624399
Si Si4 0.106068 0.373696 0.561504
Si Si5 0.100503 0.274531 0.093961
Si Si6 0.149677 0.887583 0.778020
O O1 0.481485 0.111144 0.189902
O O2 0.593576 0.070190 0.101111
O O3 0.742427 0.062022 0.196837
O O4 0.500000 0.000000 0.179407
O O5 0.500000 0.201155 0.750000
O O6 0.362326 0.210327 0.843294
O O7 0.233350 0.150325 0.767720
O O8 0.750000 0.750000 0.649790
O O9 0.751705 0.663210 0.579733
O O10 0.514083 0.721218 0.591534
O O11 0.602177 0.654778 0.672803
O O12 0.126537 0.396869 0.500000
O O13 0.960803 0.331858 0.563621
O O14 0.250000 0.250000 0.065496
O O15 0.000000 0.914093 0.750000
#
# Coordination Sequence:
#
# PCOD8275738 Si02
#       6
#    16  16  16  16  16  16
#     4   9  19  36  53  70  96 126 161 207 253 297
#     4   9  18  30  45  69 100 134 167 197 236 292
#     4   9  18  30  46  72 104 137 168 198 238 291
#     4   9  19  35  52  71  94 124 168 212 249 295
#     4  10  19  29  45  71 102 134 165 201 244 288
#     4  10  19  30  48  75 103 132 167 201 237 289
#
# _framework density 18.988475000000001
#
# number of rings (size 3 to 8) (size 9 to 14) (size 15 to 20)
#    0.000    2.667    0.000    4.000    0.000   10.667 
#    0.000    1.667    0.000    0.000    0.000    0.000 
#    0.000   10.667    0.000    0.000    0.000    2.667 
#
# Total GULP energy -594962.061673 kJ/mol
# GULP energy per Si atom -12395.042952 kJ/mol
# Density = 1.894526 g / cm^3
# Si number density = 18.988475 Si / 1000 Ang^3
#
#
#
# Elastic Constant Matrix: (Units=GPa)
#
#
# Indices 1 2 3 4 5 6 
#
# 1 118.6275 24.0627 18.4156 0.0000 0.0000 0.0000
# 2 24.0627 45.9048 -1.0683 0.0000 0.0000 0.0000
# 3 18.4156 -1.0683 89.1584 0.0000 0.0000 0.0000
# 4 0.0000 0.0000 0.0000 3.5035 0.0000 0.0000
# 5 0.0000 0.0000 0.0000 0.0000 6.9319 0.0000
# 6 0.0000 0.0000 0.0000 0.0000 0.0000 24.3683
#
#
#
# Elastic Compliance Matrix: (Units=1/GPa)
#
#
# Indices 1 2 3 4 5 6 
#
# 1 0.009806 -0.005189 -0.002088 0.000000 0.000000 0.000000
# 2 -0.005189 0.024536 0.001366 0.000000 0.000000 0.000000
# 3 -0.002088 0.001366 0.011664 0.000000 0.000000 0.000000
# 4 0.000000 0.000000 0.000000 0.285431 0.000000 0.000000
# 5 0.000000 0.000000 0.000000 0.000000 0.144261 0.000000
# 6 0.000000 0.000000 0.000000 0.000000 0.000000 0.041037
#
#
# Mechanical properties :
#
#
# Convention : Reuss Voigt Hill
#
# Bulk Modulus (GPa) = 29.25332 37.39009 33.32170
# Shear Modulus (GPa) = 9.26009 21.11278 15.18644
#
# Velocity S-wave (km/s) = 2.21072 3.33809 2.83109
# Velocity P-wave (km/s) = 4.68569 5.88140 5.31726
#
# Compressibility (1/GPa) = 0.03418416
#
# Stress axis : x y z
#
# Youngs Moduli (GPa) = 101.97447 40.75650 85.73714
#
# Poissons Ratio (x) = 0.21148 0.17899
# Poissons Ratio (y) = 0.52914 -0.11710
# Poissons Ratio (z) = 0.21289 -0.05566
#
# Static dielectric constant tensor:
#      x y z
#    x 3.611900 0.000000 0.000000 
#    y 0.000000 3.223200 0.000000 
#    z 0.000000 0.000000 3.477960 
# 
# 
# High freq. dielectric constant tensor:
#      x y z
#    x 1.739610 0.000000 0.000000 
#    y 0.000000 1.702750 0.000000 
#    z 0.000000 0.000000 1.730790 
# 
# From -- ./inp_files/62770.got.cif
#   From: 2010.03.12/outbox.cif.g09.slc.cpg/sg66_32_cif.got.tgz:62770.got - 2010.04.10 21:57:39.
