data_PCOD8275583
_publ_section_title
;
Structure prediction by ZEFSAII (Michael W. Deem and Ramdas Pophale) SiO2 
 PCOD8275583
Probable space group: C C C M
;
_chemical_formula_sum "Si O2"
_cell_formula_units_Z 116
_cell_length_a 26.172910
_cell_length_b 26.997128
_cell_length_c 9.304147
_cell_angle_alpha 90.000000
_cell_angle_beta 90.000000
_cell_angle_gamma 90.000000
_cell_volume 6574.248876
_symmetry_space_group_name_H-M "C C C M"
_symmetry_group_IT_number 66
_symmetry_cell_setting 'orthorhombic'
loop_
_space_group_symop_operation_xyz
x,y,z
-x,-y,z
x,-y,1/2-z
-x,y,1/2-z
-x,-y,-z
x,y,-z
-x,y,1/2+z
x,-y,1/2+z
1/2+x,1/2+y,z
1/2-x,1/2-y,z
1/2+x,1/2-y,1/2-z
1/2-x,1/2+y,1/2-z
1/2-x,1/2-y,-z
1/2+x,1/2+y,-z
1/2-x,1/2+y,1/2+z
1/2+x,1/2-y,1/2+z
loop_
_atom_site_type_symbol
_atom_site_label
_atom_site_fract_x
_atom_site_fract_y
_atom_site_fract_z
Si Si1 0.576305 0.080240 0.339005
Si Si2 0.821662 0.288110 0.663882
Si Si3 0.500000 0.000000 0.750000
Si Si4 0.311210 0.048901 0.830512
Si Si5 0.912989 0.328109 0.169219
Si Si6 0.235652 0.135232 0.838726
Si Si7 0.659076 0.309496 0.830779
Si Si8 0.547892 0.720361 0.336064
O O1 0.581293 0.101846 0.500000
O O2 0.536265 0.035091 0.345014
O O3 0.631272 0.061895 0.281745
O O4 0.557106 0.123893 0.231371
O O5 0.840077 0.277647 0.500000
O O6 0.860170 0.325776 0.742909
O O7 0.766604 0.313447 0.661717
O O8 0.817111 0.238041 0.753473
O O9 0.271751 0.091388 0.782165
O O10 0.292695 0.000000 0.750000
O O11 0.309498 0.040141 0.000000
O O12 0.944303 0.278210 0.201481
O O13 0.902373 0.334115 0.000000
O O14 0.186589 0.141763 0.734111
O O15 0.216127 0.123854 0.000000
O O16 0.598475 0.311235 0.798296
O O17 0.669504 0.305124 0.000000
O O18 0.500000 0.698687 0.250000
O O19 0.533336 0.713876 0.500000
#
# Coordination Sequence:
#
# PCOD8275583 Si02
#       8
#    16  16   4  16  16  16  16  16
#     4  11  23  40  56  72  97 131 172 227 283 326
#     4  10  18  32  52  75 104 138 171 209 258 313
#     4  12  26  40  56  78  94 128 184 238 288 328
#     4  10  21  39  57  76 101 132 174 220 270 325
#     4  10  21  35  52  75 100 130 173 220 264 316
#     4  10  20  34  52  75 102 136 173 210 258 320
#     4  10  21  34  49  77 110 135 170 215 255 306
#     4   9  20  36  51  73 103 136 171 208 249 299
#
# _framework density 17.644601999999999
#
# number of rings (size 3 to 8) (size 9 to 14) (size 15 to 20)
#    0.000    1.931    2.069    2.690    0.966    8.276 
#    0.000    0.000    0.000    0.000    0.000    0.000 
#    0.000    0.552    0.000    6.069    0.000    4.414 
#
# Total GULP energy -719132.092809 kJ/mol
# GULP energy per Si atom -12398.829186 kJ/mol
# Density = 1.760444 g / cm^3
# Si number density = 17.644602 Si / 1000 Ang^3
#
#
#
# Elastic Constant Matrix: (Units=GPa)
#
#
# Indices 1 2 3 4 5 6 
#
# 1 107.4935 50.7386 53.0093 0.0000 0.0000 0.0000
# 2 50.7386 65.6618 33.5385 0.0000 0.0000 0.0000
# 3 53.0093 33.5385 89.6707 0.0000 0.0000 0.0000
# 4 0.0000 0.0000 0.0000 26.6122 0.0000 0.0000
# 5 0.0000 0.0000 0.0000 0.0000 27.0155 0.0000
# 6 0.0000 0.0000 0.0000 0.0000 0.0000 26.9388
#
#
#
# Elastic Compliance Matrix: (Units=1/GPa)
#
#
# Indices 1 2 3 4 5 6 
#
# 1 0.017192 -0.010005 -0.006421 0.000000 0.000000 0.000000
# 2 -0.010005 0.024648 -0.003305 0.000000 0.000000 0.000000
# 3 -0.006421 -0.003305 0.016184 0.000000 0.000000 0.000000
# 4 0.000000 0.000000 0.000000 0.037577 0.000000 0.000000
# 5 0.000000 0.000000 0.000000 0.000000 0.037016 0.000000
# 6 0.000000 0.000000 0.000000 0.000000 0.000000 0.037121
#
#
# Mechanical properties :
#
#
# Convention : Reuss Voigt Hill
#
# Bulk Modulus (GPa) = 53.87030 59.71098 56.79064
# Shear Modulus (GPa) = 23.21410 24.48260 23.84835
#
# Velocity S-wave (km/s) = 3.63112 3.72901 3.68039
# Velocity P-wave (km/s) = 6.94097 7.24259 7.09338
#
# Compressibility (1/GPa) = 0.01856310
#
# Stress axis : x y z
#
# Youngs Moduli (GPa) = 58.16731 40.57047 61.79052
#
# Poissons Ratio (x) = 0.40590 0.39676
# Poissons Ratio (y) = 0.58195 0.20419
# Poissons Ratio (z) = 0.37349 0.13407
#
# Static dielectric constant tensor:
#      x y z
#    x 3.232030 0.000000 0.000000 
#    y 0.000000 3.080730 0.000000 
#    z 0.000000 0.000000 3.272810 
# 
# 
# High freq. dielectric constant tensor:
#      x y z
#    x 1.671330 0.000000 0.000000 
#    y 0.000000 1.647480 0.000000 
#    z 0.000000 0.000000 1.689760 
# 
# From -- ./inp_files/9618.got.cif
#   From: 2010.03.12/outbox.cif.g09.slc.cpg/sg66_5_cif.got.tgz:9618.got - 2010.04.10 21:57:39.
