data_PCOD8275403
_publ_section_title
;
Structure prediction by ZEFSAII (Michael W. Deem and Ramdas Pophale) SiO2 
 PCOD8275403
Probable space group: C C C M
;
_chemical_formula_sum "Si O2"
_cell_formula_units_Z 72
_cell_length_a 25.942028
_cell_length_b 8.719188
_cell_length_c 16.608133
_cell_angle_alpha 90.000000
_cell_angle_beta 90.000000
_cell_angle_gamma 90.000000
_cell_volume 3756.650390
_symmetry_space_group_name_H-M "C C C M"
_symmetry_group_IT_number 66
_symmetry_cell_setting 'orthorhombic'
loop_
_space_group_symop_operation_xyz
x,y,z
-x,-y,z
x,-y,1/2-z
-x,y,1/2-z
-x,-y,-z
x,y,-z
-x,y,1/2+z
x,-y,1/2+z
1/2+x,1/2+y,z
1/2-x,1/2-y,z
1/2+x,1/2-y,1/2-z
1/2-x,1/2+y,1/2-z
1/2-x,1/2-y,-z
1/2+x,1/2+y,-z
1/2-x,1/2+y,1/2+z
1/2+x,1/2-y,1/2+z
loop_
_atom_site_type_symbol
_atom_site_label
_atom_site_fract_x
_atom_site_fract_y
_atom_site_fract_z
Si Si1 0.150593 0.500000 0.250000
Si Si2 0.851903 0.614868 0.000000
Si Si3 0.192213 0.757180 0.648151
Si Si4 0.051164 0.600600 0.000000
Si Si5 0.690966 0.799118 0.500000
Si Si6 0.360861 0.500000 0.750000
Si Si7 0.610068 0.762068 0.365217
O O1 0.188472 0.628353 0.283910
O O2 0.114804 0.422561 0.317538
O O3 0.847757 0.724508 0.076803
O O4 0.905471 0.528281 0.000000
O O5 0.807418 0.484622 0.000000
O O6 0.250000 0.750000 0.614065
O O7 0.176477 0.918423 0.686365
O O8 0.059191 0.711786 0.078406
O O9 0.000000 0.500000 0.000000
O O10 0.750000 0.750000 0.500000
O O11 0.660958 0.736917 0.420789
O O12 0.396017 0.379441 0.698255
#
# Coordination Sequence:
#
# PCOD8275403 Si02
#       7
#     8   8  16   8   8   8  16
#     4  10  17  36  53  76 124 148 198 241 285 346
#     4  10  21  38  54  83 113 150 203 258 278 355
#     4  11  21  33  53  82 120 165 203 229 291 355
#     4  10  20  42  70  89 104 153 214 253 309 358
#     4  10  20  32  54  76 122 163 209 246 283 337
#     4  10  23  34  56  87 128 160 189 248 311 350
#     4   9  20  37  58  87 117 157 192 255 298 354
#
# _framework density 19.16601
#
# number of rings (size 3 to 8) (size 9 to 14) (size 15 to 20)
#    0.000    2.222    4.444    1.000    3.111    5.333 
#    0.000    0.556    0.000    4.000    0.000    0.000 
#    0.000    0.000    0.000    0.000    0.000    0.000 
#
# Total GULP energy -446136.770855 kJ/mol
# GULP energy per Si atom -12392.688079 kJ/mol
# Density = 1.912239 g / cm^3
# Si number density = 19.166010 Si / 1000 Ang^3
#
#
#
# Elastic Constant Matrix: (Units=GPa)
#
#
# Indices 1 2 3 4 5 6 
#
# 1 78.9556 32.4140 31.6126 0.0000 0.0000 0.0000
# 2 32.4140 103.5929 43.0603 0.0000 0.0000 0.0000
# 3 31.6126 43.0603 109.2596 0.0000 0.0000 0.0000
# 4 0.0000 0.0000 0.0000 49.9772 0.0000 0.0000
# 5 0.0000 0.0000 0.0000 0.0000 11.7424 0.0000
# 6 0.0000 0.0000 0.0000 0.0000 0.0000 24.9743
#
#
#
# Elastic Compliance Matrix: (Units=1/GPa)
#
#
# Indices 1 2 3 4 5 6 
#
# 1 0.015335 -0.003533 -0.003045 0.000000 0.000000 0.000000
# 2 -0.003533 0.012358 -0.003848 0.000000 0.000000 0.000000
# 3 -0.003045 -0.003848 0.011550 0.000000 0.000000 0.000000
# 4 0.000000 0.000000 0.000000 0.020009 0.000000 0.000000
# 5 0.000000 0.000000 0.000000 0.000000 0.085162 0.000000
# 6 0.000000 0.000000 0.000000 0.000000 0.000000 0.040041
#
#
# Mechanical properties :
#
#
# Convention : Reuss Voigt Hill
#
# Bulk Modulus (GPa) = 54.37230 56.22019 55.29624
# Shear Modulus (GPa) = 23.64775 29.65352 26.65064
#
# Velocity S-wave (km/s) = 3.51641 3.93771 3.73301
# Velocity P-wave (km/s) = 6.70206 7.07609 6.89161
#
# Compressibility (1/GPa) = 0.01839172
#
# Stress axis : x y z
#
# Youngs Moduli (GPa) = 65.21197 80.91819 86.57933
#
# Poissons Ratio (x) = 0.28585 0.26360
# Poissons Ratio (y) = 0.23037 0.33319
# Poissons Ratio (z) = 0.19854 0.31140
#
# Static dielectric constant tensor:
#      x y z
#    x 3.018330 0.000000 0.000000 
#    y 0.000000 3.761410 0.000000 
#    z 0.000000 0.000000 3.892150 
# 
# 
# High freq. dielectric constant tensor:
#      x y z
#    x 1.684620 0.000000 0.000000 
#    y 0.000000 1.748550 0.000000 
#    z 0.000000 0.000000 1.769840 
# 
# From -- ./inp_files/36902.got.cif
#   From: 2010.03.12/outbox.cif.g09.slc.cpg/sg66_19_cif.got.tgz:36902.got - 2010.04.10 21:57:39.
