data_PCOD8275172
_publ_section_title
;
Structure prediction by ZEFSAII (Michael W. Deem and Ramdas Pophale) SiO2 
 PCOD8275172
Probable space group: C M M M
;
_chemical_formula_sum "Si O2"
_cell_formula_units_Z 88
_cell_length_a 18.999849
_cell_length_b 21.119725
_cell_length_c 13.671957
_cell_angle_alpha 90.000000
_cell_angle_beta 90.000000
_cell_angle_gamma 90.000000
_cell_volume 5486.167868
_symmetry_space_group_name_H-M "C M M M"
_symmetry_group_IT_number 65
_symmetry_cell_setting 'orthorhombic'
loop_
_space_group_symop_operation_xyz
x,y,z
-x,-y,z
x,-y,-z
-x,y,-z
-x,-y,-z
x,y,-z
-x,y,z
x,-y,z
1/2+x,1/2+y,z
1/2-x,1/2-y,z
1/2+x,1/2-y,-z
1/2-x,1/2+y,-z
1/2-x,1/2-y,-z
1/2+x,1/2+y,-z
1/2-x,1/2+y,z
1/2+x,1/2-y,z
loop_
_atom_site_type_symbol
_atom_site_label
_atom_site_fract_x
_atom_site_fract_y
_atom_site_fract_z
Si Si1 0.082547 0.191805 0.889072
Si Si2 0.164780 0.621980 0.387210
Si Si3 0.830976 0.748530 0.724976
Si Si4 0.580035 0.000000 0.616204
Si Si5 0.671893 0.374760 0.611506
Si Si6 0.419708 0.570250 0.227618
O O1 0.122375 0.242275 0.821595
O O2 0.102310 0.120594 0.855203
O O3 0.000000 0.204679 0.879845
O O4 0.108560 0.200085 0.000000
O O5 0.146019 0.636496 0.500000
O O6 0.144970 0.682875 0.323125
O O7 0.120182 0.562699 0.345947
O O8 0.246889 0.606261 0.376361
O O9 0.750000 0.750000 0.757942
O O10 0.843522 0.803108 0.645092
O O11 0.500000 0.000000 0.655964
O O12 0.581670 0.000000 0.500000
O O13 0.647420 0.381168 0.500000
O O14 0.627135 0.423261 0.675665
O O15 0.500000 0.581642 0.259713
O O16 0.408935 0.500000 0.183620
#
# Coordination Sequence:
#
# PCOD8275172 Si02
#       6
#    16  16  16   8  16  16
#     4   9  18  32  48  66  88 114 148 189 231 276
#     4   9  17  29  46  66  91 122 151 181 222 267
#     4   9  17  30  47  69  91 115 147 187 228 271
#     4   9  18  30  42  62  90 118 154 191 218 256
#     4   9  17  28  44  65  92 123 154 182 215 264
#     4   9  18  30  43  63  91 121 153 186 219 260
#
# _framework density 16.040341000000002
#
# number of rings (size 3 to 8) (size 9 to 14) (size 15 to 20)
#    0.000    3.000    0.000    0.545    1.273    4.364 
#    0.000    2.727    0.000    3.273    0.000    0.636 
#    0.000    2.182    0.000    0.000    0.000    0.000 
#
# Total GULP energy -545580.365581 kJ/mol
# GULP energy per Si atom -12399.553763 kJ/mol
# Density = 1.600383 g / cm^3
# Si number density = 16.040341 Si / 1000 Ang^3
#
#
#
# Elastic Constant Matrix: (Units=GPa)
#
#
# Indices 1 2 3 4 5 6 
#
# 1 57.7346 46.4453 44.2435 0.0000 0.0000 0.0000
# 2 46.4453 113.7299 45.4265 0.0000 0.0000 0.0000
# 3 44.2435 45.4265 101.9752 0.0000 0.0000 0.0000
# 4 0.0000 0.0000 0.0000 16.2489 0.0000 0.0000
# 5 0.0000 0.0000 0.0000 0.0000 25.1659 0.0000
# 6 0.0000 0.0000 0.0000 0.0000 0.0000 25.9835
#
#
#
# Elastic Compliance Matrix: (Units=1/GPa)
#
#
# Indices 1 2 3 4 5 6 
#
# 1 0.032370 -0.009257 -0.009921 0.000000 0.000000 0.000000
# 2 -0.009257 0.013343 -0.001928 0.000000 0.000000 0.000000
# 3 -0.009921 -0.001928 0.014969 0.000000 0.000000 0.000000
# 4 0.000000 0.000000 0.000000 0.061543 0.000000 0.000000
# 5 0.000000 0.000000 0.000000 0.000000 0.039736 0.000000
# 6 0.000000 0.000000 0.000000 0.000000 0.000000 0.038486
#
#
# Mechanical properties :
#
#
# Convention : Reuss Voigt Hill
#
# Bulk Modulus (GPa) = 54.13595 60.63004 57.38299
# Shear Modulus (GPa) = 20.09535 22.63463 21.36499
#
# Velocity S-wave (km/s) = 3.54333 3.76054 3.65355
# Velocity P-wave (km/s) = 7.11080 7.53234 7.32460
#
# Compressibility (1/GPa) = 0.01847202
#
# Stress axis : x y z
#
# Youngs Moduli (GPa) = 30.89317 74.94566 66.80380
#
# Poissons Ratio (x) = 0.69375 0.66273
# Poissons Ratio (y) = 0.28597 0.12878
# Poissons Ratio (z) = 0.30648 0.14447
#
# Static dielectric constant tensor:
#      x y z
#    x 3.048280 0.000000 0.000000 
#    y 0.000000 3.078240 0.000000 
#    z 0.000000 0.000000 2.882470 
# 
# 
# High freq. dielectric constant tensor:
#      x y z
#    x 1.613150 0.000000 0.000000 
#    y 0.000000 1.617990 0.000000 
#    z 0.000000 0.000000 1.591980 
# 
# From -- ./inp_files/28698.got.cif
#   From: 2010.03.12/outbox.cif.g09.slc.cpg/sg65_15_cif.got.tgz:28698.got - 2010.04.10 20:52:16.
