data_PCOD8275595
_publ_section_title
;
Structure prediction by ZEFSAII (Michael W. Deem and Ramdas Pophale) SiO2 
 PCOD8275595
Probable space group: C C C M
;
_chemical_formula_sum "Si O2"
_cell_formula_units_Z 64
_cell_length_a 19.586662
_cell_length_b 20.936182
_cell_length_c 8.565762
_cell_angle_alpha 90.000000
_cell_angle_beta 90.000000
_cell_angle_gamma 90.000000
_cell_volume 3512.561342
_symmetry_space_group_name_H-M "C C C M"
_symmetry_group_IT_number 66
_symmetry_cell_setting 'orthorhombic'
loop_
_space_group_symop_operation_xyz
x,y,z
-x,-y,z
x,-y,1/2-z
-x,y,1/2-z
-x,-y,-z
x,y,-z
-x,y,1/2+z
x,-y,1/2+z
1/2+x,1/2+y,z
1/2-x,1/2-y,z
1/2+x,1/2-y,1/2-z
1/2-x,1/2+y,1/2-z
1/2-x,1/2-y,-z
1/2+x,1/2+y,-z
1/2-x,1/2+y,1/2+z
1/2+x,1/2-y,1/2+z
loop_
_atom_site_type_symbol
_atom_site_label
_atom_site_fract_x
_atom_site_fract_y
_atom_site_fract_z
Si Si1 0.793338 0.433352 0.814958
Si Si2 0.927650 0.621553 0.184619
Si Si3 0.429869 0.739085 0.816740
Si Si4 0.787419 0.812101 0.683428
O O1 0.764382 0.500000 0.750000
O O2 0.870058 0.423885 0.755089
O O3 0.744690 0.376984 0.747203
O O4 0.792689 0.434661 0.000000
O O5 0.913367 0.694055 0.235269
O O6 0.000000 0.597464 0.250000
O O7 0.927316 0.616333 0.000000
O O8 0.500000 0.709116 0.750000
O O9 0.368264 0.690408 0.779169
O O10 0.437350 0.752095 0.000000
O O11 0.773814 0.811597 0.500000
O O12 0.750000 0.750000 0.757063
#
# Coordination Sequence:
#
# PCOD8275595 Si02
#       4
#    16  16  16  16
#     4  11  22  38  56  78 108 142 181 221 268 320
#     4  11  21  34  52  78 109 145 181 218 262 313
#     4  10  18  32  54  81 109 140 177 220 270 315
#     4   9  17  33  57  79 104 143 179 215 265 321
#
# _framework density 18.220323
#
# number of rings (size 3 to 8) (size 9 to 14) (size 15 to 20)
#    0.000    1.750    2.500    5.250    0.000    0.500 
#    0.000    8.750    0.000    0.750    0.000    5.250 
#    0.000    0.000    0.000    0.000    0.000    0.000 
#
# Total GULP energy -396806.223110 kJ/mol
# GULP energy per Si atom -12400.194472 kJ/mol
# Density = 1.817885 g / cm^3
# Si number density = 18.220323 Si / 1000 Ang^3
#
#
#
# Elastic Constant Matrix: (Units=GPa)
#
#
# Indices 1 2 3 4 5 6 
#
# 1 114.1857 73.2447 28.0141 0.0000 0.0000 0.0000
# 2 73.2447 129.4268 31.0034 0.0000 0.0000 0.0000
# 3 28.0141 31.0034 80.4176 0.0000 0.0000 0.0000
# 4 0.0000 0.0000 0.0000 6.9747 0.0000 0.0000
# 5 0.0000 0.0000 0.0000 0.0000 15.4230 0.0000
# 6 0.0000 0.0000 0.0000 0.0000 0.0000 36.4668
#
#
#
# Elastic Compliance Matrix: (Units=1/GPa)
#
#
# Indices 1 2 3 4 5 6 
#
# 1 0.014038 -0.007462 -0.002013 0.000000 0.000000 0.000000
# 2 -0.007462 0.012479 -0.002212 0.000000 0.000000 0.000000
# 3 -0.002013 -0.002212 0.013989 0.000000 0.000000 0.000000
# 4 0.000000 0.000000 0.000000 0.143375 0.000000 0.000000
# 5 0.000000 0.000000 0.000000 0.000000 0.064838 0.000000
# 6 0.000000 0.000000 0.000000 0.000000 0.000000 0.027422
#
#
# Mechanical properties :
#
#
# Convention : Reuss Voigt Hill
#
# Bulk Modulus (GPa) = 58.36990 65.39494 61.88242
# Shear Modulus (GPa) = 16.38127 24.55744 20.46935
#
# Velocity S-wave (km/s) = 3.00170 3.67523 3.35540
# Velocity P-wave (km/s) = 6.64219 7.34703 7.00348
#
# Compressibility (1/GPa) = 0.01713212
#
# Stress axis : x y z
#
# Youngs Moduli (GPa) = 71.23392 80.13396 71.48419
#
# Poissons Ratio (x) = 0.59797 0.14393
# Poissons Ratio (y) = 0.53156 0.15809
# Poissons Ratio (z) = 0.14343 0.17722
#
# Static dielectric constant tensor:
#      x y z
#    x 3.614530 0.000000 0.000000 
#    y 0.000000 3.362600 0.000000 
#    z 0.000000 0.000000 3.257670 
# 
# 
# High freq. dielectric constant tensor:
#      x y z
#    x 1.710840 0.000000 0.000000 
#    y 0.000000 1.682000 0.000000 
#    z 0.000000 0.000000 1.699940 
# 
# From -- ./inp_files/6157.got.cif
#   From: 2010.03.12/outbox.cif.g09.slc.cpg/sg66_4_cif.got.tgz:6157.got - 2010.04.10 21:57:39.
