data_PCOD8275225
_publ_section_title
;
Structure prediction by ZEFSAII (Michael W. Deem and Ramdas Pophale) SiO2 
 PCOD8275225
Probable space group: C C C M
;
_chemical_formula_sum "Si O2"
_cell_formula_units_Z 128
_cell_length_a 18.971491
_cell_length_b 23.543199
_cell_length_c 18.918816
_cell_angle_alpha 90.000000
_cell_angle_beta 90.000000
_cell_angle_gamma 90.000000
_cell_volume 8450.081371
_symmetry_space_group_name_H-M "C C C M"
_symmetry_group_IT_number 66
_symmetry_cell_setting 'orthorhombic'
loop_
_space_group_symop_operation_xyz
x,y,z
-x,-y,z
x,-y,1/2-z
-x,y,1/2-z
-x,-y,-z
x,y,-z
-x,y,1/2+z
x,-y,1/2+z
1/2+x,1/2+y,z
1/2-x,1/2-y,z
1/2+x,1/2-y,1/2-z
1/2-x,1/2+y,1/2-z
1/2-x,1/2-y,-z
1/2+x,1/2+y,-z
1/2-x,1/2+y,1/2+z
1/2+x,1/2-y,1/2+z
loop_
_atom_site_type_symbol
_atom_site_label
_atom_site_fract_x
_atom_site_fract_y
_atom_site_fract_z
Si Si1 0.889367 0.507724 0.668302
Si Si2 0.407832 0.180240 0.916082
Si Si3 0.256814 0.860401 0.417400
Si Si4 0.753766 0.508715 0.917596
Si Si5 0.492493 0.093617 0.832029
Si Si6 0.104208 0.977899 0.083772
Si Si7 0.024821 0.088204 0.915956
Si Si8 0.113575 0.191650 0.083916
O O1 0.870649 0.500000 0.750000
O O2 0.819004 0.515641 0.624541
O O3 0.932121 0.451507 0.647818
O O4 0.933284 0.564339 0.648853
O O5 0.332988 0.157031 0.885998
O O6 0.473728 0.149245 0.877835
O O7 0.411318 0.246035 0.893680
O O8 0.415684 0.171183 0.000000
O O9 0.261845 0.848562 0.500000
O O10 0.240378 0.925523 0.399954
O O11 0.192039 0.822967 0.386018
O O12 0.685326 0.472973 0.891647
O O13 0.769393 0.500325 0.000000
O O14 0.500000 0.110086 0.750000
O O15 0.056781 0.923550 0.107795
O O16 0.071258 0.036182 0.114000
O O17 0.102756 0.983187 0.000000
O O18 0.055623 0.147215 0.885317
O O19 0.029307 0.089976 0.000000
O O20 0.117628 0.186274 0.000000
#
# Coordination Sequence:
#
# PCOD8275225 Si02
#       8
#    16  16  16  16  16  16  16  16
#     4   9  18  31  45  60  81 108 141 173 208 256
#     4  10  18  26  40  64  89 114 143 170 206 254
#     4   9  15  23  35  60  96 118 131 161 205 255
#     4  10  16  24  41  66  90 111 133 167 214 253
#     4   9  18  32  45  59  80 110 143 175 208 247
#     4   8  13  20  34  57  85 110 136 167 202 241
#     4   8  12  20  33  54  84 114 138 166 199 236
#     4   9  15  23  36  59  92 121 139 162 201 247
#
# _framework density 15.147783
#
# number of rings (size 3 to 8) (size 9 to 14) (size 15 to 20)
#    0.000    3.000    2.500    1.875    0.000    2.000 
#    0.000    1.250    0.000    0.000    3.250    2.625 
#    0.000    5.000    0.000    0.000    0.000    0.000 
#
# Total GULP energy -792882.770267 kJ/mol
# GULP energy per Si atom -12388.793285 kJ/mol
# Density = 1.511331 g / cm^3
# Si number density = 15.147783 Si / 1000 Ang^3
#
#
#
# Elastic Constant Matrix: (Units=GPa)
#
#
# Indices 1 2 3 4 5 6 
#
# 1 131.0522 63.2763 37.5029 0.0000 0.0000 0.0000
# 2 63.2763 82.1672 28.3051 0.0000 0.0000 0.0000
# 3 37.5029 28.3051 21.0623 0.0000 0.0000 0.0000
# 4 0.0000 0.0000 0.0000 9.0717 0.0000 0.0000
# 5 0.0000 0.0000 0.0000 0.0000 4.8604 0.0000
# 6 0.0000 0.0000 0.0000 0.0000 0.0000 25.7247
#
#
#
# Elastic Compliance Matrix: (Units=1/GPa)
#
#
# Indices 1 2 3 4 5 6 
#
# 1 0.016524 -0.004822 -0.022942 0.000000 0.000000 0.000000
# 2 -0.004822 0.024068 -0.023759 0.000000 0.000000 0.000000
# 3 -0.022942 -0.023759 0.120258 0.000000 0.000000 0.000000
# 4 0.000000 0.000000 0.000000 0.110233 0.000000 0.000000
# 5 0.000000 0.000000 0.000000 0.000000 0.205744 0.000000
# 6 0.000000 0.000000 0.000000 0.000000 0.000000 0.038873
#
#
# Mechanical properties :
#
#
# Convention : Reuss Voigt Hill
#
# Bulk Modulus (GPa) = 17.29990 54.71669 36.00829
# Shear Modulus (GPa) = 7.83681 14.94452 11.39067
#
# Velocity S-wave (km/s) = 2.27702 3.14440 2.74518
# Velocity P-wave (km/s) = 4.28469 7.02733 5.81988
#
# Compressibility (1/GPa) = 0.05780381
#
# Stress axis : x y z
#
# Youngs Moduli (GPa) = 60.51810 41.54880 8.31546
#
# Poissons Ratio (x) = 0.20034 0.19078
# Poissons Ratio (y) = 0.29180 0.19757
# Poissons Ratio (z) = 1.38842 0.98716
#
# Static dielectric constant tensor:
#      x y z
#    x 3.153110 0.000000 0.000000 
#    y 0.000000 2.925970 0.000000 
#    z 0.000000 0.000000 2.408970 
# 
# 
# High freq. dielectric constant tensor:
#      x y z
#    x 1.587100 0.000000 0.000000 
#    y 0.000000 1.566070 0.000000 
#    z 0.000000 0.000000 1.520010 
# 
# From -- ./inp_files/42153.got.cif
#   From: 2010.03.12/outbox.cif.g09.slc.cpg/sg66_22_cif.got.tgz:42153.got - 2010.04.10 21:57:39.
