data_PCOD8275359
_publ_section_title
;
Structure prediction by ZEFSAII (Michael W. Deem and Ramdas Pophale) SiO2 
 PCOD8275359
Probable space group: C C C M
;
_chemical_formula_sum "Si O2"
_cell_formula_units_Z 84
_cell_length_a 24.549006
_cell_length_b 15.802206
_cell_length_c 13.772661
_cell_angle_alpha 90.000000
_cell_angle_beta 90.000000
_cell_angle_gamma 90.000000
_cell_volume 5342.807033
_symmetry_space_group_name_H-M "C C C M"
_symmetry_group_IT_number 66
_symmetry_cell_setting 'orthorhombic'
loop_
_space_group_symop_operation_xyz
x,y,z
-x,-y,z
x,-y,1/2-z
-x,y,1/2-z
-x,-y,-z
x,y,-z
-x,y,1/2+z
x,-y,1/2+z
1/2+x,1/2+y,z
1/2-x,1/2-y,z
1/2+x,1/2-y,1/2-z
1/2-x,1/2+y,1/2-z
1/2-x,1/2-y,-z
1/2+x,1/2+y,-z
1/2-x,1/2+y,1/2+z
1/2+x,1/2-y,1/2+z
loop_
_atom_site_type_symbol
_atom_site_label
_atom_site_fract_x
_atom_site_fract_y
_atom_site_fract_z
Si Si1 0.828687 0.185838 0.296692
Si Si2 0.793999 0.367161 0.703090
Si Si3 0.000000 0.000000 0.750000
Si Si4 0.784588 0.538002 0.391527
Si Si5 0.913456 0.064904 0.611437
Si Si6 0.664041 0.588996 0.607869
O O1 0.832370 0.286472 0.316721
O O2 0.768364 0.154278 0.321230
O O3 0.873164 0.142154 0.364783
O O4 0.840103 0.165901 0.183368
O O5 0.809577 0.446122 0.634575
O O6 0.804580 0.391429 0.815745
O O7 0.034521 0.063700 0.818161
O O8 0.803327 0.563314 0.500000
O O9 0.719161 0.534270 0.382133
O O10 0.932264 0.074555 0.500000
O O11 0.884193 0.975669 0.630021
O O12 0.659469 0.628334 0.500000
#
# Coordination Sequence:
#
# PCOD8275359 Si02
#       6
#    16  16   4  16  16  16
#     4  10  17  30  43  65  94 118 159 203 232 270
#     4   9  18  26  44  66  89 126 159 190 235 280
#     4  12  22  36  52  66  92 126 166 196 232 280
#     4   9  16  28  42  61  91 123 157 188 223 279
#     4  11  21  33  49  68  90 123 162 198 234 273
#     4   9  16  28  46  61  84 124 158 189 232 271
#
# _framework density 15.722072000000001
#
# number of rings (size 3 to 8) (size 9 to 14) (size 15 to 20)
#    0.000    2.286    3.810    0.286    0.000    1.524 
#    0.000    5.714    0.000    0.000    0.000    0.000 
#    0.000    3.048    0.000    8.571    0.000    0.000 
#
# Total GULP energy -520628.348586 kJ/mol
# GULP energy per Si atom -12395.913062 kJ/mol
# Density = 1.568629 g / cm^3
# Si number density = 15.722072 Si / 1000 Ang^3
#
#
#
# Elastic Constant Matrix: (Units=GPa)
#
#
# Indices 1 2 3 4 5 6 
#
# 1 46.7842 26.9635 28.8039 0.0000 0.0000 0.0000
# 2 26.9635 73.9783 19.3426 0.0000 0.0000 0.0000
# 3 28.8039 19.3426 82.1419 0.0000 0.0000 0.0000
# 4 0.0000 0.0000 0.0000 16.4042 0.0000 0.0000
# 5 0.0000 0.0000 0.0000 0.0000 19.3056 0.0000
# 6 0.0000 0.0000 0.0000 0.0000 0.0000 13.5968
#
#
#
# Elastic Compliance Matrix: (Units=1/GPa)
#
#
# Indices 1 2 3 4 5 6 
#
# 1 0.032449 -0.009433 -0.009157 0.000000 0.000000 0.000000
# 2 -0.009433 0.017146 -0.000730 0.000000 0.000000 0.000000
# 3 -0.009157 -0.000730 0.015557 0.000000 0.000000 0.000000
# 4 0.000000 0.000000 0.000000 0.060960 0.000000 0.000000
# 5 0.000000 0.000000 0.000000 0.000000 0.051798 0.000000
# 6 0.000000 0.000000 0.000000 0.000000 0.000000 0.073547
#
#
# Mechanical properties :
#
#
# Convention : Reuss Voigt Hill
#
# Bulk Modulus (GPa) = 37.71807 39.23605 38.47706
# Shear Modulus (GPa) = 16.72605 18.38096 17.55350
#
# Velocity S-wave (km/s) = 3.26522 3.42295 3.34501
# Velocity P-wave (km/s) = 6.18532 6.37435 6.28054
#
# Compressibility (1/GPa) = 0.02651249
#
# Stress axis : x y z
#
# Youngs Moduli (GPa) = 30.81745 58.32143 64.27946
#
# Poissons Ratio (x) = 0.55013 0.58863
# Poissons Ratio (y) = 0.29069 0.04692
# Poissons Ratio (z) = 0.28221 0.04257
#
# Static dielectric constant tensor:
#      x y z
#    x 2.616490 0.000000 0.000000 
#    y 0.000000 2.873270 0.000000 
#    z 0.000000 0.000000 3.209380 
# 
# 
# High freq. dielectric constant tensor:
#      x y z
#    x 1.546310 0.000000 0.000000 
#    y 0.000000 1.586090 0.000000 
#    z 0.000000 0.000000 1.621440 
# 
# From -- ./inp_files/28802.got.cif
#   From: 2010.03.12/outbox.cif.g09.slc.cpg/sg66_15_cif.got.tgz:28802.got - 2010.04.10 21:57:39.
