data_PCOD8275919
_publ_section_title
;
Structure prediction by ZEFSAII (Michael W. Deem and Ramdas Pophale) SiO2 
 PCOD8275919
Probable space group: C C C M
;
_chemical_formula_sum "Si O2"
_cell_formula_units_Z 100
_cell_length_a 29.980895
_cell_length_b 9.205281
_cell_length_c 19.248811
_cell_angle_alpha 90.000000
_cell_angle_beta 90.000000
_cell_angle_gamma 90.000000
_cell_volume 5312.336197
_symmetry_space_group_name_H-M "C C C M"
_symmetry_group_IT_number 66
_symmetry_cell_setting 'orthorhombic'
loop_
_space_group_symop_operation_xyz
x,y,z
-x,-y,z
x,-y,1/2-z
-x,y,1/2-z
-x,-y,-z
x,y,-z
-x,y,1/2+z
x,-y,1/2+z
1/2+x,1/2+y,z
1/2-x,1/2-y,z
1/2+x,1/2-y,1/2-z
1/2-x,1/2+y,1/2-z
1/2-x,1/2-y,-z
1/2+x,1/2+y,-z
1/2-x,1/2+y,1/2+z
1/2+x,1/2-y,1/2+z
loop_
_atom_site_type_symbol
_atom_site_label
_atom_site_fract_x
_atom_site_fract_y
_atom_site_fract_z
Si Si1 0.633685 0.502135 0.421388
Si Si2 0.894092 0.688496 0.419270
Si Si3 0.301873 0.252890 0.079575
Si Si4 0.007340 0.656908 0.919369
Si Si5 0.565178 0.685662 0.158896
Si Si6 0.365205 0.071576 0.822860
Si Si7 0.000000 0.000000 0.750000
O O1 0.615661 0.487423 0.500000
O O2 0.637513 0.672796 0.402552
O O3 0.680909 0.419584 0.413096
O O4 0.598241 0.433526 0.370194
O O5 0.890792 0.644282 0.500000
O O6 0.945141 0.726834 0.397474
O O7 0.878765 0.553486 0.375132
O O8 0.250000 0.250000 0.096442
O O9 0.325283 0.154390 0.137785
O O10 0.311260 0.198285 0.000000
O O11 0.000000 0.500000 0.882374
O O12 0.966037 0.759290 0.902802
O O13 0.007340 0.631440 0.000000
O O14 0.593595 0.818672 0.192066
O O15 0.532379 0.610790 0.212067
O O16 0.349410 0.000000 0.750000
#
# Coordination Sequence:
#
# PCOD8275919 Si02
#       7
#    16  16  16  16  16  16   4
#     4   9  19  36  61  87 112 145 189 244 298 348
#     4  10  20  36  57  85 117 150 197 249 296 344
#     4   9  19  41  69  92 114 149 198 245 297 364
#     4  10  19  32  54  81 107 144 198 249 287 334
#     4  11  23  37  54  75 114 160 196 243 279 350
#     4  11  24  38  58  85 120 156 192 234 302 366
#     4  12  28  36  52  76 116 160 218 242 280 324
#
# _framework density 18.824110000000001
#
# number of rings (size 3 to 8) (size 9 to 14) (size 15 to 20)
#    0.000    1.920    1.600    1.920    4.480    1.280 
#    0.000    5.600    0.000    3.840    0.000    0.000 
#    0.000    0.000    0.000    0.000    0.000    0.000 
#
# Total GULP energy -619660.351595 kJ/mol
# GULP energy per Si atom -12393.207032 kJ/mol
# Density = 1.878127 g / cm^3
# Si number density = 18.824110 Si / 1000 Ang^3
#
#
#
# Elastic Constant Matrix: (Units=GPa)
#
#
# Indices 1 2 3 4 5 6 
#
# 1 124.1808 59.8692 50.7122 0.0000 0.0000 0.0000
# 2 59.8692 122.6045 58.0671 0.0000 0.0000 0.0000
# 3 50.7122 58.0671 65.0581 0.0000 0.0000 0.0000
# 4 0.0000 0.0000 0.0000 20.5786 0.0000 0.0000
# 5 0.0000 0.0000 0.0000 0.0000 21.9272 0.0000
# 6 0.0000 0.0000 0.0000 0.0000 0.0000 20.2646
#
#
#
# Elastic Compliance Matrix: (Units=1/GPa)
#
#
# Indices 1 2 3 4 5 6 
#
# 1 0.012249 -0.002528 -0.007292 0.000000 0.000000 0.000000
# 2 -0.002528 0.014651 -0.011106 0.000000 0.000000 0.000000
# 3 -0.007292 -0.011106 0.030967 0.000000 0.000000 0.000000
# 4 0.000000 0.000000 0.000000 0.048594 0.000000 0.000000
# 5 0.000000 0.000000 0.000000 0.000000 0.045605 0.000000
# 6 0.000000 0.000000 0.000000 0.000000 0.000000 0.049347
#
#
# Mechanical properties :
#
#
# Convention : Reuss Voigt Hill
#
# Bulk Modulus (GPa) = 62.43811 72.12671 67.28241
# Shear Modulus (GPa) = 20.11232 22.10041 21.10637
#
# Velocity S-wave (km/s) = 3.27224 3.43016 3.35213
# Velocity P-wave (km/s) = 6.89333 7.35440 7.12759
#
# Compressibility (1/GPa) = 0.01601586
#
# Stress axis : x y z
#
# Youngs Moduli (GPa) = 81.63668 68.25687 32.29219
#
# Poissons Ratio (x) = 0.17255 0.23548
# Poissons Ratio (y) = 0.20637 0.35863
# Poissons Ratio (z) = 0.59530 0.75804
#
# Static dielectric constant tensor:
#      x y z
#    x 3.470340 0.000000 0.000000 
#    y 0.000000 3.433760 0.000000 
#    z 0.000000 0.000000 3.355460 
# 
# 
# High freq. dielectric constant tensor:
#      x y z
#    x 1.715890 0.000000 0.000000 
#    y 0.000000 1.742150 0.000000 
#    z 0.000000 0.000000 1.721750 
# 
# From -- ./inp_files/53043.got.cif
#   From: 2010.03.12/outbox.cif.g09.slc.cpg/sg66_27_cif.got.tgz:53043.got - 2010.04.10 21:57:39.
