data_PCOD8275802
_publ_section_title
;
Structure prediction by ZEFSAII (Michael W. Deem and Ramdas Pophale) SiO2 
 PCOD8275802
Probable space group: C C C M
;
_chemical_formula_sum "Si O2"
_cell_formula_units_Z 96
_cell_length_a 20.849274
_cell_length_b 29.443002
_cell_length_c 9.088166
_cell_angle_alpha 90.000000
_cell_angle_beta 90.000000
_cell_angle_gamma 90.000000
_cell_volume 5578.908985
_symmetry_space_group_name_H-M "C C C M"
_symmetry_group_IT_number 66
_symmetry_cell_setting 'orthorhombic'
loop_
_space_group_symop_operation_xyz
x,y,z
-x,-y,z
x,-y,1/2-z
-x,y,1/2-z
-x,-y,-z
x,y,-z
-x,y,1/2+z
x,-y,1/2+z
1/2+x,1/2+y,z
1/2-x,1/2-y,z
1/2+x,1/2-y,1/2-z
1/2-x,1/2+y,1/2-z
1/2-x,1/2-y,-z
1/2+x,1/2+y,-z
1/2-x,1/2+y,1/2+z
1/2+x,1/2-y,1/2+z
loop_
_atom_site_type_symbol
_atom_site_label
_atom_site_fract_x
_atom_site_fract_y
_atom_site_fract_z
Si Si1 0.561409 0.612893 0.165273
Si Si2 0.308118 0.381501 0.674971
Si Si3 0.559354 0.951563 0.672113
Si Si4 0.058806 0.779484 0.339312
Si Si5 0.198165 0.787347 0.674431
Si Si6 0.700858 0.952483 0.670502
O O1 0.500000 0.591681 0.250000
O O2 0.625475 0.600905 0.255344
O O3 0.552551 0.666553 0.154856
O O4 0.565561 0.592445 0.000000
O O5 0.316099 0.377756 0.500000
O O6 0.286127 0.333145 0.738872
O O7 0.253376 0.416567 0.724193
O O8 0.500000 0.923920 0.750000
O O9 0.544498 0.956224 0.500000
O O10 0.630070 0.930341 0.699782
O O11 0.561511 0.000000 0.750000
O O12 0.052830 0.757870 0.500000
O O13 0.128881 0.767771 0.273210
O O14 0.000000 0.757611 0.250000
O O15 0.196452 0.798053 0.500000
O O16 0.250000 0.750000 0.717418
O O17 0.709244 0.963296 0.500000
O O18 0.711814 0.000000 0.750000
#
# Coordination Sequence:
#
# PCOD8275802 Si02
#       6
#    16  16  16  16  16  16
#     4   9  16  27  44  67  92 120 153 190 230 271
#     4  10  19  31  47  70  97 123 153 191 234 278
#     4   9  15  25  41  63  88 114 147 187 228 267
#     4   8  14  24  40  62  86 111 142 182 223 262
#     4   9  18  32  48  67  92 122 156 192 230 275
#     4   9  19  32  47  68  95 124 154 190 231 278
#
# _framework density 17.207666
#
# number of rings (size 3 to 8) (size 9 to 14) (size 15 to 20)
#    0.000    3.000    0.000    3.000    0.000    6.333 
#    0.000    0.000    0.000    1.500    0.000   10.500 
#    0.000    0.000    0.000    0.000    0.000    0.000 
#
# Total GULP energy -594747.626023 kJ/mol
# GULP energy per Si atom -12390.575542 kJ/mol
# Density = 1.716850 g / cm^3
# Si number density = 17.207666 Si / 1000 Ang^3
#
#
#
# Elastic Constant Matrix: (Units=GPa)
#
#
# Indices 1 2 3 4 5 6 
#
# 1 185.2974 62.7426 71.3624 0.0000 0.0000 0.0000
# 2 62.7426 47.4595 34.8522 0.0000 0.0000 0.0000
# 3 71.3624 34.8522 92.9565 0.0000 0.0000 0.0000
# 4 0.0000 0.0000 0.0000 10.8963 0.0000 0.0000
# 5 0.0000 0.0000 0.0000 0.0000 29.6189 0.0000
# 6 0.0000 0.0000 0.0000 0.0000 0.0000 34.9203
#
#
#
# Elastic Compliance Matrix: (Units=1/GPa)
#
#
# Indices 1 2 3 4 5 6 
#
# 1 0.010769 -0.011268 -0.004043 0.000000 0.000000 0.000000
# 2 -0.011268 0.040867 -0.006672 0.000000 0.000000 0.000000
# 3 -0.004043 -0.006672 0.016363 0.000000 0.000000 0.000000
# 4 0.000000 0.000000 0.000000 0.091774 0.000000 0.000000
# 5 0.000000 0.000000 0.000000 0.000000 0.033762 0.000000
# 6 0.000000 0.000000 0.000000 0.000000 0.000000 0.028637
#
#
# Mechanical properties :
#
#
# Convention : Reuss Voigt Hill
#
# Bulk Modulus (GPa) = 41.60839 73.73643 57.67241
# Shear Modulus (GPa) = 18.23833 25.53753 21.88793
#
# Velocity S-wave (km/s) = 3.25914 3.85655 3.57036
# Velocity P-wave (km/s) = 6.19639 7.92304 7.11231
#
# Compressibility (1/GPa) = 0.02403362
#
# Stress axis : x y z
#
# Youngs Moduli (GPa) = 92.85781 24.46962 61.11507
#
# Poissons Ratio (x) = 0.27573 0.24706
# Poissons Ratio (y) = 1.04636 0.40774
# Poissons Ratio (z) = 0.37538 0.16325
#
# Static dielectric constant tensor:
#      x y z
#    x 4.029690 0.000000 0.000000 
#    y 0.000000 2.628590 0.000000 
#    z 0.000000 0.000000 3.381030 
# 
# 
# High freq. dielectric constant tensor:
#      x y z
#    x 1.690860 0.000000 0.000000 
#    y 0.000000 1.591500 0.000000 
#    z 0.000000 0.000000 1.673440 
# 
# From -- ./inp_files/8010.got.cif
#   From: 2010.03.12/outbox.cif.g09.slc.cpg/sg66_5_cif.got.tgz:8010.got - 2010.04.10 21:57:39.
