data_PCOD8275875
_publ_section_title
;
Structure prediction by ZEFSAII (Michael W. Deem and Ramdas Pophale) SiO2 
 PCOD8275875
Probable space group: C C C M
;
_chemical_formula_sum "Si O2"
_cell_formula_units_Z 88
_cell_length_a 21.013526
_cell_length_b 22.124118
_cell_length_c 9.408117
_cell_angle_alpha 90.000000
_cell_angle_beta 90.000000
_cell_angle_gamma 90.000000
_cell_volume 4373.887491
_symmetry_space_group_name_H-M "C C C M"
_symmetry_group_IT_number 66
_symmetry_cell_setting 'orthorhombic'
loop_
_space_group_symop_operation_xyz
x,y,z
-x,-y,z
x,-y,1/2-z
-x,y,1/2-z
-x,-y,-z
x,y,-z
-x,y,1/2+z
x,-y,1/2+z
1/2+x,1/2+y,z
1/2-x,1/2-y,z
1/2+x,1/2-y,1/2-z
1/2-x,1/2+y,1/2-z
1/2-x,1/2-y,-z
1/2+x,1/2+y,-z
1/2-x,1/2+y,1/2+z
1/2+x,1/2-y,1/2+z
loop_
_atom_site_type_symbol
_atom_site_label
_atom_site_fract_x
_atom_site_fract_y
_atom_site_fract_z
Si Si1 0.111131 0.730332 0.841925
Si Si2 0.307554 0.123065 0.333112
Si Si3 0.000000 0.349336 0.250000
Si Si4 0.320250 0.439577 0.336662
Si Si5 0.064934 0.855998 0.831241
Si Si6 0.907731 0.445616 0.340583
O O1 0.169230 0.689802 0.777217
O O2 0.046185 0.691685 0.844772
O O3 0.097029 0.794563 0.766234
O O4 0.131820 0.747409 0.000000
O O5 0.325693 0.116922 0.500000
O O6 0.232897 0.112114 0.306490
O O7 0.343955 0.072544 0.243091
O O8 0.957669 0.390885 0.353144
O O9 0.307142 0.500000 0.250000
O O10 0.317921 0.458863 0.500000
O O11 0.388208 0.411332 0.296693
O O12 0.000000 0.870082 0.750000
O O13 0.051686 0.849727 0.000000
O O14 0.938747 0.500000 0.250000
O O15 0.890290 0.466622 0.500000
#
# Coordination Sequence:
#
# PCOD8275875 Si02
#       6
#    16  16   8  16  16  16
#     4   9  17  32  55  81 110 142 181 226 275 332
#     4   9  19  36  57  82 111 146 185 228 280 335
#     4  10  19  32  50  74 105 146 184 226 278 328
#     4  10  22  39  60  84 113 149 190 235 284 338
#     4  10  21  38  60  87 115 147 186 232 285 340
#     4  11  22  33  49  75 109 148 191 234 276 326
#
# _framework density 20.119401
#
# number of rings (size 3 to 8) (size 9 to 14) (size 15 to 20)
#    0.000    2.182    0.909    1.909    0.000    6.909 
#    0.000    5.455    0.000    0.000    0.000    5.091 
#    0.000    0.000    0.000    0.000    0.000    0.000 
#
# Total GULP energy -545316.988158 kJ/mol
# GULP energy per Si atom -12393.567913 kJ/mol
# Density = 2.007361 g / cm^3
# Si number density = 20.119401 Si / 1000 Ang^3
#
#
#
# Elastic Constant Matrix: (Units=GPa)
#
#
# Indices 1 2 3 4 5 6 
#
# 1 122.0029 44.7387 33.1283 0.0000 0.0000 0.0000
# 2 44.7387 67.8315 23.4349 0.0000 0.0000 0.0000
# 3 33.1283 23.4349 74.5941 0.0000 0.0000 0.0000
# 4 0.0000 0.0000 0.0000 23.4174 0.0000 0.0000
# 5 0.0000 0.0000 0.0000 0.0000 25.0181 0.0000
# 6 0.0000 0.0000 0.0000 0.0000 0.0000 22.6509
#
#
#
# Elastic Compliance Matrix: (Units=1/GPa)
#
#
# Indices 1 2 3 4 5 6 
#
# 1 0.011390 -0.006466 -0.003027 0.000000 0.000000 0.000000
# 2 -0.006466 0.020209 -0.003477 0.000000 0.000000 0.000000
# 3 -0.003027 -0.003477 0.015842 0.000000 0.000000 0.000000
# 4 0.000000 0.000000 0.000000 0.042703 0.000000 0.000000
# 5 0.000000 0.000000 0.000000 0.000000 0.039971 0.000000
# 6 0.000000 0.000000 0.000000 0.000000 0.000000 0.044148
#
#
# Mechanical properties :
#
#
# Convention : Reuss Voigt Hill
#
# Bulk Modulus (GPa) = 46.51091 51.89248 49.20169
# Shear Modulus (GPa) = 24.11138 25.09236 24.60187
#
# Velocity S-wave (km/s) = 3.46557 3.53536 3.50064
# Velocity P-wave (km/s) = 6.25949 6.52022 6.39118
#
# Compressibility (1/GPa) = 0.02150033
#
# Stress axis : x y z
#
# Youngs Moduli (GPa) = 87.79898 49.48374 63.12136
#
# Poissons Ratio (x) = 0.31998 0.19105
# Poissons Ratio (y) = 0.56774 0.21948
# Poissons Ratio (z) = 0.26575 0.17206
#
# Static dielectric constant tensor:
#      x y z
#    x 3.599550 0.000000 0.000000 
#    y 0.000000 3.735290 0.000000 
#    z 0.000000 0.000000 3.338230 
# 
# 
# High freq. dielectric constant tensor:
#      x y z
#    x 1.782590 0.000000 0.000000 
#    y 0.000000 1.787320 0.000000 
#    z 0.000000 0.000000 1.754890 
# 
# From -- ./inp_files/7797.got.cif
#   From: 2010.03.12/outbox.cif.g09.slc.cpg/sg66_4_cif.got.tgz:7797.got - 2010.04.10 21:57:39.
