data_PCOD8275076
_publ_section_title
;
Structure prediction by ZEFSAII (Michael W. Deem and Ramdas Pophale) SiO2 
 PCOD8275076
Probable space group: C M M M
;
_chemical_formula_sum "Si O2"
_cell_formula_units_Z 80
_cell_length_a 19.319287
_cell_length_b 9.142680
_cell_length_c 26.197360
_cell_angle_alpha 90.000000
_cell_angle_beta 90.000000
_cell_angle_gamma 90.000000
_cell_volume 4627.241239
_symmetry_space_group_name_H-M "C M M M"
_symmetry_group_IT_number 65
_symmetry_cell_setting 'orthorhombic'
loop_
_space_group_symop_operation_xyz
x,y,z
-x,-y,z
x,-y,-z
-x,y,-z
-x,-y,-z
x,y,-z
-x,y,z
x,-y,z
1/2+x,1/2+y,z
1/2-x,1/2-y,z
1/2+x,1/2-y,-z
1/2-x,1/2+y,-z
1/2-x,1/2-y,-z
1/2+x,1/2+y,-z
1/2-x,1/2+y,z
1/2+x,1/2-y,z
loop_
_atom_site_type_symbol
_atom_site_label
_atom_site_fract_x
_atom_site_fract_y
_atom_site_fract_z
Si Si1 0.582501 0.334412 0.500000
Si Si2 0.582392 0.665242 0.301776
Si Si3 0.417436 0.165595 0.400601
Si Si4 0.420331 0.828508 0.798860
Si Si5 0.176790 0.671558 0.889667
Si Si6 0.320845 0.831738 0.000000
O O1 0.611030 0.500000 0.500000
O O2 0.500000 0.335390 0.500000
O O3 0.610706 0.250707 0.549832
O O4 0.500000 0.666263 0.303367
O O5 0.611076 0.500000 0.303148
O O6 0.611669 0.752760 0.350517
O O7 0.608587 0.744034 0.250504
O O8 0.500000 0.165344 0.400331
O O9 0.389094 0.000000 0.401383
O O10 0.500000 0.789060 0.809608
O O11 0.377100 0.772526 0.847483
O O12 0.411119 0.000000 0.788700
O O13 0.190066 0.500000 0.883176
O O14 0.250000 0.750000 0.882263
O O15 0.141966 0.706405 0.945856
O O16 0.250000 0.750000 0.000000
O O17 0.301466 0.000000 0.000000
#
# Coordination Sequence:
#
# PCOD8275076 Si02
#       6
#     8  16  16  16  16   8
#     4   9  15  21  29  43  65  93 128 171 212 249
#     4   9  16  25  37  53  73 100 135 172 209 251
#     4   9  15  22  32  46  66  95 131 169 209 253
#     4   9  17  29  43  60  84 113 143 175 213 257
#     4   9  17  29  46  66  87 112 142 176 213 254
#     4   8  14  26  43  63  85 109 139 172 208 252
#
# _framework density 17.288919
#
# number of rings (size 3 to 8) (size 9 to 14) (size 15 to 20)
#    0.000    3.100    0.000    1.500    0.000    6.800 
#    0.000    0.500    0.000    3.000    0.000    0.000 
#    0.000   11.200    0.000    0.900    0.000   13.200 
#
# Total GULP energy -495685.421257 kJ/mol
# GULP energy per Si atom -12392.135531 kJ/mol
# Density = 1.724957 g / cm^3
# Si number density = 17.288919 Si / 1000 Ang^3
#
#
#
# Elastic Constant Matrix: (Units=GPa)
#
#
# Indices 1 2 3 4 5 6 
#
# 1 26.5303 20.0011 40.4389 0.0000 0.0000 0.0000
# 2 20.0011 104.0090 83.3044 0.0000 0.0000 0.0000
# 3 40.4389 83.3044 210.8371 0.0000 0.0000 0.0000
# 4 0.0000 0.0000 0.0000 27.6931 0.0000 0.0000
# 5 0.0000 0.0000 0.0000 0.0000 3.2383 0.0000
# 6 0.0000 0.0000 0.0000 0.0000 0.0000 11.1870
#
#
#
# Elastic Compliance Matrix: (Units=1/GPa)
#
#
# Indices 1 2 3 4 5 6 
#
# 1 0.053919 -0.003051 -0.009136 0.000000 0.000000 0.000000
# 2 -0.003051 0.014238 -0.005041 0.000000 0.000000 0.000000
# 3 -0.009136 -0.005041 0.008487 0.000000 0.000000 0.000000
# 4 0.000000 0.000000 0.000000 0.036110 0.000000 0.000000
# 5 0.000000 0.000000 0.000000 0.000000 0.308801 0.000000
# 6 0.000000 0.000000 0.000000 0.000000 0.000000 0.089389
#
#
# Mechanical properties :
#
#
# Convention : Reuss Voigt Hill
#
# Bulk Modulus (GPa) = 23.70317 69.87388 46.78853
# Shear Modulus (GPa) = 8.93714 21.59916 15.26815
#
# Velocity S-wave (km/s) = 2.27607 3.53839 2.97495
# Velocity P-wave (km/s) = 4.54391 7.56285 6.23875
#
# Compressibility (1/GPa) = 0.04218845
#
# Stress axis : x y z
#
# Youngs Moduli (GPa) = 18.54635 70.23222 117.82837
#
# Poissons Ratio (x) = 0.21429 1.07650
# Poissons Ratio (y) = 0.05659 0.59392
# Poissons Ratio (z) = 0.16944 0.35401
#
# Static dielectric constant tensor:
#      x y z
#    x 2.506380 0.000000 0.000000 
#    y 0.000000 3.156440 0.000000 
#    z 0.000000 0.000000 3.784480 
# 
# 
# High freq. dielectric constant tensor:
#      x y z
#    x 1.581780 0.000000 0.000000 
#    y 0.000000 1.676220 0.000000 
#    z 0.000000 0.000000 1.693780 
# 
# From -- ./inp_files/71362.got.cif
#   From: 2010.03.12/outbox.cif.g09.slc.cpg/sg65_36_cif.got.tgz:71362.got - 2010.04.10 20:52:16.
