data_PCOD8275443
_publ_section_title
;
Structure prediction by ZEFSAII (Michael W. Deem and Ramdas Pophale) SiO2 
 PCOD8275443
Probable space group: C C C M
;
_chemical_formula_sum "Si O2"
_cell_formula_units_Z 112
_cell_length_a 18.532518
_cell_length_b 20.132039
_cell_length_c 16.227598
_cell_angle_alpha 90.000000
_cell_angle_beta 90.000000
_cell_angle_gamma 90.000000
_cell_volume 6054.474219
_symmetry_space_group_name_H-M "C C C M"
_symmetry_group_IT_number 66
_symmetry_cell_setting 'orthorhombic'
loop_
_space_group_symop_operation_xyz
x,y,z
-x,-y,z
x,-y,1/2-z
-x,y,1/2-z
-x,-y,-z
x,y,-z
-x,y,1/2+z
x,-y,1/2+z
1/2+x,1/2+y,z
1/2-x,1/2-y,z
1/2+x,1/2-y,1/2-z
1/2-x,1/2+y,1/2-z
1/2-x,1/2-y,-z
1/2+x,1/2+y,-z
1/2-x,1/2+y,1/2+z
1/2+x,1/2-y,1/2+z
loop_
_atom_site_type_symbol
_atom_site_label
_atom_site_fract_x
_atom_site_fract_y
_atom_site_fract_z
Si Si1 0.580775 0.684766 0.090912
Si Si2 0.665860 0.431274 0.205199
Si Si3 0.775292 0.869513 0.138740
Si Si4 0.069816 0.464408 0.902071
Si Si5 0.027309 0.926238 0.098025
Si Si6 0.877341 0.324026 0.401273
Si Si7 0.278661 0.011388 0.593330
O O1 0.664385 0.664614 0.082885
O O2 0.531631 0.627249 0.132649
O O3 0.579911 0.758574 0.131875
O O4 0.548371 0.692305 0.000000
O O5 0.646326 0.500000 0.250000
O O6 0.687426 0.375180 0.271086
O O7 0.599899 0.409329 0.147394
O O8 0.737208 0.436602 0.149496
O O9 0.701915 0.826583 0.140781
O O10 0.759787 0.940306 0.097877
O O11 0.075516 0.387749 0.873637
O O12 0.139947 0.505112 0.872317
O O13 0.000000 0.500000 0.862482
O O14 0.066365 0.466735 0.000000
O O15 0.041384 0.921070 0.000000
O O16 0.000000 0.000000 0.120205
O O17 0.866352 0.322388 0.500000
O O18 0.277268 0.037203 0.500000
#
# Coordination Sequence:
#
# PCOD8275443 Si02
#       7
#    16  16  16  16  16  16  16
#     4  10  19  30  48  73  99 129 162 199 244 291
#     4  10  20  30  45  68  97 133 169 204 245 295
#     4  10  18  28  46  70  99 129 158 197 246 297
#     4   8  14  26  48  76  98 116 147 196 247 290
#     4  10  20  33  49  71 101 137 177 215 248 288
#     4   9  17  30  50  75  99 124 157 196 244 300
#     4   9  16  28  47  70  96 126 162 203 244 287
#
# _framework density 18.498716000000002
#
# number of rings (size 3 to 8) (size 9 to 14) (size 15 to 20)
#    0.000    2.571    0.000    4.714    0.000    4.286 
#    0.000    0.000    0.000   15.857    0.000    0.000 
#    0.000   11.429    0.000    0.571    0.000    0.000 
#
# Total GULP energy -693994.888106 kJ/mol
# GULP energy per Si atom -12392.765859 kJ/mol
# Density = 1.845661 g / cm^3
# Si number density = 18.498716 Si / 1000 Ang^3
#
#
#
# Elastic Constant Matrix: (Units=GPa)
#
#
# Indices 1 2 3 4 5 6 
#
# 1 136.1511 71.8169 25.5727 0.0000 0.0000 0.0000
# 2 71.8169 95.4655 21.2168 0.0000 0.0000 0.0000
# 3 25.5727 21.2168 47.4412 0.0000 0.0000 0.0000
# 4 0.0000 0.0000 0.0000 12.0053 0.0000 0.0000
# 5 0.0000 0.0000 0.0000 0.0000 17.8233 0.0000
# 6 0.0000 0.0000 0.0000 0.0000 0.0000 29.2960
#
#
#
# Elastic Compliance Matrix: (Units=1/GPa)
#
#
# Indices 1 2 3 4 5 6 
#
# 1 0.012506 -0.008783 -0.002813 0.000000 0.000000 0.000000
# 2 -0.008783 0.017799 -0.003226 0.000000 0.000000 0.000000
# 3 -0.002813 -0.003226 0.024038 0.000000 0.000000 0.000000
# 4 0.000000 0.000000 0.000000 0.083296 0.000000 0.000000
# 5 0.000000 0.000000 0.000000 0.000000 0.056106 0.000000
# 6 0.000000 0.000000 0.000000 0.000000 0.000000 0.034134
#
#
# Mechanical properties :
#
#
# Convention : Reuss Voigt Hill
#
# Bulk Modulus (GPa) = 40.48761 57.36340 48.92550
# Shear Modulus (GPa) = 18.81420 22.52168 20.66794
#
# Velocity S-wave (km/s) = 3.19259 3.49302 3.34618
# Velocity P-wave (km/s) = 5.96023 6.88076 6.43698
#
# Compressibility (1/GPa) = 0.02469892
#
# Stress axis : x y z
#
# Youngs Moduli (GPa) = 79.96232 56.18295 41.60097
#
# Poissons Ratio (x) = 0.49344 0.11704
# Poissons Ratio (y) = 0.70228 0.13420
# Poissons Ratio (z) = 0.22496 0.18124
#
# Static dielectric constant tensor:
#      x y z
#    x 3.575210 0.000000 0.000000 
#    y 0.000000 3.431470 0.000000 
#    z 0.000000 0.000000 3.216400 
# 
# 
# High freq. dielectric constant tensor:
#      x y z
#    x 1.718470 0.000000 0.000000 
#    y 0.000000 1.694290 0.000000 
#    z 0.000000 0.000000 1.691240 
# 
# From -- ./inp_files/41962.got.cif
#   From: 2010.03.12/outbox.cif.g09.slc.cpg/sg66_21_cif.got.tgz:41962.got - 2010.04.10 21:57:39.
