data_PCOD8275338
_publ_section_title
;
Structure prediction by ZEFSAII (Michael W. Deem and Ramdas Pophale) SiO2 
 PCOD8275338
Probable space group: C C C M
;
_chemical_formula_sum "Si O2"
_cell_formula_units_Z 128
_cell_length_a 13.011470
_cell_length_b 24.275677
_cell_length_c 22.074940
_cell_angle_alpha 90.000000
_cell_angle_beta 90.000000
_cell_angle_gamma 90.000000
_cell_volume 6972.640063
_symmetry_space_group_name_H-M "C C C M"
_symmetry_group_IT_number 66
_symmetry_cell_setting 'orthorhombic'
loop_
_space_group_symop_operation_xyz
x,y,z
-x,-y,z
x,-y,1/2-z
-x,y,1/2-z
-x,-y,-z
x,y,-z
-x,y,1/2+z
x,-y,1/2+z
1/2+x,1/2+y,z
1/2-x,1/2-y,z
1/2+x,1/2-y,1/2-z
1/2-x,1/2+y,1/2-z
1/2-x,1/2-y,-z
1/2+x,1/2+y,-z
1/2-x,1/2+y,1/2+z
1/2+x,1/2-y,1/2+z
loop_
_atom_site_type_symbol
_atom_site_label
_atom_site_fract_x
_atom_site_fract_y
_atom_site_fract_z
Si Si1 0.524866 0.323896 0.065352
Si Si2 0.177796 0.872849 0.610803
Si Si3 0.671534 0.704607 0.781579
Si Si4 0.382919 0.488837 0.071364
Si Si5 0.664884 0.796392 0.931405
Si Si6 0.281008 0.807073 0.843283
Si Si7 0.709490 0.398127 0.932334
Si Si8 0.993298 0.261383 0.159735
O O1 0.406901 0.340500 0.072013
O O2 0.591870 0.378802 0.066366
O O3 0.562873 0.286174 0.120354
O O4 0.536862 0.293995 0.000000
O O5 0.174409 0.851522 0.680068
O O6 0.161152 0.937941 0.609715
O O7 0.286081 0.856626 0.580442
O O8 0.750000 0.750000 0.808198
O O9 0.701844 0.688245 0.713222
O O10 0.558677 0.733703 0.785226
O O11 0.500000 0.500000 0.092142
O O12 0.303540 0.538375 0.087619
O O13 0.380096 0.475577 0.000000
O O14 0.750000 0.750000 0.916832
O O15 0.568238 0.791937 0.887066
O O16 0.624745 0.791938 0.000000
O O17 0.250000 0.750000 0.877978
O O18 0.275757 0.860743 0.886146
O O19 0.399859 0.801419 0.818514
O O20 0.758385 0.393415 0.000000
#
# Coordination Sequence:
#
# PCOD8275338 Si02
#       8
#    16  16  16  16  16  16  16  16
#     4  10  17  28  52  81 113 148 182 223 275 337
#     4  11  18  33  53  82 117 154 185 228 285 338
#     4  10  21  39  55  83 114 145 191 235 279 333
#     4  10  19  32  56  85 115 152 192 233 286 342
#     4  11  19  29  51  85 122 150 183 231 281 334
#     4  11  24  38  56  80 109 155 191 230 289 341
#     4  10  21  37  53  81 118 148 189 235 278 344
#     4  11  20  36  53  79 116 149 185 231 280 342
#
# _framework density 18.357467
#
# number of rings (size 3 to 8) (size 9 to 14) (size 15 to 20)
#    0.000    1.500    6.250    1.500    0.000    3.250 
#    0.000    0.625    0.000    1.500    0.000    2.625 
#    7.500    0.000    0.000    0.000    0.000    0.000 
#
# Total GULP energy -792991.057491 kJ/mol
# GULP energy per Si atom -12390.485273 kJ/mol
# Density = 1.831568 g / cm^3
# Si number density = 18.357467 Si / 1000 Ang^3
#
#
#
# Elastic Constant Matrix: (Units=GPa)
#
#
# Indices 1 2 3 4 5 6 
#
# 1 75.8928 37.7978 45.4136 0.0000 0.0000 0.0000
# 2 37.7978 122.5848 46.7001 0.0000 0.0000 0.0000
# 3 45.4136 46.7001 95.4298 0.0000 0.0000 0.0000
# 4 0.0000 0.0000 0.0000 18.7607 0.0000 0.0000
# 5 0.0000 0.0000 0.0000 0.0000 26.9926 0.0000
# 6 0.0000 0.0000 0.0000 0.0000 0.0000 27.3647
#
#
#
# Elastic Compliance Matrix: (Units=1/GPa)
#
#
# Indices 1 2 3 4 5 6 
#
# 1 0.019287 -0.003012 -0.007704 0.000000 0.000000 0.000000
# 2 -0.003012 0.010497 -0.003704 0.000000 0.000000 0.000000
# 3 -0.007704 -0.003704 0.015958 0.000000 0.000000 0.000000
# 4 0.000000 0.000000 0.000000 0.053303 0.000000 0.000000
# 5 0.000000 0.000000 0.000000 0.000000 0.037047 0.000000
# 6 0.000000 0.000000 0.000000 0.000000 0.000000 0.036543
#
#
# Mechanical properties :
#
#
# Convention : Reuss Voigt Hill
#
# Bulk Modulus (GPa) = 59.16485 61.52562 60.34523
# Shear Modulus (GPa) = 24.14185 25.55665 24.84925
#
# Velocity S-wave (km/s) = 3.63036 3.73522 3.68316
# Velocity P-wave (km/s) = 7.06201 7.22431 7.14362
#
# Compressibility (1/GPa) = 0.01690193
#
# Stress axis : x y z
#
# Youngs Moduli (GPa) = 51.84919 95.26295 62.66533
#
# Poissons Ratio (x) = 0.28691 0.48280
# Poissons Ratio (y) = 0.15616 0.23210
# Poissons Ratio (z) = 0.39947 0.35283
#
# Static dielectric constant tensor:
#      x y z
#    x 3.376640 0.000000 0.000000 
#    y 0.000000 3.333160 0.000000 
#    z 0.000000 0.000000 3.348040 
# 
# 
# High freq. dielectric constant tensor:
#      x y z
#    x 1.706130 0.000000 0.000000 
#    y 0.000000 1.676800 0.000000 
#    z 0.000000 0.000000 1.713150 
# 
# From -- ./inp_files/57411.got.cif
#   From: 2010.03.12/outbox.cif.g09.slc.cpg/sg66_29_cif.got.tgz:57411.got - 2010.04.10 21:57:39.
