data_PCOD8275161
_publ_section_title
;
Structure prediction by ZEFSAII (Michael W. Deem and Ramdas Pophale) SiO2 
 PCOD8275161
Probable space group: C M M M
;
_chemical_formula_sum "Si O2"
_cell_formula_units_Z 72
_cell_length_a 12.802500
_cell_length_b 35.720973
_cell_length_c 7.544594
_cell_angle_alpha 90.000000
_cell_angle_beta 90.000000
_cell_angle_gamma 90.000000
_cell_volume 3450.276804
_symmetry_space_group_name_H-M "C M M M"
_symmetry_group_IT_number 65
_symmetry_cell_setting 'orthorhombic'
loop_
_space_group_symop_operation_xyz
x,y,z
-x,-y,z
x,-y,-z
-x,y,-z
-x,-y,-z
x,y,-z
-x,y,z
x,-y,z
1/2+x,1/2+y,z
1/2-x,1/2-y,z
1/2+x,1/2-y,-z
1/2-x,1/2+y,-z
1/2-x,1/2-y,-z
1/2+x,1/2+y,-z
1/2-x,1/2+y,z
1/2+x,1/2-y,z
loop_
_atom_site_type_symbol
_atom_site_label
_atom_site_fract_x
_atom_site_fract_y
_atom_site_fract_z
Si Si1 0.377725 0.684882 0.500000
Si Si2 0.125481 0.268589 0.500000
Si Si3 0.000000 0.458209 0.211932
Si Si4 0.383299 0.373749 0.794877
Si Si5 0.878798 0.678502 0.804315
Si Si6 0.827502 0.596886 0.794421
O O1 0.500000 0.691920 0.500000
O O2 0.325839 0.726414 0.500000
O O3 0.348078 0.661949 0.321997
O O4 0.169103 0.290824 0.671523
O O5 0.000000 0.268135 0.500000
O O6 0.103629 0.436803 0.287677
O O7 0.000000 0.500000 0.291884
O O8 0.000000 0.460300 0.000000
O O9 0.500000 0.387798 0.742020
O O10 0.298384 0.407064 0.760312
O O11 0.379943 0.361237 0.000000
O O12 0.861883 0.637236 0.719890
O O13 0.000000 0.686345 0.824373
O O14 0.825580 0.681664 0.000000
O O15 0.854713 0.596675 0.000000
#
# Coordination Sequence:
#
# PCOD8275161 Si02
#       6
#     8   8   8  16  16  16
#     4   9  18  33  49  70 100 130 174 225 259 303
#     4   9  18  29  45  71  97 128 170 211 262 314
#     4   9  16  28  52  85 115 139 164 207 263 310
#     4   9  18  32  51  72  97 135 176 214 255 295
#     4   9  16  28  45  66  95 130 167 208 252 304
#     4   9  16  29  49  74 103 133 171 210 248 309
#
# _framework density 20.867892000000001
#
# number of rings (size 3 to 8) (size 9 to 14) (size 15 to 20)
#    0.000    3.000    1.111    0.000    0.000    1.778 
#    0.000    6.667    0.000    4.667    0.000   10.889 
#    0.000    2.667    0.000    0.222    0.000    0.000 
#
# Total GULP energy -445994.500754 kJ/mol
# GULP energy per Si atom -12388.736132 kJ/mol
# Density = 2.082040 g / cm^3
# Si number density = 20.867892 Si / 1000 Ang^3
#
#
#
# Elastic Constant Matrix: (Units=GPa)
#
#
# Indices 1 2 3 4 5 6 
#
# 1 119.9249 84.2807 21.6895 0.0000 0.0000 0.0000
# 2 84.2807 149.9575 42.5006 0.0000 0.0000 0.0000
# 3 21.6895 42.5006 83.0027 0.0000 0.0000 0.0000
# 4 0.0000 0.0000 0.0000 87.7742 0.0000 0.0000
# 5 0.0000 0.0000 0.0000 0.0000 7.4010 0.0000
# 6 0.0000 0.0000 0.0000 0.0000 0.0000 22.9095
#
#
#
# Elastic Compliance Matrix: (Units=1/GPa)
#
#
# Indices 1 2 3 4 5 6 
#
# 1 0.013795 -0.007874 0.000427 0.000000 0.000000 0.000000
# 2 -0.007874 0.012295 -0.004238 0.000000 0.000000 0.000000
# 3 0.000427 -0.004238 0.014106 0.000000 0.000000 0.000000
# 4 0.000000 0.000000 0.000000 0.011393 0.000000 0.000000
# 5 0.000000 0.000000 0.000000 0.000000 0.135117 0.000000
# 6 0.000000 0.000000 0.000000 0.000000 0.000000 0.043650
#
#
# Mechanical properties :
#
#
# Convention : Reuss Voigt Hill
#
# Bulk Modulus (GPa) = 59.43095 72.20298 65.81696
# Shear Modulus (GPa) = 19.28002 37.24456 28.26229
#
# Velocity S-wave (km/s) = 3.04288 4.22925 3.68413
# Velocity P-wave (km/s) = 6.39429 7.65009 7.05021
#
# Compressibility (1/GPa) = 0.01682625
#
# Stress axis : x y z
#
# Youngs Moduli (GPa) = 72.48856 81.33151 70.89073
#
# Poissons Ratio (x) = 0.64044 -0.03028
# Poissons Ratio (y) = 0.57081 0.30044
# Poissons Ratio (z) = -0.03096 0.34469
#
# Static dielectric constant tensor:
#      x y z
#    x 4.133860 0.000000 0.000000 
#    y 0.000000 3.694730 0.000000 
#    z 0.000000 0.000000 3.925120 
# 
# 
# High freq. dielectric constant tensor:
#      x y z
#    x 1.843130 0.000000 0.000000 
#    y 0.000000 1.765820 0.000000 
#    z 0.000000 0.000000 1.805510 
# 
# From -- ./inp_files/7427.got.cif
#   From: 2010.03.12/outbox.cif.g09.slc.cpg/sg65_4_cif.got.tgz:7427.got - 2010.04.10 20:52:16.
