data_PCOD8275322
_publ_section_title
;
Structure prediction by ZEFSAII (Michael W. Deem and Ramdas Pophale) SiO2 
 PCOD8275322
Probable space group: C C C M
;
_chemical_formula_sum "Si O2"
_cell_formula_units_Z 104
_cell_length_a 14.185199
_cell_length_b 26.156724
_cell_length_c 18.083136
_cell_angle_alpha 90.000000
_cell_angle_beta 90.000000
_cell_angle_gamma 90.000000
_cell_volume 6709.536675
_symmetry_space_group_name_H-M "C C C M"
_symmetry_group_IT_number 66
_symmetry_cell_setting 'orthorhombic'
loop_
_space_group_symop_operation_xyz
x,y,z
-x,-y,z
x,-y,1/2-z
-x,y,1/2-z
-x,-y,-z
x,y,-z
-x,y,1/2+z
x,-y,1/2+z
1/2+x,1/2+y,z
1/2-x,1/2-y,z
1/2+x,1/2-y,1/2-z
1/2-x,1/2+y,1/2-z
1/2-x,1/2-y,-z
1/2+x,1/2+y,-z
1/2-x,1/2+y,1/2+z
1/2+x,1/2-y,1/2+z
loop_
_atom_site_type_symbol
_atom_site_label
_atom_site_fract_x
_atom_site_fract_y
_atom_site_fract_z
Si Si1 0.844429 0.917395 0.415791
Si Si2 0.747501 0.678913 0.634187
Si Si3 0.057302 0.786718 0.676468
Si Si4 0.109019 0.987883 0.666471
Si Si5 0.250000 0.250000 0.766503
Si Si6 0.095324 0.257350 0.581722
Si Si7 0.938311 0.110969 0.413200
O O1 0.811068 0.914965 0.500000
O O2 0.776265 0.880879 0.367709
O O3 0.951620 0.900202 0.406327
O O4 0.831242 0.974814 0.386413
O O5 0.757608 0.698547 0.717839
O O6 0.846232 0.690331 0.593158
O O7 0.663264 0.708766 0.593347
O O8 0.154838 0.756403 0.687197
O O9 0.080252 0.834284 0.623428
O O10 0.000000 0.804929 0.750000
O O11 0.991633 0.744909 0.637315
O O12 0.122268 0.930144 0.635368
O O13 0.143337 0.000000 0.750000
O O14 0.000000 0.000000 0.659149
O O15 0.053235 0.255204 0.500000
O O16 0.907499 0.110090 0.500000
#
# Coordination Sequence:
#
# PCOD8275322 Si02
#       7
#    16  16  16  16   8  16  16
#     4  10  17  28  45  67  94 122 159 203 242 279
#     4  10  17  29  47  68  95 116 162 209 249 277
#     4  12  20  33  50  66  96 131 166 199 237 289
#     4   9  19  28  41  64  92 124 161 196 231 282
#     4  10  22  32  44  72  92 126 160 204 238 290
#     4  10  18  29  46  68  92 121 161 204 242 281
#     4  10  20  31  45  63  91 132 165 191 231 285
#
# _framework density 15.500324000000001
#
# number of rings (size 3 to 8) (size 9 to 14) (size 15 to 20)
#    0.000    2.000    4.615    2.769    6.462    1.846 
#    0.000    1.538    0.000    0.000    0.000    0.000 
#    0.000    1.231    1.231    4.462    0.923    0.000 
#
# Total GULP energy -644478.972886 kJ/mol
# GULP energy per Si atom -12393.826402 kJ/mol
# Density = 1.546504 g / cm^3
# Si number density = 15.500324 Si / 1000 Ang^3
#
#
#
# Elastic Constant Matrix: (Units=GPa)
#
#
# Indices 1 2 3 4 5 6 
#
# 1 63.6499 36.8881 41.8448 0.0000 0.0000 0.0000
# 2 36.8881 80.4643 36.5883 0.0000 0.0000 0.0000
# 3 41.8448 36.5883 102.7457 0.0000 0.0000 0.0000
# 4 0.0000 0.0000 0.0000 12.0878 0.0000 0.0000
# 5 0.0000 0.0000 0.0000 0.0000 14.8594 0.0000
# 6 0.0000 0.0000 0.0000 0.0000 0.0000 22.1123
#
#
#
# Elastic Compliance Matrix: (Units=1/GPa)
#
#
# Indices 1 2 3 4 5 6 
#
# 1 0.025355 -0.008267 -0.007382 0.000000 0.000000 0.000000
# 2 -0.008267 0.017525 -0.002874 0.000000 0.000000 0.000000
# 3 -0.007382 -0.002874 0.013763 0.000000 0.000000 0.000000
# 4 0.000000 0.000000 0.000000 0.082728 0.000000 0.000000
# 5 0.000000 0.000000 0.000000 0.000000 0.067298 0.000000
# 6 0.000000 0.000000 0.000000 0.000000 0.000000 0.045224
#
#
# Mechanical properties :
#
#
# Convention : Reuss Voigt Hill
#
# Bulk Modulus (GPa) = 51.03005 53.05582 52.04293
# Shear Modulus (GPa) = 16.92218 18.58116 17.75167
#
# Velocity S-wave (km/s) = 3.30772 3.46607 3.38782
# Velocity P-wave (km/s) = 6.89793 7.09375 6.99652
#
# Compressibility (1/GPa) = 0.01959630
#
# Stress axis : x y z
#
# Youngs Moduli (GPa) = 39.43926 57.06289 72.66004
#
# Poissons Ratio (x) = 0.47174 0.53641
# Poissons Ratio (y) = 0.32605 0.20880
# Poissons Ratio (z) = 0.29116 0.16398
#
# Static dielectric constant tensor:
#      x y z
#    x 2.689280 0.000000 0.000000 
#    y 0.000000 2.961600 0.000000 
#    z 0.000000 0.000000 3.129490 
# 
# 
# High freq. dielectric constant tensor:
#      x y z
#    x 1.542640 0.000000 0.000000 
#    y 0.000000 1.576890 0.000000 
#    z 0.000000 0.000000 1.607660 
# 
# From -- ./inp_files/40756.got.cif
#   From: 2010.03.12/outbox.cif.g09.slc.cpg/sg66_21_cif.got.tgz:40756.got - 2010.04.10 21:57:39.
