data_PCOD8275757
_publ_section_title
;
Structure prediction by ZEFSAII (Michael W. Deem and Ramdas Pophale) SiO2 
 PCOD8275757
Probable space group: C C C M
;
_chemical_formula_sum "Si O2"
_cell_formula_units_Z 112
_cell_length_a 21.732710
_cell_length_b 17.275063
_cell_length_c 17.609873
_cell_angle_alpha 90.000000
_cell_angle_beta 90.000000
_cell_angle_gamma 90.000000
_cell_volume 6611.343905
_symmetry_space_group_name_H-M "C C C M"
_symmetry_group_IT_number 66
_symmetry_cell_setting 'orthorhombic'
loop_
_space_group_symop_operation_xyz
x,y,z
-x,-y,z
x,-y,1/2-z
-x,y,1/2-z
-x,-y,-z
x,y,-z
-x,y,1/2+z
x,-y,1/2+z
1/2+x,1/2+y,z
1/2-x,1/2-y,z
1/2+x,1/2-y,1/2-z
1/2-x,1/2+y,1/2-z
1/2-x,1/2-y,-z
1/2+x,1/2+y,-z
1/2-x,1/2+y,1/2+z
1/2+x,1/2-y,1/2+z
loop_
_atom_site_type_symbol
_atom_site_label
_atom_site_fract_x
_atom_site_fract_y
_atom_site_fract_z
Si Si1 0.659601 0.253879 0.912861
Si Si2 0.949362 0.158535 0.855132
Si Si3 0.408664 0.501445 0.915832
Si Si4 0.233664 0.983322 0.413912
Si Si5 0.420187 0.641460 0.684074
Si Si6 0.245499 0.636761 0.844414
Si Si7 0.718033 0.330269 0.672929
O O1 0.588945 0.271280 0.891775
O O2 0.701374 0.330108 0.899903
O O3 0.683166 0.185486 0.857838
O O4 0.664528 0.227718 0.000000
O O5 0.920633 0.135047 0.774342
O O6 0.020034 0.188530 0.846765
O O7 0.943633 0.082833 0.907620
O O8 0.336063 0.511667 0.907947
O O9 0.430274 0.443719 0.850249
O O10 0.424348 0.468743 0.000000
O O11 0.258012 0.982609 0.500000
O O12 0.244320 0.897863 0.380502
O O13 0.269989 0.047715 0.364640
O O14 0.355494 0.679229 0.658716
O O15 0.267482 0.645745 0.758495
O O16 0.750000 0.250000 0.649818
#
# Coordination Sequence:
#
# PCOD8275757 Si02
#       7
#    16  16  16  16  16  16  16
#     4  11  20  30  51  78 105 132 160 209 267 317
#     4  11  19  31  46  66  99 133 166 201 252 306
#     4  10  19  30  44  65  95 130 170 209 243 288
#     4  10  20  32  50  74 103 138 176 216 255 304
#     4  10  21  32  45  66  93 135 174 206 242 301
#     4  11  18  33  52  76 104 133 167 211 263 317
#     4  11  20  36  54  73 102 139 182 217 257 301
#
# _framework density 16.940580000000001
#
# number of rings (size 3 to 8) (size 9 to 14) (size 15 to 20)
#    0.000    1.429    4.286    3.429    0.000    5.429 
#    0.000    0.000    0.000    0.000    0.000    1.000 
#    0.000    6.857    0.000    0.000    0.000    0.000 
#
# Total GULP energy -694287.435058 kJ/mol
# GULP energy per Si atom -12397.989912 kJ/mol
# Density = 1.690202 g / cm^3
# Si number density = 16.940580 Si / 1000 Ang^3
#
#
#
# Elastic Constant Matrix: (Units=GPa)
#
#
# Indices 1 2 3 4 5 6 
#
# 1 82.7840 45.4798 20.1739 0.0000 0.0000 0.0000
# 2 45.4798 102.7800 28.1053 0.0000 0.0000 0.0000
# 3 20.1739 28.1053 66.5299 0.0000 0.0000 0.0000
# 4 0.0000 0.0000 0.0000 23.0372 0.0000 0.0000
# 5 0.0000 0.0000 0.0000 0.0000 17.2578 0.0000
# 6 0.0000 0.0000 0.0000 0.0000 0.0000 20.6279
#
#
#
# Elastic Compliance Matrix: (Units=1/GPa)
#
#
# Indices 1 2 3 4 5 6 
#
# 1 0.016223 -0.006595 -0.002133 0.000000 0.000000 0.000000
# 2 -0.006595 0.013681 -0.003780 0.000000 0.000000 0.000000
# 3 -0.002133 -0.003780 0.017274 0.000000 0.000000 0.000000
# 4 0.000000 0.000000 0.000000 0.043408 0.000000 0.000000
# 5 0.000000 0.000000 0.000000 0.000000 0.057945 0.000000
# 6 0.000000 0.000000 0.000000 0.000000 0.000000 0.048478
#
#
# Mechanical properties :
#
#
# Convention : Reuss Voigt Hill
#
# Bulk Modulus (GPa) = 45.12153 48.84576 46.98365
# Shear Modulus (GPa) = 21.79472 22.74024 22.26748
#
# Velocity S-wave (km/s) = 3.59073 3.66779 3.62946
# Velocity P-wave (km/s) = 6.62451 6.84347 6.73488
#
# Compressibility (1/GPa) = 0.02216237
#
# Stress axis : x y z
#
# Youngs Moduli (GPa) = 61.64198 73.09158 57.88905
#
# Poissons Ratio (x) = 0.48205 0.12348
# Poissons Ratio (y) = 0.40654 0.21881
# Poissons Ratio (z) = 0.13149 0.27627
#
# Static dielectric constant tensor:
#      x y z
#    x 3.191390 0.000000 0.000000 
#    y 0.000000 2.981480 0.000000 
#    z 0.000000 0.000000 3.282810 
# 
# 
# High freq. dielectric constant tensor:
#      x y z
#    x 1.632240 0.000000 0.000000 
#    y 0.000000 1.620020 0.000000 
#    z 0.000000 0.000000 1.666100 
# 
# From -- ./inp_files/43797.got.cif
#   From: 2010.03.12/outbox.cif.g09.slc.cpg/sg66_22_cif.got.tgz:43797.got - 2010.04.10 21:57:39.
