data_PCOD8275325
_publ_section_title
;
Structure prediction by ZEFSAII (Michael W. Deem and Ramdas Pophale) SiO2 
 PCOD8275325
Probable space group: C C C M
;
_chemical_formula_sum "Si O2"
_cell_formula_units_Z 96
_cell_length_a 20.911765
_cell_length_b 28.484992
_cell_length_c 8.733462
_cell_angle_alpha 90.000000
_cell_angle_beta 90.000000
_cell_angle_gamma 90.000000
_cell_volume 5202.274049
_symmetry_space_group_name_H-M "C C C M"
_symmetry_group_IT_number 66
_symmetry_cell_setting 'orthorhombic'
loop_
_space_group_symop_operation_xyz
x,y,z
-x,-y,z
x,-y,1/2-z
-x,y,1/2-z
-x,-y,-z
x,y,-z
-x,y,1/2+z
x,-y,1/2+z
1/2+x,1/2+y,z
1/2-x,1/2-y,z
1/2+x,1/2-y,1/2-z
1/2-x,1/2+y,1/2-z
1/2-x,1/2-y,-z
1/2+x,1/2+y,-z
1/2-x,1/2+y,1/2+z
1/2+x,1/2-y,1/2+z
loop_
_atom_site_type_symbol
_atom_site_label
_atom_site_fract_x
_atom_site_fract_y
_atom_site_fract_z
Si Si1 0.563036 0.279079 0.170514
Si Si2 0.435776 0.390813 0.326890
Si Si3 0.063739 0.552144 0.682641
Si Si4 0.692754 0.051305 0.181313
Si Si5 0.804497 0.110543 0.320294
Si Si6 0.807586 0.218989 0.320532
O O1 0.500000 0.257959 0.250000
O O2 0.560447 0.334978 0.174122
O O3 0.626487 0.260921 0.253817
O O4 0.564391 0.259259 0.000000
O O5 0.500000 0.411707 0.250000
O O6 0.430053 0.409908 0.500000
O O7 0.374712 0.407561 0.228779
O O8 0.064706 0.500000 0.750000
O O9 0.061868 0.552113 0.500000
O O10 0.129321 0.575599 0.744110
O O11 0.000000 0.577793 0.750000
O O12 0.752825 0.083172 0.221612
O O13 0.704869 0.000000 0.250000
O O14 0.684104 0.047470 0.000000
O O15 0.794711 0.101348 0.500000
O O16 0.796406 0.165001 0.276175
O O17 0.812411 0.225407 0.500000
O O18 0.750000 0.250000 0.251851
#
# Coordination Sequence:
#
# PCOD8275325 Si02
#       6
#    16  16  16  16  16  16
#     4   9  16  26  43  67  94 123 158 200 242 283
#     4   9  16  27  44  68  95 124 159 200 242 283
#     4  10  17  28  46  70  97 125 159 199 242 284
#     4  11  21  34  51  73 100 130 164 201 243 289
#     4  10  19  32  50  73 100 130 163 200 243 289
#     4   9  18  32  50  72  99 130 162 198 241 288
#
# _framework density 18.453468000000001
#
# number of rings (size 3 to 8) (size 9 to 14) (size 15 to 20)
#    0.000    2.333    0.000    6.000    0.000    5.000 
#    0.000    0.000    0.000    1.500    0.000    8.167 
#    0.000    0.000    0.000    0.000    0.000    0.000 
#
# Total GULP energy -595075.562715 kJ/mol
# GULP energy per Si atom -12397.407557 kJ/mol
# Density = 1.841147 g / cm^3
# Si number density = 18.453468 Si / 1000 Ang^3
#
#
#
# Elastic Constant Matrix: (Units=GPa)
#
#
# Indices 1 2 3 4 5 6 
#
# 1 189.2194 41.9833 65.6093 0.0000 0.0000 0.0000
# 2 41.9833 27.3765 28.7837 0.0000 0.0000 0.0000
# 3 65.6093 28.7837 123.8572 0.0000 0.0000 0.0000
# 4 0.0000 0.0000 0.0000 11.7810 0.0000 0.0000
# 5 0.0000 0.0000 0.0000 0.0000 41.7915 0.0000
# 6 0.0000 0.0000 0.0000 0.0000 0.0000 20.9354
#
#
#
# Elastic Compliance Matrix: (Units=1/GPa)
#
#
# Indices 1 2 3 4 5 6 
#
# 1 0.008339 -0.010778 -0.001913 0.000000 0.000000 0.000000
# 2 -0.010778 0.062268 -0.008762 0.000000 0.000000 0.000000
# 3 -0.001913 -0.008762 0.011123 0.000000 0.000000 0.000000
# 4 0.000000 0.000000 0.000000 0.084882 0.000000 0.000000
# 5 0.000000 0.000000 0.000000 0.000000 0.023928 0.000000
# 6 0.000000 0.000000 0.000000 0.000000 0.000000 0.047766
#
#
# Mechanical properties :
#
#
# Convention : Reuss Voigt Hill
#
# Bulk Modulus (GPa) = 25.75584 68.13398 46.94491
# Shear Modulus (GPa) = 16.99791 28.50669 22.75230
#
# Velocity S-wave (km/s) = 3.03829 3.93464 3.51516
# Velocity P-wave (km/s) = 5.12794 7.59237 6.47842
#
# Compressibility (1/GPa) = 0.03882615
#
# Stress axis : x y z
#
# Youngs Moduli (GPa) = 119.91167 16.05965 89.90204
#
# Poissons Ratio (x) = 0.17309 0.17197
# Poissons Ratio (y) = 1.29239 0.78768
# Poissons Ratio (z) = 0.22937 0.14071
#
# Static dielectric constant tensor:
#      x y z
#    x 4.098920 0.000000 0.000000 
#    y 0.000000 2.856680 0.000000 
#    z 0.000000 0.000000 3.501080 
# 
# 
# High freq. dielectric constant tensor:
#      x y z
#    x 1.743150 0.000000 0.000000 
#    y 0.000000 1.642040 0.000000 
#    z 0.000000 0.000000 1.731590 
# 
# From -- ./inp_files/8057.got.cif
#   From: 2010.03.12/outbox.cif.g09.slc.cpg/sg66_5_cif.got.tgz:8057.got - 2010.04.10 21:57:39.
