data_PCOD8275417
_publ_section_title
;
Structure prediction by ZEFSAII (Michael W. Deem and Ramdas Pophale) SiO2 
 PCOD8275417
Probable space group: C C C M
;
_chemical_formula_sum "Si O2"
_cell_formula_units_Z 96
_cell_length_a 22.420044
_cell_length_b 16.613042
_cell_length_c 15.004784
_cell_angle_alpha 90.000000
_cell_angle_beta 90.000000
_cell_angle_gamma 90.000000
_cell_volume 5588.758862
_symmetry_space_group_name_H-M "C C C M"
_symmetry_group_IT_number 66
_symmetry_cell_setting 'orthorhombic'
loop_
_space_group_symop_operation_xyz
x,y,z
-x,-y,z
x,-y,1/2-z
-x,y,1/2-z
-x,-y,-z
x,y,-z
-x,y,1/2+z
x,-y,1/2+z
1/2+x,1/2+y,z
1/2-x,1/2-y,z
1/2+x,1/2-y,1/2-z
1/2-x,1/2+y,1/2-z
1/2-x,1/2-y,-z
1/2+x,1/2+y,-z
1/2-x,1/2+y,1/2+z
1/2+x,1/2-y,1/2+z
loop_
_atom_site_type_symbol
_atom_site_label
_atom_site_fract_x
_atom_site_fract_y
_atom_site_fract_z
Si Si1 0.283419 0.628308 0.102375
Si Si2 0.340144 0.801411 0.896366
Si Si3 0.933067 0.258969 0.765556
Si Si4 0.539177 0.373349 0.096614
Si Si5 0.905923 0.837554 0.099756
Si Si6 0.373445 0.498569 0.651471
O O1 0.319968 0.709793 0.119866
O O2 0.214348 0.639661 0.129416
O O3 0.312219 0.553211 0.153934
O O4 0.287757 0.605387 0.000000
O O5 0.393383 0.820869 0.825210
O O6 0.359253 0.814777 0.000000
O O7 0.934719 0.178390 0.823497
O O8 0.901886 0.236128 0.670743
O O9 0.000000 0.294323 0.750000
O O10 0.468922 0.383498 0.111474
O O11 0.574698 0.457329 0.092462
O O12 0.549574 0.330548 0.000000
O O13 0.859290 0.910399 0.117229
O O14 0.896682 0.801890 0.000000
O O15 0.399645 0.500000 0.750000
#
# Coordination Sequence:
#
# PCOD8275417 Si02
#       6
#    16  16  16  16  16  16
#     4   9  17  27  43  62  80 110 148 186 227 255
#     4   9  16  29  45  62  83 107 142 190 229 255
#     4  10  18  28  42  61  86 116 147 178 214 258
#     4  10  18  27  38  54  83 119 149 178 210 242
#     4  10  20  28  36  55  86 120 149 176 209 252
#     4  12  19  26  39  57  84 117 146 177 210 250
#
# _framework density 17.177339
#
# number of rings (size 3 to 8) (size 9 to 14) (size 15 to 20)
#    0.000    2.000    3.333    3.500    0.000    2.667 
#    0.000    0.000    0.000    0.000    0.000   11.667 
#    0.000    0.667    0.000    3.667    0.000    0.333 
#
# Total GULP energy -594695.185828 kJ/mol
# GULP energy per Si atom -12389.483038 kJ/mol
# Density = 1.713824 g / cm^3
# Si number density = 17.177339 Si / 1000 Ang^3
#
#
#
# Elastic Constant Matrix: (Units=GPa)
#
#
# Indices 1 2 3 4 5 6 
#
# 1 88.3714 22.0189 33.5637 0.0000 0.0000 0.0000
# 2 22.0189 20.0267 10.6661 0.0000 0.0000 0.0000
# 3 33.5637 10.6661 110.2086 0.0000 0.0000 0.0000
# 4 0.0000 0.0000 0.0000 7.3839 0.0000 0.0000
# 5 0.0000 0.0000 0.0000 0.0000 26.3156 0.0000
# 6 0.0000 0.0000 0.0000 0.0000 0.0000 18.0761
#
#
#
# Elastic Compliance Matrix: (Units=1/GPa)
#
#
# Indices 1 2 3 4 5 6 
#
# 1 0.016778 -0.016581 -0.003505 0.000000 0.000000 0.000000
# 2 -0.016581 0.069032 -0.001631 0.000000 0.000000 0.000000
# 3 -0.003505 -0.001631 0.010299 0.000000 0.000000 0.000000
# 4 0.000000 0.000000 0.000000 0.135429 0.000000 0.000000
# 5 0.000000 0.000000 0.000000 0.000000 0.038000 0.000000
# 6 0.000000 0.000000 0.000000 0.000000 0.000000 0.055322
#
#
# Mechanical properties :
#
#
# Convention : Reuss Voigt Hill
#
# Bulk Modulus (GPa) = 18.98424 39.01158 28.99791
# Shear Modulus (GPa) = 12.95828 20.51233 16.73531
#
# Velocity S-wave (km/s) = 2.74958 3.45940 3.12471
# Velocity P-wave (km/s) = 4.59958 6.22229 5.47143
#
# Compressibility (1/GPa) = 0.05267526
#
# Stress axis : x y z
#
# Youngs Moduli (GPa) = 59.60027 14.48598 97.09620
#
# Poissons Ratio (x) = 0.24019 0.34033
# Poissons Ratio (y) = 0.98822 0.15840
# Poissons Ratio (z) = 0.20891 0.02363
#
# Static dielectric constant tensor:
#      x y z
#    x 3.350630 0.000000 0.000000 
#    y 0.000000 2.627330 0.000000 
#    z 0.000000 0.000000 3.420220 
# 
# 
# High freq. dielectric constant tensor:
#      x y z
#    x 1.644770 0.000000 0.000000 
#    y 0.000000 1.584630 0.000000 
#    z 0.000000 0.000000 1.677730 
# 
# From -- ./inp_files/31461.got.cif
#   From: 2010.03.12/outbox.cif.g09.slc.cpg/sg66_16_cif.got.tgz:31461.got - 2010.04.10 21:57:39.
