data_PCOD8275261
_publ_section_title
;
Structure prediction by ZEFSAII (Michael W. Deem and Ramdas Pophale) SiO2 
 PCOD8275261
Probable space group: C C C M
;
_chemical_formula_sum "Si O2"
_cell_formula_units_Z 80
_cell_length_a 9.219945
_cell_length_b 19.764165
_cell_length_c 24.124996
_cell_angle_alpha 90.000000
_cell_angle_beta 90.000000
_cell_angle_gamma 90.000000
_cell_volume 4396.165678
_symmetry_space_group_name_H-M "C C C M"
_symmetry_group_IT_number 66
_symmetry_cell_setting 'orthorhombic'
loop_
_space_group_symop_operation_xyz
x,y,z
-x,-y,z
x,-y,1/2-z
-x,y,1/2-z
-x,-y,-z
x,y,-z
-x,y,1/2+z
x,-y,1/2+z
1/2+x,1/2+y,z
1/2-x,1/2-y,z
1/2+x,1/2-y,1/2-z
1/2-x,1/2+y,1/2-z
1/2-x,1/2-y,-z
1/2+x,1/2+y,-z
1/2-x,1/2+y,1/2+z
1/2+x,1/2-y,1/2+z
loop_
_atom_site_type_symbol
_atom_site_label
_atom_site_fract_x
_atom_site_fract_y
_atom_site_fract_z
Si Si1 0.667266 0.016893 0.500000
Si Si2 0.915087 0.073650 0.000000
Si Si3 0.843047 0.572748 0.227960
Si Si4 0.575244 0.598951 0.619096
Si Si5 0.851697 0.814375 0.280465
Si Si6 0.229528 0.038422 0.882180
O O1 0.715988 0.057759 0.555711
O O2 0.500000 0.000000 0.500000
O O3 0.745351 0.944365 0.500000
O O4 0.947829 0.118455 0.054172
O O5 0.000000 0.000000 0.000000
O O6 0.793385 0.500000 0.250000
O O7 0.723276 0.626125 0.246186
O O8 0.850384 0.565197 0.161026
O O9 0.000000 0.595040 0.250000
O O10 0.619314 0.662730 0.656240
O O11 0.701282 0.542132 0.622814
O O12 0.418816 0.572974 0.637938
O O13 0.750000 0.750000 0.282623
O O14 0.000000 0.794152 0.250000
#
# Coordination Sequence:
#
# PCOD8275261 Si02
#       6
#     8   8  16  16  16  16
#     4  10  20  28  50  88 129 150 180 232 304 358
#     4  10  16  32  57  90 118 146 190 248 287 355
#     4  11  23  35  58  89 122 149 195 254 297 350
#     4  10  18  34  61  86 117 150 199 236 298 362
#     4  12  25  41  58  83 117 162 205 246 303 364
#     4  10  18  34  56  88 118 153 188 242 298 357
#
# _framework density 18.197676000000001
#
# number of rings (size 3 to 8) (size 9 to 14) (size 15 to 20)
#    0.000    1.400    8.000    0.600    2.800    0.400 
#    0.000    0.500    0.000    0.000    0.000    5.600 
#    0.000    0.000    0.000    0.000    0.000    0.000 
#
# Total GULP energy -495703.549595 kJ/mol
# GULP energy per Si atom -12392.588740 kJ/mol
# Density = 1.815626 g / cm^3
# Si number density = 18.197676 Si / 1000 Ang^3
#
#
#
# Elastic Constant Matrix: (Units=GPa)
#
#
# Indices 1 2 3 4 5 6 
#
# 1 110.2846 37.2580 46.4180 0.0000 0.0000 0.0000
# 2 37.2580 76.2482 43.5658 0.0000 0.0000 0.0000
# 3 46.4180 43.5658 177.6191 0.0000 0.0000 0.0000
# 4 0.0000 0.0000 0.0000 12.7792 0.0000 0.0000
# 5 0.0000 0.0000 0.0000 0.0000 31.4468 0.0000
# 6 0.0000 0.0000 0.0000 0.0000 0.0000 24.8679
#
#
#
# Elastic Compliance Matrix: (Units=1/GPa)
#
#
# Indices 1 2 3 4 5 6 
#
# 1 0.011371 -0.004487 -0.001871 0.000000 0.000000 0.000000
# 2 -0.004487 0.017023 -0.003003 0.000000 0.000000 0.000000
# 3 -0.001871 -0.003003 0.006855 0.000000 0.000000 0.000000
# 4 0.000000 0.000000 0.000000 0.078252 0.000000 0.000000
# 5 0.000000 0.000000 0.000000 0.000000 0.031800 0.000000
# 6 0.000000 0.000000 0.000000 0.000000 0.000000 0.040212
#
#
# Mechanical properties :
#
#
# Convention : Reuss Voigt Hill
#
# Bulk Modulus (GPa) = 60.50426 68.73725 64.62076
# Shear Modulus (GPa) = 23.83846 29.61281 26.72563
#
# Velocity S-wave (km/s) = 3.62328 4.03834 3.83643
# Velocity P-wave (km/s) = 7.12915 7.72002 7.43046
#
# Compressibility (1/GPa) = 0.01652776
#
# Stress axis : x y z
#
# Youngs Moduli (GPa) = 87.94388 58.74267 145.86854
#
# Poissons Ratio (x) = 0.26359 0.27292
# Poissons Ratio (y) = 0.39463 0.43801
# Poissons Ratio (z) = 0.16454 0.17639
#
# Static dielectric constant tensor:
#      x y z
#    x 3.407830 0.000000 0.000000 
#    y 0.000000 2.886410 0.000000 
#    z 0.000000 0.000000 3.720880 
# 
# 
# High freq. dielectric constant tensor:
#      x y z
#    x 1.713310 0.000000 0.000000 
#    y 0.000000 1.642060 0.000000 
#    z 0.000000 0.000000 1.727840 
# 
# From -- ./inp_files/62451.got.cif
#   From: 2010.03.12/outbox.cif.g09.slc.cpg/sg66_32_cif.got.tgz:62451.got - 2010.04.10 21:57:39.
