data_PCOD8275071
_publ_section_title
;
Structure prediction by ZEFSAII (Michael W. Deem and Ramdas Pophale) SiO2 
 PCOD8275071
Probable space group: C M M M
;
_chemical_formula_sum "Si O2"
_cell_formula_units_Z 72
_cell_length_a 9.321138
_cell_length_b 20.096831
_cell_length_c 22.585978
_cell_angle_alpha 90.000000
_cell_angle_beta 90.000000
_cell_angle_gamma 90.000000
_cell_volume 4230.925898
_symmetry_space_group_name_H-M "C M M M"
_symmetry_group_IT_number 65
_symmetry_cell_setting 'orthorhombic'
loop_
_space_group_symop_operation_xyz
x,y,z
-x,-y,z
x,-y,-z
-x,y,-z
-x,-y,-z
x,y,-z
-x,y,z
x,-y,z
1/2+x,1/2+y,z
1/2-x,1/2-y,z
1/2+x,1/2-y,-z
1/2-x,1/2+y,-z
1/2-x,1/2-y,-z
1/2+x,1/2+y,-z
1/2-x,1/2+y,z
1/2+x,1/2-y,z
loop_
_atom_site_type_symbol
_atom_site_label
_atom_site_fract_x
_atom_site_fract_y
_atom_site_fract_z
Si Si1 0.166512 0.315411 0.290737
Si Si2 0.668687 0.815950 0.844543
Si Si3 0.670356 0.926135 0.934029
Si Si4 0.838294 0.921015 0.500000
Si Si5 0.667184 0.923526 0.614115
O O1 0.250000 0.250000 0.312459
O O2 0.205801 0.333658 0.223267
O O3 0.210970 0.378967 0.329743
O O4 0.000000 0.298858 0.297660
O O5 0.500000 0.804882 0.853780
O O6 0.750000 0.750000 0.864955
O O7 0.730398 0.875140 0.885333
O O8 0.500000 0.927401 0.930975
O O9 0.729761 0.000000 0.919628
O O10 0.719974 0.904357 0.000000
O O11 0.755888 0.895791 0.558253
O O12 0.000000 0.892489 0.500000
O O13 0.838205 0.000000 0.500000
O O14 0.500000 0.916833 0.598489
O O15 0.706433 0.000000 0.629123
#
# Coordination Sequence:
#
# PCOD8275071 Si02
#       5
#    16  16  16   8  16
#     4   9  18  31  46  65  90 119 148 181 222 264
#     4   9  17  29  45  65  89 117 149 184 221 262
#     4   8  14  25  42  65  91 117 147 185 225 261
#     4   9  17  29  46  69  94 117 143 177 218 263
#     4   9  17  30  48  68  89 114 146 183 221 260
#
# _framework density 17.017551000000001
#
# number of rings (size 3 to 8) (size 9 to 14) (size 15 to 20)
#    0.000    3.222    0.000    1.000    0.000    3.556 
#    0.000    5.000    0.000    0.667    0.000    7.778 
#    0.000    0.000    0.000    0.000    0.000    0.000 
#
# Total GULP energy -446309.055426 kJ/mol
# GULP energy per Si atom -12397.473762 kJ/mol
# Density = 1.697882 g / cm^3
# Si number density = 17.017551 Si / 1000 Ang^3
#
#
#
# Elastic Constant Matrix: (Units=GPa)
#
#
# Indices 1 2 3 4 5 6 
#
# 1 40.0622 39.1535 40.8934 0.0000 0.0000 0.0000
# 2 39.1535 121.1297 91.8558 0.0000 0.0000 0.0000
# 3 40.8934 91.8558 125.0840 0.0000 0.0000 0.0000
# 4 0.0000 0.0000 0.0000 25.3728 0.0000 0.0000
# 5 0.0000 0.0000 0.0000 0.0000 16.0333 0.0000
# 6 0.0000 0.0000 0.0000 0.0000 0.0000 23.9190
#
#
#
# Elastic Compliance Matrix: (Units=1/GPa)
#
#
# Indices 1 2 3 4 5 6 
#
# 1 0.039774 -0.006760 -0.008039 0.000000 0.000000 0.000000
# 2 -0.006760 0.019780 -0.012315 0.000000 0.000000 0.000000
# 3 -0.008039 -0.012315 0.019666 0.000000 0.000000 0.000000
# 4 0.000000 0.000000 0.000000 0.039412 0.000000 0.000000
# 5 0.000000 0.000000 0.000000 0.000000 0.062370 0.000000
# 6 0.000000 0.000000 0.000000 0.000000 0.000000 0.041808
#
#
# Mechanical properties :
#
#
# Convention : Reuss Voigt Hill
#
# Bulk Modulus (GPa) = 40.01378 70.00906 55.01142
# Shear Modulus (GPa) = 17.52121 20.68989 19.10555
#
# Velocity S-wave (km/s) = 3.21221 3.49061 3.35430
# Velocity P-wave (km/s) = 6.10918 7.58119 6.88464
#
# Compressibility (1/GPa) = 0.02499139
#
# Stress axis : x y z
#
# Youngs Moduli (GPa) = 25.14233 50.55685 50.84840
#
# Poissons Ratio (x) = 0.34179 0.40875
# Poissons Ratio (y) = 0.16997 0.62620
# Poissons Ratio (z) = 0.20211 0.62261
#
# Static dielectric constant tensor:
#      x y z
#    x 2.982580 0.000000 0.000000 
#    y 0.000000 3.249320 0.000000 
#    z 0.000000 0.000000 3.347310 
# 
# 
# High freq. dielectric constant tensor:
#      x y z
#    x 1.629790 0.000000 0.000000 
#    y 0.000000 1.646380 0.000000 
#    z 0.000000 0.000000 1.661600 
# 
# From -- ./inp_files/59204.got.cif
#   From: 2010.03.12/outbox.cif.g09.slc.cpg/sg65_30_cif.got.tgz:59204.got - 2010.04.10 20:52:16.
