data_PCOD8275063
_publ_section_title
;
Structure prediction by ZEFSAII (Michael W. Deem and Ramdas Pophale) SiO2 
 PCOD8275063
Probable space group: C M M M
;
_chemical_formula_sum "Si O2"
_cell_formula_units_Z 88
_cell_length_a 30.489242
_cell_length_b 18.125107
_cell_length_c 9.701505
_cell_angle_alpha 90.000000
_cell_angle_beta 90.000000
_cell_angle_gamma 90.000000
_cell_volume 5361.253198
_symmetry_space_group_name_H-M "C M M M"
_symmetry_group_IT_number 65
_symmetry_cell_setting 'orthorhombic'
loop_
_space_group_symop_operation_xyz
x,y,z
-x,-y,z
x,-y,-z
-x,y,-z
-x,-y,-z
x,y,-z
-x,y,z
x,-y,z
1/2+x,1/2+y,z
1/2-x,1/2-y,z
1/2+x,1/2-y,-z
1/2-x,1/2+y,-z
1/2-x,1/2-y,-z
1/2+x,1/2+y,-z
1/2-x,1/2+y,z
1/2+x,1/2-y,z
loop_
_atom_site_type_symbol
_atom_site_label
_atom_site_fract_x
_atom_site_fract_y
_atom_site_fract_z
Si Si1 0.175374 0.916049 0.657156
Si Si2 0.386340 0.790014 0.161043
Si Si3 0.000000 0.920054 0.663765
Si Si4 0.703236 0.281665 0.840203
Si Si5 0.549269 0.917464 0.163348
Si Si6 0.914374 0.842006 0.343255
O O1 0.191608 0.904216 0.500000
O O2 0.198776 0.856855 0.754485
O O3 0.123495 0.903020 0.666721
O O4 0.185620 0.000000 0.705171
O O5 0.333855 0.781474 0.191532
O O6 0.410256 0.865231 0.213701
O O7 0.408896 0.725934 0.243891
O O8 0.395589 0.779283 0.000000
O O9 0.042430 0.878515 0.716650
O O10 0.000000 0.926184 0.500000
O O11 0.000000 0.000000 0.732570
O O12 0.750000 0.250000 0.797401
O O13 0.701393 0.304069 0.000000
O O14 0.500000 0.891418 0.212161
O O15 0.558415 0.000000 0.220992
O O16 0.549468 0.919529 0.000000
O O17 0.919164 0.813329 0.500000
#
# Coordination Sequence:
#
# PCOD8275063 Si02
#       6
#    16  16   8  16  16  16
#     4   9  17  30  48  68  89 116 153 190 222 262
#     4   9  17  29  46  66  87 114 146 182 221 263
#     4   9  16  26  41  61  86 117 150 180 211 249
#     4   9  18  32  47  66  93 120 147 183 229 277
#     4   8  14  25  42  64  87 111 142 181 222 263
#     4   9  17  28  43  64  89 118 149 182 217 256
#
# _framework density 16.414073999999999
#
# number of rings (size 3 to 8) (size 9 to 14) (size 15 to 20)
#    0.000    3.182    0.000    1.091    1.273    2.909 
#    0.000    0.909    0.000    6.000    0.000    1.273 
#    0.000    0.000    0.000    0.000    0.000    0.000 
#
# Total GULP energy -545095.601561 kJ/mol
# GULP energy per Si atom -12388.536399 kJ/mol
# Density = 1.637671 g / cm^3
# Si number density = 16.414074 Si / 1000 Ang^3
#
#
#
# Elastic Constant Matrix: (Units=GPa)
#
#
# Indices 1 2 3 4 5 6 
#
# 1 135.5688 81.5530 37.0769 0.0000 0.0000 0.0000
# 2 81.5530 123.5796 38.9047 0.0000 0.0000 0.0000
# 3 37.0769 38.9047 35.0151 0.0000 0.0000 0.0000
# 4 0.0000 0.0000 0.0000 23.6970 0.0000 0.0000
# 5 0.0000 0.0000 0.0000 0.0000 17.6185 0.0000
# 6 0.0000 0.0000 0.0000 0.0000 0.0000 17.9597
#
#
#
# Elastic Compliance Matrix: (Units=1/GPa)
#
#
# Indices 1 2 3 4 5 6 
#
# 1 0.013151 -0.006605 -0.006587 0.000000 0.000000 0.000000
# 2 -0.006605 0.015762 -0.010519 0.000000 0.000000 0.000000
# 3 -0.006587 -0.010519 0.047221 0.000000 0.000000 0.000000
# 4 0.000000 0.000000 0.000000 0.042199 0.000000 0.000000
# 5 0.000000 0.000000 0.000000 0.000000 0.056758 0.000000
# 6 0.000000 0.000000 0.000000 0.000000 0.000000 0.055680
#
#
# Mechanical properties :
#
#
# Convention : Reuss Voigt Hill
#
# Bulk Modulus (GPa) = 34.82769 67.69251 51.26010
# Shear Modulus (GPa) = 17.37522 20.96365 19.16944
#
# Velocity S-wave (km/s) = 3.25708 3.57764 3.42111
# Velocity P-wave (km/s) = 5.95054 7.64173 6.84854
#
# Compressibility (1/GPa) = 0.02871279
#
# Stress axis : x y z
#
# Youngs Moduli (GPa) = 76.03915 63.44174 21.17682
#
# Poissons Ratio (x) = 0.41904 0.13948
# Poissons Ratio (y) = 0.50225 0.22277
# Poissons Ratio (z) = 0.50084 0.66737
#
# Static dielectric constant tensor:
#      x y z
#    x 3.295890 0.000000 0.000000 
#    y 0.000000 3.240020 0.000000 
#    z 0.000000 0.000000 2.868140 
# 
# 
# High freq. dielectric constant tensor:
#      x y z
#    x 1.632210 0.000000 0.000000 
#    y 0.000000 1.626930 0.000000 
#    z 0.000000 0.000000 1.604610 
# 
# From -- ./inp_files/25139.got.cif
#   From: 2010.03.12/outbox.cif.g09.slc.cpg/sg65_13_cif.got.tgz:25139.got - 2010.04.10 20:52:16.
