data_PCOD8275507
_publ_section_title
;
Structure prediction by ZEFSAII (Michael W. Deem and Ramdas Pophale) SiO2 
 PCOD8275507
Probable space group: C C C M
;
_chemical_formula_sum "Si O2"
_cell_formula_units_Z 96
_cell_length_a 23.402404
_cell_length_b 25.009115
_cell_length_c 9.005874
_cell_angle_alpha 90.000000
_cell_angle_beta 90.000000
_cell_angle_gamma 90.000000
_cell_volume 5270.898612
_symmetry_space_group_name_H-M "C C C M"
_symmetry_group_IT_number 66
_symmetry_cell_setting 'orthorhombic'
loop_
_space_group_symop_operation_xyz
x,y,z
-x,-y,z
x,-y,1/2-z
-x,y,1/2-z
-x,-y,-z
x,y,-z
-x,y,1/2+z
x,-y,1/2+z
1/2+x,1/2+y,z
1/2-x,1/2-y,z
1/2+x,1/2-y,1/2-z
1/2-x,1/2+y,1/2-z
1/2-x,1/2-y,-z
1/2+x,1/2+y,-z
1/2-x,1/2+y,1/2+z
1/2+x,1/2-y,1/2+z
loop_
_atom_site_type_symbol
_atom_site_label
_atom_site_fract_x
_atom_site_fract_y
_atom_site_fract_z
Si Si1 0.744759 0.309903 0.839846
Si Si2 0.826503 0.945256 0.671825
Si Si3 0.304357 0.055888 0.327028
Si Si4 0.849480 0.346147 0.672893
Si Si5 0.880035 0.162084 0.173320
Si Si6 0.059151 0.256543 0.175965
O O1 0.750000 0.250000 0.887279
O O2 0.787442 0.322568 0.706938
O O3 0.681612 0.317238 0.779925
O O4 0.755199 0.341985 0.000000
O O5 0.828412 0.958279 0.500000
O O6 0.761423 0.925339 0.711439
O O7 0.875391 0.901301 0.713120
O O8 0.843128 0.000000 0.750000
O O9 0.314619 0.047895 0.500000
O O10 0.351077 0.098281 0.264679
O O11 0.316962 0.000000 0.250000
O O12 0.856333 0.358644 0.500000
O O13 0.896442 0.302791 0.726046
O O14 0.924693 0.196687 0.268247
O O15 0.894151 0.170715 0.000000
O O16 0.000000 0.273577 0.250000
O O17 0.053152 0.254159 0.000000
#
# Coordination Sequence:
#
# PCOD8275507 Si02
#       6
#    16  16  16  16  16  16
#     4  10  18  30  50  77 109 146 179 211 266 331
#     4   9  18  31  49  77 112 148 181 213 256 315
#     4  10  19  33  52  79 114 151 185 216 262 320
#     4  11  22  34  52  80 112 143 179 224 271 324
#     4  10  19  34  55  79 110 145 181 220 267 325
#     4  11  25  41  57  79 105 140 185 231 280 326
#
# _framework density 18.213211999999999
#
# number of rings (size 3 to 8) (size 9 to 14) (size 15 to 20)
#    0.000    1.833    3.333    1.500    0.000    4.333 
#    0.000    0.000    0.000    1.000    0.000    7.000 
#    0.000    0.000    0.000    0.000    0.000    0.000 
#
# Total GULP energy -594704.384702 kJ/mol
# GULP energy per Si atom -12389.674681 kJ/mol
# Density = 1.817176 g / cm^3
# Si number density = 18.213212 Si / 1000 Ang^3
#
#
#
# Elastic Constant Matrix: (Units=GPa)
#
#
# Indices 1 2 3 4 5 6 
#
# 1 52.3343 26.2438 26.3347 0.0000 0.0000 0.0000
# 2 26.2438 112.9321 50.1868 0.0000 0.0000 0.0000
# 3 26.3347 50.1868 78.5162 0.0000 0.0000 0.0000
# 4 0.0000 0.0000 0.0000 34.1989 0.0000 0.0000
# 5 0.0000 0.0000 0.0000 0.0000 23.6228 0.0000
# 6 0.0000 0.0000 0.0000 0.0000 0.0000 14.2211
#
#
#
# Elastic Compliance Matrix: (Units=1/GPa)
#
#
# Indices 1 2 3 4 5 6 
#
# 1 0.023582 -0.002745 -0.006155 0.000000 0.000000 0.000000
# 2 -0.002745 0.012688 -0.007189 0.000000 0.000000 0.000000
# 3 -0.006155 -0.007189 0.019396 0.000000 0.000000 0.000000
# 4 0.000000 0.000000 0.000000 0.029241 0.000000 0.000000
# 5 0.000000 0.000000 0.000000 0.000000 0.042332 0.000000
# 6 0.000000 0.000000 0.000000 0.000000 0.000000 0.070318
#
#
# Mechanical properties :
#
#
# Convention : Reuss Voigt Hill
#
# Bulk Modulus (GPa) = 42.57631 49.92368 46.25000
# Shear Modulus (GPa) = 21.04711 23.80972 22.42841
#
# Velocity S-wave (km/s) = 3.40309 3.61955 3.51299
# Velocity P-wave (km/s) = 6.23448 6.70361 6.47330
#
# Compressibility (1/GPa) = 0.02348724
#
# Stress axis : x y z
#
# Youngs Moduli (GPa) = 42.40610 78.81725 51.55743
#
# Poissons Ratio (x) = 0.21634 0.31733
# Poissons Ratio (y) = 0.11640 0.37065
# Poissons Ratio (z) = 0.26101 0.56663
#
# Static dielectric constant tensor:
#      x y z
#    x 3.061180 0.000000 0.000000 
#    y 0.000000 3.624010 0.000000 
#    z 0.000000 0.000000 3.254470 
# 
# 
# High freq. dielectric constant tensor:
#      x y z
#    x 1.660160 0.000000 0.000000 
#    y 0.000000 1.723960 0.000000 
#    z 0.000000 0.000000 1.707780 
# 
# From -- ./inp_files/7967.got.cif
#   From: 2010.03.12/outbox.cif.g09.slc.cpg/sg66_4_cif.got.tgz:7967.got - 2010.04.10 21:57:39.
