data_PCOD8275142
_publ_section_title
;
Structure prediction by ZEFSAII (Michael W. Deem and Ramdas Pophale) SiO2 
 PCOD8275142
Probable space group: C M M M
;
_chemical_formula_sum "Si O2"
_cell_formula_units_Z 80
_cell_length_a 27.707924
_cell_length_b 27.710421
_cell_length_c 7.823179
_cell_angle_alpha 90.000000
_cell_angle_beta 90.000000
_cell_angle_gamma 90.000000
_cell_volume 6006.623060
_symmetry_space_group_name_H-M "C M M M"
_symmetry_group_IT_number 65
_symmetry_cell_setting 'orthorhombic'
loop_
_space_group_symop_operation_xyz
x,y,z
-x,-y,z
x,-y,-z
-x,y,-z
-x,-y,-z
x,y,-z
-x,y,z
x,-y,z
1/2+x,1/2+y,z
1/2-x,1/2-y,z
1/2+x,1/2-y,-z
1/2-x,1/2+y,-z
1/2-x,1/2-y,-z
1/2+x,1/2+y,-z
1/2-x,1/2+y,z
1/2+x,1/2-y,z
loop_
_atom_site_type_symbol
_atom_site_label
_atom_site_fract_x
_atom_site_fract_y
_atom_site_fract_z
Si Si1 0.368515 0.054469 0.202606
Si Si2 0.670724 0.252282 0.000000
Si Si3 0.707057 0.126086 0.310632
Si Si4 0.752296 0.170732 0.000000
Si Si5 0.126083 0.707040 0.310634
Si Si6 0.554474 0.868538 0.797395
O O1 0.318365 0.074642 0.278348
O O2 0.414060 0.085926 0.267802
O O3 0.375810 0.000000 0.268119
O O4 0.364827 0.057047 0.000000
O O5 0.711355 0.211351 0.000000
O O6 0.695064 0.304921 0.000000
O O7 0.637260 0.247798 0.831035
O O8 0.730676 0.126599 0.500000
O O9 0.666218 0.166211 0.293983
O O10 0.747818 0.137270 0.168965
O O11 0.126593 0.730657 0.500000
O O12 0.074638 0.681611 0.278358
O O13 0.500000 0.875843 0.731901
O O14 0.557058 0.864847 0.000000
#
# Coordination Sequence:
#
# PCOD8275142 Si02
#       6
#    16   8  16   8  16  16
#     4   9  16  26  39  53  71  95 123 156 192 227
#     4   9  16  26  39  54  71  87 106 135 171 216
#     4   9  16  26  39  53  70  91 113 139 176 219
#     4   9  16  26  39  54  71  87 106 135 171 216
#     4   9  16  26  39  53  70  91 113 139 176 219
#     4   9  16  26  39  53  71  95 123 156 192 227
#
# _framework density 13.318631
#
# number of rings (size 3 to 8) (size 9 to 14) (size 15 to 20)
#    0.000    3.000    2.000    0.000    0.000    2.000 
#    0.000    6.000    0.000    0.000    0.000    5.600 
#    0.000    0.000    0.000    0.000    0.000    0.000 
#
# Total GULP energy -495784.248845 kJ/mol
# GULP energy per Si atom -12394.606221 kJ/mol
# Density = 1.328832 g / cm^3
# Si number density = 13.318631 Si / 1000 Ang^3
#
#
#
# Elastic Constant Matrix: (Units=GPa)
#
#
# Indices 1 2 3 4 5 6 
#
# 1 48.4155 47.0682 36.8287 0.0000 0.0000 0.0000
# 2 47.0682 48.4555 36.8428 0.0000 0.0000 0.0000
# 3 36.8287 36.8428 86.1329 0.0000 0.0000 0.0000
# 4 0.0000 0.0000 0.0000 7.6928 0.0000 0.0000
# 5 0.0000 0.0000 0.0000 0.0000 7.6924 0.0000
# 6 0.0000 0.0000 0.0000 0.0000 0.0000 18.4025
#
#
#
# Elastic Compliance Matrix: (Units=1/GPa)
#
#
# Indices 1 2 3 4 5 6 
#
# 1 0.373648 -0.357863 -0.006691 0.000000 0.000000 0.000000
# 2 -0.357863 0.373329 -0.006674 0.000000 0.000000 0.000000
# 3 -0.006691 -0.006674 0.017326 0.000000 0.000000 0.000000
# 4 0.000000 0.000000 0.000000 0.129991 0.000000 0.000000
# 5 0.000000 0.000000 0.000000 0.000000 0.129999 0.000000
# 6 0.000000 0.000000 0.000000 0.000000 0.000000 0.054340
#
#
# Mechanical properties :
#
#
# Convention : Reuss Voigt Hill
#
# Bulk Modulus (GPa) = 45.77272 47.16480 46.46876
# Shear Modulus (GPa) = 2.73467 10.90850 6.82159
#
# Velocity S-wave (km/s) = 1.43448 2.86499 2.26560
# Velocity P-wave (km/s) = 6.09801 6.81423 6.46604
#
# Compressibility (1/GPa) = 0.02184707
#
# Stress axis : x y z
#
# Youngs Moduli (GPa) = 2.67631 2.67860 57.71781
#
# Poissons Ratio (x) = 0.95857 0.38617
# Poissons Ratio (y) = 0.95775 0.38523
# Poissons Ratio (z) = 0.01791 0.01788
#
# Static dielectric constant tensor:
#      x y z
#    x 2.481410 0.000000 0.000000 
#    y 0.000000 2.481610 0.000000 
#    z 0.000000 0.000000 2.831590 
# 
# 
# High freq. dielectric constant tensor:
#      x y z
#    x 1.462980 0.000000 0.000000 
#    y 0.000000 1.462990 0.000000 
#    z 0.000000 0.000000 1.523500 
# 
# From -- ./inp_files/14523.got.cif
#   From: 2010.03.12/outbox.cif.g09.slc.cpg/sg65_8_cif.got.tgz:14523.got - 2010.04.10 20:52:16.
