data_PCOD8275841
_publ_section_title
;
Structure prediction by ZEFSAII (Michael W. Deem and Ramdas Pophale) SiO2 
 PCOD8275841
Probable space group: C C C M
;
_chemical_formula_sum "Si O2"
_cell_formula_units_Z 96
_cell_length_a 13.077913
_cell_length_b 21.107935
_cell_length_c 19.638460
_cell_angle_alpha 90.000000
_cell_angle_beta 90.000000
_cell_angle_gamma 90.000000
_cell_volume 5421.152452
_symmetry_space_group_name_H-M "C C C M"
_symmetry_group_IT_number 66
_symmetry_cell_setting 'orthorhombic'
loop_
_space_group_symop_operation_xyz
x,y,z
-x,-y,z
x,-y,1/2-z
-x,y,1/2-z
-x,-y,-z
x,y,-z
-x,y,1/2+z
x,-y,1/2+z
1/2+x,1/2+y,z
1/2-x,1/2-y,z
1/2+x,1/2-y,1/2-z
1/2-x,1/2+y,1/2-z
1/2-x,1/2-y,-z
1/2+x,1/2+y,-z
1/2-x,1/2+y,1/2+z
1/2+x,1/2-y,1/2+z
loop_
_atom_site_type_symbol
_atom_site_label
_atom_site_fract_x
_atom_site_fract_y
_atom_site_fract_z
Si Si1 0.327857 0.619226 0.422382
Si Si2 0.658746 0.700575 0.271499
Si Si3 0.531334 0.716074 0.860386
Si Si4 0.602683 0.158960 0.423379
Si Si5 0.210842 0.937488 0.285337
Si Si6 0.442886 0.935229 0.688150
O O1 0.330539 0.591706 0.500000
O O2 0.428825 0.660199 0.409122
O O3 0.225722 0.662604 0.411305
O O4 0.328619 0.565144 0.363972
O O5 0.750000 0.750000 0.286213
O O6 0.601183 0.726545 0.205597
O O7 0.584936 0.701853 0.337631
O O8 0.689316 0.627334 0.256844
O O9 0.542407 0.777784 0.906005
O O10 0.578888 0.140418 0.500000
O O11 0.551209 0.104419 0.379841
O O12 0.330154 0.949218 0.286608
O O13 0.159912 0.000000 0.250000
O O14 0.500000 0.898489 0.750000
O O15 0.500000 0.000000 0.672465
#
# Coordination Sequence:
#
# PCOD8275841 Si02
#       6
#    16  16  16  16  16  16
#     4   9  18  34  55  81 109 138 179 228 275 322
#     4  10  21  33  51  82 109 143 182 229 275 324
#     4  10  19  32  53  77 107 142 180 224 277 319
#     4  10  20  31  53  83 111 142 177 221 271 327
#     4  10  19  34  55  80 112 139 178 228 273 317
#     4  10  19  31  52  80 108 142 173 215 271 328
#
# _framework density 17.708411999999999
#
# number of rings (size 3 to 8) (size 9 to 14) (size 15 to 20)
#    0.000    2.167    1.667    4.000    4.667    1.667 
#    0.000    6.667    0.000    5.000    0.000    0.000 
#    0.000    0.000    0.000    0.000    0.000    0.000 
#
# Total GULP energy -594787.171817 kJ/mol
# GULP energy per Si atom -12391.399413 kJ/mol
# Density = 1.766811 g / cm^3
# Si number density = 17.708412 Si / 1000 Ang^3
#
#
#
# Elastic Constant Matrix: (Units=GPa)
#
#
# Indices 1 2 3 4 5 6 
#
# 1 83.7258 45.8529 45.9945 0.0000 0.0000 0.0000
# 2 45.8529 100.6664 66.3083 0.0000 0.0000 0.0000
# 3 45.9945 66.3083 136.1604 0.0000 0.0000 0.0000
# 4 0.0000 0.0000 0.0000 20.4041 0.0000 0.0000
# 5 0.0000 0.0000 0.0000 0.0000 26.4202 0.0000
# 6 0.0000 0.0000 0.0000 0.0000 0.0000 18.1023
#
#
#
# Elastic Compliance Matrix: (Units=1/GPa)
#
#
# Indices 1 2 3 4 5 6 
#
# 1 0.016627 -0.005703 -0.002839 0.000000 0.000000 0.000000
# 2 -0.005703 0.016582 -0.006148 0.000000 0.000000 0.000000
# 3 -0.002839 -0.006148 0.011297 0.000000 0.000000 0.000000
# 4 0.000000 0.000000 0.000000 0.049010 0.000000 0.000000
# 5 0.000000 0.000000 0.000000 0.000000 0.037850 0.000000
# 6 0.000000 0.000000 0.000000 0.000000 0.000000 0.055242
#
#
# Mechanical properties :
#
#
# Convention : Reuss Voigt Hill
#
# Bulk Modulus (GPa) = 66.11891 70.76267 68.44079
# Shear Modulus (GPa) = 22.62134 23.81177 23.21656
#
# Velocity S-wave (km/s) = 3.57800 3.67094 3.62477
# Velocity P-wave (km/s) = 7.38160 7.61672 7.50008
#
# Compressibility (1/GPa) = 0.01512427
#
# Stress axis : x y z
#
# Youngs Moduli (GPa) = 60.14364 60.30792 88.51521
#
# Poissons Ratio (x) = 0.34396 0.25130
# Poissons Ratio (y) = 0.34302 0.54423
# Poissons Ratio (z) = 0.17075 0.37080
#
# Static dielectric constant tensor:
#      x y z
#    x 3.294510 0.000000 0.000000 
#    y 0.000000 3.261900 0.000000 
#    z 0.000000 0.000000 3.440540 
# 
# 
# High freq. dielectric constant tensor:
#      x y z
#    x 1.671950 0.000000 0.000000 
#    y 0.000000 1.672400 0.000000 
#    z 0.000000 0.000000 1.685400 
# 
# From -- ./inp_files/48824.got.cif
#   From: 2010.03.12/outbox.cif.g09.slc.cpg/sg66_25_cif.got.tgz:48824.got - 2010.04.10 21:57:39.
