data_PCOD8275080
_publ_section_title
;
Structure prediction by ZEFSAII (Michael W. Deem and Ramdas Pophale) SiO2 
 PCOD8275080
Probable space group: C M M M
;
_chemical_formula_sum "Si O2"
_cell_formula_units_Z 104
_cell_length_a 9.635973
_cell_length_b 19.536439
_cell_length_c 32.955729
_cell_angle_alpha 90.000000
_cell_angle_beta 90.000000
_cell_angle_gamma 90.000000
_cell_volume 6204.001627
_symmetry_space_group_name_H-M "C M M M"
_symmetry_group_IT_number 65
_symmetry_cell_setting 'orthorhombic'
loop_
_space_group_symop_operation_xyz
x,y,z
-x,-y,z
x,-y,-z
-x,y,-z
-x,-y,-z
x,y,-z
-x,y,z
x,-y,z
1/2+x,1/2+y,z
1/2-x,1/2-y,z
1/2+x,1/2-y,-z
1/2-x,1/2+y,-z
1/2-x,1/2-y,-z
1/2+x,1/2+y,-z
1/2-x,1/2+y,z
1/2+x,1/2-y,z
loop_
_atom_site_type_symbol
_atom_site_label
_atom_site_fract_x
_atom_site_fract_y
_atom_site_fract_z
Si Si1 0.339182 0.578482 0.386315
Si Si2 0.161288 0.684336 0.840422
Si Si3 0.838812 0.316543 0.066615
Si Si4 0.845520 0.581520 0.312936
Si Si5 0.164853 0.424412 0.775894
Si Si6 0.336159 0.923233 0.000000
Si Si7 0.660484 0.314524 0.546295
O O1 0.500000 0.585681 0.375462
O O2 0.298284 0.500000 0.395142
O O3 0.255995 0.609011 0.347938
O O4 0.299073 0.620656 0.426337
O O5 0.250000 0.750000 0.828925
O O6 0.186318 0.662249 0.886846
O O7 0.218556 0.624110 0.811761
O O8 0.000000 0.700453 0.832291
O O9 0.750000 0.250000 0.054602
O O10 0.000000 0.299091 0.058253
O O11 0.788598 0.380974 0.039784
O O12 0.848614 0.500000 0.312739
O O13 0.791023 0.605191 0.268430
O O14 0.000000 0.610357 0.321500
O O15 0.228911 0.500000 0.783099
O O16 0.000000 0.429695 0.776793
O O17 0.500000 0.931111 0.000000
O O18 0.269737 0.000000 0.000000
O O19 0.695400 0.334625 0.500000
O O20 0.500000 0.294631 0.551409
O O21 0.750000 0.250000 0.560696
#
# Coordination Sequence:
#
# PCOD8275080 Si02
#       7
#    16  16  16  16  16   8  16
#     4   9  17  29  46  68  91 113 141 179 217 253
#     4   9  17  29  45  65  88 114 145 180 217 256
#     4   9  17  29  46  65  86 116 148 177 213 259
#     4   8  14  26  44  64  86 113 143 175 213 255
#     4   8  14  26  45  66  85 109 145 183 214 250
#     4   9  17  28  43  67  94 113 138 182 226 257
#     4   9  18  32  48  65  87 116 146 175 211 255
#
# _framework density 16.763375
#
# number of rings (size 3 to 8) (size 9 to 14) (size 15 to 20)
#    0.000    3.308    0.000    1.154    0.000    1.538 
#    0.000    6.154    0.000    6.000    0.000    8.615 
#    0.000    0.000    0.000    0.000    0.000    0.000 
#
# Total GULP energy -644583.091660 kJ/mol
# GULP energy per Si atom -12395.828686 kJ/mol
# Density = 1.672522 g / cm^3
# Si number density = 16.763375 Si / 1000 Ang^3
#
#
#
# Elastic Constant Matrix: (Units=GPa)
#
#
# Indices 1 2 3 4 5 6 
#
# 1 42.8069 41.3805 44.8730 0.0000 0.0000 0.0000
# 2 41.3805 107.7115 82.3382 0.0000 0.0000 0.0000
# 3 44.8730 82.3382 131.5398 0.0000 0.0000 0.0000
# 4 0.0000 0.0000 0.0000 20.9792 0.0000 0.0000
# 5 0.0000 0.0000 0.0000 0.0000 21.4028 0.0000
# 6 0.0000 0.0000 0.0000 0.0000 0.0000 21.6153
#
#
#
# Elastic Compliance Matrix: (Units=1/GPa)
#
#
# Indices 1 2 3 4 5 6 
#
# 1 0.041061 -0.009716 -0.007925 0.000000 0.000000 0.000000
# 2 -0.009716 0.020102 -0.009268 0.000000 0.000000 0.000000
# 3 -0.007925 -0.009268 0.016107 0.000000 0.000000 0.000000
# 4 0.000000 0.000000 0.000000 0.047666 0.000000 0.000000
# 5 0.000000 0.000000 0.000000 0.000000 0.046723 0.000000
# 6 0.000000 0.000000 0.000000 0.000000 0.000000 0.046264
#
#
# Mechanical properties :
#
#
# Convention : Reuss Voigt Hill
#
# Bulk Modulus (GPa) = 42.64324 68.80461 55.72392
# Shear Modulus (GPa) = 17.88521 20.36388 19.12455
#
# Velocity S-wave (km/s) = 3.26992 3.48916 3.38132
# Velocity P-wave (km/s) = 6.30477 7.57403 6.96836
#
# Compressibility (1/GPa) = 0.02345038
#
# Stress axis : x y z
#
# Youngs Moduli (GPa) = 24.35378 49.74654 62.08305
#
# Poissons Ratio (x) = 0.48336 0.49204
# Poissons Ratio (y) = 0.23663 0.57540
# Poissons Ratio (z) = 0.19301 0.46106
#
# Static dielectric constant tensor:
#      x y z
#    x 2.998410 0.000000 0.000000 
#    y 0.000000 3.155410 0.000000 
#    z 0.000000 0.000000 3.413610 
# 
# 
# High freq. dielectric constant tensor:
#      x y z
#    x 1.619840 0.000000 0.000000 
#    y 0.000000 1.625650 0.000000 
#    z 0.000000 0.000000 1.658190 
# 
# From -- ./inp_files/77494.got.cif
#   From: 2010.03.12/outbox.cif.g09.slc.cpg/sg65_39_cif.got.tgz:77494.got - 2010.04.10 20:52:16.
