data_PCOD8275901
_publ_section_title
;
Structure prediction by ZEFSAII (Michael W. Deem and Ramdas Pophale) SiO2 
 PCOD8275901
Probable space group: C C C M
;
_chemical_formula_sum "Si O2"
_cell_formula_units_Z 116
_cell_length_a 26.618427
_cell_length_b 26.391250
_cell_length_c 8.876357
_cell_angle_alpha 90.000000
_cell_angle_beta 90.000000
_cell_angle_gamma 90.000000
_cell_volume 6235.583643
_symmetry_space_group_name_H-M "C C C M"
_symmetry_group_IT_number 66
_symmetry_cell_setting 'orthorhombic'
loop_
_space_group_symop_operation_xyz
x,y,z
-x,-y,z
x,-y,1/2-z
-x,y,1/2-z
-x,-y,-z
x,y,-z
-x,y,1/2+z
x,-y,1/2+z
1/2+x,1/2+y,z
1/2-x,1/2-y,z
1/2+x,1/2-y,1/2-z
1/2-x,1/2+y,1/2-z
1/2-x,1/2-y,-z
1/2+x,1/2+y,-z
1/2-x,1/2+y,1/2+z
1/2+x,1/2-y,1/2+z
loop_
_atom_site_type_symbol
_atom_site_label
_atom_site_fract_x
_atom_site_fract_y
_atom_site_fract_z
Si Si1 0.214006 0.677551 0.171092
Si Si2 0.051785 0.682684 0.321107
Si Si3 0.823036 0.418407 0.321384
Si Si4 0.213030 0.950035 0.675723
Si Si5 0.816636 0.159537 0.321835
Si Si6 0.420558 0.921726 0.832070
Si Si7 0.130213 0.244378 0.329836
Si Si8 0.500000 0.000000 0.750000
O O1 0.176803 0.638004 0.252570
O O2 0.264278 0.683228 0.267481
O O3 0.185477 0.730899 0.169098
O O4 0.226558 0.660184 0.000000
O O5 0.047971 0.681581 0.500000
O O6 0.062275 0.625846 0.266328
O O7 0.093360 0.722779 0.271502
O O8 0.000000 0.702030 0.250000
O O9 0.829286 0.415676 0.500000
O O10 0.771237 0.445343 0.273172
O O11 0.871022 0.446309 0.246699
O O12 0.209916 0.957470 0.500000
O O13 0.182071 0.900000 0.724209
O O14 0.189018 0.000000 0.750000
O O15 0.820394 0.166465 0.500000
O O16 0.862985 0.188400 0.242341
O O17 0.464054 0.963842 0.848218
O O18 0.407194 0.902908 0.000000
O O19 0.109204 0.239648 0.500000
#
# Coordination Sequence:
#
# PCOD8275901 Si02
#       8
#    16  16  16  16  16  16  16   4
#     4  10  19  32  52  78 109 143 180 224 273 333
#     4  12  25  42  64  84 109 143 182 231 287 344
#     4  10  21  36  54  77 104 138 182 230 282 338
#     4   9  20  36  53  77 108 146 185 224 270 324
#     4  10  21  35  52  79 114 147 185 228 274 331
#     4  12  25  42  60  78 102 137 183 238 295 347
#     4  11  22  36  56  83 112 144 184 226 276 337
#     4  12  30  44  60  78 106 136 190 248 308 340
#
# _framework density 18.602910000000001
#
# number of rings (size 3 to 8) (size 9 to 14) (size 15 to 20)
#    0.000    1.379    2.069    4.759    0.966    8.276 
#    0.000    0.000    0.000    0.000    0.000    0.000 
#    0.000    0.552    0.000    5.793    0.000    3.172 
#
# Total GULP energy -719145.109707 kJ/mol
# GULP energy per Si atom -12399.053616 kJ/mol
# Density = 1.856057 g / cm^3
# Si number density = 18.602910 Si / 1000 Ang^3
#
#
#
# Elastic Constant Matrix: (Units=GPa)
#
#
# Indices 1 2 3 4 5 6 
#
# 1 46.2283 43.2714 24.4691 0.0000 0.0000 0.0000
# 2 43.2714 118.6225 49.3132 0.0000 0.0000 0.0000
# 3 24.4691 49.3132 123.8856 0.0000 0.0000 0.0000
# 4 0.0000 0.0000 0.0000 25.1908 0.0000 0.0000
# 5 0.0000 0.0000 0.0000 0.0000 24.8346 0.0000
# 6 0.0000 0.0000 0.0000 0.0000 0.0000 25.0815
#
#
#
# Elastic Compliance Matrix: (Units=1/GPa)
#
#
# Indices 1 2 3 4 5 6 
#
# 1 0.033292 -0.011277 -0.002087 0.000000 0.000000 0.000000
# 2 -0.011277 0.013921 -0.003314 0.000000 0.000000 0.000000
# 3 -0.002087 -0.003314 0.009803 0.000000 0.000000 0.000000
# 4 0.000000 0.000000 0.000000 0.039697 0.000000 0.000000
# 5 0.000000 0.000000 0.000000 0.000000 0.040266 0.000000
# 6 0.000000 0.000000 0.000000 0.000000 0.000000 0.039870
#
#
# Mechanical properties :
#
#
# Convention : Reuss Voigt Hill
#
# Bulk Modulus (GPa) = 42.26349 58.09378 50.17863
# Shear Modulus (GPa) = 22.92606 26.46690 24.69648
#
# Velocity S-wave (km/s) = 3.51435 3.77600 3.64752
# Velocity P-wave (km/s) = 6.26384 7.09274 6.69114
#
# Compressibility (1/GPa) = 0.02366108
#
# Stress axis : x y z
#
# Youngs Moduli (GPa) = 30.03747 71.83184 102.00584
#
# Poissons Ratio (x) = 0.81003 0.21287
# Poissons Ratio (y) = 0.33872 0.33806
# Poissons Ratio (z) = 0.06268 0.23806
#
# Static dielectric constant tensor:
#      x y z
#    x 3.328820 0.000000 0.000000 
#    y 0.000000 3.461810 0.000000 
#    z 0.000000 0.000000 3.476110 
# 
# 
# High freq. dielectric constant tensor:
#      x y z
#    x 1.685020 0.000000 0.000000 
#    y 0.000000 1.713270 0.000000 
#    z 0.000000 0.000000 1.737380 
# 
# From -- ./inp_files/9410.got.cif
#   From: 2010.03.12/outbox.cif.g09.slc.cpg/sg66_5_cif.got.tgz:9410.got - 2010.04.10 21:57:39.
