data_PCOD8275680
_publ_section_title
;
Structure prediction by ZEFSAII (Michael W. Deem and Ramdas Pophale) SiO2 
 PCOD8275680
Probable space group: C C C M
;
_chemical_formula_sum "Si O2"
_cell_formula_units_Z 112
_cell_length_a 12.222072
_cell_length_b 25.593588
_cell_length_c 18.822021
_cell_angle_alpha 90.000000
_cell_angle_beta 90.000000
_cell_angle_gamma 90.000000
_cell_volume 5887.653811
_symmetry_space_group_name_H-M "C C C M"
_symmetry_group_IT_number 66
_symmetry_cell_setting 'orthorhombic'
loop_
_space_group_symop_operation_xyz
x,y,z
-x,-y,z
x,-y,1/2-z
-x,y,1/2-z
-x,-y,-z
x,y,-z
-x,y,1/2+z
x,-y,1/2+z
1/2+x,1/2+y,z
1/2-x,1/2-y,z
1/2+x,1/2-y,1/2-z
1/2-x,1/2+y,1/2-z
1/2-x,1/2-y,-z
1/2+x,1/2+y,-z
1/2-x,1/2+y,1/2+z
1/2+x,1/2-y,1/2+z
loop_
_atom_site_type_symbol
_atom_site_label
_atom_site_fract_x
_atom_site_fract_y
_atom_site_fract_z
Si Si1 0.778093 0.190543 0.582765
Si Si2 0.489163 0.645344 0.079083
Si Si3 0.361332 0.891371 0.669935
Si Si4 0.058132 0.047265 0.325677
Si Si5 0.758302 0.807227 0.580496
Si Si6 0.386264 0.109913 0.663707
Si Si7 0.697497 0.994743 0.327464
O O1 0.751740 0.180060 0.500000
O O2 0.750000 0.250000 0.603116
O O3 0.904592 0.178654 0.601135
O O4 0.706819 0.153259 0.631869
O O5 0.460914 0.599500 0.132238
O O6 0.386936 0.683258 0.082217
O O7 0.504916 0.621991 0.000000
O O8 0.486761 0.878886 0.651759
O O9 0.345750 0.888455 0.754626
O O10 0.316820 0.947451 0.638285
O O11 0.182137 0.029167 0.317952
O O12 0.000000 0.054839 0.250000
O O13 0.000000 0.000000 0.367967
O O14 0.713171 0.807749 0.500000
O O15 0.750000 0.750000 0.615252
O O16 0.686866 0.848423 0.623244
O O17 0.368023 0.051194 0.631584
O O18 0.642461 0.000000 0.250000
#
# Coordination Sequence:
#
# PCOD8275680 Si02
#       7
#    16  16  16  16  16  16  16
#     4  10  23  41  61  83 113 156 197 237 288 347
#     4  10  22  39  57  85 117 147 190 240 292 339
#     4  10  22  38  60  86 118 153 194 238 286 340
#     4  11  20  32  57  88 113 152 192 228 279 344
#     4  10  22  39  62  86 114 153 194 241 291 344
#     4  10  21  38  60  89 116 152 193 237 290 344
#     4  10  18  35  57  86 118 149 189 233 286 344
#
# _framework density 19.022856000000001
#
# number of rings (size 3 to 8) (size 9 to 14) (size 15 to 20)
#    0.000    1.857    2.857    1.286    4.000    3.143 
#    0.000    1.429    0.000    1.714    0.000    0.000 
#    0.000    0.000    0.000    0.000    0.000    0.000 
#
# Total GULP energy -693932.450102 kJ/mol
# GULP energy per Si atom -12391.650895 kJ/mol
# Density = 1.897956 g / cm^3
# Si number density = 19.022856 Si / 1000 Ang^3
#
#
#
# Elastic Constant Matrix: (Units=GPa)
#
#
# Indices 1 2 3 4 5 6 
#
# 1 129.5690 65.3304 44.3266 0.0000 0.0000 0.0000
# 2 65.3304 173.4735 57.5665 0.0000 0.0000 0.0000
# 3 44.3266 57.5665 54.9807 0.0000 0.0000 0.0000
# 4 0.0000 0.0000 0.0000 35.2642 0.0000 0.0000
# 5 0.0000 0.0000 0.0000 0.0000 42.8830 0.0000
# 6 0.0000 0.0000 0.0000 0.0000 0.0000 -91.9966
#
#
#
# Elastic Compliance Matrix: (Units=1/GPa)
#
#
# Indices 1 2 3 4 5 6 
#
# 1 0.011029 -0.001843 -0.006962 0.000000 0.000000 0.000000
# 2 -0.001843 0.009142 -0.008086 0.000000 0.000000 0.000000
# 3 -0.006962 -0.008086 0.032267 0.000000 0.000000 0.000000
# 4 0.000000 0.000000 0.000000 0.028357 0.000000 0.000000
# 5 0.000000 0.000000 0.000000 0.000000 0.023319 0.000000
# 6 0.000000 0.000000 0.000000 0.000000 0.000000 -0.010870
#
#
# Mechanical properties :
#
#
# Convention : Reuss Voigt Hill
#
# Bulk Modulus (GPa) = 53.60159 76.94113 65.27136
# Shear Modulus (GPa) = 37.52471 9.95009 23.73740
#
# Velocity S-wave (km/s) = 4.44623 2.28953 3.53630
# Velocity P-wave (km/s) = 7.38899 6.89375 7.14566
#
# Compressibility (1/GPa) = 0.01865616
#
# Stress axis : x y z
#
# Youngs Moduli (GPa) = 90.67008 109.38506 30.99129
#
# Poissons Ratio (x) = 0.20163 0.21576
# Poissons Ratio (y) = 0.16713 0.25059
# Poissons Ratio (z) = 0.63123 0.88447
#
# Static dielectric constant tensor:
#      x y z
#    x 3.654080 0.000000 0.000000 
#    y 0.000000 3.730830 0.000000 
#    z 0.000000 0.000000 3.247840 
# 
# 
# High freq. dielectric constant tensor:
#      x y z
#    x 1.757340 0.000000 0.000000 
#    y 0.000000 1.754670 0.000000 
#    z 0.000000 0.000000 1.708650 
# 
# From -- ./inp_files/49041.got.cif
#   From: 2010.03.12/outbox.cif.g09.slc.cpg/sg66_25_cif.got.tgz:49041.got - 2010.04.10 21:57:39.
