data_PCOD8275911
_publ_section_title
;
Structure prediction by ZEFSAII (Michael W. Deem and Ramdas Pophale) SiO2 
 PCOD8275911
Probable space group: C C C M
;
_chemical_formula_sum "Si O2"
_cell_formula_units_Z 112
_cell_length_a 14.685073
_cell_length_b 16.136567
_cell_length_c 24.056477
_cell_angle_alpha 90.000000
_cell_angle_beta 90.000000
_cell_angle_gamma 90.000000
_cell_volume 5700.583111
_symmetry_space_group_name_H-M "C C C M"
_symmetry_group_IT_number 66
_symmetry_cell_setting 'orthorhombic'
loop_
_space_group_symop_operation_xyz
x,y,z
-x,-y,z
x,-y,1/2-z
-x,y,1/2-z
-x,-y,-z
x,y,-z
-x,y,1/2+z
x,-y,1/2+z
1/2+x,1/2+y,z
1/2-x,1/2-y,z
1/2+x,1/2-y,1/2-z
1/2-x,1/2+y,1/2-z
1/2-x,1/2-y,-z
1/2+x,1/2+y,-z
1/2-x,1/2+y,1/2+z
1/2+x,1/2-y,1/2+z
loop_
_atom_site_type_symbol
_atom_site_label
_atom_site_fract_x
_atom_site_fract_y
_atom_site_fract_z
Si Si1 0.587627 0.161321 0.339967
Si Si2 0.844390 0.202297 0.938169
Si Si3 0.101804 0.805683 0.734622
Si Si4 0.908914 0.545703 0.063010
Si Si5 0.888072 0.692070 0.662929
Si Si6 0.757446 0.560731 0.387319
Si Si7 0.751651 0.063261 0.295459
O O1 0.604169 0.258169 0.325294
O O2 0.606218 0.131312 0.403000
O O3 0.482125 0.143389 0.324234
O O4 0.658569 0.113276 0.301819
O O5 0.750000 0.250000 0.941927
O O6 0.905153 0.249600 0.891990
O O7 0.824116 0.107205 0.919706
O O8 0.890552 0.202572 0.000000
O O9 0.140212 0.747740 0.784232
O O10 0.163980 0.884923 0.727343
O O11 0.000000 0.834934 0.750000
O O12 0.827867 0.479309 0.069020
O O13 0.000000 0.500000 0.084125
O O14 0.918099 0.574474 0.000000
O O15 0.807970 0.626595 0.652880
O O16 0.716671 0.485664 0.350902
O O17 0.720367 0.000000 0.250000
#
# Coordination Sequence:
#
# PCOD8275911 Si02
#       7
#    16  16  16  16  16  16  16
#     4  10  21  36  55  82 114 148 183 231 293 348
#     4   9  18  31  52  81 113 148 187 232 285 346
#     4  10  22  39  58  79 111 150 194 237 280 341
#     4  10  19  32  53  82 118 149 184 234 293 361
#     4  10  19  35  54  81 112 148 183 233 295 351
#     4  10  19  32  53  79 116 146 191 238 297 344
#     4  11  22  35  56  82 109 151 190 237 288 348
#
# _framework density 19.647113999999998
#
# number of rings (size 3 to 8) (size 9 to 14) (size 15 to 20)
#    0.000    2.000    1.429    2.571    0.000    3.714 
#    0.000    0.714    0.000    7.714    0.000    4.000 
#    0.000    0.000    0.000    0.000    0.000    0.000 
#
# Total GULP energy -693994.427863 kJ/mol
# GULP energy per Si atom -12392.757640 kJ/mol
# Density = 1.960240 g / cm^3
# Si number density = 19.647114 Si / 1000 Ang^3
#
#
#
# Elastic Constant Matrix: (Units=GPa)
#
#
# Indices 1 2 3 4 5 6 
#
# 1 74.5273 48.3137 39.6138 0.0000 0.0000 0.0000
# 2 48.3137 82.8093 39.6456 0.0000 0.0000 0.0000
# 3 39.6138 39.6456 94.2318 0.0000 0.0000 0.0000
# 4 0.0000 0.0000 0.0000 26.7189 0.0000 0.0000
# 5 0.0000 0.0000 0.0000 0.0000 22.1141 0.0000
# 6 0.0000 0.0000 0.0000 0.0000 0.0000 13.4689
#
#
#
# Elastic Compliance Matrix: (Units=1/GPa)
#
#
# Indices 1 2 3 4 5 6 
#
# 1 0.023403 -0.011200 -0.005126 0.000000 0.000000 0.000000
# 2 -0.011200 0.020482 -0.003909 0.000000 0.000000 0.000000
# 3 -0.005126 -0.003909 0.014412 0.000000 0.000000 0.000000
# 4 0.000000 0.000000 0.000000 0.037427 0.000000 0.000000
# 5 0.000000 0.000000 0.000000 0.000000 0.045220 0.000000
# 6 0.000000 0.000000 0.000000 0.000000 0.000000 0.074245
#
#
# Mechanical properties :
#
#
# Convention : Reuss Voigt Hill
#
# Bulk Modulus (GPa) = 56.09639 56.30161 56.19900
# Shear Modulus (GPa) = 19.11306 20.72673 19.91989
#
# Velocity S-wave (km/s) = 3.12239 3.25152 3.18761
# Velocity P-wave (km/s) = 6.45082 6.54333 6.49724
#
# Compressibility (1/GPa) = 0.01782646
#
# Stress axis : x y z
#
# Youngs Moduli (GPa) = 42.72898 48.82389 69.38795
#
# Poissons Ratio (x) = 0.54683 0.35571
# Poissons Ratio (y) = 0.47856 0.27123
# Poissons Ratio (z) = 0.21904 0.19085
#
# Static dielectric constant tensor:
#      x y z
#    x 3.360860 0.000000 0.000000 
#    y 0.000000 3.656920 0.000000 
#    z 0.000000 0.000000 3.863540 
# 
# 
# High freq. dielectric constant tensor:
#      x y z
#    x 1.737630 0.000000 0.000000 
#    y 0.000000 1.755140 0.000000 
#    z 0.000000 0.000000 1.769540 
# 
# From -- ./inp_files/64664.got.cif
#   From: 2010.03.12/outbox.cif.g09.slc.cpg/sg66_33_cif.got.tgz:64664.got - 2010.04.10 21:57:39.
