data_PCOD8275311
_publ_section_title
;
Structure prediction by ZEFSAII (Michael W. Deem and Ramdas Pophale) SiO2 
 PCOD8275311
Probable space group: C C C M
;
_chemical_formula_sum "Si O2"
_cell_formula_units_Z 80
_cell_length_a 25.782318
_cell_length_b 17.740935
_cell_length_c 8.753880
_cell_angle_alpha 90.000000
_cell_angle_beta 90.000000
_cell_angle_gamma 90.000000
_cell_volume 4004.045965
_symmetry_space_group_name_H-M "C C C M"
_symmetry_group_IT_number 66
_symmetry_cell_setting 'orthorhombic'
loop_
_space_group_symop_operation_xyz
x,y,z
-x,-y,z
x,-y,1/2-z
-x,y,1/2-z
-x,-y,-z
x,y,-z
-x,y,1/2+z
x,-y,1/2+z
1/2+x,1/2+y,z
1/2-x,1/2-y,z
1/2+x,1/2-y,1/2-z
1/2-x,1/2+y,1/2-z
1/2-x,1/2-y,-z
1/2+x,1/2+y,-z
1/2-x,1/2+y,1/2+z
1/2+x,1/2-y,1/2+z
loop_
_atom_site_type_symbol
_atom_site_label
_atom_site_fract_x
_atom_site_fract_y
_atom_site_fract_z
Si Si1 0.950830 0.853706 0.821925
Si Si2 0.162888 0.136419 0.173933
Si Si3 0.261460 0.921759 0.821391
Si Si4 0.948191 0.690436 0.679825
Si Si5 0.342770 0.813267 0.678071
O O1 0.895702 0.895914 0.801248
O O2 0.948573 0.777759 0.724302
O O3 0.000000 0.900394 0.750000
O O4 0.959793 0.834540 0.000000
O O5 0.200776 0.091576 0.285830
O O6 0.163625 0.224919 0.211573
O O7 0.181119 0.122445 0.000000
O O8 0.293500 0.853327 0.751148
O O9 0.280689 0.000000 0.750000
O O10 0.270446 0.924930 0.000000
O O11 0.948178 0.679150 0.500000
O O12 0.895738 0.654047 0.748409
O O13 0.000000 0.651253 0.750000
O O14 0.344612 0.830533 0.500000
#
# Coordination Sequence:
#
# PCOD8275311 Si02
#       5
#    16  16  16  16  16
#     4   9  16  27  46  74 108 141 172 212 262 311
#     4   9  19  35  55  80 110 142 175 217 266 313
#     4  12  25  39  56  77 104 140 180 222 268 319
#     4  10  17  27  46  75 109 141 175 214 259 309
#     4  10  20  36  57  81 110 141 175 219 267 314
#
# _framework density 19.979790999999999
#
# number of rings (size 3 to 8) (size 9 to 14) (size 15 to 20)
#    0.000    2.000    0.000    7.800    0.000    7.200 
#    0.000    0.000    0.000    1.200    0.000    8.400 
#    0.000    0.000    0.000    0.000    0.000    0.000 
#
# Total GULP energy -495860.517063 kJ/mol
# GULP energy per Si atom -12396.512927 kJ/mol
# Density = 1.993432 g / cm^3
# Si number density = 19.979791 Si / 1000 Ang^3
#
#
#
# Elastic Constant Matrix: (Units=GPa)
#
#
# Indices 1 2 3 4 5 6 
#
# 1 107.0369 4.1740 37.1003 0.0000 0.0000 0.0000
# 2 4.1740 21.7514 18.9512 0.0000 0.0000 0.0000
# 3 37.1003 18.9512 140.2559 0.0000 0.0000 0.0000
# 4 0.0000 0.0000 0.0000 21.4517 0.0000 0.0000
# 5 0.0000 0.0000 0.0000 0.0000 40.7015 0.0000
# 6 0.0000 0.0000 0.0000 0.0000 0.0000 3.1363
#
#
#
# Elastic Compliance Matrix: (Units=1/GPa)
#
#
# Indices 1 2 3 4 5 6 
#
# 1 0.010289 0.000450 -0.002783 0.000000 0.000000 0.000000
# 2 0.000450 0.052128 -0.007162 0.000000 0.000000 0.000000
# 3 -0.002783 -0.007162 0.008834 0.000000 0.000000 0.000000
# 4 0.000000 0.000000 0.000000 0.046616 0.000000 0.000000
# 5 0.000000 0.000000 0.000000 0.000000 0.024569 0.000000
# 6 0.000000 0.000000 0.000000 0.000000 0.000000 0.318850
#
#
# Mechanical properties :
#
#
# Convention : Reuss Voigt Hill
#
# Bulk Modulus (GPa) = 19.13477 43.27724 31.20601
# Shear Modulus (GPa) = 10.04626 26.97915 18.51271
#
# Velocity S-wave (km/s) = 2.24480 3.67866 3.04727
# Velocity P-wave (km/s) = 4.03939 6.30483 5.29470
#
# Compressibility (1/GPa) = 0.05226088
#
# Stress axis : x y z
#
# Youngs Moduli (GPa) = 97.18652 19.18352 113.20356
#
# Poissons Ratio (x) = -0.00863 0.31499
# Poissons Ratio (y) = -0.04372 0.81082
# Poissons Ratio (z) = 0.27043 0.13740
#
# Static dielectric constant tensor:
#      x y z
#    x 4.541580 0.000000 0.000000 
#    y 0.000000 2.978300 0.000000 
#    z 0.000000 0.000000 3.708070 
# 
# 
# High freq. dielectric constant tensor:
#      x y z
#    x 1.808770 0.000000 0.000000 
#    y 0.000000 1.713670 0.000000 
#    z 0.000000 0.000000 1.790590 
# 
# From -- ./inp_files/6720.got.cif
#   From: 2010.03.12/outbox.cif.g09.slc.cpg/sg66_4_cif.got.tgz:6720.got - 2010.04.10 21:57:39.
