data_PCOD8275240
_publ_section_title
;
Structure prediction by ZEFSAII (Michael W. Deem and Ramdas Pophale) SiO2 
 PCOD8275240
Probable space group: C C C M
;
_chemical_formula_sum "Si O2"
_cell_formula_units_Z 80
_cell_length_a 8.367544
_cell_length_b 19.153983
_cell_length_c 26.484031
_cell_angle_alpha 90.000000
_cell_angle_beta 90.000000
_cell_angle_gamma 90.000000
_cell_volume 4244.643201
_symmetry_space_group_name_H-M "C C C M"
_symmetry_group_IT_number 66
_symmetry_cell_setting 'orthorhombic'
loop_
_space_group_symop_operation_xyz
x,y,z
-x,-y,z
x,-y,1/2-z
-x,y,1/2-z
-x,-y,-z
x,y,-z
-x,y,1/2+z
x,-y,1/2+z
1/2+x,1/2+y,z
1/2-x,1/2-y,z
1/2+x,1/2-y,1/2-z
1/2-x,1/2+y,1/2-z
1/2-x,1/2-y,-z
1/2+x,1/2+y,-z
1/2-x,1/2+y,1/2+z
1/2+x,1/2-y,1/2+z
loop_
_atom_site_type_symbol
_atom_site_label
_atom_site_fract_x
_atom_site_fract_y
_atom_site_fract_z
Si Si1 0.519616 0.800994 0.643270
Si Si2 0.306671 0.828902 0.557021
Si Si3 0.855208 0.146489 0.849848
Si Si4 0.501485 0.582526 0.556438
Si Si5 0.250000 0.750000 0.288821
Si Si6 0.000000 0.849881 0.250000
O O1 0.463242 0.838254 0.591552
O O2 0.667591 0.846788 0.664244
O O3 0.570659 0.721061 0.635785
O O4 0.366224 0.800770 0.679647
O O5 0.362155 0.842067 0.500000
O O6 0.250000 0.750000 0.565768
O O7 0.169022 0.884128 0.572155
O O8 0.869737 0.101540 0.900731
O O9 0.957264 0.110331 0.802763
O O10 0.500000 0.500000 0.554642
O O11 0.548060 0.610766 0.500000
O O12 0.153801 0.800662 0.252550
#
# Coordination Sequence:
#
# PCOD8275240 Si02
#       6
#    16  16  16  16   8   8
#     4  10  18  30  51  80 110 139 177 227 270 320
#     4  10  17  30  52  78 106 141 183 227 272 320
#     4  10  20  32  51  80 109 140 179 223 272 317
#     4  10  21  38  57  77 107 145 181 219 271 332
#     4  10  16  28  45  74 111 142 170 218 272 322
#     4  10  18  30  49  76 108 142 179 218 268 320
#
# _framework density 18.847283999999998
#
# number of rings (size 3 to 8) (size 9 to 14) (size 15 to 20)
#    0.000    2.000    3.000    3.600    0.000    0.800 
#    0.000    3.500    0.000    3.600    0.000    2.800 
#    0.000    0.000    0.000    0.000    0.000    0.000 
#
# Total GULP energy -495584.131808 kJ/mol
# GULP energy per Si atom -12389.603295 kJ/mol
# Density = 1.880439 g / cm^3
# Si number density = 18.847284 Si / 1000 Ang^3
#
#
#
# Elastic Constant Matrix: (Units=GPa)
#
#
# Indices 1 2 3 4 5 6 
#
# 1 103.2630 19.1536 46.6016 0.0000 0.0000 0.0000
# 2 19.1536 47.1464 17.4339 0.0000 0.0000 0.0000
# 3 46.6016 17.4339 115.5040 0.0000 0.0000 0.0000
# 4 0.0000 0.0000 0.0000 14.5449 0.0000 0.0000
# 5 0.0000 0.0000 0.0000 0.0000 32.5828 0.0000
# 6 0.0000 0.0000 0.0000 0.0000 0.0000 17.8619
#
#
#
# Elastic Compliance Matrix: (Units=1/GPa)
#
#
# Indices 1 2 3 4 5 6 
#
# 1 0.012321 -0.003355 -0.004465 0.000000 0.000000 0.000000
# 2 -0.003355 0.023378 -0.002175 0.000000 0.000000 0.000000
# 3 -0.004465 -0.002175 0.010787 0.000000 0.000000 0.000000
# 4 0.000000 0.000000 0.000000 0.068753 0.000000 0.000000
# 5 0.000000 0.000000 0.000000 0.000000 0.030691 0.000000
# 6 0.000000 0.000000 0.000000 0.000000 0.000000 0.055985
#
#
# Mechanical properties :
#
#
# Convention : Reuss Voigt Hill
#
# Bulk Modulus (GPa) = 37.73979 48.03240 42.88609
# Shear Modulus (GPa) = 21.66976 25.17954 23.42465
#
# Velocity S-wave (km/s) = 3.39448 3.65907 3.52926
# Velocity P-wave (km/s) = 5.95238 6.58727 6.27785
#
# Compressibility (1/GPa) = 0.02649724
#
# Stress axis : x y z
#
# Youngs Moduli (GPa) = 81.16131 42.77588 92.70082
#
# Poissons Ratio (x) = 0.14349 0.41389
# Poissons Ratio (y) = 0.27226 0.20164
# Poissons Ratio (z) = 0.36237 0.09304
#
# Static dielectric constant tensor:
#      x y z
#    x 3.629560 0.000000 0.000000 
#    y 0.000000 2.957170 0.000000 
#    z 0.000000 0.000000 3.861600 
# 
# 
# High freq. dielectric constant tensor:
#      x y z
#    x 1.732670 0.000000 0.000000 
#    y 0.000000 1.667260 0.000000 
#    z 0.000000 0.000000 1.755910 
# 
# From -- ./inp_files/68157.got.cif
#   From: 2010.03.12/outbox.cif.g09.slc.cpg/sg66_35_cif.got.tgz:68157.got - 2010.04.10 21:57:39.
