data_PCOD8275158
_publ_section_title
;
Structure prediction by ZEFSAII (Michael W. Deem and Ramdas Pophale) SiO2 
 PCOD8275158
Probable space group: C M M M
;
_chemical_formula_sum "Si O2"
_cell_formula_units_Z 72
_cell_length_a 17.381449
_cell_length_b 25.004562
_cell_length_c 9.797474
_cell_angle_alpha 90.000000
_cell_angle_beta 90.000000
_cell_angle_gamma 90.000000
_cell_volume 4258.134249
_symmetry_space_group_name_H-M "C M M M"
_symmetry_group_IT_number 65
_symmetry_cell_setting 'orthorhombic'
loop_
_space_group_symop_operation_xyz
x,y,z
-x,-y,z
x,-y,-z
-x,y,-z
-x,-y,-z
x,y,-z
-x,y,z
x,-y,z
1/2+x,1/2+y,z
1/2-x,1/2-y,z
1/2+x,1/2-y,-z
1/2-x,1/2+y,-z
1/2-x,1/2-y,-z
1/2+x,1/2+y,-z
1/2-x,1/2+y,z
1/2+x,1/2-y,z
loop_
_atom_site_type_symbol
_atom_site_label
_atom_site_fract_x
_atom_site_fract_y
_atom_site_fract_z
Si Si1 0.756303 0.811144 0.339507
Si Si2 0.133957 0.060692 0.850271
Si Si3 0.696736 0.903823 0.159522
Si Si4 0.582803 0.356580 0.654145
Si Si5 0.911851 0.500000 0.161986
O O1 0.737933 0.819678 0.500000
O O2 0.750000 0.750000 0.294710
O O3 0.699258 0.849465 0.251559
O O4 0.845524 0.820764 0.301167
O O5 0.223995 0.065242 0.815107
O O6 0.080137 0.090439 0.744052
O O7 0.108361 0.000000 0.845630
O O8 0.118989 0.085269 0.000000
O O9 0.630379 0.945116 0.211232
O O10 0.684695 0.888342 0.000000
O O11 0.594335 0.375678 0.500000
O O12 0.500000 0.326484 0.671728
O O13 0.000000 0.500000 0.216125
O O14 0.908661 0.500000 0.000000
#
# Coordination Sequence:
#
# PCOD8275158 Si02
#       5
#    16  16  16  16   8
#     4   9  18  33  51  69  90 121 161 199 238 285
#     4   9  16  27  44  65  90 120 150 179 216 263
#     4   9  16  29  49  71  95 123 158 194 230 280
#     4   9  18  31  45  63  88 117 149 185 225 268
#     4   9  16  28  49  75 102 131 160 196 245 295
#
# _framework density 16.908814
#
# number of rings (size 3 to 8) (size 9 to 14) (size 15 to 20)
#    0.000    3.000    1.111    0.000    0.000    1.778 
#    0.000    3.889    0.000    2.667    0.000    0.000 
#    0.000    0.000    0.000    0.000    0.000    0.000 
#
# Total GULP energy -446018.468161 kJ/mol
# GULP energy per Si atom -12389.401893 kJ/mol
# Density = 1.687033 g / cm^3
# Si number density = 16.908814 Si / 1000 Ang^3
#
#
#
# Elastic Constant Matrix: (Units=GPa)
#
#
# Indices 1 2 3 4 5 6 
#
# 1 97.2874 49.8694 32.9142 0.0000 0.0000 0.0000
# 2 49.8694 119.9212 50.7269 0.0000 0.0000 0.0000
# 3 32.9142 50.7269 55.5629 0.0000 0.0000 0.0000
# 4 0.0000 0.0000 0.0000 27.9711 0.0000 0.0000
# 5 0.0000 0.0000 0.0000 0.0000 16.9464 0.0000
# 6 0.0000 0.0000 0.0000 0.0000 0.0000 16.6719
#
#
#
# Elastic Compliance Matrix: (Units=1/GPa)
#
#
# Indices 1 2 3 4 5 6 
#
# 1 0.013802 -0.003716 -0.004783 0.000000 0.000000 0.000000
# 2 -0.003716 0.014586 -0.011115 0.000000 0.000000 0.000000
# 3 -0.004783 -0.011115 0.030979 0.000000 0.000000 0.000000
# 4 0.000000 0.000000 0.000000 0.035751 0.000000 0.000000
# 5 0.000000 0.000000 0.000000 0.000000 0.059010 0.000000
# 6 0.000000 0.000000 0.000000 0.000000 0.000000 0.059981
#
#
# Mechanical properties :
#
#
# Convention : Reuss Voigt Hill
#
# Bulk Modulus (GPa) = 49.65808 59.97694 54.81751
# Shear Modulus (GPa) = 19.22709 21.60194 20.41452
#
# Velocity S-wave (km/s) = 3.37576 3.57817 3.47843
# Velocity P-wave (km/s) = 6.68029 7.25389 6.97299
#
# Compressibility (1/GPa) = 0.02013771
#
# Stress axis : x y z
#
# Youngs Moduli (GPa) = 72.45312 68.55951 32.28044
#
# Poissons Ratio (x) = 0.25479 0.15440
# Poissons Ratio (y) = 0.26926 0.35879
# Poissons Ratio (z) = 0.34655 0.76203
#
# Static dielectric constant tensor:
#      x y z
#    x 3.285190 0.000000 0.000000 
#    y 0.000000 3.096380 0.000000 
#    z 0.000000 0.000000 3.170560 
# 
# 
# High freq. dielectric constant tensor:
#      x y z
#    x 1.647280 0.000000 0.000000 
#    y 0.000000 1.633550 0.000000 
#    z 0.000000 0.000000 1.641110 
# 
# From -- ./inp_files/9291.got.cif
#   From: 2010.03.12/outbox.cif.g09.slc.cpg/sg65_5_cif.got.tgz:9291.got - 2010.04.10 20:52:16.
