data_PCOD8275073
_publ_section_title
;
Structure prediction by ZEFSAII (Michael W. Deem and Ramdas Pophale) SiO2 
 PCOD8275073
Probable space group: C M M M
;
_chemical_formula_sum "Si O2"
_cell_formula_units_Z 88
_cell_length_a 17.853041
_cell_length_b 30.672086
_cell_length_c 9.522648
_cell_angle_alpha 90.000000
_cell_angle_beta 90.000000
_cell_angle_gamma 90.000000
_cell_volume 5214.506903
_symmetry_space_group_name_H-M "C M M M"
_symmetry_group_IT_number 65
_symmetry_cell_setting 'orthorhombic'
loop_
_space_group_symop_operation_xyz
x,y,z
-x,-y,z
x,-y,-z
-x,y,-z
-x,-y,-z
x,y,-z
-x,y,z
x,-y,z
1/2+x,1/2+y,z
1/2-x,1/2-y,z
1/2+x,1/2-y,-z
1/2-x,1/2+y,-z
1/2-x,1/2-y,-z
1/2+x,1/2+y,-z
1/2-x,1/2+y,z
1/2+x,1/2-y,z
loop_
_atom_site_type_symbol
_atom_site_label
_atom_site_fract_x
_atom_site_fract_y
_atom_site_fract_z
Si Si1 0.697506 0.623884 0.662215
Si Si2 0.637750 0.910023 0.660139
Si Si3 0.914641 0.048957 0.333462
Si Si4 0.416996 0.000000 0.666818
Si Si5 0.739143 0.799305 0.164960
Si Si6 0.418274 0.163644 0.160547
O O1 0.679949 0.636121 0.500000
O O2 0.775887 0.600244 0.678409
O O3 0.636626 0.589078 0.723545
O O4 0.703229 0.668587 0.752856
O O5 0.611385 0.905949 0.500000
O O6 0.627795 0.958241 0.721198
O O7 0.582886 0.879522 0.747339
O O8 0.907843 0.048814 0.500000
O O9 0.000000 0.058194 0.286007
O O10 0.890472 0.000000 0.279854
O O11 0.500000 0.000000 0.730838
O O12 0.420050 0.000000 0.500000
O O13 0.750000 0.750000 0.214981
O O14 0.651897 0.806608 0.204737
O O15 0.755331 0.805398 0.000000
O O16 0.500000 0.186743 0.183873
O O17 0.408789 0.149515 0.000000
#
# Coordination Sequence:
#
# PCOD8275073 Si02
#       6
#    16  16  16   8  16  16
#     4   9  17  28  46  70  91 115 150 190 225 261
#     4   9  17  27  41  62  87 115 145 179 215 251
#     4   8  14  25  43  68  97 127 156 187 226 274
#     4   9  16  24  35  55  84 114 140 169 207 247
#     4   9  18  33  50  66  88 118 149 184 230 280
#     4   9  17  30  47  64  83 110 145 181 215 257
#
# _framework density 16.875997000000002
#
# number of rings (size 3 to 8) (size 9 to 14) (size 15 to 20)
#    0.000    3.182    0.000    1.091    1.273    1.455 
#    0.000    1.364    0.000    3.818    0.000    1.273 
#    0.000    0.000    0.000    0.000    0.000    0.000 
#
# Total GULP energy -545121.801259 kJ/mol
# GULP energy per Si atom -12389.131847 kJ/mol
# Density = 1.683759 g / cm^3
# Si number density = 16.875997 Si / 1000 Ang^3
#
#
#
# Elastic Constant Matrix: (Units=GPa)
#
#
# Indices 1 2 3 4 5 6 
#
# 1 81.9522 59.4847 25.3184 0.0000 0.0000 0.0000
# 2 59.4847 151.8327 40.8563 0.0000 0.0000 0.0000
# 3 25.3184 40.8563 33.8049 0.0000 0.0000 0.0000
# 4 0.0000 0.0000 0.0000 29.9219 0.0000 0.0000
# 5 0.0000 0.0000 0.0000 0.0000 15.5236 0.0000
# 6 0.0000 0.0000 0.0000 0.0000 0.0000 22.1102
#
#
#
# Elastic Compliance Matrix: (Units=1/GPa)
#
#
# Indices 1 2 3 4 5 6 
#
# 1 0.018233 -0.005140 -0.007443 0.000000 0.000000 0.000000
# 2 -0.005140 0.011210 -0.009698 0.000000 0.000000 0.000000
# 3 -0.007443 -0.009698 0.046877 0.000000 0.000000 0.000000
# 4 0.000000 0.000000 0.000000 0.033420 0.000000 0.000000
# 5 0.000000 0.000000 0.000000 0.000000 0.064418 0.000000
# 6 0.000000 0.000000 0.000000 0.000000 0.000000 0.045228
#
#
# Mechanical properties :
#
#
# Convention : Reuss Voigt Hill
#
# Bulk Modulus (GPa) = 31.48947 57.65651 44.57299
# Shear Modulus (GPa) = 18.21267 22.97315 20.59291
#
# Velocity S-wave (km/s) = 3.28869 3.69357 3.49700
# Velocity P-wave (km/s) = 5.75504 7.24078 6.54024
#
# Compressibility (1/GPa) = 0.03175665
#
# Stress axis : x y z
#
# Youngs Moduli (GPa) = 54.84613 89.20846 21.33252
#
# Poissons Ratio (x) = 0.45857 0.15878
# Poissons Ratio (y) = 0.28193 0.20688
# Poissons Ratio (z) = 0.40822 0.86514
#
# Static dielectric constant tensor:
#      x y z
#    x 3.295110 0.000000 0.000000 
#    y 0.000000 3.358960 0.000000 
#    z 0.000000 0.000000 2.952500 
# 
# 
# High freq. dielectric constant tensor:
#      x y z
#    x 1.652280 0.000000 0.000000 
#    y 0.000000 1.645680 0.000000 
#    z 0.000000 0.000000 1.615910 
# 
# From -- ./inp_files/10028.got.cif
#   From: 2010.03.12/outbox.cif.g09.slc.cpg/sg65_6_cif.got.tgz:10028.got - 2010.04.10 20:52:16.
