data_PCOD8275012
_publ_section_title
;
Structure prediction by ZEFSAII (Michael W. Deem and Ramdas Pophale) SiO2 
 PCOD8275012
Probable space group: C M M M
;
_chemical_formula_sum "Si O2"
_cell_formula_units_Z 80
_cell_length_a 29.741341
_cell_length_b 15.139261
_cell_length_c 9.396352
_cell_angle_alpha 90.000000
_cell_angle_beta 90.000000
_cell_angle_gamma 90.000000
_cell_volume 4230.819529
_symmetry_space_group_name_H-M "C M M M"
_symmetry_group_IT_number 65
_symmetry_cell_setting 'orthorhombic'
loop_
_space_group_symop_operation_xyz
x,y,z
-x,-y,z
x,-y,-z
-x,y,-z
-x,-y,-z
x,y,-z
-x,y,z
x,-y,z
1/2+x,1/2+y,z
1/2-x,1/2-y,z
1/2+x,1/2-y,-z
1/2-x,1/2+y,-z
1/2-x,1/2-y,-z
1/2+x,1/2+y,-z
1/2-x,1/2+y,z
1/2+x,1/2-y,z
loop_
_atom_site_type_symbol
_atom_site_label
_atom_site_fract_x
_atom_site_fract_y
_atom_site_fract_z
Si Si1 0.619509 0.101496 0.334305
Si Si2 0.387467 0.598175 0.669775
Si Si3 0.449877 0.247221 0.668739
Si Si4 0.705852 0.894821 0.159919
Si Si5 0.711973 0.395144 0.341760
O O1 0.631109 0.114807 0.500000
O O2 0.576280 0.158266 0.287656
O O3 0.662116 0.136512 0.246305
O O4 0.608061 0.000000 0.299662
O O5 0.387850 0.596244 0.500000
O O6 0.398868 0.500000 0.728560
O O7 0.423943 0.667055 0.730522
O O8 0.337579 0.629124 0.718359
O O9 0.452633 0.254832 0.500000
O O10 0.500000 0.243843 0.734525
O O11 0.750256 0.855727 0.236541
O O12 0.707923 0.000000 0.158885
O O13 0.703583 0.857193 0.000000
O O14 0.719361 0.355528 0.500000
O O15 0.716261 0.500000 0.350520
#
# Coordination Sequence:
#
# PCOD8275012 Si02
#       5
#    16  16  16  16  16
#     4   9  17  29  45  65  91 123 154 183 220 266
#     4   8  14  25  42  65  92 120 148 180 222 270
#     4   9  17  28  43  65  90 115 149 192 230 265
#     4   9  16  26  43  67  92 118 150 187 224 262
#     4   8  13  23  41  64  90 119 147 175 214 267
#
# _framework density 18.908867999999998
#
# number of rings (size 3 to 8) (size 9 to 14) (size 15 to 20)
#    0.000    3.400    0.000    1.800    0.000    3.200 
#    0.000    5.000    0.000    7.800    0.000    2.800 
#    0.000    0.000    0.000    9.600    0.000   10.000 
#
# Total GULP energy -495792.955067 kJ/mol
# GULP energy per Si atom -12394.823877 kJ/mol
# Density = 1.886583 g / cm^3
# Si number density = 18.908868 Si / 1000 Ang^3
#
#
#
# Elastic Constant Matrix: (Units=GPa)
#
#
# Indices 1 2 3 4 5 6 
#
# 1 197.4280 70.4310 52.7453 0.0000 0.0000 0.0000
# 2 70.4310 75.8427 23.1281 0.0000 0.0000 0.0000
# 3 52.7453 23.1281 58.9744 0.0000 0.0000 0.0000
# 4 0.0000 0.0000 0.0000 6.8252 0.0000 0.0000
# 5 0.0000 0.0000 0.0000 0.0000 3.2647 0.0000
# 6 0.0000 0.0000 0.0000 0.0000 0.0000 19.7183
#
#
#
# Elastic Compliance Matrix: (Units=1/GPa)
#
#
# Indices 1 2 3 4 5 6 
#
# 1 0.008834 -0.006582 -0.005320 0.000000 0.000000 0.000000
# 2 -0.006582 0.019880 -0.001910 0.000000 0.000000 0.000000
# 3 -0.005320 -0.001910 0.022464 0.000000 0.000000 0.000000
# 4 0.000000 0.000000 0.000000 0.146515 0.000000 0.000000
# 5 0.000000 0.000000 0.000000 0.000000 0.306303 0.000000
# 6 0.000000 0.000000 0.000000 0.000000 0.000000 0.050714
#
#
# Mechanical properties :
#
#
# Convention : Reuss Voigt Hill
#
# Bulk Modulus (GPa) = 42.45462 69.42821 55.94142
# Shear Modulus (GPa) = 8.47192 18.35770 13.41481
#
# Velocity S-wave (km/s) = 2.11899 3.11923 2.66643
# Velocity P-wave (km/s) = 5.33740 7.05477 6.25530
#
# Compressibility (1/GPa) = 0.02355456
#
# Stress axis : x y z
#
# Youngs Moduli (GPa) = 113.19313 50.30275 44.51637
#
# Poissons Ratio (x) = 0.33108 0.23683
# Poissons Ratio (y) = 0.74500 0.08501
# Poissons Ratio (z) = 0.60220 0.09606
#
# Static dielectric constant tensor:
#      x y z
#    x 3.758330 0.000000 0.000000 
#    y 0.000000 3.336300 0.000000 
#    z 0.000000 0.000000 3.146650 
# 
# 
# High freq. dielectric constant tensor:
#      x y z
#    x 1.738130 0.000000 0.000000 
#    y 0.000000 1.719850 0.000000 
#    z 0.000000 0.000000 1.677300 
# 
# From -- ./inp_files/9618.got.cif
#   From: 2010.03.12/outbox.cif.g09.slc.cpg/sg65_5_cif.got.tgz:9618.got - 2010.04.10 20:52:16.
