data_PCOD8275379
_publ_section_title
;
Structure prediction by ZEFSAII (Michael W. Deem and Ramdas Pophale) SiO2 
 PCOD8275379
Probable space group: C C C M
;
_chemical_formula_sum "Si O2"
_cell_formula_units_Z 64
_cell_length_a 9.767737
_cell_length_b 10.848851
_cell_length_c 27.981946
_cell_angle_alpha 90.000000
_cell_angle_beta 90.000000
_cell_angle_gamma 90.000000
_cell_volume 2965.211094
_symmetry_space_group_name_H-M "C C C M"
_symmetry_group_IT_number 66
_symmetry_cell_setting 'orthorhombic'
loop_
_space_group_symop_operation_xyz
x,y,z
-x,-y,z
x,-y,1/2-z
-x,y,1/2-z
-x,-y,-z
x,y,-z
-x,y,1/2+z
x,-y,1/2+z
1/2+x,1/2+y,z
1/2-x,1/2-y,z
1/2+x,1/2-y,1/2-z
1/2-x,1/2+y,1/2-z
1/2-x,1/2-y,-z
1/2+x,1/2+y,-z
1/2-x,1/2+y,1/2+z
1/2+x,1/2-y,1/2+z
loop_
_atom_site_type_symbol
_atom_site_label
_atom_site_fract_x
_atom_site_fract_y
_atom_site_fract_z
Si Si1 0.155537 0.137015 0.766596
Si Si2 0.877672 0.902744 0.125322
Si Si3 0.227269 0.449250 0.552609
Si Si4 0.027786 0.756273 0.947582
O O1 0.250000 0.250000 0.745983
O O2 0.170348 0.142549 0.823435
O O3 0.000000 0.160770 0.750000
O O4 0.205209 0.000000 0.750000
O O5 0.923331 0.784210 0.094864
O O6 0.748959 0.956540 0.095929
O O7 0.000000 0.000000 0.131802
O O8 0.227813 0.513675 0.500000
O O9 0.082874 0.381586 0.560671
O O10 0.349138 0.352033 0.554080
O O11 0.957380 0.765741 0.000000
#
# Coordination Sequence:
#
# PCOD8275379 Si02
#       4
#    16  16  16  16
#     4  11  25  47  68  94 125 162 212 273 333 390
#     4  10  17  31  55  84 112 156 204 253 305 365
#     4   8  14  24  43  78 120 158 196 238 290 357
#     4   8  14  24  43  78 120 158 196 238 290 357
#
# _framework density 21.583621999999998
#
# number of rings (size 3 to 8) (size 9 to 14) (size 15 to 20)
#    0.000    2.750    2.500    2.250    0.000    5.500 
#    0.000    0.000    0.000    3.000    0.000    3.500 
#    0.000    0.000    0.000    0.000    0.000    0.000 
#
# Total GULP energy -396504.325285 kJ/mol
# GULP energy per Si atom -12390.760165 kJ/mol
# Density = 2.153450 g / cm^3
# Si number density = 21.583622 Si / 1000 Ang^3
#
#
#
# Elastic Constant Matrix: (Units=GPa)
#
#
# Indices 1 2 3 4 5 6 
#
# 1 39.5808 57.0562 36.2375 0.0000 0.0000 0.0000
# 2 57.0562 111.4292 44.9768 0.0000 0.0000 0.0000
# 3 36.2375 44.9768 161.5151 0.0000 0.0000 0.0000
# 4 0.0000 0.0000 0.0000 3.0886 0.0000 0.0000
# 5 0.0000 0.0000 0.0000 0.0000 5.0796 0.0000
# 6 0.0000 0.0000 0.0000 0.0000 0.0000 33.8449
#
#
#
# Elastic Compliance Matrix: (Units=1/GPa)
#
#
# Indices 1 2 3 4 5 6 
#
# 1 0.109302 -0.051902 -0.010070 0.000000 0.000000 0.000000
# 2 -0.051902 0.034757 0.001966 0.000000 0.000000 0.000000
# 3 -0.010070 0.001966 0.007903 0.000000 0.000000 0.000000
# 4 0.000000 0.000000 0.000000 0.323774 0.000000 0.000000
# 5 0.000000 0.000000 0.000000 0.000000 0.196867 0.000000
# 6 0.000000 0.000000 0.000000 0.000000 0.000000 0.029547
#
#
# Mechanical properties :
#
#
# Convention : Reuss Voigt Hill
#
# Bulk Modulus (GPa) = 31.29918 65.45177 48.37547
# Shear Modulus (GPa) = 6.00377 20.01960 13.01168
#
# Velocity S-wave (km/s) = 1.66963 3.04885 2.45796
# Velocity P-wave (km/s) = 4.27197 6.54099 5.52423
#
# Compressibility (1/GPa) = 0.03194972
#
# Stress axis : x y z
#
# Youngs Moduli (GPa) = 9.14899 28.77141 126.53242
#
# Poissons Ratio (x) = 1.49330 1.27415
# Poissons Ratio (y) = 0.47485 -0.24878
# Poissons Ratio (z) = 0.09213 -0.05657
#
# Static dielectric constant tensor:
#      x y z
#    x 3.761850 0.000000 0.000000 
#    y 0.000000 4.051450 0.000000 
#    z 0.000000 0.000000 3.989820 
# 
# 
# High freq. dielectric constant tensor:
#      x y z
#    x 1.824600 0.000000 0.000000 
#    y 0.000000 1.844840 0.000000 
#    z 0.000000 0.000000 1.843230 
# 
# From -- ./inp_files/56317.got.cif
#   From: 2010.03.12/outbox.cif.g09.slc.cpg/sg66_29_cif.got.tgz:56317.got - 2010.04.10 21:57:39.
