data_PCOD8275665
_publ_section_title
;
Structure prediction by ZEFSAII (Michael W. Deem and Ramdas Pophale) SiO2 
 PCOD8275665
Probable space group: C C C M
;
_chemical_formula_sum "Si O2"
_cell_formula_units_Z 112
_cell_length_a 17.603143
_cell_length_b 18.410479
_cell_length_c 17.167546
_cell_angle_alpha 90.000000
_cell_angle_beta 90.000000
_cell_angle_gamma 90.000000
_cell_volume 5563.697699
_symmetry_space_group_name_H-M "C C C M"
_symmetry_group_IT_number 66
_symmetry_cell_setting 'orthorhombic'
loop_
_space_group_symop_operation_xyz
x,y,z
-x,-y,z
x,-y,1/2-z
-x,y,1/2-z
-x,-y,-z
x,y,-z
-x,y,1/2+z
x,-y,1/2+z
1/2+x,1/2+y,z
1/2-x,1/2-y,z
1/2+x,1/2-y,1/2-z
1/2-x,1/2+y,1/2-z
1/2-x,1/2-y,-z
1/2+x,1/2+y,-z
1/2-x,1/2+y,1/2+z
1/2+x,1/2-y,1/2+z
loop_
_atom_site_type_symbol
_atom_site_label
_atom_site_fract_x
_atom_site_fract_y
_atom_site_fract_z
Si Si1 0.716916 0.321896 0.088803
Si Si2 0.935173 0.191675 0.160285
Si Si3 0.818794 0.705593 0.173140
Si Si4 0.236773 0.085950 0.089850
Si Si5 0.573394 0.856589 0.703690
Si Si6 0.326065 0.056172 0.407350
Si Si7 0.400933 0.343519 0.833904
O O1 0.750000 0.250000 0.131303
O O2 0.626282 0.327015 0.095070
O O3 0.758995 0.391462 0.122690
O O4 0.741040 0.318571 0.000000
O O5 0.948828 0.278653 0.165451
O O6 0.901021 0.160057 0.240324
O O7 0.012035 0.148461 0.137016
O O8 0.750000 0.750000 0.214759
O O9 0.785233 0.658527 0.102430
O O10 0.857613 0.653859 0.236364
O O11 0.875063 0.764463 0.134604
O O12 0.155729 0.092554 0.136384
O O13 0.292523 0.021571 0.118747
O O14 0.215491 0.074960 0.000000
O O15 0.500000 0.886916 0.750000
O O16 0.598146 0.917076 0.639077
O O17 0.344000 0.057894 0.500000
#
# Coordination Sequence:
#
# PCOD8275665 Si02
#       7
#    16  16  16  16  16  16  16
#     4  10  20  32  54  86 114 152 199 241 291 350
#     4  10  18  34  59  89 122 146 189 258 305 350
#     4   9  19  34  58  87 113 146 196 248 293 344
#     4  10  22  40  57  80 119 162 202 242 291 351
#     4  11  20  36  62  88 118 154 193 248 305 361
#     4  10  23  40  58  85 123 161 199 243 291 353
#     4   9  19  35  58  87 114 150 190 244 308 346
#
# _framework density 20.130496999999998
#
# number of rings (size 3 to 8) (size 9 to 14) (size 15 to 20)
#    0.000    2.143    4.286    0.000    6.000    3.714 
#    0.000    2.857    0.000    6.000    0.000    0.000 
#    0.000    0.000    0.000    0.000    0.000    0.000 
#
# Total GULP energy -693820.473126 kJ/mol
# GULP energy per Si atom -12389.651306 kJ/mol
# Density = 2.008468 g / cm^3
# Si number density = 20.130497 Si / 1000 Ang^3
#
#
#
# Elastic Constant Matrix: (Units=GPa)
#
#
# Indices 1 2 3 4 5 6 
#
# 1 136.4425 44.7276 43.8406 0.0000 0.0000 0.0000
# 2 44.7276 78.2779 39.1128 0.0000 0.0000 0.0000
# 3 43.8406 39.1128 51.4455 0.0000 0.0000 0.0000
# 4 0.0000 0.0000 0.0000 20.5148 0.0000 0.0000
# 5 0.0000 0.0000 0.0000 0.0000 35.7126 0.0000
# 6 0.0000 0.0000 0.0000 0.0000 0.0000 28.2414
#
#
#
# Elastic Compliance Matrix: (Units=1/GPa)
#
#
# Indices 1 2 3 4 5 6 
#
# 1 0.010373 -0.002435 -0.006988 0.000000 0.000000 0.000000
# 2 -0.002435 0.021173 -0.014022 0.000000 0.000000 0.000000
# 3 -0.006988 -0.014022 0.036053 0.000000 0.000000 0.000000
# 4 0.000000 0.000000 0.000000 0.048745 0.000000 0.000000
# 5 0.000000 0.000000 0.000000 0.000000 0.028001 0.000000
# 6 0.000000 0.000000 0.000000 0.000000 0.000000 0.035409
#
#
# Mechanical properties :
#
#
# Convention : Reuss Voigt Hill
#
# Bulk Modulus (GPa) = 48.28852 57.94754 53.11803
# Shear Modulus (GPa) = 21.40894 26.12611 23.76753
#
# Velocity S-wave (km/s) = 3.26468 3.60646 3.43982
# Velocity P-wave (km/s) = 6.18472 6.79636 6.49774
#
# Compressibility (1/GPa) = 0.02070886
#
# Stress axis : x y z
#
# Youngs Moduli (GPa) = 96.40688 47.23057 27.73665
#
# Poissons Ratio (x) = 0.11502 0.19382
# Poissons Ratio (y) = 0.23478 0.38892
# Poissons Ratio (z) = 0.67368 0.66226
#
# Static dielectric constant tensor:
#      x y z
#    x 3.818880 0.000000 0.000000 
#    y 0.000000 3.597610 0.000000 
#    z 0.000000 0.000000 3.364960 
# 
# 
# High freq. dielectric constant tensor:
#      x y z
#    x 1.793840 0.000000 0.000000 
#    y 0.000000 1.763310 0.000000 
#    z 0.000000 0.000000 1.761770 
# 
# From -- ./inp_files/41972.got.cif
#   From: 2010.03.12/outbox.cif.g09.slc.cpg/sg66_21_cif.got.tgz:41972.got - 2010.04.10 21:57:39.
