data_PCOD8275398
_publ_section_title
;
Structure prediction by ZEFSAII (Michael W. Deem and Ramdas Pophale) SiO2 
 PCOD8275398
Probable space group: C C C M
;
_chemical_formula_sum "Si O2"
_cell_formula_units_Z 88
_cell_length_a 19.379664
_cell_length_b 13.929026
_cell_length_c 18.957694
_cell_angle_alpha 90.000000
_cell_angle_beta 90.000000
_cell_angle_gamma 90.000000
_cell_volume 5117.436956
_symmetry_space_group_name_H-M "C C C M"
_symmetry_group_IT_number 66
_symmetry_cell_setting 'orthorhombic'
loop_
_space_group_symop_operation_xyz
x,y,z
-x,-y,z
x,-y,1/2-z
-x,y,1/2-z
-x,-y,-z
x,y,-z
-x,y,1/2+z
x,-y,1/2+z
1/2+x,1/2+y,z
1/2-x,1/2-y,z
1/2+x,1/2-y,1/2-z
1/2-x,1/2+y,1/2-z
1/2-x,1/2-y,-z
1/2+x,1/2+y,-z
1/2-x,1/2+y,1/2+z
1/2+x,1/2-y,1/2+z
loop_
_atom_site_type_symbol
_atom_site_label
_atom_site_fract_x
_atom_site_fract_y
_atom_site_fract_z
Si Si1 0.893665 0.786759 0.423406
Si Si2 0.077856 0.995452 0.580295
Si Si3 0.852436 0.097099 0.294644
Si Si4 0.710333 0.112960 0.244095
Si Si5 0.424473 0.228723 0.272775
Si Si6 0.750000 0.750000 0.377158
O O1 0.928268 0.761183 0.500000
O O2 0.892083 0.899517 0.410800
O O3 0.928243 0.730235 0.358325
O O4 0.814178 0.758870 0.428324
O O5 0.080297 0.957712 0.500000
O O6 0.122004 0.920580 0.626009
O O7 0.000000 0.000000 0.608621
O O8 0.773795 0.139465 0.297700
O O9 0.907314 0.166063 0.256367
O O10 0.850679 0.000000 0.250000
O O11 0.635774 0.160782 0.259083
O O12 0.739539 0.153536 0.169959
O O13 0.696792 0.000000 0.250000
O O14 0.500000 0.192461 0.250000
#
# Coordination Sequence:
#
# PCOD8275398 Si02
#       6
#    16  16  16  16  16   8
#     4  10  18  31  49  75 107 133 164 216 271 313
#     4  10  20  31  46  76 113 141 168 211 269 321
#     4  11  18  31  54  76 103 137 168 215 262 314
#     4  10  19  34  53  75 106 132 173 217 258 305
#     4  11  21  33  51  78 104 139 180 214 257 318
#     4  10  17  34  50  84  99 132 168 214 273 306
#
# _framework density 17.196109
#
# number of rings (size 3 to 8) (size 9 to 14) (size 15 to 20)
#    0.000    1.636    5.455    2.455    0.000    0.364 
#    0.000    0.000    0.000    3.273    0.000    5.091 
#    0.000    0.000    0.000    0.000    0.000    0.000 
#
# Total GULP energy -545108.658783 kJ/mol
# GULP energy per Si atom -12388.833154 kJ/mol
# Density = 1.715697 g / cm^3
# Si number density = 17.196109 Si / 1000 Ang^3
#
#
#
# Elastic Constant Matrix: (Units=GPa)
#
#
# Indices 1 2 3 4 5 6 
#
# 1 124.2768 16.1165 55.1902 0.0000 0.0000 0.0000
# 2 16.1165 58.0713 30.1653 0.0000 0.0000 0.0000
# 3 55.1902 30.1653 100.5267 0.0000 0.0000 0.0000
# 4 0.0000 0.0000 0.0000 27.0048 0.0000 0.0000
# 5 0.0000 0.0000 0.0000 0.0000 25.2504 0.0000
# 6 0.0000 0.0000 0.0000 0.0000 0.0000 16.5746
#
#
#
# Elastic Compliance Matrix: (Units=1/GPa)
#
#
# Indices 1 2 3 4 5 6 
#
# 1 0.010641 0.000097 -0.005871 0.000000 0.000000 0.000000
# 2 0.000097 0.020401 -0.006175 0.000000 0.000000 0.000000
# 3 -0.005871 -0.006175 0.015024 0.000000 0.000000 0.000000
# 4 0.000000 0.000000 0.000000 0.037030 0.000000 0.000000
# 5 0.000000 0.000000 0.000000 0.000000 0.039603 0.000000
# 6 0.000000 0.000000 0.000000 0.000000 0.000000 0.060333
#
#
# Mechanical properties :
#
#
# Convention : Reuss Voigt Hill
#
# Bulk Modulus (GPa) = 45.11156 53.97989 49.54572
# Shear Modulus (GPa) = 23.32950 25.85949 24.59449
#
# Velocity S-wave (km/s) = 3.68730 3.88209 3.78595
# Velocity P-wave (km/s) = 6.66474 7.18005 6.92719
#
# Compressibility (1/GPa) = 0.02216727
#
# Stress axis : x y z
#
# Youngs Moduli (GPa) = 93.97275 49.01743 66.56094
#
# Poissons Ratio (x) = -0.00473 0.39079
# Poissons Ratio (y) = -0.00907 0.41100
# Poissons Ratio (z) = 0.55173 0.30267
#
# Static dielectric constant tensor:
#      x y z
#    x 3.444680 0.000000 0.000000 
#    y 0.000000 3.102110 0.000000 
#    z 0.000000 0.000000 3.180080 
# 
# 
# High freq. dielectric constant tensor:
#      x y z
#    x 1.672680 0.000000 0.000000 
#    y 0.000000 1.641930 0.000000 
#    z 0.000000 0.000000 1.650600 
# 
# From -- ./inp_files/40488.got.cif
#   From: 2010.03.12/outbox.cif.g09.slc.cpg/sg66_21_cif.got.tgz:40488.got - 2010.04.10 21:57:39.
