data_PCOD8275968
_publ_section_title
;
Structure prediction by ZEFSAII (Michael W. Deem and Ramdas Pophale) SiO2 
 PCOD8275968
Probable space group: C C C M
;
_chemical_formula_sum "Si O2"
_cell_formula_units_Z 80
_cell_length_a 27.055863
_cell_length_b 18.619529
_cell_length_c 8.571345
_cell_angle_alpha 90.000000
_cell_angle_beta 90.000000
_cell_angle_gamma 90.000000
_cell_volume 4317.964406
_symmetry_space_group_name_H-M "C C C M"
_symmetry_group_IT_number 66
_symmetry_cell_setting 'orthorhombic'
loop_
_space_group_symop_operation_xyz
x,y,z
-x,-y,z
x,-y,1/2-z
-x,y,1/2-z
-x,-y,-z
x,y,-z
-x,y,1/2+z
x,-y,1/2+z
1/2+x,1/2+y,z
1/2-x,1/2-y,z
1/2+x,1/2-y,1/2-z
1/2-x,1/2+y,1/2-z
1/2-x,1/2-y,-z
1/2+x,1/2+y,-z
1/2-x,1/2+y,1/2+z
1/2+x,1/2-y,1/2+z
loop_
_atom_site_type_symbol
_atom_site_label
_atom_site_fract_x
_atom_site_fract_y
_atom_site_fract_z
Si Si1 0.052807 0.351603 0.684823
Si Si2 0.798980 0.715753 0.181154
Si Si3 0.147641 0.576216 0.685849
Si Si4 0.099115 0.787983 0.681837
Si Si5 0.053465 0.075683 0.683955
O O1 0.052744 0.354670 0.500000
O O2 0.093184 0.406974 0.750102
O O3 0.063753 0.270836 0.740549
O O4 0.000000 0.376438 0.750000
O O5 0.750000 0.750000 0.262286
O O6 0.813878 0.637076 0.247812
O O7 0.843811 0.769934 0.210657
O O8 0.788005 0.705352 0.000000
O O9 0.166277 0.500000 0.750000
O O10 0.145004 0.576355 0.500000
O O11 0.085822 0.791442 0.500000
O O12 0.091866 0.864255 0.763014
O O13 0.050243 0.070787 0.500000
O O14 0.000000 0.095903 0.750000
O O15 0.072453 0.000000 0.750000
#
# Coordination Sequence:
#
# PCOD8275968 Si02
#       5
#    16  16  16  16  16
#     4  11  21  34  52  76 106 139 177 214 253 302
#     4   8  16  33  57  80 102 133 172 213 258 308
#     4  10  20  35  55  79 107 138 173 212 259 309
#     4  10  19  33  53  77 105 136 173 215 260 309
#     4  11  21  34  51  73 103 138 176 215 261 311
#
# _framework density 18.527249000000001
#
# number of rings (size 3 to 8) (size 9 to 14) (size 15 to 20)
#    0.000    2.000    0.000    7.200    0.000    0.400 
#    0.000    3.000    0.000   24.000    0.000    0.000 
#    0.000    0.000    0.000    0.000    0.000    0.000 
#
# Total GULP energy -496028.672626 kJ/mol
# GULP energy per Si atom -12400.716816 kJ/mol
# Density = 1.848508 g / cm^3
# Si number density = 18.527249 Si / 1000 Ang^3
#
#
#
# Elastic Constant Matrix: (Units=GPa)
#
#
# Indices 1 2 3 4 5 6 
#
# 1 105.4404 57.6273 35.5944 0.0000 0.0000 0.0000
# 2 57.6273 143.2968 46.0863 0.0000 0.0000 0.0000
# 3 35.5944 46.0863 127.1969 0.0000 0.0000 0.0000
# 4 0.0000 0.0000 0.0000 34.2773 0.0000 0.0000
# 5 0.0000 0.0000 0.0000 0.0000 16.4590 0.0000
# 6 0.0000 0.0000 0.0000 0.0000 0.0000 20.2307
#
#
#
# Elastic Compliance Matrix: (Units=1/GPa)
#
#
# Indices 1 2 3 4 5 6 
#
# 1 0.012551 -0.004435 -0.001905 0.000000 0.000000 0.000000
# 2 -0.004435 0.009466 -0.002189 0.000000 0.000000 0.000000
# 3 -0.001905 -0.002189 0.009188 0.000000 0.000000 0.000000
# 4 0.000000 0.000000 0.000000 0.029174 0.000000 0.000000
# 5 0.000000 0.000000 0.000000 0.000000 0.060757 0.000000
# 6 0.000000 0.000000 0.000000 0.000000 0.000000 0.049430
#
#
# Mechanical properties :
#
#
# Convention : Reuss Voigt Hill
#
# Bulk Modulus (GPa) = 70.68487 72.72780 71.70633
# Shear Modulus (GPa) = 25.99580 29.96848 27.98214
#
# Velocity S-wave (km/s) = 3.74988 4.02622 3.89050
# Velocity P-wave (km/s) = 7.54874 7.80728 7.67910
#
# Compressibility (1/GPa) = 0.01414730
#
# Stress axis : x y z
#
# Youngs Moduli (GPa) = 79.67522 105.64312 108.83678
#
# Poissons Ratio (x) = 0.46848 0.20739
# Poissons Ratio (y) = 0.35333 0.23821
# Poissons Ratio (z) = 0.15182 0.23122
#
# Static dielectric constant tensor:
#      x y z
#    x 3.422660 0.000000 0.000000 
#    y 0.000000 3.520520 0.000000 
#    z 0.000000 0.000000 3.374810 
# 
# 
# High freq. dielectric constant tensor:
#      x y z
#    x 1.703570 0.000000 0.000000 
#    y 0.000000 1.725420 0.000000 
#    z 0.000000 0.000000 1.718830 
# 
# From -- ./inp_files/6692.got.cif
#   From: 2010.03.12/outbox.cif.g09.slc.cpg/sg66_4_cif.got.tgz:6692.got - 2010.04.10 21:57:39.
