data_PCOD8275420
_publ_section_title
;
Structure prediction by ZEFSAII (Michael W. Deem and Ramdas Pophale) SiO2 
 PCOD8275420
Probable space group: C C C M
;
_chemical_formula_sum "Si O2"
_cell_formula_units_Z 56
_cell_length_a 10.861077
_cell_length_b 16.996678
_cell_length_c 13.179991
_cell_angle_alpha 90.000000
_cell_angle_beta 90.000000
_cell_angle_gamma 90.000000
_cell_volume 2433.055710
_symmetry_space_group_name_H-M "C C C M"
_symmetry_group_IT_number 66
_symmetry_cell_setting 'orthorhombic'
loop_
_space_group_symop_operation_xyz
x,y,z
-x,-y,z
x,-y,1/2-z
-x,y,1/2-z
-x,-y,-z
x,y,-z
-x,y,1/2+z
x,-y,1/2+z
1/2+x,1/2+y,z
1/2-x,1/2-y,z
1/2+x,1/2-y,1/2-z
1/2-x,1/2+y,1/2-z
1/2-x,1/2-y,-z
1/2+x,1/2+y,-z
1/2-x,1/2+y,1/2+z
1/2+x,1/2-y,1/2+z
loop_
_atom_site_type_symbol
_atom_site_label
_atom_site_fract_x
_atom_site_fract_y
_atom_site_fract_z
Si Si1 0.152237 0.863544 0.380964
Si Si2 0.191430 0.000000 0.250000
Si Si3 0.580124 0.804095 0.119313
Si Si4 0.401060 0.066457 0.380941
O O1 0.126598 0.878133 0.500000
O O2 0.297866 0.854822 0.357978
O O3 0.084564 0.785144 0.338474
O O4 0.107772 0.939577 0.316149
O O5 0.272876 0.051924 0.326583
O O6 0.458884 0.850334 0.158660
O O7 0.572855 0.795038 0.000000
O O8 0.374540 0.068687 0.500000
O O9 0.500000 0.000000 0.353725
#
# Coordination Sequence:
#
# PCOD8275420 Si02
#       4
#    16   8  16  16
#     4   9  17  28  41  62  94 132 163 190 234 292
#     4  12  19  24  44  76 100 121 156 209 248 264
#     4   8  15  28  41  55  91 135 162 188 233 294
#     4  10  18  27  40  66 100 129 158 194 238 284
#
# _framework density 23.016325999999999
#
# number of rings (size 3 to 8) (size 9 to 14) (size 15 to 20)
#    0.000    2.571    2.857    3.000    0.000    0.000 
#    0.000    0.000    0.000    0.000    0.000   24.000 
#    0.000   20.571    0.000  185.143    0.000    0.000 
#
# Total GULP energy -347045.534226 kJ/mol
# GULP energy per Si atom -12394.483365 kJ/mol
# Density = 2.296394 g / cm^3
# Si number density = 23.016326 Si / 1000 Ang^3
#
#
#
# Elastic Constant Matrix: (Units=GPa)
#
#
# Indices 1 2 3 4 5 6 
#
# 1 15.6102 20.7796 1.7872 0.0000 0.0000 0.0000
# 2 20.7796 177.7294 48.2493 0.0000 0.0000 0.0000
# 3 1.7872 48.2493 71.1069 0.0000 0.0000 0.0000
# 4 0.0000 0.0000 0.0000 38.0123 0.0000 0.0000
# 5 0.0000 0.0000 0.0000 0.0000 5.9635 0.0000
# 6 0.0000 0.0000 0.0000 0.0000 0.0000 16.9166
#
#
#
# Elastic Compliance Matrix: (Units=1/GPa)
#
#
# Indices 1 2 3 4 5 6 
#
# 1 0.077372 -0.010442 0.005140 0.000000 0.000000 0.000000
# 2 -0.010442 0.008306 -0.005374 0.000000 0.000000 0.000000
# 3 0.005140 -0.005374 0.017580 0.000000 0.000000 0.000000
# 4 0.000000 0.000000 0.000000 0.026307 0.000000 0.000000
# 5 0.000000 0.000000 0.000000 0.000000 0.167687 0.000000
# 6 0.000000 0.000000 0.000000 0.000000 0.000000 0.059113
#
#
# Mechanical properties :
#
#
# Convention : Reuss Voigt Hill
#
# Bulk Modulus (GPa) = 12.20872 45.11984 28.66428
# Shear Modulus (GPa) = 12.34512 25.08718 18.71615
#
# Velocity S-wave (km/s) = 2.31846 3.30506 2.85470
# Velocity P-wave (km/s) = 3.53312 5.84897 4.83184
#
# Compressibility (1/GPa) = 0.08190867
#
# Stress axis : x y z
#
# Youngs Moduli (GPa) = 12.92463 120.39260 56.88146
#
# Poissons Ratio (x) = 1.25709 -0.29240
# Poissons Ratio (y) = 0.13495 0.30566
# Poissons Ratio (z) = -0.06644 0.64695
#
# Static dielectric constant tensor:
#      x y z
#    x 4.998760 0.000000 0.000000 
#    y 0.000000 4.651470 0.000000 
#    z 0.000000 0.000000 4.145050 
# 
# 
# High freq. dielectric constant tensor:
#      x y z
#    x 1.847260 0.000000 0.000000 
#    y 0.000000 1.916960 0.000000 
#    z 0.000000 0.000000 1.921590 
# 
# From -- ./inp_files/25386.got.cif
#   From: 2010.03.12/outbox.cif.g09.slc.cpg/sg66_13_cif.got.tgz:25386.got - 2010.04.10 21:57:39.
