data_PCOD8275191
_publ_section_title
;
Structure prediction by ZEFSAII (Michael W. Deem and Ramdas Pophale) SiO2 
 PCOD8275191
Probable space group: C M M M
;
_chemical_formula_sum "Si O2"
_cell_formula_units_Z 88
_cell_length_a 15.995791
_cell_length_b 9.986361
_cell_length_c 29.949454
_cell_angle_alpha 90.000000
_cell_angle_beta 90.000000
_cell_angle_gamma 90.000000
_cell_volume 4784.118097
_symmetry_space_group_name_H-M "C M M M"
_symmetry_group_IT_number 65
_symmetry_cell_setting 'orthorhombic'
loop_
_space_group_symop_operation_xyz
x,y,z
-x,-y,z
x,-y,-z
-x,y,-z
-x,-y,-z
x,y,-z
-x,y,z
x,-y,z
1/2+x,1/2+y,z
1/2-x,1/2-y,z
1/2+x,1/2-y,-z
1/2-x,1/2+y,-z
1/2-x,1/2-y,-z
1/2+x,1/2+y,-z
1/2-x,1/2+y,z
1/2+x,1/2-y,z
loop_
_atom_site_type_symbol
_atom_site_label
_atom_site_fract_x
_atom_site_fract_y
_atom_site_fract_z
Si Si1 0.331160 0.157735 0.400227
Si Si2 0.500000 0.158534 0.449379
Si Si3 0.402832 0.646420 0.859779
Si Si4 0.823189 0.651702 0.701141
Si Si5 0.096798 0.354313 0.209202
Si Si6 0.172569 0.153505 0.951012
O O1 0.250000 0.250000 0.412699
O O2 0.413422 0.209167 0.426775
O O3 0.356661 0.180029 0.348623
O O4 0.311023 0.000000 0.410208
O O5 0.500000 0.211282 0.500000
O O6 0.500000 0.000000 0.446557
O O7 0.500000 0.639433 0.849723
O O8 0.362457 0.500000 0.851667
O O9 0.359829 0.748337 0.824495
O O10 0.391141 0.690644 0.911331
O O11 0.789691 0.500000 0.703676
O O12 0.750000 0.750000 0.714234
O O13 0.893694 0.680899 0.738269
O O14 0.137330 0.500000 0.199601
O O15 0.000000 0.359439 0.198110
O O16 0.250000 0.250000 0.945140
O O17 0.203026 0.000000 0.946928
O O18 0.130434 0.176241 0.000000
#
# Coordination Sequence:
#
# PCOD8275191 Si02
#       6
#    16   8  16  16  16  16
#     4   9  18  33  53  76 105 138 174 218 262 308
#     4   9  18  32  53  81 107 137 179 219 260 313
#     4   9  18  32  48  67  92 120 151 187 230 278
#     4   9  18  31  48  70  95 125 161 199 240 286
#     4   9  18  31  47  67  91 120 155 192 230 275
#     4   9  18  32  49  68  89 115 148 186 227 273
#
# _framework density 18.394195
#
# number of rings (size 3 to 8) (size 9 to 14) (size 15 to 20)
#    0.000    3.000    0.000    0.000    1.273    2.909 
#    0.000    5.909    0.000    0.545    0.000    5.091 
#    0.000    0.000    0.000    0.000    0.000    0.000 
#
# Total GULP energy -545078.013221 kJ/mol
# GULP energy per Si atom -12388.136664 kJ/mol
# Density = 1.835233 g / cm^3
# Si number density = 18.394195 Si / 1000 Ang^3
#
#
#
# Elastic Constant Matrix: (Units=GPa)
#
#
# Indices 1 2 3 4 5 6 
#
# 1 61.1073 38.4819 47.7516 0.0000 0.0000 0.0000
# 2 38.4819 73.0992 62.0590 0.0000 0.0000 0.0000
# 3 47.7516 62.0590 141.5879 0.0000 0.0000 0.0000
# 4 0.0000 0.0000 0.0000 15.9053 0.0000 0.0000
# 5 0.0000 0.0000 0.0000 0.0000 27.7742 0.0000
# 6 0.0000 0.0000 0.0000 0.0000 0.0000 21.5854
#
#
#
# Elastic Compliance Matrix: (Units=1/GPa)
#
#
# Indices 1 2 3 4 5 6 
#
# 1 0.026116 -0.009987 -0.004430 0.000000 0.000000 0.000000
# 2 -0.009987 0.025607 -0.007855 0.000000 0.000000 0.000000
# 3 -0.004430 -0.007855 0.012000 0.000000 0.000000 0.000000
# 4 0.000000 0.000000 0.000000 0.062872 0.000000 0.000000
# 5 0.000000 0.000000 0.000000 0.000000 0.036005 0.000000
# 6 0.000000 0.000000 0.000000 0.000000 0.000000 0.046328
#
#
# Mechanical properties :
#
#
# Convention : Reuss Voigt Hill
#
# Bulk Modulus (GPa) = 52.14602 63.59770 57.87186
# Shear Modulus (GPa) = 19.24076 21.55310 20.39693
#
# Velocity S-wave (km/s) = 3.23774 3.42677 3.33360
# Velocity P-wave (km/s) = 6.51060 7.09274 6.80790
#
# Compressibility (1/GPa) = 0.01917692
#
# Stress axis : x y z
#
# Youngs Moduli (GPa) = 38.29058 39.05256 83.33352
#
# Poissons Ratio (x) = 0.39002 0.36920
# Poissons Ratio (y) = 0.38241 0.65461
# Poissons Ratio (z) = 0.16964 0.30677
#
# Static dielectric constant tensor:
#      x y z
#    x 3.086930 0.000000 0.000000 
#    y 0.000000 3.701650 0.000000 
#    z 0.000000 0.000000 3.644640 
# 
# 
# High freq. dielectric constant tensor:
#      x y z
#    x 1.681520 0.000000 0.000000 
#    y 0.000000 1.707620 0.000000 
#    z 0.000000 0.000000 1.725730 
# 
# From -- ./inp_files/74740.got.cif
#   From: 2010.03.12/outbox.cif.g09.slc.cpg/sg65_38_cif.got.tgz:74740.got - 2010.04.10 20:52:16.
