data_PCOD8275329
_publ_section_title
;
Structure prediction by ZEFSAII (Michael W. Deem and Ramdas Pophale) SiO2 
 PCOD8275329
Probable space group: C C C M
;
_chemical_formula_sum "Si O2"
_cell_formula_units_Z 112
_cell_length_a 20.687603
_cell_length_b 20.040947
_cell_length_c 17.321396
_cell_angle_alpha 90.000000
_cell_angle_beta 90.000000
_cell_angle_gamma 90.000000
_cell_volume 7181.436150
_symmetry_space_group_name_H-M "C C C M"
_symmetry_group_IT_number 66
_symmetry_cell_setting 'orthorhombic'
loop_
_space_group_symop_operation_xyz
x,y,z
-x,-y,z
x,-y,1/2-z
-x,y,1/2-z
-x,-y,-z
x,y,-z
-x,y,1/2+z
x,-y,1/2+z
1/2+x,1/2+y,z
1/2-x,1/2-y,z
1/2+x,1/2-y,1/2-z
1/2-x,1/2+y,1/2-z
1/2-x,1/2-y,-z
1/2+x,1/2+y,-z
1/2-x,1/2+y,1/2+z
1/2+x,1/2-y,1/2+z
loop_
_atom_site_type_symbol
_atom_site_label
_atom_site_fract_x
_atom_site_fract_y
_atom_site_fract_z
Si Si1 0.712337 0.149509 0.914457
Si Si2 0.342268 0.280068 0.636482
Si Si3 0.637755 0.522007 0.411683
Si Si4 0.396853 0.629214 0.409664
Si Si5 0.041529 0.134802 0.587951
Si Si6 0.744706 0.566766 0.291266
Si Si7 0.201013 0.805509 0.300041
O O1 0.660308 0.208296 0.904504
O O2 0.786259 0.174528 0.901473
O O3 0.699432 0.092171 0.850423
O O4 0.705662 0.119557 0.000000
O O5 0.412543 0.311972 0.629312
O O6 0.330311 0.269060 0.726721
O O7 0.665123 0.531127 0.500000
O O8 0.627270 0.445090 0.392573
O O9 0.569422 0.559979 0.404582
O O10 0.682790 0.551973 0.345072
O O11 0.393624 0.645377 0.500000
O O12 0.469649 0.636526 0.376550
O O13 0.351736 0.681548 0.365748
O O14 0.037741 0.157234 0.500000
O O15 0.769502 0.500000 0.250000
O O16 0.731456 0.623678 0.227112
O O17 0.250000 0.750000 0.334643
#
# Coordination Sequence:
#
# PCOD8275329 Si02
#       7
#    16  16  16  16  16  16  16
#     4  10  17  28  47  70  93 122 157 197 248 295
#     4  10  17  28  47  71  92 120 154 203 254 291
#     4  10  18  30  47  67  96 131 165 197 231 276
#     4  10  22  34  46  65  94 137 175 199 226 276
#     4  10  18  30  47  70 100 129 163 200 236 283
#     4  11  19  30  46  69  95 127 160 199 244 283
#     4  11  20  35  49  64  93 127 166 208 247 281
#
# _framework density 15.595765999999999
#
# number of rings (size 3 to 8) (size 9 to 14) (size 15 to 20)
#    0.000    1.714    7.143    2.571    0.000    2.571 
#    0.000    0.000    0.000    0.000    0.000    0.000 
#    0.000    2.286    0.000    4.571    0.000    0.000 
#
# Total GULP energy -694017.330884 kJ/mol
# GULP energy per Si atom -12393.166623 kJ/mol
# Density = 1.556027 g / cm^3
# Si number density = 15.595766 Si / 1000 Ang^3
#
#
#
# Elastic Constant Matrix: (Units=GPa)
#
#
# Indices 1 2 3 4 5 6 
#
# 1 48.6474 36.6875 18.5286 0.0000 0.0000 0.0000
# 2 36.6875 84.2996 33.9689 0.0000 0.0000 0.0000
# 3 18.5286 33.9689 55.5898 0.0000 0.0000 0.0000
# 4 0.0000 0.0000 0.0000 28.3824 0.0000 0.0000
# 5 0.0000 0.0000 0.0000 0.0000 19.3098 0.0000
# 6 0.0000 0.0000 0.0000 0.0000 0.0000 19.3194
#
#
#
# Elastic Compliance Matrix: (Units=1/GPa)
#
#
# Indices 1 2 3 4 5 6 
#
# 1 0.030916 -0.012341 -0.002763 0.000000 0.000000 0.000000
# 2 -0.012341 0.020664 -0.008514 0.000000 0.000000 0.000000
# 3 -0.002763 -0.008514 0.024112 0.000000 0.000000 0.000000
# 4 0.000000 0.000000 0.000000 0.035233 0.000000 0.000000
# 5 0.000000 0.000000 0.000000 0.000000 0.051787 0.000000
# 6 0.000000 0.000000 0.000000 0.000000 0.000000 0.051761
#
#
# Mechanical properties :
#
#
# Convention : Reuss Voigt Hill
#
# Bulk Modulus (GPa) = 35.14206 40.76741 37.95473
# Shear Modulus (GPa) = 18.43695 20.02578 19.23137
#
# Velocity S-wave (km/s) = 3.44201 3.58726 3.51538
# Velocity P-wave (km/s) = 6.19504 6.58443 6.39270
#
# Compressibility (1/GPa) = 0.02845593
#
# Stress axis : x y z
#
# Youngs Moduli (GPa) = 32.34618 48.39359 41.47270
#
# Poissons Ratio (x) = 0.59723 0.11460
# Poissons Ratio (y) = 0.39919 0.35308
# Poissons Ratio (z) = 0.08938 0.41200
#
# Static dielectric constant tensor:
#      x y z
#    x 2.780520 0.000000 0.000000 
#    y 0.000000 3.145120 0.000000 
#    z 0.000000 0.000000 3.069660 
# 
# 
# High freq. dielectric constant tensor:
#      x y z
#    x 1.551920 0.000000 0.000000 
#    y 0.000000 1.590310 0.000000 
#    z 0.000000 0.000000 1.604690 
# 
# From -- ./inp_files/42002.got.cif
#   From: 2010.03.12/outbox.cif.g09.slc.cpg/sg66_22_cif.got.tgz:42002.got - 2010.04.10 21:57:39.
