data_PCOD8275423
_publ_section_title
;
Structure prediction by ZEFSAII (Michael W. Deem and Ramdas Pophale) SiO2 
 PCOD8275423
Probable space group: C C C M
;
_chemical_formula_sum "Si O2"
_cell_formula_units_Z 68
_cell_length_a 21.019076
_cell_length_b 14.673601
_cell_length_c 13.714475
_cell_angle_alpha 90.000000
_cell_angle_beta 90.000000
_cell_angle_gamma 90.000000
_cell_volume 4229.894284
_symmetry_space_group_name_H-M "C C C M"
_symmetry_group_IT_number 66
_symmetry_cell_setting 'orthorhombic'
loop_
_space_group_symop_operation_xyz
x,y,z
-x,-y,z
x,-y,1/2-z
-x,y,1/2-z
-x,-y,-z
x,y,-z
-x,y,1/2+z
x,-y,1/2+z
1/2+x,1/2+y,z
1/2-x,1/2-y,z
1/2+x,1/2-y,1/2-z
1/2-x,1/2+y,1/2-z
1/2-x,1/2-y,-z
1/2+x,1/2+y,-z
1/2-x,1/2+y,1/2+z
1/2+x,1/2-y,1/2+z
loop_
_atom_site_type_symbol
_atom_site_label
_atom_site_fract_x
_atom_site_fract_y
_atom_site_fract_z
Si Si1 0.403825 0.897189 0.273741
Si Si2 0.484278 0.824549 0.111344
Si Si3 0.061550 0.857040 0.388932
Si Si4 0.500000 0.500000 0.250000
Si Si5 0.177365 0.268342 0.112563
O O1 0.421539 0.840131 0.176192
O O2 0.461639 0.894304 0.351288
O O3 0.341389 0.853632 0.320881
O O4 0.386642 0.000000 0.250000
O O5 0.508951 0.721718 0.125428
O O6 0.467728 0.846397 0.000000
O O7 0.059833 0.893109 0.500000
O O8 0.046267 0.939716 0.317080
O O9 0.131795 0.817913 0.364017
O O10 0.250000 0.250000 0.138359
O O11 0.168199 0.295939 0.000000
#
# Coordination Sequence:
#
# PCOD8275423 Si02
#       5
#    16  16  16   4  16
#     4  10  18  27  45  76  98 116 155 197 233 278
#     4   9  17  30  47  68 101 130 149 181 236 293
#     4   9  18  30  46  70  92 122 159 188 231 287
#     4  12  18  28  48  74 102 116 142 206 256 274
#     4   9  18  35  53  64  88 129 167 197 230 279
#
# _framework density 16.076053000000002
#
# number of rings (size 3 to 8) (size 9 to 14) (size 15 to 20)
#    0.000    2.588    0.000    6.706    0.000    2.824 
#    2.118    0.000    0.000    0.706    0.000    0.000 
#    0.000    0.000    0.000    0.000    0.000    0.000 
#
# Total GULP energy -421555.838056 kJ/mol
# GULP energy per Si atom -12398.701119 kJ/mol
# Density = 1.603946 g / cm^3
# Si number density = 16.076053 Si / 1000 Ang^3
#
#
#
# Elastic Constant Matrix: (Units=GPa)
#
#
# Indices 1 2 3 4 5 6 
#
# 1 101.1259 57.9997 60.0980 0.0000 0.0000 0.0000
# 2 57.9997 108.1392 65.0642 0.0000 0.0000 0.0000
# 3 60.0980 65.0642 117.0520 0.0000 0.0000 0.0000
# 4 0.0000 0.0000 0.0000 20.3017 0.0000 0.0000
# 5 0.0000 0.0000 0.0000 0.0000 22.9244 0.0000
# 6 0.0000 0.0000 0.0000 0.0000 0.0000 13.6536
#
#
#
# Elastic Compliance Matrix: (Units=1/GPa)
#
#
# Indices 1 2 3 4 5 6 
#
# 1 0.016164 -0.005523 -0.005229 0.000000 0.000000 0.000000
# 2 -0.005523 0.015782 -0.005936 0.000000 0.000000 0.000000
# 3 -0.005229 -0.005936 0.014528 0.000000 0.000000 0.000000
# 4 0.000000 0.000000 0.000000 0.049257 0.000000 0.000000
# 5 0.000000 0.000000 0.000000 0.000000 0.043622 0.000000
# 6 0.000000 0.000000 0.000000 0.000000 0.000000 0.073241
#
#
# Mechanical properties :
#
#
# Convention : Reuss Voigt Hill
#
# Bulk Modulus (GPa) = 76.35995 76.96011 76.66003
# Shear Modulus (GPa) = 19.97322 20.91963 20.44643
#
# Velocity S-wave (km/s) = 3.52862 3.61126 3.57018
# Velocity P-wave (km/s) = 8.01273 8.08484 8.04887
#
# Compressibility (1/GPa) = 0.01309587
#
# Stress axis : x y z
#
# Youngs Moduli (GPa) = 61.86589 63.36524 68.83432
#
# Poissons Ratio (x) = 0.34999 0.35992
# Poissons Ratio (y) = 0.34171 0.40863
# Poissons Ratio (z) = 0.32349 0.37616
#
# Static dielectric constant tensor:
#      x y z
#    x 2.862580 0.000000 0.000000 
#    y 0.000000 2.919550 0.000000 
#    z 0.000000 0.000000 3.244830 
# 
# 
# High freq. dielectric constant tensor:
#      x y z
#    x 1.587770 0.000000 0.000000 
#    y 0.000000 1.607160 0.000000 
#    z 0.000000 0.000000 1.630830 
# 
# From -- ./inp_files/26065.got.cif
#   From: 2010.03.12/outbox.cif.g09.slc.cpg/sg66_14_cif.got.tgz:26065.got - 2010.04.10 21:57:39.
