data_PCOD8275354
_publ_section_title
;
Structure prediction by ZEFSAII (Michael W. Deem and Ramdas Pophale) SiO2 
 PCOD8275354
Probable space group: C C C M
;
_chemical_formula_sum "Si O2"
_cell_formula_units_Z 96
_cell_length_a 19.586877
_cell_length_b 30.117621
_cell_length_c 8.628349
_cell_angle_alpha 90.000000
_cell_angle_beta 90.000000
_cell_angle_gamma 90.000000
_cell_volume 5089.950550
_symmetry_space_group_name_H-M "C C C M"
_symmetry_group_IT_number 66
_symmetry_cell_setting 'orthorhombic'
loop_
_space_group_symop_operation_xyz
x,y,z
-x,-y,z
x,-y,1/2-z
-x,y,1/2-z
-x,-y,-z
x,y,-z
-x,y,1/2+z
x,-y,1/2+z
1/2+x,1/2+y,z
1/2-x,1/2-y,z
1/2+x,1/2-y,1/2-z
1/2-x,1/2+y,1/2-z
1/2-x,1/2-y,-z
1/2+x,1/2+y,-z
1/2-x,1/2+y,1/2+z
1/2+x,1/2-y,1/2+z
loop_
_atom_site_type_symbol
_atom_site_label
_atom_site_fract_x
_atom_site_fract_y
_atom_site_fract_z
Si Si1 0.294346 0.876966 0.817177
Si Si2 0.706574 0.451276 0.317189
Si Si3 0.571868 0.161449 0.683554
Si Si4 0.428885 0.263434 0.818239
Si Si5 0.207838 0.792089 0.817064
Si Si6 0.568114 0.549472 0.683782
O O1 0.270283 0.920990 0.729147
O O2 0.371338 0.868233 0.765499
O O3 0.246856 0.836178 0.763978
O O4 0.290955 0.884552 0.000000
O O5 0.719674 0.500000 0.250000
O O6 0.698292 0.454694 0.500000
O O7 0.638110 0.428380 0.244656
O O8 0.500000 0.144478 0.750000
O O9 0.574516 0.155215 0.500000
O O10 0.583365 0.212555 0.733222
O O11 0.500000 0.281457 0.750000
O O12 0.367547 0.293384 0.754629
O O13 0.432704 0.268197 0.000000
O O14 0.250000 0.750000 0.751771
O O15 0.200676 0.788771 0.000000
O O16 0.568858 0.500000 0.750000
O O17 0.500000 0.573952 0.750000
O O18 0.566222 0.549661 0.500000
#
# Coordination Sequence:
#
# PCOD8275354 Si02
#       6
#    16  16  16  16  16  16
#     4  11  22  37  58  84 114 148 187 231 281 336
#     4  11  22  38  58  82 112 146 188 235 285 337
#     4  10  20  34  54  82 112 146 186 231 276 328
#     4  10  20  33  53  78 111 150 191 232 276 329
#     4  10  20  35  55  80 112 148 183 225 275 328
#     4  10  17  29  50  77 106 138 178 223 273 324
#
# _framework density 18.860693000000001
#
# number of rings (size 3 to 8) (size 9 to 14) (size 15 to 20)
#    0.000    1.667    1.667    6.000    0.000    3.000 
#    0.000    0.833    0.000    4.500    0.000    3.500 
#    0.000    0.000    0.000    0.000    0.000    0.000 
#
# Total GULP energy -595325.648800 kJ/mol
# GULP energy per Si atom -12402.617683 kJ/mol
# Density = 1.881777 g / cm^3
# Si number density = 18.860693 Si / 1000 Ang^3
#
#
#
# Elastic Constant Matrix: (Units=GPa)
#
#
# Indices 1 2 3 4 5 6 
#
# 1 156.4835 49.7247 45.3079 0.0000 0.0000 0.0000
# 2 49.7247 67.1107 34.9642 0.0000 0.0000 0.0000
# 3 45.3079 34.9642 110.0035 0.0000 0.0000 0.0000
# 4 0.0000 0.0000 0.0000 17.8748 0.0000 0.0000
# 5 0.0000 0.0000 0.0000 0.0000 39.5765 0.0000
# 6 0.0000 0.0000 0.0000 0.0000 0.0000 18.1482
#
#
#
# Elastic Compliance Matrix: (Units=1/GPa)
#
#
# Indices 1 2 3 4 5 6 
#
# 1 0.008655 -0.005460 -0.001829 0.000000 0.000000 0.000000
# 2 -0.005460 0.021302 -0.004522 0.000000 0.000000 0.000000
# 3 -0.001829 -0.004522 0.011281 0.000000 0.000000 0.000000
# 4 0.000000 0.000000 0.000000 0.055945 0.000000 0.000000
# 5 0.000000 0.000000 0.000000 0.000000 0.025268 0.000000
# 6 0.000000 0.000000 0.000000 0.000000 0.000000 0.055102
#
#
# Mechanical properties :
#
#
# Convention : Reuss Voigt Hill
#
# Bulk Modulus (GPa) = 56.76632 65.95460 61.36046
# Shear Modulus (GPa) = 24.14910 28.69329 26.42120
#
# Velocity S-wave (km/s) = 3.58214 3.90465 3.74687
# Velocity P-wave (km/s) = 6.87546 7.44135 7.16400
#
# Compressibility (1/GPa) = 0.01761608
#
# Stress axis : x y z
#
# Youngs Moduli (GPa) = 115.53969 46.94402 88.64103
#
# Poissons Ratio (x) = 0.25630 0.16217
# Poissons Ratio (y) = 0.63081 0.40084
# Poissons Ratio (z) = 0.21138 0.21228
#
# Static dielectric constant tensor:
#      x y z
#    x 3.977750 0.000000 0.000000 
#    y 0.000000 3.148140 0.000000 
#    z 0.000000 0.000000 3.451260 
# 
# 
# High freq. dielectric constant tensor:
#      x y z
#    x 1.746860 0.000000 0.000000 
#    y 0.000000 1.691430 0.000000 
#    z 0.000000 0.000000 1.746180 
# 
# From -- ./inp_files/8028.got.cif
#   From: 2010.03.12/outbox.cif.g09.slc.cpg/sg66_5_cif.got.tgz:8028.got - 2010.04.10 21:57:39.
