data_PCOD8275105
_publ_section_title
;
Structure prediction by ZEFSAII (Michael W. Deem and Ramdas Pophale) SiO2 
 PCOD8275105
Probable space group: C M M M
;
_chemical_formula_sum "Si O2"
_cell_formula_units_Z 64
_cell_length_a 7.673452
_cell_length_b 25.995964
_cell_length_c 18.800993
_cell_angle_alpha 90.000000
_cell_angle_beta 90.000000
_cell_angle_gamma 90.000000
_cell_volume 3750.399183
_symmetry_space_group_name_H-M "C M M M"
_symmetry_group_IT_number 65
_symmetry_cell_setting 'orthorhombic'
loop_
_space_group_symop_operation_xyz
x,y,z
-x,-y,z
x,-y,-z
-x,y,-z
-x,-y,-z
x,y,-z
-x,y,z
x,-y,z
1/2+x,1/2+y,z
1/2-x,1/2-y,z
1/2+x,1/2-y,-z
1/2-x,1/2+y,-z
1/2-x,1/2-y,-z
1/2+x,1/2+y,-z
1/2-x,1/2+y,z
1/2+x,1/2-y,z
loop_
_atom_site_type_symbol
_atom_site_label
_atom_site_fract_x
_atom_site_fract_y
_atom_site_fract_z
Si Si1 0.793312 0.402459 0.664788
Si Si2 0.000000 0.939121 0.920974
Si Si3 0.795411 0.306065 0.579644
Si Si4 0.208065 0.500000 0.580139
Si Si5 0.800408 0.439540 0.816734
O O1 0.716481 0.349424 0.632170
O O2 0.716741 0.449695 0.619322
O O3 0.738823 0.408366 0.746991
O O4 0.000000 0.403509 0.659573
O O5 0.825019 0.921171 0.880392
O O6 0.000000 0.000000 0.926811
O O7 0.000000 0.914587 0.000000
O O8 0.715132 0.311826 0.500000
O O9 0.750000 0.250000 0.611118
O O10 0.000000 0.313624 0.575222
O O11 0.278669 0.500000 0.500000
O O12 0.000000 0.500000 0.581916
O O13 0.779992 0.500000 0.800219
O O14 0.000000 0.426800 0.837887
#
# Coordination Sequence:
#
# PCOD8275105 Si02
#       5
#    16   8  16   8  16
#     4   9  15  25  41  62  87 116 149 188 230 273
#     4   9  18  30  44  66  94 124 156 182 214 275
#     4   9  17  29  43  59  83 117 154 194 234 269
#     4   9  14  20  36  63  87 110 149 191 224 266
#     4   9  16  28  45  65  92 123 151 184 230 273
#
# _framework density 17.06485
#
# number of rings (size 3 to 8) (size 9 to 14) (size 15 to 20)
#    0.000    3.000    1.250    0.750    0.000    3.500 
#    2.250    2.500    0.000    0.000    0.000    0.875 
#    0.000    1.000    0.500    0.000    0.000    0.000 
#
# Total GULP energy -396646.645521 kJ/mol
# GULP energy per Si atom -12395.207673 kJ/mol
# Density = 1.702601 g / cm^3
# Si number density = 17.064850 Si / 1000 Ang^3
#
#
#
# Elastic Constant Matrix: (Units=GPa)
#
#
# Indices 1 2 3 4 5 6 
#
# 1 52.9651 16.0036 46.7878 0.0000 0.0000 0.0000
# 2 16.0036 106.8114 66.4973 0.0000 0.0000 0.0000
# 3 46.7878 66.4973 152.2818 0.0000 0.0000 0.0000
# 4 0.0000 0.0000 0.0000 15.2911 0.0000 0.0000
# 5 0.0000 0.0000 0.0000 0.0000 9.9053 0.0000
# 6 0.0000 0.0000 0.0000 0.0000 0.0000 13.2587
#
#
#
# Elastic Compliance Matrix: (Units=1/GPa)
#
#
# Indices 1 2 3 4 5 6 
#
# 1 0.026084 0.001485 -0.008663 0.000000 0.000000 0.000000
# 2 0.001485 0.012942 -0.006108 0.000000 0.000000 0.000000
# 3 -0.008663 -0.006108 0.011895 0.000000 0.000000 0.000000
# 4 0.000000 0.000000 0.000000 0.065397 0.000000 0.000000
# 5 0.000000 0.000000 0.000000 0.000000 0.100956 0.000000
# 6 0.000000 0.000000 0.000000 0.000000 0.000000 0.075422
#
#
# Mechanical properties :
#
#
# Convention : Reuss Voigt Hill
#
# Bulk Modulus (GPa) = 41.06651 63.40395 52.23523
# Shear Modulus (GPa) = 15.27254 19.87567 17.57411
#
# Velocity S-wave (km/s) = 2.99485 3.41649 3.21260
# Velocity P-wave (km/s) = 6.00633 7.26626 6.66613
#
# Compressibility (1/GPa) = 0.02435074
#
# Stress axis : x y z
#
# Youngs Moduli (GPa) = 38.33774 77.26590 84.06618
#
# Poissons Ratio (x) = -0.11473 0.72823
# Poissons Ratio (y) = -0.05693 0.51346
# Poissons Ratio (z) = 0.33210 0.47192
#
# Static dielectric constant tensor:
#      x y z
#    x 2.981650 0.000000 0.000000 
#    y 0.000000 3.184870 0.000000 
#    z 0.000000 0.000000 3.311280 
# 
# 
# High freq. dielectric constant tensor:
#      x y z
#    x 1.645460 0.000000 0.000000 
#    y 0.000000 1.623920 0.000000 
#    z 0.000000 0.000000 1.643300 
# 
# From -- ./inp_files/36372.got.cif
#   From: 2010.03.12/outbox.cif.g09.slc.cpg/sg65_19_cif.got.tgz:36372.got - 2010.04.10 20:52:16.
