data_PCOD8275171
_publ_section_title
;
Structure prediction by ZEFSAII (Michael W. Deem and Ramdas Pophale) SiO2 
 PCOD8275171
Probable space group: C M M M
;
_chemical_formula_sum "Si O2"
_cell_formula_units_Z 80
_cell_length_a 9.706487
_cell_length_b 37.370206
_cell_length_c 13.570870
_cell_angle_alpha 90.000000
_cell_angle_beta 90.000000
_cell_angle_gamma 90.000000
_cell_volume 4922.608070
_symmetry_space_group_name_H-M "C M M M"
_symmetry_group_IT_number 65
_symmetry_cell_setting 'orthorhombic'
loop_
_space_group_symop_operation_xyz
x,y,z
-x,-y,z
x,-y,-z
-x,y,-z
-x,-y,-z
x,y,-z
-x,y,z
x,-y,z
1/2+x,1/2+y,z
1/2-x,1/2-y,z
1/2+x,1/2-y,-z
1/2-x,1/2+y,-z
1/2-x,1/2-y,-z
1/2+x,1/2+y,-z
1/2-x,1/2+y,z
1/2+x,1/2-y,z
loop_
_atom_site_type_symbol
_atom_site_label
_atom_site_fract_x
_atom_site_fract_y
_atom_site_fract_z
Si Si1 0.160186 0.459205 0.701112
Si Si2 0.159589 0.142082 0.199973
Si Si3 0.657694 0.400335 0.610323
Si Si4 0.341280 0.716830 0.113728
Si Si5 0.343252 0.916258 0.890125
O O1 0.207302 0.500000 0.687595
O O2 0.247418 0.434866 0.627180
O O3 0.191253 0.447927 0.813836
O O4 0.000000 0.454374 0.674964
O O5 0.193665 0.131495 0.313206
O O6 0.199871 0.183237 0.181959
O O7 0.246411 0.117728 0.126214
O O8 0.000000 0.135900 0.174167
O O9 0.683763 0.385672 0.500000
O O10 0.500000 0.412649 0.624410
O O11 0.500000 0.727449 0.128329
O O12 0.250000 0.750000 0.149698
O O13 0.310409 0.707132 0.000000
O O14 0.500000 0.903120 0.875952
O O15 0.318783 0.931401 0.000000
#
# Coordination Sequence:
#
# PCOD8275171 Si02
#       5
#    16  16  16  16  16
#     4   9  18  31  45  63  88 116 145 178 218 263
#     4   9  17  30  47  65  87 115 146 180 216 255
#     4   9  18  32  49  67  85 109 144 184 224 262
#     4   9  17  28  43  65  91 117 143 170 204 248
#     4   9  17  28  43  64  88 115 147 180 214 254
#
# _framework density 16.251548
#
# number of rings (size 3 to 8) (size 9 to 14) (size 15 to 20)
#    0.000    3.000    0.000    0.600    0.000    3.600 
#    0.000    6.000    0.000    0.600    0.000    5.600 
#    0.000    0.000    0.000    0.000    0.000    0.000 
#
# Total GULP energy -495958.931958 kJ/mol
# GULP energy per Si atom -12398.973299 kJ/mol
# Density = 1.621456 g / cm^3
# Si number density = 16.251548 Si / 1000 Ang^3
#
#
#
# Elastic Constant Matrix: (Units=GPa)
#
#
# Indices 1 2 3 4 5 6 
#
# 1 49.6819 48.2723 29.7877 0.0000 0.0000 0.0000
# 2 48.2723 119.2249 44.4723 0.0000 0.0000 0.0000
# 3 29.7877 44.4723 88.3963 0.0000 0.0000 0.0000
# 4 0.0000 0.0000 0.0000 16.1842 0.0000 0.0000
# 5 0.0000 0.0000 0.0000 0.0000 20.9503 0.0000
# 6 0.0000 0.0000 0.0000 0.0000 0.0000 29.0526
#
#
#
# Elastic Compliance Matrix: (Units=1/GPa)
#
#
# Indices 1 2 3 4 5 6 
#
# 1 0.035456 -0.012186 -0.005817 0.000000 0.000000 0.000000
# 2 -0.012186 0.014513 -0.003195 0.000000 0.000000 0.000000
# 3 -0.005817 -0.003195 0.014881 0.000000 0.000000 0.000000
# 4 0.000000 0.000000 0.000000 0.061789 0.000000 0.000000
# 5 0.000000 0.000000 0.000000 0.000000 0.047732 0.000000
# 6 0.000000 0.000000 0.000000 0.000000 0.000000 0.034420
#
#
# Mechanical properties :
#
#
# Convention : Reuss Voigt Hill
#
# Bulk Modulus (GPa) = 44.53716 55.81863 50.17790
# Shear Modulus (GPa) = 19.32956 22.22212 20.77584
#
# Velocity S-wave (km/s) = 3.45251 3.70183 3.57934
# Velocity P-wave (km/s) = 6.58464 7.25897 6.93001
#
# Compressibility (1/GPa) = 0.02245316
#
# Stress axis : x y z
#
# Youngs Moduli (GPa) = 28.20421 68.90303 67.20180
#
# Poissons Ratio (x) = 0.83962 0.39093
# Poissons Ratio (y) = 0.34368 0.21473
# Poissons Ratio (z) = 0.16407 0.22017
#
# Static dielectric constant tensor:
#      x y z
#    x 3.132590 0.000000 0.000000 
#    y 0.000000 2.963180 0.000000 
#    z 0.000000 0.000000 3.105010 
# 
# 
# High freq. dielectric constant tensor:
#      x y z
#    x 1.628210 0.000000 0.000000 
#    y 0.000000 1.607750 0.000000 
#    z 0.000000 0.000000 1.619360 
# 
# From -- ./inp_files/22874.got.cif
#   From: 2010.03.12/outbox.cif.g09.slc.cpg/sg65_12_cif.got.tgz:22874.got - 2010.04.10 20:52:16.
