data_PCOD8275979
_publ_section_title
;
Structure prediction by ZEFSAII (Michael W. Deem and Ramdas Pophale) SiO2 
 PCOD8275979
Probable space group: C C C M
;
_chemical_formula_sum "Si O2"
_cell_formula_units_Z 112
_cell_length_a 15.276804
_cell_length_b 24.520478
_cell_length_c 13.716070
_cell_angle_alpha 90.000000
_cell_angle_beta 90.000000
_cell_angle_gamma 90.000000
_cell_volume 5137.964883
_symmetry_space_group_name_H-M "C C C M"
_symmetry_group_IT_number 66
_symmetry_cell_setting 'orthorhombic'
loop_
_space_group_symop_operation_xyz
x,y,z
-x,-y,z
x,-y,1/2-z
-x,y,1/2-z
-x,-y,-z
x,y,-z
-x,y,1/2+z
x,-y,1/2+z
1/2+x,1/2+y,z
1/2-x,1/2-y,z
1/2+x,1/2-y,1/2-z
1/2-x,1/2+y,1/2-z
1/2-x,1/2-y,-z
1/2+x,1/2+y,-z
1/2-x,1/2+y,1/2+z
1/2+x,1/2-y,1/2+z
loop_
_atom_site_type_symbol
_atom_site_label
_atom_site_fract_x
_atom_site_fract_y
_atom_site_fract_z
Si Si1 0.070999 0.541975 0.885320
Si Si2 0.111867 0.154940 0.112503
Si Si3 0.947498 0.220981 0.887173
Si Si4 0.232800 0.039488 0.384258
Si Si5 0.709521 0.345605 0.202287
Si Si6 0.394139 0.838441 0.113049
Si Si7 0.579841 0.532521 0.112626
O O1 0.168438 0.526681 0.848614
O O2 0.054599 0.605871 0.856373
O O3 0.000000 0.500000 0.837252
O O4 0.064086 0.535046 0.000000
O O5 0.198068 0.158258 0.179977
O O6 0.067371 0.096274 0.128269
O O7 0.038827 0.196907 0.153075
O O8 0.139686 0.164982 0.000000
O O9 0.860671 0.195844 0.841782
O O10 0.954980 0.286068 0.869459
O O11 0.942790 0.205936 0.000000
O O12 0.233057 0.048733 0.500000
O O13 0.192052 0.093547 0.335941
O O14 0.173372 0.989112 0.347438
O O15 0.807351 0.328006 0.176296
O O16 0.364911 0.843388 0.000000
O O17 0.500000 0.500000 0.163881
O O18 0.580234 0.516700 0.000000
#
# Coordination Sequence:
#
# PCOD8275979 Si02
#       7
#    16  16  16  16  16  16  16
#     4   8  14  27  50  83 119 146 171 213 275 343
#     4  10  22  36  51  77 113 154 195 231 277 340
#     4  10  19  33  54  82 115 145 181 234 291 345
#     4   9  17  29  50  83 117 148 186 231 281 339
#     4  11  19  31  53  82 114 147 185 232 286 340
#     4   9  18  32  56  90 117 140 179 233 294 351
#     4   9  17  31  50  74 110 154 194 230 270 324
#
# _framework density 21.798513
#
# number of rings (size 3 to 8) (size 9 to 14) (size 15 to 20)
#    0.000    2.571    0.000    3.857    0.000    4.000 
#    0.000    0.714    0.000    6.857    0.000   17.000 
#    0.000   13.714    0.000    0.000    0.000    0.000 
#
# Total GULP energy -694093.758237 kJ/mol
# GULP energy per Si atom -12394.531397 kJ/mol
# Density = 2.174890 g / cm^3
# Si number density = 21.798513 Si / 1000 Ang^3
#
#
#
# Elastic Constant Matrix: (Units=GPa)
#
#
# Indices 1 2 3 4 5 6 
#
# 1 117.9226 84.5619 31.1259 0.0000 0.0000 0.0000
# 2 84.5619 153.2312 26.4737 0.0000 0.0000 0.0000
# 3 31.1259 26.4737 60.4997 0.0000 0.0000 0.0000
# 4 0.0000 0.0000 0.0000 8.1771 0.0000 0.0000
# 5 0.0000 0.0000 0.0000 0.0000 19.9566 0.0000
# 6 0.0000 0.0000 0.0000 0.0000 0.0000 41.1740
#
#
#
# Elastic Compliance Matrix: (Units=1/GPa)
#
#
# Indices 1 2 3 4 5 6 
#
# 1 0.015065 -0.007545 -0.004449 0.000000 0.000000 0.000000
# 2 -0.007545 0.010839 -0.000861 0.000000 0.000000 0.000000
# 3 -0.004449 -0.000861 0.019195 0.000000 0.000000 0.000000
# 4 0.000000 0.000000 0.000000 0.122293 0.000000 0.000000
# 5 0.000000 0.000000 0.000000 0.000000 0.050109 0.000000
# 6 0.000000 0.000000 0.000000 0.000000 0.000000 0.024287
#
#
# Mechanical properties :
#
#
# Convention : Reuss Voigt Hill
#
# Bulk Modulus (GPa) = 51.57806 68.44185 60.00995
# Shear Modulus (GPa) = 18.25079 26.49434 22.37256
#
# Velocity S-wave (km/s) = 2.89667 3.49007 3.20712
# Velocity P-wave (km/s) = 5.90764 6.90698 6.42676
#
# Compressibility (1/GPa) = 0.01938809
#
# Stress axis : x y z
#
# Youngs Moduli (GPa) = 66.37885 92.26222 52.09761
#
# Poissons Ratio (x) = 0.69613 0.23178
# Poissons Ratio (y) = 0.50084 0.04486
# Poissons Ratio (z) = 0.29532 0.07944
#
# Static dielectric constant tensor:
#      x y z
#    x 3.883290 0.000000 0.000000 
#    y 0.000000 4.051420 0.000000 
#    z 0.000000 0.000000 3.835420 
# 
# 
# High freq. dielectric constant tensor:
#      x y z
#    x 1.835040 0.000000 0.000000 
#    y 0.000000 1.859070 0.000000 
#    z 0.000000 0.000000 1.853810 
# 
# From -- ./inp_files/28667.got.cif
#   From: 2010.03.12/outbox.cif.g09.slc.cpg/sg66_15_cif.got.tgz:28667.got - 2010.04.10 21:57:39.
