data_PCOD8275410
_publ_section_title
;
Structure prediction by ZEFSAII (Michael W. Deem and Ramdas Pophale) SiO2 
 PCOD8275410
Probable space group: C C C M
;
_chemical_formula_sum "Si O2"
_cell_formula_units_Z 96
_cell_length_a 30.089518
_cell_length_b 33.074872
_cell_length_c 7.948056
_cell_angle_alpha 90.000000
_cell_angle_beta 90.000000
_cell_angle_gamma 90.000000
_cell_volume 7909.960621
_symmetry_space_group_name_H-M "C C C M"
_symmetry_group_IT_number 66
_symmetry_cell_setting 'orthorhombic'
loop_
_space_group_symop_operation_xyz
x,y,z
-x,-y,z
x,-y,1/2-z
-x,y,1/2-z
-x,-y,-z
x,y,-z
-x,y,1/2+z
x,-y,1/2+z
1/2+x,1/2+y,z
1/2-x,1/2-y,z
1/2+x,1/2-y,1/2-z
1/2-x,1/2+y,1/2-z
1/2-x,1/2-y,-z
1/2+x,1/2+y,-z
1/2-x,1/2+y,1/2+z
1/2+x,1/2-y,1/2+z
loop_
_atom_site_type_symbol
_atom_site_label
_atom_site_fract_x
_atom_site_fract_y
_atom_site_fract_z
Si Si1 0.602741 0.619866 0.307172
Si Si2 0.766607 0.185222 0.000000
Si Si3 0.049891 0.955025 0.303311
Si Si4 0.050278 0.197206 0.302563
Si Si5 0.185149 0.840098 0.314468
Si Si6 0.131350 0.757474 0.313377
Si Si7 0.320199 0.231411 0.500000
O O1 0.613956 0.628732 0.500000
O O2 0.583600 0.575149 0.286737
O O3 0.566705 0.652793 0.242090
O O4 0.649280 0.623921 0.208310
O O5 0.777625 0.159235 0.831826
O O6 0.714209 0.194323 0.000000
O O7 0.794382 0.226369 0.000000
O O8 0.054594 0.949516 0.500000
O O9 0.000000 0.944610 0.250000
O O10 0.063268 0.000000 0.250000
O O11 0.056081 0.201896 0.500000
O O12 0.079604 0.232136 0.215642
O O13 0.000000 0.203669 0.250000
O O14 0.207367 0.844549 0.500000
O O15 0.158768 0.798520 0.300343
O O16 0.137062 0.737968 0.500000
O O17 0.149562 0.727510 0.168327
#
# Coordination Sequence:
#
# PCOD8275410 Si02
#       7
#    16   8  16  16  16  16   8
#     4  10  18  29  42  54  70  89 107 137 176 207
#     4   9  16  26  38  54  70  87 108 134 156 199
#     4  11  21  32  42  53  68  87 112 141 171 209
#     4  10  18  26  37  52  69  87 112 142 170 203
#     4   9  16  26  39  54  70  87 107 133 163 198
#     4   9  16  26  37  49  68  89 110 134 162 196
#     4   9  16  26  38  50  70  90 108 130 164 193
#
# _framework density 12.136596000000001
#
# number of rings (size 3 to 8) (size 9 to 14) (size 15 to 20)
#    0.000    2.333    1.667    3.500    0.000    4.000 
#    0.000    3.333    0.000    0.000    0.000    0.000 
#    0.000    0.000    0.000    0.000    0.000    0.000 
#
# Total GULP energy -595039.447090 kJ/mol
# GULP energy per Si atom -12396.655148 kJ/mol
# Density = 1.210897 g / cm^3
# Si number density = 12.136596 Si / 1000 Ang^3
#
#
#
# Elastic Constant Matrix: (Units=GPa)
#
#
# Indices 1 2 3 4 5 6 
#
# 1 61.3223 31.4850 35.8828 0.0000 0.0000 0.0000
# 2 31.4850 28.3426 19.8274 0.0000 0.0000 0.0000
# 3 35.8828 19.8274 92.2503 0.0000 0.0000 0.0000
# 4 0.0000 0.0000 0.0000 9.7569 0.0000 0.0000
# 5 0.0000 0.0000 0.0000 0.0000 15.7947 0.0000
# 6 0.0000 0.0000 0.0000 0.0000 0.0000 18.4001
#
#
#
# Elastic Compliance Matrix: (Units=1/GPa)
#
#
# Indices 1 2 3 4 5 6 
#
# 1 0.041847 -0.041311 -0.007398 0.000000 0.000000 0.000000
# 2 -0.041311 0.082308 -0.001622 0.000000 0.000000 0.000000
# 3 -0.007398 -0.001622 0.014066 0.000000 0.000000 0.000000
# 4 0.000000 0.000000 0.000000 0.102492 0.000000 0.000000
# 5 0.000000 0.000000 0.000000 0.000000 0.063312 0.000000
# 6 0.000000 0.000000 0.000000 0.000000 0.000000 0.054348
#
#
# Mechanical properties :
#
#
# Convention : Reuss Voigt Hill
#
# Bulk Modulus (GPa) = 26.62436 39.58949 33.10693
# Shear Modulus (GPa) = 10.60322 15.10501 12.85411
#
# Velocity S-wave (km/s) = 2.95898 3.53169 3.25794
# Velocity P-wave (km/s) = 5.80163 7.02291 6.44128
#
# Compressibility (1/GPa) = 0.03755959
#
# Stress axis : x y z
#
# Youngs Moduli (GPa) = 23.89665 12.14942 71.09157
#
# Poissons Ratio (x) = 0.50190 0.52595
# Poissons Ratio (y) = 0.98719 0.11530
# Poissons Ratio (z) = 0.17679 0.01970
#
# Static dielectric constant tensor:
#      x y z
#    x 1.451050 0.000000 0.000000 
#    y 0.000000 2.090210 0.000000 
#    z 0.000000 0.000000 2.779630 
# 
# 
# High freq. dielectric constant tensor:
#      x y z
#    x 1.436580 0.000000 0.000000 
#    y 0.000000 1.398070 0.000000 
#    z 0.000000 0.000000 1.486090 
# 
# From -- ./inp_files/11846.got.cif
#   From: 2010.03.12/outbox.cif.g09.slc.cpg/sg66_6_cif.got.tgz:11846.got - 2010.04.10 21:57:39.
