data_PCOD8275608
_publ_section_title
;
Structure prediction by ZEFSAII (Michael W. Deem and Ramdas Pophale) SiO2 
 PCOD8275608
Probable space group: C C C M
;
_chemical_formula_sum "Si O2"
_cell_formula_units_Z 112
_cell_length_a 11.695558
_cell_length_b 20.706694
_cell_length_c 24.679870
_cell_angle_alpha 90.000000
_cell_angle_beta 90.000000
_cell_angle_gamma 90.000000
_cell_volume 5976.880605
_symmetry_space_group_name_H-M "C C C M"
_symmetry_group_IT_number 66
_symmetry_cell_setting 'orthorhombic'
loop_
_space_group_symop_operation_xyz
x,y,z
-x,-y,z
x,-y,1/2-z
-x,y,1/2-z
-x,-y,-z
x,y,-z
-x,y,1/2+z
x,-y,1/2+z
1/2+x,1/2+y,z
1/2-x,1/2-y,z
1/2+x,1/2-y,1/2-z
1/2-x,1/2+y,1/2-z
1/2-x,1/2-y,-z
1/2+x,1/2+y,-z
1/2-x,1/2+y,1/2+z
1/2+x,1/2-y,1/2+z
loop_
_atom_site_type_symbol
_atom_site_label
_atom_site_fract_x
_atom_site_fract_y
_atom_site_fract_z
Si Si1 0.261092 0.562937 0.351828
Si Si2 0.433444 0.275839 0.904446
Si Si3 0.222203 0.912945 0.849170
Si Si4 0.372017 0.922962 0.250299
Si Si5 0.298574 0.160637 0.937827
Si Si6 0.979825 0.868736 0.187255
Si Si7 0.183760 0.812958 0.061578
O O1 0.249328 0.487012 0.361229
O O2 0.180918 0.597188 0.307363
O O3 0.221696 0.592378 0.408800
O O4 0.386909 0.578071 0.329240
O O5 0.403848 0.199345 0.908093
O O6 0.324216 0.304848 0.935308
O O7 0.445975 0.301219 0.842445
O O8 0.548478 0.298778 0.934276
O O9 0.304979 0.890545 0.800085
O O10 0.237803 0.870724 0.903118
O O11 0.092929 0.903022 0.832687
O O12 0.500000 0.896610 0.250000
O O13 0.364047 0.000000 0.250000
O O14 0.333430 0.148943 0.000000
O O15 0.000000 0.853236 0.250000
O O16 0.250000 0.750000 0.081630
O O17 0.212846 0.830775 0.000000
#
# Coordination Sequence:
#
# PCOD8275608 Si02
#       7
#    16  16  16  16  16  16  16
#     4  10  20  32  53  84 110 140 182 222 277 338
#     4   9  19  35  55  78 106 142 185 223 271 324
#     4  10  20  34  54  80 110 142 177 225 279 334
#     4   9  18  33  51  72 104 141 174 211 262 325
#     4  10  19  34  56  79 108 145 183 228 277 325
#     4  10  18  32  56  84 111 142 179 224 277 333
#     4  10  21  37  56  77 104 143 187 228 274 329
#
# _framework density 18.738869999999999
#
# number of rings (size 3 to 8) (size 9 to 14) (size 15 to 20)
#    0.000    2.286    1.429    2.143    0.000    2.286 
#    0.000    3.571    0.000    5.143    0.000    7.000 
#    0.000    0.000    0.000    0.000    0.000    0.000 
#
# Total GULP energy -693892.767766 kJ/mol
# GULP energy per Si atom -12390.942282 kJ/mol
# Density = 1.869622 g / cm^3
# Si number density = 18.738870 Si / 1000 Ang^3
#
#
#
# Elastic Constant Matrix: (Units=GPa)
#
#
# Indices 1 2 3 4 5 6 
#
# 1 91.2368 35.5446 28.0599 0.0000 0.0000 0.0000
# 2 35.5446 89.1054 69.3605 0.0000 0.0000 0.0000
# 3 28.0599 69.3605 125.3384 0.0000 0.0000 0.0000
# 4 0.0000 0.0000 0.0000 22.1809 0.0000 0.0000
# 5 0.0000 0.0000 0.0000 0.0000 14.3722 0.0000
# 6 0.0000 0.0000 0.0000 0.0000 0.0000 39.6096
#
#
#
# Elastic Compliance Matrix: (Units=1/GPa)
#
#
# Indices 1 2 3 4 5 6 
#
# 1 0.012978 -0.005121 -0.000071 0.000000 0.000000 0.000000
# 2 -0.005121 0.021736 -0.010882 0.000000 0.000000 0.000000
# 3 -0.000071 -0.010882 0.014016 0.000000 0.000000 0.000000
# 4 0.000000 0.000000 0.000000 0.045084 0.000000 0.000000
# 5 0.000000 0.000000 0.000000 0.000000 0.069579 0.000000
# 6 0.000000 0.000000 0.000000 0.000000 0.000000 0.025246
#
#
# Mechanical properties :
#
#
# Convention : Reuss Voigt Hill
#
# Bulk Modulus (GPa) = 60.31026 63.51230 61.91128
# Shear Modulus (GPa) = 22.09308 26.74691 24.41999
#
# Velocity S-wave (km/s) = 3.43738 3.78213 3.61387
# Velocity P-wave (km/s) = 6.92882 7.28283 7.10803
#
# Compressibility (1/GPa) = 0.01658093
#
# Stress axis : x y z
#
# Youngs Moduli (GPa) = 77.05578 46.00608 71.34556
#
# Poissons Ratio (x) = 0.23561 0.00508
# Poissons Ratio (y) = 0.39463 0.77638
# Poissons Ratio (z) = 0.00549 0.50064
#
# Static dielectric constant tensor:
#      x y z
#    x 3.547970 0.000000 0.000000 
#    y 0.000000 3.286230 0.000000 
#    z 0.000000 0.000000 3.362610 
# 
# 
# High freq. dielectric constant tensor:
#      x y z
#    x 1.734730 0.000000 0.000000 
#    y 0.000000 1.704400 0.000000 
#    z 0.000000 0.000000 1.730950 
# 
# From -- ./inp_files/57141.got.cif
#   From: 2010.03.12/outbox.cif.g09.slc.cpg/sg66_29_cif.got.tgz:57141.got - 2010.04.10 21:57:39.
