data_PCOD8275053
_publ_section_title
;
Structure prediction by ZEFSAII (Michael W. Deem and Ramdas Pophale) SiO2 
 PCOD8275053
Probable space group: C M M M
;
_chemical_formula_sum "Si O2"
_cell_formula_units_Z 80
_cell_length_a 13.896514
_cell_length_b 27.859225
_cell_length_c 12.708608
_cell_angle_alpha 90.000000
_cell_angle_beta 90.000000
_cell_angle_gamma 90.000000
_cell_volume 4920.088154
_symmetry_space_group_name_H-M "C M M M"
_symmetry_group_IT_number 65
_symmetry_cell_setting 'orthorhombic'
loop_
_space_group_symop_operation_xyz
x,y,z
-x,-y,z
x,-y,-z
-x,y,-z
-x,-y,-z
x,y,-z
-x,y,z
x,-y,z
1/2+x,1/2+y,z
1/2-x,1/2-y,z
1/2+x,1/2-y,-z
1/2-x,1/2+y,-z
1/2-x,1/2-y,-z
1/2+x,1/2+y,-z
1/2-x,1/2+y,z
1/2+x,1/2-y,z
loop_
_atom_site_type_symbol
_atom_site_label
_atom_site_fract_x
_atom_site_fract_y
_atom_site_fract_z
Si Si1 0.387758 0.134654 0.228752
Si Si2 0.891668 0.369886 0.000000
Si Si3 0.262095 0.554035 0.000000
Si Si4 0.272740 0.443855 0.228755
Si Si5 0.889955 0.881789 0.620922
Si Si6 0.232678 0.304326 0.378082
O O1 0.500000 0.122604 0.246945
O O2 0.326220 0.085878 0.245384
O O3 0.355865 0.174819 0.311620
O O4 0.369081 0.157263 0.110675
O O5 0.838220 0.419712 0.000000
O O6 0.000000 0.386588 0.000000
O O7 0.316975 0.565315 0.889721
O O8 0.228796 0.500000 0.000000
O O9 0.251436 0.500000 0.248846
O O10 0.353497 0.426260 0.309722
O O11 0.877759 0.897234 0.500000
O O12 0.829763 0.833858 0.646047
O O13 0.000000 0.870209 0.648889
O O14 0.203292 0.307341 0.500000
O O15 0.250000 0.250000 0.342384
#
# Coordination Sequence:
#
# PCOD8275053 Si02
#       6
#    16   8   8  16  16  16
#     4   9  17  29  46  68  93 120 148 179 217 262
#     4   8  14  25  41  62  89 119 148 177 210 252
#     4   8  14  25  41  61  86 116 148 182 219 254
#     4   9  17  29  45  66  92 120 150 183 217 256
#     4   9  18  32  48  65  86 114 149 186 221 260
#     4   9  18  32  49  69  90 112 143 184 228 270
#
# _framework density 16.259872000000001
#
# number of rings (size 3 to 8) (size 9 to 14) (size 15 to 20)
#    0.000    3.200    0.000    0.000    0.000    2.600 
#    0.000    8.000    0.000    1.800    0.000    5.600 
#    0.000    0.000    0.000    0.000    0.000    0.000 
#
# Total GULP energy -495528.740046 kJ/mol
# GULP energy per Si atom -12388.218501 kJ/mol
# Density = 1.622286 g / cm^3
# Si number density = 16.259872 Si / 1000 Ang^3
#
#
#
# Elastic Constant Matrix: (Units=GPa)
#
#
# Indices 1 2 3 4 5 6 
#
# 1 84.5796 34.9532 52.6498 0.0000 0.0000 0.0000
# 2 34.9532 93.7454 56.2722 0.0000 0.0000 0.0000
# 3 52.6498 56.2722 98.1225 0.0000 0.0000 0.0000
# 4 0.0000 0.0000 0.0000 22.2583 0.0000 0.0000
# 5 0.0000 0.0000 0.0000 0.0000 24.1374 0.0000
# 6 0.0000 0.0000 0.0000 0.0000 0.0000 11.7239
#
#
#
# Elastic Compliance Matrix: (Units=1/GPa)
#
#
# Indices 1 2 3 4 5 6 
#
# 1 0.017870 -0.001383 -0.008795 0.000000 0.000000 0.000000
# 2 -0.001383 0.016374 -0.008648 0.000000 0.000000 0.000000
# 3 -0.008795 -0.008648 0.019870 0.000000 0.000000 0.000000
# 4 0.000000 0.000000 0.000000 0.044927 0.000000 0.000000
# 5 0.000000 0.000000 0.000000 0.000000 0.041430 0.000000
# 6 0.000000 0.000000 0.000000 0.000000 0.000000 0.085296
#
#
# Mechanical properties :
#
#
# Convention : Reuss Voigt Hill
#
# Bulk Modulus (GPa) = 60.75004 62.68865 61.71934
# Shear Modulus (GPa) = 18.59384 20.46209 19.52797
#
# Velocity S-wave (km/s) = 3.38530 3.55130 3.46929
# Velocity P-wave (km/s) = 7.26109 7.44671 7.35449
#
# Compressibility (1/GPa) = 0.01646090
#
# Stress axis : x y z
#
# Youngs Moduli (GPa) = 55.96079 61.07186 50.32697
#
# Poissons Ratio (x) = 0.08449 0.44262
# Poissons Ratio (y) = 0.07742 0.43523
# Poissons Ratio (z) = 0.49217 0.52815
#
# Static dielectric constant tensor:
#      x y z
#    x 2.931280 0.000000 0.000000 
#    y 0.000000 2.904770 0.000000 
#    z 0.000000 0.000000 3.540200 
# 
# 
# High freq. dielectric constant tensor:
#      x y z
#    x 1.609760 0.000000 0.000000 
#    y 0.000000 1.605560 0.000000 
#    z 0.000000 0.000000 1.643000 
# 
# From -- ./inp_files/25042.got.cif
#   From: 2010.03.12/outbox.cif.g09.slc.cpg/sg65_13_cif.got.tgz:25042.got - 2010.04.10 20:52:16.
