data_PCOD8275048
_publ_section_title
;
Structure prediction by ZEFSAII (Michael W. Deem and Ramdas Pophale) SiO2 
 PCOD8275048
Probable space group: C M M M
;
_chemical_formula_sum "Si O2"
_cell_formula_units_Z 88
_cell_length_a 19.896843
_cell_length_b 9.285669
_cell_length_c 27.771919
_cell_angle_alpha 90.000000
_cell_angle_beta 90.000000
_cell_angle_gamma 90.000000
_cell_volume 5131.014732
_symmetry_space_group_name_H-M "C M M M"
_symmetry_group_IT_number 65
_symmetry_cell_setting 'orthorhombic'
loop_
_space_group_symop_operation_xyz
x,y,z
-x,-y,z
x,-y,-z
-x,y,-z
-x,-y,-z
x,y,-z
-x,y,z
x,-y,z
1/2+x,1/2+y,z
1/2-x,1/2-y,z
1/2+x,1/2-y,-z
1/2-x,1/2+y,-z
1/2-x,1/2-y,-z
1/2+x,1/2+y,-z
1/2-x,1/2+y,z
1/2+x,1/2-y,z
loop_
_atom_site_type_symbol
_atom_site_label
_atom_site_fract_x
_atom_site_fract_y
_atom_site_fract_z
Si Si1 0.682348 0.168369 0.054813
Si Si2 0.183079 0.668767 0.688345
Si Si3 0.425307 0.829013 0.130002
Si Si4 0.574591 0.829030 0.237075
Si Si5 0.682196 0.168337 0.578165
Si Si6 0.423932 0.829610 0.500000
O O1 0.750000 0.250000 0.068110
O O2 0.625133 0.232322 0.089847
O O3 0.694607 0.000000 0.063553
O O4 0.660056 0.199192 0.000000
O O5 0.194626 0.500000 0.696347
O O6 0.250000 0.750000 0.703847
O O7 0.124649 0.731792 0.722480
O O8 0.163680 0.703179 0.633304
O O9 0.500000 0.768374 0.119486
O O10 0.401877 0.780842 0.183556
O O11 0.426998 0.000000 0.126841
O O12 0.500000 0.768040 0.247585
O O13 0.572789 0.000000 0.240014
O O14 0.750000 0.250000 0.562146
O O15 0.618333 0.221136 0.546837
O O16 0.695995 0.000000 0.569820
O O17 0.500000 0.762926 0.500000
O O18 0.430924 0.000000 0.500000
#
# Coordination Sequence:
#
# PCOD8275048 Si02
#       6
#    16  16  16  16  16   8
#     4   9  17  28  42  61  84 108 134 166 204 244
#     4   9  17  28  43  64  86 108 137 170 203 241
#     4   8  14  25  41  61  83 106 135 171 206 238
#     4   8  14  25  41  61  84 108 135 169 206 241
#     4   9  17  29  45  63  84 111 139 168 203 243
#     4   9  17  28  43  65  88 107 134 174 212 241
#
# _framework density 17.150603
#
# number of rings (size 3 to 8) (size 9 to 14) (size 15 to 20)
#    0.000    3.364    0.000    1.364    0.000    1.818 
#    0.000    5.455    0.000    2.182    0.000   10.182 
#    0.000    0.000    0.000    0.000    0.000    0.000 
#
# Total GULP energy -545353.603363 kJ/mol
# GULP energy per Si atom -12394.400076 kJ/mol
# Density = 1.711157 g / cm^3
# Si number density = 17.150603 Si / 1000 Ang^3
#
#
#
# Elastic Constant Matrix: (Units=GPa)
#
#
# Indices 1 2 3 4 5 6 
#
# 1 159.4225 27.2811 110.7282 0.0000 0.0000 0.0000
# 2 27.2811 16.7666 21.6430 0.0000 0.0000 0.0000
# 3 110.7282 21.6430 135.6934 0.0000 0.0000 0.0000
# 4 0.0000 0.0000 0.0000 12.4176 0.0000 0.0000
# 5 0.0000 0.0000 0.0000 0.0000 40.8935 0.0000
# 6 0.0000 0.0000 0.0000 0.0000 0.0000 22.1011
#
#
#
# Elastic Compliance Matrix: (Units=1/GPa)
#
#
# Indices 1 2 3 4 5 6 
#
# 1 0.016099 -0.011632 -0.011282 0.000000 0.000000 0.000000
# 2 -0.011632 0.083510 -0.003828 0.000000 0.000000 0.000000
# 3 -0.011282 -0.003828 0.017186 0.000000 0.000000 0.000000
# 4 0.000000 0.000000 0.000000 0.080531 0.000000 0.000000
# 5 0.000000 0.000000 0.000000 0.000000 0.024454 0.000000
# 6 0.000000 0.000000 0.000000 0.000000 0.000000 0.045247
#
#
# Mechanical properties :
#
#
# Convention : Reuss Voigt Hill
#
# Bulk Modulus (GPa) = 15.79477 70.13191 42.96334
# Shear Modulus (GPa) = 14.63641 25.23112 19.93377
#
# Velocity S-wave (km/s) = 2.92448 3.83972 3.41292
# Velocity P-wave (km/s) = 4.54234 7.78707 6.37461
#
# Compressibility (1/GPa) = 0.06331211
#
# Stress axis : x y z
#
# Youngs Moduli (GPa) = 62.11567 11.97459 58.18601
#
# Poissons Ratio (x) = 0.13929 0.65644
# Poissons Ratio (y) = 0.72252 0.22274
# Poissons Ratio (z) = 0.70078 0.04584
#
# Static dielectric constant tensor:
#      x y z
#    x 3.488790 0.000000 0.000000 
#    y 0.000000 2.733730 0.000000 
#    z 0.000000 0.000000 3.458220 
# 
# 
# High freq. dielectric constant tensor:
#      x y z
#    x 1.663420 0.000000 0.000000 
#    y 0.000000 1.607620 0.000000 
#    z 0.000000 0.000000 1.673480 
# 
# From -- ./inp_files/77329.got.cif
#   From: 2010.03.12/outbox.cif.g09.slc.cpg/sg65_39_cif.got.tgz:77329.got - 2010.04.10 20:52:16.
