data_PCOD8275758
_publ_section_title
;
Structure prediction by ZEFSAII (Michael W. Deem and Ramdas Pophale) SiO2 
 PCOD8275758
Probable space group: C C C M
;
_chemical_formula_sum "Si O2"
_cell_formula_units_Z 96
_cell_length_a 26.358168
_cell_length_b 28.523643
_cell_length_c 8.726656
_cell_angle_alpha 90.000000
_cell_angle_beta 90.000000
_cell_angle_gamma 90.000000
_cell_volume 6560.970282
_symmetry_space_group_name_H-M "C C C M"
_symmetry_group_IT_number 66
_symmetry_cell_setting 'orthorhombic'
loop_
_space_group_symop_operation_xyz
x,y,z
-x,-y,z
x,-y,1/2-z
-x,y,1/2-z
-x,-y,-z
x,y,-z
-x,y,1/2+z
x,-y,1/2+z
1/2+x,1/2+y,z
1/2-x,1/2-y,z
1/2+x,1/2-y,1/2-z
1/2-x,1/2+y,1/2-z
1/2-x,1/2-y,-z
1/2+x,1/2+y,-z
1/2-x,1/2+y,1/2+z
1/2+x,1/2-y,1/2+z
loop_
_atom_site_type_symbol
_atom_site_label
_atom_site_fract_x
_atom_site_fract_y
_atom_site_fract_z
Si Si1 0.400663 0.048717 0.821011
Si Si2 0.217880 0.451296 0.179013
Si Si3 0.446473 0.859122 0.180996
Si Si4 0.643753 0.805127 0.180870
Si Si5 0.701481 0.283061 0.669438
Si Si6 0.261728 0.857441 0.821122
O O1 0.341456 0.055892 0.786454
O O2 0.431444 0.090042 0.742497
O O3 0.419946 0.000000 0.750000
O O4 0.412473 0.048814 0.000000
O O5 0.237089 0.500000 0.250000
O O6 0.248700 0.410107 0.263800
O O7 0.230040 0.450635 0.000000
O O8 0.500000 0.843745 0.250000
O O9 0.406667 0.819512 0.230769
O O10 0.449809 0.861219 0.000000
O O11 0.654932 0.750420 0.222003
O O12 0.689956 0.838147 0.230464
O O13 0.636386 0.812437 0.000000
O O14 0.691022 0.303770 0.500000
O O15 0.750000 0.250000 0.663420
O O16 0.711671 0.326043 0.785253
O O17 0.273376 0.856437 0.000000
#
# Coordination Sequence:
#
# PCOD8275758 Si02
#       6
#    16  16  16  16  16  16
#     4  10  20  34  50  64  81 105 137 178 221 264
#     4  10  19  30  45  62  86 113 142 176 214 256
#     4  12  24  36  50  65  83 107 139 177 220 266
#     4  10  19  33  48  63  84 109 137 173 215 256
#     4   8  16  29  45  63  85 110 135 166 208 251
#     4  11  19  27  44  67  89 111 139 171 208 252
#
# _framework density 14.631983
#
# number of rings (size 3 to 8) (size 9 to 14) (size 15 to 20)
#    0.000    1.833    1.667    5.500    0.000    5.333 
#    0.000    1.667    0.000    0.000    0.000    0.000 
#    0.000    0.000    0.000    0.000    0.000    0.833 
#
# Total GULP energy -595204.294427 kJ/mol
# GULP energy per Si atom -12400.089467 kJ/mol
# Density = 1.459868 g / cm^3
# Si number density = 14.631983 Si / 1000 Ang^3
#
#
#
# Elastic Constant Matrix: (Units=GPa)
#
#
# Indices 1 2 3 4 5 6 
#
# 1 49.0512 43.6800 27.1969 0.0000 0.0000 0.0000
# 2 43.6800 93.2936 41.6922 0.0000 0.0000 0.0000
# 3 27.1969 41.6922 91.5358 0.0000 0.0000 0.0000
# 4 0.0000 0.0000 0.0000 26.8828 0.0000 0.0000
# 5 0.0000 0.0000 0.0000 0.0000 14.5114 0.0000
# 6 0.0000 0.0000 0.0000 0.0000 0.0000 14.8098
#
#
#
# Elastic Compliance Matrix: (Units=1/GPa)
#
#
# Indices 1 2 3 4 5 6 
#
# 1 0.035982 -0.015153 -0.003789 0.000000 0.000000 0.000000
# 2 -0.015153 0.019840 -0.004534 0.000000 0.000000 0.000000
# 3 -0.003789 -0.004534 0.014116 0.000000 0.000000 0.000000
# 4 0.000000 0.000000 0.000000 0.037198 0.000000 0.000000
# 5 0.000000 0.000000 0.000000 0.000000 0.068911 0.000000
# 6 0.000000 0.000000 0.000000 0.000000 0.000000 0.067523
#
#
# Mechanical properties :
#
#
# Convention : Reuss Voigt Hill
#
# Bulk Modulus (GPa) = 43.50783 51.00211 47.25497
# Shear Modulus (GPa) = 16.76814 19.32823 18.04818
#
# Velocity S-wave (km/s) = 3.38892 3.63844 3.51590
# Velocity P-wave (km/s) = 6.71657 7.25143 6.98912
#
# Compressibility (1/GPa) = 0.02298437
#
# Stress axis : x y z
#
# Youngs Moduli (GPa) = 27.79189 50.40319 70.84331
#
# Poissons Ratio (x) = 0.76378 0.26841
# Poissons Ratio (y) = 0.42114 0.32122
# Poissons Ratio (z) = 0.10530 0.22854
#
# Static dielectric constant tensor:
#      x y z
#    x 2.703660 0.000000 0.000000 
#    y 0.000000 3.092270 0.000000 
#    z 0.000000 0.000000 2.947810 
# 
# 
# High freq. dielectric constant tensor:
#      x y z
#    x 1.504770 0.000000 0.000000 
#    y 0.000000 1.556730 0.000000 
#    z 0.000000 0.000000 1.577960 
# 
# From -- ./inp_files/9282.got.cif
#   From: 2010.03.12/outbox.cif.g09.slc.cpg/sg66_5_cif.got.tgz:9282.got - 2010.04.10 21:57:39.
