data_PCOD8275269
_publ_section_title
;
Structure prediction by ZEFSAII (Michael W. Deem and Ramdas Pophale) SiO2 
 PCOD8275269
Probable space group: C C C M
;
_chemical_formula_sum "Si O2"
_cell_formula_units_Z 64
_cell_length_a 31.638771
_cell_length_b 9.555430
_cell_length_c 10.334559
_cell_angle_alpha 90.000000
_cell_angle_beta 90.000000
_cell_angle_gamma 90.000000
_cell_volume 3124.365182
_symmetry_space_group_name_H-M "C C C M"
_symmetry_group_IT_number 66
_symmetry_cell_setting 'orthorhombic'
loop_
_space_group_symop_operation_xyz
x,y,z
-x,-y,z
x,-y,1/2-z
-x,y,1/2-z
-x,-y,-z
x,y,-z
-x,y,1/2+z
x,-y,1/2+z
1/2+x,1/2+y,z
1/2-x,1/2-y,z
1/2+x,1/2-y,1/2-z
1/2-x,1/2+y,1/2-z
1/2-x,1/2-y,-z
1/2+x,1/2+y,-z
1/2-x,1/2+y,1/2+z
1/2+x,1/2-y,1/2+z
loop_
_atom_site_type_symbol
_atom_site_label
_atom_site_fract_x
_atom_site_fract_y
_atom_site_fract_z
Si Si1 0.585906 0.000000 0.250000
Si Si2 0.069458 0.369389 0.500000
Si Si3 0.597370 0.500000 0.250000
Si Si4 0.329364 0.890714 0.000000
Si Si5 0.702001 0.204185 0.500000
Si Si6 0.151834 0.263662 0.246563
Si Si7 0.951720 0.958032 0.500000
O O1 0.555154 0.947906 0.367475
O O2 0.617237 0.877640 0.201999
O O3 0.119834 0.390860 0.500000
O O4 0.053642 0.210282 0.500000
O O5 0.626540 0.628283 0.290892
O O6 0.568492 0.469103 0.374323
O O7 0.317824 0.811870 0.866076
O O8 0.305003 0.037458 0.000000
O O9 0.750000 0.250000 0.500000
O O10 0.681322 0.273010 0.373850
O O11 0.000000 0.000000 0.500000
#
# Coordination Sequence:
#
# PCOD8275269 Si02
#       7
#     8   8   8   8   8  16   8
#     4  10  16  36  71  93 118 171 241 270 304 393
#     4  10  18  36  67 103 121 176 231 273 323 413
#     4  12  23  42  69  98 132 183 239 268 328 441
#     4  10  18  40  68  86 126 178 222 275 329 402
#     4  12  23  38  62 102 134 164 226 291 349 383
#     4  11  20  39  68  93 124 178 234 268 322 403
#     4  12  25  42  64 104 148 173 211 291 369 399
#
# _framework density 20.484162000000001
#
# number of rings (size 3 to 8) (size 9 to 14) (size 15 to 20)
#    0.000    1.000   10.000    1.125    0.000    0.000 
#    4.500    0.625    0.000    4.500    0.000    0.000 
#    0.000    0.000    0.000    0.000    0.000    0.000 
#
# Total GULP energy -396656.383533 kJ/mol
# GULP energy per Si atom -12395.511985 kJ/mol
# Density = 2.043754 g / cm^3
# Si number density = 20.484162 Si / 1000 Ang^3
#
#
#
# Elastic Constant Matrix: (Units=GPa)
#
#
# Indices 1 2 3 4 5 6 
#
# 1 85.5079 41.5619 44.0362 0.0000 0.0000 0.0000
# 2 41.5619 95.9590 14.6897 0.0000 0.0000 0.0000
# 3 44.0362 14.6897 174.7941 0.0000 0.0000 0.0000
# 4 0.0000 0.0000 0.0000 28.3454 0.0000 0.0000
# 5 0.0000 0.0000 0.0000 0.0000 14.2686 0.0000
# 6 0.0000 0.0000 0.0000 0.0000 0.0000 29.0662
#
#
#
# Elastic Compliance Matrix: (Units=1/GPa)
#
#
# Indices 1 2 3 4 5 6 
#
# 1 0.016869 -0.006742 -0.003683 0.000000 0.000000 0.000000
# 2 -0.006742 0.013252 0.000585 0.000000 0.000000 0.000000
# 3 -0.003683 0.000585 0.006600 0.000000 0.000000 0.000000
# 4 0.000000 0.000000 0.000000 0.035279 0.000000 0.000000
# 5 0.000000 0.000000 0.000000 0.000000 0.070084 0.000000
# 6 0.000000 0.000000 0.000000 0.000000 0.000000 0.034404
#
#
# Mechanical properties :
#
#
# Convention : Reuss Voigt Hill
#
# Bulk Modulus (GPa) = 58.68827 61.87073 60.27950
# Shear Modulus (GPa) = 24.77099 31.40092 28.08595
#
# Velocity S-wave (km/s) = 3.48124 3.91952 3.70686
# Velocity P-wave (km/s) = 6.69861 7.12413 6.91465
#
# Compressibility (1/GPa) = 0.01703918
#
# Stress axis : x y z
#
# Youngs Moduli (GPa) = 59.28079 75.46099 151.52056
#
# Poissons Ratio (x) = 0.50879 0.55808
# Poissons Ratio (y) = 0.39970 -0.08863
# Poissons Ratio (z) = 0.21834 -0.04414
#
# Static dielectric constant tensor:
#      x y z
#    x 3.223500 0.000000 0.000000 
#    y 0.000000 2.284160 0.000000 
#    z 0.000000 0.000000 4.733610 
# 
# 
# High freq. dielectric constant tensor:
#      x y z
#    x 1.749350 0.000000 0.000000 
#    y 0.000000 1.798170 0.000000 
#    z 0.000000 0.000000 1.833710 
# 
# From -- ./inp_files/21160.got.cif
#   From: 2010.03.12/outbox.cif.g09.slc.cpg/sg66_11_cif.got.tgz:21160.got - 2010.04.10 21:57:39.
