data_PCOD8275380
_publ_section_title
;
Structure prediction by ZEFSAII (Michael W. Deem and Ramdas Pophale) SiO2 
 PCOD8275380
Probable space group: C C C M
;
_chemical_formula_sum "Si O2"
_cell_formula_units_Z 88
_cell_length_a 13.016853
_cell_length_b 22.393931
_cell_length_c 15.389404
_cell_angle_alpha 90.000000
_cell_angle_beta 90.000000
_cell_angle_gamma 90.000000
_cell_volume 4485.988304
_symmetry_space_group_name_H-M "C C C M"
_symmetry_group_IT_number 66
_symmetry_cell_setting 'orthorhombic'
loop_
_space_group_symop_operation_xyz
x,y,z
-x,-y,z
x,-y,1/2-z
-x,y,1/2-z
-x,-y,-z
x,y,-z
-x,y,1/2+z
x,-y,1/2+z
1/2+x,1/2+y,z
1/2-x,1/2-y,z
1/2+x,1/2-y,1/2-z
1/2-x,1/2+y,1/2-z
1/2-x,1/2-y,-z
1/2+x,1/2+y,-z
1/2-x,1/2+y,1/2+z
1/2+x,1/2-y,1/2+z
loop_
_atom_site_type_symbol
_atom_site_label
_atom_site_fract_x
_atom_site_fract_y
_atom_site_fract_z
Si Si1 0.659027 0.133178 0.402467
Si Si2 0.109514 0.163143 0.718889
Si Si3 0.731048 0.067527 0.234746
Si Si4 0.250000 0.250000 0.165321
Si Si5 0.369558 0.240710 0.593788
Si Si6 0.079418 0.614029 0.101144
O O1 0.695984 0.116041 0.500000
O O2 0.717856 0.095592 0.330207
O O3 0.679581 0.204376 0.390811
O O4 0.542115 0.112327 0.391233
O O5 0.176369 0.105508 0.692097
O O6 0.171675 0.210276 0.778386
O O7 0.077436 0.202094 0.635626
O O8 0.000000 0.138785 0.750000
O O9 0.633598 0.067688 0.167989
O O10 0.765504 0.000000 0.250000
O O11 0.422681 0.233429 0.500000
O O12 0.250000 0.250000 0.586301
O O13 0.386355 0.177795 0.641907
O O14 0.114354 0.603225 0.000000
#
# Coordination Sequence:
#
# PCOD8275380 Si02
#       6
#    16  16  16   8  16  16
#     4  10  21  36  56  85 115 145 179 219 276 345
#     4  11  21  35  56  83 111 147 185 223 271 331
#     4  11  24  40  55  75 108 150 194 239 276 312
#     4  10  19  34  57  84 118 148 167 212 276 342
#     4  10  17  31  56  86 113 136 168 218 278 337
#     4  10  20  35  59  87 112 139 179 230 282 332
#
# _framework density 19.616637000000001
#
# number of rings (size 3 to 8) (size 9 to 14) (size 15 to 20)
#    0.000    1.636    2.727    3.000    0.000    2.545 
#    0.000    5.455    0.000    0.000    0.000    7.636 
#    0.000    0.000    0.000    0.000    0.000    0.000 
#
# Total GULP energy -545169.568006 kJ/mol
# GULP energy per Si atom -12390.217455 kJ/mol
# Density = 1.957199 g / cm^3
# Si number density = 19.616637 Si / 1000 Ang^3
#
#
#
# Elastic Constant Matrix: (Units=GPa)
#
#
# Indices 1 2 3 4 5 6 
#
# 1 62.3987 13.3023 8.9441 0.0000 0.0000 0.0000
# 2 13.3023 105.5136 26.1063 0.0000 0.0000 0.0000
# 3 8.9441 26.1063 75.8243 0.0000 0.0000 0.0000
# 4 0.0000 0.0000 0.0000 17.2916 0.0000 0.0000
# 5 0.0000 0.0000 0.0000 0.0000 29.3870 0.0000
# 6 0.0000 0.0000 0.0000 0.0000 0.0000 13.9698
#
#
#
# Elastic Compliance Matrix: (Units=1/GPa)
#
#
# Indices 1 2 3 4 5 6 
#
# 1 0.016594 -0.001758 -0.001352 0.000000 0.000000 0.000000
# 2 -0.001758 0.010546 -0.003424 0.000000 0.000000 0.000000
# 3 -0.001352 -0.003424 0.014527 0.000000 0.000000 0.000000
# 4 0.000000 0.000000 0.000000 0.057832 0.000000 0.000000
# 5 0.000000 0.000000 0.000000 0.000000 0.034029 0.000000
# 6 0.000000 0.000000 0.000000 0.000000 0.000000 0.071583
#
#
# Mechanical properties :
#
#
# Convention : Reuss Voigt Hill
#
# Bulk Modulus (GPa) = 34.96484 37.82690 36.39587
# Shear Modulus (GPa) = 21.95764 25.15526 23.55645
#
# Velocity S-wave (km/s) = 3.34928 3.58487 3.46907
# Velocity P-wave (km/s) = 5.72885 6.03821 5.88556
#
# Compressibility (1/GPa) = 0.02860016
#
# Stress axis : x y z
#
# Youngs Moduli (GPa) = 60.26102 94.82156 68.83877
#
# Poissons Ratio (x) = 0.16665 0.09309
# Poissons Ratio (y) = 0.10591 0.23568
# Poissons Ratio (z) = 0.08149 0.32464
#
# Static dielectric constant tensor:
#      x y z
#    x 3.626030 0.000000 0.000000 
#    y 0.000000 3.427750 0.000000 
#    z 0.000000 0.000000 4.179220 
# 
# 
# High freq. dielectric constant tensor:
#      x y z
#    x 1.750900 0.000000 0.000000 
#    y 0.000000 1.748030 0.000000 
#    z 0.000000 0.000000 1.767510 
# 
# From -- ./inp_files/28182.got.cif
#   From: 2010.03.12/outbox.cif.g09.slc.cpg/sg66_15_cif.got.tgz:28182.got - 2010.04.10 21:57:39.
