data_PCOD8275088
_publ_section_title
;
Structure prediction by ZEFSAII (Michael W. Deem and Ramdas Pophale) SiO2 
 PCOD8275088
Probable space group: C M M M
;
_chemical_formula_sum "Si O2"
_cell_formula_units_Z 88
_cell_length_a 9.833496
_cell_length_b 19.164277
_cell_length_c 29.028347
_cell_angle_alpha 90.000000
_cell_angle_beta 90.000000
_cell_angle_gamma 90.000000
_cell_volume 5470.445440
_symmetry_space_group_name_H-M "C M M M"
_symmetry_group_IT_number 65
_symmetry_cell_setting 'orthorhombic'
loop_
_space_group_symop_operation_xyz
x,y,z
-x,-y,z
x,-y,-z
-x,y,-z
-x,-y,-z
x,y,-z
-x,y,z
x,-y,z
1/2+x,1/2+y,z
1/2-x,1/2-y,z
1/2+x,1/2-y,-z
1/2-x,1/2+y,-z
1/2-x,1/2-y,-z
1/2+x,1/2+y,-z
1/2-x,1/2+y,z
1/2+x,1/2-y,z
loop_
_atom_site_type_symbol
_atom_site_label
_atom_site_fract_x
_atom_site_fract_y
_atom_site_fract_z
Si Si1 0.500000 0.919325 0.945510
Si Si2 0.843948 0.419779 0.286621
Si Si3 0.648814 0.808121 0.105036
Si Si4 0.342842 0.812593 0.209115
Si Si5 0.843896 0.813620 0.552463
Si Si6 0.843841 0.919719 0.631104
O O1 0.365168 0.878844 0.925972
O O2 0.500000 0.000000 0.929027
O O3 0.500000 0.914481 0.000000
O O4 0.810400 0.500000 0.276488
O O5 0.809689 0.380057 0.239504
O O6 0.749877 0.390761 0.327696
O O7 0.000000 0.408795 0.301586
O O8 0.500000 0.771901 0.107788
O O9 0.750000 0.750000 0.083420
O O10 0.696713 0.830255 0.156227
O O11 0.500000 0.790801 0.213906
O O12 0.250000 0.750000 0.227760
O O13 0.812005 0.835829 0.500000
O O14 0.750000 0.750000 0.568321
O O15 0.809148 0.879232 0.584359
O O16 0.000000 0.790051 0.558072
O O17 0.000000 0.909053 0.645958
O O18 0.810113 0.000000 0.620857
#
# Coordination Sequence:
#
# PCOD8275088 Si02
#       6
#     8  16  16  16  16  16
#     4   9  18  30  48  76 103 127 163 209 249 289
#     4   9  18  31  46  65  89 118 153 187 222 268
#     4   8  16  30  48  70  97 128 163 201 241 290
#     4   9  17  30  46  67  92 121 154 191 229 268
#     4   9  18  32  49  68  89 114 144 179 222 271
#     4   9  18  32  48  66  90 117 148 186 225 266
#
# _framework density 16.086442000000002
#
# number of rings (size 3 to 8) (size 9 to 14) (size 15 to 20)
#    0.545    2.636    0.000    0.000    0.000    3.636 
#    0.000    5.455    0.000    0.545    0.000   11.455 
#    0.000    0.000    0.000    0.000    0.000    0.000 
#
# Total GULP energy -545360.701094 kJ/mol
# GULP energy per Si atom -12394.561388 kJ/mol
# Density = 1.604983 g / cm^3
# Si number density = 16.086442 Si / 1000 Ang^3
#
#
#
# Elastic Constant Matrix: (Units=GPa)
#
#
# Indices 1 2 3 4 5 6 
#
# 1 55.9518 48.5613 41.3917 0.0000 0.0000 0.0000
# 2 48.5613 98.8189 59.5279 0.0000 0.0000 0.0000
# 3 41.3917 59.5279 83.3775 0.0000 0.0000 0.0000
# 4 0.0000 0.0000 0.0000 30.5973 0.0000 0.0000
# 5 0.0000 0.0000 0.0000 0.0000 22.5599 0.0000
# 6 0.0000 0.0000 0.0000 0.0000 0.0000 27.0666
#
#
#
# Elastic Compliance Matrix: (Units=1/GPa)
#
#
# Indices 1 2 3 4 5 6 
#
# 1 0.034498 -0.011644 -0.008813 0.000000 0.000000 0.000000
# 2 -0.011644 0.021686 -0.009702 0.000000 0.000000 0.000000
# 3 -0.008813 -0.009702 0.023296 0.000000 0.000000 0.000000
# 4 0.000000 0.000000 0.000000 0.032683 0.000000 0.000000
# 5 0.000000 0.000000 0.000000 0.000000 0.044326 0.000000
# 6 0.000000 0.000000 0.000000 0.000000 0.000000 0.036946
#
#
# Mechanical properties :
#
#
# Convention : Reuss Voigt Hill
#
# Bulk Modulus (GPa) = 52.18823 59.67890 55.93356
# Shear Modulus (GPa) = 19.22032 21.95592 20.58812
#
# Velocity S-wave (km/s) = 3.46036 3.69842 3.58137
# Velocity P-wave (km/s) = 6.96263 7.44427 7.20748
#
# Compressibility (1/GPa) = 0.01916141
#
# Stress axis : x y z
#
# Youngs Moduli (GPa) = 28.98705 46.11174 42.92631
#
# Poissons Ratio (x) = 0.53694 0.37830
# Poissons Ratio (y) = 0.33753 0.41649
# Poissons Ratio (z) = 0.25545 0.44740
#
# Static dielectric constant tensor:
#      x y z
#    x 3.050110 0.000000 0.000000 
#    y 0.000000 2.976890 0.000000 
#    z 0.000000 0.000000 3.031990 
# 
# 
# High freq. dielectric constant tensor:
#      x y z
#    x 1.610280 0.000000 0.000000 
#    y 0.000000 1.607000 0.000000 
#    z 0.000000 0.000000 1.616590 
# 
# From -- ./inp_files/76797.got.cif
#   From: 2010.03.12/outbox.cif.g09.slc.cpg/sg65_39_cif.got.tgz:76797.got - 2010.04.10 20:52:16.
