data_PCOD8275301
_publ_section_title
;
Structure prediction by ZEFSAII (Michael W. Deem and Ramdas Pophale) SiO2 
 PCOD8275301
Probable space group: C C C M
;
_chemical_formula_sum "Si O2"
_cell_formula_units_Z 80
_cell_length_a 28.315468
_cell_length_b 17.626062
_cell_length_c 8.791049
_cell_angle_alpha 90.000000
_cell_angle_beta 90.000000
_cell_angle_gamma 90.000000
_cell_volume 4387.526356
_symmetry_space_group_name_H-M "C C C M"
_symmetry_group_IT_number 66
_symmetry_cell_setting 'orthorhombic'
loop_
_space_group_symop_operation_xyz
x,y,z
-x,-y,z
x,-y,1/2-z
-x,y,1/2-z
-x,-y,-z
x,y,-z
-x,y,1/2+z
x,-y,1/2+z
1/2+x,1/2+y,z
1/2-x,1/2-y,z
1/2+x,1/2-y,1/2-z
1/2-x,1/2+y,1/2-z
1/2-x,1/2-y,-z
1/2+x,1/2+y,-z
1/2-x,1/2+y,1/2+z
1/2+x,1/2-y,1/2+z
loop_
_atom_site_type_symbol
_atom_site_label
_atom_site_fract_x
_atom_site_fract_y
_atom_site_fract_z
Si Si1 0.447892 0.074184 0.680973
Si Si2 0.049874 0.726414 0.322717
Si Si3 0.644885 0.702945 0.823430
Si Si4 0.289775 0.581428 0.822117
Si Si5 0.215993 0.678689 0.333038
O O1 0.500000 0.073878 0.750000
O O2 0.447929 0.070231 0.500000
O O3 0.426532 0.153187 0.740407
O O4 0.420875 0.000000 0.750000
O O5 0.041625 0.708191 0.500000
O O6 0.088210 0.793589 0.299817
O O7 0.000000 0.751696 0.250000
O O8 0.666631 0.634512 0.727455
O O9 0.666678 0.785278 0.772991
O O10 0.657900 0.689009 0.000000
O O11 0.297459 0.500000 0.750000
O O12 0.238536 0.615626 0.776963
O O13 0.291127 0.572058 0.000000
O O14 0.209683 0.641212 0.500000
O O15 0.250000 0.750000 0.343761
#
# Coordination Sequence:
#
# PCOD8275301 Si02
#       5
#    16  16  16  16  16
#     4  10  17  27  43  63  88 119 158 202 248 294
#     4  10  19  32  50  73 101 135 175 216 258 301
#     4   9  19  35  54  75 103 137 170 208 254 302
#     4  11  21  33  53  79 106 134 167 206 251 304
#     4   8  15  31  52  73  99 129 160 197 245 298
#
# _framework density 18.233508
#
# number of rings (size 3 to 8) (size 9 to 14) (size 15 to 20)
#    0.000    2.400    0.000    7.200    0.000    5.200 
#    0.000    1.000    0.000    0.600    0.000    4.200 
#    0.000    0.000    0.000    0.000    0.000    0.000 
#
# Total GULP energy -495619.264400 kJ/mol
# GULP energy per Si atom -12390.481610 kJ/mol
# Density = 1.819201 g / cm^3
# Si number density = 18.233508 Si / 1000 Ang^3
#
#
#
# Elastic Constant Matrix: (Units=GPa)
#
#
# Indices 1 2 3 4 5 6 
#
# 1 87.5601 40.3793 43.3824 0.0000 0.0000 0.0000
# 2 40.3793 97.0178 63.1556 0.0000 0.0000 0.0000
# 3 43.3824 63.1556 153.8072 0.0000 0.0000 0.0000
# 4 0.0000 0.0000 0.0000 26.4951 0.0000 0.0000
# 5 0.0000 0.0000 0.0000 0.0000 -221.3416 0.0000
# 6 0.0000 0.0000 0.0000 0.0000 0.0000 16.4784
#
#
#
# Elastic Compliance Matrix: (Units=1/GPa)
#
#
# Indices 1 2 3 4 5 6 
#
# 1 0.014671 -0.004657 -0.002226 0.000000 0.000000 0.000000
# 2 -0.004657 0.015546 -0.005070 0.000000 0.000000 0.000000
# 3 -0.002226 -0.005070 0.009211 0.000000 0.000000 0.000000
# 4 0.000000 0.000000 0.000000 0.037743 0.000000 0.000000
# 5 0.000000 0.000000 0.000000 0.000000 -0.004518 0.000000
# 6 0.000000 0.000000 0.000000 0.000000 0.000000 0.060686
#
#
# Mechanical properties :
#
#
# Convention : Reuss Voigt Hill
#
# Bulk Modulus (GPa) = 64.42184 70.24662 67.33423
# Shear Modulus (GPa) = 30.78453 -22.90911 3.93771
#
# Velocity S-wave (km/s) = 4.11341 -3.54846 1.47115
# Velocity P-wave (km/s) = 7.61370 4.67129 6.31623
#
# Compressibility (1/GPa) = 0.01552269
#
# Stress axis : x y z
#
# Youngs Moduli (GPa) = 68.16030 64.32481 108.56370
#
# Poissons Ratio (x) = 0.29958 0.24164
# Poissons Ratio (y) = 0.31745 0.55040
# Poissons Ratio (z) = 0.15171 0.32612
#
# Static dielectric constant tensor:
#      x y z
#    x 3.878400 0.000000 0.000000 
#    y 0.000000 3.620760 0.000000 
#    z 0.000000 0.000000 3.384680 
# 
# 
# High freq. dielectric constant tensor:
#      x y z
#    x 1.686910 0.000000 0.000000 
#    y 0.000000 1.685650 0.000000 
#    z 0.000000 0.000000 1.712600 
# 
# From -- ./inp_files/6908.got.cif
#   From: 2010.03.12/outbox.cif.g09.slc.cpg/sg66_4_cif.got.tgz:6908.got - 2010.04.10 21:57:39.
