data_PCOD8275163
_publ_section_title
;
Structure prediction by ZEFSAII (Michael W. Deem and Ramdas Pophale) SiO2 
 PCOD8275163
Probable space group: C M M M
;
_chemical_formula_sum "Si O2"
_cell_formula_units_Z 72
_cell_length_a 16.082903
_cell_length_b 27.120085
_cell_length_c 9.630184
_cell_angle_alpha 90.000000
_cell_angle_beta 90.000000
_cell_angle_gamma 90.000000
_cell_volume 4200.394432
_symmetry_space_group_name_H-M "C M M M"
_symmetry_group_IT_number 65
_symmetry_cell_setting 'orthorhombic'
loop_
_space_group_symop_operation_xyz
x,y,z
-x,-y,z
x,-y,-z
-x,y,-z
-x,-y,-z
x,y,-z
-x,y,z
x,-y,z
1/2+x,1/2+y,z
1/2-x,1/2-y,z
1/2+x,1/2-y,-z
1/2-x,1/2+y,-z
1/2-x,1/2-y,-z
1/2+x,1/2+y,-z
1/2-x,1/2+y,z
1/2+x,1/2-y,z
loop_
_atom_site_type_symbol
_atom_site_label
_atom_site_fract_x
_atom_site_fract_y
_atom_site_fract_z
Si Si1 0.328741 0.444078 0.159386
Si Si2 0.251692 0.193608 0.337635
Si Si3 0.162396 0.614576 0.838944
Si Si4 0.000000 0.556088 0.835177
Si Si5 0.907666 0.132945 0.658161
O O1 0.328508 0.500000 0.210315
O O2 0.237041 0.423266 0.184671
O O3 0.396815 0.415238 0.248206
O O4 0.355175 0.439310 0.000000
O O5 0.273546 0.188406 0.500000
O O6 0.250000 0.250000 0.289293
O O7 0.321432 0.163869 0.251110
O O8 0.159590 0.174112 0.301380
O O9 0.080419 0.586544 0.784053
O O10 0.153637 0.630038 0.000000
O O11 0.000000 0.500000 0.774187
O O12 0.000000 0.552233 0.000000
O O13 0.895039 0.116161 0.500000
O O14 0.000000 0.154927 0.682374
#
# Coordination Sequence:
#
# PCOD8275163 Si02
#       5
#    16  16  16   8  16
#     4   9  17  29  46  68  94 124 155 187 226 271
#     4   9  18  34  52  69  91 122 158 196 241 287
#     4   9  17  30  49  72  97 125 160 197 233 279
#     4   9  16  28  49  75 103 133 163 197 238 289
#     4   9  18  32  48  66  90 119 153 190 227 274
#
# _framework density 17.141248000000001
#
# number of rings (size 3 to 8) (size 9 to 14) (size 15 to 20)
#    0.000    3.000    0.000    0.667    0.000    4.444 
#    2.000    2.778    0.000    2.667    0.000    0.000 
#    0.000    0.000    0.000    0.000    0.000    0.000 
#
# Total GULP energy -446360.348673 kJ/mol
# GULP energy per Si atom -12398.898574 kJ/mol
# Density = 1.710223 g / cm^3
# Si number density = 17.141248 Si / 1000 Ang^3
#
#
#
# Elastic Constant Matrix: (Units=GPa)
#
#
# Indices 1 2 3 4 5 6 
#
# 1 104.0115 57.2655 35.6894 0.0000 0.0000 0.0000
# 2 57.2655 152.7496 53.9167 0.0000 0.0000 0.0000
# 3 35.6894 53.9167 48.1412 0.0000 0.0000 0.0000
# 4 0.0000 0.0000 0.0000 28.7791 0.0000 0.0000
# 5 0.0000 0.0000 0.0000 0.0000 20.4815 0.0000
# 6 0.0000 0.0000 0.0000 0.0000 0.0000 20.1099
#
#
#
# Elastic Compliance Matrix: (Units=1/GPa)
#
#
# Indices 1 2 3 4 5 6 
#
# 1 0.013456 -0.002520 -0.007154 0.000000 0.000000 0.000000
# 2 -0.002520 0.011298 -0.010786 0.000000 0.000000 0.000000
# 3 -0.007154 -0.010786 0.038156 0.000000 0.000000 0.000000
# 4 0.000000 0.000000 0.000000 0.034747 0.000000 0.000000
# 5 0.000000 0.000000 0.000000 0.000000 0.048824 0.000000
# 6 0.000000 0.000000 0.000000 0.000000 0.000000 0.049727
#
#
# Mechanical properties :
#
#
# Convention : Reuss Voigt Hill
#
# Bulk Modulus (GPa) = 45.47226 66.51616 55.99421
# Shear Modulus (GPa) = 20.45337 24.40949 22.43143
#
# Velocity S-wave (km/s) = 3.45806 3.77771 3.62141
# Velocity P-wave (km/s) = 6.52149 7.61033 7.08685
#
# Compressibility (1/GPa) = 0.02199143
#
# Stress axis : x y z
#
# Youngs Moduli (GPa) = 74.31506 88.50787 26.20837
#
# Poissons Ratio (x) = 0.22300 0.18749
# Poissons Ratio (y) = 0.18724 0.28268
# Poissons Ratio (z) = 0.53164 0.95465
#
# Static dielectric constant tensor:
#      x y z
#    x 3.263850 0.000000 0.000000 
#    y 0.000000 3.226760 0.000000 
#    z 0.000000 0.000000 3.124740 
# 
# 
# High freq. dielectric constant tensor:
#      x y z
#    x 1.662090 0.000000 0.000000 
#    y 0.000000 1.656680 0.000000 
#    z 0.000000 0.000000 1.646210 
# 
# From -- ./inp_files/7257.got.cif
#   From: 2010.03.12/outbox.cif.g09.slc.cpg/sg65_4_cif.got.tgz:7257.got - 2010.04.10 20:52:16.
