data_PCOD8275782
_publ_section_title
;
Structure prediction by ZEFSAII (Michael W. Deem and Ramdas Pophale) SiO2 
 PCOD8275782
Probable space group: C C C M
;
_chemical_formula_sum "Si O2"
_cell_formula_units_Z 120
_cell_length_a 14.183924
_cell_length_b 28.658822
_cell_length_c 15.419324
_cell_angle_alpha 90.000000
_cell_angle_beta 90.000000
_cell_angle_gamma 90.000000
_cell_volume 6267.871220
_symmetry_space_group_name_H-M "C C C M"
_symmetry_group_IT_number 66
_symmetry_cell_setting 'orthorhombic'
loop_
_space_group_symop_operation_xyz
x,y,z
-x,-y,z
x,-y,1/2-z
-x,y,1/2-z
-x,-y,-z
x,y,-z
-x,y,1/2+z
x,-y,1/2+z
1/2+x,1/2+y,z
1/2-x,1/2-y,z
1/2+x,1/2-y,1/2-z
1/2-x,1/2+y,1/2-z
1/2-x,1/2-y,-z
1/2+x,1/2+y,-z
1/2-x,1/2+y,1/2+z
1/2+x,1/2-y,1/2+z
loop_
_atom_site_type_symbol
_atom_site_label
_atom_site_fract_x
_atom_site_fract_y
_atom_site_fract_z
Si Si1 0.530657 0.295596 0.900523
Si Si2 0.309999 0.926412 0.405497
Si Si3 0.513961 0.905710 0.652733
Si Si4 0.329092 0.023394 0.335840
Si Si5 0.297785 0.403586 0.736755
Si Si6 0.736252 0.329134 0.096016
Si Si7 0.000000 0.863994 0.250000
Si Si8 0.061170 0.694247 0.902494
O O1 0.642685 0.299352 0.891175
O O2 0.481362 0.331587 0.834528
O O3 0.507223 0.241873 0.873591
O O4 0.498301 0.305941 0.000000
O O5 0.272076 0.910557 0.500000
O O6 0.420207 0.913965 0.401690
O O7 0.249511 0.899573 0.332199
O O8 0.301130 0.982586 0.401870
O O9 0.500000 0.921884 0.750000
O O10 0.600024 0.938842 0.619381
O O11 0.537071 0.850741 0.654150
O O12 0.230611 0.047080 0.305239
O O13 0.376507 0.000000 0.250000
O O14 0.252520 0.365504 0.673818
O O15 0.410431 0.397803 0.740424
O O16 0.826722 0.295529 0.101728
O O17 0.734013 0.353649 0.000000
O O18 0.030061 0.682107 0.000000
#
# Coordination Sequence:
#
# PCOD8275782 Si02
#       8
#    16  16  16  16  16  16   8  16
#     4   9  19  34  53  81 114 145 188 240 281 330
#     4  11  24  37  56  85 118 156 187 221 281 351
#     4  12  20  33  56  81 116 155 189 226 267 330
#     4  10  20  36  55  76 111 145 186 237 283 322
#     4  10  20  39  58  82 113 145 190 243 283 338
#     4   9  16  31  55  82 110 145 190 239 288 326
#     4  10  22  38  63  84 104 150 197 230 302 342
#     4  10  19  30  49  81 116 146 181 230 280 328
#
# _framework density 19.145256
#
# number of rings (size 3 to 8) (size 9 to 14) (size 15 to 20)
#    0.000    1.867    4.000    1.200    0.933    4.267 
#    0.000    3.000    0.000    0.800    0.000    2.800 
#    0.000    0.000    0.000    0.000    0.000    0.000 
#
# Total GULP energy -743442.705632 kJ/mol
# GULP energy per Si atom -12390.711761 kJ/mol
# Density = 1.910168 g / cm^3
# Si number density = 19.145256 Si / 1000 Ang^3
#
#
#
# Elastic Constant Matrix: (Units=GPa)
#
#
# Indices 1 2 3 4 5 6 
#
# 1 78.7532 35.5682 19.7348 0.0000 0.0000 0.0000
# 2 35.5682 92.2279 31.5883 0.0000 0.0000 0.0000
# 3 19.7348 31.5883 104.3078 0.0000 0.0000 0.0000
# 4 0.0000 0.0000 0.0000 25.1740 0.0000 0.0000
# 5 0.0000 0.0000 0.0000 0.0000 21.5483 0.0000
# 6 0.0000 0.0000 0.0000 0.0000 0.0000 20.1515
#
#
#
# Elastic Compliance Matrix: (Units=1/GPa)
#
#
# Indices 1 2 3 4 5 6 
#
# 1 0.015522 -0.005557 -0.001254 0.000000 0.000000 0.000000
# 2 -0.005557 0.014087 -0.003215 0.000000 0.000000 0.000000
# 3 -0.001254 -0.003215 0.010798 0.000000 0.000000 0.000000
# 4 0.000000 0.000000 0.000000 0.039724 0.000000 0.000000
# 5 0.000000 0.000000 0.000000 0.000000 0.046407 0.000000
# 6 0.000000 0.000000 0.000000 0.000000 0.000000 0.049624
#
#
# Mechanical properties :
#
#
# Convention : Reuss Voigt Hill
#
# Bulk Modulus (GPa) = 49.12608 49.89684 49.51146
# Shear Modulus (GPa) = 24.63094 25.93460 25.28277
#
# Velocity S-wave (km/s) = 3.59071 3.68451 3.63792
# Velocity P-wave (km/s) = 6.55029 6.64979 6.60023
#
# Compressibility (1/GPa) = 0.02035578
#
# Stress axis : x y z
#
# Youngs Moduli (GPa) = 64.42599 70.98921 92.61167
#
# Poissons Ratio (x) = 0.39445 0.11613
# Poissons Ratio (y) = 0.35799 0.29772
# Poissons Ratio (z) = 0.08079 0.22821
#
# Static dielectric constant tensor:
#      x y z
#    x 3.272100 0.000000 0.000000 
#    y 0.000000 3.566150 0.000000 
#    z 0.000000 0.000000 3.567800 
# 
# 
# High freq. dielectric constant tensor:
#      x y z
#    x 1.715790 0.000000 0.000000 
#    y 0.000000 1.741930 0.000000 
#    z 0.000000 0.000000 1.742820 
# 
# From -- ./inp_files/29053.got.cif
#   From: 2010.03.12/outbox.cif.g09.slc.cpg/sg66_15_cif.got.tgz:29053.got - 2010.04.10 21:57:39.
