data_PCOD8275206
_publ_section_title
;
Structure prediction by ZEFSAII (Michael W. Deem and Ramdas Pophale) SiO2 
 PCOD8275206
Probable space group: C M M M
;
_chemical_formula_sum "Si O2"
_cell_formula_units_Z 44
_cell_length_a 21.000000
_cell_length_b 24.000000
_cell_length_c 9.000000
_cell_angle_alpha 90.000000
_cell_angle_beta 90.000000
_cell_angle_gamma 90.000000
_cell_volume 4536.000000
_symmetry_space_group_name_H-M "C M M M"
_symmetry_group_IT_number 65
_symmetry_cell_setting 'orthorhombic'
loop_
_space_group_symop_operation_xyz
x,y,z
-x,-y,z
x,-y,-z
-x,y,-z
-x,-y,-z
x,y,-z
-x,y,z
x,-y,z
1/2+x,1/2+y,z
1/2-x,1/2-y,z
1/2+x,1/2-y,-z
1/2-x,1/2+y,-z
1/2-x,1/2-y,-z
1/2+x,1/2+y,-z
1/2-x,1/2+y,z
1/2+x,1/2-y,z
loop_
_atom_site_type_symbol
_atom_site_label
_atom_site_fract_x
_atom_site_fract_y
_atom_site_fract_z
Si Si1 0.723210 0.435750 0.332978
Si Si2 0.000000 0.061852 0.176958
Si Si3 0.868540 0.437015 0.332353
Si Si4 0.879830 0.129741 0.825973
Si Si5 0.926522 0.765872 0.326661
Si Si6 0.074366 0.340851 0.838180
O O1 0.697406 0.425606 0.500000
O O2 0.715628 0.500000 0.288992
O O3 0.795979 0.416857 0.323072
O O4 0.685947 0.399453 0.213757
O O5 0.937715 0.092817 0.237642
O O6 0.000000 0.000000 0.244340
O O7 0.000000 0.059918 0.000000
O O8 0.893933 0.430926 0.500000
O O9 0.874659 0.500000 0.277260
O O10 0.911553 0.401427 0.224195
O O11 0.881624 0.189576 0.750953
O O12 0.885576 0.137839 0.000000
O O13 0.917035 0.769910 0.500000
O O14 0.900181 0.706247 0.273425
O O15 0.000000 0.775598 0.280080
O O16 0.000000 0.334202 0.854635
O O17 0.106559 0.333633 0.000000
#
# Coordination Sequence:
#
# PCOD8275206 Si02
#       6
#    16   8  16  16  16  16
#     4   9  19  36  55  76 106 143 182 223 266 315
#     4   9  18  30  45  71 107 141 174 217 266 313
#     4   9  19  37  59  81 108 143 179 216 262 317
#     4  11  20  32  52  77 108 143 181 224 270 319
#     4  10  20  35  55  77 105 142 183 222 266 320
#     4  10  21  36  56  83 113 140 171 216 269 320
#
# _framework density 9.7001760000000008
#
# number of rings (size 3 to 8) (size 9 to 14) (size 15 to 20)
#    0.000    2.273    0.909    3.273    0.000    4.364 
#    0.000    4.545    0.000    7.636    0.000    0.000 
#    0.000    0.000    0.000    0.000    0.000    0.000 
#
# Total GULP energy -545594.134276 kJ/mol
# GULP energy per Si atom -12399.866688 kJ/mol
# Density = 0.967810 g / cm^3
# Si number density = 9.700176 Si / 1000 Ang^3
#
#
#
# Elastic Constant Matrix: (Units=GPa)
#
#
# Indices 1 2 3 4 5 6 
#
# 1 -4.5290 26.5544 24.4131 0.0000 0.0000 0.0000
# 2 26.5544 97.0578 48.8931 0.0000 0.0000 0.0000
# 3 24.4131 48.8931 75.5866 0.0000 0.0000 0.0000
# 4 0.0000 0.0000 0.0000 19.7686 0.0000 0.0000
# 5 0.0000 0.0000 0.0000 0.0000 21.1440 0.0000
# 6 0.0000 0.0000 0.0000 0.0000 0.0000 65.9408
#
#
#
# Elastic Compliance Matrix: (Units=1/GPa)
#
#
# Indices 1 2 3 4 5 6 
#
# 1 -0.070500 0.011597 0.015269 0.000000 0.000000 0.000000
# 2 0.011597 0.013376 -0.012398 0.000000 0.000000 0.000000
# 3 0.015269 -0.012398 0.016318 0.000000 0.000000 0.000000
# 4 0.000000 0.000000 0.000000 0.050585 0.000000 0.000000
# 5 0.000000 0.000000 0.000000 0.000000 0.047295 0.000000
# 6 0.000000 0.000000 0.000000 0.000000 0.000000 0.015165
#
#
# Mechanical properties :
#
#
# Convention : Reuss Voigt Hill
#
# Bulk Modulus (GPa) = -84.24087 40.87074 -21.68506
# Shear Modulus (GPa) = 127.08107 25.92100 76.50103
#
# Velocity S-wave (km/s) = 8.10227 3.65925 6.28637
# Velocity P-wave (km/s) = 6.63418 6.24229 6.44122
#
# Compressibility (1/GPa) = -0.01187072
#
# Stress axis : x y z
#
# Youngs Moduli (GPa) = -14.18435 74.76261 61.28369
#
# Poissons Ratio (x) = -0.86699 -0.93575
# Poissons Ratio (y) = 0.16449 0.75977
# Poissons Ratio (z) = 0.21658 0.92687
#
# Static dielectric constant tensor:
#      x y z
#    x 3.211610 0.000000 0.000000 
#    y 0.000000 3.478740 0.000000 
#    z 0.000000 0.000000 3.428940 
# 
# 
# High freq. dielectric constant tensor:
#      x y z
#    x 1.722420 0.000000 0.000000 
#    y 0.000000 1.750680 0.000000 
#    z 0.000000 0.000000 1.744910 
# 
# From -- ./inp_files/11701.got.cif
#   From: 2010.03.12/outbox.ucp.g09.slc.cvg/sg65_6_cif.got.tgz:11701.got - 2010.05.04 19:44:54.
