data_PCOD8275667
_publ_section_title
;
Structure prediction by ZEFSAII (Michael W. Deem and Ramdas Pophale) SiO2 
 PCOD8275667
Probable space group: C C C M
;
_chemical_formula_sum "Si O2"
_cell_formula_units_Z 112
_cell_length_a 14.280123
_cell_length_b 21.444377
_cell_length_c 17.440002
_cell_angle_alpha 90.000000
_cell_angle_beta 90.000000
_cell_angle_gamma 90.000000
_cell_volume 5340.622883
_symmetry_space_group_name_H-M "C C C M"
_symmetry_group_IT_number 66
_symmetry_cell_setting 'orthorhombic'
loop_
_space_group_symop_operation_xyz
x,y,z
-x,-y,z
x,-y,1/2-z
-x,y,1/2-z
-x,-y,-z
x,y,-z
-x,y,1/2+z
x,-y,1/2+z
1/2+x,1/2+y,z
1/2-x,1/2-y,z
1/2+x,1/2-y,1/2-z
1/2-x,1/2+y,1/2-z
1/2-x,1/2-y,-z
1/2+x,1/2+y,-z
1/2-x,1/2+y,1/2+z
1/2+x,1/2-y,1/2+z
loop_
_atom_site_type_symbol
_atom_site_label
_atom_site_fract_x
_atom_site_fract_y
_atom_site_fract_z
Si Si1 0.881114 0.146691 0.411302
Si Si2 0.016362 0.249632 0.162169
Si Si3 0.404388 0.935511 0.415409
Si Si4 0.103322 0.013916 0.160562
Si Si5 0.422642 0.859200 0.910208
Si Si6 0.317647 0.809577 0.415403
Si Si7 0.779309 0.542427 0.589659
O O1 0.889422 0.127037 0.500000
O O2 0.973804 0.183939 0.383553
O O3 0.868300 0.085000 0.359768
O O4 0.794731 0.198060 0.398509
O O5 0.112598 0.287892 0.151289
O O6 0.000000 0.233388 0.250000
O O7 0.930540 0.291730 0.130421
O O8 0.434587 0.957995 0.500000
O O9 0.498415 0.907158 0.376295
O O10 0.323047 0.884221 0.419540
O O11 0.356019 0.994538 0.373176
O O12 0.103693 0.000000 0.250000
O O13 0.177267 0.964976 0.125818
O O14 0.000000 0.000000 0.126418
O O15 0.319405 0.887759 0.895403
O O16 0.443568 0.848779 0.000000
O O17 0.345824 0.782056 0.500000
O O18 0.769655 0.528078 0.500000
#
# Coordination Sequence:
#
# PCOD8275667 Si02
#       7
#    16  16  16  16  16  16  16
#     4  11  22  41  70  93 117 160 221 274 310 358
#     4  11  23  35  57  90 132 168 199 250 318 384
#     4   8  13  26  52  86 119 154 196 244 299 359
#     4  11  26  43  63  89 123 159 200 268 331 381
#     4   9  18  33  55  85 126 166 201 243 296 376
#     4   9  17  34  61  93 123 156 214 271 307 361
#     4  10  18  34  60  88 119 160 207 250 304 375
#
# _framework density 20.971336999999998
#
# number of rings (size 3 to 8) (size 9 to 14) (size 15 to 20)
#    0.000    2.143    1.429    3.429    2.000    5.143 
#    0.000    0.000    0.000    0.000    0.000    3.000 
#    0.000    0.000    0.000    0.000    0.000    0.000 
#
# Total GULP energy -693864.123235 kJ/mol
# GULP energy per Si atom -12390.430772 kJ/mol
# Density = 2.092361 g / cm^3
# Si number density = 20.971337 Si / 1000 Ang^3
#
#
#
# Elastic Constant Matrix: (Units=GPa)
#
#
# Indices 1 2 3 4 5 6 
#
# 1 100.5163 34.9868 34.3702 0.0000 0.0000 0.0000
# 2 34.9868 65.8598 38.8333 0.0000 0.0000 0.0000
# 3 34.3702 38.8333 84.3008 0.0000 0.0000 0.0000
# 4 0.0000 0.0000 0.0000 27.7297 0.0000 0.0000
# 5 0.0000 0.0000 0.0000 0.0000 25.8400 0.0000
# 6 0.0000 0.0000 0.0000 0.0000 0.0000 40.1704
#
#
#
# Elastic Compliance Matrix: (Units=1/GPa)
#
#
# Indices 1 2 3 4 5 6 
#
# 1 0.012681 -0.005063 -0.002838 0.000000 0.000000 0.000000
# 2 -0.005063 0.022868 -0.008470 0.000000 0.000000 0.000000
# 3 -0.002838 -0.008470 0.016921 0.000000 0.000000 0.000000
# 4 0.000000 0.000000 0.000000 0.036062 0.000000 0.000000
# 5 0.000000 0.000000 0.000000 0.000000 0.038700 0.000000
# 6 0.000000 0.000000 0.000000 0.000000 0.000000 0.024894
#
#
# Mechanical properties :
#
#
# Convention : Reuss Voigt Hill
#
# Bulk Modulus (GPa) = 50.68917 51.89528 51.29222
# Shear Modulus (GPa) = 26.11733 28.24713 27.18223
#
# Velocity S-wave (km/s) = 3.53283 3.67405 3.60413
# Velocity P-wave (km/s) = 6.39252 6.54200 6.46769
#
# Compressibility (1/GPa) = 0.01972808
#
# Stress axis : x y z
#
# Youngs Moduli (GPa) = 78.85537 43.72996 59.09871
#
# Poissons Ratio (x) = 0.22143 0.16771
# Poissons Ratio (y) = 0.39928 0.50054
# Poissons Ratio (z) = 0.22378 0.37037
#
# Static dielectric constant tensor:
#      x y z
#    x 3.869100 0.000000 0.000000 
#    y 0.000000 3.960230 0.000000 
#    z 0.000000 0.000000 3.345360 
# 
# 
# High freq. dielectric constant tensor:
#      x y z
#    x 1.810940 0.000000 0.000000 
#    y 0.000000 1.832780 0.000000 
#    z 0.000000 0.000000 1.776460 
# 
# From -- ./inp_files/28661.got.cif
#   From: 2010.03.12/outbox.cif.g09.slc.cpg/sg66_15_cif.got.tgz:28661.got - 2010.04.10 21:57:39.
