data_PCOD8275545
_publ_section_title
;
Structure prediction by ZEFSAII (Michael W. Deem and Ramdas Pophale) SiO2 
 PCOD8275545
Probable space group: C C C M
;
_chemical_formula_sum "Si O2"
_cell_formula_units_Z 64
_cell_length_a 14.399043
_cell_length_b 7.865819
_cell_length_c 22.326806
_cell_angle_alpha 90.000000
_cell_angle_beta 90.000000
_cell_angle_gamma 90.000000
_cell_volume 2528.739987
_symmetry_space_group_name_H-M "C C C M"
_symmetry_group_IT_number 66
_symmetry_cell_setting 'orthorhombic'
loop_
_space_group_symop_operation_xyz
x,y,z
-x,-y,z
x,-y,1/2-z
-x,y,1/2-z
-x,-y,-z
x,y,-z
-x,y,1/2+z
x,-y,1/2+z
1/2+x,1/2+y,z
1/2-x,1/2-y,z
1/2+x,1/2-y,1/2-z
1/2-x,1/2+y,1/2-z
1/2-x,1/2-y,-z
1/2+x,1/2+y,-z
1/2-x,1/2+y,1/2+z
1/2+x,1/2-y,1/2+z
loop_
_atom_site_type_symbol
_atom_site_label
_atom_site_fract_x
_atom_site_fract_y
_atom_site_fract_z
Si Si1 0.878103 0.181064 0.383559
Si Si2 0.280118 0.006867 0.431083
Si Si3 0.057523 0.323163 0.632631
Si Si4 0.649383 0.200254 0.750951
O O1 0.823271 0.006467 0.400066
O O2 0.830627 0.327522 0.423019
O O3 0.868689 0.215912 0.312968
O O4 0.988646 0.184794 0.399134
O O5 0.267142 0.053601 0.500000
O O6 0.344523 0.153675 0.401972
O O7 0.075641 0.243629 0.698478
O O8 0.000000 0.500000 0.637331
O O9 0.750000 0.250000 0.774537
O O10 0.642483 0.000000 0.750000
#
# Coordination Sequence:
#
# PCOD8275545 Si02
#       4
#    16  16  16  16
#     4  10  18  31  51  83 117 148 201 249 314 354
#     4  10  19  32  51  86 123 153 200 258 304 356
#     4  10  20  32  56  84 113 156 200 249 310 372
#     4  12  20  35  58  88 117 152 193 250 312 371
#
# _framework density 25.309047
#
# number of rings (size 3 to 8) (size 9 to 14) (size 15 to 20)
#    0.000    1.500    7.500    2.250    0.000    5.500 
#    0.000    0.000    0.000   11.250    0.000    1.750 
#    0.000    0.000    0.000    0.000    0.000    0.000 
#
# Total GULP energy -396476.681251 kJ/mol
# GULP energy per Si atom -12389.896289 kJ/mol
# Density = 2.525144 g / cm^3
# Si number density = 25.309047 Si / 1000 Ang^3
#
#
#
# Elastic Constant Matrix: (Units=GPa)
#
#
# Indices 1 2 3 4 5 6 
#
# 1 216.2532 39.9085 70.2882 0.0000 0.0000 0.0000
# 2 39.9085 53.8889 31.1064 0.0000 0.0000 0.0000
# 3 70.2882 31.1064 178.0850 0.0000 0.0000 0.0000
# 4 0.0000 0.0000 0.0000 0.0950 0.0000 0.0000
# 5 0.0000 0.0000 0.0000 0.0000 25.2403 0.0000
# 6 0.0000 0.0000 0.0000 0.0000 0.0000 32.9841
#
#
#
# Elastic Compliance Matrix: (Units=1/GPa)
#
#
# Indices 1 2 3 4 5 6 
#
# 1 0.005789 -0.003301 -0.001708 0.000000 0.000000 0.000000
# 2 -0.003301 0.022520 -0.002631 0.000000 0.000000 0.000000
# 3 -0.001708 -0.002631 0.006749 0.000000 0.000000 0.000000
# 4 0.000000 0.000000 0.000000 10.521254 0.000000 0.000000
# 5 0.000000 0.000000 0.000000 0.000000 0.039619 0.000000
# 6 0.000000 0.000000 0.000000 0.000000 0.000000 0.030318
#
#
# Mechanical properties :
#
#
# Convention : Reuss Voigt Hill
#
# Bulk Modulus (GPa) = 50.56158 81.20369 65.88264
# Shear Modulus (GPa) = 0.46957 32.12548 16.29753
#
# Velocity S-wave (km/s) = 0.43120 3.56663 2.54035
# Velocity P-wave (km/s) = 4.50211 7.00825 5.89002
#
# Compressibility (1/GPa) = 0.01977786
#
# Stress axis : x y z
#
# Youngs Moduli (GPa) = 172.75487 44.40549 148.17036
#
# Poissons Ratio (x) = 0.14658 0.25309
# Poissons Ratio (y) = 0.57024 0.38980
# Poissons Ratio (z) = 0.29509 0.11682
#
# Static dielectric constant tensor:
#      x y z
#    x 5.627450 0.000000 0.000000 
#    y 0.000000 4.310750 0.000000 
#    z 0.000000 0.000000 4.531200 
# 
# 
# High freq. dielectric constant tensor:
#      x y z
#    x 2.039120 0.000000 0.000000 
#    y 0.000000 1.979720 0.000000 
#    z 0.000000 0.000000 1.989500 
# 
# From -- ./inp_files/55144.got.cif
#   From: 2010.03.12/outbox.cif.g09.slc.cpg/sg66_28_cif.got.tgz:55144.got - 2010.04.10 21:57:39.
