data_PCOD8275964
_publ_section_title
;
Structure prediction by ZEFSAII (Michael W. Deem and Ramdas Pophale) SiO2 
 PCOD8275964
Probable space group: C C C M
;
_chemical_formula_sum "Si O2"
_cell_formula_units_Z 80
_cell_length_a 18.517830
_cell_length_b 26.706005
_cell_length_c 8.732037
_cell_angle_alpha 90.000000
_cell_angle_beta 90.000000
_cell_angle_gamma 90.000000
_cell_volume 4318.317657
_symmetry_space_group_name_H-M "C C C M"
_symmetry_group_IT_number 66
_symmetry_cell_setting 'orthorhombic'
loop_
_space_group_symop_operation_xyz
x,y,z
-x,-y,z
x,-y,1/2-z
-x,y,1/2-z
-x,-y,-z
x,y,-z
-x,y,1/2+z
x,-y,1/2+z
1/2+x,1/2+y,z
1/2-x,1/2-y,z
1/2+x,1/2-y,1/2-z
1/2-x,1/2+y,1/2-z
1/2-x,1/2-y,-z
1/2+x,1/2+y,-z
1/2-x,1/2+y,1/2+z
1/2+x,1/2-y,1/2+z
loop_
_atom_site_type_symbol
_atom_site_label
_atom_site_fract_x
_atom_site_fract_y
_atom_site_fract_z
Si Si1 0.789857 0.200704 0.177594
Si Si2 0.575543 0.946127 0.181656
Si Si3 0.923343 0.847580 0.179731
Si Si4 0.211317 0.598182 0.178225
Si Si5 0.347545 0.448713 0.818578
O O1 0.750000 0.250000 0.241349
O O2 0.864905 0.193102 0.266040
O O3 0.736711 0.154561 0.207345
O O4 0.809146 0.206725 0.000000
O O5 0.500000 0.926846 0.250000
O O6 0.636371 0.906956 0.232026
O O7 0.595863 0.000000 0.250000
O O8 0.569876 0.949748 0.000000
O O9 0.899621 0.903294 0.232716
O O10 0.000000 0.833722 0.250000
O O11 0.929898 0.844555 0.000000
O O12 0.268639 0.559215 0.246956
O O13 0.200742 0.586055 0.000000
O O14 0.380375 0.500000 0.750000
O O15 0.340841 0.452287 0.000000
#
# Coordination Sequence:
#
# PCOD8275964 Si02
#       5
#    16  16  16  16  16
#     4   9  19  37  60  82 104 133 171 215 262 310
#     4  11  21  34  51  73 103 137 174 212 256 307
#     4  10  21  36  55  79 108 140 174 213 257 306
#     4  10  19  33  53  76 103 134 170 213 259 307
#     4  10  20  33  50  75 105 139 177 213 252 300
#
# _framework density 18.525732000000001
#
# number of rings (size 3 to 8) (size 9 to 14) (size 15 to 20)
#    0.000    2.000    0.000    4.800    0.000    4.000 
#    0.000    3.000    0.000    0.000    0.000    0.000 
#    0.000    0.000    0.000    0.000    0.000    0.000 
#
# Total GULP energy -496171.769603 kJ/mol
# GULP energy per Si atom -12404.294240 kJ/mol
# Density = 1.848357 g / cm^3
# Si number density = 18.525732 Si / 1000 Ang^3
#
#
#
# Elastic Constant Matrix: (Units=GPa)
#
#
# Indices 1 2 3 4 5 6 
#
# 1 143.3856 51.4482 55.0344 0.0000 0.0000 0.0000
# 2 51.4482 93.2753 34.5119 0.0000 0.0000 0.0000
# 3 55.0344 34.5119 104.6440 0.0000 0.0000 0.0000
# 4 0.0000 0.0000 0.0000 23.4330 0.0000 0.0000
# 5 0.0000 0.0000 0.0000 0.0000 32.6334 0.0000
# 6 0.0000 0.0000 0.0000 0.0000 0.0000 9.7018
#
#
#
# Elastic Compliance Matrix: (Units=1/GPa)
#
#
# Indices 1 2 3 4 5 6 
#
# 1 0.009911 -0.004030 -0.003883 0.000000 0.000000 0.000000
# 2 -0.004030 0.013849 -0.002448 0.000000 0.000000 0.000000
# 3 -0.003883 -0.002448 0.012406 0.000000 0.000000 0.000000
# 4 0.000000 0.000000 0.000000 0.042675 0.000000 0.000000
# 5 0.000000 0.000000 0.000000 0.000000 0.030643 0.000000
# 6 0.000000 0.000000 0.000000 0.000000 0.000000 0.103073
#
#
# Mechanical properties :
#
#
# Convention : Reuss Voigt Hill
#
# Bulk Modulus (GPa) = 64.75145 69.25487 67.00316
# Shear Modulus (GPa) = 20.97074 26.50768 23.73921
#
# Velocity S-wave (km/s) = 3.36814 3.78677 3.58357
# Velocity P-wave (km/s) = 7.08194 7.52222 7.30540
#
# Compressibility (1/GPa) = 0.01544367
#
# Stress axis : x y z
#
# Youngs Moduli (GPa) = 100.90306 72.20500 80.60674
#
# Poissons Ratio (x) = 0.29096 0.31301
# Poissons Ratio (y) = 0.40660 0.19735
# Poissons Ratio (z) = 0.39182 0.17678
#
# Static dielectric constant tensor:
#      x y z
#    x 3.452610 0.000000 0.000000 
#    y 0.000000 3.367370 0.000000 
#    z 0.000000 0.000000 3.460070 
# 
# 
# High freq. dielectric constant tensor:
#      x y z
#    x 1.719950 0.000000 0.000000 
#    y 0.000000 1.702530 0.000000 
#    z 0.000000 0.000000 1.731520 
# 
# From -- ./inp_files/6675.got.cif
#   From: 2010.03.12/outbox.cif.g09.slc.cpg/sg66_4_cif.got.tgz:6675.got - 2010.04.10 21:57:39.
