data_PCOD8275777
_publ_section_title
;
Structure prediction by ZEFSAII (Michael W. Deem and Ramdas Pophale) SiO2 
 PCOD8275777
Probable space group: C C C M
;
_chemical_formula_sum "Si O2"
_cell_formula_units_Z 80
_cell_length_a 24.957091
_cell_length_b 4.996389
_cell_length_c 34.279949
_cell_angle_alpha 90.000000
_cell_angle_beta 90.000000
_cell_angle_gamma 90.000000
_cell_volume 4274.549722
_symmetry_space_group_name_H-M "C C C M"
_symmetry_group_IT_number 66
_symmetry_cell_setting 'orthorhombic'
loop_
_space_group_symop_operation_xyz
x,y,z
-x,-y,z
x,-y,1/2-z
-x,y,1/2-z
-x,-y,-z
x,y,-z
-x,y,1/2+z
x,-y,1/2+z
1/2+x,1/2+y,z
1/2-x,1/2-y,z
1/2+x,1/2-y,1/2-z
1/2-x,1/2+y,1/2-z
1/2-x,1/2-y,-z
1/2+x,1/2+y,-z
1/2-x,1/2+y,1/2+z
1/2+x,1/2-y,1/2+z
loop_
_atom_site_type_symbol
_atom_site_label
_atom_site_fract_x
_atom_site_fract_y
_atom_site_fract_z
Si Si1 0.944858 0.867265 0.086759
Si Si2 0.654165 0.353684 0.639739
Si Si3 0.806568 0.639791 0.598398
Si Si4 0.594303 0.868896 0.545432
Si Si5 0.812329 0.751845 0.776017
O O1 0.906358 0.832130 0.123937
O O2 0.947145 0.575567 0.066306
O O3 0.923193 0.066291 0.053512
O O4 0.000000 0.000000 0.101997
O O5 0.673416 0.655725 0.631947
O O6 0.652483 0.276914 0.685069
O O7 0.695430 0.151249 0.618331
O O8 0.750000 0.750000 0.582625
O O9 0.845395 0.607189 0.561465
O O10 0.594428 0.930179 0.500000
O O11 0.828760 0.500000 0.750000
O O12 0.750000 0.750000 0.788075
O O13 0.827335 0.000000 0.750000
#
# Coordination Sequence:
#
# PCOD8275777 Si02
#       5
#    16  16  16  16  16
#     4  10  21  36  54  74  96 131 172 211 257 298
#     4  10  20  34  51  74 102 131 170 209 243 299
#     4  10  19  32  51  72 100 138 170 201 246 300
#     4  10  21  34  50  76 103 128 167 213 256 303
#     4  10  19  30  48  75 104 131 157 192 242 294
#
# _framework density 18.715420000000002
#
# number of rings (size 3 to 8) (size 9 to 14) (size 15 to 20)
#    0.000    2.000    0.000    4.200    0.000    4.400 
#    0.000    0.000    0.000    7.800    0.000    1.400 
#    0.000    0.000    0.000    0.000    0.000    0.000 
#
# Total GULP energy -495844.930773 kJ/mol
# GULP energy per Si atom -12396.123269 kJ/mol
# Density = 1.867282 g / cm^3
# Si number density = 18.715420 Si / 1000 Ang^3
#
#
#
# Elastic Constant Matrix: (Units=GPa)
#
#
# Indices 1 2 3 4 5 6 
#
# 1 94.7399 23.4086 49.1825 0.0000 0.0000 0.0000
# 2 23.4086 100.4901 38.2459 0.0000 0.0000 0.0000
# 3 49.1825 38.2459 121.1838 0.0000 0.0000 0.0000
# 4 0.0000 0.0000 0.0000 32.6713 0.0000 0.0000
# 5 0.0000 0.0000 0.0000 0.0000 14.4342 0.0000
# 6 0.0000 0.0000 0.0000 0.0000 0.0000 31.1768
#
#
#
# Elastic Compliance Matrix: (Units=1/GPa)
#
#
# Indices 1 2 3 4 5 6 
#
# 1 0.013500 -0.001204 -0.005099 0.000000 0.000000 0.000000
# 2 -0.001204 0.011417 -0.003115 0.000000 0.000000 0.000000
# 3 -0.005099 -0.003115 0.011304 0.000000 0.000000 0.000000
# 4 0.000000 0.000000 0.000000 0.030608 0.000000 0.000000
# 5 0.000000 0.000000 0.000000 0.000000 0.069280 0.000000
# 6 0.000000 0.000000 0.000000 0.000000 0.000000 0.032075
#
#
# Mechanical properties :
#
#
# Convention : Reuss Voigt Hill
#
# Bulk Modulus (GPa) = 57.51746 59.78755 58.65250
# Shear Modulus (GPa) = 25.93168 29.36158 27.64663
#
# Velocity S-wave (km/s) = 3.72637 3.96516 3.84762
# Velocity P-wave (km/s) = 7.02238 7.27862 7.15165
#
# Compressibility (1/GPa) = 0.01738603
#
# Stress axis : x y z
#
# Youngs Moduli (GPa) = 74.07572 87.58790 88.46220
#
# Poissons Ratio (x) = 0.10546 0.45105
# Poissons Ratio (y) = 0.08919 0.27552
# Poissons Ratio (z) = 0.37770 0.27280
#
# Static dielectric constant tensor:
#      x y z
#    x 3.310750 0.000000 0.000000 
#    y 0.000000 3.726600 0.000000 
#    z 0.000000 0.000000 3.158110 
# 
# 
# High freq. dielectric constant tensor:
#      x y z
#    x 1.705670 0.000000 0.000000 
#    y 0.000000 1.754390 0.000000 
#    z 0.000000 0.000000 1.707900 
# 
# From -- ./inp_files/66238.got.cif
#   From: 2010.03.12/outbox.cif.g09.slc.cpg/sg66_34_cif.got.tgz:66238.got - 2010.04.10 21:57:39.
