data_PCOD8275474
_publ_section_title
;
Structure prediction by ZEFSAII (Michael W. Deem and Ramdas Pophale) SiO2 
 PCOD8275474
Probable space group: C C C M
;
_chemical_formula_sum "Si O2"
_cell_formula_units_Z 128
_cell_length_a 20.579718
_cell_length_b 18.723232
_cell_length_c 19.779044
_cell_angle_alpha 90.000000
_cell_angle_beta 90.000000
_cell_angle_gamma 90.000000
_cell_volume 7621.238184
_symmetry_space_group_name_H-M "C C C M"
_symmetry_group_IT_number 66
_symmetry_cell_setting 'orthorhombic'
loop_
_space_group_symop_operation_xyz
x,y,z
-x,-y,z
x,-y,1/2-z
-x,y,1/2-z
-x,-y,-z
x,y,-z
-x,y,1/2+z
x,-y,1/2+z
1/2+x,1/2+y,z
1/2-x,1/2-y,z
1/2+x,1/2-y,1/2-z
1/2-x,1/2+y,1/2-z
1/2-x,1/2-y,-z
1/2+x,1/2+y,-z
1/2-x,1/2+y,1/2+z
1/2+x,1/2-y,1/2+z
loop_
_atom_site_type_symbol
_atom_site_label
_atom_site_fract_x
_atom_site_fract_y
_atom_site_fract_z
Si Si1 0.076273 0.198687 0.187776
Si Si2 0.771029 0.545395 0.186548
Si Si3 0.065923 0.201564 0.654881
Si Si4 0.621483 0.544256 0.814782
Si Si5 0.309513 0.202018 0.802015
Si Si6 0.813564 0.292854 0.142243
Si Si7 0.119425 0.926718 0.922243
Si Si8 0.767663 0.570829 0.422906
O O1 0.083293 0.187837 0.267831
O O2 0.086952 0.117799 0.163943
O O3 0.127661 0.259067 0.166168
O O4 0.008853 0.227881 0.156021
O O5 0.799856 0.500000 0.250000
O O6 0.696005 0.562558 0.202869
O O7 0.807394 0.620245 0.173004
O O8 0.779474 0.501548 0.117958
O O9 0.117444 0.256984 0.622776
O O10 0.071238 0.129907 0.611402
O O11 0.592371 0.500000 0.750000
O O12 0.611652 0.500531 0.883147
O O13 0.250000 0.250000 0.828106
O O14 0.308975 0.196528 0.721691
O O15 0.750000 0.250000 0.116183
O O16 0.815335 0.368654 0.105125
O O17 0.193904 0.900823 0.914478
O O18 0.099969 0.938471 0.000000
O O19 0.784663 0.553489 0.500000
#
# Coordination Sequence:
#
# PCOD8275474 Si02
#       8
#    16  16  16  16  16  16  16  16
#     4  10  20  33  50  75 104 140 176 219 257 303
#     4  10  18  30  53  80 104 136 177 219 260 307
#     4  10  20  33  48  74 108 140 175 210 258 313
#     4  10  18  30  51  74 105 141 181 211 249 309
#     4  10  18  30  53  80 103 132 173 222 265 298
#     4  10  18  29  51  76 107 137 169 209 262 318
#     4  10  20  33  49  74 110 144 172 212 260 312
#     4  10  20  32  51  81 111 138 168 214 269 317
#
# _framework density 16.795171
#
# number of rings (size 3 to 8) (size 9 to 14) (size 15 to 20)
#    0.000    2.000    5.000    0.000    0.000    1.250 
#    0.000    1.250    0.000    2.625    0.000    0.875 
#    0.000    0.000    0.000    0.000    0.000    0.000 
#
# Total GULP energy -793291.153475 kJ/mol
# GULP energy per Si atom -12395.174273 kJ/mol
# Density = 1.675694 g / cm^3
# Si number density = 16.795171 Si / 1000 Ang^3
#
#
#
# Elastic Constant Matrix: (Units=GPa)
#
#
# Indices 1 2 3 4 5 6 
#
# 1 92.6344 57.9882 39.3358 0.0000 0.0000 0.0000
# 2 57.9882 113.3145 31.9344 0.0000 0.0000 0.0000
# 3 39.3358 31.9344 59.3860 0.0000 0.0000 0.0000
# 4 0.0000 0.0000 0.0000 20.3750 0.0000 0.0000
# 5 0.0000 0.0000 0.0000 0.0000 14.0195 0.0000
# 6 0.0000 0.0000 0.0000 0.0000 0.0000 22.3014
#
#
#
# Elastic Compliance Matrix: (Units=1/GPa)
#
#
# Indices 1 2 3 4 5 6 
#
# 1 0.019060 -0.007303 -0.008698 0.000000 0.000000 0.000000
# 2 -0.007303 0.013199 -0.002261 0.000000 0.000000 0.000000
# 3 -0.008698 -0.002261 0.023816 0.000000 0.000000 0.000000
# 4 0.000000 0.000000 0.000000 0.049080 0.000000 0.000000
# 5 0.000000 0.000000 0.000000 0.000000 0.071329 0.000000
# 6 0.000000 0.000000 0.000000 0.000000 0.000000 0.044840
#
#
# Mechanical properties :
#
#
# Convention : Reuss Voigt Hill
#
# Bulk Modulus (GPa) = 51.14396 58.20572 54.67484
# Shear Modulus (GPa) = 18.91330 20.41094 19.66212
#
# Velocity S-wave (km/s) = 3.35941 3.48988 3.42526
# Velocity P-wave (km/s) = 6.75020 7.13936 6.94750
#
# Compressibility (1/GPa) = 0.01955265
#
# Stress axis : x y z
#
# Youngs Moduli (GPa) = 52.46619 75.76232 41.98868
#
# Poissons Ratio (x) = 0.55326 0.36521
# Poissons Ratio (y) = 0.38314 0.09492
# Poissons Ratio (z) = 0.45635 0.17128
#
# Static dielectric constant tensor:
#      x y z
#    x 3.093720 0.000000 0.000000 
#    y 0.000000 3.126180 0.000000 
#    z 0.000000 0.000000 2.916410 
# 
# 
# High freq. dielectric constant tensor:
#      x y z
#    x 1.623700 0.000000 0.000000 
#    y 0.000000 1.647410 0.000000 
#    z 0.000000 0.000000 1.624030 
# 
# From -- ./inp_files/42169.got.cif
#   From: 2010.03.12/outbox.cif.g09.slc.cpg/sg66_22_cif.got.tgz:42169.got - 2010.04.10 21:57:39.
