data_PCOD8275296
_publ_section_title
;
Structure prediction by ZEFSAII (Michael W. Deem and Ramdas Pophale) SiO2 
 PCOD8275296
Probable space group: C C C M
;
_chemical_formula_sum "Si O2"
_cell_formula_units_Z 64
_cell_length_a 13.680116
_cell_length_b 34.525078
_cell_length_c 8.663305
_cell_angle_alpha 90.000000
_cell_angle_beta 90.000000
_cell_angle_gamma 90.000000
_cell_volume 4091.740218
_symmetry_space_group_name_H-M "C C C M"
_symmetry_group_IT_number 66
_symmetry_cell_setting 'orthorhombic'
loop_
_space_group_symop_operation_xyz
x,y,z
-x,-y,z
x,-y,1/2-z
-x,y,1/2-z
-x,-y,-z
x,y,-z
-x,y,1/2+z
x,-y,1/2+z
1/2+x,1/2+y,z
1/2-x,1/2-y,z
1/2+x,1/2-y,1/2-z
1/2-x,1/2+y,1/2-z
1/2-x,1/2-y,-z
1/2+x,1/2+y,-z
1/2-x,1/2+y,1/2+z
1/2+x,1/2-y,1/2+z
loop_
_atom_site_type_symbol
_atom_site_label
_atom_site_fract_x
_atom_site_fract_y
_atom_site_fract_z
Si Si1 0.606940 0.383079 0.681695
Si Si2 0.602532 0.232442 0.180576
Si Si3 0.891285 0.961406 0.683243
Si Si4 0.204113 0.810082 0.817941
O O1 0.500000 0.374622 0.750000
O O2 0.597206 0.388724 0.500000
O O3 0.656977 0.421605 0.755780
O O4 0.677893 0.347788 0.720798
O O5 0.500000 0.219209 0.250000
O O6 0.684308 0.200760 0.223850
O O7 0.634572 0.275010 0.238829
O O8 0.591069 0.234808 0.000000
O O9 0.891271 0.962688 0.500000
O O10 0.000000 0.960908 0.750000
O O11 0.837406 0.000000 0.750000
O O12 0.191394 0.817855 0.000000
#
# Coordination Sequence:
#
# PCOD8275296 Si02
#       4
#    16  16  16  16
#     4  11  20  29  42  62  86 115 147 180 214 254
#     4   9  18  31  47  63  85 113 144 179 219 259
#     4  10  17  27  41  58  82 112 143 175 209 251
#     4   9  18  32  45  62  86 114 144 179 217 256
#
# _framework density 15.641266
#
# number of rings (size 3 to 8) (size 9 to 14) (size 15 to 20)
#    0.000    2.250    0.000    9.000    0.000    4.000 
#    0.000    2.500    0.000    0.000    0.000    0.000 
#    0.000    1.000    0.000   10.500    0.000    5.750 
#
# Total GULP energy -396671.978152 kJ/mol
# GULP energy per Si atom -12395.999317 kJ/mol
# Density = 1.560567 g / cm^3
# Si number density = 15.641266 Si / 1000 Ang^3
#
#
#
# Elastic Constant Matrix: (Units=GPa)
#
#
# Indices 1 2 3 4 5 6 
#
# 1 74.4209 40.1564 27.7604 0.0000 0.0000 0.0000
# 2 40.1564 134.2792 55.4909 0.0000 0.0000 0.0000
# 3 27.7604 55.4909 108.8431 0.0000 0.0000 0.0000
# 4 0.0000 0.0000 0.0000 36.4978 0.0000 0.0000
# 5 0.0000 0.0000 0.0000 0.0000 21.5091 0.0000
# 6 0.0000 0.0000 0.0000 0.0000 0.0000 -0.3498
#
#
#
# Elastic Compliance Matrix: (Units=1/GPa)
#
#
# Indices 1 2 3 4 5 6 
#
# 1 0.016404 -0.004025 -0.002132 0.000000 0.000000 0.000000
# 2 -0.004025 0.010422 -0.004287 0.000000 0.000000 0.000000
# 3 -0.002132 -0.004287 0.011917 0.000000 0.000000 0.000000
# 4 0.000000 0.000000 0.000000 0.027399 0.000000 0.000000
# 5 0.000000 0.000000 0.000000 0.000000 0.046492 0.000000
# 6 0.000000 0.000000 0.000000 0.000000 0.000000 -2.859000
#
#
# Mechanical properties :
#
#
# Convention : Reuss Voigt Hill
#
# Bulk Modulus (GPa) = 56.00377 62.70649 59.35513
# Shear Modulus (GPa) = -1.83856 24.47379 11.31762
#
# Velocity S-wave (km/s) = -1.08536 3.95991 2.69285
# Velocity P-wave (km/s) = 5.85766 7.81571 6.90643
#
# Compressibility (1/GPa) = 0.01785594
#
# Stress axis : x y z
#
# Youngs Moduli (GPa) = 60.96085 95.94743 83.91388
#
# Poissons Ratio (x) = 0.38615 0.17890
# Poissons Ratio (y) = 0.24534 0.35975
# Poissons Ratio (z) = 0.12997 0.41134
#
# Static dielectric constant tensor:
#      x y z
#    x 2.443590 0.000000 0.000000 
#    y 0.000000 3.639170 0.000000 
#    z 0.000000 0.000000 2.963790 
# 
# 
# High freq. dielectric constant tensor:
#      x y z
#    x 1.547130 0.000000 0.000000 
#    y 0.000000 1.610440 0.000000 
#    z 0.000000 0.000000 1.610670 
# 
# From -- ./inp_files/5471.got.cif
#   From: 2010.03.12/outbox.cif.g09.slc.cpg/sg66_3_cif.got.tgz:5471.got - 2010.04.10 21:57:39.
