data_PCOD8275165
_publ_section_title
;
Structure prediction by ZEFSAII (Michael W. Deem and Ramdas Pophale) SiO2 
 PCOD8275165
Probable space group: C M M M
;
_chemical_formula_sum "Si O2"
_cell_formula_units_Z 72
_cell_length_a 13.775707
_cell_length_b 14.374448
_cell_length_c 16.412473
_cell_angle_alpha 90.000000
_cell_angle_beta 90.000000
_cell_angle_gamma 90.000000
_cell_volume 3249.968097
_symmetry_space_group_name_H-M "C M M M"
_symmetry_group_IT_number 65
_symmetry_cell_setting 'orthorhombic'
loop_
_space_group_symop_operation_xyz
x,y,z
-x,-y,z
x,-y,-z
-x,y,-z
-x,-y,-z
x,y,-z
-x,y,z
x,-y,z
1/2+x,1/2+y,z
1/2-x,1/2-y,z
1/2+x,1/2-y,-z
1/2-x,1/2+y,-z
1/2-x,1/2-y,-z
1/2+x,1/2+y,-z
1/2-x,1/2+y,z
1/2+x,1/2-y,z
loop_
_atom_site_type_symbol
_atom_site_label
_atom_site_fract_x
_atom_site_fract_y
_atom_site_fract_z
Si Si1 0.792515 0.609396 0.837675
Si Si2 0.608258 0.389729 0.251944
Si Si3 0.889577 0.388558 0.000000
Si Si4 0.384556 0.285606 0.589354
Si Si5 0.885722 0.602692 0.670504
O O1 0.786542 0.500000 0.850101
O O2 0.683620 0.647319 0.816792
O O3 0.834305 0.653043 0.920817
O O4 0.863479 0.633785 0.762969
O O5 0.500000 0.350650 0.233230
O O6 0.607338 0.500000 0.253946
O O7 0.647932 0.357412 0.340479
O O8 0.889293 0.500000 0.000000
O O9 0.000000 0.351998 0.000000
O O10 0.344949 0.315161 0.500000
O O11 0.500000 0.282410 0.588030
O O12 0.343432 0.181827 0.609980
O O13 0.840454 0.500000 0.651530
O O14 0.000000 0.597210 0.660316
#
# Coordination Sequence:
#
# PCOD8275165 Si02
#       5
#    16  16   8  16  16
#     4   9  17  30  49  75 103 132 169 208 253 310
#     4   9  18  33  51  70  98 138 180 221 260 296
#     4   9  16  28  51  82 111 135 165 210 256 305
#     4   9  18  32  51  75 100 132 177 221 262 309
#     4   9  17  30  49  73 103 135 163 201 260 324
#
# _framework density 22.154064999999999
#
# number of rings (size 3 to 8) (size 9 to 14) (size 15 to 20)
#    0.000    3.000    0.000    0.667    0.000    4.444 
#    0.000    7.222    0.000   10.000    0.000    4.667 
#    0.000    0.000    0.000    0.000    0.000    0.222 
#
# Total GULP energy -446086.829913 kJ/mol
# GULP energy per Si atom -12391.300831 kJ/mol
# Density = 2.210364 g / cm^3
# Si number density = 22.154065 Si / 1000 Ang^3
#
#
#
# Elastic Constant Matrix: (Units=GPa)
#
#
# Indices 1 2 3 4 5 6 
#
# 1 86.7754 4.5097 59.0186 0.0000 0.0000 0.0000
# 2 4.5097 21.0575 19.0999 0.0000 0.0000 0.0000
# 3 59.0186 19.0999 167.5633 0.0000 0.0000 0.0000
# 4 0.0000 0.0000 0.0000 22.5589 0.0000 0.0000
# 5 0.0000 0.0000 0.0000 0.0000 30.2493 0.0000
# 6 0.0000 0.0000 0.0000 0.0000 0.0000 12.0978
#
#
#
# Elastic Compliance Matrix: (Units=1/GPa)
#
#
# Indices 1 2 3 4 5 6 
#
# 1 0.015214 0.001787 -0.005562 0.000000 0.000000 0.000000
# 2 0.001787 0.053175 -0.006691 0.000000 0.000000 0.000000
# 3 -0.005562 -0.006691 0.008690 0.000000 0.000000 0.000000
# 4 0.000000 0.000000 0.000000 0.044328 0.000000 0.000000
# 5 0.000000 0.000000 0.000000 0.000000 0.033059 0.000000
# 6 0.000000 0.000000 0.000000 0.000000 0.000000 0.082659
#
#
# Mechanical properties :
#
#
# Convention : Reuss Voigt Hill
#
# Bulk Modulus (GPa) = 17.81044 48.96141 33.38593
# Shear Modulus (GPa) = 18.06534 25.83239 21.94887
#
# Velocity S-wave (km/s) = 2.85869 3.41843 3.15101
# Velocity P-wave (km/s) = 4.35350 6.14242 5.32364
#
# Compressibility (1/GPa) = 0.05614683
#
# Stress axis : x y z
#
# Youngs Moduli (GPa) = 65.72760 18.80585 115.07859
#
# Poissons Ratio (x) = -0.03361 0.64012
# Poissons Ratio (y) = -0.11745 0.76995
# Poissons Ratio (z) = 0.36560 0.12582
#
# Static dielectric constant tensor:
#      x y z
#    x 4.270440 0.000000 0.000000 
#    y 0.000000 3.913620 0.000000 
#    z 0.000000 0.000000 4.246910 
# 
# 
# High freq. dielectric constant tensor:
#      x y z
#    x 1.879550 0.000000 0.000000 
#    y 0.000000 1.850180 0.000000 
#    z 0.000000 0.000000 1.855330 
# 
# From -- ./inp_files/39769.got.cif
#   From: 2010.03.12/outbox.cif.g09.slc.cpg/sg65_20_cif.got.tgz:39769.got - 2010.04.10 20:52:16.
