data_PCOD8275785
_publ_section_title
;
Structure prediction by ZEFSAII (Michael W. Deem and Ramdas Pophale) SiO2 
 PCOD8275785
Probable space group: C C C M
;
_chemical_formula_sum "Si O2"
_cell_formula_units_Z 80
_cell_length_a 17.241127
_cell_length_b 9.046644
_cell_length_c 25.500719
_cell_angle_alpha 90.000000
_cell_angle_beta 90.000000
_cell_angle_gamma 90.000000
_cell_volume 3977.457768
_symmetry_space_group_name_H-M "C C C M"
_symmetry_group_IT_number 66
_symmetry_cell_setting 'orthorhombic'
loop_
_space_group_symop_operation_xyz
x,y,z
-x,-y,z
x,-y,1/2-z
-x,y,1/2-z
-x,-y,-z
x,y,-z
-x,y,1/2+z
x,-y,1/2+z
1/2+x,1/2+y,z
1/2-x,1/2-y,z
1/2+x,1/2-y,1/2-z
1/2-x,1/2+y,1/2-z
1/2-x,1/2-y,-z
1/2+x,1/2+y,-z
1/2-x,1/2+y,1/2+z
1/2+x,1/2-y,1/2+z
loop_
_atom_site_type_symbol
_atom_site_label
_atom_site_fract_x
_atom_site_fract_y
_atom_site_fract_z
Si Si1 0.090998 0.649542 0.651436
Si Si2 0.334234 0.697436 0.440753
Si Si3 0.407206 0.666286 0.749820
Si Si4 0.077317 0.087584 0.559682
Si Si5 0.411966 0.176127 0.351863
O O1 0.102359 0.729247 0.596170
O O2 0.127097 0.742350 0.700098
O O3 0.128279 0.485476 0.645516
O O4 0.000394 0.643554 0.661599
O O5 0.348185 0.753706 0.500000
O O6 0.250000 0.750000 0.420992
O O7 0.347864 0.520796 0.437485
O O8 0.374580 0.500000 0.750000
O O9 0.500000 0.663868 0.750000
O O10 0.374267 0.737808 0.803128
O O11 0.063631 0.142236 0.500000
O O12 0.096873 0.229726 0.594917
O O13 0.000000 0.000000 0.579411
#
# Coordination Sequence:
#
# PCOD8275785 Si02
#       5
#    16  16  16  16  16
#     4  10  19  32  50  79 112 140 178 231 283 331
#     4  10  21  37  56  77 107 148 188 227 277 341
#     4   9  17  28  49  77 107 141 178 222 272 329
#     4  10  19  33  54  80 109 143 189 235 281 341
#     4  10  19  30  52  81 111 138 175 233 287 329
#
# _framework density 20.113350000000001
#
# number of rings (size 3 to 8) (size 9 to 14) (size 15 to 20)
#    0.000    2.200    2.000    1.800    2.800    3.200 
#    0.000    3.000    0.000   10.800    0.000    0.000 
#    0.000    0.000    0.000    0.000    0.000    0.000 
#
# Total GULP energy -495779.849806 kJ/mol
# GULP energy per Si atom -12394.496245 kJ/mol
# Density = 2.006757 g / cm^3
# Si number density = 20.113350 Si / 1000 Ang^3
#
#
#
# Elastic Constant Matrix: (Units=GPa)
#
#
# Indices 1 2 3 4 5 6 
#
# 1 27.7257 11.4523 5.9104 0.0000 0.0000 0.0000
# 2 11.4523 172.9251 85.0828 0.0000 0.0000 0.0000
# 3 5.9104 85.0828 137.4990 0.0000 0.0000 0.0000
# 4 0.0000 0.0000 0.0000 33.7414 0.0000 0.0000
# 5 0.0000 0.0000 0.0000 0.0000 6.4349 0.0000
# 6 0.0000 0.0000 0.0000 0.0000 0.0000 18.6574
#
#
#
# Elastic Compliance Matrix: (Units=1/GPa)
#
#
# Indices 1 2 3 4 5 6 
#
# 1 0.037083 -0.002403 -0.000107 0.000000 0.000000 0.000000
# 2 -0.002403 0.008470 -0.005138 0.000000 0.000000 0.000000
# 3 -0.000107 -0.005138 0.010457 0.000000 0.000000 0.000000
# 4 0.000000 0.000000 0.000000 0.029637 0.000000 0.000000
# 5 0.000000 0.000000 0.000000 0.000000 0.155403 0.000000
# 6 0.000000 0.000000 0.000000 0.000000 0.000000 0.053598
#
#
# Mechanical properties :
#
#
# Convention : Reuss Voigt Hill
#
# Bulk Modulus (GPa) = 24.56175 60.33786 42.44981
# Shear Modulus (GPa) = 15.45523 27.48035 21.46779
#
# Velocity S-wave (km/s) = 2.77502 3.70032 3.27056
# Velocity P-wave (km/s) = 4.74403 6.95130 5.95090
#
# Compressibility (1/GPa) = 0.04071372
#
# Stress axis : x y z
#
# Youngs Moduli (GPa) = 26.96641 118.06504 95.63368
#
# Poissons Ratio (x) = 0.28375 0.01022
# Poissons Ratio (y) = 0.06481 0.49134
# Poissons Ratio (z) = 0.00288 0.60659
#
# Static dielectric constant tensor:
#      x y z
#    x 3.098920 0.000000 0.000000 
#    y 0.000000 3.945390 0.000000 
#    z 0.000000 0.000000 3.703240 
# 
# 
# High freq. dielectric constant tensor:
#      x y z
#    x 1.718850 0.000000 0.000000 
#    y 0.000000 1.792950 0.000000 
#    z 0.000000 0.000000 1.798260 
# 
# From -- ./inp_files/65027.got.cif
#   From: 2010.03.12/outbox.cif.g09.slc.cpg/sg66_33_cif.got.tgz:65027.got - 2010.04.10 21:57:39.
