data_PCOD8275509
_publ_section_title
;
Structure prediction by ZEFSAII (Michael W. Deem and Ramdas Pophale) SiO2 
 PCOD8275509
Probable space group: C C C M
;
_chemical_formula_sum "Si O2"
_cell_formula_units_Z 104
_cell_length_a 23.740784
_cell_length_b 12.988222
_cell_length_c 16.747719
_cell_angle_alpha 90.000000
_cell_angle_beta 90.000000
_cell_angle_gamma 90.000000
_cell_volume 5164.168751
_symmetry_space_group_name_H-M "C C C M"
_symmetry_group_IT_number 66
_symmetry_cell_setting 'orthorhombic'
loop_
_space_group_symop_operation_xyz
x,y,z
-x,-y,z
x,-y,1/2-z
-x,y,1/2-z
-x,-y,-z
x,y,-z
-x,y,1/2+z
x,-y,1/2+z
1/2+x,1/2+y,z
1/2-x,1/2-y,z
1/2+x,1/2-y,1/2-z
1/2-x,1/2+y,1/2-z
1/2-x,1/2-y,-z
1/2+x,1/2+y,-z
1/2-x,1/2+y,1/2+z
1/2+x,1/2-y,1/2+z
loop_
_atom_site_type_symbol
_atom_site_label
_atom_site_fract_x
_atom_site_fract_y
_atom_site_fract_z
Si Si1 0.137540 0.196105 0.133101
Si Si2 0.840454 0.128616 0.093599
Si Si3 0.136539 0.582619 0.590080
Si Si4 0.188153 0.282845 0.717683
Si Si5 0.856396 0.500000 0.750000
Si Si6 0.935449 0.995153 0.155632
Si Si7 0.264520 0.446237 0.908576
O O1 0.120450 0.297391 0.082667
O O2 0.142696 0.227658 0.225382
O O3 0.089196 0.111624 0.121389
O O4 0.197574 0.154714 0.102488
O O5 0.826216 0.240444 0.129470
O O6 0.903114 0.090979 0.115972
O O7 0.795447 0.045824 0.130681
O O8 0.835239 0.140590 0.000000
O O9 0.125783 0.534609 0.500000
O O10 0.106411 0.529338 0.668580
O O11 0.201436 0.574826 0.622160
O O12 0.250000 0.250000 0.745230
O O13 0.182225 0.405363 0.720520
O O14 0.927983 0.000000 0.250000
O O15 0.000000 0.000000 0.129027
O O16 0.258537 0.473736 0.000000
#
# Coordination Sequence:
#
# PCOD8275509 Si02
#       7
#    16  16  16  16   8  16  16
#     4  10  18  30  50  78 106 142 184 232 279 335
#     4  10  21  35  52  80 116 154 192 233 288 346
#     4  10  19  32  49  73 109 151 191 232 276 332
#     4  11  21  33  51  76 110 152 195 238 279 341
#     4  10  22  34  48  76 105 144 195 232 276 332
#     4  10  20  37  60  85 115 149 189 237 291 344
#     4   9  17  28  46  74 109 146 187 227 271 331
#
# _framework density 20.138767999999999
#
# number of rings (size 3 to 8) (size 9 to 14) (size 15 to 20)
#    0.000    2.000    1.538    3.692    0.000    4.308 
#    0.000    0.000    0.000    0.000    0.000    8.615 
#    0.000    6.154    0.000    0.000    0.000    0.000 
#
# Total GULP energy -644316.668571 kJ/mol
# GULP energy per Si atom -12390.705165 kJ/mol
# Density = 2.009293 g / cm^3
# Si number density = 20.138768 Si / 1000 Ang^3
#
#
#
# Elastic Constant Matrix: (Units=GPa)
#
#
# Indices 1 2 3 4 5 6 
#
# 1 62.9588 20.3898 11.5890 0.0000 0.0000 0.0000
# 2 20.3898 117.5284 31.9724 0.0000 0.0000 0.0000
# 3 11.5890 31.9724 104.9676 0.0000 0.0000 0.0000
# 4 0.0000 0.0000 0.0000 30.1953 0.0000 0.0000
# 5 0.0000 0.0000 0.0000 0.0000 16.9958 0.0000
# 6 0.0000 0.0000 0.0000 0.0000 0.0000 14.3291
#
#
#
# Elastic Compliance Matrix: (Units=1/GPa)
#
#
# Indices 1 2 3 4 5 6 
#
# 1 0.016937 -0.002649 -0.001063 0.000000 0.000000 0.000000
# 2 -0.002649 0.009692 -0.002660 0.000000 0.000000 0.000000
# 3 -0.001063 -0.002660 0.010454 0.000000 0.000000 0.000000
# 4 0.000000 0.000000 0.000000 0.033118 0.000000 0.000000
# 5 0.000000 0.000000 0.000000 0.000000 0.058838 0.000000
# 6 0.000000 0.000000 0.000000 0.000000 0.000000 0.069788
#
#
# Mechanical properties :
#
#
# Convention : Reuss Voigt Hill
#
# Bulk Modulus (GPa) = 41.08561 45.92856 43.50709
# Shear Modulus (GPa) = 22.76004 27.07097 24.91550
#
# Velocity S-wave (km/s) = 3.36543 3.67034 3.52119
# Velocity P-wave (km/s) = 5.96214 6.38885 6.17918
#
# Compressibility (1/GPa) = 0.02433942
#
# Stress axis : x y z
#
# Youngs Moduli (GPa) = 59.04224 103.18123 95.65546
#
# Poissons Ratio (x) = 0.27335 0.10168
# Poissons Ratio (y) = 0.15641 0.25440
# Poissons Ratio (z) = 0.06276 0.27441
#
# Static dielectric constant tensor:
#      x y z
#    x 3.229030 0.000000 0.000000 
#    y 0.000000 3.692740 0.000000 
#    z 0.000000 0.000000 3.803500 
# 
# 
# High freq. dielectric constant tensor:
#      x y z
#    x 1.719240 0.000000 0.000000 
#    y 0.000000 1.786480 0.000000 
#    z 0.000000 0.000000 1.803920 
# 
# From -- ./inp_files/39068.got.cif
#   From: 2010.03.12/outbox.cif.g09.slc.cpg/sg66_20_cif.got.tgz:39068.got - 2010.04.10 21:57:39.
