data_PCOD8275288
_publ_section_title
;
Structure prediction by ZEFSAII (Michael W. Deem and Ramdas Pophale) SiO2 
 PCOD8275288
Probable space group: C C C M
;
_chemical_formula_sum "Si O2"
_cell_formula_units_Z 96
_cell_length_a 30.950456
_cell_length_b 20.139372
_cell_length_c 8.784808
_cell_angle_alpha 90.000000
_cell_angle_beta 90.000000
_cell_angle_gamma 90.000000
_cell_volume 5475.770654
_symmetry_space_group_name_H-M "C C C M"
_symmetry_group_IT_number 66
_symmetry_cell_setting 'orthorhombic'
loop_
_space_group_symop_operation_xyz
x,y,z
-x,-y,z
x,-y,1/2-z
-x,y,1/2-z
-x,-y,-z
x,y,-z
-x,y,1/2+z
x,-y,1/2+z
1/2+x,1/2+y,z
1/2-x,1/2-y,z
1/2+x,1/2-y,1/2-z
1/2-x,1/2+y,1/2-z
1/2-x,1/2-y,-z
1/2+x,1/2+y,-z
1/2-x,1/2+y,1/2+z
1/2+x,1/2-y,1/2+z
loop_
_atom_site_type_symbol
_atom_site_label
_atom_site_fract_x
_atom_site_fract_y
_atom_site_fract_z
Si Si1 0.201013 0.930674 0.819406
Si Si2 0.864328 0.822755 0.676693
Si Si3 0.130686 0.326609 0.319101
Si Si4 0.298885 0.931303 0.820994
Si Si5 0.459179 0.682030 0.822416
Si Si6 0.042966 0.673796 0.320251
O O1 0.170569 0.872636 0.749515
O O2 0.250047 0.915024 0.768287
O O3 0.185179 0.000000 0.750000
O O4 0.196616 0.935282 0.000000
O O5 0.853504 0.817307 0.500000
O O6 0.860655 0.748139 0.744100
O O7 0.912720 0.853196 0.701992
O O8 0.124672 0.325769 0.500000
O O9 0.170689 0.371579 0.265242
O O10 0.087106 0.357644 0.246413
O O11 0.315374 0.000000 0.750000
O O12 0.301317 0.939483 0.000000
O O13 0.500000 0.640850 0.750000
O O14 0.457383 0.749899 0.729304
O O15 0.467196 0.696512 0.000000
O O16 0.042221 0.665697 0.500000
O O17 0.000000 0.638596 0.250000
#
# Coordination Sequence:
#
# PCOD8275288 Si02
#       6
#    16  16  16  16  16  16
#     4   9  17  31  48  67  89 119 153 187 225 271
#     4   8  15  27  45  67  92 117 149 189 227 262
#     4   9  17  30  46  68  93 119 150 188 226 264
#     4   9  18  31  49  68  90 119 152 185 224 271
#     4   9  15  25  41  63  90 120 150 185 224 268
#     4  10  17  26  42  65  92 122 150 182 221 266
#
# _framework density 17.531777999999999
#
# number of rings (size 3 to 8) (size 9 to 14) (size 15 to 20)
#    0.000    3.000    0.000    4.000    0.000    1.333 
#    0.000    7.500    0.000    1.000    0.000   16.333 
#    0.000    0.000    0.000    0.000    0.000    0.000 
#
# Total GULP energy -594753.998602 kJ/mol
# GULP energy per Si atom -12390.708304 kJ/mol
# Density = 1.749187 g / cm^3
# Si number density = 17.531778 Si / 1000 Ang^3
#
#
#
# Elastic Constant Matrix: (Units=GPa)
#
#
# Indices 1 2 3 4 5 6 
#
# 1 152.7291 78.3883 37.7170 0.0000 0.0000 0.0000
# 2 78.3883 83.6688 22.6038 0.0000 0.0000 0.0000
# 3 37.7170 22.6038 49.2444 0.0000 0.0000 0.0000
# 4 0.0000 0.0000 0.0000 17.8517 0.0000 0.0000
# 5 0.0000 0.0000 0.0000 0.0000 25.0833 0.0000
# 6 0.0000 0.0000 0.0000 0.0000 0.0000 7.7030
#
#
#
# Elastic Compliance Matrix: (Units=1/GPa)
#
#
# Indices 1 2 3 4 5 6 
#
# 1 0.013709 -0.011424 -0.005256 0.000000 0.000000 0.000000
# 2 -0.011424 0.023163 -0.001883 0.000000 0.000000 0.000000
# 3 -0.005256 -0.001883 0.025197 0.000000 0.000000 0.000000
# 4 0.000000 0.000000 0.000000 0.056017 0.000000 0.000000
# 5 0.000000 0.000000 0.000000 0.000000 0.039867 0.000000
# 6 0.000000 0.000000 0.000000 0.000000 0.000000 0.129819
#
#
# Mechanical properties :
#
#
# Convention : Reuss Voigt Hill
#
# Bulk Modulus (GPa) = 40.09002 62.56229 51.32616
# Shear Modulus (GPa) = 15.00547 19.92314 17.46430
#
# Velocity S-wave (km/s) = 2.92875 3.37471 3.15961
# Velocity P-wave (km/s) = 5.86119 7.13775 6.53073
#
# Compressibility (1/GPa) = 0.02494386
#
# Stress axis : x y z
#
# Youngs Moduli (GPa) = 72.94633 43.17212 39.68752
#
# Poissons Ratio (x) = 0.49318 0.20860
# Poissons Ratio (y) = 0.83331 0.07472
# Poissons Ratio (z) = 0.38342 0.08128
#
# Static dielectric constant tensor:
#      x y z
#    x 4.111600 0.000000 0.000000 
#    y 0.000000 3.041810 0.000000 
#    z 0.000000 0.000000 3.105980 
# 
# 
# High freq. dielectric constant tensor:
#      x y z
#    x 1.699750 0.000000 0.000000 
#    y 0.000000 1.627320 0.000000 
#    z 0.000000 0.000000 1.661290 
# 
# From -- ./inp_files/10472.got.cif
#   From: 2010.03.12/outbox.cif.g09.slc.cpg/sg66_6_cif.got.tgz:10472.got - 2010.04.10 21:57:39.
