data_PCOD8275649
_publ_section_title
;
Structure prediction by ZEFSAII (Michael W. Deem and Ramdas Pophale) SiO2 
 PCOD8275649
Probable space group: C C C M
;
_chemical_formula_sum "Si O2"
_cell_formula_units_Z 96
_cell_length_a 11.444702
_cell_length_b 22.976377
_cell_length_c 19.509078
_cell_angle_alpha 90.000000
_cell_angle_beta 90.000000
_cell_angle_gamma 90.000000
_cell_volume 5130.063993
_symmetry_space_group_name_H-M "C C C M"
_symmetry_group_IT_number 66
_symmetry_cell_setting 'orthorhombic'
loop_
_space_group_symop_operation_xyz
x,y,z
-x,-y,z
x,-y,1/2-z
-x,y,1/2-z
-x,-y,-z
x,y,-z
-x,y,1/2+z
x,-y,1/2+z
1/2+x,1/2+y,z
1/2-x,1/2-y,z
1/2+x,1/2-y,1/2-z
1/2-x,1/2+y,1/2-z
1/2-x,1/2-y,-z
1/2+x,1/2+y,-z
1/2-x,1/2+y,1/2+z
1/2+x,1/2-y,1/2+z
loop_
_atom_site_type_symbol
_atom_site_label
_atom_site_fract_x
_atom_site_fract_y
_atom_site_fract_z
Si Si1 0.332003 0.802865 0.921156
Si Si2 0.724636 0.871313 0.807880
Si Si3 0.627798 0.990823 0.830197
Si Si4 0.537287 0.221146 0.671659
Si Si5 0.720775 0.599048 0.347246
Si Si6 0.021945 0.850930 0.328140
O O1 0.250000 0.750000 0.894254
O O2 0.446966 0.812938 0.875914
O O3 0.262113 0.862475 0.911051
O O4 0.365863 0.793319 0.000000
O O5 0.664316 0.810536 0.830984
O O6 0.731653 0.875329 0.725032
O O7 0.852935 0.879896 0.839928
O O8 0.655629 0.923675 0.843462
O O9 0.729862 0.033691 0.858855
O O10 0.500000 0.000000 0.864398
O O11 0.619599 0.000000 0.750000
O O12 0.500000 0.217572 0.750000
O O13 0.532138 0.286223 0.639174
O O14 0.579168 0.604460 0.352930
O O15 0.000000 0.836410 0.250000
#
# Coordination Sequence:
#
# PCOD8275649 Si02
#       6
#    16  16  16  16  16  16
#     4  11  22  35  54  82 113 147 189 231 278 335
#     4  10  19  30  51  83 109 140 180 227 284 333
#     4   9  18  29  48  75 106 141 179 225 278 329
#     4  11  19  31  56  79 110 144 182 231 282 331
#     4  10  18  34  51  75 111 143 182 229 278 332
#     4   9  19  29  47  78 109 141 180 226 279 333
#
# _framework density 18.713217
#
# number of rings (size 3 to 8) (size 9 to 14) (size 15 to 20)
#    0.000    2.000    3.333    1.500    2.333    0.667 
#    0.000    3.333    0.000    7.500    0.000    1.167 
#    0.000    0.000    0.000    0.000    0.000    0.000 
#
# Total GULP energy -594629.646749 kJ/mol
# GULP energy per Si atom -12388.117641 kJ/mol
# Density = 1.867062 g / cm^3
# Si number density = 18.713217 Si / 1000 Ang^3
#
#
#
# Elastic Constant Matrix: (Units=GPa)
#
#
# Indices 1 2 3 4 5 6 
#
# 1 145.3237 51.2580 18.5396 0.0000 0.0000 0.0000
# 2 51.2580 101.3284 4.9741 0.0000 0.0000 0.0000
# 3 18.5396 4.9741 38.5623 0.0000 0.0000 0.0000
# 4 0.0000 0.0000 0.0000 11.0606 0.0000 0.0000
# 5 0.0000 0.0000 0.0000 0.0000 14.1528 0.0000
# 6 0.0000 0.0000 0.0000 0.0000 0.0000 27.9570
#
#
#
# Elastic Compliance Matrix: (Units=1/GPa)
#
#
# Indices 1 2 3 4 5 6 
#
# 1 0.008874 -0.004307 -0.003711 0.000000 0.000000 0.000000
# 2 -0.004307 0.012022 0.000520 0.000000 0.000000 0.000000
# 3 -0.003711 0.000520 0.027649 0.000000 0.000000 0.000000
# 4 0.000000 0.000000 0.000000 0.090411 0.000000 0.000000
# 5 0.000000 0.000000 0.000000 0.000000 0.070657 0.000000
# 6 0.000000 0.000000 0.000000 0.000000 0.000000 0.035769
#
#
# Mechanical properties :
#
#
# Convention : Reuss Voigt Hill
#
# Bulk Modulus (GPa) = 29.80664 48.30641 39.05653
# Shear Modulus (GPa) = 18.41210 24.66357 21.53784
#
# Velocity S-wave (km/s) = 3.14013 3.63433 3.39623
# Velocity P-wave (km/s) = 5.39536 6.59403 6.02458
#
# Compressibility (1/GPa) = 0.03354957
#
# Stress axis : x y z
#
# Youngs Moduli (GPa) = 112.69379 83.18114 36.16767
#
# Poissons Ratio (x) = 0.35823 0.13421
# Poissons Ratio (y) = 0.48533 -0.01880
# Poissons Ratio (z) = 0.41817 -0.04324
#
# Static dielectric constant tensor:
#      x y z
#    x 3.763980 0.000000 0.000000 
#    y 0.000000 3.509520 0.000000 
#    z 0.000000 0.000000 2.802480 
# 
# 
# High freq. dielectric constant tensor:
#      x y z
#    x 1.739510 0.000000 0.000000 
#    y 0.000000 1.726290 0.000000 
#    z 0.000000 0.000000 1.654220 
# 
# From -- ./inp_files/38888.got.cif
#   From: 2010.03.12/outbox.cif.g09.slc.cpg/sg66_20_cif.got.tgz:38888.got - 2010.04.10 21:57:39.
