data_PCOD8275784
_publ_section_title
;
Structure prediction by ZEFSAII (Michael W. Deem and Ramdas Pophale) SiO2 
 PCOD8275784
Probable space group: C C C M
;
_chemical_formula_sum "Si O2"
_cell_formula_units_Z 120
_cell_length_a 19.699750
_cell_length_b 15.382123
_cell_length_c 19.820561
_cell_angle_alpha 90.000000
_cell_angle_beta 90.000000
_cell_angle_gamma 90.000000
_cell_volume 6006.105232
_symmetry_space_group_name_H-M "C C C M"
_symmetry_group_IT_number 66
_symmetry_cell_setting 'orthorhombic'
loop_
_space_group_symop_operation_xyz
x,y,z
-x,-y,z
x,-y,1/2-z
-x,y,1/2-z
-x,-y,-z
x,y,-z
-x,y,1/2+z
x,-y,1/2+z
1/2+x,1/2+y,z
1/2-x,1/2-y,z
1/2+x,1/2-y,1/2-z
1/2-x,1/2+y,1/2-z
1/2-x,1/2-y,-z
1/2+x,1/2+y,-z
1/2-x,1/2+y,1/2+z
1/2+x,1/2-y,1/2+z
loop_
_atom_site_type_symbol
_atom_site_label
_atom_site_fract_x
_atom_site_fract_y
_atom_site_fract_z
Si Si1 0.441293 0.570153 0.072324
Si Si2 0.547078 0.083210 0.577526
Si Si3 0.620410 0.751538 0.292214
Si Si4 0.500000 0.365397 0.250000
Si Si5 0.057901 0.266438 0.424303
Si Si6 0.721974 0.664148 0.801158
Si Si7 0.863604 0.415481 0.292614
Si Si8 0.887157 0.961443 0.180894
O O1 0.500000 0.500000 0.072241
O O2 0.469501 0.667631 0.082546
O O3 0.386725 0.540850 0.128416
O O4 0.403418 0.566814 0.000000
O O5 0.574725 0.084195 0.500000
O O6 0.504467 0.170155 0.593079
O O7 0.609499 0.078529 0.630389
O O8 0.500000 0.000000 0.589299
O O9 0.556031 0.688639 0.288596
O O10 0.620592 0.780666 0.371230
O O11 0.689167 0.702055 0.269204
O O12 0.603671 0.832636 0.244110
O O13 0.463575 0.425587 0.193482
O O14 0.085040 0.286621 0.500000
O O15 0.750000 0.750000 0.840883
O O16 0.782117 0.595595 0.789794
O O17 0.662471 0.616607 0.843401
O O18 0.884383 0.500000 0.250000
O O19 0.856212 0.000000 0.250000
#
# Coordination Sequence:
#
# PCOD8275784 Si02
#       8
#    16  16  16   8  16  16  16  16
#     4  10  20  32  48  76 111 142 173 215 272 332
#     4  10  22  40  61  88 121 154 194 248 306 359
#     4  10  19  34  56  81 112 145 190 240 289 350
#     4  10  19  30  51  80 106 140 183 232 286 342
#     4  10  20  34  54  82 115 148 182 231 295 350
#     4   9  21  37  54  76 107 148 190 235 283 342
#     4  11  22  36  57  83 113 150 194 240 294 354
#     4  11  19  31  53  77 103 136 181 228 276 332
#
# _framework density 19.979669000000001
#
# number of rings (size 3 to 8) (size 9 to 14) (size 15 to 20)
#    0.000    1.867    0.000    5.400    0.000    3.467 
#    0.000    0.667    0.000    8.400    0.000    0.000 
#    0.000    0.000    0.000    0.000    0.000    0.000 
#
# Total GULP energy -743419.037739 kJ/mol
# GULP energy per Si atom -12390.317296 kJ/mol
# Density = 1.993419 g / cm^3
# Si number density = 19.979669 Si / 1000 Ang^3
#
#
#
# Elastic Constant Matrix: (Units=GPa)
#
#
# Indices 1 2 3 4 5 6 
#
# 1 92.3257 46.5473 50.6202 0.0000 0.0000 0.0000
# 2 46.5473 128.7985 50.6325 0.0000 0.0000 0.0000
# 3 50.6202 50.6325 142.4127 0.0000 0.0000 0.0000
# 4 0.0000 0.0000 0.0000 29.2218 0.0000 0.0000
# 5 0.0000 0.0000 0.0000 0.0000 13.8128 0.0000
# 6 0.0000 0.0000 0.0000 0.0000 0.0000 32.2294
#
#
#
# Elastic Compliance Matrix: (Units=1/GPa)
#
#
# Indices 1 2 3 4 5 6 
#
# 1 0.014931 -0.003847 -0.003939 0.000000 0.000000 0.000000
# 2 -0.003847 0.010017 -0.002194 0.000000 0.000000 0.000000
# 3 -0.003939 -0.002194 0.009202 0.000000 0.000000 0.000000
# 4 0.000000 0.000000 0.000000 0.034221 0.000000 0.000000
# 5 0.000000 0.000000 0.000000 0.000000 0.072396 0.000000
# 6 0.000000 0.000000 0.000000 0.000000 0.000000 0.031028
#
#
# Mechanical properties :
#
#
# Convention : Reuss Voigt Hill
#
# Bulk Modulus (GPa) = 70.47782 73.23742 71.85762
# Shear Modulus (GPa) = 25.44724 29.43526 27.44125
#
# Velocity S-wave (km/s) = 3.57270 3.84247 3.71004
# Velocity P-wave (km/s) = 7.23673 7.51144 7.37536
#
# Compressibility (1/GPa) = 0.01418886
#
# Stress axis : x y z
#
# Youngs Moduli (GPa) = 66.97608 99.83126 108.67191
#
# Poissons Ratio (x) = 0.38408 0.42808
# Poissons Ratio (y) = 0.25768 0.23841
# Poissons Ratio (z) = 0.26383 0.21901
#
# Static dielectric constant tensor:
#      x y z
#    x 3.471060 0.000000 0.000000 
#    y 0.000000 4.044420 0.000000 
#    z 0.000000 0.000000 4.005920 
# 
# 
# High freq. dielectric constant tensor:
#      x y z
#    x 1.740650 0.000000 0.000000 
#    y 0.000000 1.808090 0.000000 
#    z 0.000000 0.000000 1.771390 
# 
# From -- ./inp_files/52008.got.cif
#   From: 2010.03.12/outbox.cif.g09.slc.cpg/sg66_27_cif.got.tgz:52008.got - 2010.04.10 21:57:39.
