data_PCOD8275468
_publ_section_title
;
Structure prediction by ZEFSAII (Michael W. Deem and Ramdas Pophale) SiO2 
 PCOD8275468
Probable space group: C C C M
;
_chemical_formula_sum "Si O2"
_cell_formula_units_Z 104
_cell_length_a 20.171193
_cell_length_b 17.243734
_cell_length_c 16.649324
_cell_angle_alpha 90.000000
_cell_angle_beta 90.000000
_cell_angle_gamma 90.000000
_cell_volume 5791.079200
_symmetry_space_group_name_H-M "C C C M"
_symmetry_group_IT_number 66
_symmetry_cell_setting 'orthorhombic'
loop_
_space_group_symop_operation_xyz
x,y,z
-x,-y,z
x,-y,1/2-z
-x,y,1/2-z
-x,-y,-z
x,y,-z
-x,y,1/2+z
x,-y,1/2+z
1/2+x,1/2+y,z
1/2-x,1/2-y,z
1/2+x,1/2-y,1/2-z
1/2-x,1/2+y,1/2-z
1/2-x,1/2-y,-z
1/2+x,1/2+y,-z
1/2-x,1/2+y,1/2+z
1/2+x,1/2-y,1/2+z
loop_
_atom_site_type_symbol
_atom_site_label
_atom_site_fract_x
_atom_site_fract_y
_atom_site_fract_z
Si Si1 0.073212 0.663170 0.778730
Si Si2 0.631070 0.000000 0.750000
Si Si3 0.019782 0.082485 0.158200
Si Si4 0.843351 0.882331 0.090805
Si Si5 0.871368 0.284474 0.375496
Si Si6 0.300773 0.939274 0.590337
Si Si7 0.480224 0.742698 0.089174
O O1 0.084537 0.571174 0.775809
O O2 0.126799 0.704188 0.721040
O O3 0.074799 0.703832 0.865648
O O4 0.000000 0.683895 0.750000
O O5 0.672742 0.013513 0.667792
O O6 0.099056 0.090925 0.150903
O O7 0.000000 0.082786 0.250000
O O8 0.981056 0.153690 0.118049
O O9 0.000000 0.000000 0.118310
O O10 0.828653 0.791264 0.104306
O O11 0.776996 0.929776 0.108074
O O12 0.868477 0.895445 0.000000
O O13 0.836725 0.356982 0.416985
O O14 0.946167 0.278714 0.408454
O O15 0.310509 0.977710 0.500000
O O16 0.452795 0.742982 0.000000
#
# Coordination Sequence:
#
# PCOD8275468 Si02
#       7
#    16   8  16  16  16  16  16
#     4   9  18  32  48  69  98 131 168 205 246 294
#     4  10  21  34  50  70  99 138 170 208 250 292
#     4  10  20  33  50  73 101 130 161 201 249 302
#     4  10  19  31  50  75  99 123 154 198 250 300
#     4   9  16  30  50  72  98 124 157 202 251 298
#     4  10  20  33  50  73  99 128 164 205 249 296
#     4  10  18  29  49  74 100 131 166 205 249 300
#
# _framework density 17.958656000000001
#
# number of rings (size 3 to 8) (size 9 to 14) (size 15 to 20)
#    0.000    2.308    0.000    5.769    0.000    4.308 
#    0.000    0.000    0.000    5.538    0.000    0.000 
#    0.000   11.077    0.000    0.000    0.000    0.000 
#
# Total GULP energy -644341.665004 kJ/mol
# GULP energy per Si atom -12391.185865 kJ/mol
# Density = 1.791778 g / cm^3
# Si number density = 17.958656 Si / 1000 Ang^3
#
#
#
# Elastic Constant Matrix: (Units=GPa)
#
#
# Indices 1 2 3 4 5 6 
#
# 1 43.0781 17.3241 30.3247 0.0000 0.0000 0.0000
# 2 17.3241 81.7405 40.6111 0.0000 0.0000 0.0000
# 3 30.3247 40.6111 126.7774 0.0000 0.0000 0.0000
# 4 0.0000 0.0000 0.0000 19.6841 0.0000 0.0000
# 5 0.0000 0.0000 0.0000 0.0000 25.5644 0.0000
# 6 0.0000 0.0000 0.0000 0.0000 0.0000 12.4196
#
#
#
# Elastic Compliance Matrix: (Units=1/GPa)
#
#
# Indices 1 2 3 4 5 6 
#
# 1 0.028586 -0.003165 -0.005824 0.000000 0.000000 0.000000
# 2 -0.003165 0.014900 -0.004016 0.000000 0.000000 0.000000
# 3 -0.005824 -0.004016 0.010567 0.000000 0.000000 0.000000
# 4 0.000000 0.000000 0.000000 0.050803 0.000000 0.000000
# 5 0.000000 0.000000 0.000000 0.000000 0.039117 0.000000
# 6 0.000000 0.000000 0.000000 0.000000 0.000000 0.080518
#
#
# Mechanical properties :
#
#
# Convention : Reuss Voigt Hill
#
# Bulk Modulus (GPa) = 35.65857 47.56843 41.61350
# Shear Modulus (GPa) = 19.24202 22.42270 20.83236
#
# Velocity S-wave (km/s) = 3.27687 3.53735 3.40960
# Velocity P-wave (km/s) = 5.84946 6.57488 6.22275
#
# Compressibility (1/GPa) = 0.02804375
#
# Stress axis : x y z
#
# Youngs Moduli (GPa) = 34.98196 67.11484 94.63169
#
# Poissons Ratio (x) = 0.21243 0.55112
# Poissons Ratio (y) = 0.11072 0.38003
# Poissons Ratio (z) = 0.20373 0.26952
#
# Static dielectric constant tensor:
#      x y z
#    x 3.101070 0.000000 0.000000 
#    y 0.000000 3.471520 0.000000 
#    z 0.000000 0.000000 3.570080 
# 
# 
# High freq. dielectric constant tensor:
#      x y z
#    x 1.668970 0.000000 0.000000 
#    y 0.000000 1.689090 0.000000 
#    z 0.000000 0.000000 1.705070 
# 
# From -- ./inp_files/31368.got.cif
#   From: 2010.03.12/outbox.cif.g09.slc.cpg/sg66_16_cif.got.tgz:31368.got - 2010.04.10 21:57:39.
