data_PCOD8275344
_publ_section_title
;
Structure prediction by ZEFSAII (Michael W. Deem and Ramdas Pophale) SiO2 
 PCOD8275344
Probable space group: C C C M
;
_chemical_formula_sum "Si O2"
_cell_formula_units_Z 112
_cell_length_a 24.384234
_cell_length_b 12.725981
_cell_length_c 19.506928
_cell_angle_alpha 90.000000
_cell_angle_beta 90.000000
_cell_angle_gamma 90.000000
_cell_volume 6053.259173
_symmetry_space_group_name_H-M "C C C M"
_symmetry_group_IT_number 66
_symmetry_cell_setting 'orthorhombic'
loop_
_space_group_symop_operation_xyz
x,y,z
-x,-y,z
x,-y,1/2-z
-x,y,1/2-z
-x,-y,-z
x,y,-z
-x,y,1/2+z
x,-y,1/2+z
1/2+x,1/2+y,z
1/2-x,1/2-y,z
1/2+x,1/2-y,1/2-z
1/2-x,1/2+y,1/2-z
1/2-x,1/2-y,-z
1/2+x,1/2+y,-z
1/2-x,1/2+y,1/2+z
1/2+x,1/2-y,1/2+z
loop_
_atom_site_type_symbol
_atom_site_label
_atom_site_fract_x
_atom_site_fract_y
_atom_site_fract_z
Si Si1 0.769984 0.405138 0.421841
Si Si2 0.643453 0.564558 0.685442
Si Si3 0.231372 0.572636 0.187849
Si Si4 0.644805 0.387965 0.576776
Si Si5 0.871085 0.684550 0.146430
Si Si6 0.629419 0.205507 0.194172
Si Si7 0.937796 0.511062 0.668827
O O1 0.791976 0.413781 0.500000
O O2 0.770043 0.519057 0.386693
O O3 0.709070 0.356983 0.421244
O O4 0.808122 0.331851 0.375153
O O5 0.618611 0.500000 0.750000
O O6 0.705738 0.597835 0.705562
O O7 0.635231 0.494334 0.618671
O O8 0.614708 0.676339 0.669646
O O9 0.206795 0.500000 0.250000
O O10 0.193120 0.674944 0.181352
O O11 0.624811 0.410679 0.500000
O O12 0.609723 0.289948 0.606464
O O13 0.880683 0.706833 0.225302
O O14 0.905224 0.579674 0.127477
O O15 0.589221 0.125103 0.153241
O O16 0.933175 0.500000 0.750000
O O17 0.000000 0.500000 0.643270
#
# Coordination Sequence:
#
# PCOD8275344 Si02
#       7
#    16  16  16  16  16  16  16
#     4  10  19  30  46  74 109 141 176 213 255 308
#     4  10  20  30  48  76 108 141 174 212 246 306
#     4  10  17  29  46  73 107 141 173 209 253 307
#     4  10  21  34  48  74 110 146 177 209 254 310
#     4  11  18  30  53  76 101 135 175 217 263 306
#     4  11  18  31  52  77 105 136 174 218 262 309
#     4   9  19  34  54  82 106 129 166 221 277 315
#
# _framework density 18.502428999999999
#
# number of rings (size 3 to 8) (size 9 to 14) (size 15 to 20)
#    0.000    1.857    4.286    1.714    0.000    2.286 
#    0.000    0.714    0.000    6.000    0.000    1.000 
#    0.000    0.000    0.000    0.000    0.000    0.000 
#
# Total GULP energy -694010.223787 kJ/mol
# GULP energy per Si atom -12393.039710 kJ/mol
# Density = 1.846032 g / cm^3
# Si number density = 18.502429 Si / 1000 Ang^3
#
#
#
# Elastic Constant Matrix: (Units=GPa)
#
#
# Indices 1 2 3 4 5 6 
#
# 1 45.1810 43.8114 20.5928 0.0000 0.0000 0.0000
# 2 43.8114 167.6456 44.5117 0.0000 0.0000 0.0000
# 3 20.5928 44.5117 80.0372 0.0000 0.0000 0.0000
# 4 0.0000 0.0000 0.0000 17.4767 0.0000 0.0000
# 5 0.0000 0.0000 0.0000 0.0000 7.0019 0.0000
# 6 0.0000 0.0000 0.0000 0.0000 0.0000 13.3096
#
#
#
# Elastic Compliance Matrix: (Units=1/GPa)
#
#
# Indices 1 2 3 4 5 6 
#
# 1 0.030718 -0.006956 -0.004035 0.000000 0.000000 0.000000
# 2 -0.006956 0.008574 -0.002978 0.000000 0.000000 0.000000
# 3 -0.004035 -0.002978 0.015189 0.000000 0.000000 0.000000
# 4 0.000000 0.000000 0.000000 0.057219 0.000000 0.000000
# 5 0.000000 0.000000 0.000000 0.000000 0.142819 0.000000
# 6 0.000000 0.000000 0.000000 0.000000 0.000000 0.075134
#
#
# Mechanical properties :
#
#
# Convention : Reuss Voigt Hill
#
# Bulk Modulus (GPa) = 37.67724 56.74397 47.21060
# Shear Modulus (GPa) = 13.64492 19.82085 16.73288
#
# Velocity S-wave (km/s) = 2.71858 3.27656 3.01052
# Velocity P-wave (km/s) = 5.50108 6.71188 6.13642
#
# Compressibility (1/GPa) = 0.02654122
#
# Stress axis : x y z
#
# Youngs Moduli (GPa) = 32.55472 116.63639 65.83866
#
# Poissons Ratio (x) = 0.81135 0.26564
# Poissons Ratio (y) = 0.22646 0.19609
# Poissons Ratio (z) = 0.13135 0.34738
#
# Static dielectric constant tensor:
#      x y z
#    x 3.108320 0.000000 0.000000 
#    y 0.000000 3.572690 0.000000 
#    z 0.000000 0.000000 3.230970 
# 
# 
# High freq. dielectric constant tensor:
#      x y z
#    x 1.666330 0.000000 0.000000 
#    y 0.000000 1.728540 0.000000 
#    z 0.000000 0.000000 1.693060 
# 
# From -- ./inp_files/52612.got.cif
#   From: 2010.03.12/outbox.cif.g09.slc.cpg/sg66_27_cif.got.tgz:52612.got - 2010.04.10 21:57:39.
