data_PCOD8275237
_publ_section_title
;
Structure prediction by ZEFSAII (Michael W. Deem and Ramdas Pophale) SiO2 
 PCOD8275237
Probable space group: C C C M
;
_chemical_formula_sum "Si O2"
_cell_formula_units_Z 100
_cell_length_a 26.173207
_cell_length_b 20.563321
_cell_length_c 13.624473
_cell_angle_alpha 90.000000
_cell_angle_beta 90.000000
_cell_angle_gamma 90.000000
_cell_volume 7332.801143
_symmetry_space_group_name_H-M "C C C M"
_symmetry_group_IT_number 66
_symmetry_cell_setting 'orthorhombic'
loop_
_space_group_symop_operation_xyz
x,y,z
-x,-y,z
x,-y,1/2-z
-x,y,1/2-z
-x,-y,-z
x,y,-z
-x,y,1/2+z
x,-y,1/2+z
1/2+x,1/2+y,z
1/2-x,1/2-y,z
1/2+x,1/2-y,1/2-z
1/2-x,1/2+y,1/2-z
1/2-x,1/2-y,-z
1/2+x,1/2+y,-z
1/2-x,1/2+y,1/2+z
1/2+x,1/2-y,1/2+z
loop_
_atom_site_type_symbol
_atom_site_label
_atom_site_fract_x
_atom_site_fract_y
_atom_site_fract_z
Si Si1 0.416981 0.046494 0.113009
Si Si2 0.308413 0.271123 0.111071
Si Si3 0.276688 0.400019 0.194496
Si Si4 0.154177 0.427085 0.390897
Si Si5 0.000000 0.500000 0.250000
Si Si6 0.268215 0.536240 0.890668
Si Si7 0.162214 0.643274 0.300933
O O1 0.379719 0.106380 0.134719
O O2 0.389486 0.978207 0.136538
O O3 0.466860 0.048190 0.181393
O O4 0.433846 0.050693 0.000000
O O5 0.250000 0.250000 0.112997
O O6 0.313952 0.342396 0.159366
O O7 0.341611 0.219847 0.174176
O O8 0.329245 0.273093 0.000000
O O9 0.290106 0.465076 0.134188
O O10 0.287372 0.411222 0.310658
O O11 0.218063 0.382993 0.170968
O O12 0.146738 0.397987 0.500000
O O13 0.206934 0.466763 0.383543
O O14 0.151867 0.367289 0.314939
O O15 0.286282 0.557033 0.000000
#
# Coordination Sequence:
#
# PCOD8275237 Si02
#       7
#    16  16  16  16   4  16  16
#     4  11  20  30  43  57  74  98 127 165 209 240
#     4   9  17  25  36  54  74  94 119 156 196 230
#     4   9  16  24  37  56  76  95 124 161 192 224
#     4   9  16  26  41  55  68  93 128 159 191 231
#     4  12  22  32  40  58  80  96 122 178 208 238
#     4   9  15  23  38  55  72  97 127 155 187 222
#     4  10  16  28  40  54  73  97 125 158 197 239
#
# _framework density 13.637352999999999
#
# number of rings (size 3 to 8) (size 9 to 14) (size 15 to 20)
#    0.000    2.400    3.200    1.200    0.000    1.280 
#    0.000    0.800    0.000    4.800    0.000    0.000 
#    0.000    0.000    0.000    0.000    0.000    3.200 
#
# Total GULP energy -619833.675405 kJ/mol
# GULP energy per Si atom -12396.673508 kJ/mol
# Density = 1.360631 g / cm^3
# Si number density = 13.637353 Si / 1000 Ang^3
#
#
#
# Elastic Constant Matrix: (Units=GPa)
#
#
# Indices 1 2 3 4 5 6 
#
# 1 28.6873 27.1343 26.7516 0.0000 0.0000 0.0000
# 2 27.1343 93.9364 58.4698 0.0000 0.0000 0.0000
# 3 26.7516 58.4698 116.8080 0.0000 0.0000 0.0000
# 4 0.0000 0.0000 0.0000 21.3449 0.0000 0.0000
# 5 0.0000 0.0000 0.0000 0.0000 15.9096 0.0000
# 6 0.0000 0.0000 0.0000 0.0000 0.0000 9.2414
#
#
#
# Elastic Compliance Matrix: (Units=1/GPa)
#
#
# Indices 1 2 3 4 5 6 
#
# 1 0.050917 -0.010821 -0.006245 0.000000 0.000000 0.000000
# 2 -0.010821 0.017763 -0.006413 0.000000 0.000000 0.000000
# 3 -0.006245 -0.006413 0.013201 0.000000 0.000000 0.000000
# 4 0.000000 0.000000 0.000000 0.046850 0.000000 0.000000
# 5 0.000000 0.000000 0.000000 0.000000 0.062855 0.000000
# 6 0.000000 0.000000 0.000000 0.000000 0.000000 0.108209
#
#
# Mechanical properties :
#
#
# Convention : Reuss Voigt Hill
#
# Bulk Modulus (GPa) = 28.63363 51.57142 40.10252
# Shear Modulus (GPa) = 13.95113 17.77091 15.86102
#
# Velocity S-wave (km/s) = 3.20192 3.61377 3.41406
# Velocity P-wave (km/s) = 5.89167 7.43713 6.70905
#
# Compressibility (1/GPa) = 0.03492397
#
# Stress axis : x y z
#
# Youngs Moduli (GPa) = 19.63982 56.29634 75.74910
#
# Poissons Ratio (x) = 0.60918 0.47302
# Poissons Ratio (y) = 0.21252 0.48581
# Poissons Ratio (z) = 0.12264 0.36105
#
# Static dielectric constant tensor:
#      x y z
#    x 2.285590 0.000000 0.000000 
#    y 0.000000 2.653050 0.000000 
#    z 0.000000 0.000000 2.980920 
# 
# 
# High freq. dielectric constant tensor:
#      x y z
#    x 1.455530 0.000000 0.000000 
#    y 0.000000 1.498700 0.000000 
#    z 0.000000 0.000000 1.542200 
# 
# From -- ./inp_files/33404.got.cif
#   From: 2010.03.12/outbox.cif.g09.slc.cpg/sg66_17_cif.got.tgz:33404.got - 2010.04.10 21:57:39.
