data_PCOD8275300
_publ_section_title
;
Structure prediction by ZEFSAII (Michael W. Deem and Ramdas Pophale) SiO2 
 PCOD8275300
Probable space group: C C C M
;
_chemical_formula_sum "Si O2"
_cell_formula_units_Z 80
_cell_length_a 28.285735
_cell_length_b 17.667869
_cell_length_c 8.818453
_cell_angle_alpha 90.000000
_cell_angle_beta 90.000000
_cell_angle_gamma 90.000000
_cell_volume 4407.010075
_symmetry_space_group_name_H-M "C C C M"
_symmetry_group_IT_number 66
_symmetry_cell_setting 'orthorhombic'
loop_
_space_group_symop_operation_xyz
x,y,z
-x,-y,z
x,-y,1/2-z
-x,y,1/2-z
-x,-y,-z
x,y,-z
-x,y,1/2+z
x,-y,1/2+z
1/2+x,1/2+y,z
1/2-x,1/2-y,z
1/2+x,1/2-y,1/2-z
1/2-x,1/2+y,1/2-z
1/2-x,1/2-y,-z
1/2+x,1/2+y,-z
1/2-x,1/2+y,1/2+z
1/2+x,1/2-y,1/2+z
loop_
_atom_site_type_symbol
_atom_site_label
_atom_site_fract_x
_atom_site_fract_y
_atom_site_fract_z
Si Si1 0.214465 0.180485 0.169625
Si Si2 0.353274 0.214863 0.326019
Si Si3 0.447899 0.573813 0.680723
Si Si4 0.549394 0.725393 0.675668
Si Si5 0.712537 0.919539 0.321257
O O1 0.250000 0.250000 0.171521
O O2 0.165708 0.210564 0.240145
O O3 0.236731 0.111239 0.264272
O O4 0.204590 0.151043 0.000000
O O5 0.338898 0.226399 0.500000
O O6 0.410345 0.209910 0.306248
O O7 0.329442 0.137226 0.267094
O O8 0.420774 0.500000 0.750000
O O9 0.500000 0.573213 0.750000
O O10 0.447737 0.570175 0.500000
O O11 0.426972 0.652692 0.741094
O O12 0.500000 0.752544 0.750000
O O13 0.539403 0.706438 0.500000
O O14 0.714478 0.928357 0.500000
O O15 0.700672 0.000000 0.250000
#
# Coordination Sequence:
#
# PCOD8275300 Si02
#       5
#    16  16  16  16  16
#     4   9  17  30  50  75 100 126 158 196 240 294
#     4   9  19  34  52  73 101 135 168 206 251 298
#     4  10  17  27  43  63  87 117 153 195 241 286
#     4  10  19  32  49  71  98 131 172 213 253 295
#     4  10  19  33  53  77 104 133 165 203 250 301
#
# _framework density 18.152896999999999
#
# number of rings (size 3 to 8) (size 9 to 14) (size 15 to 20)
#    0.000    2.400    0.000    5.400    0.000    4.800 
#    0.000    1.000    0.000    5.400    0.000    4.200 
#    0.000    0.000    0.000    0.000    0.000    0.000 
#
# Total GULP energy -495710.124904 kJ/mol
# GULP energy per Si atom -12392.753123 kJ/mol
# Density = 1.811158 g / cm^3
# Si number density = 18.152897 Si / 1000 Ang^3
#
#
#
# Elastic Constant Matrix: (Units=GPa)
#
#
# Indices 1 2 3 4 5 6 
#
# 1 91.6448 46.7129 39.3763 0.0000 0.0000 0.0000
# 2 46.7129 98.6365 46.4061 0.0000 0.0000 0.0000
# 3 39.3763 46.4061 126.9251 0.0000 0.0000 0.0000
# 4 0.0000 0.0000 0.0000 25.6085 0.0000 0.0000
# 5 0.0000 0.0000 0.0000 0.0000 19.3301 0.0000
# 6 0.0000 0.0000 0.0000 0.0000 0.0000 21.0785
#
#
#
# Elastic Compliance Matrix: (Units=1/GPa)
#
#
# Indices 1 2 3 4 5 6 
#
# 1 0.015006 -0.005938 -0.002484 0.000000 0.000000 0.000000
# 2 -0.005938 0.014594 -0.003494 0.000000 0.000000 0.000000
# 3 -0.002484 -0.003494 0.009927 0.000000 0.000000 0.000000
# 4 0.000000 0.000000 0.000000 0.039050 0.000000 0.000000
# 5 0.000000 0.000000 0.000000 0.000000 0.051733 0.000000
# 6 0.000000 0.000000 0.000000 0.000000 0.000000 0.047442
#
#
# Mechanical properties :
#
#
# Convention : Reuss Voigt Hill
#
# Bulk Modulus (GPa) = 63.71503 64.68855 64.20179
# Shear Modulus (GPa) = 24.17637 25.51748 24.84692
#
# Velocity S-wave (km/s) = 3.65337 3.75333 3.70369
# Velocity P-wave (km/s) = 7.27815 7.38215 7.33033
#
# Compressibility (1/GPa) = 0.01569488
#
# Stress axis : x y z
#
# Youngs Moduli (GPa) = 66.64167 68.52156 100.73771
#
# Poissons Ratio (x) = 0.40686 0.25027
# Poissons Ratio (y) = 0.39569 0.35195
# Poissons Ratio (z) = 0.16556 0.23940
#
# Static dielectric constant tensor:
#      x y z
#    x 3.201040 0.000000 0.000000 
#    y 0.000000 3.841220 0.000000 
#    z 0.000000 0.000000 3.494840 
# 
# 
# High freq. dielectric constant tensor:
#      x y z
#    x 1.680960 0.000000 0.000000 
#    y 0.000000 1.681360 0.000000 
#    z 0.000000 0.000000 1.718620 
# 
# From -- ./inp_files/6652.got.cif
#   From: 2010.03.12/outbox.cif.g09.slc.cpg/sg66_4_cif.got.tgz:6652.got - 2010.04.10 21:57:39.
