data_PCOD8275459
_publ_section_title
;
Structure prediction by ZEFSAII (Michael W. Deem and Ramdas Pophale) SiO2 
 PCOD8275459
Probable space group: C C C M
;
_chemical_formula_sum "Si O2"
_cell_formula_units_Z 112
_cell_length_a 17.029431
_cell_length_b 20.394652
_cell_length_c 18.182426
_cell_angle_alpha 90.000000
_cell_angle_beta 90.000000
_cell_angle_gamma 90.000000
_cell_volume 6314.925992
_symmetry_space_group_name_H-M "C C C M"
_symmetry_group_IT_number 66
_symmetry_cell_setting 'orthorhombic'
loop_
_space_group_symop_operation_xyz
x,y,z
-x,-y,z
x,-y,1/2-z
-x,y,1/2-z
-x,-y,-z
x,y,-z
-x,y,1/2+z
x,-y,1/2+z
1/2+x,1/2+y,z
1/2-x,1/2-y,z
1/2+x,1/2-y,1/2-z
1/2-x,1/2+y,1/2-z
1/2-x,1/2-y,-z
1/2+x,1/2+y,-z
1/2-x,1/2+y,1/2+z
1/2+x,1/2-y,1/2+z
loop_
_atom_site_type_symbol
_atom_site_label
_atom_site_fract_x
_atom_site_fract_y
_atom_site_fract_z
Si Si1 0.940181 0.260807 0.688258
Si Si2 0.323676 0.994422 0.919867
Si Si3 0.925093 0.742764 0.414701
Si Si4 0.967372 0.596071 0.418358
Si Si5 0.117984 0.395703 0.830890
Si Si6 0.762655 0.566517 0.715042
Si Si7 0.821409 0.201685 0.211162
O O1 0.878877 0.317230 0.663188
O O2 0.888381 0.204823 0.726115
O O3 0.000000 0.289980 0.750000
O O4 0.989923 0.234662 0.618327
O O5 0.324429 0.068891 0.889326
O O6 0.412159 0.967034 0.920023
O O7 0.272294 0.945793 0.871208
O O8 0.285341 0.994978 0.000000
O O9 0.918600 0.764078 0.500000
O O10 0.918622 0.663799 0.404907
O O11 0.855890 0.778650 0.369038
O O12 0.008066 0.602002 0.500000
O O13 0.028567 0.584839 0.351744
O O14 0.150763 0.418654 0.750981
O O15 0.726276 0.500000 0.750000
O O16 0.703888 0.626764 0.719574
O O17 0.750000 0.250000 0.229050
#
# Coordination Sequence:
#
# PCOD8275459 Si02
#       7
#    16  16  16  16  16  16  16
#     4   9  19  33  53  75 102 136 177 220 264 303
#     4  10  20  32  44  67 104 143 176 205 248 307
#     4   9  19  33  53  79 106 134 171 219 270 314
#     4   9  17  29  45  70 104 139 173 206 245 302
#     4  10  18  29  46  67  99 135 174 209 242 295
#     4  10  22  34  48  75 103 137 173 212 258 315
#     4  11  19  33  56  78 106 138 176 219 264 311
#
# _framework density 17.735758000000001
#
# number of rings (size 3 to 8) (size 9 to 14) (size 15 to 20)
#    0.000    2.286    1.429    1.714    4.000    2.571 
#    2.571    0.000    0.000    8.571    0.000    1.000 
#    0.000    0.000    0.000    0.000    0.000    0.000 
#
# Total GULP energy -693733.549285 kJ/mol
# GULP energy per Si atom -12388.099094 kJ/mol
# Density = 1.769539 g / cm^3
# Si number density = 17.735758 Si / 1000 Ang^3
#
#
#
# Elastic Constant Matrix: (Units=GPa)
#
#
# Indices 1 2 3 4 5 6 
#
# 1 56.2085 42.1099 36.4365 0.0000 0.0000 0.0000
# 2 42.1099 102.2983 38.1333 0.0000 0.0000 0.0000
# 3 36.4365 38.1333 103.8957 0.0000 0.0000 0.0000
# 4 0.0000 0.0000 0.0000 16.8200 0.0000 0.0000
# 5 0.0000 0.0000 0.0000 0.0000 21.7312 0.0000
# 6 0.0000 0.0000 0.0000 0.0000 0.0000 26.3315
#
#
#
# Elastic Compliance Matrix: (Units=1/GPa)
#
#
# Indices 1 2 3 4 5 6 
#
# 1 0.029344 -0.009550 -0.006786 0.000000 0.000000 0.000000
# 2 -0.009550 0.014433 -0.001948 0.000000 0.000000 0.000000
# 3 -0.006786 -0.001948 0.012720 0.000000 0.000000 0.000000
# 4 0.000000 0.000000 0.000000 0.059453 0.000000 0.000000
# 5 0.000000 0.000000 0.000000 0.000000 0.046017 0.000000
# 6 0.000000 0.000000 0.000000 0.000000 0.000000 0.037977
#
#
# Mechanical properties :
#
#
# Convention : Reuss Voigt Hill
#
# Bulk Modulus (GPa) = 50.17798 55.08464 52.63131
# Shear Modulus (GPa) = 20.56307 22.69140 21.62723
#
# Velocity S-wave (km/s) = 3.40871 3.58077 3.49580
# Velocity P-wave (km/s) = 6.62162 6.94420 6.78482
#
# Compressibility (1/GPa) = 0.01992906
#
# Stress axis : x y z
#
# Youngs Moduli (GPa) = 34.07827 69.28792 78.61658
#
# Poissons Ratio (x) = 0.66167 0.53350
# Poissons Ratio (y) = 0.32543 0.15316
# Poissons Ratio (z) = 0.23126 0.13498
#
# Static dielectric constant tensor:
#      x y z
#    x 2.988040 0.000000 0.000000 
#    y 0.000000 3.185330 0.000000 
#    z 0.000000 0.000000 3.575430 
# 
# 
# High freq. dielectric constant tensor:
#      x y z
#    x 1.641390 0.000000 0.000000 
#    y 0.000000 1.669540 0.000000 
#    z 0.000000 0.000000 1.695840 
# 
# From -- ./inp_files/41985.got.cif
#   From: 2010.03.12/outbox.cif.g09.slc.cpg/sg66_21_cif.got.tgz:41985.got - 2010.04.10 21:57:39.
