data_PCOD8275993
_publ_section_title
;
Structure prediction by ZEFSAII (Michael W. Deem and Ramdas Pophale) SiO2 
 PCOD8275993
Probable space group: C C C M
;
_chemical_formula_sum "Si O2"
_cell_formula_units_Z 80
_cell_length_a 24.354019
_cell_length_b 9.523973
_cell_length_c 17.386425
_cell_angle_alpha 90.000000
_cell_angle_beta 90.000000
_cell_angle_gamma 90.000000
_cell_volume 4032.729457
_symmetry_space_group_name_H-M "C C C M"
_symmetry_group_IT_number 66
_symmetry_cell_setting 'orthorhombic'
loop_
_space_group_symop_operation_xyz
x,y,z
-x,-y,z
x,-y,1/2-z
-x,y,1/2-z
-x,-y,-z
x,y,-z
-x,y,1/2+z
x,-y,1/2+z
1/2+x,1/2+y,z
1/2-x,1/2-y,z
1/2+x,1/2-y,1/2-z
1/2-x,1/2+y,1/2-z
1/2-x,1/2-y,-z
1/2+x,1/2+y,-z
1/2-x,1/2+y,1/2+z
1/2+x,1/2-y,1/2+z
loop_
_atom_site_type_symbol
_atom_site_label
_atom_site_fract_x
_atom_site_fract_y
_atom_site_fract_z
Si Si1 0.073185 0.772578 0.414929
Si Si2 0.468224 0.789310 0.176689
Si Si3 0.795652 0.634974 0.297645
Si Si4 0.117341 0.535886 0.913477
Si Si5 0.123019 0.851758 0.733576
O O1 0.073770 0.840482 0.500000
O O2 0.107057 0.628528 0.416600
O O3 0.105225 0.868997 0.354922
O O4 0.010021 0.762275 0.388539
O O5 0.500000 0.855282 0.250000
O O6 0.432243 0.908689 0.137916
O O7 0.429680 0.663943 0.209612
O O8 0.772888 0.500000 0.250000
O O9 0.750000 0.750000 0.320930
O O10 0.824598 0.578054 0.374951
O O11 0.838435 0.716836 0.243165
O O12 0.117049 0.598925 0.000000
O O13 0.153061 0.000000 0.750000
#
# Coordination Sequence:
#
# PCOD8275993 Si02
#       5
#    16  16  16  16  16
#     4  10  19  33  55  83 121 160 196 235 291 350
#     4   9  19  30  53  85 122 163 206 237 281 337
#     4  11  22  40  65  89 110 146 198 253 306 361
#     4  10  20  35  56  87 124 156 194 246 300 354
#     4  10  21  38  56  83 120 158 200 246 290 346
#
# _framework density 19.837679999999999
#
# number of rings (size 3 to 8) (size 9 to 14) (size 15 to 20)
#    0.000    2.000    2.000    1.800    0.000    8.000 
#    0.000    6.000    0.000    4.800    0.000    0.000 
#    0.000    0.000    0.000    0.000    0.000    0.000 
#
# Total GULP energy -495699.902716 kJ/mol
# GULP energy per Si atom -12392.497568 kJ/mol
# Density = 1.979253 g / cm^3
# Si number density = 19.837680 Si / 1000 Ang^3
#
#
#
# Elastic Constant Matrix: (Units=GPa)
#
#
# Indices 1 2 3 4 5 6 
#
# 1 79.7979 14.8712 31.4051 0.0000 0.0000 0.0000
# 2 14.8712 81.9463 28.3075 0.0000 0.0000 0.0000
# 3 31.4051 28.3075 130.2708 0.0000 0.0000 0.0000
# 4 0.0000 0.0000 0.0000 18.4839 0.0000 0.0000
# 5 0.0000 0.0000 0.0000 0.0000 20.6303 0.0000
# 6 0.0000 0.0000 0.0000 0.0000 0.0000 19.8579
#
#
#
# Elastic Compliance Matrix: (Units=1/GPa)
#
#
# Indices 1 2 3 4 5 6 
#
# 1 0.014011 -0.001488 -0.003054 0.000000 0.000000 0.000000
# 2 -0.001488 0.013351 -0.002543 0.000000 0.000000 0.000000
# 3 -0.003054 -0.002543 0.008965 0.000000 0.000000 0.000000
# 4 0.000000 0.000000 0.000000 0.054101 0.000000 0.000000
# 5 0.000000 0.000000 0.000000 0.000000 0.048472 0.000000
# 6 0.000000 0.000000 0.000000 0.000000 0.000000 0.050358
#
#
# Mechanical properties :
#
#
# Convention : Reuss Voigt Hill
#
# Bulk Modulus (GPa) = 45.12975 49.02031 47.07503
# Shear Modulus (GPa) = 23.71757 26.28983 25.00370
#
# Velocity S-wave (km/s) = 3.46147 3.64434 3.55408
# Velocity P-wave (km/s) = 6.22693 6.51711 6.37367
#
# Compressibility (1/GPa) = 0.02215833
#
# Stress axis : x y z
#
# Youngs Moduli (GPa) = 71.37257 74.89865 111.54265
#
# Poissons Ratio (x) = 0.11141 0.34070
# Poissons Ratio (y) = 0.10617 0.28361
# Poissons Ratio (z) = 0.21801 0.19044
#
# Static dielectric constant tensor:
#      x y z
#    x 3.577470 0.000000 0.000000 
#    y 0.000000 3.335100 0.000000 
#    z 0.000000 0.000000 3.884960 
# 
# 
# High freq. dielectric constant tensor:
#      x y z
#    x 1.761090 0.000000 0.000000 
#    y 0.000000 1.757620 0.000000 
#    z 0.000000 0.000000 1.777230 
# 
# From -- ./inp_files/36934.got.cif
#   From: 2010.03.12/outbox.cif.g09.slc.cpg/sg66_19_cif.got.tgz:36934.got - 2010.04.10 21:57:39.
