data_PCOD8275046
_publ_section_title
;
Structure prediction by ZEFSAII (Michael W. Deem and Ramdas Pophale) SiO2 
 PCOD8275046
Probable space group: C M M M
;
_chemical_formula_sum "Si O2"
_cell_formula_units_Z 104
_cell_length_a 29.629771
_cell_length_b 22.894553
_cell_length_c 9.658009
_cell_angle_alpha 90.000000
_cell_angle_beta 90.000000
_cell_angle_gamma 90.000000
_cell_volume 6551.610487
_symmetry_space_group_name_H-M "C M M M"
_symmetry_group_IT_number 65
_symmetry_cell_setting 'orthorhombic'
loop_
_space_group_symop_operation_xyz
x,y,z
-x,-y,z
x,-y,-z
-x,y,-z
-x,-y,-z
x,y,-z
-x,y,z
x,-y,z
1/2+x,1/2+y,z
1/2-x,1/2-y,z
1/2+x,1/2-y,-z
1/2-x,1/2+y,-z
1/2-x,1/2-y,-z
1/2+x,1/2+y,-z
1/2-x,1/2+y,z
1/2+x,1/2-y,z
loop_
_atom_site_type_symbol
_atom_site_label
_atom_site_fract_x
_atom_site_fract_y
_atom_site_fract_z
Si Si1 0.551974 0.163582 0.339044
Si Si2 0.604127 0.389196 0.835899
Si Si3 0.449193 0.500000 0.834480
Si Si4 0.447786 0.275524 0.160599
Si Si5 0.299957 0.568460 0.160068
Si Si6 0.119307 0.435209 0.335432
Si Si7 0.718666 0.930615 0.346249
O O1 0.561834 0.176724 0.500000
O O2 0.500000 0.146646 0.315077
O O3 0.565744 0.219862 0.251064
O O4 0.581534 0.109638 0.282053
O O5 0.575450 0.442805 0.773811
O O6 0.583106 0.328423 0.783412
O O7 0.656152 0.395653 0.789449
O O8 0.600665 0.392294 0.000000
O O9 0.500000 0.500000 0.778698
O O10 0.447782 0.500000 0.000000
O O11 0.500000 0.292855 0.182356
O O12 0.438114 0.261457 0.000000
O O13 0.308856 0.500000 0.187098
O O14 0.257382 0.593369 0.244930
O O15 0.289530 0.580003 0.000000
O O16 0.118544 0.439215 0.500000
O O17 0.109208 0.500000 0.274131
O O18 0.169071 0.412622 0.289334
O O19 0.726974 0.904791 0.500000
O O20 0.720568 0.000000 0.352268
#
# Coordination Sequence:
#
# PCOD8275046 Si02
#       7
#    16  16   8  16  16  16  16
#     4   9  17  29  46  67  88 110 138 171 206 247
#     4   9  15  24  38  59  85 111 140 177 217 251
#     4   9  14  20  34  58  85 109 137 177 220 255
#     4   9  17  29  44  61  83 114 148 175 203 246
#     4   9  15  24  39  60  86 110 135 173 218 253
#     4   8  14  26  45  68  90 110 134 168 209 248
#     4   8  14  25  41  60  83 110 137 165 201 250
#
# _framework density 15.87396
#
# number of rings (size 3 to 8) (size 9 to 14) (size 15 to 20)
#    0.000    3.308    0.769    1.385    0.000    2.154 
#    0.000    3.077    0.000    2.308    0.000    8.615 
#    0.000    3.692    0.000    0.000    0.000    0.000 
#
# Total GULP energy -644541.759223 kJ/mol
# GULP energy per Si atom -12395.033831 kJ/mol
# Density = 1.583783 g / cm^3
# Si number density = 15.873960 Si / 1000 Ang^3
#
#
#
# Elastic Constant Matrix: (Units=GPa)
#
#
# Indices 1 2 3 4 5 6 
#
# 1 134.3051 80.4714 41.2744 0.0000 0.0000 0.0000
# 2 80.4714 103.7529 35.2253 0.0000 0.0000 0.0000
# 3 41.2744 35.2253 38.1177 0.0000 0.0000 0.0000
# 4 0.0000 0.0000 0.0000 17.4916 0.0000 0.0000
# 5 0.0000 0.0000 0.0000 0.0000 21.4439 0.0000
# 6 0.0000 0.0000 0.0000 0.0000 0.0000 20.7757
#
#
#
# Elastic Compliance Matrix: (Units=1/GPa)
#
#
# Indices 1 2 3 4 5 6 
#
# 1 0.015516 -0.009225 -0.008277 0.000000 0.000000 0.000000
# 2 -0.009225 0.019529 -0.008058 0.000000 0.000000 0.000000
# 3 -0.008277 -0.008058 0.042644 0.000000 0.000000 0.000000
# 4 0.000000 0.000000 0.000000 0.057170 0.000000 0.000000
# 5 0.000000 0.000000 0.000000 0.000000 0.046633 0.000000
# 6 0.000000 0.000000 0.000000 0.000000 0.000000 0.048133
#
#
# Mechanical properties :
#
#
# Convention : Reuss Voigt Hill
#
# Bulk Modulus (GPa) = 37.63737 65.56867 51.60302
# Shear Modulus (GPa) = 17.26505 19.88920 18.57713
#
# Velocity S-wave (km/s) = 3.30151 3.54354 3.42466
# Velocity P-wave (km/s) = 6.18829 7.62481 6.94379
#
# Compressibility (1/GPa) = 0.02656934
#
# Stress axis : x y z
#
# Youngs Moduli (GPa) = 64.44776 51.20624 23.45005
#
# Poissons Ratio (x) = 0.47236 0.19409
# Poissons Ratio (y) = 0.59450 0.18897
# Poissons Ratio (z) = 0.53342 0.41264
#
# Static dielectric constant tensor:
#      x y z
#    x 3.274470 0.000000 0.000000 
#    y 0.000000 2.969290 0.000000 
#    z 0.000000 0.000000 2.743730 
# 
# 
# High freq. dielectric constant tensor:
#      x y z
#    x 1.618860 0.000000 0.000000 
#    y 0.000000 1.584910 0.000000 
#    z 0.000000 0.000000 1.569300 
# 
# From -- ./inp_files/18886.got.cif
#   From: 2010.03.12/outbox.cif.g09.slc.cpg/sg65_10_cif.got.tgz:18886.got - 2010.04.10 20:52:16.
