data_PCOD8275832
_publ_section_title
;
Structure prediction by ZEFSAII (Michael W. Deem and Ramdas Pophale) SiO2 
 PCOD8275832
Probable space group: C C C M
;
_chemical_formula_sum "Si O2"
_cell_formula_units_Z 72
_cell_length_a 10.619568
_cell_length_b 26.070086
_cell_length_c 14.467386
_cell_angle_alpha 90.000000
_cell_angle_beta 90.000000
_cell_angle_gamma 90.000000
_cell_volume 4005.339955
_symmetry_space_group_name_H-M "C C C M"
_symmetry_group_IT_number 66
_symmetry_cell_setting 'orthorhombic'
loop_
_space_group_symop_operation_xyz
x,y,z
-x,-y,z
x,-y,1/2-z
-x,y,1/2-z
-x,-y,-z
x,y,-z
-x,y,1/2+z
x,-y,1/2+z
1/2+x,1/2+y,z
1/2-x,1/2-y,z
1/2+x,1/2-y,1/2-z
1/2-x,1/2+y,1/2-z
1/2-x,1/2-y,-z
1/2+x,1/2+y,-z
1/2-x,1/2+y,1/2+z
1/2+x,1/2-y,1/2+z
loop_
_atom_site_type_symbol
_atom_site_label
_atom_site_fract_x
_atom_site_fract_y
_atom_site_fract_z
Si Si1 0.500000 0.856755 0.750000
Si Si2 0.421949 0.449437 0.105719
Si Si3 0.687117 0.943910 0.762901
Si Si4 0.164055 0.101415 0.603194
Si Si5 0.680663 0.198778 0.893914
O O1 0.597493 0.897189 0.796760
O O2 0.433612 0.820133 0.826899
O O3 0.500000 0.500000 0.130811
O O4 0.297583 0.445799 0.164071
O O5 0.516989 0.402795 0.132081
O O6 0.379219 0.447781 0.000000
O O7 0.741795 0.932672 0.662285
O O8 0.621228 0.000000 0.750000
O O9 0.177901 0.078735 0.500000
O O10 0.202973 0.160123 0.609190
O O11 0.750000 0.250000 0.857828
O O12 0.629458 0.204526 0.000000
#
# Coordination Sequence:
#
# PCOD8275832 Si02
#       5
#     8  16  16  16  16
#     4  10  23  38  52  86 110 138 185 232 268 330
#     4  10  19  31  50  78 110 143 184 223 259 312
#     4  11  20  32  52  75 113 150 179 214 268 317
#     4   9  18  32  52  79 106 138 183 223 261 318
#     4   9  19  40  63  78 104 145 183 226 284 338
#
# _framework density 17.976002000000001
#
# number of rings (size 3 to 8) (size 9 to 14) (size 15 to 20)
#    0.000    2.222    2.222    1.000    0.000    0.889 
#    8.000    0.000    0.000    7.333    0.000    0.000 
#    0.000    0.000    0.000    0.000    0.000    0.000 
#
# Total GULP energy -445992.738113 kJ/mol
# GULP energy per Si atom -12388.687170 kJ/mol
# Density = 1.793509 g / cm^3
# Si number density = 17.976002 Si / 1000 Ang^3
#
#
#
# Elastic Constant Matrix: (Units=GPa)
#
#
# Indices 1 2 3 4 5 6 
#
# 1 100.2968 48.7354 49.1585 0.0000 0.0000 0.0000
# 2 48.7354 111.0087 49.7244 0.0000 0.0000 0.0000
# 3 49.1585 49.7244 73.5858 0.0000 0.0000 0.0000
# 4 0.0000 0.0000 0.0000 22.6874 0.0000 0.0000
# 5 0.0000 0.0000 0.0000 0.0000 8.9881 0.0000
# 6 0.0000 0.0000 0.0000 0.0000 0.0000 33.4864
#
#
#
# Elastic Compliance Matrix: (Units=1/GPa)
#
#
# Indices 1 2 3 4 5 6 
#
# 1 0.015541 -0.003115 -0.008277 0.000000 0.000000 0.000000
# 2 -0.003115 0.013543 -0.007070 0.000000 0.000000 0.000000
# 3 -0.008277 -0.007070 0.023897 0.000000 0.000000 0.000000
# 4 0.000000 0.000000 0.000000 0.044077 0.000000 0.000000
# 5 0.000000 0.000000 0.000000 0.000000 0.111258 0.000000
# 6 0.000000 0.000000 0.000000 0.000000 0.000000 0.029863
#
#
# Mechanical properties :
#
#
# Convention : Reuss Voigt Hill
#
# Bulk Modulus (GPa) = 62.28412 64.45866 63.37139
# Shear Modulus (GPa) = 17.82812 22.18389 20.00601
#
# Velocity S-wave (km/s) = 3.15266 3.51676 3.33968
# Velocity P-wave (km/s) = 6.92647 7.24059 7.08528
#
# Compressibility (1/GPa) = 0.01605546
#
# Stress axis : x y z
#
# Youngs Moduli (GPa) = 64.34608 73.83865 41.84700
#
# Poissons Ratio (x) = 0.23003 0.34636
# Poissons Ratio (y) = 0.20046 0.29587
# Poissons Ratio (z) = 0.53259 0.52206
#
# Static dielectric constant tensor:
#      x y z
#    x 3.524940 0.000000 0.000000 
#    y 0.000000 3.567640 0.000000 
#    z 0.000000 0.000000 3.432500 
# 
# 
# High freq. dielectric constant tensor:
#      x y z
#    x 1.688530 0.000000 0.000000 
#    y 0.000000 1.694960 0.000000 
#    z 0.000000 0.000000 1.695350 
# 
# From -- ./inp_files/26293.got.cif
#   From: 2010.03.12/outbox.cif.g09.slc.cpg/sg66_14_cif.got.tgz:26293.got - 2010.04.10 21:57:39.
