data_PCOD8275505
_publ_section_title
;
Structure prediction by ZEFSAII (Michael W. Deem and Ramdas Pophale) SiO2 
 PCOD8275505
Probable space group: C C C M
;
_chemical_formula_sum "Si O2"
_cell_formula_units_Z 116
_cell_length_a 27.471315
_cell_length_b 26.124078
_cell_length_c 9.044767
_cell_angle_alpha 90.000000
_cell_angle_beta 90.000000
_cell_angle_gamma 90.000000
_cell_volume 6491.092592
_symmetry_space_group_name_H-M "C C C M"
_symmetry_group_IT_number 66
_symmetry_cell_setting 'orthorhombic'
loop_
_space_group_symop_operation_xyz
x,y,z
-x,-y,z
x,-y,1/2-z
-x,y,1/2-z
-x,-y,-z
x,y,-z
-x,y,1/2+z
x,-y,1/2+z
1/2+x,1/2+y,z
1/2-x,1/2-y,z
1/2+x,1/2-y,1/2-z
1/2-x,1/2+y,1/2-z
1/2-x,1/2-y,-z
1/2+x,1/2+y,-z
1/2-x,1/2+y,1/2+z
1/2+x,1/2-y,1/2+z
loop_
_atom_site_type_symbol
_atom_site_label
_atom_site_fract_x
_atom_site_fract_y
_atom_site_fract_z
Si Si1 0.182577 0.426558 0.833365
Si Si2 0.279077 0.548481 0.828457
Si Si3 0.000000 0.500000 0.250000
Si Si4 0.422516 0.919881 0.334572
Si Si5 0.195925 0.160171 0.669566
Si Si6 0.632312 0.249978 0.830670
Si Si7 0.549237 0.190766 0.675689
Si Si8 0.289779 0.188800 0.833524
O O1 0.223100 0.449107 0.725564
O O2 0.128597 0.440844 0.766944
O O3 0.184205 0.365589 0.833297
O O4 0.191075 0.447858 0.000000
O O5 0.304948 0.500000 0.750000
O O6 0.308875 0.600042 0.788385
O O7 0.278708 0.537454 0.000000
O O8 0.964666 0.462856 0.342039
O O9 0.408475 0.904415 0.500000
O O10 0.439821 0.866570 0.259606
O O11 0.214807 0.164556 0.500000
O O12 0.143769 0.188939 0.686350
O O13 0.234184 0.185965 0.780579
O O14 0.589873 0.231733 0.722360
O O15 0.682382 0.223312 0.784413
O O16 0.619117 0.236269 0.000000
O O17 0.500000 0.210349 0.750000
O O18 0.543703 0.191061 0.500000
O O19 0.291019 0.211746 0.000000
#
# Coordination Sequence:
#
# PCOD8275505 Si02
#       8
#    16  16   4  16  16  16  16  16
#     4   9  18  34  50  68  96 131 169 215 259 310
#     4  10  20  35  52  74 101 136 171 209 251 301
#     4  12  22  36  52  74  88 128 174 228 280 312
#     4  10  21  37  52  68  95 125 166 220 273 316
#     4   9  20  35  50  73 107 138 172 211 253 310
#     4  11  21  34  53  77 103 137 172 210 261 316
#     4  11  22  40  58  77 102 133 172 218 269 323
#     4  10  18  30  50  75 103 135 169 210 261 312
#
# _framework density 17.870642
#
# number of rings (size 3 to 8) (size 9 to 14) (size 15 to 20)
#    0.000    1.931    2.069    2.276    0.966    3.862 
#    0.000    0.690    0.000    0.000    0.000    0.000 
#    0.000    0.552    0.000    6.345    0.000    1.931 
#
# Total GULP energy -718829.702588 kJ/mol
# GULP energy per Si atom -12393.615562 kJ/mol
# Density = 1.782997 g / cm^3
# Si number density = 17.870642 Si / 1000 Ang^3
#
#
#
# Elastic Constant Matrix: (Units=GPa)
#
#
# Indices 1 2 3 4 5 6 
#
# 1 64.6899 52.5484 23.0629 0.0000 0.0000 0.0000
# 2 52.5484 94.2185 30.8999 0.0000 0.0000 0.0000
# 3 23.0629 30.8999 74.8572 0.0000 0.0000 0.0000
# 4 0.0000 0.0000 0.0000 22.9393 0.0000 0.0000
# 5 0.0000 0.0000 0.0000 0.0000 22.3901 0.0000
# 6 0.0000 0.0000 0.0000 0.0000 0.0000 12.7012
#
#
#
# Elastic Compliance Matrix: (Units=1/GPa)
#
#
# Indices 1 2 3 4 5 6 
#
# 1 0.028689 -0.015153 -0.002584 0.000000 0.000000 0.000000
# 2 -0.015153 0.020279 -0.003702 0.000000 0.000000 0.000000
# 3 -0.002584 -0.003702 0.015683 0.000000 0.000000 0.000000
# 4 0.000000 0.000000 0.000000 0.043593 0.000000 0.000000
# 5 0.000000 0.000000 0.000000 0.000000 0.044663 0.000000
# 6 0.000000 0.000000 0.000000 0.000000 0.000000 0.078733
#
#
# Mechanical properties :
#
#
# Convention : Reuss Voigt Hill
#
# Bulk Modulus (GPa) = 45.92976 49.64311 47.78644
# Shear Modulus (GPa) = 17.74462 20.08974 18.91718
#
# Velocity S-wave (km/s) = 3.15453 3.35651 3.25708
# Velocity P-wave (km/s) = 6.24701 6.54683 6.39867
#
# Compressibility (1/GPa) = 0.02177238
#
# Stress axis : x y z
#
# Youngs Moduli (GPa) = 34.85711 49.31169 63.76298
#
# Poissons Ratio (x) = 0.74722 0.16475
# Poissons Ratio (y) = 0.52819 0.23608
# Poissons Ratio (z) = 0.09006 0.18257
#
# Static dielectric constant tensor:
#      x y z
#    x 3.126620 0.000000 0.000000 
#    y 0.000000 3.511660 0.000000 
#    z 0.000000 0.000000 3.264570 
# 
# 
# High freq. dielectric constant tensor:
#      x y z
#    x 1.656420 0.000000 0.000000 
#    y 0.000000 1.690000 0.000000 
#    z 0.000000 0.000000 1.691710 
# 
# From -- ./inp_files/9637.got.cif
#   From: 2010.03.12/outbox.cif.g09.slc.cpg/sg66_5_cif.got.tgz:9637.got - 2010.04.10 21:57:39.
