data_PCOD8275346
_publ_section_title
;
Structure prediction by ZEFSAII (Michael W. Deem and Ramdas Pophale) SiO2 
 PCOD8275346
Probable space group: C C C M
;
_chemical_formula_sum "Si O2"
_cell_formula_units_Z 112
_cell_length_a 22.431772
_cell_length_b 16.734672
_cell_length_c 17.609766
_cell_angle_alpha 90.000000
_cell_angle_beta 90.000000
_cell_angle_gamma 90.000000
_cell_volume 6610.500946
_symmetry_space_group_name_H-M "C C C M"
_symmetry_group_IT_number 66
_symmetry_cell_setting 'orthorhombic'
loop_
_space_group_symop_operation_xyz
x,y,z
-x,-y,z
x,-y,1/2-z
-x,y,1/2-z
-x,-y,-z
x,y,-z
-x,y,1/2+z
x,-y,1/2+z
1/2+x,1/2+y,z
1/2-x,1/2-y,z
1/2+x,1/2-y,1/2-z
1/2-x,1/2+y,1/2-z
1/2-x,1/2-y,-z
1/2+x,1/2+y,-z
1/2-x,1/2+y,1/2+z
1/2+x,1/2-y,1/2+z
loop_
_atom_site_type_symbol
_atom_site_label
_atom_site_fract_x
_atom_site_fract_y
_atom_site_fract_z
Si Si1 0.269924 0.368457 0.413286
Si Si2 0.549724 0.825235 0.412870
Si Si3 0.168064 0.725400 0.153916
Si Si4 0.221429 0.510939 0.336594
Si Si5 0.301937 0.190934 0.826399
Si Si6 0.104127 0.510434 0.085783
Si Si7 0.418110 0.169859 0.087561
O O1 0.291438 0.365112 0.500000
O O2 0.203854 0.329270 0.406534
O O3 0.314867 0.318136 0.359629
O O4 0.269702 0.461001 0.385771
O O5 0.562131 0.800813 0.500000
O O6 0.597401 0.782518 0.358339
O O7 0.554367 0.921429 0.403730
O O8 0.483362 0.796640 0.388716
O O9 0.188357 0.695591 0.236544
O O10 0.238302 0.500000 0.250000
O O11 0.220405 0.604653 0.356017
O O12 0.157039 0.472455 0.354749
O O13 0.250000 0.250000 0.853738
O O14 0.365453 0.211893 0.864942
O O15 0.076490 0.424473 0.103545
O O16 0.130512 0.511875 0.000000
O O17 0.404889 0.187868 0.000000
#
# Coordination Sequence:
#
# PCOD8275346 Si02
#       7
#    16  16  16  16  16  16  16
#     4  11  20  32  51  77 103 134 172 212 259 314
#     4  10  17  29  47  71 102 134 167 210 257 302
#     4  11  19  32  50  76 104 134 166 212 265 314
#     4  11  18  30  47  71 103 136 171 210 252 303
#     4  11  21  36  52  71 104 141 176 216 262 300
#     4   9  16  27  44  65  94 133 171 204 241 291
#     4   9  20  32  46  68  97 136 180 212 244 304
#
# _framework density 16.942741000000002
#
# number of rings (size 3 to 8) (size 9 to 14) (size 15 to 20)
#    0.000    1.714    4.286    2.571    0.000    3.143 
#    0.000    0.000    0.000    2.571    0.000    1.000 
#    0.000    6.857    0.000    0.000    0.000    0.000 
#
# Total GULP energy -694176.122868 kJ/mol
# GULP energy per Si atom -12396.002194 kJ/mol
# Density = 1.690418 g / cm^3
# Si number density = 16.942741 Si / 1000 Ang^3
#
#
#
# Elastic Constant Matrix: (Units=GPa)
#
#
# Indices 1 2 3 4 5 6 
#
# 1 108.4062 45.0206 30.4297 0.0000 0.0000 0.0000
# 2 45.0206 68.8525 24.9088 0.0000 0.0000 0.0000
# 3 30.4297 24.9088 60.6854 0.0000 0.0000 0.0000
# 4 0.0000 0.0000 0.0000 21.5052 0.0000 0.0000
# 5 0.0000 0.0000 0.0000 0.0000 23.3854 0.0000
# 6 0.0000 0.0000 0.0000 0.0000 0.0000 22.8349
#
#
#
# Elastic Compliance Matrix: (Units=1/GPa)
#
#
# Indices 1 2 3 4 5 6 
#
# 1 0.013316 -0.007388 -0.003644 0.000000 0.000000 0.000000
# 2 -0.007388 0.021156 -0.004979 0.000000 0.000000 0.000000
# 3 -0.003644 -0.004979 0.020349 0.000000 0.000000 0.000000
# 4 0.000000 0.000000 0.000000 0.046500 0.000000 0.000000
# 5 0.000000 0.000000 0.000000 0.000000 0.042762 0.000000
# 6 0.000000 0.000000 0.000000 0.000000 0.000000 0.043793
#
#
# Mechanical properties :
#
#
# Convention : Reuss Voigt Hill
#
# Bulk Modulus (GPa) = 43.86342 48.74027 46.30185
# Shear Modulus (GPa) = 21.97812 22.71744 22.34778
#
# Velocity S-wave (km/s) = 3.60557 3.66572 3.63577
# Velocity P-wave (km/s) = 6.57867 6.83716 6.70916
#
# Compressibility (1/GPa) = 0.02279804
#
# Stress axis : x y z
#
# Youngs Moduli (GPa) = 75.09786 47.26763 49.14135
#
# Poissons Ratio (x) = 0.34924 0.17909
# Poissons Ratio (y) = 0.55486 0.24467
# Poissons Ratio (z) = 0.27369 0.23534
#
# Static dielectric constant tensor:
#      x y z
#    x 3.091060 0.000000 0.000000 
#    y 0.000000 3.119240 0.000000 
#    z 0.000000 0.000000 3.119030 
# 
# 
# High freq. dielectric constant tensor:
#      x y z
#    x 1.630760 0.000000 0.000000 
#    y 0.000000 1.625530 0.000000 
#    z 0.000000 0.000000 1.651190 
# 
# From -- ./inp_files/43039.got.cif
#   From: 2010.03.12/outbox.cif.g09.slc.cpg/sg66_22_cif.got.tgz:43039.got - 2010.04.10 21:57:39.
