data_PCOD8275728
_publ_section_title
;
Structure prediction by ZEFSAII (Michael W. Deem and Ramdas Pophale) SiO2 
 PCOD8275728
Probable space group: C C C M
;
_chemical_formula_sum "Si O2"
_cell_formula_units_Z 80
_cell_length_a 19.225654
_cell_length_b 26.808070
_cell_length_c 8.901154
_cell_angle_alpha 90.000000
_cell_angle_beta 90.000000
_cell_angle_gamma 90.000000
_cell_volume 4587.678611
_symmetry_space_group_name_H-M "C C C M"
_symmetry_group_IT_number 66
_symmetry_cell_setting 'orthorhombic'
loop_
_space_group_symop_operation_xyz
x,y,z
-x,-y,z
x,-y,1/2-z
-x,y,1/2-z
-x,-y,-z
x,y,-z
-x,y,1/2+z
x,-y,1/2+z
1/2+x,1/2+y,z
1/2-x,1/2-y,z
1/2+x,1/2-y,1/2-z
1/2-x,1/2+y,1/2-z
1/2-x,1/2-y,-z
1/2+x,1/2+y,-z
1/2-x,1/2+y,1/2+z
1/2+x,1/2-y,1/2+z
loop_
_atom_site_type_symbol
_atom_site_label
_atom_site_fract_x
_atom_site_fract_y
_atom_site_fract_z
Si Si1 0.289408 0.200597 0.672685
Si Si2 0.436357 0.304388 0.835794
Si Si3 0.074055 0.947515 0.320510
Si Si4 0.933836 0.310422 0.335662
Si Si5 0.836307 0.135465 0.828446
O O1 0.306199 0.212617 0.500000
O O2 0.250000 0.250000 0.740905
O O3 0.360770 0.185603 0.752162
O O4 0.244837 0.149228 0.688553
O O5 0.500000 0.331229 0.750000
O O6 0.452289 0.247006 0.858514
O O7 0.370593 0.312754 0.728376
O O8 0.426687 0.330009 0.000000
O O9 0.067867 0.952000 0.500000
O O10 0.135221 0.908660 0.277300
O O11 0.000000 0.931071 0.250000
O O12 0.097126 0.000000 0.250000
O O13 0.927228 0.335856 0.500000
O O14 0.000000 0.335508 0.250000
O O15 0.855858 0.123359 0.000000
#
# Coordination Sequence:
#
# PCOD8275728 Si02
#       5
#    16  16  16  16  16
#     4  10  20  34  50  70  99 134 170 212 258 303
#     4  10  19  29  42  63  90 124 165 208 247 291
#     4  11  22  38  57  77 103 134 173 216 263 311
#     4  10  20  32  48  66  92 128 169 210 250 297
#     4  11  21  33  50  71  98 131 168 210 257 306
#
# _framework density 17.438013000000002
#
# number of rings (size 3 to 8) (size 9 to 14) (size 15 to 20)
#    0.000    1.600    2.000    4.800    0.000    3.600 
#    0.000    0.000    0.000    0.000    0.000    0.000 
#    0.000    0.800    0.000    8.400    0.000    3.600 
#
# Total GULP energy -495574.425669 kJ/mol
# GULP energy per Si atom -12389.360642 kJ/mol
# Density = 1.739832 g / cm^3
# Si number density = 17.438013 Si / 1000 Ang^3
#
#
#
# Elastic Constant Matrix: (Units=GPa)
#
#
# Indices 1 2 3 4 5 6 
#
# 1 122.5989 18.3725 68.4206 0.0000 0.0000 0.0000
# 2 18.3725 44.3166 24.7222 0.0000 0.0000 0.0000
# 3 68.4206 24.7222 135.0210 0.0000 0.0000 0.0000
# 4 0.0000 0.0000 0.0000 17.3287 0.0000 0.0000
# 5 0.0000 0.0000 0.0000 0.0000 30.9228 0.0000
# 6 0.0000 0.0000 0.0000 0.0000 0.0000 19.6747
#
#
#
# Elastic Compliance Matrix: (Units=1/GPa)
#
#
# Indices 1 2 3 4 5 6 
#
# 1 0.011485 -0.001687 -0.005511 0.000000 0.000000 0.000000
# 2 -0.001687 0.025380 -0.003792 0.000000 0.000000 0.000000
# 3 -0.005511 -0.003792 0.010893 0.000000 0.000000 0.000000
# 4 0.000000 0.000000 0.000000 0.057708 0.000000 0.000000
# 5 0.000000 0.000000 0.000000 0.000000 0.032339 0.000000
# 6 0.000000 0.000000 0.000000 0.000000 0.000000 0.050827
#
#
# Mechanical properties :
#
#
# Convention : Reuss Voigt Hill
#
# Bulk Modulus (GPa) = 38.79328 58.32968 48.56148
# Shear Modulus (GPa) = 22.80977 26.27998 24.54487
#
# Velocity S-wave (km/s) = 3.62062 3.88629 3.75580
# Velocity P-wave (km/s) = 6.30660 7.32530 6.83495
#
# Compressibility (1/GPa) = 0.02577766
#
# Stress axis : x y z
#
# Youngs Moduli (GPa) = 87.06891 39.40150 91.79970
#
# Poissons Ratio (x) = 0.06647 0.50592
# Poissons Ratio (y) = 0.14689 0.34811
# Poissons Ratio (z) = 0.47984 0.14941
#
# Static dielectric constant tensor:
#      x y z
#    x 3.183960 0.000000 0.000000 
#    y 0.000000 2.876050 0.000000 
#    z 0.000000 0.000000 3.632190 
# 
# 
# High freq. dielectric constant tensor:
#      x y z
#    x 1.667020 0.000000 0.000000 
#    y 0.000000 1.618370 0.000000 
#    z 0.000000 0.000000 1.695080 
# 
# From -- ./inp_files/6663.got.cif
#   From: 2010.03.12/outbox.cif.g09.slc.cpg/sg66_4_cif.got.tgz:6663.got - 2010.04.10 21:57:39.
