data_PCOD8275891
_publ_section_title
;
Structure prediction by ZEFSAII (Michael W. Deem and Ramdas Pophale) SiO2 
 PCOD8275891
Probable space group: C C C M
;
_chemical_formula_sum "Si O2"
_cell_formula_units_Z 80
_cell_length_a 17.425678
_cell_length_b 28.465770
_cell_length_c 9.112422
_cell_angle_alpha 90.000000
_cell_angle_beta 90.000000
_cell_angle_gamma 90.000000
_cell_volume 4520.083364
_symmetry_space_group_name_H-M "C C C M"
_symmetry_group_IT_number 66
_symmetry_cell_setting 'orthorhombic'
loop_
_space_group_symop_operation_xyz
x,y,z
-x,-y,z
x,-y,1/2-z
-x,y,1/2-z
-x,-y,-z
x,y,-z
-x,y,1/2+z
x,-y,1/2+z
1/2+x,1/2+y,z
1/2-x,1/2-y,z
1/2+x,1/2-y,1/2-z
1/2-x,1/2+y,1/2-z
1/2-x,1/2-y,-z
1/2+x,1/2+y,-z
1/2-x,1/2+y,1/2+z
1/2+x,1/2-y,1/2+z
loop_
_atom_site_type_symbol
_atom_site_label
_atom_site_fract_x
_atom_site_fract_y
_atom_site_fract_z
Si Si1 0.930404 0.450297 0.829294
Si Si2 0.818913 0.713621 0.834940
Si Si3 0.785209 0.853096 0.329369
Si Si4 0.740151 0.047847 0.832435
Si Si5 0.920692 0.783519 0.326929
O O1 0.929211 0.500000 0.750000
O O2 0.845029 0.430491 0.802794
O O3 0.000000 0.420732 0.750000
O O4 0.949952 0.454867 0.000000
O O5 0.750000 0.750000 0.836636
O O6 0.787435 0.666269 0.761246
O O7 0.888591 0.734851 0.739756
O O8 0.847931 0.703058 0.000000
O O9 0.765045 0.846054 0.500000
O O10 0.796141 0.908610 0.291484
O O11 0.863612 0.826475 0.289396
O O12 0.761563 0.000000 0.750000
O O13 0.748452 0.033081 0.000000
O O14 0.932303 0.776986 0.500000
O O15 0.000000 0.796726 0.250000
#
# Coordination Sequence:
#
# PCOD8275891 Si02
#       5
#    16  16  16  16  16
#     4   9  15  24  39  58  81 109 143 184 227 270
#     4   9  17  30  49  73  98 123 155 194 237 290
#     4   9  18  33  51  71  98 132 165 200 247 297
#     4   9  18  31  47  68  94 127 168 209 246 286
#     4  10  19  32  52  75 100 129 161 199 246 299
#
# _framework density 17.698788
#
# number of rings (size 3 to 8) (size 9 to 14) (size 15 to 20)
#    0.000    2.800    0.000    2.400    0.000    4.800 
#    0.000    1.000    0.000    3.000    0.000    4.200 
#    0.000    0.000    0.000    0.000    0.000    0.000 
#
# Total GULP energy -495609.839767 kJ/mol
# GULP energy per Si atom -12390.245994 kJ/mol
# Density = 1.765851 g / cm^3
# Si number density = 17.698788 Si / 1000 Ang^3
#
#
#
# Elastic Constant Matrix: (Units=GPa)
#
#
# Indices 1 2 3 4 5 6 
#
# 1 82.7762 44.8774 51.7739 0.0000 0.0000 0.0000
# 2 44.8774 99.5831 50.4849 0.0000 0.0000 0.0000
# 3 51.7739 50.4849 111.6340 0.0000 0.0000 0.0000
# 4 0.0000 0.0000 0.0000 21.7570 0.0000 0.0000
# 5 0.0000 0.0000 0.0000 0.0000 23.0149 0.0000
# 6 0.0000 0.0000 0.0000 0.0000 0.0000 17.2055
#
#
#
# Elastic Compliance Matrix: (Units=1/GPa)
#
#
# Indices 1 2 3 4 5 6 
#
# 1 0.018953 -0.005300 -0.006393 0.000000 0.000000 0.000000
# 2 -0.005300 0.014511 -0.004104 0.000000 0.000000 0.000000
# 3 -0.006393 -0.004104 0.013779 0.000000 0.000000 0.000000
# 4 0.000000 0.000000 0.000000 0.045962 0.000000 0.000000
# 5 0.000000 0.000000 0.000000 0.000000 0.043450 0.000000
# 6 0.000000 0.000000 0.000000 0.000000 0.000000 0.058121
#
#
# Mechanical properties :
#
#
# Convention : Reuss Voigt Hill
#
# Bulk Modulus (GPa) = 63.90650 65.36287 64.63468
# Shear Modulus (GPa) = 21.59011 22.18596 21.88803
#
# Velocity S-wave (km/s) = 3.49644 3.54436 3.52049
# Velocity P-wave (km/s) = 7.24475 7.33218 7.28860
#
# Compressibility (1/GPa) = 0.01564786
#
# Stress axis : x y z
#
# Youngs Moduli (GPa) = 52.76225 68.91261 72.57415
#
# Poissons Ratio (x) = 0.36524 0.46398
# Poissons Ratio (y) = 0.27965 0.29787
# Poissons Ratio (z) = 0.33732 0.28284
#
# Static dielectric constant tensor:
#      x y z
#    x 6.012340 0.000000 0.000000 
#    y 0.000000 3.093590 0.000000 
#    z 0.000000 0.000000 3.438490 
# 
# 
# High freq. dielectric constant tensor:
#      x y z
#    x 1.665340 0.000000 0.000000 
#    y 0.000000 1.660120 0.000000 
#    z 0.000000 0.000000 1.695970 
# 
# From -- ./inp_files/6713.got.cif
#   From: 2010.03.12/outbox.cif.g09.slc.cpg/sg66_4_cif.got.tgz:6713.got - 2010.04.10 21:57:39.
