data_PCOD8275321
_publ_section_title
;
Structure prediction by ZEFSAII (Michael W. Deem and Ramdas Pophale) SiO2 
 PCOD8275321
Probable space group: C C C M
;
_chemical_formula_sum "Si O2"
_cell_formula_units_Z 80
_cell_length_a 17.888438
_cell_length_b 27.801926
_cell_length_c 8.623631
_cell_angle_alpha 90.000000
_cell_angle_beta 90.000000
_cell_angle_gamma 90.000000
_cell_volume 4288.816531
_symmetry_space_group_name_H-M "C C C M"
_symmetry_group_IT_number 66
_symmetry_cell_setting 'orthorhombic'
loop_
_space_group_symop_operation_xyz
x,y,z
-x,-y,z
x,-y,1/2-z
-x,y,1/2-z
-x,-y,-z
x,y,-z
-x,y,1/2+z
x,-y,1/2+z
1/2+x,1/2+y,z
1/2-x,1/2-y,z
1/2+x,1/2-y,1/2-z
1/2-x,1/2+y,1/2-z
1/2-x,1/2-y,-z
1/2+x,1/2+y,-z
1/2-x,1/2+y,1/2+z
1/2+x,1/2-y,1/2+z
loop_
_atom_site_type_symbol
_atom_site_label
_atom_site_fract_x
_atom_site_fract_y
_atom_site_fract_z
Si Si1 0.417889 0.789514 0.315992
Si Si2 0.296233 0.859546 0.819326
Si Si3 0.272720 0.552629 0.317173
Si Si4 0.688655 0.290727 0.329955
Si Si5 0.925629 0.053499 0.815926
O O1 0.500000 0.794839 0.250000
O O2 0.417107 0.795520 0.500000
O O3 0.367848 0.831567 0.243825
O O4 0.386086 0.736483 0.269063
O O5 0.293130 0.911081 0.732925
O O6 0.218694 0.830628 0.788738
O O7 0.305501 0.868488 0.000000
O O8 0.255532 0.500000 0.250000
O O9 0.279330 0.548196 0.500000
O O10 0.348997 0.576327 0.247522
O O11 0.675214 0.314602 0.500000
O O12 0.750000 0.250000 0.349913
O O13 0.000000 0.080552 0.750000
O O14 0.926524 0.000000 0.750000
O O15 0.926589 0.053912 0.000000
#
# Coordination Sequence:
#
# PCOD8275321 Si02
#       5
#    16  16  16  16  16
#     4  10  20  35  56  82 111 142 176 217 266 319
#     4  11  21  34  54  80 108 141 181 221 266 319
#     4  11  21  35  53  75 104 140 184 230 273 317
#     4   8  16  32  52  75 104 136 169 208 258 311
#     4  10  17  28  45  67  93 124 163 207 256 306
#
# _framework density 18.653164
#
# number of rings (size 3 to 8) (size 9 to 14) (size 15 to 20)
#    0.000    2.000    0.000    9.000    0.000    4.400 
#    0.000    1.000    0.000    3.000    0.000    4.200 
#    0.000    0.000    0.000    0.000    0.000    0.000 
#
# Total GULP energy -495766.996865 kJ/mol
# GULP energy per Si atom -12394.174922 kJ/mol
# Density = 1.861071 g / cm^3
# Si number density = 18.653164 Si / 1000 Ang^3
#
#
#
# Elastic Constant Matrix: (Units=GPa)
#
#
# Indices 1 2 3 4 5 6 
#
# 1 107.1220 47.2669 43.4182 0.0000 0.0000 0.0000
# 2 47.2669 77.1109 39.2369 0.0000 0.0000 0.0000
# 3 43.4182 39.2369 153.8218 0.0000 0.0000 0.0000
# 4 0.0000 0.0000 0.0000 21.0055 0.0000 0.0000
# 5 0.0000 0.0000 0.0000 0.0000 36.4811 0.0000
# 6 0.0000 0.0000 0.0000 0.0000 0.0000 23.5143
#
#
#
# Elastic Compliance Matrix: (Units=1/GPa)
#
#
# Indices 1 2 3 4 5 6 
#
# 1 0.013272 -0.007158 -0.001920 0.000000 0.000000 0.000000
# 2 -0.007158 0.018763 -0.002766 0.000000 0.000000 0.000000
# 3 -0.001920 -0.002766 0.007749 0.000000 0.000000 0.000000
# 4 0.000000 0.000000 0.000000 0.047607 0.000000 0.000000
# 5 0.000000 0.000000 0.000000 0.000000 0.027411 0.000000
# 6 0.000000 0.000000 0.000000 0.000000 0.000000 0.042527
#
#
# Mechanical properties :
#
#
# Convention : Reuss Voigt Hill
#
# Bulk Modulus (GPa) = 62.12897 66.43318 64.28108
# Shear Modulus (GPa) = 26.82649 30.07570 28.45109
#
# Velocity S-wave (km/s) = 3.79644 4.01978 3.90971
# Velocity P-wave (km/s) = 7.25238 7.56552 7.41061
#
# Compressibility (1/GPa) = 0.01609555
#
# Stress axis : x y z
#
# Youngs Moduli (GPa) = 75.34663 53.29518 129.05704
#
# Poissons Ratio (x) = 0.38150 0.24782
# Poissons Ratio (y) = 0.53935 0.35693
# Poissons Ratio (z) = 0.14469 0.14740
#
# Static dielectric constant tensor:
#      x y z
#    x 3.866740 0.000000 0.000000 
#    y 0.000000 3.368620 0.000000 
#    z 0.000000 0.000000 3.471910 
# 
# 
# High freq. dielectric constant tensor:
#      x y z
#    x 1.708870 0.000000 0.000000 
#    y 0.000000 1.702930 0.000000 
#    z 0.000000 0.000000 1.738620 
# 
# From -- ./inp_files/6726.got.cif
#   From: 2010.03.12/outbox.cif.g09.slc.cpg/sg66_4_cif.got.tgz:6726.got - 2010.04.10 21:57:39.
