data_PCOD8275781
_publ_section_title
;
Structure prediction by ZEFSAII (Michael W. Deem and Ramdas Pophale) SiO2 
 PCOD8275781
Probable space group: C C C M
;
_chemical_formula_sum "Si O2"
_cell_formula_units_Z 88
_cell_length_a 18.986702
_cell_length_b 8.861583
_cell_length_c 26.701374
_cell_angle_alpha 90.000000
_cell_angle_beta 90.000000
_cell_angle_gamma 90.000000
_cell_volume 4492.565871
_symmetry_space_group_name_H-M "C C C M"
_symmetry_group_IT_number 66
_symmetry_cell_setting 'orthorhombic'
loop_
_space_group_symop_operation_xyz
x,y,z
-x,-y,z
x,-y,1/2-z
-x,y,1/2-z
-x,-y,-z
x,y,-z
-x,y,1/2+z
x,-y,1/2+z
1/2+x,1/2+y,z
1/2-x,1/2-y,z
1/2+x,1/2-y,1/2-z
1/2-x,1/2+y,1/2-z
1/2-x,1/2-y,-z
1/2+x,1/2+y,-z
1/2-x,1/2+y,1/2+z
1/2+x,1/2-y,1/2+z
loop_
_atom_site_type_symbol
_atom_site_label
_atom_site_fract_x
_atom_site_fract_y
_atom_site_fract_z
Si Si1 0.299723 0.386444 0.705797
Si Si2 0.622281 0.817890 0.942406
Si Si3 0.272115 0.976535 0.107582
Si Si4 0.000000 0.500000 0.395522
Si Si5 0.394800 0.238235 0.367847
Si Si6 0.371250 0.526226 0.943123
O O1 0.319202 0.500000 0.750000
O O2 0.250000 0.250000 0.724865
O O3 0.262009 0.486382 0.662826
O O4 0.372712 0.313642 0.684977
O O5 0.685655 0.871205 0.906187
O O6 0.606785 0.644414 0.930654
O O7 0.552172 0.911859 0.931883
O O8 0.645044 0.842003 0.000000
O O9 0.325379 0.835701 0.107064
O O10 0.211822 0.950991 0.066534
O O11 0.042797 0.383208 0.359890
O O12 0.418321 0.366654 0.407424
O O13 0.388876 0.569161 0.000000
#
# Coordination Sequence:
#
# PCOD8275781 Si02
#       6
#    16  16  16   8  16  16
#     4   9  18  33  55  86 110 128 164 218 278 334
#     4  10  20  32  50  77 110 149 188 222 259 312
#     4   9  18  33  51  78 111 140 171 212 273 332
#     4  10  21  38  52  68 105 154 193 220 253 308
#     4   9  20  35  52  77 108 144 181 215 261 317
#     4  10  19  30  48  77 109 139 179 229 270 309
#
# _framework density 19.587914999999999
#
# number of rings (size 3 to 8) (size 9 to 14) (size 15 to 20)
#    0.000    2.545    0.000    3.000    0.000   10.182 
#    0.000    1.818    0.000    0.000    0.000  143.182 
#    0.000    0.000    0.000    0.000    0.000    0.000 
#
# Total GULP energy -545484.991587 kJ/mol
# GULP energy per Si atom -12397.386172 kJ/mol
# Density = 1.954333 g / cm^3
# Si number density = 19.587915 Si / 1000 Ang^3
#
#
#
# Elastic Constant Matrix: (Units=GPa)
#
#
# Indices 1 2 3 4 5 6 
#
# 1 78.4186 49.9452 29.8481 0.0000 0.0000 0.0000
# 2 49.9452 123.7687 76.9107 0.0000 0.0000 0.0000
# 3 29.8481 76.9107 98.1849 0.0000 0.0000 0.0000
# 4 0.0000 0.0000 0.0000 37.5421 0.0000 0.0000
# 5 0.0000 0.0000 0.0000 0.0000 5.2103 0.0000
# 6 0.0000 0.0000 0.0000 0.0000 0.0000 27.8192
#
#
#
# Elastic Compliance Matrix: (Units=1/GPa)
#
#
# Indices 1 2 3 4 5 6 
#
# 1 0.017172 -0.007181 0.000405 0.000000 0.000000 0.000000
# 2 -0.007181 0.018745 -0.012501 0.000000 0.000000 0.000000
# 3 0.000405 -0.012501 0.019854 0.000000 0.000000 0.000000
# 4 0.000000 0.000000 0.000000 0.026637 0.000000 0.000000
# 5 0.000000 0.000000 0.000000 0.000000 0.191928 0.000000
# 6 0.000000 0.000000 0.000000 0.000000 0.000000 0.035946
#
#
# Mechanical properties :
#
#
# Convention : Reuss Voigt Hill
#
# Bulk Modulus (GPa) = 58.08121 68.19779 63.13950
# Shear Modulus (GPa) = 14.10138 23.69218 18.89678
#
# Velocity S-wave (km/s) = 2.68601 3.48160 3.10936
# Velocity P-wave (km/s) = 6.27180 7.14520 6.72270
#
# Compressibility (1/GPa) = 0.01721727
#
# Stress axis : x y z
#
# Youngs Moduli (GPa) = 58.23584 53.34642 50.36784
#
# Poissons Ratio (x) = 0.38308 -0.02039
# Poissons Ratio (y) = 0.41819 0.62964
# Poissons Ratio (z) = -0.02358 0.66687
#
# Static dielectric constant tensor:
#      x y z
#    x 3.500520 0.000000 0.000000 
#    y 0.000000 3.831810 0.000000 
#    z 0.000000 0.000000 3.266550 
# 
# 
# High freq. dielectric constant tensor:
#      x y z
#    x 1.746890 0.000000 0.000000 
#    y 0.000000 1.779980 0.000000 
#    z 0.000000 0.000000 1.731470 
# 
# From -- ./inp_files/69918.got.cif
#   From: 2010.03.12/outbox.cif.g09.slc.cpg/sg66_35_cif.got.tgz:69918.got - 2010.04.10 21:57:39.
