data_PCOD8275025
_publ_section_title
;
Structure prediction by ZEFSAII (Michael W. Deem and Ramdas Pophale) SiO2 
 PCOD8275025
Probable space group: C M M M
;
_chemical_formula_sum "Si O2"
_cell_formula_units_Z 96
_cell_length_a 24.549030
_cell_length_b 14.604275
_cell_length_c 17.837397
_cell_angle_alpha 90.000000
_cell_angle_beta 90.000000
_cell_angle_gamma 90.000000
_cell_volume 6395.077577
_symmetry_space_group_name_H-M "C M M M"
_symmetry_group_IT_number 65
_symmetry_cell_setting 'orthorhombic'
loop_
_space_group_symop_operation_xyz
x,y,z
-x,-y,z
x,-y,-z
-x,y,-z
-x,-y,-z
x,y,-z
-x,y,z
x,-y,z
1/2+x,1/2+y,z
1/2-x,1/2-y,z
1/2+x,1/2-y,-z
1/2-x,1/2+y,-z
1/2-x,1/2-y,-z
1/2+x,1/2+y,-z
1/2-x,1/2+y,z
1/2+x,1/2-y,z
loop_
_atom_site_type_symbol
_atom_site_label
_atom_site_fract_x
_atom_site_fract_y
_atom_site_fract_z
Si Si1 0.063480 0.607556 0.714019
Si Si2 0.229144 0.654997 0.683685
Si Si3 0.190760 0.101625 0.802700
Si Si4 0.356988 0.209734 0.807597
Si Si5 0.787876 0.394653 0.913799
Si Si6 0.362143 0.896749 0.581800
O O1 0.076770 0.500000 0.727786
O O2 0.084217 0.668301 0.784610
O O3 0.093978 0.646249 0.639466
O O4 0.000000 0.624854 0.703645
O O5 0.250000 0.750000 0.649486
O O6 0.279304 0.600146 0.721224
O O7 0.186467 0.671269 0.749412
O O8 0.199148 0.603386 0.615835
O O9 0.143343 0.178871 0.806328
O O10 0.233098 0.128110 0.868043
O O11 0.165667 0.000000 0.815443
O O12 0.338312 0.169352 0.887844
O O13 0.804837 0.500000 0.900823
O O14 0.775441 0.373229 0.000000
O O15 0.363611 0.846781 0.500000
O O16 0.380082 0.000000 0.568953
#
# Coordination Sequence:
#
# PCOD8275025 Si02
#       6
#    16  16  16  16  16  16
#     4   9  17  29  44  58  72  95 128 164 201 240
#     4   8  14  24  37  53  74 103 133 158 184 219
#     4   9  16  25  38  56  80 109 135 158 187 225
#     4   9  16  26  40  57  77 102 133 164 193 226
#     4   9  16  25  39  61  87 111 133 157 186 222
#     4   9  16  24  35  54  79 102 123 151 189 233
#
# _framework density 15.011545
#
# number of rings (size 3 to 8) (size 9 to 14) (size 15 to 20)
#    0.000    3.167    0.000    2.500    0.000    6.000 
#    0.000    1.667    0.000    1.000    0.000    2.333 
#    0.000    0.000    0.000   19.167    0.000    0.667 
#
# Total GULP energy -594714.788895 kJ/mol
# GULP energy per Si atom -12389.891435 kJ/mol
# Density = 1.497738 g / cm^3
# Si number density = 15.011545 Si / 1000 Ang^3
#
#
#
# Elastic Constant Matrix: (Units=GPa)
#
#
# Indices 1 2 3 4 5 6 
#
# 1 55.9508 26.8064 32.2530 0.0000 0.0000 0.0000
# 2 26.8064 68.7996 29.9073 0.0000 0.0000 0.0000
# 3 32.2530 29.9073 77.1082 0.0000 0.0000 0.0000
# 4 0.0000 0.0000 0.0000 11.5219 0.0000 0.0000
# 5 0.0000 0.0000 0.0000 0.0000 8.4963 0.0000
# 6 0.0000 0.0000 0.0000 0.0000 0.0000 18.7073
#
#
#
# Elastic Compliance Matrix: (Units=1/GPa)
#
#
# Indices 1 2 3 4 5 6 
#
# 1 0.025716 -0.006428 -0.008264 0.000000 0.000000 0.000000
# 2 -0.006428 0.019089 -0.004715 0.000000 0.000000 0.000000
# 3 -0.008264 -0.004715 0.018254 0.000000 0.000000 0.000000
# 4 0.000000 0.000000 0.000000 0.086791 0.000000 0.000000
# 5 0.000000 0.000000 0.000000 0.000000 0.117699 0.000000
# 6 0.000000 0.000000 0.000000 0.000000 0.000000 0.053455
#
#
# Mechanical properties :
#
#
# Convention : Reuss Voigt Hill
#
# Bulk Modulus (GPa) = 41.24344 42.19913 41.72129
# Shear Modulus (GPa) = 13.59069 15.27122 14.43096
#
# Velocity S-wave (km/s) = 3.01217 3.19297 3.10389
# Velocity P-wave (km/s) = 6.29537 6.46263 6.37955
#
# Compressibility (1/GPa) = 0.02424628
#
# Stress axis : x y z
#
# Youngs Moduli (GPa) = 38.88655 52.38585 54.78189
#
# Poissons Ratio (x) = 0.33671 0.45269
# Poissons Ratio (y) = 0.24994 0.25832
# Poissons Ratio (z) = 0.32134 0.24702
#
# Static dielectric constant tensor:
#      x y z
#    x 2.666100 0.000000 0.000000 
#    y 0.000000 2.900050 0.000000 
#    z 0.000000 0.000000 3.097980 
# 
# 
# High freq. dielectric constant tensor:
#      x y z
#    x 1.527420 0.000000 0.000000 
#    y 0.000000 1.563840 0.000000 
#    z 0.000000 0.000000 1.569040 
# 
# From -- ./inp_files/55961.got.cif
#   From: 2010.03.12/outbox.cif.g09.slc.cpg/sg65_28_cif.got.tgz:55961.got - 2010.04.10 20:52:16.
