data_PCOD8275515
_publ_section_title
;
Structure prediction by ZEFSAII (Michael W. Deem and Ramdas Pophale) SiO2 
 PCOD8275515
Probable space group: C C C M
;
_chemical_formula_sum "Si O2"
_cell_formula_units_Z 80
_cell_length_a 25.899488
_cell_length_b 9.696738
_cell_length_c 17.356764
_cell_angle_alpha 90.000000
_cell_angle_beta 90.000000
_cell_angle_gamma 90.000000
_cell_volume 4358.987248
_symmetry_space_group_name_H-M "C C C M"
_symmetry_group_IT_number 66
_symmetry_cell_setting 'orthorhombic'
loop_
_space_group_symop_operation_xyz
x,y,z
-x,-y,z
x,-y,1/2-z
-x,y,1/2-z
-x,-y,-z
x,y,-z
-x,y,1/2+z
x,-y,1/2+z
1/2+x,1/2+y,z
1/2-x,1/2-y,z
1/2+x,1/2-y,1/2-z
1/2-x,1/2+y,1/2-z
1/2-x,1/2-y,-z
1/2+x,1/2+y,-z
1/2-x,1/2+y,1/2+z
1/2+x,1/2-y,1/2+z
loop_
_atom_site_type_symbol
_atom_site_label
_atom_site_fract_x
_atom_site_fract_y
_atom_site_fract_z
Si Si1 0.465970 0.714417 0.090145
Si Si2 0.082344 0.749742 0.591447
Si Si3 0.109960 0.453778 0.589695
Si Si4 0.383101 0.520056 0.840258
Si Si5 0.309050 0.263223 0.408578
O O1 0.524256 0.721285 0.120765
O O2 0.440772 0.863112 0.106301
O O3 0.435965 0.596013 0.136142
O O4 0.462586 0.676006 0.000000
O O5 0.082313 0.742575 0.500000
O O6 0.102716 0.604783 0.627691
O O7 0.119654 0.869949 0.620623
O O8 0.117477 0.477272 0.500000
O O9 0.160580 0.373324 0.620944
O O10 0.381015 0.500000 0.750000
O O11 0.332952 0.602628 0.868522
O O12 0.315624 0.281256 0.500000
O O13 0.250000 0.250000 0.383179
#
# Coordination Sequence:
#
# PCOD8275515 Si02
#       5
#    16  16  16  16  16
#     4   9  17  31  51  73 102 140 173 201 244 305
#     4  10  18  30  51  77 102 131 171 216 252 289
#     4   8  15  29  51  78 101 124 165 216 257 294
#     4  11  22  34  48  73 106 136 166 206 256 311
#     4   9  18  37  61  77  95 131 176 217 263 319
#
# _framework density 18.352888
#
# number of rings (size 3 to 8) (size 9 to 14) (size 15 to 20)
#    0.000    2.600    0.000    4.200    0.000    5.600 
#    0.000    7.000    0.000    9.600    0.000    0.000 
#    0.000    0.000    0.000    0.000    0.000    0.000 
#
# Total GULP energy -495926.743338 kJ/mol
# GULP energy per Si atom -12398.168583 kJ/mol
# Density = 1.831112 g / cm^3
# Si number density = 18.352888 Si / 1000 Ang^3
#
#
#
# Elastic Constant Matrix: (Units=GPa)
#
#
# Indices 1 2 3 4 5 6 
#
# 1 130.8708 74.3552 38.0234 0.0000 0.0000 0.0000
# 2 74.3552 153.9184 30.7087 0.0000 0.0000 0.0000
# 3 38.0234 30.7087 40.0877 0.0000 0.0000 0.0000
# 4 0.0000 0.0000 0.0000 2.1962 0.0000 0.0000
# 5 0.0000 0.0000 0.0000 0.0000 15.5629 0.0000
# 6 0.0000 0.0000 0.0000 0.0000 0.0000 20.7658
#
#
#
# Elastic Compliance Matrix: (Units=1/GPa)
#
#
# Indices 1 2 3 4 5 6 
#
# 1 0.012639 -0.004384 -0.008630 0.000000 0.000000 0.000000
# 2 -0.004384 0.009190 -0.002881 0.000000 0.000000 0.000000
# 3 -0.008630 -0.002881 0.035338 0.000000 0.000000 0.000000
# 4 0.000000 0.000000 0.000000 0.455331 0.000000 0.000000
# 5 0.000000 0.000000 0.000000 0.000000 0.064255 0.000000
# 6 0.000000 0.000000 0.000000 0.000000 0.000000 0.048156
#
#
# Mechanical properties :
#
#
# Convention : Reuss Voigt Hill
#
# Bulk Modulus (GPa) = 39.40700 67.89462 53.65081
# Shear Modulus (GPa) = 7.51700 19.82430 13.67065
#
# Velocity S-wave (km/s) = 2.02601 3.29016 2.73220
# Velocity P-wave (km/s) = 5.19532 7.17690 6.26495
#
# Compressibility (1/GPa) = 0.02537620
#
# Stress axis : x y z
#
# Youngs Moduli (GPa) = 79.11795 108.81805 28.29790
#
# Poissons Ratio (x) = 0.47706 0.24422
# Poissons Ratio (y) = 0.34685 0.08154
# Poissons Ratio (z) = 0.68280 0.31354
#
# Static dielectric constant tensor:
#      x y z
#    x 3.370070 0.000000 0.000000 
#    y 0.000000 3.967980 0.000000 
#    z 0.000000 0.000000 2.970530 
# 
# 
# High freq. dielectric constant tensor:
#      x y z
#    x 1.697470 0.000000 0.000000 
#    y 0.000000 1.727220 0.000000 
#    z 0.000000 0.000000 1.672920 
# 
# From -- ./inp_files/36957.got.cif
#   From: 2010.03.12/outbox.cif.g09.slc.cpg/sg66_19_cif.got.tgz:36957.got - 2010.04.10 21:57:39.
