data_PCOD8275387
_publ_section_title
;
Structure prediction by ZEFSAII (Michael W. Deem and Ramdas Pophale) SiO2 
 PCOD8275387
Probable space group: C C C M
;
_chemical_formula_sum "Si O2"
_cell_formula_units_Z 88
_cell_length_a 15.016604
_cell_length_b 8.955120
_cell_length_c 29.083688
_cell_angle_alpha 90.000000
_cell_angle_beta 90.000000
_cell_angle_gamma 90.000000
_cell_volume 3911.043218
_symmetry_space_group_name_H-M "C C C M"
_symmetry_group_IT_number 66
_symmetry_cell_setting 'orthorhombic'
loop_
_space_group_symop_operation_xyz
x,y,z
-x,-y,z
x,-y,1/2-z
-x,y,1/2-z
-x,-y,-z
x,y,-z
-x,y,1/2+z
x,-y,1/2+z
1/2+x,1/2+y,z
1/2-x,1/2-y,z
1/2+x,1/2-y,1/2-z
1/2-x,1/2+y,1/2-z
1/2-x,1/2-y,-z
1/2+x,1/2+y,-z
1/2-x,1/2+y,1/2+z
1/2+x,1/2-y,1/2+z
loop_
_atom_site_type_symbol
_atom_site_label
_atom_site_fract_x
_atom_site_fract_y
_atom_site_fract_z
Si Si1 0.056262 0.205848 0.710440
Si Si2 0.502784 0.176666 0.882167
Si Si3 0.655951 0.187022 0.551542
Si Si4 0.650126 0.000000 0.250000
Si Si5 0.188197 0.371799 0.581367
Si Si6 0.727138 0.417438 0.822982
O O1 0.992159 0.254543 0.668280
O O2 0.093745 0.356001 0.735275
O O3 0.122442 0.078679 0.689639
O O4 0.000000 0.123858 0.750000
O O5 0.423653 0.238458 0.914800
O O6 0.600283 0.217358 0.901950
O O7 0.500000 0.000000 0.877858
O O8 0.635751 0.246133 0.500000
O O9 0.750000 0.250000 0.569788
O O10 0.661740 0.007121 0.548391
O O11 0.715828 0.963431 0.206650
O O12 0.250000 0.250000 0.555270
O O13 0.245783 0.438623 0.623933
O O14 0.750000 0.250000 0.806793
#
# Coordination Sequence:
#
# PCOD8275387 Si02
#       6
#    16  16  16   8  16  16
#     4  11  20  32  53  85 118 157 205 250 292 353
#     4  10  19  35  62  90 117 156 205 257 303 361
#     4  10  24  44  63  91 125 156 199 260 323 380
#     4  10  17  32  55  76 110 158 196 243 294 343
#     4  10  18  38  67  90 121 156 204 255 308 366
#     4   9  18  34  52  79 118 157 193 249 295 343
#
# _framework density 22.500389999999999
#
# number of rings (size 3 to 8) (size 9 to 14) (size 15 to 20)
#    0.000    2.000    5.455    1.364    2.545    3.636 
#    3.273    1.364    0.000    2.182    0.000    0.000 
#    0.000    0.000    0.000    0.000    0.000    0.000 
#
# Total GULP energy -545093.398266 kJ/mol
# GULP energy per Si atom -12388.486324 kJ/mol
# Density = 2.244918 g / cm^3
# Si number density = 22.500390 Si / 1000 Ang^3
#
#
#
# Elastic Constant Matrix: (Units=GPa)
#
#
# Indices 1 2 3 4 5 6 
#
# 1 138.3919 12.3758 67.6120 0.0000 0.0000 0.0000
# 2 12.3758 30.7940 9.3845 0.0000 0.0000 0.0000
# 3 67.6120 9.3845 109.7479 0.0000 0.0000 0.0000
# 4 0.0000 0.0000 0.0000 2.3684 0.0000 0.0000
# 5 0.0000 0.0000 0.0000 0.0000 34.9592 0.0000
# 6 0.0000 0.0000 0.0000 0.0000 0.0000 21.8433
#
#
#
# Elastic Compliance Matrix: (Units=1/GPa)
#
#
# Indices 1 2 3 4 5 6 
#
# 1 0.010494 -0.002307 -0.006268 0.000000 0.000000 0.000000
# 2 -0.002307 0.033850 -0.001473 0.000000 0.000000 0.000000
# 3 -0.006268 -0.001473 0.013099 0.000000 0.000000 0.000000
# 4 0.000000 0.000000 0.000000 0.422230 0.000000 0.000000
# 5 0.000000 0.000000 0.000000 0.000000 0.028605 0.000000
# 6 0.000000 0.000000 0.000000 0.000000 0.000000 0.045781
#
#
# Mechanical properties :
#
#
# Convention : Reuss Voigt Hill
#
# Bulk Modulus (GPa) = 26.77591 50.85314 38.81453
# Shear Modulus (GPa) = 8.52362 24.47160 16.49761
#
# Velocity S-wave (km/s) = 1.94844 3.30147 2.71073
# Velocity P-wave (km/s) = 4.12164 6.09779 5.20437
#
# Compressibility (1/GPa) = 0.03734701
#
# Stress axis : x y z
#
# Youngs Moduli (GPa) = 95.28853 29.54202 76.34039
#
# Poissons Ratio (x) = 0.06817 0.47850
# Poissons Ratio (y) = 0.21987 0.11245
# Poissons Ratio (z) = 0.59727 0.04351
#
# Static dielectric constant tensor:
#      x y z
#    x 4.790780 0.000000 0.000000 
#    y 0.000000 3.616940 0.000000 
#    z 0.000000 0.000000 3.883280 
# 
# 
# High freq. dielectric constant tensor:
#      x y z
#    x 1.899560 0.000000 0.000000 
#    y 0.000000 1.844180 0.000000 
#    z 0.000000 0.000000 1.877320 
# 
# From -- ./inp_files/64540.got.cif
#   From: 2010.03.12/outbox.cif.g09.slc.cpg/sg66_33_cif.got.tgz:64540.got - 2010.04.10 21:57:39.
