data_PCOD8275256
_publ_section_title
;
Structure prediction by ZEFSAII (Michael W. Deem and Ramdas Pophale) SiO2 
 PCOD8275256
Probable space group: C C C M
;
_chemical_formula_sum "Si O2"
_cell_formula_units_Z 88
_cell_length_a 17.361095
_cell_length_b 17.625558
_cell_length_c 14.019247
_cell_angle_alpha 90.000000
_cell_angle_beta 90.000000
_cell_angle_gamma 90.000000
_cell_volume 4289.875379
_symmetry_space_group_name_H-M "C C C M"
_symmetry_group_IT_number 66
_symmetry_cell_setting 'orthorhombic'
loop_
_space_group_symop_operation_xyz
x,y,z
-x,-y,z
x,-y,1/2-z
-x,y,1/2-z
-x,-y,-z
x,y,-z
-x,y,1/2+z
x,-y,1/2+z
1/2+x,1/2+y,z
1/2-x,1/2-y,z
1/2+x,1/2-y,1/2-z
1/2-x,1/2+y,1/2-z
1/2-x,1/2-y,-z
1/2+x,1/2+y,-z
1/2-x,1/2+y,1/2+z
1/2+x,1/2-y,1/2+z
loop_
_atom_site_type_symbol
_atom_site_label
_atom_site_fract_x
_atom_site_fract_y
_atom_site_fract_z
Si Si1 0.381426 0.310287 0.107264
Si Si2 0.500000 0.156556 0.750000
Si Si3 0.126325 0.632916 0.610964
Si Si4 0.230348 0.083095 0.218037
Si Si5 0.947777 0.224912 0.108101
Si Si6 0.784371 0.167352 0.103304
O O1 0.357554 0.222704 0.126974
O O2 0.340486 0.368632 0.177482
O O3 0.472709 0.320880 0.123235
O O4 0.357089 0.331916 0.000000
O O5 0.554218 0.107706 0.678354
O O6 0.556476 0.206972 0.816251
O O7 0.107395 0.616342 0.500000
O O8 0.200106 0.583720 0.642237
O O9 0.259830 0.120751 0.316130
O O10 0.202767 0.000000 0.250000
O O11 0.875968 0.169505 0.125508
O O12 0.945670 0.258392 0.000000
O O13 0.750000 0.250000 0.101123
O O14 0.771113 0.128345 0.000000
#
# Coordination Sequence:
#
# PCOD8275256 Si02
#       6
#    16   8  16  16  16  16
#     4   9  18  35  60  85 109 143 189 242 292 340
#     4  10  16  30  59  88 113 134 174 234 294 352
#     4  10  21  38  63  90 113 143 186 237 291 349
#     4  12  24  36  53  78 114 154 191 233 284 343
#     4   9  17  30  53  85 114 142 185 241 293 339
#     4  10  20  35  55  79 109 146 190 237 284 337
#
# _framework density 20.513417
#
# number of rings (size 3 to 8) (size 9 to 14) (size 15 to 20)
#    0.000    2.000    0.000    7.091    0.000    2.909 
#    0.000    3.182    0.000    4.364    0.000    0.000 
#    0.000    0.000    0.000    0.000    0.000    0.000 
#
# Total GULP energy -545350.718212 kJ/mol
# GULP energy per Si atom -12394.334505 kJ/mol
# Density = 2.046673 g / cm^3
# Si number density = 20.513417 Si / 1000 Ang^3
#
#
#
# Elastic Constant Matrix: (Units=GPa)
#
#
# Indices 1 2 3 4 5 6 
#
# 1 77.9478 16.1864 42.2626 0.0000 0.0000 0.0000
# 2 16.1864 46.3760 21.1032 0.0000 0.0000 0.0000
# 3 42.2626 21.1032 141.3507 0.0000 0.0000 0.0000
# 4 0.0000 0.0000 0.0000 13.6688 0.0000 0.0000
# 5 0.0000 0.0000 0.0000 0.0000 30.0606 0.0000
# 6 0.0000 0.0000 0.0000 0.0000 0.0000 7.9337
#
#
#
# Elastic Compliance Matrix: (Units=1/GPa)
#
#
# Indices 1 2 3 4 5 6 
#
# 1 0.015859 -0.003624 -0.004201 0.000000 0.000000 0.000000
# 2 -0.003624 0.023963 -0.002494 0.000000 0.000000 0.000000
# 3 -0.004201 -0.002494 0.008703 0.000000 0.000000 0.000000
# 4 0.000000 0.000000 0.000000 0.073159 0.000000 0.000000
# 5 0.000000 0.000000 0.000000 0.000000 0.033266 0.000000
# 6 0.000000 0.000000 0.000000 0.000000 0.000000 0.126045
#
#
# Mechanical properties :
#
#
# Convention : Reuss Voigt Hill
#
# Bulk Modulus (GPa) = 35.85823 47.19768 41.52795
# Shear Modulus (GPa) = 16.08089 22.74077 19.41083
#
# Velocity S-wave (km/s) = 2.80290 3.33315 3.07946
# Velocity P-wave (km/s) = 5.29087 6.15397 5.73867
#
# Compressibility (1/GPa) = 0.02788760
#
# Stress axis : x y z
#
# Youngs Moduli (GPa) = 63.05489 41.73175 114.90365
#
# Poissons Ratio (x) = 0.15122 0.48268
# Poissons Ratio (y) = 0.22849 0.28658
# Poissons Ratio (z) = 0.26488 0.10408
#
# Static dielectric constant tensor:
#      x y z
#    x 3.820290 0.000000 0.000000 
#    y 0.000000 3.155940 0.000000 
#    z 0.000000 0.000000 4.382690 
# 
# 
# High freq. dielectric constant tensor:
#      x y z
#    x 1.804700 0.000000 0.000000 
#    y 0.000000 1.726340 0.000000 
#    z 0.000000 0.000000 1.840320 
# 
# From -- ./inp_files/30051.got.cif
#   From: 2010.03.12/outbox.cif.g09.slc.cpg/sg66_16_cif.got.tgz:30051.got - 2010.04.10 21:57:39.
