data_PCOD8275313
_publ_section_title
;
Structure prediction by ZEFSAII (Michael W. Deem and Ramdas Pophale) SiO2 
 PCOD8275313
Probable space group: C C C M
;
_chemical_formula_sum "Si O2"
_cell_formula_units_Z 128
_cell_length_a 24.410957
_cell_length_b 15.358485
_cell_length_c 17.399380
_cell_angle_alpha 90.000000
_cell_angle_beta 90.000000
_cell_angle_gamma 90.000000
_cell_volume 6523.294067
_symmetry_space_group_name_H-M "C C C M"
_symmetry_group_IT_number 66
_symmetry_cell_setting 'orthorhombic'
loop_
_space_group_symop_operation_xyz
x,y,z
-x,-y,z
x,-y,1/2-z
-x,y,1/2-z
-x,-y,-z
x,y,-z
-x,y,1/2+z
x,-y,1/2+z
1/2+x,1/2+y,z
1/2-x,1/2-y,z
1/2+x,1/2-y,1/2-z
1/2-x,1/2+y,1/2-z
1/2-x,1/2-y,-z
1/2+x,1/2+y,-z
1/2-x,1/2+y,1/2+z
1/2+x,1/2-y,1/2+z
loop_
_atom_site_type_symbol
_atom_site_label
_atom_site_fract_x
_atom_site_fract_y
_atom_site_fract_z
Si Si1 0.245372 0.425478 0.685762
Si Si2 0.156166 0.374932 0.914131
Si Si3 0.169546 0.976861 0.410139
Si Si4 0.860397 0.567959 0.586264
Si Si5 0.979821 0.592841 0.408799
Si Si6 0.239116 0.844640 0.331713
Si Si7 0.059220 0.257431 0.091836
Si Si8 0.952011 0.060858 0.409953
O O1 0.239821 0.500000 0.750000
O O2 0.294744 0.445570 0.626720
O O3 0.188945 0.405403 0.642389
O O4 0.263148 0.342980 0.738387
O O5 0.123344 0.465667 0.914620
O O6 0.207915 0.398649 0.860677
O O7 0.118212 0.296620 0.881471
O O8 0.176415 0.351675 0.000000
O O9 0.182668 0.973021 0.500000
O O10 0.185386 0.884983 0.370879
O O11 0.105101 0.989305 0.394057
O O12 0.843704 0.597517 0.500000
O O13 0.916604 0.613304 0.613801
O O14 0.986473 0.588740 0.500000
O O15 0.000000 0.500000 0.373618
O O16 0.013593 0.675570 0.376064
O O17 0.250000 0.750000 0.365631
O O18 0.049179 0.159513 0.124849
O O19 0.058625 0.255653 0.000000
O O20 0.962662 0.070662 0.500000
O O21 0.000000 0.000000 0.373472
#
# Coordination Sequence:
#
# PCOD8275313 Si02
#       8
#    16  16  16  16  16  16  16  16
#     4  10  20  34  51  72 105 143 179 209 264 327
#     4  10  17  27  50  82 110 135 167 218 275 320
#     4  10  19  34  58  84 105 133 178 228 274 321
#     4  10  17  29  50  76 105 137 175 215 256 317
#     4   9  15  24  43  72 105 139 172 208 261 321
#     4  11  22  34  51  78 112 143 174 217 273 332
#     4   9  16  27  45  75 111 138 170 218 269 324
#     4   9  18  32  50  75 107 138 170 219 277 318
#
# _framework density 19.621988999999999
#
# number of rings (size 3 to 8) (size 9 to 14) (size 15 to 20)
#    0.000    2.250    3.750    1.500    0.000    2.000 
#    0.000    1.250    0.000    9.000    0.000    7.000 
#    0.000    0.000    0.000    0.000    0.000    0.000 
#
# Total GULP energy -793004.219325 kJ/mol
# GULP energy per Si atom -12390.690927 kJ/mol
# Density = 1.957733 g / cm^3
# Si number density = 19.621989 Si / 1000 Ang^3
#
#
#
# Elastic Constant Matrix: (Units=GPa)
#
#
# Indices 1 2 3 4 5 6 
#
# 1 120.7413 28.5096 42.5250 0.0000 0.0000 0.0000
# 2 28.5096 53.2416 14.0031 0.0000 0.0000 0.0000
# 3 42.5250 14.0031 70.5613 0.0000 0.0000 0.0000
# 4 0.0000 0.0000 0.0000 12.1537 0.0000 0.0000
# 5 0.0000 0.0000 0.0000 0.0000 5.5185 0.0000
# 6 0.0000 0.0000 0.0000 0.0000 0.0000 24.9272
#
#
#
# Elastic Compliance Matrix: (Units=1/GPa)
#
#
# Indices 1 2 3 4 5 6 
#
# 1 0.011477 -0.004565 -0.006011 0.000000 0.000000 0.000000
# 2 -0.004565 0.021632 -0.001542 0.000000 0.000000 0.000000
# 3 -0.006011 -0.001542 0.018101 0.000000 0.000000 0.000000
# 4 0.000000 0.000000 0.000000 0.082279 0.000000 0.000000
# 5 0.000000 0.000000 0.000000 0.000000 0.181208 0.000000
# 6 0.000000 0.000000 0.000000 0.000000 0.000000 0.040117
#
#
# Mechanical properties :
#
#
# Convention : Reuss Voigt Hill
#
# Bulk Modulus (GPa) = 37.07189 46.06883 41.57036
# Shear Modulus (GPa) = 12.88522 19.15366 16.01944
#
# Velocity S-wave (km/s) = 2.56534 3.12770 2.86038
# Velocity P-wave (km/s) = 5.26390 6.04752 5.66927
#
# Compressibility (1/GPa) = 0.02697461
#
# Stress axis : x y z
#
# Youngs Moduli (GPa) = 87.13030 46.22749 55.24656
#
# Poissons Ratio (x) = 0.21102 0.33208
# Poissons Ratio (y) = 0.39773 0.08519
# Poissons Ratio (z) = 0.52374 0.07128
#
# Static dielectric constant tensor:
#      x y z
#    x 3.600420 0.000000 0.000000 
#    y 0.000000 3.748050 0.000000 
#    z 0.000000 0.000000 3.380540 
# 
# 
# High freq. dielectric constant tensor:
#      x y z
#    x 1.770470 0.000000 0.000000 
#    y 0.000000 1.744020 0.000000 
#    z 0.000000 0.000000 1.722440 
# 
# From -- ./inp_files/43819.got.cif
#   From: 2010.03.12/outbox.cif.g09.slc.cpg/sg66_22_cif.got.tgz:43819.got - 2010.04.10 21:57:39.
