data_PCOD8275544
_publ_section_title
;
Structure prediction by ZEFSAII (Michael W. Deem and Ramdas Pophale) SiO2 
 PCOD8275544
Probable space group: C C C M
;
_chemical_formula_sum "Si O2"
_cell_formula_units_Z 104
_cell_length_a 13.201381
_cell_length_b 26.300284
_cell_length_c 16.998467
_cell_angle_alpha 90.000000
_cell_angle_beta 90.000000
_cell_angle_gamma 90.000000
_cell_volume 5901.868924
_symmetry_space_group_name_H-M "C C C M"
_symmetry_group_IT_number 66
_symmetry_cell_setting 'orthorhombic'
loop_
_space_group_symop_operation_xyz
x,y,z
-x,-y,z
x,-y,1/2-z
-x,y,1/2-z
-x,-y,-z
x,y,-z
-x,y,1/2+z
x,-y,1/2+z
1/2+x,1/2+y,z
1/2-x,1/2-y,z
1/2+x,1/2-y,1/2-z
1/2-x,1/2+y,1/2-z
1/2-x,1/2-y,-z
1/2+x,1/2+y,-z
1/2-x,1/2+y,1/2+z
1/2+x,1/2-y,1/2+z
loop_
_atom_site_type_symbol
_atom_site_label
_atom_site_fract_x
_atom_site_fract_y
_atom_site_fract_z
Si Si1 0.871397 0.827937 0.411605
Si Si2 0.234573 0.637039 0.592049
Si Si3 0.630535 0.545980 0.906739
Si Si4 0.597120 0.193913 0.299074
Si Si5 0.593508 0.436316 0.093514
Si Si6 0.250000 0.750000 0.191281
Si Si7 0.413190 0.285866 0.087096
O O1 0.828420 0.822204 0.500000
O O2 0.849375 0.884900 0.377220
O O3 0.824400 0.783578 0.360751
O O4 0.993061 0.824322 0.411096
O O5 0.205631 0.633196 0.500000
O O6 0.283193 0.584405 0.624203
O O7 0.134929 0.648375 0.644037
O O8 0.311827 0.683400 0.607655
O O9 0.520551 0.560634 0.871698
O O10 0.655335 0.487381 0.881869
O O11 0.626049 0.551292 0.000000
O O12 0.500000 0.174587 0.250000
O O13 0.686650 0.210018 0.241308
O O14 0.565265 0.241936 0.351076
O O15 0.585011 0.433225 0.000000
O O16 0.401991 0.261525 0.000000
#
# Coordination Sequence:
#
# PCOD8275544 Si02
#       7
#    16  16  16  16  16   8  16
#     4  10  19  32  49  73 105 138 167 200 246 306
#     4  10  18  31  52  78 103 134 171 214 260 308
#     4   8  13  23  46  79 105 127 156 195 250 306
#     4  12  23  35  47  69 101 138 181 219 257 300
#     4   8  13  24  45  75 108 131 153 195 249 303
#     4  12  23  34  49  68  96 140 176 208 251 306
#     4  10  18  31  51  74 102 134 171 211 254 304
#
# _framework density 17.621537
#
# number of rings (size 3 to 8) (size 9 to 14) (size 15 to 20)
#    0.000    2.154    4.615    1.615    0.000    1.231 
#    0.000    0.000    0.000    0.923    0.000    4.308 
#    0.000    4.923    0.000    0.000    0.000    0.000 
#
# Total GULP energy -644467.315019 kJ/mol
# GULP energy per Si atom -12393.602212 kJ/mol
# Density = 1.758143 g / cm^3
# Si number density = 17.621537 Si / 1000 Ang^3
#
#
#
# Elastic Constant Matrix: (Units=GPa)
#
#
# Indices 1 2 3 4 5 6 
#
# 1 70.4400 28.6271 32.0494 0.0000 0.0000 0.0000
# 2 28.6271 106.6516 31.8219 0.0000 0.0000 0.0000
# 3 32.0494 31.8219 56.9915 0.0000 0.0000 0.0000
# 4 0.0000 0.0000 0.0000 3.3600 0.0000 0.0000
# 5 0.0000 0.0000 0.0000 0.0000 26.1659 0.0000
# 6 0.0000 0.0000 0.0000 0.0000 0.0000 28.0568
#
#
#
# Elastic Compliance Matrix: (Units=1/GPa)
#
#
# Indices 1 2 3 4 5 6 
#
# 1 0.019561 -0.002362 -0.009682 0.000000 0.000000 0.000000
# 2 -0.002362 0.011536 -0.005113 0.000000 0.000000 0.000000
# 3 -0.009682 -0.005113 0.025846 0.000000 0.000000 0.000000
# 4 0.000000 0.000000 0.000000 0.297616 0.000000 0.000000
# 5 0.000000 0.000000 0.000000 0.000000 0.038218 0.000000
# 6 0.000000 0.000000 0.000000 0.000000 0.000000 0.035642
#
#
# Mechanical properties :
#
#
# Convention : Reuss Voigt Hill
#
# Bulk Modulus (GPa) = 44.18886 46.56444 45.37665
# Shear Modulus (GPa) = 10.63206 20.95552 15.79379
#
# Velocity S-wave (km/s) = 2.45900 3.45222 2.99704
# Velocity P-wave (km/s) = 5.76136 6.50942 6.14678
#
# Compressibility (1/GPa) = 0.02263014
#
# Stress axis : x y z
#
# Youngs Moduli (GPa) = 51.12115 86.68620 38.69086
#
# Poissons Ratio (x) = 0.20474 0.37459
# Poissons Ratio (y) = 0.12074 0.19783
# Poissons Ratio (z) = 0.49494 0.44323
#
# Static dielectric constant tensor:
#      x y z
#    x 3.033680 0.000000 0.000000 
#    y 0.000000 3.446180 0.000000 
#    z 0.000000 0.000000 3.127160 
# 
# 
# High freq. dielectric constant tensor:
#      x y z
#    x 1.645490 0.000000 0.000000 
#    y 0.000000 1.678860 0.000000 
#    z 0.000000 0.000000 1.662520 
# 
# From -- ./inp_files/40678.got.cif
#   From: 2010.03.12/outbox.cif.g09.slc.cpg/sg66_21_cif.got.tgz:40678.got - 2010.04.10 21:57:39.
