data_PCOD8275465
_publ_section_title
;
Structure prediction by ZEFSAII (Michael W. Deem and Ramdas Pophale) SiO2 
 PCOD8275465
Probable space group: C C C M
;
_chemical_formula_sum "Si O2"
_cell_formula_units_Z 116
_cell_length_a 26.406692
_cell_length_b 26.981144
_cell_length_c 9.304869
_cell_angle_alpha 90.000000
_cell_angle_beta 90.000000
_cell_angle_gamma 90.000000
_cell_volume 6629.558741
_symmetry_space_group_name_H-M "C C C M"
_symmetry_group_IT_number 66
_symmetry_cell_setting 'orthorhombic'
loop_
_space_group_symop_operation_xyz
x,y,z
-x,-y,z
x,-y,1/2-z
-x,y,1/2-z
-x,-y,-z
x,y,-z
-x,y,1/2+z
x,-y,1/2+z
1/2+x,1/2+y,z
1/2-x,1/2-y,z
1/2+x,1/2-y,1/2-z
1/2-x,1/2+y,1/2-z
1/2-x,1/2-y,-z
1/2+x,1/2+y,-z
1/2-x,1/2+y,1/2+z
1/2+x,1/2-y,1/2+z
loop_
_atom_site_type_symbol
_atom_site_label
_atom_site_fract_x
_atom_site_fract_y
_atom_site_fract_z
Si Si1 0.156792 0.691940 0.663404
Si Si2 0.579208 0.577846 0.660707
Si Si3 0.000000 0.000000 0.750000
Si Si4 0.427689 0.687262 0.161792
Si Si5 0.178111 0.950529 0.329856
Si Si6 0.046973 0.716820 0.332176
Si Si7 0.815172 0.785627 0.662757
Si Si8 0.747424 0.639174 0.163440
O O1 0.158912 0.711995 0.500000
O O2 0.097458 0.684775 0.704137
O O3 0.181143 0.732260 0.765974
O O4 0.190648 0.641497 0.678211
O O5 0.602765 0.580141 0.500000
O O6 0.535998 0.535758 0.656883
O O7 0.554005 0.631354 0.698404
O O8 0.623141 0.566540 0.774875
O O9 0.449209 0.726421 0.275879
O O10 0.367243 0.684530 0.174443
O O11 0.443912 0.703459 0.000000
O O12 0.173817 0.959254 0.500000
O O13 0.223210 0.912692 0.288176
O O14 0.194915 0.000000 0.250000
O O15 0.035337 0.718375 0.500000
O O16 0.000000 0.690842 0.250000
O O17 0.798162 0.777362 0.500000
O O18 0.772354 0.816515 0.740542
O O19 0.730827 0.649509 0.000000
#
# Coordination Sequence:
#
# PCOD8275465 Si02
#       8
#    16  16   4  16  16  16  16  16
#     4   9  19  34  50  71 102 135 168 202 240 297
#     4  11  23  40  55  71  96 125 165 219 270 309
#     4  12  26  36  56  78  90 124 174 228 272 304
#     4   9  19  34  50  69  96 129 165 209 253 301
#     4  11  23  38  58  77  98 129 167 210 259 312
#     4  10  20  34  52  73  99 134 168 203 244 291
#     4  10  18  29  48  75 103 130 161 202 251 298
#     4  10  20  34  52  74  99 132 168 202 247 305
#
# _framework density 17.497395000000001
#
# number of rings (size 3 to 8) (size 9 to 14) (size 15 to 20)
#    0.000    1.931    2.069    1.862    0.966    4.966 
#    0.000    0.000    0.000    0.000    0.000    0.000 
#    0.000    0.552    0.000    6.897    0.000    0.000 
#
# Total GULP energy -718843.274463 kJ/mol
# GULP energy per Si atom -12393.849560 kJ/mol
# Density = 1.745757 g / cm^3
# Si number density = 17.497395 Si / 1000 Ang^3
#
#
#
# Elastic Constant Matrix: (Units=GPa)
#
#
# Indices 1 2 3 4 5 6 
#
# 1 116.3169 48.2867 48.8001 0.0000 0.0000 0.0000
# 2 48.2867 50.7138 26.3231 0.0000 0.0000 0.0000
# 3 48.8001 26.3231 84.7980 0.0000 0.0000 0.0000
# 4 0.0000 0.0000 0.0000 15.2263 0.0000 0.0000
# 5 0.0000 0.0000 0.0000 0.0000 21.4686 0.0000
# 6 0.0000 0.0000 0.0000 0.0000 0.0000 16.1360
#
#
#
# Elastic Compliance Matrix: (Units=1/GPa)
#
#
# Indices 1 2 3 4 5 6 
#
# 1 0.016020 -0.012479 -0.005346 0.000000 0.000000 0.000000
# 2 -0.012479 0.033226 -0.003133 0.000000 0.000000 0.000000
# 3 -0.005346 -0.003133 0.015842 0.000000 0.000000 0.000000
# 4 0.000000 0.000000 0.000000 0.065676 0.000000 0.000000
# 5 0.000000 0.000000 0.000000 0.000000 0.046580 0.000000
# 6 0.000000 0.000000 0.000000 0.000000 0.000000 0.061973
#
#
# Mechanical properties :
#
#
# Convention : Reuss Voigt Hill
#
# Bulk Modulus (GPa) = 43.15282 55.40537 49.27910
# Shear Modulus (GPa) = 17.30368 19.12744 18.21556
#
# Velocity S-wave (km/s) = 3.14814 3.30988 3.23002
# Velocity P-wave (km/s) = 6.15876 6.80741 6.49119
#
# Compressibility (1/GPa) = 0.02317345
#
# Stress axis : x y z
#
# Youngs Moduli (GPa) = 62.42050 30.09673 63.12493
#
# Poissons Ratio (x) = 0.37557 0.33745
# Poissons Ratio (y) = 0.77894 0.19775
# Poissons Ratio (z) = 0.33369 0.09428
#
# Static dielectric constant tensor:
#      x y z
#    x 3.463330 0.000000 0.000000 
#    y 0.000000 3.098810 0.000000 
#    z 0.000000 0.000000 3.330080 
# 
# 
# High freq. dielectric constant tensor:
#      x y z
#    x 1.677990 0.000000 0.000000 
#    y 0.000000 1.634670 0.000000 
#    z 0.000000 0.000000 1.687410 
# 
# From -- ./inp_files/10909.got.cif
#   From: 2010.03.12/outbox.cif.g09.slc.cpg/sg66_6_cif.got.tgz:10909.got - 2010.04.10 21:57:39.
