data_PCOD8275497
_publ_section_title
;
Structure prediction by ZEFSAII (Michael W. Deem and Ramdas Pophale) SiO2 
 PCOD8275497
Probable space group: C C C M
;
_chemical_formula_sum "Si O2"
_cell_formula_units_Z 96
_cell_length_a 14.659614
_cell_length_b 19.318155
_cell_length_c 17.801258
_cell_angle_alpha 90.000000
_cell_angle_beta 90.000000
_cell_angle_gamma 90.000000
_cell_volume 5041.257441
_symmetry_space_group_name_H-M "C C C M"
_symmetry_group_IT_number 66
_symmetry_cell_setting 'orthorhombic'
loop_
_space_group_symop_operation_xyz
x,y,z
-x,-y,z
x,-y,1/2-z
-x,y,1/2-z
-x,-y,-z
x,y,-z
-x,y,1/2+z
x,-y,1/2+z
1/2+x,1/2+y,z
1/2-x,1/2-y,z
1/2+x,1/2-y,1/2-z
1/2-x,1/2+y,1/2-z
1/2-x,1/2-y,-z
1/2+x,1/2+y,-z
1/2-x,1/2+y,1/2+z
1/2+x,1/2-y,1/2+z
loop_
_atom_site_type_symbol
_atom_site_label
_atom_site_fract_x
_atom_site_fract_y
_atom_site_fract_z
Si Si1 0.711179 0.149853 0.352614
Si Si2 0.735370 0.668296 0.312388
Si Si3 0.076097 0.817275 0.916213
Si Si4 0.123907 0.783153 0.585893
Si Si5 0.889943 0.342169 0.081832
Si Si6 0.445950 0.066887 0.912564
O O1 0.756568 0.138935 0.271270
O O2 0.796254 0.159146 0.409656
O O3 0.648229 0.219061 0.359091
O O4 0.650562 0.082096 0.371708
O O5 0.750000 0.750000 0.309868
O O6 0.639503 0.646818 0.352600
O O7 0.815201 0.631179 0.359684
O O8 0.111300 0.739649 0.922722
O O9 0.971015 0.818530 0.888974
O O10 0.086156 0.851385 0.000000
O O11 0.115282 0.755788 0.500000
O O12 0.990560 0.367062 0.104712
O O13 0.864989 0.373675 0.000000
O O14 0.500000 0.000000 0.880367
O O15 0.424740 0.056512 0.000000
#
# Coordination Sequence:
#
# PCOD8275497 Si02
#       6
#    16  16  16  16  16  16
#     4  11  19  31  44  73 105 137 171 213 265 322
#     4  10  19  30  44  71 100 134 166 210 268 327
#     4   9  17  30  49  71  97 132 172 209 259 324
#     4  10  18  30  49  69  98 137 172 213 264 320
#     4   9  17  31  48  67  95 132 175 220 257 302
#     4  10  20  35  54  73  98 139 186 222 254 299
#
# _framework density 19.042867999999999
#
# number of rings (size 3 to 8) (size 9 to 14) (size 15 to 20)
#    0.000    2.167    3.333    2.500    0.000    3.333 
#    0.000    1.667    0.000    0.000    0.000    1.167 
#    0.000    9.333    0.000    0.000    0.000    0.000 
#
# Total GULP energy -594819.954455 kJ/mol
# GULP energy per Si atom -12392.082384 kJ/mol
# Density = 1.899953 g / cm^3
# Si number density = 19.042868 Si / 1000 Ang^3
#
#
#
# Elastic Constant Matrix: (Units=GPa)
#
#
# Indices 1 2 3 4 5 6 
#
# 1 137.2999 20.8488 60.7789 0.0000 0.0000 0.0000
# 2 20.8488 31.1820 17.4705 0.0000 0.0000 0.0000
# 3 60.7789 17.4705 98.1352 0.0000 0.0000 0.0000
# 4 0.0000 0.0000 0.0000 10.5974 0.0000 0.0000
# 5 0.0000 0.0000 0.0000 0.0000 23.3339 0.0000
# 6 0.0000 0.0000 0.0000 0.0000 0.0000 27.3983
#
#
#
# Elastic Compliance Matrix: (Units=1/GPa)
#
#
# Indices 1 2 3 4 5 6 
#
# 1 0.010409 -0.003718 -0.005784 0.000000 0.000000 0.000000
# 2 -0.003718 0.036951 -0.004275 0.000000 0.000000 0.000000
# 3 -0.005784 -0.004275 0.014534 0.000000 0.000000 0.000000
# 4 0.000000 0.000000 0.000000 0.094363 0.000000 0.000000
# 5 0.000000 0.000000 0.000000 0.000000 0.042856 0.000000
# 6 0.000000 0.000000 0.000000 0.000000 0.000000 0.036499
#
#
# Mechanical properties :
#
#
# Convention : Reuss Voigt Hill
#
# Bulk Modulus (GPa) = 29.12294 51.64594 40.38444
# Shear Modulus (GPa) = 18.20741 23.43385 20.82063
#
# Velocity S-wave (km/s) = 3.09549 3.51177 3.31018
# Velocity P-wave (km/s) = 5.30119 6.60478 5.98856
#
# Compressibility (1/GPa) = 0.03433720
#
# Stress axis : x y z
#
# Youngs Moduli (GPa) = 96.07447 27.06263 68.80573
#
# Poissons Ratio (x) = 0.10063 0.39800
# Poissons Ratio (y) = 0.35725 0.29416
# Poissons Ratio (z) = 0.55574 0.11570
#
# Static dielectric constant tensor:
#      x y z
#    x 3.785500 0.000000 0.000000 
#    y 0.000000 2.946420 0.000000 
#    z 0.000000 0.000000 3.635200 
# 
# 
# High freq. dielectric constant tensor:
#      x y z
#    x 1.753930 0.000000 0.000000 
#    y 0.000000 1.660910 0.000000 
#    z 0.000000 0.000000 1.736340 
# 
# From -- ./inp_files/28314.got.cif
#   From: 2010.03.12/outbox.cif.g09.slc.cpg/sg66_15_cif.got.tgz:28314.got - 2010.04.10 21:57:39.
