data_PCOD8275375
_publ_section_title
;
Structure prediction by ZEFSAII (Michael W. Deem and Ramdas Pophale) SiO2 
 PCOD8275375
Probable space group: C C C M
;
_chemical_formula_sum "Si O2"
_cell_formula_units_Z 68
_cell_length_a 18.975638
_cell_length_b 5.396658
_cell_length_c 31.031828
_cell_angle_alpha 90.000000
_cell_angle_beta 90.000000
_cell_angle_gamma 90.000000
_cell_volume 3177.815234
_symmetry_space_group_name_H-M "C C C M"
_symmetry_group_IT_number 66
_symmetry_cell_setting 'orthorhombic'
loop_
_space_group_symop_operation_xyz
x,y,z
-x,-y,z
x,-y,1/2-z
-x,y,1/2-z
-x,-y,-z
x,y,-z
-x,y,1/2+z
x,-y,1/2+z
1/2+x,1/2+y,z
1/2-x,1/2-y,z
1/2+x,1/2-y,1/2-z
1/2-x,1/2+y,1/2-z
1/2-x,1/2-y,-z
1/2+x,1/2+y,-z
1/2-x,1/2+y,1/2+z
1/2+x,1/2-y,1/2+z
loop_
_atom_site_type_symbol
_atom_site_label
_atom_site_fract_x
_atom_site_fract_y
_atom_site_fract_z
Si Si1 0.783862 0.999223 0.699779
Si Si2 0.921189 0.275756 0.414429
Si Si3 0.933170 0.166639 0.680086
Si Si4 0.000000 0.500000 0.250000
Si Si5 0.079146 0.773611 0.949328
O O1 0.750000 0.750000 0.679042
O O2 0.766316 0.000000 0.750000
O O3 0.750000 0.250000 0.679118
O O4 0.867246 0.992411 0.691142
O O5 0.919499 0.323557 0.363139
O O6 0.882543 0.515166 0.435765
O O7 0.999617 0.252300 0.432937
O O8 0.883587 0.013835 0.426965
O O9 0.947224 0.341166 0.720836
O O10 0.000000 0.000000 0.670359
O O11 0.081627 0.812361 0.000000
#
# Coordination Sequence:
#
# PCOD8275375 Si02
#       5
#    16  16  16   4  16
#     4  10  24  43  63  83 114 161 215 262 301 361
#     4  10  19  31  50  80 115 157 184 251 293 363
#     4  12  25  40  61  91 128 162 212 256 323 370
#     4  12  26  36  64  94 122 172 208 268 318 392
#     4  10  17  31  50  78 121 161 189 232 312 377
#
# _framework density 21.398349
#
# number of rings (size 3 to 8) (size 9 to 14) (size 15 to 20)
#    0.000    1.412    2.353    6.706    8.235    0.000 
#    0.000    0.000    0.000    0.000    0.000    0.000 
#    0.000   32.000    0.000    0.000    0.000    0.000 
#
# Total GULP energy -421440.772593 kJ/mol
# GULP energy per Si atom -12395.316841 kJ/mol
# Density = 2.134965 g / cm^3
# Si number density = 21.398349 Si / 1000 Ang^3
#
#
#
# Elastic Constant Matrix: (Units=GPa)
#
#
# Indices 1 2 3 4 5 6 
#
# 1 80.5302 39.5062 5.5611 0.0000 0.0000 0.0000
# 2 39.5062 204.6585 53.8468 0.0000 0.0000 0.0000
# 3 5.5611 53.8468 143.3220 0.0000 0.0000 0.0000
# 4 0.0000 0.0000 0.0000 43.8972 0.0000 0.0000
# 5 0.0000 0.0000 0.0000 0.0000 -10.9338 0.0000
# 6 0.0000 0.0000 0.0000 0.0000 0.0000 20.7449
#
#
#
# Elastic Compliance Matrix: (Units=1/GPa)
#
#
# Indices 1 2 3 4 5 6 
#
# 1 0.013751 -0.002790 0.000515 0.000000 0.000000 0.000000
# 2 -0.002790 0.005988 -0.002142 0.000000 0.000000 0.000000
# 3 0.000515 -0.002142 0.007762 0.000000 0.000000 0.000000
# 4 0.000000 0.000000 0.000000 0.022781 0.000000 0.000000
# 5 0.000000 0.000000 0.000000 0.000000 -0.091460 0.000000
# 6 0.000000 0.000000 0.000000 0.000000 0.000000 0.048205
#
#
# Mechanical properties :
#
#
# Convention : Reuss Voigt Hill
#
# Bulk Modulus (GPa) = 53.56934 69.59321 61.58128
# Shear Modulus (GPa) = 226.42945 32.71477 129.57211
#
# Velocity S-wave (km/s) = 10.29787 3.91429 7.78998
# Velocity P-wave (km/s) = 12.90284 7.28163 10.47630
#
# Compressibility (1/GPa) = 0.01866740
#
# Stress axis : x y z
#
# Youngs Moduli (GPa) = 72.72324 166.99617 128.83421
#
# Poissons Ratio (x) = 0.46588 -0.06630
# Poissons Ratio (y) = 0.20288 0.27590
# Poissons Ratio (z) = -0.03742 0.35763
#
# Static dielectric constant tensor:
#      x y z
#    x 3.203330 0.000000 0.000000 
#    y 0.000000 3.582060 0.000000 
#    z 0.000000 0.000000 3.845370 
# 
# 
# High freq. dielectric constant tensor:
#      x y z
#    x 1.762550 0.000000 0.000000 
#    y 0.000000 1.871530 0.000000 
#    z 0.000000 0.000000 1.837470 
# 
# From -- ./inp_files/70116.got.cif
#   From: 2010.03.12/outbox.cif.g09.slc.cpg/sg66_36_cif.got.tgz:70116.got - 2010.04.10 21:57:39.
