data_PCOD8275926
_publ_section_title
;
Structure prediction by ZEFSAII (Michael W. Deem and Ramdas Pophale) SiO2 
 PCOD8275926
Probable space group: C C C M
;
_chemical_formula_sum "Si O2"
_cell_formula_units_Z 44
_cell_length_a 18.240824
_cell_length_b 7.034599
_cell_length_c 17.576976
_cell_angle_alpha 90.000000
_cell_angle_beta 90.000000
_cell_angle_gamma 90.000000
_cell_volume 2255.422760
_symmetry_space_group_name_H-M "C C C M"
_symmetry_group_IT_number 66
_symmetry_cell_setting 'orthorhombic'
loop_
_space_group_symop_operation_xyz
x,y,z
-x,-y,z
x,-y,1/2-z
-x,y,1/2-z
-x,-y,-z
x,y,-z
-x,y,1/2+z
x,-y,1/2+z
1/2+x,1/2+y,z
1/2-x,1/2-y,z
1/2+x,1/2-y,1/2-z
1/2-x,1/2+y,1/2-z
1/2-x,1/2-y,-z
1/2+x,1/2+y,-z
1/2-x,1/2+y,1/2+z
1/2+x,1/2-y,1/2+z
loop_
_atom_site_type_symbol
_atom_site_label
_atom_site_fract_x
_atom_site_fract_y
_atom_site_fract_z
Si Si1 0.500000 0.500000 0.750000
Si Si2 0.203897 0.564560 0.416711
Si Si3 0.893723 0.684289 0.207583
Si Si4 0.750000 0.250000 0.194251
O O1 0.549970 0.640272 0.800797
O O2 0.188677 0.470212 0.500000
O O3 0.250000 0.750000 0.430565
O O4 0.126605 0.618970 0.377669
O O5 0.250655 0.431860 0.360438
O O6 0.928403 0.500000 0.250000
O O7 0.821501 0.753813 0.253014
#
# Coordination Sequence:
#
# PCOD8275926 Si02
#       4
#     4  16  16   8
#     4  12  22  36  58  82 112 150 190 242 288 330
#     4  10  19  32  54  86 117 146 184 236 287 335
#     4  10  21  35  57  83 113 147 193 238 277 340
#     4  10  19  36  59  82 112 148 194 236 277 330
#
# _framework density 19.508538000000001
#
# number of rings (size 3 to 8) (size 9 to 14) (size 15 to 20)
#    0.000    1.818    1.818    3.273    2.545    0.000 
#    0.000    0.909    0.000   19.636    0.000    0.000 
#    0.000    0.000    0.000    0.000    0.000    0.000 
#
# Total GULP energy -272631.863578 kJ/mol
# GULP energy per Si atom -12392.357435 kJ/mol
# Density = 1.946414 g / cm^3
# Si number density = 19.508538 Si / 1000 Ang^3
#
#
#
# Elastic Constant Matrix: (Units=GPa)
#
#
# Indices 1 2 3 4 5 6 
#
# 1 75.6450 40.1590 27.9631 0.0000 0.0000 0.0000
# 2 40.1590 104.6080 23.2924 0.0000 0.0000 0.0000
# 3 27.9631 23.2924 117.7701 0.0000 0.0000 0.0000
# 4 0.0000 0.0000 0.0000 16.8013 0.0000 0.0000
# 5 0.0000 0.0000 0.0000 0.0000 1.1802 0.0000
# 6 0.0000 0.0000 0.0000 0.0000 0.0000 48.3103
#
#
#
# Elastic Compliance Matrix: (Units=1/GPa)
#
#
# Indices 1 2 3 4 5 6 
#
# 1 0.017539 -0.006074 -0.002963 0.000000 0.000000 0.000000
# 2 -0.006074 0.012103 -0.000952 0.000000 0.000000 0.000000
# 3 -0.002963 -0.000952 0.009383 0.000000 0.000000 0.000000
# 4 0.000000 0.000000 0.000000 0.059519 0.000000 0.000000
# 5 0.000000 0.000000 0.000000 0.000000 0.847332 0.000000
# 6 0.000000 0.000000 0.000000 0.000000 0.000000 0.020700
#
#
# Mechanical properties :
#
#
# Convention : Reuss Voigt Hill
#
# Bulk Modulus (GPa) = 52.49782 53.42800 52.96291
# Shear Modulus (GPa) = 5.03574 27.03226 16.03400
#
# Velocity S-wave (km/s) = 1.60839 3.72649 2.86998
# Velocity P-wave (km/s) = 5.51523 6.77953 6.17980
#
# Compressibility (1/GPa) = 0.01904841
#
# Stress axis : x y z
#
# Youngs Moduli (GPa) = 57.01433 82.62396 106.57647
#
# Poissons Ratio (x) = 0.50182 0.31582
# Poissons Ratio (y) = 0.34628 0.10142
# Poissons Ratio (z) = 0.16895 0.07863
#
# Static dielectric constant tensor:
#      x y z
#    x 3.384370 0.000000 0.000000 
#    y 0.000000 3.892460 0.000000 
#    z 0.000000 0.000000 3.844940 
# 
# 
# High freq. dielectric constant tensor:
#      x y z
#    x 1.733210 0.000000 0.000000 
#    y 0.000000 1.779240 0.000000 
#    z 0.000000 0.000000 1.749550 
# 
# From -- ./inp_files/29309.got.cif
#   From: 2010.03.12/outbox.cif.g09.slc.cpg/sg66_15_cif.got.tgz:29309.got - 2010.04.10 21:57:39.
