data_PCOD8275602
_publ_section_title
;
Structure prediction by ZEFSAII (Michael W. Deem and Ramdas Pophale) SiO2 
 PCOD8275602
Probable space group: C C C M
;
_chemical_formula_sum "Si O2"
_cell_formula_units_Z 80
_cell_length_a 24.679588
_cell_length_b 17.034651
_cell_length_c 10.048755
_cell_angle_alpha 90.000000
_cell_angle_beta 90.000000
_cell_angle_gamma 90.000000
_cell_volume 4224.578684
_symmetry_space_group_name_H-M "C C C M"
_symmetry_group_IT_number 66
_symmetry_cell_setting 'orthorhombic'
loop_
_space_group_symop_operation_xyz
x,y,z
-x,-y,z
x,-y,1/2-z
-x,y,1/2-z
-x,-y,-z
x,y,-z
-x,y,1/2+z
x,-y,1/2+z
1/2+x,1/2+y,z
1/2-x,1/2-y,z
1/2+x,1/2-y,1/2-z
1/2-x,1/2+y,1/2-z
1/2-x,1/2-y,-z
1/2+x,1/2+y,-z
1/2-x,1/2+y,1/2+z
1/2+x,1/2-y,1/2+z
loop_
_atom_site_type_symbol
_atom_site_label
_atom_site_fract_x
_atom_site_fract_y
_atom_site_fract_z
Si Si1 0.075155 0.254349 0.000000
Si Si2 0.862447 0.905478 0.000000
Si Si3 0.050873 0.773785 0.000000
Si Si4 0.375912 0.208791 0.729037
Si Si5 0.612984 0.576381 0.500000
Si Si6 0.813297 0.863208 0.268856
Si Si7 0.199925 0.426016 0.346244
O O1 0.095540 0.165296 0.000000
O O2 0.096837 0.301598 0.872929
O O3 0.010938 0.250397 0.000000
O O4 0.822443 0.903145 0.874148
O O5 0.899904 0.983698 0.000000
O O6 0.077837 0.737998 0.869561
O O7 0.059161 0.868914 0.000000
O O8 0.326576 0.270781 0.735246
O O9 0.353336 0.125741 0.680077
O O10 0.647590 0.593376 0.369982
O O11 0.751737 0.872822 0.313473
O O12 0.198361 0.500000 0.250000
O O13 0.201051 0.453394 0.500000
#
# Coordination Sequence:
#
# PCOD8275602 Si02
#       7
#     8   8   8  16   8  16  16
#     4  10  22  38  60  85 115 152 199 251 293 335
#     4  10  20  34  51  88 128 157 190 235 283 329
#     4  10  20  38  62  85 107 156 207 241 293 339
#     4  10  22  40  61  86 116 154 196 239 283 345
#     4  10  18  32  55  84 122 157 196 233 275 341
#     4  10  21  35  58  85 120 162 194 221 274 347
#     4  12  25  39  61  89 120 151 187 236 291 349
#
# _framework density 18.936800000000002
#
# number of rings (size 3 to 8) (size 9 to 14) (size 15 to 20)
#    0.000    1.600    2.000    3.000    2.800    1.200 
#    0.000    3.000    0.000   10.800    0.000    0.000 
#    0.000    0.000    0.000    0.000    0.000    0.000 
#
# Total GULP energy -496080.695420 kJ/mol
# GULP energy per Si atom -12402.017385 kJ/mol
# Density = 1.889370 g / cm^3
# Si number density = 18.936800 Si / 1000 Ang^3
#
#
#
# Elastic Constant Matrix: (Units=GPa)
#
#
# Indices 1 2 3 4 5 6 
#
# 1 92.0131 37.3409 40.7615 0.0000 0.0000 0.0000
# 2 37.3409 67.0427 37.2844 0.0000 0.0000 0.0000
# 3 40.7615 37.2844 172.1756 0.0000 0.0000 0.0000
# 4 0.0000 0.0000 0.0000 29.9322 0.0000 0.0000
# 5 0.0000 0.0000 0.0000 0.0000 17.0896 0.0000
# 6 0.0000 0.0000 0.0000 0.0000 0.0000 12.6608
#
#
#
# Elastic Compliance Matrix: (Units=1/GPa)
#
#
# Indices 1 2 3 4 5 6 
#
# 1 0.014583 -0.007051 -0.001925 0.000000 0.000000 0.000000
# 2 -0.007051 0.020368 -0.002741 0.000000 0.000000 0.000000
# 3 -0.001925 -0.002741 0.006857 0.000000 0.000000 0.000000
# 4 0.000000 0.000000 0.000000 0.033409 0.000000 0.000000
# 5 0.000000 0.000000 0.000000 0.000000 0.058515 0.000000
# 6 0.000000 0.000000 0.000000 0.000000 0.000000 0.078984
#
#
# Mechanical properties :
#
#
# Convention : Reuss Voigt Hill
#
# Bulk Modulus (GPa) = 54.43104 62.44499 58.43802
# Shear Modulus (GPa) = 20.63767 26.32616 23.48191
#
# Velocity S-wave (km/s) = 3.30482 3.73260 3.52520
# Velocity P-wave (km/s) = 6.58547 7.18495 6.89173
#
# Compressibility (1/GPa) = 0.01837187
#
# Stress axis : x y z
#
# Youngs Moduli (GPa) = 68.57530 49.09726 145.82656
#
# Poissons Ratio (x) = 0.34620 0.28077
# Poissons Ratio (y) = 0.48354 0.39975
# Poissons Ratio (z) = 0.13203 0.13459
#
# Static dielectric constant tensor:
#      x y z
#    x 3.212740 0.000000 0.000000 
#    y 0.000000 3.387250 0.000000 
#    z 0.000000 0.000000 3.799240 
# 
# 
# High freq. dielectric constant tensor:
#      x y z
#    x 1.715290 0.000000 0.000000 
#    y 0.000000 1.724670 0.000000 
#    z 0.000000 0.000000 1.761630 
# 
# From -- ./inp_files/10125.got.cif
#   From: 2010.03.12/outbox.cif.g09.slc.cpg/sg66_6_cif.got.tgz:10125.got - 2010.04.10 21:57:39.
