data_PCOD8275441
_publ_section_title
;
Structure prediction by ZEFSAII (Michael W. Deem and Ramdas Pophale) SiO2 
 PCOD8275441
Probable space group: C C C M
;
_chemical_formula_sum "Si O2"
_cell_formula_units_Z 96
_cell_length_a 19.948288
_cell_length_b 14.953253
_cell_length_c 17.902292
_cell_angle_alpha 90.000000
_cell_angle_beta 90.000000
_cell_angle_gamma 90.000000
_cell_volume 5340.106858
_symmetry_space_group_name_H-M "C C C M"
_symmetry_group_IT_number 66
_symmetry_cell_setting 'orthorhombic'
loop_
_space_group_symop_operation_xyz
x,y,z
-x,-y,z
x,-y,1/2-z
-x,y,1/2-z
-x,-y,-z
x,y,-z
-x,y,1/2+z
x,-y,1/2+z
1/2+x,1/2+y,z
1/2-x,1/2-y,z
1/2+x,1/2-y,1/2-z
1/2-x,1/2+y,1/2-z
1/2-x,1/2-y,-z
1/2+x,1/2+y,-z
1/2-x,1/2+y,1/2+z
1/2+x,1/2-y,1/2+z
loop_
_atom_site_type_symbol
_atom_site_label
_atom_site_fract_x
_atom_site_fract_y
_atom_site_fract_z
Si Si1 0.948602 0.629593 0.588637
Si Si2 0.428756 0.686205 0.161066
Si Si3 0.320924 0.782422 0.588109
Si Si4 0.914428 0.845063 0.825747
Si Si5 0.579215 0.511421 0.582486
Si Si6 0.591001 0.938766 0.087730
O O1 0.945513 0.646945 0.500000
O O2 0.915901 0.714303 0.630261
O O3 0.905491 0.542068 0.614173
O O4 0.024645 0.612710 0.617888
O O5 0.506857 0.667846 0.168833
O O6 0.391651 0.672527 0.240603
O O7 0.399248 0.612085 0.104596
O O8 0.319303 0.769853 0.500000
O O9 0.250000 0.750000 0.622862
O O10 0.380557 0.723630 0.618805
O O11 0.340786 0.885214 0.609588
O O12 0.892819 0.943629 0.854499
O O13 0.500000 0.500000 0.578582
O O14 0.609622 0.490964 0.500000
O O15 0.580421 0.941065 0.000000
#
# Coordination Sequence:
#
# PCOD8275441 Si02
#       6
#    16  16  16  16  16  16
#     4   9  15  26  47  71  99 133 161 199 252 312
#     4  10  18  28  46  70 101 133 158 196 261 323
#     4  10  19  32  52  73  96 132 176 218 254 299
#     4  10  19  30  44  69 103 126 159 206 263 306
#     4   9  17  28  45  69  95 126 160 199 246 305
#     4   8  15  27  45  71  99 126 163 206 252 298
#
# _framework density 17.977167000000001
#
# number of rings (size 3 to 8) (size 9 to 14) (size 15 to 20)
#    0.000    2.667    1.667    2.500    0.000    3.333 
#    0.000    0.833    0.000    4.000    0.000    0.000 
#    0.000    8.000    0.000    0.000    0.000    0.000 
#
# Total GULP energy -594731.095980 kJ/mol
# GULP energy per Si atom -12390.231166 kJ/mol
# Density = 1.793625 g / cm^3
# Si number density = 17.977167 Si / 1000 Ang^3
#
#
#
# Elastic Constant Matrix: (Units=GPa)
#
#
# Indices 1 2 3 4 5 6 
#
# 1 37.1926 30.3708 20.7890 0.0000 0.0000 0.0000
# 2 30.3708 173.4230 62.9957 0.0000 0.0000 0.0000
# 3 20.7890 62.9957 62.3492 0.0000 0.0000 0.0000
# 4 0.0000 0.0000 0.0000 11.1070 0.0000 0.0000
# 5 0.0000 0.0000 0.0000 0.0000 9.9370 0.0000
# 6 0.0000 0.0000 0.0000 0.0000 0.0000 20.4232
#
#
#
# Elastic Compliance Matrix: (Units=1/GPa)
#
#
# Indices 1 2 3 4 5 6 
#
# 1 0.033942 -0.002896 -0.008391 0.000000 0.000000 0.000000
# 2 -0.002896 0.009357 -0.008488 0.000000 0.000000 0.000000
# 3 -0.008391 -0.008488 0.027413 0.000000 0.000000 0.000000
# 4 0.000000 0.000000 0.000000 0.090034 0.000000 0.000000
# 5 0.000000 0.000000 0.000000 0.000000 0.100634 0.000000
# 6 0.000000 0.000000 0.000000 0.000000 0.000000 0.048964
#
#
# Mechanical properties :
#
#
# Convention : Reuss Voigt Hill
#
# Bulk Modulus (GPa) = 32.09151 55.69731 43.89441
# Shear Modulus (GPa) = 13.87803 18.88070 16.37937
#
# Velocity S-wave (km/s) = 2.78147 3.24429 3.02175
# Velocity P-wave (km/s) = 5.31088 6.71442 6.05346
#
# Compressibility (1/GPa) = 0.03116089
#
# Stress axis : x y z
#
# Youngs Moduli (GPa) = 29.46178 106.87512 36.47948
#
# Poissons Ratio (x) = 0.30952 0.30611
# Poissons Ratio (y) = 0.08532 0.30964
# Poissons Ratio (z) = 0.24722 0.90717
#
# Static dielectric constant tensor:
#      x y z
#    x 3.265970 0.000000 0.000000 
#    y 0.000000 3.763440 0.000000 
#    z 0.000000 0.000000 3.323970 
# 
# 
# High freq. dielectric constant tensor:
#      x y z
#    x 1.625850 0.000000 0.000000 
#    y 0.000000 1.713620 0.000000 
#    z 0.000000 0.000000 1.681530 
# 
# From -- ./inp_files/31176.got.cif
#   From: 2010.03.12/outbox.cif.g09.slc.cpg/sg66_16_cif.got.tgz:31176.got - 2010.04.10 21:57:39.
