data_PCOD8275821
_publ_section_title
;
Structure prediction by ZEFSAII (Michael W. Deem and Ramdas Pophale) SiO2 
 PCOD8275821
Probable space group: C C C M
;
_chemical_formula_sum "Si O2"
_cell_formula_units_Z 112
_cell_length_a 24.420769
_cell_length_b 14.011466
_cell_length_c 16.936893
_cell_angle_alpha 90.000000
_cell_angle_beta 90.000000
_cell_angle_gamma 90.000000
_cell_volume 5795.309796
_symmetry_space_group_name_H-M "C C C M"
_symmetry_group_IT_number 66
_symmetry_cell_setting 'orthorhombic'
loop_
_space_group_symop_operation_xyz
x,y,z
-x,-y,z
x,-y,1/2-z
-x,y,1/2-z
-x,-y,-z
x,y,-z
-x,y,1/2+z
x,-y,1/2+z
1/2+x,1/2+y,z
1/2-x,1/2-y,z
1/2+x,1/2-y,1/2-z
1/2-x,1/2+y,1/2-z
1/2-x,1/2-y,-z
1/2+x,1/2+y,-z
1/2-x,1/2+y,1/2+z
1/2+x,1/2-y,1/2+z
loop_
_atom_site_type_symbol
_atom_site_label
_atom_site_fract_x
_atom_site_fract_y
_atom_site_fract_z
Si Si1 0.942677 0.271119 0.588765
Si Si2 0.166711 0.939416 0.326558
Si Si3 0.944750 0.951488 0.909636
Si Si4 0.144220 0.573441 0.183148
Si Si5 0.776608 0.437259 0.592279
Si Si6 0.965021 0.412502 0.091365
Si Si7 0.338591 0.214193 0.187026
O O1 0.923050 0.297567 0.500000
O O2 0.953086 0.160234 0.597231
O O3 0.897359 0.311106 0.648509
O O4 0.000940 0.317117 0.607734
O O5 0.108645 0.978799 0.358647
O O6 0.212425 0.956568 0.393241
O O7 0.167592 0.827320 0.306228
O O8 0.182820 0.000000 0.250000
O O9 0.935361 0.984390 0.000000
O O10 0.000000 0.000000 0.875175
O O11 0.125359 0.500000 0.250000
O O12 0.190647 0.526389 0.128882
O O13 0.092628 0.601881 0.131882
O O14 0.166269 0.669716 0.225246
O O15 0.788568 0.430887 0.500000
O O16 0.792865 0.336025 0.632144
O O17 0.000000 0.500000 0.126797
O O18 0.953185 0.431585 0.000000
#
# Coordination Sequence:
#
# PCOD8275821 Si02
#       7
#    16  16  16  16  16  16  16
#     4   9  18  32  52  80 109 141 187 233 270 317
#     4  11  23  38  58  85 114 145 183 229 279 330
#     4   9  19  37  58  80 108 142 184 232 275 316
#     4  10  21  35  52  79 113 146 179 224 280 335
#     4  11  22  38  61  85 109 141 184 230 276 329
#     4  10  19  31  49  74 108 149 186 221 265 321
#     4  10  21  36  57  83 113 146 181 229 282 329
#
# _framework density 19.325973000000001
#
# number of rings (size 3 to 8) (size 9 to 14) (size 15 to 20)
#    0.000    2.000    0.000    4.714    0.000    6.857 
#    0.000    2.857    0.000    3.429    0.000    0.000 
#    0.000    0.000    0.000    0.000    0.000    0.000 
#
# Total GULP energy -694411.229711 kJ/mol
# GULP energy per Si atom -12400.200531 kJ/mol
# Density = 1.928199 g / cm^3
# Si number density = 19.325973 Si / 1000 Ang^3
#
#
#
# Elastic Constant Matrix: (Units=GPa)
#
#
# Indices 1 2 3 4 5 6 
#
# 1 123.9911 38.5873 46.6166 0.0000 0.0000 0.0000
# 2 38.5873 61.7567 43.4010 0.0000 0.0000 0.0000
# 3 46.6166 43.4010 91.0149 0.0000 0.0000 0.0000
# 4 0.0000 0.0000 0.0000 21.9501 0.0000 0.0000
# 5 0.0000 0.0000 0.0000 0.0000 33.1337 0.0000
# 6 0.0000 0.0000 0.0000 0.0000 0.0000 27.5538
#
#
#
# Elastic Compliance Matrix: (Units=1/GPa)
#
#
# Indices 1 2 3 4 5 6 
#
# 1 0.010684 -0.004256 -0.003443 0.000000 0.000000 0.000000
# 2 -0.004256 0.026050 -0.010242 0.000000 0.000000 0.000000
# 3 -0.003443 -0.010242 0.017634 0.000000 0.000000 0.000000
# 4 0.000000 0.000000 0.000000 0.045558 0.000000 0.000000
# 5 0.000000 0.000000 0.000000 0.000000 0.030181 0.000000
# 6 0.000000 0.000000 0.000000 0.000000 0.000000 0.036293
#
#
# Mechanical properties :
#
#
# Convention : Reuss Voigt Hill
#
# Bulk Modulus (GPa) = 54.09353 59.33031 56.71192
# Shear Modulus (GPa) = 23.98733 26.40471 25.19602
#
# Velocity S-wave (km/s) = 3.52688 3.70033 3.61465
# Velocity P-wave (km/s) = 6.68102 7.00165 6.84321
#
# Compressibility (1/GPa) = 0.01848650
#
# Stress axis : x y z
#
# Youngs Moduli (GPa) = 93.59800 38.38794 56.70737
#
# Poissons Ratio (x) = 0.16339 0.19522
# Poissons Ratio (y) = 0.39838 0.58080
# Poissons Ratio (z) = 0.32221 0.39317
#
# Static dielectric constant tensor:
#      x y z
#    x 3.595210 0.000000 0.000000 
#    y 0.000000 3.517250 0.000000 
#    z 0.000000 0.000000 3.546820 
# 
# 
# High freq. dielectric constant tensor:
#      x y z
#    x 1.760050 0.000000 0.000000 
#    y 0.000000 1.745890 0.000000 
#    z 0.000000 0.000000 1.745280 
# 
# From -- ./inp_files/32425.got.cif
#   From: 2010.03.12/outbox.cif.g09.slc.cpg/sg66_17_cif.got.tgz:32425.got - 2010.04.10 21:57:39.
