data_PCOD8275694
_publ_section_title
;
Structure prediction by ZEFSAII (Michael W. Deem and Ramdas Pophale) SiO2 
 PCOD8275694
Probable space group: C C C M
;
_chemical_formula_sum "Si O2"
_cell_formula_units_Z 72
_cell_length_a 26.165654
_cell_length_b 14.831287
_cell_length_c 9.177975
_cell_angle_alpha 90.000000
_cell_angle_beta 90.000000
_cell_angle_gamma 90.000000
_cell_volume 3561.699732
_symmetry_space_group_name_H-M "C C C M"
_symmetry_group_IT_number 66
_symmetry_cell_setting 'orthorhombic'
loop_
_space_group_symop_operation_xyz
x,y,z
-x,-y,z
x,-y,1/2-z
-x,y,1/2-z
-x,-y,-z
x,y,-z
-x,y,1/2+z
x,-y,1/2+z
1/2+x,1/2+y,z
1/2-x,1/2-y,z
1/2+x,1/2-y,1/2-z
1/2-x,1/2+y,1/2-z
1/2-x,1/2-y,-z
1/2+x,1/2+y,-z
1/2-x,1/2+y,1/2+z
1/2+x,1/2-y,1/2+z
loop_
_atom_site_type_symbol
_atom_site_label
_atom_site_fract_x
_atom_site_fract_y
_atom_site_fract_z
Si Si1 0.947151 0.242254 0.825168
Si Si2 0.895465 0.421048 0.842426
Si Si3 0.117511 0.904579 0.675901
Si Si4 0.726028 0.660167 0.165017
Si Si5 0.296675 0.000000 0.750000
O O1 0.907114 0.321529 0.782431
O O2 0.928064 0.153956 0.742094
O O3 0.000000 0.269949 0.750000
O O4 0.951877 0.226895 0.000000
O O5 0.922640 0.500000 0.750000
O O6 0.834148 0.440254 0.852940
O O7 0.920717 0.427687 0.000000
O O8 0.114309 0.910969 0.500000
O O9 0.171357 0.864123 0.734450
O O10 0.110395 0.000000 0.750000
O O11 0.750000 0.750000 0.242503
O O12 0.762041 0.572144 0.166147
O O13 0.715040 0.687235 0.000000
#
# Coordination Sequence:
#
# PCOD8275694 Si02
#       5
#    16  16  16  16   8
#     4  11  24  44  65  92 121 159 207 260 315 370
#     4   9  21  37  60  90 126 162 205 251 303 364
#     4  11  23  41  63  92 125 163 206 258 307 364
#     4  10  20  34  57  88 123 165 208 248 299 359
#     4  10  18  36  59  88 131 162 208 244 304 354
#
# _framework density 20.215069
#
# number of rings (size 3 to 8) (size 9 to 14) (size 15 to 20)
#    0.667    1.111    1.111    3.333    0.000    2.667 
#    0.000    4.444    0.000    5.333    0.000    0.000 
#    0.000    0.000    0.000    0.000    0.000    0.000 
#
# Total GULP energy -445989.245603 kJ/mol
# GULP energy per Si atom -12388.590156 kJ/mol
# Density = 2.016906 g / cm^3
# Si number density = 20.215069 Si / 1000 Ang^3
#
#
#
# Elastic Constant Matrix: (Units=GPa)
#
#
# Indices 1 2 3 4 5 6 
#
# 1 84.4074 35.1287 22.2633 0.0000 0.0000 0.0000
# 2 35.1287 119.5223 38.4126 0.0000 0.0000 0.0000
# 3 22.2633 38.4126 87.3064 0.0000 0.0000 0.0000
# 4 0.0000 0.0000 0.0000 29.3986 0.0000 0.0000
# 5 0.0000 0.0000 0.0000 0.0000 22.8048 0.0000
# 6 0.0000 0.0000 0.0000 0.0000 0.0000 36.2973
#
#
#
# Elastic Compliance Matrix: (Units=1/GPa)
#
#
# Indices 1 2 3 4 5 6 
#
# 1 0.013798 -0.003406 -0.002020 0.000000 0.000000 0.000000
# 2 -0.003406 0.010585 -0.003789 0.000000 0.000000 0.000000
# 3 -0.002020 -0.003789 0.013636 0.000000 0.000000 0.000000
# 4 0.000000 0.000000 0.000000 0.034015 0.000000 0.000000
# 5 0.000000 0.000000 0.000000 0.000000 0.043850 0.000000
# 6 0.000000 0.000000 0.000000 0.000000 0.000000 0.027550
#
#
# Mechanical properties :
#
#
# Convention : Reuss Voigt Hill
#
# Bulk Modulus (GPa) = 51.04753 53.64948 52.34851
# Shear Modulus (GPa) = 29.69227 30.72890 30.21059
#
# Velocity S-wave (km/s) = 3.83668 3.90307 3.87002
# Velocity P-wave (km/s) = 6.70327 6.84901 6.77653
#
# Compressibility (1/GPa) = 0.01958958
#
# Stress axis : x y z
#
# Youngs Moduli (GPa) = 72.47637 94.47008 73.33580
#
# Poissons Ratio (x) = 0.32178 0.14812
# Poissons Ratio (y) = 0.24686 0.27785
# Poissons Ratio (z) = 0.14639 0.35792
#
# Static dielectric constant tensor:
#      x y z
#    x 3.632860 0.000000 0.000000 
#    y 0.000000 3.814620 0.000000 
#    z 0.000000 0.000000 3.446450 
# 
# 
# High freq. dielectric constant tensor:
#      x y z
#    x 1.783140 0.000000 0.000000 
#    y 0.000000 1.804400 0.000000 
#    z 0.000000 0.000000 1.772020 
# 
# From -- ./inp_files/9979.got.cif
#   From: 2010.03.12/outbox.cif.g09.slc.cpg/sg66_5_cif.got.tgz:9979.got - 2010.04.10 21:57:39.
