data_PCOD8275492
_publ_section_title
;
Structure prediction by ZEFSAII (Michael W. Deem and Ramdas Pophale) SiO2 
 PCOD8275492
Probable space group: C C C M
;
_chemical_formula_sum "Si O2"
_cell_formula_units_Z 80
_cell_length_a 12.306045
_cell_length_b 21.900798
_cell_length_c 17.389942
_cell_angle_alpha 90.000000
_cell_angle_beta 90.000000
_cell_angle_gamma 90.000000
_cell_volume 4686.801626
_symmetry_space_group_name_H-M "C C C M"
_symmetry_group_IT_number 66
_symmetry_cell_setting 'orthorhombic'
loop_
_space_group_symop_operation_xyz
x,y,z
-x,-y,z
x,-y,1/2-z
-x,y,1/2-z
-x,-y,-z
x,y,-z
-x,y,1/2+z
x,-y,1/2+z
1/2+x,1/2+y,z
1/2-x,1/2-y,z
1/2+x,1/2-y,1/2-z
1/2-x,1/2+y,1/2-z
1/2-x,1/2-y,-z
1/2+x,1/2+y,-z
1/2-x,1/2+y,1/2+z
1/2+x,1/2-y,1/2+z
loop_
_atom_site_type_symbol
_atom_site_label
_atom_site_fract_x
_atom_site_fract_y
_atom_site_fract_z
Si Si1 0.002124 0.091260 0.659501
Si Si2 0.658690 0.168451 0.409064
Si Si3 0.101197 0.200493 0.909199
Si Si4 0.337641 0.496068 0.409109
Si Si5 0.602042 0.963108 0.908789
O O1 0.000000 0.083081 0.750000
O O2 0.990909 0.162018 0.635174
O O3 0.903208 0.054070 0.622052
O O4 0.116791 0.066150 0.627931
O O5 0.666525 0.163513 0.500000
O O6 0.781672 0.176947 0.379386
O O7 0.587314 0.227970 0.386664
O O8 0.605303 0.106363 0.375528
O O9 0.087766 0.190952 0.000000
O O10 0.352712 0.494028 0.500000
O O11 0.211980 0.501876 0.385258
O O12 0.500000 0.000000 0.872960
O O13 0.590377 0.960248 0.000000
#
# Coordination Sequence:
#
# PCOD8275492 Si02
#       5
#    16  16  16  16  16
#     4  11  20  29  45  71 100 130 154 198 248 293
#     4   8  14  25  46  74  95 116 154 198 235 274
#     4   9  15  27  48  72  95 121 158 203 243 276
#     4  10  18  30  48  71  99 126 159 197 244 294
#     4   9  16  27  47  75 100 120 151 198 242 282
#
# _framework density 17.069210999999999
#
# number of rings (size 3 to 8) (size 9 to 14) (size 15 to 20)
#    0.000    2.600    2.000    4.800    0.000    0.000 
#    0.000    0.000    0.000    8.400    0.000    7.000 
#    0.000    0.000    0.000    0.000    0.000    0.000 
#
# Total GULP energy -495760.575498 kJ/mol
# GULP energy per Si atom -12394.014387 kJ/mol
# Density = 1.703036 g / cm^3
# Si number density = 17.069211 Si / 1000 Ang^3
#
#
#
# Elastic Constant Matrix: (Units=GPa)
#
#
# Indices 1 2 3 4 5 6 
#
# 1 105.9647 74.0514 29.3395 0.0000 0.0000 0.0000
# 2 74.0514 155.9693 33.2640 0.0000 0.0000 0.0000
# 3 29.3395 33.2640 61.3082 0.0000 0.0000 0.0000
# 4 0.0000 0.0000 0.0000 7.0463 0.0000 0.0000
# 5 0.0000 0.0000 0.0000 0.0000 1.2712 0.0000
# 6 0.0000 0.0000 0.0000 0.0000 0.0000 31.9552
#
#
#
# Elastic Compliance Matrix: (Units=1/GPa)
#
#
# Indices 1 2 3 4 5 6 
#
# 1 0.014832 -0.006252 -0.003706 0.000000 0.000000 0.000000
# 2 -0.006252 0.009886 -0.002372 0.000000 0.000000 0.000000
# 3 -0.003706 -0.002372 0.019371 0.000000 0.000000 0.000000
# 4 0.000000 0.000000 0.000000 0.141919 0.000000 0.000000
# 5 0.000000 0.000000 0.000000 0.000000 0.786653 0.000000
# 6 0.000000 0.000000 0.000000 0.000000 0.000000 0.031294
#
#
# Mechanical properties :
#
#
# Convention : Reuss Voigt Hill
#
# Bulk Modulus (GPa) = 51.46662 66.28357 58.87510
# Shear Modulus (GPa) = 4.83050 20.49369 12.66209
#
# Velocity S-wave (km/s) = 1.68407 3.46876 2.72657
# Velocity P-wave (km/s) = 5.83084 7.41347 6.66927
#
# Compressibility (1/GPa) = 0.01943007
#
# Stress axis : x y z
#
# Youngs Moduli (GPa) = 67.42163 101.15825 51.62223
#
# Poissons Ratio (x) = 0.63240 0.19132
# Poissons Ratio (y) = 0.42149 0.12244
# Poissons Ratio (z) = 0.24987 0.23993
#
# Static dielectric constant tensor:
#      x y z
#    x 3.164210 0.000000 0.000000 
#    y 0.000000 3.610740 0.000000 
#    z 0.000000 0.000000 2.778540 
# 
# 
# High freq. dielectric constant tensor:
#      x y z
#    x 1.634370 0.000000 0.000000 
#    y 0.000000 1.666810 0.000000 
#    z 0.000000 0.000000 1.616720 
# 
# From -- ./inp_files/26389.got.cif
#   From: 2010.03.12/outbox.cif.g09.slc.cpg/sg66_14_cif.got.tgz:26389.got - 2010.04.10 21:57:39.
