data_PCOD8275950
_publ_section_title
;
Structure prediction by ZEFSAII (Michael W. Deem and Ramdas Pophale) SiO2 
 PCOD8275950
Probable space group: C C C M
;
_chemical_formula_sum "Si O2"
_cell_formula_units_Z 96
_cell_length_a 19.171482
_cell_length_b 16.015449
_cell_length_c 15.248487
_cell_angle_alpha 90.000000
_cell_angle_beta 90.000000
_cell_angle_gamma 90.000000
_cell_volume 4681.893805
_symmetry_space_group_name_H-M "C C C M"
_symmetry_group_IT_number 66
_symmetry_cell_setting 'orthorhombic'
loop_
_space_group_symop_operation_xyz
x,y,z
-x,-y,z
x,-y,1/2-z
-x,y,1/2-z
-x,-y,-z
x,y,-z
-x,y,1/2+z
x,-y,1/2+z
1/2+x,1/2+y,z
1/2-x,1/2-y,z
1/2+x,1/2-y,1/2-z
1/2-x,1/2+y,1/2-z
1/2-x,1/2-y,-z
1/2+x,1/2+y,-z
1/2-x,1/2+y,1/2+z
1/2+x,1/2-y,1/2+z
loop_
_atom_site_type_symbol
_atom_site_label
_atom_site_fract_x
_atom_site_fract_y
_atom_site_fract_z
Si Si1 0.553587 0.212769 0.099218
Si Si2 0.809611 0.181449 0.904982
Si Si3 0.401683 0.741375 0.601577
Si Si4 0.572132 0.967660 0.347490
Si Si5 0.710602 0.661781 0.784405
Si Si6 0.319724 0.909072 0.403121
O O1 0.614951 0.278388 0.107237
O O2 0.482446 0.256742 0.131600
O O3 0.574311 0.132338 0.156251
O O4 0.542822 0.180941 0.000000
O O5 0.750000 0.250000 0.909734
O O6 0.799260 0.127489 0.815916
O O7 0.807923 0.132335 0.000000
O O8 0.393015 0.713696 0.500000
O O9 0.362275 0.674909 0.663983
O O10 0.372927 0.834249 0.616843
O O11 0.500000 0.000000 0.391142
O O12 0.578214 0.000000 0.250000
O O13 0.638601 0.003568 0.399593
O O14 0.750000 0.750000 0.783842
O O15 0.756134 0.592432 0.834473
O O16 0.287372 0.899041 0.500000
#
# Coordination Sequence:
#
# PCOD8275950 Si02
#       6
#    16  16  16  16  16  16
#     4  10  20  33  50  71 100 139 177 212 258 314
#     4   9  19  33  49  67  92 127 169 215 263 314
#     4   9  17  29  47  71  99 131 170 212 254 299
#     4  11  23  31  46  70 104 144 181 213 247 299
#     4   9  18  29  49  69  94 126 171 218 262 299
#     4  10  19  33  49  69  99 138 177 214 256 302
#
# _framework density 20.504522999999999
#
# number of rings (size 3 to 8) (size 9 to 14) (size 15 to 20)
#    0.000    2.333    1.667    1.000    7.000    3.333 
#    0.000    0.000    0.000    0.000    0.000    0.000 
#    0.000    1.333    0.333   12.500    1.000    0.000 
#
# Total GULP energy -594921.436403 kJ/mol
# GULP energy per Si atom -12394.196592 kJ/mol
# Density = 2.045785 g / cm^3
# Si number density = 20.504523 Si / 1000 Ang^3
#
#
#
# Elastic Constant Matrix: (Units=GPa)
#
#
# Indices 1 2 3 4 5 6 
#
# 1 137.1465 25.7048 60.9065 0.0000 0.0000 0.0000
# 2 25.7048 20.4674 21.4333 0.0000 0.0000 0.0000
# 3 60.9065 21.4333 155.4045 0.0000 0.0000 0.0000
# 4 0.0000 0.0000 0.0000 13.8635 0.0000 0.0000
# 5 0.0000 0.0000 0.0000 0.0000 29.5073 0.0000
# 6 0.0000 0.0000 0.0000 0.0000 0.0000 26.2875
#
#
#
# Elastic Compliance Matrix: (Units=1/GPa)
#
#
# Indices 1 2 3 4 5 6 
#
# 1 0.010398 -0.010275 -0.002658 0.000000 0.000000 0.000000
# 2 -0.010275 0.067260 -0.005249 0.000000 0.000000 0.000000
# 3 -0.002658 -0.005249 0.008201 0.000000 0.000000 0.000000
# 4 0.000000 0.000000 0.000000 0.072132 0.000000 0.000000
# 5 0.000000 0.000000 0.000000 0.000000 0.033890 0.000000
# 6 0.000000 0.000000 0.000000 0.000000 0.000000 0.038041
#
#
# Mechanical properties :
#
#
# Convention : Reuss Voigt Hill
#
# Bulk Modulus (GPa) = 20.20482 58.78974 39.49728
# Shear Modulus (GPa) = 17.68142 27.59659 22.63900
#
# Velocity S-wave (km/s) = 2.93971 3.67260 3.32640
# Velocity P-wave (km/s) = 4.62577 6.83505 5.83591
#
# Compressibility (1/GPa) = 0.04949314
#
# Stress axis : x y z
#
# Youngs Moduli (GPa) = 96.17543 14.86776 121.94327
#
# Poissons Ratio (x) = 0.15277 0.32412
# Poissons Ratio (y) = 0.98820 0.64013
# Poissons Ratio (z) = 0.25563 0.07805
#
# Static dielectric constant tensor:
#      x y z
#    x 3.932730 0.000000 0.000000 
#    y 0.000000 2.974970 0.000000 
#    z 0.000000 0.000000 4.247690 
# 
# 
# High freq. dielectric constant tensor:
#      x y z
#    x 1.807510 0.000000 0.000000 
#    y 0.000000 1.719090 0.000000 
#    z 0.000000 0.000000 1.823760 
# 
# From -- ./inp_files/31206.got.cif
#   From: 2010.03.12/outbox.cif.g09.slc.cpg/sg66_16_cif.got.tgz:31206.got - 2010.04.10 21:57:39.
