data_PCOD8275915
_publ_section_title
;
Structure prediction by ZEFSAII (Michael W. Deem and Ramdas Pophale) SiO2 
 PCOD8275915
Probable space group: C C C M
;
_chemical_formula_sum "Si O2"
_cell_formula_units_Z 80
_cell_length_a 8.477997
_cell_length_b 16.325196
_cell_length_c 29.266393
_cell_angle_alpha 90.000000
_cell_angle_beta 90.000000
_cell_angle_gamma 90.000000
_cell_volume 4050.614032
_symmetry_space_group_name_H-M "C C C M"
_symmetry_group_IT_number 66
_symmetry_cell_setting 'orthorhombic'
loop_
_space_group_symop_operation_xyz
x,y,z
-x,-y,z
x,-y,1/2-z
-x,y,1/2-z
-x,-y,-z
x,y,-z
-x,y,1/2+z
x,-y,1/2+z
1/2+x,1/2+y,z
1/2-x,1/2-y,z
1/2+x,1/2-y,1/2-z
1/2-x,1/2+y,1/2-z
1/2-x,1/2-y,-z
1/2+x,1/2+y,-z
1/2-x,1/2+y,1/2+z
1/2+x,1/2-y,1/2+z
loop_
_atom_site_type_symbol
_atom_site_label
_atom_site_fract_x
_atom_site_fract_y
_atom_site_fract_z
Si Si1 0.805975 0.661496 0.447979
Si Si2 0.821983 0.659719 0.049587
Si Si3 0.888373 0.075939 0.126766
Si Si4 0.683007 0.012146 0.302585
Si Si5 0.808278 0.157251 0.357640
O O1 0.754125 0.644143 0.500000
O O2 0.750000 0.750000 0.431639
O O3 0.720768 0.594727 0.416642
O O4 0.992405 0.658964 0.442270
O O5 0.750000 0.750000 0.048401
O O6 0.746051 0.616156 0.093657
O O7 0.783989 0.617641 0.000000
O O8 0.000913 0.152155 0.141894
O O9 0.777966 0.056228 0.169646
O O10 0.000000 0.000000 0.114236
O O11 0.734066 0.103697 0.317085
O O12 0.500000 0.000000 0.312355
O O13 0.726227 0.000000 0.250000
O O14 0.750000 0.250000 0.351641
#
# Coordination Sequence:
#
# PCOD8275915 Si02
#       5
#    16  16  16  16  16
#     4  10  19  32  53  82 116 154 196 236 275 328
#     4   9  17  30  51  80 114 149 185 232 281 322
#     4  10  22  37  58  85 116 154 186 230 289 342
#     4  10  22  42  62  82 113 149 184 233 295 347
#     4  10  20  36  59  86 116 149 190 234 276 333
#
# _framework density 19.750091000000001
#
# number of rings (size 3 to 8) (size 9 to 14) (size 15 to 20)
#    0.000    2.200    0.000    3.600    0.000    6.400 
#    0.000    8.000    0.000   10.800    0.000    0.000 
#    0.000    0.000    0.000    0.000    0.000    0.000 
#
# Total GULP energy -495796.122118 kJ/mol
# GULP energy per Si atom -12394.903053 kJ/mol
# Density = 1.970514 g / cm^3
# Si number density = 19.750091 Si / 1000 Ang^3
#
#
#
# Elastic Constant Matrix: (Units=GPa)
#
#
# Indices 1 2 3 4 5 6 
#
# 1 131.0174 46.0019 78.3029 0.0000 0.0000 0.0000
# 2 46.0019 74.1698 59.7533 0.0000 0.0000 0.0000
# 3 78.3029 59.7533 158.5889 0.0000 0.0000 0.0000
# 4 0.0000 0.0000 0.0000 32.3393 0.0000 0.0000
# 5 0.0000 0.0000 0.0000 0.0000 38.8728 0.0000
# 6 0.0000 0.0000 0.0000 0.0000 0.0000 36.3089
#
#
#
# Elastic Compliance Matrix: (Units=1/GPa)
#
#
# Indices 1 2 3 4 5 6 
#
# 1 0.011483 -0.003668 -0.004288 0.000000 0.000000 0.000000
# 2 -0.003668 0.020530 -0.005925 0.000000 0.000000 0.000000
# 3 -0.004288 -0.005925 0.010655 0.000000 0.000000 0.000000
# 4 0.000000 0.000000 0.000000 0.030922 0.000000 0.000000
# 5 0.000000 0.000000 0.000000 0.000000 0.025725 0.000000
# 6 0.000000 0.000000 0.000000 0.000000 0.000000 0.027541
#
#
# Mechanical properties :
#
#
# Convention : Reuss Voigt Hill
#
# Bulk Modulus (GPa) = 67.07680 81.32136 74.19908
# Shear Modulus (GPa) = 31.33106 33.48540 32.40823
#
# Velocity S-wave (km/s) = 3.98725 4.12206 4.05522
# Velocity P-wave (km/s) = 7.43196 7.99498 7.71861
#
# Compressibility (1/GPa) = 0.01490829
#
# Stress axis : x y z
#
# Youngs Moduli (GPa) = 87.08576 48.70846 93.85313
#
# Poissons Ratio (x) = 0.17864 0.40242
# Poissons Ratio (y) = 0.31940 0.55604
# Poissons Ratio (z) = 0.37340 0.28858
#
# Static dielectric constant tensor:
#      x y z
#    x 3.897030 0.000000 0.000000 
#    y 0.000000 3.337170 0.000000 
#    z 0.000000 0.000000 3.879410 
# 
# 
# High freq. dielectric constant tensor:
#      x y z
#    x 1.790350 0.000000 0.000000 
#    y 0.000000 1.745480 0.000000 
#    z 0.000000 0.000000 1.772550 
# 
# From -- ./inp_files/62370.got.cif
#   From: 2010.03.12/outbox.cif.g09.slc.cpg/sg66_32_cif.got.tgz:62370.got - 2010.04.10 21:57:39.
