data_PCOD8275679
_publ_section_title
;
Structure prediction by ZEFSAII (Michael W. Deem and Ramdas Pophale) SiO2 
 PCOD8275679
Probable space group: C C C M
;
_chemical_formula_sum "Si O2"
_cell_formula_units_Z 96
_cell_length_a 10.612346
_cell_length_b 26.515614
_cell_length_c 18.596679
_cell_angle_alpha 90.000000
_cell_angle_beta 90.000000
_cell_angle_gamma 90.000000
_cell_volume 5232.972879
_symmetry_space_group_name_H-M "C C C M"
_symmetry_group_IT_number 66
_symmetry_cell_setting 'orthorhombic'
loop_
_space_group_symop_operation_xyz
x,y,z
-x,-y,z
x,-y,1/2-z
-x,y,1/2-z
-x,-y,-z
x,y,-z
-x,y,1/2+z
x,-y,1/2+z
1/2+x,1/2+y,z
1/2-x,1/2-y,z
1/2+x,1/2-y,1/2-z
1/2-x,1/2+y,1/2-z
1/2-x,1/2-y,-z
1/2+x,1/2+y,-z
1/2-x,1/2+y,1/2+z
1/2+x,1/2-y,1/2+z
loop_
_atom_site_type_symbol
_atom_site_label
_atom_site_fract_x
_atom_site_fract_y
_atom_site_fract_z
Si Si1 0.372102 0.215523 0.230044
Si Si2 0.810649 0.695496 0.077650
Si Si3 0.634754 0.556980 0.225155
Si Si4 0.505573 0.942539 0.582263
Si Si5 0.875865 0.609060 0.708491
Si Si6 0.221563 0.090774 0.920660
O O1 0.500000 0.246372 0.250000
O O2 0.250000 0.250000 0.236647
O O3 0.395249 0.193402 0.149329
O O4 0.363525 0.169446 0.286199
O O5 0.750000 0.750000 0.075521
O O6 0.704136 0.651613 0.085336
O O7 0.882222 0.686826 0.000000
O O8 0.649028 0.500000 0.250000
O O9 0.500000 0.579083 0.250000
O O10 0.747747 0.588339 0.258318
O O11 0.639425 0.561309 0.138276
O O12 0.551806 0.941443 0.500000
O O13 0.608858 0.910404 0.626819
O O14 0.369645 0.917690 0.592289
O O15 0.500000 0.000000 0.610569
O O16 0.000000 0.588823 0.750000
O O17 0.180597 0.071254 0.000000
#
# Coordination Sequence:
#
# PCOD8275679 Si02
#       6
#    16  16  16  16  16  16
#     4  10  20  35  54  83 112 141 185 228 284 337
#     4   9  17  32  55  81 104 134 185 236 270 315
#     4  11  23  37  52  81 115 150 184 225 282 348
#     4  10  20  33  56  87 111 141 188 240 286 329
#     4  11  20  35  58  82 109 141 191 235 281 332
#     4  10  18  35  57  80 109 143 187 233 278 330
#
# _framework density 18.345212
#
# number of rings (size 3 to 8) (size 9 to 14) (size 15 to 20)
#    0.000    1.833    3.333    2.000    0.000    0.667 
#    0.000    2.500    0.000    2.000    0.000    0.000 
#    0.000    0.000    0.000    0.000    0.000    0.000 
#
# Total GULP energy -594756.826005 kJ/mol
# GULP energy per Si atom -12390.767208 kJ/mol
# Density = 1.830346 g / cm^3
# Si number density = 18.345212 Si / 1000 Ang^3
#
#
#
# Elastic Constant Matrix: (Units=GPa)
#
#
# Indices 1 2 3 4 5 6 
#
# 1 117.7771 33.6236 50.4855 0.0000 0.0000 0.0000
# 2 33.6236 100.3024 48.5087 0.0000 0.0000 0.0000
# 3 50.4855 48.5087 149.1246 0.0000 0.0000 0.0000
# 4 0.0000 0.0000 0.0000 27.2864 0.0000 0.0000
# 5 0.0000 0.0000 0.0000 0.0000 21.5839 0.0000
# 6 0.0000 0.0000 0.0000 0.0000 0.0000 24.5092
#
#
#
# Elastic Compliance Matrix: (Units=1/GPa)
#
#
# Indices 1 2 3 4 5 6 
#
# 1 0.010290 -0.002094 -0.002802 0.000000 0.000000 0.000000
# 2 -0.002094 0.012257 -0.003278 0.000000 0.000000 0.000000
# 3 -0.002802 -0.003278 0.008721 0.000000 0.000000 0.000000
# 4 0.000000 0.000000 0.000000 0.036648 0.000000 0.000000
# 5 0.000000 0.000000 0.000000 0.000000 0.046331 0.000000
# 6 0.000000 0.000000 0.000000 0.000000 0.000000 0.040801
#
#
# Mechanical properties :
#
#
# Convention : Reuss Voigt Hill
#
# Bulk Modulus (GPa) = 67.03051 70.27106 68.65078
# Shear Modulus (GPa) = 28.34949 30.31500 29.33224
#
# Velocity S-wave (km/s) = 3.93534 4.06947 4.00297
# Velocity P-wave (km/s) = 7.56749 7.77617 7.67254
#
# Compressibility (1/GPa) = 0.01491858
#
# Stress axis : x y z
#
# Youngs Moduli (GPa) = 97.18490 81.58435 114.66703
#
# Poissons Ratio (x) = 0.17084 0.32134
# Poissons Ratio (y) = 0.20351 0.37591
# Poissons Ratio (z) = 0.27235 0.26745
#
# Static dielectric constant tensor:
#      x y z
#    x 3.304660 0.000000 0.000000 
#    y 0.000000 3.474820 0.000000 
#    z 0.000000 0.000000 3.985600 
# 
# 
# High freq. dielectric constant tensor:
#      x y z
#    x 1.670510 0.000000 0.000000 
#    y 0.000000 1.718570 0.000000 
#    z 0.000000 0.000000 1.727370 
# 
# From -- ./inp_files/39007.got.cif
#   From: 2010.03.12/outbox.cif.g09.slc.cpg/sg66_20_cif.got.tgz:39007.got - 2010.04.10 21:57:39.
