data_PCOD8275691
_publ_section_title
;
Structure prediction by ZEFSAII (Michael W. Deem and Ramdas Pophale) SiO2 
 PCOD8275691
Probable space group: C C C M
;
_chemical_formula_sum "Si O2"
_cell_formula_units_Z 88
_cell_length_a 15.091810
_cell_length_b 16.037592
_cell_length_c 19.981309
_cell_angle_alpha 90.000000
_cell_angle_beta 90.000000
_cell_angle_gamma 90.000000
_cell_volume 4836.201926
_symmetry_space_group_name_H-M "C C C M"
_symmetry_group_IT_number 66
_symmetry_cell_setting 'orthorhombic'
loop_
_space_group_symop_operation_xyz
x,y,z
-x,-y,z
x,-y,1/2-z
-x,y,1/2-z
-x,-y,-z
x,y,-z
-x,y,1/2+z
x,-y,1/2+z
1/2+x,1/2+y,z
1/2-x,1/2-y,z
1/2+x,1/2-y,1/2-z
1/2-x,1/2+y,1/2-z
1/2-x,1/2-y,-z
1/2+x,1/2+y,-z
1/2-x,1/2+y,1/2+z
1/2+x,1/2-y,1/2+z
loop_
_atom_site_type_symbol
_atom_site_label
_atom_site_fract_x
_atom_site_fract_y
_atom_site_fract_z
Si Si1 0.968541 0.415576 0.673980
Si Si2 0.533055 0.371488 0.073841
Si Si3 0.250000 0.250000 0.254826
Si Si4 0.061301 0.256968 0.685660
Si Si5 0.858434 0.960278 0.073906
Si Si6 0.765536 0.425583 0.305094
O O1 0.864122 0.406361 0.670734
O O2 0.000000 0.500000 0.636276
O O3 0.000000 0.419362 0.750000
O O4 0.018085 0.334535 0.644499
O O5 0.568397 0.316831 0.133824
O O6 0.428146 0.385311 0.083719
O O7 0.587033 0.455724 0.079948
O O8 0.549578 0.331813 0.000000
O O9 0.162827 0.277327 0.295691
O O10 0.275901 0.335574 0.215601
O O11 0.000000 0.234470 0.750000
O O12 0.784297 0.958482 0.130013
O O13 0.814226 0.953493 0.000000
O O14 0.760774 0.500000 0.250000
#
# Coordination Sequence:
#
# PCOD8275691 Si02
#       6
#    16  16   8  16  16  16
#     4  10  18  36  54  76 109 155 188 229 286 336
#     4   9  19  38  58  79 116 157 185 232 300 352
#     4  12  22  32  56  90 114 144 198 248 290 342
#     4  11  20  35  55  84 115 145 191 245 288 341
#     4   9  20  37  57  83 117 153 190 233 292 356
#     4  12  21  35  59  87 114 153 195 241 290 348
#
# _framework density 18.196097000000002
#
# number of rings (size 3 to 8) (size 9 to 14) (size 15 to 20)
#    0.000    1.636    5.455    3.273    0.000    0.000 
#    0.000    3.636    0.000    5.455    0.000    0.000 
#    0.000    0.000    0.000    0.000    0.000    0.000 
#
# Total GULP energy -545167.599015 kJ/mol
# GULP energy per Si atom -12390.172705 kJ/mol
# Density = 1.815468 g / cm^3
# Si number density = 18.196097 Si / 1000 Ang^3
#
#
#
# Elastic Constant Matrix: (Units=GPa)
#
#
# Indices 1 2 3 4 5 6 
#
# 1 120.9466 14.7561 46.3810 0.0000 0.0000 0.0000
# 2 14.7561 81.5538 28.9224 0.0000 0.0000 0.0000
# 3 46.3810 28.9224 87.5027 0.0000 0.0000 0.0000
# 4 0.0000 0.0000 0.0000 17.5579 0.0000 0.0000
# 5 0.0000 0.0000 0.0000 0.0000 16.7586 0.0000
# 6 0.0000 0.0000 0.0000 0.0000 0.0000 26.4502
#
#
#
# Elastic Compliance Matrix: (Units=1/GPa)
#
#
# Indices 1 2 3 4 5 6 
#
# 1 0.010378 0.000083 -0.005528 0.000000 0.000000 0.000000
# 2 0.000083 0.013891 -0.004635 0.000000 0.000000 0.000000
# 3 -0.005528 -0.004635 0.015891 0.000000 0.000000 0.000000
# 4 0.000000 0.000000 0.000000 0.056954 0.000000 0.000000
# 5 0.000000 0.000000 0.000000 0.000000 0.059671 0.000000
# 6 0.000000 0.000000 0.000000 0.000000 0.000000 0.037807
#
#
# Mechanical properties :
#
#
# Convention : Reuss Voigt Hill
#
# Bulk Modulus (GPa) = 50.00513 52.23578 51.12046
# Shear Modulus (GPa) = 22.58166 25.48292 24.03229
#
# Velocity S-wave (km/s) = 3.52663 3.74633 3.63814
# Velocity P-wave (km/s) = 6.64257 6.89078 6.76781
#
# Compressibility (1/GPa) = 0.01999795
#
# Stress axis : x y z
#
# Youngs Moduli (GPa) = 96.35762 71.99058 62.93042
#
# Poissons Ratio (x) = -0.00596 0.34790
# Poissons Ratio (y) = -0.00798 0.29170
# Poissons Ratio (z) = 0.53269 0.33369
#
# Static dielectric constant tensor:
#      x y z
#    x 1.857870 0.000000 0.000000 
#    y 0.000000 7.754530 0.000000 
#    z 0.000000 0.000000 1.998340 
# 
# 
# High freq. dielectric constant tensor:
#      x y z
#    x 1.711280 0.000000 0.000000 
#    y 0.000000 1.716580 0.000000 
#    z 0.000000 0.000000 1.671960 
# 
# From -- ./inp_files/40326.got.cif
#   From: 2010.03.12/outbox.cif.g09.slc.cpg/sg66_21_cif.got.tgz:40326.got - 2010.04.10 21:57:39.
