data_PCOD8275674
_publ_section_title
;
Structure prediction by ZEFSAII (Michael W. Deem and Ramdas Pophale) SiO2 
 PCOD8275674
Probable space group: C C C M
;
_chemical_formula_sum "Si O2"
_cell_formula_units_Z 72
_cell_length_a 9.347003
_cell_length_b 14.307797
_cell_length_c 24.431669
_cell_angle_alpha 90.000000
_cell_angle_beta 90.000000
_cell_angle_gamma 90.000000
_cell_volume 3267.369779
_symmetry_space_group_name_H-M "C C C M"
_symmetry_group_IT_number 66
_symmetry_cell_setting 'orthorhombic'
loop_
_space_group_symop_operation_xyz
x,y,z
-x,-y,z
x,-y,1/2-z
-x,y,1/2-z
-x,-y,-z
x,y,-z
-x,y,1/2+z
x,-y,1/2+z
1/2+x,1/2+y,z
1/2-x,1/2-y,z
1/2+x,1/2-y,1/2-z
1/2-x,1/2+y,1/2-z
1/2-x,1/2-y,-z
1/2+x,1/2+y,-z
1/2-x,1/2+y,1/2+z
1/2+x,1/2-y,1/2+z
loop_
_atom_site_type_symbol
_atom_site_label
_atom_site_fract_x
_atom_site_fract_y
_atom_site_fract_z
Si Si1 0.851505 0.446283 0.145868
Si Si2 0.650930 0.620125 0.733593
Si Si3 0.053050 0.240603 0.363793
Si Si4 0.367675 0.568789 0.061783
Si Si5 0.250000 0.250000 0.823595
O O1 0.754272 0.452873 0.201280
O O2 0.869700 0.338823 0.127243
O O3 0.758073 0.485436 0.095276
O O4 0.000000 0.500000 0.154490
O O5 0.500000 0.570727 0.750000
O O6 0.606025 0.707019 0.695512
O O7 0.736428 0.657165 0.786402
O O8 0.089845 0.167608 0.411277
O O9 0.884511 0.260920 0.363233
O O10 0.500000 0.500000 0.063292
O O11 0.316302 0.587557 0.000000
#
# Coordination Sequence:
#
# PCOD8275674 Si02
#       5
#    16  16  16  16   8
#     4  11  23  39  66 100 133 162 220 279 317 376
#     4   9  17  36  63  86 126 178 217 246 319 379
#     4  10  21  37  66  93 125 173 212 262 320 381
#     4  10  23  45  69  92 125 170 216 268 337 402
#     4  10  18  34  67  88 127 178 208 258 312 380
#
# _framework density 22.036072000000001
#
# number of rings (size 3 to 8) (size 9 to 14) (size 15 to 20)
#    0.000    2.000    2.222    2.000    3.111    2.222 
#    0.000    2.778    9.778    0.000    0.000    0.000 
#    0.000    0.000    0.000    0.000    0.000    0.000 
#
# Total GULP energy -446271.674334 kJ/mol
# GULP energy per Si atom -12396.435398 kJ/mol
# Density = 2.198592 g / cm^3
# Si number density = 22.036072 Si / 1000 Ang^3
#
#
#
# Elastic Constant Matrix: (Units=GPa)
#
#
# Indices 1 2 3 4 5 6 
#
# 1 185.6824 20.7516 71.1281 0.0000 0.0000 0.0000
# 2 20.7516 78.0038 13.9904 0.0000 0.0000 0.0000
# 3 71.1281 13.9904 115.9017 0.0000 0.0000 0.0000
# 4 0.0000 0.0000 0.0000 11.0464 0.0000 0.0000
# 5 0.0000 0.0000 0.0000 0.0000 31.7721 0.0000
# 6 0.0000 0.0000 0.0000 0.0000 0.0000 18.7169
#
#
#
# Elastic Compliance Matrix: (Units=1/GPa)
#
#
# Indices 1 2 3 4 5 6 
#
# 1 0.007138 -0.001138 -0.004243 0.000000 0.000000 0.000000
# 2 -0.001138 0.013285 -0.000905 0.000000 0.000000 0.000000
# 3 -0.004243 -0.000905 0.011341 0.000000 0.000000 0.000000
# 4 0.000000 0.000000 0.000000 0.090527 0.000000 0.000000
# 5 0.000000 0.000000 0.000000 0.000000 0.031474 0.000000
# 6 0.000000 0.000000 0.000000 0.000000 0.000000 0.053428
#
#
# Mechanical properties :
#
#
# Convention : Reuss Voigt Hill
#
# Bulk Modulus (GPa) = 52.10636 65.70311 58.90474
# Shear Modulus (GPa) = 22.10788 30.55493 26.33141
#
# Velocity S-wave (km/s) = 3.17086 3.72773 3.46052
# Velocity P-wave (km/s) = 6.09123 6.95765 6.53881
#
# Compressibility (1/GPa) = 0.01919151
#
# Stress axis : x y z
#
# Youngs Moduli (GPa) = 140.09219 75.27293 88.17298
#
# Poissons Ratio (x) = 0.08566 0.37414
# Poissons Ratio (y) = 0.15942 0.07982
# Poissons Ratio (z) = 0.59445 0.06814
#
# Static dielectric constant tensor:
#      x y z
#    x 4.449550 0.000000 0.000000 
#    y 0.000000 3.747250 0.000000 
#    z 0.000000 0.000000 3.985110 
# 
# 
# High freq. dielectric constant tensor:
#      x y z
#    x 1.892410 0.000000 0.000000 
#    y 0.000000 1.863160 0.000000 
#    z 0.000000 0.000000 1.840220 
# 
# From -- ./inp_files/62164.got.cif
#   From: 2010.03.12/outbox.cif.g09.slc.cpg/sg66_32_cif.got.tgz:62164.got - 2010.04.10 21:57:39.
