data_PCOD8275498
_publ_section_title
;
Structure prediction by ZEFSAII (Michael W. Deem and Ramdas Pophale) SiO2 
 PCOD8275498
Probable space group: C C C M
;
_chemical_formula_sum "Si O2"
_cell_formula_units_Z 80
_cell_length_a 24.266861
_cell_length_b 23.478223
_cell_length_c 8.761232
_cell_angle_alpha 90.000000
_cell_angle_beta 90.000000
_cell_angle_gamma 90.000000
_cell_volume 4991.648624
_symmetry_space_group_name_H-M "C C C M"
_symmetry_group_IT_number 66
_symmetry_cell_setting 'orthorhombic'
loop_
_space_group_symop_operation_xyz
x,y,z
-x,-y,z
x,-y,1/2-z
-x,y,1/2-z
-x,-y,-z
x,y,-z
-x,y,1/2+z
x,-y,1/2+z
1/2+x,1/2+y,z
1/2-x,1/2-y,z
1/2+x,1/2-y,1/2-z
1/2-x,1/2+y,1/2-z
1/2-x,1/2-y,-z
1/2+x,1/2+y,-z
1/2-x,1/2+y,1/2+z
1/2+x,1/2-y,1/2+z
loop_
_atom_site_type_symbol
_atom_site_label
_atom_site_fract_x
_atom_site_fract_y
_atom_site_fract_z
Si Si1 0.556753 0.610331 0.319052
Si Si2 0.827256 0.275490 0.179522
Si Si3 0.769365 0.169046 0.322057
Si Si4 0.555393 0.739858 0.678791
Si Si5 0.164069 0.941647 0.678750
O O1 0.500000 0.585920 0.250000
O O2 0.555524 0.605398 0.500000
O O3 0.564718 0.675401 0.261931
O O4 0.606149 0.572875 0.255266
O O5 0.804676 0.213385 0.223879
O O6 0.794609 0.324843 0.270782
O O7 0.891834 0.278051 0.225020
O O8 0.818970 0.284258 0.000000
O O9 0.775634 0.183830 0.500000
O O10 0.790088 0.105923 0.284421
O O11 0.500000 0.766759 0.750000
O O12 0.547240 0.738738 0.500000
O O13 0.154602 0.948551 0.500000
O O14 0.186949 0.000000 0.750000
#
# Coordination Sequence:
#
# PCOD8275498 Si02
#       5
#    16  16  16  16  16
#     4  10  19  33  49  66  91 121 159 200 238 276
#     4  10  18  30  49  71  94 122 153 187 229 279
#     4  10  20  32  47  69  92 119 154 192 235 278
#     4   9  18  29  45  69  95 124 154 187 228 272
#     4  11  23  36  50  67  90 121 160 201 241 279
#
# _framework density 16.026768000000001
#
# number of rings (size 3 to 8) (size 9 to 14) (size 15 to 20)
#    0.000    2.000    2.000    3.600    0.000    5.200 
#    0.000    2.000    0.000    0.000    0.000    0.000 
#    0.000    0.800    0.000    8.800    0.000    6.400 
#
# Total GULP energy -495995.116062 kJ/mol
# GULP energy per Si atom -12399.877902 kJ/mol
# Density = 1.599029 g / cm^3
# Si number density = 16.026768 Si / 1000 Ang^3
#
#
#
# Elastic Constant Matrix: (Units=GPa)
#
#
# Indices 1 2 3 4 5 6 
#
# 1 117.0164 53.9949 32.9832 0.0000 0.0000 0.0000
# 2 53.9949 74.8519 31.3957 0.0000 0.0000 0.0000
# 3 32.9832 31.3957 55.8136 0.0000 0.0000 0.0000
# 4 0.0000 0.0000 0.0000 21.7049 0.0000 0.0000
# 5 0.0000 0.0000 0.0000 0.0000 28.8181 0.0000
# 6 0.0000 0.0000 0.0000 0.0000 0.0000 23.4979
#
#
#
# Elastic Compliance Matrix: (Units=1/GPa)
#
#
# Indices 1 2 3 4 5 6 
#
# 1 0.013234 -0.008201 -0.003208 0.000000 0.000000 0.000000
# 2 -0.008201 0.022567 -0.007848 0.000000 0.000000 0.000000
# 3 -0.003208 -0.007848 0.024227 0.000000 0.000000 0.000000
# 4 0.000000 0.000000 0.000000 0.046072 0.000000 0.000000
# 5 0.000000 0.000000 0.000000 0.000000 0.034700 0.000000
# 6 0.000000 0.000000 0.000000 0.000000 0.000000 0.042557
#
#
# Mechanical properties :
#
#
# Convention : Reuss Voigt Hill
#
# Bulk Modulus (GPa) = 46.47883 53.82550 50.15216
# Shear Modulus (GPa) = 21.82995 23.42474 22.62735
#
# Velocity S-wave (km/s) = 3.69466 3.82724 3.76153
# Velocity P-wave (km/s) = 6.87491 7.29301 7.08704
#
# Compressibility (1/GPa) = 0.02151517
#
# Stress axis : x y z
#
# Youngs Moduli (GPa) = 75.56178 44.31169 41.27669
#
# Poissons Ratio (x) = 0.36341 0.13240
# Poissons Ratio (y) = 0.61970 0.32393
# Poissons Ratio (z) = 0.24237 0.34775
#
# Static dielectric constant tensor:
#      x y z
#    x 3.283070 0.000000 0.000000 
#    y 0.000000 2.859100 0.000000 
#    z 0.000000 0.000000 3.110430 
# 
# 
# High freq. dielectric constant tensor:
#      x y z
#    x 1.616930 0.000000 0.000000 
#    y 0.000000 1.570530 0.000000 
#    z 0.000000 0.000000 1.631520 
# 
# From -- ./inp_files/11464.got.cif
#   From: 2010.03.12/outbox.cif.g09.slc.cpg/sg66_6_cif.got.tgz:11464.got - 2010.04.10 21:57:39.
