data_PCOD8275243
_publ_section_title
;
Structure prediction by ZEFSAII (Michael W. Deem and Ramdas Pophale) SiO2 
 PCOD8275243
Probable space group: C C C M
;
_chemical_formula_sum "Si O2"
_cell_formula_units_Z 96
_cell_length_a 29.688574
_cell_length_b 12.040509
_cell_length_c 15.834629
_cell_angle_alpha 90.000000
_cell_angle_beta 90.000000
_cell_angle_gamma 90.000000
_cell_volume 5660.334245
_symmetry_space_group_name_H-M "C C C M"
_symmetry_group_IT_number 66
_symmetry_cell_setting 'orthorhombic'
loop_
_space_group_symop_operation_xyz
x,y,z
-x,-y,z
x,-y,1/2-z
-x,y,1/2-z
-x,-y,-z
x,y,-z
-x,y,1/2+z
x,-y,1/2+z
1/2+x,1/2+y,z
1/2-x,1/2-y,z
1/2+x,1/2-y,1/2-z
1/2-x,1/2+y,1/2-z
1/2-x,1/2-y,-z
1/2+x,1/2+y,-z
1/2-x,1/2+y,1/2+z
1/2+x,1/2-y,1/2+z
loop_
_atom_site_type_symbol
_atom_site_label
_atom_site_fract_x
_atom_site_fract_y
_atom_site_fract_z
Si Si1 0.556494 0.129546 0.500000
Si Si2 0.680920 0.272297 0.907727
Si Si3 0.043219 0.368714 0.500000
Si Si4 0.781523 0.352289 0.331570
Si Si5 0.258107 0.089910 0.358075
Si Si6 0.116233 0.384056 0.845248
Si Si7 0.896548 0.361820 0.158047
O O1 0.506865 0.184501 0.500000
O O2 0.584675 0.166829 0.582083
O O3 0.545670 0.000310 0.500000
O O4 0.714740 0.168123 0.921983
O O5 0.705230 0.378011 0.864193
O O6 0.640437 0.234241 0.848525
O O7 0.662705 0.306303 0.000000
O O8 0.065597 0.330103 0.411179
O O9 0.750000 0.250000 0.360172
O O10 0.764703 0.461248 0.382200
O O11 0.776783 0.378711 0.233559
O O12 0.834289 0.327772 0.349633
O O13 0.123735 0.515889 0.861084
O O14 0.089380 0.361121 0.757047
#
# Coordination Sequence:
#
# PCOD8275243 Si02
#       7
#     8  16   8  16  16  16  16
#     4   9  20  32  43  61  93 128 158 204 240 298
#     4  11  18  29  47  71  96 125 160 212 247 281
#     4   9  18  30  46  70  90 115 159 203 258 296
#     4  11  18  30  48  65  98 137 172 198 226 288
#     4  10  18  28  43  70  97 125 169 197 240 280
#     4  10  18  30  46  63  95 131 165 194 238 293
#     4  10  16  28  49  70  91 122 161 202 245 303
#
# _framework density 16.960128999999998
#
# number of rings (size 3 to 8) (size 9 to 14) (size 15 to 20)
#    0.000    1.833    5.833    2.000    0.000    0.667 
#    1.500    3.750    0.000    0.000    0.000    0.000 
#    0.000    2.667    0.000    7.000    0.000    0.500 
#
# Total GULP energy -594711.363234 kJ/mol
# GULP energy per Si atom -12389.820067 kJ/mol
# Density = 1.692153 g / cm^3
# Si number density = 16.960129 Si / 1000 Ang^3
#
#
#
# Elastic Constant Matrix: (Units=GPa)
#
#
# Indices 1 2 3 4 5 6 
#
# 1 116.9207 29.6893 59.6330 0.0000 0.0000 0.0000
# 2 29.6893 54.1246 15.8270 0.0000 0.0000 0.0000
# 3 59.6330 15.8270 107.4937 0.0000 0.0000 0.0000
# 4 0.0000 0.0000 0.0000 9.9956 0.0000 0.0000
# 5 0.0000 0.0000 0.0000 0.0000 17.0954 0.0000
# 6 0.0000 0.0000 0.0000 0.0000 0.0000 15.6455
#
#
#
# Elastic Compliance Matrix: (Units=1/GPa)
#
#
# Indices 1 2 3 4 5 6 
#
# 1 0.013263 -0.005354 -0.006569 0.000000 0.000000 0.000000
# 2 -0.005354 0.021469 -0.000191 0.000000 0.000000 0.000000
# 3 -0.006569 -0.000191 0.012975 0.000000 0.000000 0.000000
# 4 0.000000 0.000000 0.000000 0.100044 0.000000 0.000000
# 5 0.000000 0.000000 0.000000 0.000000 0.058495 0.000000
# 6 0.000000 0.000000 0.000000 0.000000 0.000000 0.063916
#
#
# Mechanical properties :
#
#
# Convention : Reuss Voigt Hill
#
# Bulk Modulus (GPa) = 42.59236 54.31527 48.45382
# Shear Modulus (GPa) = 16.54442 20.10663 18.32553
#
# Velocity S-wave (km/s) = 3.12667 3.44688 3.29067
# Velocity P-wave (km/s) = 6.18082 6.92359 6.56272
#
# Compressibility (1/GPa) = 0.02347839
#
# Stress axis : x y z
#
# Youngs Moduli (GPa) = 75.39797 46.57967 77.06906
#
# Poissons Ratio (x) = 0.24940 0.50630
# Poissons Ratio (y) = 0.40370 0.01470
# Poissons Ratio (z) = 0.49532 0.00888
#
# Static dielectric constant tensor:
#      x y z
#    x 3.223190 0.000000 0.000000 
#    y 0.000000 2.959630 0.000000 
#    z 0.000000 0.000000 3.232340 
# 
# 
# High freq. dielectric constant tensor:
#      x y z
#    x 1.636780 0.000000 0.000000 
#    y 0.000000 1.595430 0.000000 
#    z 0.000000 0.000000 1.662370 
# 
# From -- ./inp_files/44279.got.cif
#   From: 2010.03.12/outbox.cif.g09.slc.cpg/sg66_23_cif.got.tgz:44279.got - 2010.04.10 21:57:39.
