data_PCOD8275275
_publ_section_title
;
Structure prediction by ZEFSAII (Michael W. Deem and Ramdas Pophale) SiO2 
 PCOD8275275
Probable space group: C C C M
;
_chemical_formula_sum "Si O2"
_cell_formula_units_Z 112
_cell_length_a 22.883606
_cell_length_b 17.461667
_cell_length_c 19.061601
_cell_angle_alpha 90.000000
_cell_angle_beta 90.000000
_cell_angle_gamma 90.000000
_cell_volume 7616.747138
_symmetry_space_group_name_H-M "C C C M"
_symmetry_group_IT_number 66
_symmetry_cell_setting 'orthorhombic'
loop_
_space_group_symop_operation_xyz
x,y,z
-x,-y,z
x,-y,1/2-z
-x,y,1/2-z
-x,-y,-z
x,y,-z
-x,y,1/2+z
x,-y,1/2+z
1/2+x,1/2+y,z
1/2-x,1/2-y,z
1/2+x,1/2-y,1/2-z
1/2-x,1/2+y,1/2-z
1/2-x,1/2-y,-z
1/2+x,1/2+y,-z
1/2-x,1/2+y,1/2+z
1/2+x,1/2-y,1/2+z
loop_
_atom_site_type_symbol
_atom_site_label
_atom_site_fract_x
_atom_site_fract_y
_atom_site_fract_z
Si Si1 0.130248 0.615748 0.920665
Si Si2 0.999720 0.414757 0.417883
Si Si3 0.227781 0.071837 0.208962
Si Si4 0.701927 0.188325 0.800247
Si Si5 0.891404 0.322416 0.578770
Si Si6 0.182371 0.225291 0.828158
Si Si7 0.694938 0.960719 0.078189
O O1 0.061795 0.624739 0.904250
O O2 0.164845 0.670223 0.868533
O O3 0.148117 0.527791 0.909770
O O4 0.143893 0.642432 0.000000
O O5 0.985105 0.424112 0.500000
O O6 0.000000 0.500000 0.383831
O O7 0.949117 0.360067 0.385047
O O8 0.272443 0.111794 0.263734
O O9 0.179638 0.133820 0.184440
O O10 0.257110 0.037757 0.138798
O O11 0.198814 0.000000 0.250000
O O12 0.750000 0.250000 0.824482
O O13 0.662113 0.230048 0.741896
O O14 0.906987 0.298289 0.500000
O O15 0.866722 0.245575 0.614863
O O16 0.838535 0.381372 0.582923
O O17 0.250000 0.250000 0.847001
O O18 0.723522 0.968903 0.000000
#
# Coordination Sequence:
#
# PCOD8275275 Si02
#       7
#    16  16  16  16  16  16  16
#     4  10  18  28  43  62  85 118 153 182 210 247
#     4   9  16  26  41  62  89 121 152 175 204 248
#     4  10  17  29  45  60  84 118 146 181 227 270
#     4   9  18  30  43  60  83 111 144 183 221 263
#     4  10  17  27  42  62  92 120 149 185 212 251
#     4   9  18  29  41  61  82 115 151 181 223 270
#     4  10  17  24  41  65  87 116 151 183 209 251
#
# _framework density 14.70444
#
# number of rings (size 3 to 8) (size 9 to 14) (size 15 to 20)
#    0.000    2.714    5.714    0.000    0.000    1.143 
#    0.000    0.714    0.000    0.857    0.000    0.000 
#    0.000    9.143    0.000   20.571    0.000    0.000 
#
# Total GULP energy -693849.391336 kJ/mol
# GULP energy per Si atom -12390.167702 kJ/mol
# Density = 1.467097 g / cm^3
# Si number density = 14.704440 Si / 1000 Ang^3
#
#
#
# Elastic Constant Matrix: (Units=GPa)
#
#
# Indices 1 2 3 4 5 6 
#
# 1 53.7085 36.6261 42.2060 0.0000 0.0000 0.0000
# 2 36.6261 84.1198 38.4182 0.0000 0.0000 0.0000
# 3 42.2060 38.4182 72.8071 0.0000 0.0000 0.0000
# 4 0.0000 0.0000 0.0000 26.8830 0.0000 0.0000
# 5 0.0000 0.0000 0.0000 0.0000 10.3104 0.0000
# 6 0.0000 0.0000 0.0000 0.0000 0.0000 21.0373
#
#
#
# Elastic Compliance Matrix: (Units=1/GPa)
#
#
# Indices 1 2 3 4 5 6 
#
# 1 0.038440 -0.008643 -0.017723 0.000000 0.000000 0.000000
# 2 -0.008643 0.017605 -0.004280 0.000000 0.000000 0.000000
# 3 -0.017723 -0.004280 0.026267 0.000000 0.000000 0.000000
# 4 0.000000 0.000000 0.000000 0.037198 0.000000 0.000000
# 5 0.000000 0.000000 0.000000 0.000000 0.096990 0.000000
# 6 0.000000 0.000000 0.000000 0.000000 0.000000 0.047535
#
#
# Mechanical properties :
#
#
# Convention : Reuss Voigt Hill
#
# Bulk Modulus (GPa) = 47.56974 49.45953 48.51464
# Shear Modulus (GPa) = 15.04509 17.87181 16.45845
#
# Velocity S-wave (km/s) = 3.20217 3.49004 3.34920
# Velocity P-wave (km/s) = 6.78916 7.06748 6.92972
#
# Compressibility (1/GPa) = 0.02102177
#
# Stress axis : x y z
#
# Youngs Moduli (GPa) = 26.01436 56.80046 38.07024
#
# Poissons Ratio (x) = 0.49091 0.67472
# Poissons Ratio (y) = 0.22484 0.16293
# Poissons Ratio (z) = 0.46106 0.24309
#
# Static dielectric constant tensor:
#      x y z
#    x 2.596520 0.000000 0.000000 
#    y 0.000000 2.823720 0.000000 
#    z 0.000000 0.000000 2.874880 
# 
# 
# High freq. dielectric constant tensor:
#      x y z
#    x 1.521680 0.000000 0.000000 
#    y 0.000000 1.550480 0.000000 
#    z 0.000000 0.000000 1.558220 
# 
# From -- ./inp_files/43794.got.cif
#   From: 2010.03.12/outbox.cif.g09.slc.cpg/sg66_22_cif.got.tgz:43794.got - 2010.04.10 21:57:39.
