data_PCOD8275349
_publ_section_title
;
Structure prediction by ZEFSAII (Michael W. Deem and Ramdas Pophale) SiO2 
 PCOD8275349
Probable space group: C C C M
;
_chemical_formula_sum "Si O2"
_cell_formula_units_Z 112
_cell_length_a 24.136996
_cell_length_b 14.349612
_cell_length_c 17.680742
_cell_angle_alpha 90.000000
_cell_angle_beta 90.000000
_cell_angle_gamma 90.000000
_cell_volume 6123.840402
_symmetry_space_group_name_H-M "C C C M"
_symmetry_group_IT_number 66
_symmetry_cell_setting 'orthorhombic'
loop_
_space_group_symop_operation_xyz
x,y,z
-x,-y,z
x,-y,1/2-z
-x,y,1/2-z
-x,-y,-z
x,y,-z
-x,y,1/2+z
x,-y,1/2+z
1/2+x,1/2+y,z
1/2-x,1/2-y,z
1/2+x,1/2-y,1/2-z
1/2-x,1/2+y,1/2-z
1/2-x,1/2-y,-z
1/2+x,1/2+y,-z
1/2-x,1/2+y,1/2+z
1/2+x,1/2-y,1/2+z
loop_
_atom_site_type_symbol
_atom_site_label
_atom_site_fract_x
_atom_site_fract_y
_atom_site_fract_z
Si Si1 0.047256 0.435301 0.913391
Si Si2 0.047941 0.775185 0.584889
Si Si3 0.217447 0.980030 0.413280
Si Si4 0.837932 0.801593 0.155969
Si Si5 0.149833 0.909329 0.799253
Si Si6 0.475341 0.602213 0.172255
Si Si7 0.168473 0.603832 0.588817
O O1 0.027428 0.329919 0.902910
O O2 0.110576 0.441268 0.880844
O O3 0.000000 0.500000 0.872703
O O4 0.050689 0.467509 0.000000
O O5 0.069751 0.789721 0.500000
O O6 0.096568 0.805018 0.641368
O O7 0.995284 0.838614 0.600855
O O8 0.205232 0.004404 0.500000
O O9 0.190718 0.880346 0.394794
O O10 0.283353 0.971425 0.397973
O O11 0.194620 0.066612 0.364064
O O12 0.828604 0.825008 0.245374
O O13 0.815711 0.698663 0.134552
O O14 0.090442 0.888558 0.835153
O O15 0.140096 0.000000 0.750000
O O16 0.500000 0.500000 0.162995
O O17 0.500000 0.645315 0.250000
O O18 0.162331 0.631116 0.500000
#
# Coordination Sequence:
#
# PCOD8275349 Si02
#       7
#    16  16  16  16  16  16  16
#     4   8  15  30  52  78 105 130 161 208 267 320
#     4  10  19  29  49  80 104 130 176 221 258 316
#     4  10  19  30  47  75 107 136 171 216 261 315
#     4  10  17  29  48  73 104 135 166 211 268 318
#     4  10  19  31  48  68  99 141 175 203 254 318
#     4  11  18  31  47  67 101 146 174 205 258 314
#     4   9  17  29  50  80 107 131 165 216 272 312
#
# _framework density 18.289176999999999
#
# number of rings (size 3 to 8) (size 9 to 14) (size 15 to 20)
#    0.000    2.286    2.857    3.429    0.000    2.000 
#    0.000    0.000    0.000    9.000    0.000    0.000 
#    0.000   28.571    0.000    0.000    0.000    2.286 
#
# Total GULP energy -694005.072600 kJ/mol
# GULP energy per Si atom -12392.947725 kJ/mol
# Density = 1.824755 g / cm^3
# Si number density = 18.289177 Si / 1000 Ang^3
#
#
#
# Elastic Constant Matrix: (Units=GPa)
#
#
# Indices 1 2 3 4 5 6 
#
# 1 101.2463 46.4862 53.2573 0.0000 0.0000 0.0000
# 2 46.4862 53.3088 47.6721 0.0000 0.0000 0.0000
# 3 53.2573 47.6721 79.6137 0.0000 0.0000 0.0000
# 4 0.0000 0.0000 0.0000 20.6108 0.0000 0.0000
# 5 0.0000 0.0000 0.0000 0.0000 14.7679 0.0000
# 6 0.0000 0.0000 0.0000 0.0000 0.0000 27.6375
#
#
#
# Elastic Compliance Matrix: (Units=1/GPa)
#
#
# Indices 1 2 3 4 5 6 
#
# 1 0.017539 -0.010338 -0.005542 0.000000 0.000000 0.000000
# 2 -0.010338 0.046476 -0.020914 0.000000 0.000000 0.000000
# 3 -0.005542 -0.020914 0.028791 0.000000 0.000000 0.000000
# 4 0.000000 0.000000 0.000000 0.048518 0.000000 0.000000
# 5 0.000000 0.000000 0.000000 0.000000 0.067714 0.000000
# 6 0.000000 0.000000 0.000000 0.000000 0.000000 0.036183
#
#
# Mechanical properties :
#
#
# Convention : Reuss Voigt Hill
#
# Bulk Modulus (GPa) = 52.03510 58.77778 55.40644
# Shear Modulus (GPa) = 15.37441 18.38680 16.88061
#
# Velocity S-wave (km/s) = 2.90251 3.17415 3.04136
# Velocity P-wave (km/s) = 6.30443 6.75584 6.53403
#
# Compressibility (1/GPa) = 0.01921780
#
# Stress axis : x y z
#
# Youngs Moduli (GPa) = 57.01666 21.51643 34.73266
#
# Poissons Ratio (x) = 0.22243 0.19250
# Poissons Ratio (y) = 0.58943 0.72640
# Poissons Ratio (z) = 0.31600 0.45000
#
# Static dielectric constant tensor:
#      x y z
#    x 3.574660 0.000000 0.000000 
#    y 0.000000 3.176660 0.000000 
#    z 0.000000 0.000000 3.288710 
# 
# 
# High freq. dielectric constant tensor:
#      x y z
#    x 1.717190 0.000000 0.000000 
#    y 0.000000 1.679290 0.000000 
#    z 0.000000 0.000000 1.683560 
# 
# From -- ./inp_files/33308.got.cif
#   From: 2010.03.12/outbox.cif.g09.slc.cpg/sg66_17_cif.got.tgz:33308.got - 2010.04.10 21:57:39.
