data_PCOD8275319
_publ_section_title
;
Structure prediction by ZEFSAII (Michael W. Deem and Ramdas Pophale) SiO2 
 PCOD8275319
Probable space group: C C C M
;
_chemical_formula_sum "Si O2"
_cell_formula_units_Z 80
_cell_length_a 17.677837
_cell_length_b 28.177654
_cell_length_c 8.621062
_cell_angle_alpha 90.000000
_cell_angle_beta 90.000000
_cell_angle_gamma 90.000000
_cell_volume 4294.323183
_symmetry_space_group_name_H-M "C C C M"
_symmetry_group_IT_number 66
_symmetry_cell_setting 'orthorhombic'
loop_
_space_group_symop_operation_xyz
x,y,z
-x,-y,z
x,-y,1/2-z
-x,y,1/2-z
-x,-y,-z
x,y,-z
-x,y,1/2+z
x,-y,1/2+z
1/2+x,1/2+y,z
1/2-x,1/2-y,z
1/2+x,1/2-y,1/2-z
1/2-x,1/2+y,1/2-z
1/2-x,1/2-y,-z
1/2+x,1/2+y,-z
1/2-x,1/2+y,1/2+z
1/2+x,1/2-y,1/2+z
loop_
_atom_site_type_symbol
_atom_site_label
_atom_site_fract_x
_atom_site_fract_y
_atom_site_fract_z
Si Si1 0.180573 0.785090 0.170062
Si Si2 0.269730 0.448057 0.183167
Si Si3 0.575144 0.447260 0.184103
Si Si4 0.796152 0.360056 0.184192
Si Si5 0.417076 0.210468 0.181523
O O1 0.250000 0.750000 0.149455
O O2 0.217610 0.833700 0.234286
O O3 0.118371 0.762588 0.284286
O O4 0.142935 0.793061 0.000000
O O5 0.251564 0.500000 0.250000
O O6 0.347068 0.425154 0.252799
O O7 0.203731 0.411789 0.234958
O O8 0.275697 0.452228 0.000000
O O9 0.573666 0.500000 0.250000
O O10 0.500000 0.420393 0.250000
O O11 0.574227 0.446700 0.000000
O O12 0.868929 0.331373 0.241147
O O13 0.800968 0.365304 0.000000
O O14 0.500000 0.208062 0.250000
O O15 0.419310 0.202024 0.000000
#
# Coordination Sequence:
#
# PCOD8275319 Si02
#       5
#    16  16  16  16  16
#     4   8  16  32  53  76 104 135 166 206 258 313
#     4  11  21  34  52  76 105 141 185 228 271 318
#     4  10  17  28  45  66  92 124 163 209 258 306
#     4  10  20  36  56  79 108 141 178 221 269 318
#     4  11  21  34  55  82 111 142 177 217 263 318
#
# _framework density 18.629245999999998
#
# number of rings (size 3 to 8) (size 9 to 14) (size 15 to 20)
#    0.000    2.000    0.000    9.000    0.000    4.400 
#    0.000    1.000    0.000    5.400    0.000    4.200 
#    0.000    0.000    0.000    0.000    0.000    0.000 
#
# Total GULP energy -495741.588244 kJ/mol
# GULP energy per Si atom -12393.539706 kJ/mol
# Density = 1.858684 g / cm^3
# Si number density = 18.629246 Si / 1000 Ang^3
#
#
#
# Elastic Constant Matrix: (Units=GPa)
#
#
# Indices 1 2 3 4 5 6 
#
# 1 98.0355 44.3587 47.0227 0.0000 0.0000 0.0000
# 2 44.3587 89.7728 40.5895 0.0000 0.0000 0.0000
# 3 47.0227 40.5895 154.9614 0.0000 0.0000 0.0000
# 4 0.0000 0.0000 0.0000 0.0325 0.0000 0.0000
# 5 0.0000 0.0000 0.0000 0.0000 32.4147 0.0000
# 6 0.0000 0.0000 0.0000 0.0000 0.0000 21.4910
#
#
#
# Elastic Compliance Matrix: (Units=1/GPa)
#
#
# Indices 1 2 3 4 5 6 
#
# 1 0.014126 -0.005719 -0.002788 0.000000 0.000000 0.000000
# 2 -0.005719 0.014951 -0.002181 0.000000 0.000000 0.000000
# 3 -0.002788 -0.002181 0.007871 0.000000 0.000000 0.000000
# 4 0.000000 0.000000 0.000000 30.745371 0.000000 0.000000
# 5 0.000000 0.000000 0.000000 0.000000 0.030850 0.000000
# 6 0.000000 0.000000 0.000000 0.000000 0.000000 0.046531
#
#
# Mechanical properties :
#
#
# Convention : Reuss Voigt Hill
#
# Bulk Modulus (GPa) = 64.22229 67.41241 65.81735
# Shear Modulus (GPa) = 0.16188 24.84090 12.50139
#
# Velocity S-wave (km/s) = 0.29510 3.65559 2.59330
# Velocity P-wave (km/s) = 5.88769 7.35409 6.66136
#
# Compressibility (1/GPa) = 0.01557092
#
# Stress axis : x y z
#
# Youngs Moduli (GPa) = 70.79370 66.88463 127.05574
#
# Poissons Ratio (x) = 0.38251 0.35428
# Poissons Ratio (y) = 0.40487 0.27708
# Poissons Ratio (z) = 0.19740 0.14586
#
# Static dielectric constant tensor:
#      x y z
#    x 3.737690 0.000000 0.000000 
#    y 0.000000 3.588610 0.000000 
#    z 0.000000 0.000000 3.475920 
# 
# 
# High freq. dielectric constant tensor:
#      x y z
#    x 1.704100 0.000000 0.000000 
#    y 0.000000 1.704660 0.000000 
#    z 0.000000 0.000000 1.737210 
# 
# From -- ./inp_files/6903.got.cif
#   From: 2010.03.12/outbox.cif.g09.slc.cpg/sg66_4_cif.got.tgz:6903.got - 2010.04.10 21:57:39.
