data_PCOD8275201
_publ_section_title
;
Structure prediction by ZEFSAII (Michael W. Deem and Ramdas Pophale) SiO2 
 PCOD8275201
Probable space group: C M M M
;
_chemical_formula_sum "Si O2"
_cell_formula_units_Z 52
_cell_length_a 27.000000
_cell_length_b 18.000000
_cell_length_c 12.000000
_cell_angle_alpha 90.000000
_cell_angle_beta 90.000000
_cell_angle_gamma 90.000000
_cell_volume 5832.000000
_symmetry_space_group_name_H-M "C M M M"
_symmetry_group_IT_number 65
_symmetry_cell_setting 'orthorhombic'
loop_
_space_group_symop_operation_xyz
x,y,z
-x,-y,z
x,-y,-z
-x,y,-z
-x,-y,-z
x,y,-z
-x,y,z
x,-y,z
1/2+x,1/2+y,z
1/2-x,1/2-y,z
1/2+x,1/2-y,-z
1/2-x,1/2+y,-z
1/2-x,1/2-y,-z
1/2+x,1/2+y,-z
1/2-x,1/2+y,z
1/2+x,1/2-y,z
loop_
_atom_site_type_symbol
_atom_site_label
_atom_site_fract_x
_atom_site_fract_y
_atom_site_fract_z
Si Si1 0.604733 0.083945 0.370785
Si Si2 0.702004 0.085917 0.239922
Si Si3 0.895513 0.151311 0.374326
Si Si4 0.942777 0.000000 0.367497
Si Si5 0.557898 0.214512 0.243679
Si Si6 0.156602 0.715435 0.877000
Si Si7 0.711857 0.688887 0.302880
O O1 0.600125 0.099730 0.500000
O O2 0.662236 0.098205 0.339266
O O3 0.566253 0.138509 0.311330
O O4 0.589403 0.000000 0.339104
O O5 0.679940 0.133172 0.137353
O O6 0.756119 0.115498 0.275901
O O7 0.707165 0.000000 0.205377
O O8 0.913649 0.153209 0.500000
O O9 0.912519 0.072099 0.321814
O O10 0.927446 0.214884 0.316572
O O11 0.835686 0.164148 0.375327
O O12 0.942073 0.000000 0.500000
O O13 0.000000 0.000000 0.324150
O O14 0.500000 0.218931 0.205660
O O15 0.597131 0.214044 0.142193
O O16 0.187317 0.774012 0.804961
O O17 0.165630 0.743542 0.000000
O O18 0.750000 0.750000 0.358061
#
# Coordination Sequence:
#
# PCOD8275201 Si02
#       7
#    16  16  16   8  16  16  16
#     4   9  18  32  48  70 103 139 168 196 233 280
#     4   9  18  31  49  73  99 128 164 198 233 286
#     4  10  20  32  48  73 104 134 167 203 243 292
#     4   9  18  32  48  68  97 133 171 209 247 286
#     4  10  20  33  51  74  95 124 167 208 248 293
#     4   9  19  36  52  68  95 124 156 203 254 300
#     4   9  19  32  48  73  99 131 162 198 244 293
#
# _framework density 8.9163239999999995
#
# number of rings (size 3 to 8) (size 9 to 14) (size 15 to 20)
#    0.000    2.692    0.000    1.846    1.077    6.462 
#    0.000    0.769    0.000    0.000    0.000    4.308 
#    0.000    5.846    0.000    0.000    0.000    0.000 
#
# Total GULP energy -644292.902508 kJ/mol
# GULP energy per Si atom -12390.248125 kJ/mol
# Density = 0.889603 g / cm^3
# Si number density = 8.916324 Si / 1000 Ang^3
#
#
#
# Elastic Constant Matrix: (Units=GPa)
#
#
# Indices 1 2 3 4 5 6 
#
# 1 121.8161 35.2129 -6.7163 0.0000 0.0000 0.0000
# 2 35.2129 110.7366 18.8874 0.0000 0.0000 0.0000
# 3 -6.7163 18.8874 32.3145 0.0000 0.0000 0.0000
# 4 0.0000 0.0000 0.0000 9.5011 0.0000 0.0000
# 5 0.0000 0.0000 0.0000 0.0000 10.8074 0.0000
# 6 0.0000 0.0000 0.0000 0.0000 0.0000 36.4941
#
#
#
# Elastic Compliance Matrix: (Units=1/GPa)
#
#
# Indices 1 2 3 4 5 6 
#
# 1 0.009519 -0.003737 0.004163 0.000000 0.000000 0.000000
# 2 -0.003737 0.011497 -0.007497 0.000000 0.000000 0.000000
# 3 0.004163 -0.007497 0.036193 0.000000 0.000000 0.000000
# 4 0.000000 0.000000 0.000000 0.105251 0.000000 0.000000
# 5 0.000000 0.000000 0.000000 0.000000 0.092529 0.000000
# 6 0.000000 0.000000 0.000000 0.000000 0.000000 0.027402
#
#
# Mechanical properties :
#
#
# Convention : Reuss Voigt Hill
#
# Bulk Modulus (GPa) = 23.21970 39.95946 31.58958
# Shear Modulus (GPa) = 16.08294 25.85941 20.97117
#
# Velocity S-wave (km/s) = 3.00639 3.81217 3.43300
# Velocity P-wave (km/s) = 5.01003 6.46789 5.78506
#
# Compressibility (1/GPa) = 0.04306689
#
# Stress axis : x y z
#
# Youngs Moduli (GPa) = 105.05541 86.97649 27.62981
#
# Poissons Ratio (x) = 0.32502 -0.11501
# Poissons Ratio (y) = 0.39257 0.20713
# Poissons Ratio (z) = -0.43730 0.65204
#
# Static dielectric constant tensor:
#      x y z
#    x 3.579620 0.000000 0.000000 
#    y 0.000000 3.602600 0.000000 
#    z 0.000000 0.000000 2.826430 
# 
# 
# High freq. dielectric constant tensor:
#      x y z
#    x 1.710020 0.000000 0.000000 
#    y 0.000000 1.705450 0.000000 
#    z 0.000000 0.000000 1.642390 
# 
# From -- ./inp_files/27497.got.cif
#   From: 2010.03.12/outbox.ucp.g09.slc.cvg/sg65_14_cif.got.tgz:27497.got - 2010.05.04 19:44:54.
