data_PCOD8275317
_publ_section_title
;
Structure prediction by ZEFSAII (Michael W. Deem and Ramdas Pophale) SiO2 
 PCOD8275317
Probable space group: C C C M
;
_chemical_formula_sum "Si O2"
_cell_formula_units_Z 96
_cell_length_a 28.477263
_cell_length_b 26.227212
_cell_length_c 8.917975
_cell_angle_alpha 90.000000
_cell_angle_beta 90.000000
_cell_angle_gamma 90.000000
_cell_volume 6660.650157
_symmetry_space_group_name_H-M "C C C M"
_symmetry_group_IT_number 66
_symmetry_cell_setting 'orthorhombic'
loop_
_space_group_symop_operation_xyz
x,y,z
-x,-y,z
x,-y,1/2-z
-x,y,1/2-z
-x,-y,-z
x,y,-z
-x,y,1/2+z
x,-y,1/2+z
1/2+x,1/2+y,z
1/2-x,1/2-y,z
1/2+x,1/2-y,1/2-z
1/2-x,1/2+y,1/2-z
1/2-x,1/2-y,-z
1/2+x,1/2+y,-z
1/2-x,1/2+y,1/2+z
1/2+x,1/2-y,1/2+z
loop_
_atom_site_type_symbol
_atom_site_label
_atom_site_fract_x
_atom_site_fract_y
_atom_site_fract_z
Si Si1 0.548161 0.283615 0.324334
Si Si2 0.859590 0.246277 0.823849
Si Si3 0.361152 0.552052 0.822740
Si Si4 0.219641 0.699111 0.330608
Si Si5 0.700166 0.648234 0.325713
Si Si6 0.048411 0.901851 0.323511
O O1 0.500000 0.264644 0.250000
O O2 0.545159 0.273887 0.500000
O O3 0.590119 0.250380 0.255658
O O4 0.557097 0.342716 0.285560
O O5 0.827787 0.293012 0.764721
O O6 0.835953 0.192612 0.778924
O O7 0.866578 0.251766 0.000000
O O8 0.342294 0.500000 0.750000
O O9 0.322781 0.594641 0.781911
O O10 0.410858 0.565235 0.750185
O O11 0.367653 0.546685 0.000000
O O12 0.205802 0.685325 0.500000
O O13 0.250000 0.750000 0.321189
O O14 0.250718 0.653305 0.262584
O O15 0.712027 0.652502 0.500000
O O16 0.046802 0.912058 0.500000
O O17 0.000000 0.920485 0.250000
#
# Coordination Sequence:
#
# PCOD8275317 Si02
#       6
#    16  16  16  16  16  16
#     4  10  19  29  43  62  84 109 139 171 209 251
#     4  10  17  28  45  63  84 108 135 166 205 247
#     4  11  22  35  48  63  81 104 137 174 217 261
#     4   9  17  27  42  64  85 104 130 163 202 245
#     4   9  18  31  45  60  81 106 132 167 208 252
#     4  10  20  33  48  62  78 102 134 175 219 260
#
# _framework density 14.413007
#
# number of rings (size 3 to 8) (size 9 to 14) (size 15 to 20)
#    0.000    2.167    1.667    2.500    0.000    5.667 
#    0.000    1.667    0.000    0.000    0.000    0.000 
#    0.000    0.000    0.000    0.000    0.000    0.833 
#
# Total GULP energy -595323.444575 kJ/mol
# GULP energy per Si atom -12402.571762 kJ/mol
# Density = 1.438020 g / cm^3
# Si number density = 14.413007 Si / 1000 Ang^3
#
#
#
# Elastic Constant Matrix: (Units=GPa)
#
#
# Indices 1 2 3 4 5 6 
#
# 1 103.4501 48.5581 53.0606 0.0000 0.0000 0.0000
# 2 48.5581 48.8287 31.6285 0.0000 0.0000 0.0000
# 3 53.0606 31.6285 80.6006 0.0000 0.0000 0.0000
# 4 0.0000 0.0000 0.0000 17.8184 0.0000 0.0000
# 5 0.0000 0.0000 0.0000 0.0000 29.9880 0.0000
# 6 0.0000 0.0000 0.0000 0.0000 0.0000 19.5981
#
#
#
# Elastic Compliance Matrix: (Units=1/GPa)
#
#
# Indices 1 2 3 4 5 6 
#
# 1 0.021100 -0.016070 -0.007584 0.000000 0.000000 0.000000
# 2 -0.016070 0.039699 -0.004999 0.000000 0.000000 0.000000
# 3 -0.007584 -0.004999 0.019361 0.000000 0.000000 0.000000
# 4 0.000000 0.000000 0.000000 0.056122 0.000000 0.000000
# 5 0.000000 0.000000 0.000000 0.000000 0.033347 0.000000
# 6 0.000000 0.000000 0.000000 0.000000 0.000000 0.051025
#
#
# Mechanical properties :
#
#
# Convention : Reuss Voigt Hill
#
# Bulk Modulus (GPa) = 43.75746 55.48597 49.62172
# Shear Modulus (GPa) = 17.50837 20.12304 18.81570
#
# Velocity S-wave (km/s) = 3.48912 3.74059 3.61704
# Velocity P-wave (km/s) = 6.83064 7.56550 7.20744
#
# Compressibility (1/GPa) = 0.02285324
#
# Stress axis : x y z
#
# Youngs Moduli (GPa) = 47.39448 25.18962 51.64954
#
# Poissons Ratio (x) = 0.40480 0.39171
# Poissons Ratio (y) = 0.76163 0.25820
# Poissons Ratio (z) = 0.35944 0.12592
#
# Static dielectric constant tensor:
#      x y z
#    x 2.821880 0.000000 0.000000 
#    y 0.000000 2.530510 0.000000 
#    z 0.000000 0.000000 2.920420 
# 
# 
# High freq. dielectric constant tensor:
#      x y z
#    x 1.544870 0.000000 0.000000 
#    y 0.000000 1.497180 0.000000 
#    z 0.000000 0.000000 1.570160 
# 
# From -- ./inp_files/8003.got.cif
#   From: 2010.03.12/outbox.cif.g09.slc.cpg/sg66_5_cif.got.tgz:8003.got - 2010.04.10 21:57:39.
