data_PCOD8275040
_publ_section_title
;
Structure prediction by ZEFSAII (Michael W. Deem and Ramdas Pophale) SiO2 
 PCOD8275040
Probable space group: C M M M
;
_chemical_formula_sum "Si O2"
_cell_formula_units_Z 104
_cell_length_a 9.307154
_cell_length_b 29.798181
_cell_length_c 22.919564
_cell_angle_alpha 90.000000
_cell_angle_beta 90.000000
_cell_angle_gamma 90.000000
_cell_volume 6356.426149
_symmetry_space_group_name_H-M "C M M M"
_symmetry_group_IT_number 65
_symmetry_cell_setting 'orthorhombic'
loop_
_space_group_symop_operation_xyz
x,y,z
-x,-y,z
x,-y,-z
-x,y,-z
-x,-y,-z
x,y,-z
-x,y,z
x,-y,z
1/2+x,1/2+y,z
1/2-x,1/2-y,z
1/2+x,1/2-y,-z
1/2-x,1/2+y,-z
1/2-x,1/2-y,-z
1/2+x,1/2+y,-z
1/2-x,1/2+y,z
1/2+x,1/2-y,z
loop_
_atom_site_type_symbol
_atom_site_label
_atom_site_fract_x
_atom_site_fract_y
_atom_site_fract_z
Si Si1 0.337476 0.207546 0.905864
Si Si2 0.161876 0.292132 0.232776
Si Si3 0.330406 0.549958 0.000000
Si Si4 0.168020 0.880489 0.095982
Si Si5 0.337788 0.946668 0.436161
Si Si6 0.332492 0.550845 0.326503
Si Si7 0.833358 0.120950 0.229961
O O1 0.500000 0.207784 0.930719
O O2 0.250000 0.250000 0.931425
O O3 0.340433 0.210516 0.836562
O O4 0.257186 0.162438 0.926031
O O5 0.250000 0.250000 0.258518
O O6 0.240285 0.337429 0.252787
O O7 0.000000 0.291357 0.257836
O O8 0.281911 0.576846 0.942111
O O9 0.260434 0.500000 0.000000
O O10 0.500000 0.544938 0.000000
O O11 0.202252 0.891765 0.163233
O O12 0.000000 0.869688 0.086682
O O13 0.283922 0.929458 0.500000
O O14 0.500000 0.930322 0.425760
O O15 0.241427 0.927354 0.383679
O O16 0.329017 0.000000 0.435532
O O17 0.500000 0.552618 0.338968
O O18 0.279839 0.500000 0.315419
O O19 0.290556 0.578427 0.268989
O O20 0.000000 0.134097 0.236613
#
# Coordination Sequence:
#
# PCOD8275040 Si02
#       7
#    16  16   8  16  16  16  16
#     4   9  16  27  45  68  91 112 135 165 207 261
#     4   9  16  26  42  63  86 112 141 173 211 257
#     4   9  18  32  50  69  84 105 146 193 226 255
#     4   9  17  30  47  65  86 112 143 180 220 260
#     4   8  14  25  40  57  79 110 146 180 214 252
#     4   9  17  27  39  59  87 117 148 180 214 252
#     4   9  17  28  42  62  89 117 143 176 218 260
#
# _framework density 16.361395999999999
#
# number of rings (size 3 to 8) (size 9 to 14) (size 15 to 20)
#    0.000    3.154    0.000    1.385    0.000    5.231 
#    0.000    5.385    0.000    0.923    0.000    4.308 
#    0.000    0.615    0.000    2.000    0.000    2.923 
#
# Total GULP energy -644584.237807 kJ/mol
# GULP energy per Si atom -12395.850727 kJ/mol
# Density = 1.632416 g / cm^3
# Si number density = 16.361396 Si / 1000 Ang^3
#
#
#
# Elastic Constant Matrix: (Units=GPa)
#
#
# Indices 1 2 3 4 5 6 
#
# 1 78.3358 56.8341 38.4474 0.0000 0.0000 0.0000
# 2 56.8341 118.6998 54.7733 0.0000 0.0000 0.0000
# 3 38.4474 54.7733 86.5508 0.0000 0.0000 0.0000
# 4 0.0000 0.0000 0.0000 0.6967 0.0000 0.0000
# 5 0.0000 0.0000 0.0000 0.0000 11.3332 0.0000
# 6 0.0000 0.0000 0.0000 0.0000 0.0000 22.8982
#
#
#
# Elastic Compliance Matrix: (Units=1/GPa)
#
#
# Indices 1 2 3 4 5 6 
#
# 1 0.020540 -0.007944 -0.004097 0.000000 0.000000 0.000000
# 2 -0.007944 0.014972 -0.005946 0.000000 0.000000 0.000000
# 3 -0.004097 -0.005946 0.017137 0.000000 0.000000 0.000000
# 4 0.000000 0.000000 0.000000 1.435270 0.000000 0.000000
# 5 0.000000 0.000000 0.000000 0.000000 0.088236 0.000000
# 6 0.000000 0.000000 0.000000 0.000000 0.000000 0.043672
#
#
# Mechanical properties :
#
#
# Convention : Reuss Voigt Hill
#
# Bulk Modulus (GPa) = 59.97114 64.85510 62.41312
# Shear Modulus (GPa) = 3.00958 15.88772 9.44865
#
# Velocity S-wave (km/s) = 1.35773 3.11955 2.40572
# Velocity P-wave (km/s) = 6.26031 7.25952 6.77835
#
# Compressibility (1/GPa) = 0.01667469
#
# Stress axis : x y z
#
# Youngs Moduli (GPa) = 48.68572 66.79076 58.35419
#
# Poissons Ratio (x) = 0.53060 0.23906
# Poissons Ratio (y) = 0.38677 0.34698
# Poissons Ratio (z) = 0.19945 0.39714
#
# Static dielectric constant tensor:
#      x y z
#    x 3.153900 0.000000 0.000000 
#    y 0.000000 3.066760 0.000000 
#    z 0.000000 0.000000 3.054480 
# 
# 
# High freq. dielectric constant tensor:
#      x y z
#    x 1.625960 0.000000 0.000000 
#    y 0.000000 1.609270 0.000000 
#    z 0.000000 0.000000 1.604720 
# 
# From -- ./inp_files/68552.got.cif
#   From: 2010.03.12/outbox.cif.g09.slc.cpg/sg65_35_cif.got.tgz:68552.got - 2010.04.10 20:52:16.
