data_PCOD8275414
_publ_section_title
;
Structure prediction by ZEFSAII (Michael W. Deem and Ramdas Pophale) SiO2 
 PCOD8275414
Probable space group: C C C M
;
_chemical_formula_sum "Si O2"
_cell_formula_units_Z 80
_cell_length_a 16.224665
_cell_length_b 18.967214
_cell_length_c 13.793504
_cell_angle_alpha 90.000000
_cell_angle_beta 90.000000
_cell_angle_gamma 90.000000
_cell_volume 4244.767308
_symmetry_space_group_name_H-M "C C C M"
_symmetry_group_IT_number 66
_symmetry_cell_setting 'orthorhombic'
loop_
_space_group_symop_operation_xyz
x,y,z
-x,-y,z
x,-y,1/2-z
-x,y,1/2-z
-x,-y,-z
x,y,-z
-x,y,1/2+z
x,-y,1/2+z
1/2+x,1/2+y,z
1/2-x,1/2-y,z
1/2+x,1/2-y,1/2-z
1/2-x,1/2+y,1/2-z
1/2-x,1/2-y,-z
1/2+x,1/2+y,-z
1/2-x,1/2+y,1/2+z
1/2+x,1/2-y,1/2+z
loop_
_atom_site_type_symbol
_atom_site_label
_atom_site_fract_x
_atom_site_fract_y
_atom_site_fract_z
Si Si1 0.274952 0.147989 0.115315
Si Si2 0.031886 0.390958 0.350833
Si Si3 0.621820 0.979229 0.893425
Si Si4 0.875993 0.777712 0.809073
Si Si5 0.445986 0.261203 0.393432
O O1 0.302180 0.068467 0.144521
O O2 0.181988 0.159367 0.152184
O O3 0.335357 0.202243 0.169153
O O4 0.281448 0.160351 0.000000
O O5 0.102796 0.450781 0.328910
O O6 0.063818 0.323334 0.408123
O O7 0.000000 0.359116 0.250000
O O8 0.957887 0.429168 0.406002
O O9 0.642641 0.008977 0.000000
O O10 0.885782 0.787395 0.692445
O O11 0.961406 0.783214 0.866042
O O12 0.423720 0.293759 0.500000
#
# Coordination Sequence:
#
# PCOD8275414 Si02
#       5
#    16  16  16  16  16
#     4  10  18  31  47  64  91 131 177 220 257 299
#     4  11  18  28  42  68 102 134 167 203 244 308
#     4  10  18  26  41  63  90 130 171 207 252 298
#     4  10  19  30  46  68  92 128 178 215 258 305
#     4  11  19  31  47  70 100 132 171 220 260 310
#
# _framework density 18.846734000000001
#
# number of rings (size 3 to 8) (size 9 to 14) (size 15 to 20)
#    0.000    1.600    4.000    6.000    0.000    0.000 
#    0.000    2.000    0.000    0.000    0.000    4.200 
#    0.000    0.000    0.000  129.600    0.800  908.800 
#
# Total GULP energy -495677.249221 kJ/mol
# GULP energy per Si atom -12391.931231 kJ/mol
# Density = 1.880384 g / cm^3
# Si number density = 18.846734 Si / 1000 Ang^3
#
#
#
# Elastic Constant Matrix: (Units=GPa)
#
#
# Indices 1 2 3 4 5 6 
#
# 1 83.8499 33.8543 33.8668 0.0000 0.0000 0.0000
# 2 33.8543 50.9480 7.6449 0.0000 0.0000 0.0000
# 3 33.8668 7.6449 128.8812 0.0000 0.0000 0.0000
# 4 0.0000 0.0000 0.0000 115.0478 0.0000 0.0000
# 5 0.0000 0.0000 0.0000 0.0000 25.7564 0.0000
# 6 0.0000 0.0000 0.0000 0.0000 0.0000 33.7423
#
#
#
# Elastic Compliance Matrix: (Units=1/GPa)
#
#
# Indices 1 2 3 4 5 6 
#
# 1 0.018226 -0.011495 -0.004108 0.000000 0.000000 0.000000
# 2 -0.011495 0.027053 0.001416 0.000000 0.000000 0.000000
# 3 -0.004108 0.001416 0.008754 0.000000 0.000000 0.000000
# 4 0.000000 0.000000 0.000000 0.008692 0.000000 0.000000
# 5 0.000000 0.000000 0.000000 0.000000 0.038825 0.000000
# 6 0.000000 0.000000 0.000000 0.000000 0.000000 0.029636
#
#
# Mechanical properties :
#
#
# Convention : Reuss Voigt Hill
#
# Bulk Modulus (GPa) = 38.96937 46.04566 42.50751
# Shear Modulus (GPa) = 29.74171 47.46351 38.60261
#
# Velocity S-wave (km/s) = 3.97682 5.02380 4.53066
# Velocity P-wave (km/s) = 6.46596 7.62471 7.06912
#
# Compressibility (1/GPa) = 0.02566118
#
# Stress axis : x y z
#
# Youngs Moduli (GPa) = 54.86668 36.96392 114.22751
#
# Poissons Ratio (x) = 0.42488 0.46919
# Poissons Ratio (y) = 0.63067 -0.16172
# Poissons Ratio (z) = 0.22537 -0.05233
#
# Static dielectric constant tensor:
#      x y z
#    x 3.398760 0.000000 0.000000 
#    y 0.000000 3.219480 0.000000 
#    z 0.000000 0.000000 3.603080 
# 
# 
# High freq. dielectric constant tensor:
#      x y z
#    x 1.694700 0.000000 0.000000 
#    y 0.000000 1.689010 0.000000 
#    z 0.000000 0.000000 1.752120 
# 
# From -- ./inp_files/30099.got.cif
#   From: 2010.03.12/outbox.cif.g09.slc.cpg/sg66_16_cif.got.tgz:30099.got - 2010.04.10 21:57:39.
