data_PCOD8275689
_publ_section_title
;
Structure prediction by ZEFSAII (Michael W. Deem and Ramdas Pophale) SiO2 
 PCOD8275689
Probable space group: C C C M
;
_chemical_formula_sum "Si O2"
_cell_formula_units_Z 68
_cell_length_a 22.491583
_cell_length_b 10.834114
_cell_length_c 16.364392
_cell_angle_alpha 90.000000
_cell_angle_beta 90.000000
_cell_angle_gamma 90.000000
_cell_volume 3987.615710
_symmetry_space_group_name_H-M "C C C M"
_symmetry_group_IT_number 66
_symmetry_cell_setting 'orthorhombic'
loop_
_space_group_symop_operation_xyz
x,y,z
-x,-y,z
x,-y,1/2-z
-x,y,1/2-z
-x,-y,-z
x,y,-z
-x,y,1/2+z
x,-y,1/2+z
1/2+x,1/2+y,z
1/2-x,1/2-y,z
1/2+x,1/2-y,1/2-z
1/2-x,1/2+y,1/2-z
1/2-x,1/2-y,-z
1/2+x,1/2+y,-z
1/2-x,1/2+y,1/2+z
1/2+x,1/2-y,1/2+z
loop_
_atom_site_type_symbol
_atom_site_label
_atom_site_fract_x
_atom_site_fract_y
_atom_site_fract_z
Si Si1 0.198705 0.923922 0.832081
Si Si2 0.159933 0.670651 0.500000
Si Si3 0.500000 0.000000 0.250000
Si Si4 0.832486 0.658152 0.688671
Si Si5 0.892613 0.577900 0.155050
Si Si6 0.286156 0.438860 0.000000
O O1 0.157263 0.801243 0.835319
O O2 0.265939 0.881439 0.828589
O O3 0.181463 0.000000 0.750000
O O4 0.190001 0.996222 0.917430
O O5 0.113862 0.654432 0.426494
O O6 0.213978 0.570997 0.500000
O O7 0.186499 0.804736 0.500000
O O8 0.541160 0.912704 0.192849
O O9 0.843977 0.637882 0.784714
O O10 0.877458 0.567703 0.639704
#
# Coordination Sequence:
#
# PCOD8275689 Si02
#       6
#    16   8   4  16  16   8
#     4  11  18  30  45  69 104 144 168 194 241 310
#     4  11  20  32  50  72 113 132 168 209 257 292
#     4   8  20  34  56  72  94 118 184 208 276 298
#     4   9  18  29  47  66 102 135 166 200 245 295
#     4  10  18  36  50  77  95 133 167 226 252 305
#     4  11  22  30  47  81 106 148 170 191 241 335
#
# _framework density 17.052796000000001
#
# number of rings (size 3 to 8) (size 9 to 14) (size 15 to 20)
#    0.000    2.118    4.706    1.412    0.000    7.059 
#    0.000    0.000    0.000    0.000    0.000   59.294 
#    0.000    0.000    0.000    0.000    0.000    0.000 
#
# Total GULP energy -421274.022969 kJ/mol
# GULP energy per Si atom -12390.412440 kJ/mol
# Density = 1.701398 g / cm^3
# Si number density = 17.052796 Si / 1000 Ang^3
#
#
#
# Elastic Constant Matrix: (Units=GPa)
#
#
# Indices 1 2 3 4 5 6 
#
# 1 62.5715 27.9241 27.5169 0.0000 0.0000 0.0000
# 2 27.9241 102.7484 42.5966 0.0000 0.0000 0.0000
# 3 27.5169 42.5966 129.3185 0.0000 0.0000 0.0000
# 4 0.0000 0.0000 0.0000 14.0798 0.0000 0.0000
# 5 0.0000 0.0000 0.0000 0.0000 -19.0520 0.0000
# 6 0.0000 0.0000 0.0000 0.0000 0.0000 11.3941
#
#
#
# Elastic Compliance Matrix: (Units=1/GPa)
#
#
# Indices 1 2 3 4 5 6 
#
# 1 0.018973 -0.004033 -0.002709 0.000000 0.000000 0.000000
# 2 -0.004033 0.012129 -0.003137 0.000000 0.000000 0.000000
# 3 -0.002709 -0.003137 0.009342 0.000000 0.000000 0.000000
# 4 0.000000 0.000000 0.000000 0.071024 0.000000 0.000000
# 5 0.000000 0.000000 0.000000 0.000000 -0.052488 0.000000
# 6 0.000000 0.000000 0.000000 0.000000 0.000000 0.087765
#
#
# Mechanical properties :
#
#
# Convention : Reuss Voigt Hill
#
# Bulk Modulus (GPa) = 48.34045 54.52372 51.43208
# Shear Modulus (GPa) = 28.83534 14.39111 21.61322
#
# Velocity S-wave (km/s) = 4.11657 2.90817 3.56396
# Velocity P-wave (km/s) = 7.14170 6.58176 6.86744
#
# Compressibility (1/GPa) = 0.02068661
#
# Stress axis : x y z
#
# Youngs Moduli (GPa) = 52.70691 82.44568 107.03777
#
# Poissons Ratio (x) = 0.33254 0.28992
# Poissons Ratio (y) = 0.21259 0.33578
# Poissons Ratio (z) = 0.14276 0.25863
#
# Static dielectric constant tensor:
#      x y z
#    x 2.950280 0.000000 0.000000 
#    y 0.000000 3.513280 0.000000 
#    z 0.000000 0.000000 3.271740 
# 
# 
# High freq. dielectric constant tensor:
#      x y z
#    x 1.614130 0.000000 0.000000 
#    y 0.000000 1.656390 0.000000 
#    z 0.000000 0.000000 1.661950 
# 
# From -- ./inp_files/43460.got.cif
#   From: 2010.03.12/outbox.cif.g09.slc.cpg/sg66_22_cif.got.tgz:43460.got - 2010.04.10 21:57:39.
