data_PCOD8275364
_publ_section_title
;
Structure prediction by ZEFSAII (Michael W. Deem and Ramdas Pophale) SiO2 
 PCOD8275364
Probable space group: C C C M
;
_chemical_formula_sum "Si O2"
_cell_formula_units_Z 80
_cell_length_a 22.514797
_cell_length_b 16.513771
_cell_length_c 13.365673
_cell_angle_alpha 90.000000
_cell_angle_beta 90.000000
_cell_angle_gamma 90.000000
_cell_volume 4969.413381
_symmetry_space_group_name_H-M "C C C M"
_symmetry_group_IT_number 66
_symmetry_cell_setting 'orthorhombic'
loop_
_space_group_symop_operation_xyz
x,y,z
-x,-y,z
x,-y,1/2-z
-x,y,1/2-z
-x,-y,-z
x,y,-z
-x,y,1/2+z
x,-y,1/2+z
1/2+x,1/2+y,z
1/2-x,1/2-y,z
1/2+x,1/2-y,1/2-z
1/2-x,1/2+y,1/2-z
1/2-x,1/2-y,-z
1/2+x,1/2+y,-z
1/2-x,1/2+y,1/2+z
1/2+x,1/2-y,1/2+z
loop_
_atom_site_type_symbol
_atom_site_label
_atom_site_fract_x
_atom_site_fract_y
_atom_site_fract_z
Si Si1 0.660119 0.230275 0.618561
Si Si2 0.390545 0.027430 0.612151
Si Si3 0.731527 0.625643 0.808980
Si Si4 0.246028 0.460254 0.387962
Si Si5 0.433704 0.872444 0.720100
O O1 0.655078 0.242282 0.500000
O O2 0.676364 0.314888 0.671772
O O3 0.709510 0.163193 0.642231
O O4 0.596993 0.202222 0.663066
O O5 0.410226 0.046460 0.500000
O O6 0.321203 0.007081 0.621249
O O7 0.400743 0.108489 0.675851
O O8 0.430361 0.952622 0.650866
O O9 0.740389 0.612286 0.689512
O O10 0.715855 0.540102 0.861283
O O11 0.260409 0.429008 0.500000
O O12 0.500000 0.847889 0.750000
#
# Coordination Sequence:
#
# PCOD8275364 Si02
#       5
#    16  16  16  16  16
#     4  11  20  32  49  71  96 128 165 203 245 290
#     4  10  18  31  47  67  96 131 166 195 230 284
#     4  10  18  31  50  73  99 126 162 201 243 294
#     4  10  17  30  51  74 100 129 159 198 243 292
#     4  11  21  32  45  66  96 129 169 208 235 274
#
# _framework density 16.098479999999999
#
# number of rings (size 3 to 8) (size 9 to 14) (size 15 to 20)
#    0.000    1.600    4.000    5.400    0.000    2.400 
#    0.000    3.000    0.000    0.000    0.000    2.800 
#    0.000    8.000    0.000    0.000    0.000    0.000 
#
# Total GULP energy -495905.218001 kJ/mol
# GULP energy per Si atom -12397.630450 kJ/mol
# Density = 1.606184 g / cm^3
# Si number density = 16.098480 Si / 1000 Ang^3
#
#
#
# Elastic Constant Matrix: (Units=GPa)
#
#
# Indices 1 2 3 4 5 6 
#
# 1 61.3023 40.3405 39.9455 0.0000 0.0000 0.0000
# 2 40.3405 70.4222 44.6197 0.0000 0.0000 0.0000
# 3 39.9455 44.6197 155.9049 0.0000 0.0000 0.0000
# 4 0.0000 0.0000 0.0000 21.5678 0.0000 0.0000
# 5 0.0000 0.0000 0.0000 0.0000 13.9248 0.0000
# 6 0.0000 0.0000 0.0000 0.0000 0.0000 18.4708
#
#
#
# Elastic Compliance Matrix: (Units=1/GPa)
#
#
# Indices 1 2 3 4 5 6 
#
# 1 0.027343 -0.013710 -0.003082 0.000000 0.000000 0.000000
# 2 -0.013710 0.024220 -0.003419 0.000000 0.000000 0.000000
# 3 -0.003082 -0.003419 0.008182 0.000000 0.000000 0.000000
# 4 0.000000 0.000000 0.000000 0.046366 0.000000 0.000000
# 5 0.000000 0.000000 0.000000 0.000000 0.071814 0.000000
# 6 0.000000 0.000000 0.000000 0.000000 0.000000 0.054140
#
#
# Mechanical properties :
#
#
# Convention : Reuss Voigt Hill
#
# Bulk Modulus (GPa) = 51.75165 59.71564 55.73365
# Shear Modulus (GPa) = 17.92575 21.64092 19.78333
#
# Velocity S-wave (km/s) = 3.34054 3.67042 3.50936
# Velocity P-wave (km/s) = 6.86263 7.42544 7.14958
#
# Compressibility (1/GPa) = 0.01932305
#
# Stress axis : x y z
#
# Youngs Moduli (GPa) = 36.57232 41.28790 122.21542
#
# Poissons Ratio (x) = 0.56608 0.37665
# Poissons Ratio (y) = 0.50142 0.41784
# Poissons Ratio (z) = 0.11271 0.14116
#
# Static dielectric constant tensor:
#      x y z
#    x 2.801160 0.000000 0.000000 
#    y 0.000000 2.888660 0.000000 
#    z 0.000000 0.000000 3.337390 
# 
# 
# High freq. dielectric constant tensor:
#      x y z
#    x 1.578380 0.000000 0.000000 
#    y 0.000000 1.591550 0.000000 
#    z 0.000000 0.000000 1.640110 
# 
# From -- ./inp_files/28104.got.cif
#   From: 2010.03.12/outbox.cif.g09.slc.cpg/sg66_15_cif.got.tgz:28104.got - 2010.04.10 21:57:39.
