data_PCOD8275637
_publ_section_title
;
Structure prediction by ZEFSAII (Michael W. Deem and Ramdas Pophale) SiO2 
 PCOD8275637
Probable space group: C C C M
;
_chemical_formula_sum "Si O2"
_cell_formula_units_Z 88
_cell_length_a 11.644975
_cell_length_b 20.462759
_cell_length_c 19.486477
_cell_angle_alpha 90.000000
_cell_angle_beta 90.000000
_cell_angle_gamma 90.000000
_cell_volume 4643.399808
_symmetry_space_group_name_H-M "C C C M"
_symmetry_group_IT_number 66
_symmetry_cell_setting 'orthorhombic'
loop_
_space_group_symop_operation_xyz
x,y,z
-x,-y,z
x,-y,1/2-z
-x,y,1/2-z
-x,-y,-z
x,y,-z
-x,y,1/2+z
x,-y,1/2+z
1/2+x,1/2+y,z
1/2-x,1/2-y,z
1/2+x,1/2-y,1/2-z
1/2-x,1/2+y,1/2-z
1/2-x,1/2-y,-z
1/2+x,1/2+y,-z
1/2-x,1/2+y,1/2+z
1/2+x,1/2-y,1/2+z
loop_
_atom_site_type_symbol
_atom_site_label
_atom_site_fract_x
_atom_site_fract_y
_atom_site_fract_z
Si Si1 0.038238 0.930354 0.893647
Si Si2 0.219894 0.463052 0.576551
Si Si3 0.299324 0.610644 0.424418
Si Si4 0.768991 0.825112 0.210589
Si Si5 0.000000 0.114775 0.750000
Si Si6 0.126498 0.565815 0.781479
O O1 0.166696 0.916129 0.921342
O O2 0.938846 0.881424 0.920428
O O3 0.045667 0.930915 0.810997
O O4 0.000000 0.000000 0.922281
O O5 0.164539 0.457133 0.500000
O O6 0.260190 0.536834 0.592491
O O7 0.128548 0.440654 0.634949
O O8 0.257851 0.632151 0.500000
O O9 0.238926 0.657584 0.368677
O O10 0.750000 0.750000 0.227170
O O11 0.901852 0.837960 0.222720
O O12 0.694311 0.869254 0.261567
O O13 0.184837 0.500000 0.750000
O O14 0.000000 0.571806 0.750000
#
# Coordination Sequence:
#
# PCOD8275637 Si02
#       6
#    16  16  16  16   8  16
#     4   9  16  26  51  86 118 143 175 231 294 349
#     4  10  18  33  58  87 116 147 192 245 300 350
#     4   9  18  32  52  84 120 150 186 234 297 355
#     4  11  23  37  58  85 115 154 199 243 295 351
#     4  10  19  32  54  84 109 148 190 238 292 342
#     4  11  23  41  60  84 115 159 201 248 292 348
#
# _framework density 18.951630999999999
#
# number of rings (size 3 to 8) (size 9 to 14) (size 15 to 20)
#    0.000    2.000    3.636    0.818    1.273    2.545 
#    0.000    2.727    0.000    0.545    0.000    0.000 
#    0.000    0.000    0.000    0.000    0.000    0.000 
#
# Total GULP energy -545228.949811 kJ/mol
# GULP energy per Si atom -12391.567041 kJ/mol
# Density = 1.890850 g / cm^3
# Si number density = 18.951631 Si / 1000 Ang^3
#
#
#
# Elastic Constant Matrix: (Units=GPa)
#
#
# Indices 1 2 3 4 5 6 
#
# 1 66.7465 21.4879 37.6352 0.0000 0.0000 0.0000
# 2 21.4879 89.6038 34.7908 0.0000 0.0000 0.0000
# 3 37.6352 34.7908 156.3000 0.0000 0.0000 0.0000
# 4 0.0000 0.0000 0.0000 17.1812 0.0000 0.0000
# 5 0.0000 0.0000 0.0000 0.0000 22.2166 0.0000
# 6 0.0000 0.0000 0.0000 0.0000 0.0000 14.4816
#
#
#
# Elastic Compliance Matrix: (Units=1/GPa)
#
#
# Indices 1 2 3 4 5 6 
#
# 1 0.017991 -0.002881 -0.003691 0.000000 0.000000 0.000000
# 2 -0.002881 0.012677 -0.002128 0.000000 0.000000 0.000000
# 3 -0.003691 -0.002128 0.007760 0.000000 0.000000 0.000000
# 4 0.000000 0.000000 0.000000 0.058203 0.000000 0.000000
# 5 0.000000 0.000000 0.000000 0.000000 0.045011 0.000000
# 6 0.000000 0.000000 0.000000 0.000000 0.000000 0.069053
#
#
# Mechanical properties :
#
#
# Convention : Reuss Voigt Hill
#
# Bulk Modulus (GPa) = 47.55487 55.60869 51.58178
# Shear Modulus (GPa) = 21.26703 25.35830 23.31266
#
# Velocity S-wave (km/s) = 3.35352 3.66191 3.51110
# Velocity P-wave (km/s) = 6.33577 6.87645 6.61164
#
# Compressibility (1/GPa) = 0.02102834
#
# Stress axis : x y z
#
# Youngs Moduli (GPa) = 55.58453 78.87991 128.86132
#
# Poissons Ratio (x) = 0.22728 0.47557
# Poissons Ratio (y) = 0.16016 0.27423
# Poissons Ratio (z) = 0.20514 0.16786
#
# Static dielectric constant tensor:
#      x y z
#    x 3.356180 0.000000 0.000000 
#    y 0.000000 3.026350 0.000000 
#    z 0.000000 0.000000 3.698850 
# 
# 
# High freq. dielectric constant tensor:
#      x y z
#    x 1.720330 0.000000 0.000000 
#    y 0.000000 1.681510 0.000000 
#    z 0.000000 0.000000 1.754020 
# 
# From -- ./inp_files/38651.got.cif
#   From: 2010.03.12/outbox.cif.g09.slc.cpg/sg66_20_cif.got.tgz:38651.got - 2010.04.10 21:57:39.
