data_PCOD8275790
_publ_section_title
;
Structure prediction by ZEFSAII (Michael W. Deem and Ramdas Pophale) SiO2 
 PCOD8275790
Probable space group: C C C M
;
_chemical_formula_sum "Si O2"
_cell_formula_units_Z 112
_cell_length_a 22.330134
_cell_length_b 20.732056
_cell_length_c 15.580122
_cell_angle_alpha 90.000000
_cell_angle_beta 90.000000
_cell_angle_gamma 90.000000
_cell_volume 7212.811070
_symmetry_space_group_name_H-M "C C C M"
_symmetry_group_IT_number 66
_symmetry_cell_setting 'orthorhombic'
loop_
_space_group_symop_operation_xyz
x,y,z
-x,-y,z
x,-y,1/2-z
-x,y,1/2-z
-x,-y,-z
x,y,-z
-x,y,1/2+z
x,-y,1/2+z
1/2+x,1/2+y,z
1/2-x,1/2-y,z
1/2+x,1/2-y,1/2-z
1/2-x,1/2+y,1/2-z
1/2-x,1/2-y,-z
1/2+x,1/2+y,-z
1/2-x,1/2+y,1/2+z
1/2+x,1/2-y,1/2+z
loop_
_atom_site_type_symbol
_atom_site_label
_atom_site_fract_x
_atom_site_fract_y
_atom_site_fract_z
Si Si1 0.119179 0.368955 0.402184
Si Si2 0.278214 0.040917 0.664218
Si Si3 0.245713 0.412978 0.093058
Si Si4 0.380775 0.849853 0.597443
Si Si5 0.344262 0.222459 0.742749
Si Si6 0.503122 0.924560 0.850321
Si Si7 0.218644 0.152849 0.748127
O O1 0.137084 0.351063 0.500000
O O2 0.160496 0.426688 0.367159
O O3 0.124639 0.305798 0.342221
O O4 0.051085 0.391375 0.400163
O O5 0.227343 0.095997 0.678188
O O6 0.292744 0.000000 0.750000
O O7 0.252017 0.990960 0.595244
O O8 0.177592 0.393153 0.113353
O O9 0.291525 0.380632 0.159501
O O10 0.266485 0.389145 0.000000
O O11 0.381352 0.821132 0.500000
O O12 0.381432 0.793151 0.669702
O O13 0.436340 0.897032 0.609979
O O14 0.278726 0.193843 0.752616
O O15 0.337666 0.300144 0.729600
O O16 0.500000 0.908410 0.750000
O O17 0.500000 0.000000 0.868410
#
# Coordination Sequence:
#
# PCOD8275790 Si02
#       7
#    16  16  16  16  16  16  16
#     4  11  21  31  44  61  85 117 150 181 214 250
#     4   9  17  28  44  61  84 115 141 176 217 256
#     4   9  16  26  43  65  86 107 140 179 218 260
#     4  10  19  31  45  62  84 114 148 184 220 251
#     4   9  17  32  43  59  80 110 146 186 214 251
#     4  11  22  31  45  62  86 116 148 185 220 248
#     4   8  16  28  44  57  81 109 142 178 220 252
#
# _framework density 15.527927
#
# number of rings (size 3 to 8) (size 9 to 14) (size 15 to 20)
#    0.000    2.429    1.429    2.571    2.000    2.857 
#    0.000    9.286    0.000    0.000    0.000    0.000 
#    0.000    0.000    0.000   23.143    0.000   44.286 
#
# Total GULP energy -694054.445295 kJ/mol
# GULP energy per Si atom -12393.829380 kJ/mol
# Density = 1.549258 g / cm^3
# Si number density = 15.527927 Si / 1000 Ang^3
#
#
#
# Elastic Constant Matrix: (Units=GPa)
#
#
# Indices 1 2 3 4 5 6 
#
# 1 33.4761 34.3763 24.4201 0.0000 0.0000 0.0000
# 2 34.3763 86.2618 37.8064 0.0000 0.0000 0.0000
# 3 24.4201 37.8064 96.5983 0.0000 0.0000 0.0000
# 4 0.0000 0.0000 0.0000 10.4665 0.0000 0.0000
# 5 0.0000 0.0000 0.0000 0.0000 13.8637 0.0000
# 6 0.0000 0.0000 0.0000 0.0000 0.0000 22.2775
#
#
#
# Elastic Compliance Matrix: (Units=1/GPa)
#
#
# Indices 1 2 3 4 5 6 
#
# 1 0.053523 -0.018588 -0.006256 0.000000 0.000000 0.000000
# 2 -0.018588 0.020448 -0.003304 0.000000 0.000000 0.000000
# 3 -0.006256 -0.003304 0.013227 0.000000 0.000000 0.000000
# 4 0.000000 0.000000 0.000000 0.095543 0.000000 0.000000
# 5 0.000000 0.000000 0.000000 0.000000 0.072131 0.000000
# 6 0.000000 0.000000 0.000000 0.000000 0.000000 0.044888
#
#
# Mechanical properties :
#
#
# Convention : Reuss Voigt Hill
#
# Bulk Modulus (GPa) = 32.35944 45.50463 38.93203
# Shear Modulus (GPa) = 13.64790 17.30376 15.47583
#
# Velocity S-wave (km/s) = 2.96789 3.34183 3.16039
# Velocity P-wave (km/s) = 5.71220 6.65275 6.20033
#
# Compressibility (1/GPa) = 0.03090289
#
# Stress axis : x y z
#
# Youngs Moduli (GPa) = 18.68346 48.90430 75.60463
#
# Poissons Ratio (x) = 0.90903 0.47297
# Poissons Ratio (y) = 0.34729 0.24979
# Poissons Ratio (z) = 0.11688 0.16158
#
# Static dielectric constant tensor:
#      x y z
#    x 2.648060 0.000000 0.000000 
#    y 0.000000 3.242710 0.000000 
#    z 0.000000 0.000000 3.177120 
# 
# 
# High freq. dielectric constant tensor:
#      x y z
#    x 1.543630 0.000000 0.000000 
#    y 0.000000 1.581070 0.000000 
#    z 0.000000 0.000000 1.608990 
# 
# From -- ./inp_files/41990.got.cif
#   From: 2010.03.12/outbox.cif.g09.slc.cpg/sg66_21_cif.got.tgz:41990.got - 2010.04.10 21:57:39.
