data_PCOD8275174
_publ_section_title
;
Structure prediction by ZEFSAII (Michael W. Deem and Ramdas Pophale) SiO2 
 PCOD8275174
Probable space group: C M M M
;
_chemical_formula_sum "Si O2"
_cell_formula_units_Z 88
_cell_length_a 7.726756
_cell_length_b 19.347528
_cell_length_c 29.935094
_cell_angle_alpha 90.000000
_cell_angle_beta 90.000000
_cell_angle_gamma 90.000000
_cell_volume 4475.105808
_symmetry_space_group_name_H-M "C M M M"
_symmetry_group_IT_number 65
_symmetry_cell_setting 'orthorhombic'
loop_
_space_group_symop_operation_xyz
x,y,z
-x,-y,z
x,-y,-z
-x,y,-z
-x,-y,-z
x,y,-z
-x,y,z
x,-y,z
1/2+x,1/2+y,z
1/2-x,1/2-y,z
1/2+x,1/2-y,-z
1/2-x,1/2+y,-z
1/2-x,1/2-y,-z
1/2+x,1/2+y,-z
1/2-x,1/2+y,z
1/2+x,1/2-y,z
loop_
_atom_site_type_symbol
_atom_site_label
_atom_site_fract_x
_atom_site_fract_y
_atom_site_fract_z
Si Si1 0.297553 0.174146 0.304943
Si Si2 0.703782 0.173607 0.206166
Si Si3 0.300568 0.918977 0.614706
Si Si4 0.703633 0.173714 0.950428
Si Si5 0.793165 0.421983 0.872152
Si Si6 0.000000 0.081816 0.450341
O O1 0.500000 0.166389 0.300203
O O2 0.250000 0.250000 0.322902
O O3 0.214200 0.161528 0.255718
O O4 0.231066 0.118187 0.340532
O O5 0.500000 0.165239 0.208383
O O6 0.750000 0.250000 0.188720
O O7 0.779721 0.117261 0.171727
O O8 0.500000 0.899112 0.603036
O O9 0.175422 0.894108 0.574693
O O10 0.282590 0.000000 0.623522
O O11 0.500000 0.165424 0.952804
O O12 0.750000 0.250000 0.932814
O O13 0.779516 0.117245 0.916049
O O14 0.784059 0.161686 0.000000
O O15 0.721224 0.500000 0.872148
O O16 0.000000 0.421212 0.872152
O O17 0.000000 0.114602 0.500000
O O18 0.000000 0.000000 0.453724
#
# Coordination Sequence:
#
# PCOD8275174 Si02
#       6
#    16  16  16  16  16   8
#     4   9  18  30  47  72  95 125 161 196 243 291
#     4   9  17  30  47  67  91 119 157 194 230 283
#     4   9  18  32  50  75 103 131 168 211 253 298
#     4   9  17  29  46  67  89 116 154 196 237 284
#     4   9  17  28  44  67  92 120 153 192 241 286
#     4   9  18  32  52  78 104 134 171 209 254 302
#
# _framework density 19.664338999999998
#
# number of rings (size 3 to 8) (size 9 to 14) (size 15 to 20)
#    0.000    3.000    0.000    0.545    1.273    1.455 
#    0.000    7.273    0.000    2.727    0.000    2.545 
#    0.000    0.000    0.000    0.000    0.000    0.000 
#
# Total GULP energy -545361.154436 kJ/mol
# GULP energy per Si atom -12394.571692 kJ/mol
# Density = 1.961958 g / cm^3
# Si number density = 19.664339 Si / 1000 Ang^3
#
#
#
# Elastic Constant Matrix: (Units=GPa)
#
#
# Indices 1 2 3 4 5 6 
#
# 1 39.2806 17.8187 34.7801 0.0000 0.0000 0.0000
# 2 17.8187 128.5113 95.2321 0.0000 0.0000 0.0000
# 3 34.7801 95.2321 167.9300 0.0000 0.0000 0.0000
# 4 0.0000 0.0000 0.0000 38.6761 0.0000 0.0000
# 5 0.0000 0.0000 0.0000 0.0000 9.5908 0.0000
# 6 0.0000 0.0000 0.0000 0.0000 0.0000 20.7403
#
#
#
# Elastic Compliance Matrix: (Units=1/GPa)
#
#
# Indices 1 2 3 4 5 6 
#
# 1 0.031222 0.000798 -0.006919 0.000000 0.000000 0.000000
# 2 0.000798 0.013442 -0.007788 0.000000 0.000000 0.000000
# 3 -0.006919 -0.007788 0.011805 0.000000 0.000000 0.000000
# 4 0.000000 0.000000 0.000000 0.025856 0.000000 0.000000
# 5 0.000000 0.000000 0.000000 0.000000 0.104266 0.000000
# 6 0.000000 0.000000 0.000000 0.000000 0.000000 0.048215
#
#
# Mechanical properties :
#
#
# Convention : Reuss Voigt Hill
#
# Bulk Modulus (GPa) = 34.90336 70.15376 52.52856
# Shear Modulus (GPa) = 18.37056 26.32752 22.34904
#
# Velocity S-wave (km/s) = 3.05980 3.66299 3.37490
# Velocity P-wave (km/s) = 5.50193 7.32415 6.47744
#
# Compressibility (1/GPa) = 0.02865053
#
# Stress axis : x y z
#
# Youngs Moduli (GPa) = 32.02859 74.39268 84.71279
#
# Poissons Ratio (x) = -0.05939 0.58614
# Poissons Ratio (y) = -0.02557 0.65977
# Poissons Ratio (z) = 0.22161 0.57939
#
# Static dielectric constant tensor:
#      x y z
#    x 3.351400 0.000000 0.000000 
#    y 0.000000 3.505290 0.000000 
#    z 0.000000 0.000000 4.164330 
# 
# 
# High freq. dielectric constant tensor:
#      x y z
#    x 1.747080 0.000000 0.000000 
#    y 0.000000 1.747040 0.000000 
#    z 0.000000 0.000000 1.769410 
# 
# From -- ./inp_files/76630.got.cif
#   From: 2010.03.12/outbox.cif.g09.slc.cpg/sg65_39_cif.got.tgz:76630.got - 2010.04.10 20:52:16.
