data_PCOD8275908
_publ_section_title
;
Structure prediction by ZEFSAII (Michael W. Deem and Ramdas Pophale) SiO2 
 PCOD8275908
Probable space group: C C C M
;
_chemical_formula_sum "Si O2"
_cell_formula_units_Z 96
_cell_length_a 21.045855
_cell_length_b 9.920509
_cell_length_c 24.252471
_cell_angle_alpha 90.000000
_cell_angle_beta 90.000000
_cell_angle_gamma 90.000000
_cell_volume 5063.566562
_symmetry_space_group_name_H-M "C C C M"
_symmetry_group_IT_number 66
_symmetry_cell_setting 'orthorhombic'
loop_
_space_group_symop_operation_xyz
x,y,z
-x,-y,z
x,-y,1/2-z
-x,y,1/2-z
-x,-y,-z
x,y,-z
-x,y,1/2+z
x,-y,1/2+z
1/2+x,1/2+y,z
1/2-x,1/2-y,z
1/2+x,1/2-y,1/2-z
1/2-x,1/2+y,1/2-z
1/2-x,1/2-y,-z
1/2+x,1/2+y,-z
1/2-x,1/2+y,1/2+z
1/2+x,1/2-y,1/2+z
loop_
_atom_site_type_symbol
_atom_site_label
_atom_site_fract_x
_atom_site_fract_y
_atom_site_fract_z
Si Si1 0.208722 0.441490 0.604496
Si Si2 0.831977 0.966153 0.939278
Si Si3 0.210815 0.124520 0.710093
Si Si4 0.634278 0.819234 0.936365
Si Si5 0.121345 0.206167 0.378538
Si Si6 0.991578 0.342964 0.936939
O O1 0.260980 0.473826 0.558326
O O2 0.245379 0.439756 0.662518
O O3 0.154475 0.556889 0.602835
O O4 0.175934 0.297972 0.592767
O O5 0.880183 0.058629 0.905144
O O6 0.828163 0.813730 0.916050
O O7 0.861056 0.958739 0.000000
O O8 0.250000 0.250000 0.737723
O O9 0.143726 0.184168 0.685334
O O10 0.195027 0.000000 0.750000
O O11 0.560661 0.779117 0.929179
O O12 0.648740 0.858521 0.000000
O O13 0.053809 0.276992 0.390089
O O14 0.000000 0.500000 0.924984
O O15 0.965716 0.320314 0.000000
#
# Coordination Sequence:
#
# PCOD8275908 Si02
#       6
#    16  16  16  16  16  16
#     4  10  19  33  52  77 105 138 180 220 269 330
#     4  10  20  30  45  74 111 145 177 221 265 307
#     4   9  20  36  56  82 106 130 170 231 293 341
#     4  10  20  32  48  77 115 154 188 215 254 312
#     4  10  20  34  52  78 107 140 185 223 264 326
#     4  10  19  32  53  78 112 158 194 219 252 314
#
# _framework density 18.958967999999999
#
# number of rings (size 3 to 8) (size 9 to 14) (size 15 to 20)
#    0.000    2.167    1.667    3.000    0.000    7.333 
#    0.000    2.500    0.000    0.000    0.000   37.333 
#    0.000    0.000    0.000    0.000    0.000    0.000 
#
# Total GULP energy -594702.173334 kJ/mol
# GULP energy per Si atom -12389.628611 kJ/mol
# Density = 1.891582 g / cm^3
# Si number density = 18.958968 Si / 1000 Ang^3
#
#
#
# Elastic Constant Matrix: (Units=GPa)
#
#
# Indices 1 2 3 4 5 6 
#
# 1 75.6215 24.3529 25.9370 0.0000 0.0000 0.0000
# 2 24.3529 103.6125 37.0882 0.0000 0.0000 0.0000
# 3 25.9370 37.0882 47.3272 0.0000 0.0000 0.0000
# 4 0.0000 0.0000 0.0000 34.7256 0.0000 0.0000
# 5 0.0000 0.0000 0.0000 0.0000 19.7821 0.0000
# 6 0.0000 0.0000 0.0000 0.0000 0.0000 29.9668
#
#
#
# Elastic Compliance Matrix: (Units=1/GPa)
#
#
# Indices 1 2 3 4 5 6 
#
# 1 0.016343 -0.000883 -0.008265 0.000000 0.000000 0.000000
# 2 -0.000883 0.013462 -0.010066 0.000000 0.000000 0.000000
# 3 -0.008265 -0.010066 0.033547 0.000000 0.000000 0.000000
# 4 0.000000 0.000000 0.000000 0.028797 0.000000 0.000000
# 5 0.000000 0.000000 0.000000 0.000000 0.050551 0.000000
# 6 0.000000 0.000000 0.000000 0.000000 0.000000 0.033370
#
#
# Mechanical properties :
#
#
# Convention : Reuss Voigt Hill
#
# Bulk Modulus (GPa) = 40.11995 44.59082 42.35539
# Shear Modulus (GPa) = 22.44126 26.17375 24.30751
#
# Velocity S-wave (km/s) = 3.44419 3.71960 3.58454
# Velocity P-wave (km/s) = 6.08474 6.48213 6.28657
#
# Compressibility (1/GPa) = 0.02492525
#
# Stress axis : x y z
#
# Youngs Moduli (GPa) = 61.18949 74.28405 29.80922
#
# Poissons Ratio (x) = 0.06558 0.24636
# Poissons Ratio (y) = 0.05402 0.30005
# Poissons Ratio (z) = 0.50570 0.74771
#
# Static dielectric constant tensor:
#      x y z
#    x 3.554630 0.000000 0.000000 
#    y 0.000000 3.698440 0.000000 
#    z 0.000000 0.000000 3.075210 
# 
# 
# High freq. dielectric constant tensor:
#      x y z
#    x 1.725770 0.000000 0.000000 
#    y 0.000000 1.758610 0.000000 
#    z 0.000000 0.000000 1.683680 
# 
# From -- ./inp_files/62573.got.cif
#   From: 2010.03.12/outbox.cif.g09.slc.cpg/sg66_32_cif.got.tgz:62573.got - 2010.04.10 21:57:39.
