data_PCOD8275239
_publ_section_title
;
Structure prediction by ZEFSAII (Michael W. Deem and Ramdas Pophale) SiO2 
 PCOD8275239
Probable space group: C C C M
;
_chemical_formula_sum "Si O2"
_cell_formula_units_Z 88
_cell_length_a 18.133005
_cell_length_b 17.342642
_cell_length_c 18.516077
_cell_angle_alpha 90.000000
_cell_angle_beta 90.000000
_cell_angle_gamma 90.000000
_cell_volume 5822.828763
_symmetry_space_group_name_H-M "C C C M"
_symmetry_group_IT_number 66
_symmetry_cell_setting 'orthorhombic'
loop_
_space_group_symop_operation_xyz
x,y,z
-x,-y,z
x,-y,1/2-z
-x,y,1/2-z
-x,-y,-z
x,y,-z
-x,y,1/2+z
x,-y,1/2+z
1/2+x,1/2+y,z
1/2-x,1/2-y,z
1/2+x,1/2-y,1/2-z
1/2-x,1/2+y,1/2-z
1/2-x,1/2-y,-z
1/2+x,1/2+y,-z
1/2-x,1/2+y,1/2+z
1/2+x,1/2-y,1/2+z
loop_
_atom_site_type_symbol
_atom_site_label
_atom_site_fract_x
_atom_site_fract_y
_atom_site_fract_z
Si Si1 0.752737 0.130140 0.655455
Si Si2 0.263510 0.844115 0.500000
Si Si3 0.374618 0.748619 0.654702
Si Si4 0.192316 0.500000 0.250000
Si Si5 0.540205 0.919117 0.500000
Si Si6 0.584037 0.793229 0.000000
Si Si7 0.500000 0.804655 0.750000
Si Si8 0.435692 0.064471 0.656035
O O1 0.769028 0.113788 0.570511
O O2 0.674872 0.174520 0.660021
O O3 0.823635 0.178161 0.680678
O O4 0.746654 0.055138 0.705050
O O5 0.250000 0.750000 0.500000
O O6 0.351265 0.856763 0.500000
O O7 0.407565 0.740841 0.572885
O O8 0.439306 0.750559 0.713242
O O9 0.140198 0.456270 0.305858
O O10 0.489812 0.842907 0.500000
O O11 0.587581 0.918870 0.573293
O O12 0.500000 0.000000 0.500000
O O13 0.533660 0.856552 0.687134
O O14 0.500000 0.000000 0.665001
#
# Coordination Sequence:
#
# PCOD8275239 Si02
#       8
#    16   8  16   8   8   8   8  16
#     4  10  19  31  46  70  97 131 165 201 246 290
#     4  10  16  28  48  68  92 123 162 212 238 279
#     4  10  18  30  47  69  94 126 166 204 241 282
#     4  12  21  30  46  65 104 138 156 192 246 303
#     4  10  22  26  38  64 101 137 156 184 229 299
#     4  10  16  28  42  64  96 128 159 203 239 275
#     4  12  17  28  48  67  96 122 154 200 238 291
#     4  11  19  29  40  66  98 130 156 181 237 298
#
# _framework density 15.11293
#
# number of rings (size 3 to 8) (size 9 to 14) (size 15 to 20)
#    0.000    1.455    9.091    0.000    7.636    0.000 
#    0.000    0.000    0.000    0.545    0.000    6.364 
#    0.000    2.909    0.000    0.000    0.000    0.000 
#
# Total GULP energy -545185.064079 kJ/mol
# GULP energy per Si atom -12390.569638 kJ/mol
# Density = 1.507853 g / cm^3
# Si number density = 15.112930 Si / 1000 Ang^3
#
#
#
# Elastic Constant Matrix: (Units=GPa)
#
#
# Indices 1 2 3 4 5 6 
#
# 1 64.2429 30.3527 45.0462 0.0000 0.0000 0.0000
# 2 30.3527 51.3642 40.5217 0.0000 0.0000 0.0000
# 3 45.0462 40.5217 131.5077 0.0000 0.0000 0.0000
# 4 0.0000 0.0000 0.0000 18.3392 0.0000 0.0000
# 5 0.0000 0.0000 0.0000 0.0000 11.6669 0.0000
# 6 0.0000 0.0000 0.0000 0.0000 0.0000 17.3751
#
#
#
# Elastic Compliance Matrix: (Units=1/GPa)
#
#
# Indices 1 2 3 4 5 6 
#
# 1 0.023904 -0.010128 -0.005067 0.000000 0.000000 0.000000
# 2 -0.010128 0.030013 -0.005779 0.000000 0.000000 0.000000
# 3 -0.005067 -0.005779 0.011120 0.000000 0.000000 0.000000
# 4 0.000000 0.000000 0.000000 0.054528 0.000000 0.000000
# 5 0.000000 0.000000 0.000000 0.000000 0.085712 0.000000
# 6 0.000000 0.000000 0.000000 0.000000 0.000000 0.057554
#
#
# Mechanical properties :
#
#
# Convention : Reuss Voigt Hill
#
# Bulk Modulus (GPa) = 43.31013 53.21734 48.26373
# Shear Modulus (GPa) = 16.00125 18.22253 17.11189
#
# Velocity S-wave (km/s) = 3.25742 3.47617 3.36857
# Velocity P-wave (km/s) = 6.54733 7.16946 6.86545
#
# Compressibility (1/GPa) = 0.02308929
#
# Stress axis : x y z
#
# Youngs Moduli (GPa) = 41.83361 33.31929 89.92476
#
# Poissons Ratio (x) = 0.33746 0.45567
# Poissons Ratio (y) = 0.42370 0.51964
# Poissons Ratio (z) = 0.21198 0.19254
#
# Static dielectric constant tensor:
#      x y z
#    x 2.631230 0.000000 0.000000 
#    y 0.000000 2.588180 0.000000 
#    z 0.000000 0.000000 3.355520 
# 
# 
# High freq. dielectric constant tensor:
#      x y z
#    x 1.549230 0.000000 0.000000 
#    y 0.000000 1.532590 0.000000 
#    z 0.000000 0.000000 1.599970 
# 
# From -- ./inp_files/51096.got.cif
#   From: 2010.03.12/outbox.cif.g09.slc.cpg/sg66_26_cif.got.tgz:51096.got - 2010.04.10 21:57:39.
