data_PCOD8275955
_publ_section_title
;
Structure prediction by ZEFSAII (Michael W. Deem and Ramdas Pophale) SiO2 
 PCOD8275955
Probable space group: C C C M
;
_chemical_formula_sum "Si O2"
_cell_formula_units_Z 116
_cell_length_a 24.777180
_cell_length_b 18.225040
_cell_length_c 13.554514
_cell_angle_alpha 90.000000
_cell_angle_beta 90.000000
_cell_angle_gamma 90.000000
_cell_volume 6120.745424
_symmetry_space_group_name_H-M "C C C M"
_symmetry_group_IT_number 66
_symmetry_cell_setting 'orthorhombic'
loop_
_space_group_symop_operation_xyz
x,y,z
-x,-y,z
x,-y,1/2-z
-x,y,1/2-z
-x,-y,-z
x,y,-z
-x,y,1/2+z
x,-y,1/2+z
1/2+x,1/2+y,z
1/2-x,1/2-y,z
1/2+x,1/2-y,1/2-z
1/2-x,1/2+y,1/2-z
1/2-x,1/2-y,-z
1/2+x,1/2+y,-z
1/2-x,1/2+y,1/2+z
1/2+x,1/2-y,1/2+z
loop_
_atom_site_type_symbol
_atom_site_label
_atom_site_fract_x
_atom_site_fract_y
_atom_site_fract_z
Si Si1 0.223754 0.055531 0.114396
Si Si2 0.062512 0.106563 0.387224
Si Si3 0.909061 0.707144 0.783745
Si Si4 0.748951 0.612395 0.613580
Si Si5 0.000000 0.000000 0.250000
Si Si6 0.483483 0.236850 0.390541
Si Si7 0.170057 0.581544 0.733348
Si Si8 0.159792 0.846255 0.241167
O O1 0.281222 0.083454 0.154852
O O2 0.174761 0.096132 0.171670
O O3 0.220944 0.967711 0.129616
O O4 0.219233 0.076766 0.000000
O O5 0.071247 0.080997 0.500000
O O6 0.022705 0.175852 0.381405
O O7 0.119867 0.121061 0.339501
O O8 0.037113 0.043972 0.323072
O O9 0.939487 0.698737 0.679262
O O10 0.878314 0.631674 0.806454
O O11 0.865266 0.772683 0.787750
O O12 0.954556 0.719036 0.866096
O O13 0.753528 0.635354 0.500000
O O14 0.808653 0.611784 0.660865
O O15 0.713002 0.670827 0.675014
O O16 0.470838 0.208526 0.500000
O O17 0.146948 0.500000 0.750000
#
# Coordination Sequence:
#
# PCOD8275955 Si02
#       8
#    16  16  16  16   4  16  16  16
#     4   9  19  34  51  76 112 148 177 213 262 316
#     4  10  21  36  52  73 105 143 179 221 269 312
#     4  10  20  35  57  80  99 136 177 221 268 319
#     4   9  18  33  51  74 109 146 175 209 259 313
#     4  12  22  32  52  78 108 136 184 240 260 300
#     4   9  20  40  56  72 104 139 172 216 272 322
#     4   9  19  36  56  77 107 137 170 212 270 331
#     4  10  19  33  51  76 105 139 182 224 256 310
#
# _framework density 18.95194
#
# number of rings (size 3 to 8) (size 9 to 14) (size 15 to 20)
#    0.000    2.483    0.000    3.517    1.931    4.414 
#    0.000    3.448    0.000    0.828    0.000    0.000 
#    0.000    0.000    0.000    0.000    0.000    0.000 
#
# Total GULP energy -719004.683736 kJ/mol
# GULP energy per Si atom -12396.632478 kJ/mol
# Density = 1.890880 g / cm^3
# Si number density = 18.951940 Si / 1000 Ang^3
#
#
#
# Elastic Constant Matrix: (Units=GPa)
#
#
# Indices 1 2 3 4 5 6 
#
# 1 83.6432 43.4365 23.7962 0.0000 0.0000 0.0000
# 2 43.4365 53.1830 14.2206 0.0000 0.0000 0.0000
# 3 23.7962 14.2206 104.3639 0.0000 0.0000 0.0000
# 4 0.0000 0.0000 0.0000 17.8843 0.0000 0.0000
# 5 0.0000 0.0000 0.0000 0.0000 19.1119 0.0000
# 6 0.0000 0.0000 0.0000 0.0000 0.0000 31.2087
#
#
#
# Elastic Compliance Matrix: (Units=1/GPa)
#
#
# Indices 1 2 3 4 5 6 
#
# 1 0.021417 -0.016799 -0.002594 0.000000 0.000000 0.000000
# 2 -0.016799 0.032690 -0.000624 0.000000 0.000000 0.000000
# 3 -0.002594 -0.000624 0.010258 0.000000 0.000000 0.000000
# 4 0.000000 0.000000 0.000000 0.055915 0.000000 0.000000
# 5 0.000000 0.000000 0.000000 0.000000 0.052323 0.000000
# 6 0.000000 0.000000 0.000000 0.000000 0.000000 0.032042
#
#
# Mechanical properties :
#
#
# Convention : Reuss Voigt Hill
#
# Bulk Modulus (GPa) = 41.09891 44.89963 42.99927
# Shear Modulus (GPa) = 19.77921 24.29010 22.03465
#
# Velocity S-wave (km/s) = 3.23406 3.58392 3.41348
# Velocity P-wave (km/s) = 5.97315 6.39287 6.18657
#
# Compressibility (1/GPa) = 0.02433155
#
# Stress axis : x y z
#
# Youngs Moduli (GPa) = 46.69135 30.59054 97.48062
#
# Poissons Ratio (x) = 0.51388 0.25291
# Poissons Ratio (y) = 0.78435 0.06083
# Poissons Ratio (z) = 0.12114 0.01909
#
# Static dielectric constant tensor:
#      x y z
#    x 3.341120 0.000000 0.000000 
#    y 0.000000 3.235680 0.000000 
#    z 0.000000 0.000000 3.679540 
# 
# 
# High freq. dielectric constant tensor:
#      x y z
#    x 1.732240 0.000000 0.000000 
#    y 0.000000 1.711860 0.000000 
#    z 0.000000 0.000000 1.744660 
# 
# From -- ./inp_files/32655.got.cif
#   From: 2010.03.12/outbox.cif.g09.slc.cpg/sg66_17_cif.got.tgz:32655.got - 2010.04.10 21:57:39.
