data_PCOD8275369
_publ_section_title
;
Structure prediction by ZEFSAII (Michael W. Deem and Ramdas Pophale) SiO2 
 PCOD8275369
Probable space group: C C C M
;
_chemical_formula_sum "Si O2"
_cell_formula_units_Z 96
_cell_length_a 20.338367
_cell_length_b 18.489132
_cell_length_c 13.428339
_cell_angle_alpha 90.000000
_cell_angle_beta 90.000000
_cell_angle_gamma 90.000000
_cell_volume 5049.575841
_symmetry_space_group_name_H-M "C C C M"
_symmetry_group_IT_number 66
_symmetry_cell_setting 'orthorhombic'
loop_
_space_group_symop_operation_xyz
x,y,z
-x,-y,z
x,-y,1/2-z
-x,y,1/2-z
-x,-y,-z
x,y,-z
-x,y,1/2+z
x,-y,1/2+z
1/2+x,1/2+y,z
1/2-x,1/2-y,z
1/2+x,1/2-y,1/2-z
1/2-x,1/2+y,1/2-z
1/2-x,1/2-y,-z
1/2+x,1/2+y,-z
1/2-x,1/2+y,1/2+z
1/2+x,1/2-y,1/2+z
loop_
_atom_site_type_symbol
_atom_site_label
_atom_site_fract_x
_atom_site_fract_y
_atom_site_fract_z
Si Si1 0.415621 0.152926 0.891098
Si Si2 0.440103 0.846323 0.115736
Si Si3 0.913539 0.810774 0.322285
Si Si4 0.728876 0.330008 0.113200
Si Si5 0.667189 0.917400 0.724819
Si Si6 0.443903 0.678894 0.607733
O O1 0.487492 0.124363 0.854922
O O2 0.357048 0.126442 0.821263
O O3 0.424036 0.238220 0.898515
O O4 0.398742 0.121510 0.000000
O O5 0.417803 0.777205 0.183069
O O6 0.388098 0.909753 0.138643
O O7 0.437413 0.823288 0.000000
O O8 0.849542 0.838253 0.379450
O O9 0.910394 0.847272 0.210969
O O10 0.978041 0.835487 0.382167
O O11 0.750000 0.250000 0.146245
O O12 0.763651 0.386045 0.186959
O O13 0.750958 0.345381 0.000000
O O14 0.679132 0.000000 0.750000
O O15 0.422193 0.643110 0.500000
#
# Coordination Sequence:
#
# PCOD8275369 Si02
#       6
#    16  16  16  16  16  16
#     4   9  18  32  49  69 100 142 182 217 261 315
#     4  10  18  32  53  75  99 136 186 233 269 308
#     4  10  17  30  53  81 110 136 176 232 277 313
#     4  11  21  35  57  80 103 140 191 238 273 313
#     4  12  24  35  48  73 111 148 181 220 271 324
#     4   9  16  28  51  81 110 137 169 218 280 336
#
# _framework density 19.011499000000001
#
# number of rings (size 3 to 8) (size 9 to 14) (size 15 to 20)
#    0.000    1.833    3.333    3.500    0.000    2.667 
#    0.000    2.500    0.000    3.000    0.000    2.333 
#    0.000    6.667    0.000    0.000    0.000    0.000 
#
# Total GULP energy -594691.977887 kJ/mol
# GULP energy per Si atom -12389.416206 kJ/mol
# Density = 1.896823 g / cm^3
# Si number density = 19.011499 Si / 1000 Ang^3
#
#
#
# Elastic Constant Matrix: (Units=GPa)
#
#
# Indices 1 2 3 4 5 6 
#
# 1 87.6145 25.5931 19.5451 0.0000 0.0000 0.0000
# 2 25.5931 28.8057 12.3971 0.0000 0.0000 0.0000
# 3 19.5451 12.3971 113.3600 0.0000 0.0000 0.0000
# 4 0.0000 0.0000 0.0000 6.4044 0.0000 0.0000
# 5 0.0000 0.0000 0.0000 0.0000 30.1997 0.0000
# 6 0.0000 0.0000 0.0000 0.0000 0.0000 15.5536
#
#
#
# Elastic Compliance Matrix: (Units=1/GPa)
#
#
# Indices 1 2 3 4 5 6 
#
# 1 0.015576 -0.013309 -0.001230 0.000000 0.000000 0.000000
# 2 -0.013309 0.047803 -0.002933 0.000000 0.000000 0.000000
# 3 -0.001230 -0.002933 0.009354 0.000000 0.000000 0.000000
# 4 0.000000 0.000000 0.000000 0.156141 0.000000 0.000000
# 5 0.000000 0.000000 0.000000 0.000000 0.033113 0.000000
# 6 0.000000 0.000000 0.000000 0.000000 0.000000 0.064294
#
#
# Mechanical properties :
#
#
# Convention : Reuss Voigt Hill
#
# Bulk Modulus (GPa) = 26.46338 38.31676 32.39007
# Shear Modulus (GPa) = 13.37535 21.91452 17.64494
#
# Velocity S-wave (km/s) = 2.65531 3.39882 3.04981
# Velocity P-wave (km/s) = 4.83227 5.96665 5.42917
#
# Compressibility (1/GPa) = 0.03778807
#
# Stress axis : x y z
#
# Youngs Moduli (GPa) = 64.20198 20.91933 106.90293
#
# Poissons Ratio (x) = 0.27842 0.13149
# Poissons Ratio (y) = 0.85449 0.31354
# Poissons Ratio (z) = 0.07897 0.06136
#
# Static dielectric constant tensor:
#      x y z
#    x 3.424890 0.000000 0.000000 
#    y 0.000000 2.829580 0.000000 
#    z 0.000000 0.000000 4.393260 
# 
# 
# High freq. dielectric constant tensor:
#      x y z
#    x 1.726930 0.000000 0.000000 
#    y 0.000000 1.658890 0.000000 
#    z 0.000000 0.000000 1.766790 
# 
# From -- ./inp_files/31181.got.cif
#   From: 2010.03.12/outbox.cif.g09.slc.cpg/sg66_16_cif.got.tgz:31181.got - 2010.04.10 21:57:39.
