data_PCOD8275456
_publ_section_title
;
Structure prediction by ZEFSAII (Michael W. Deem and Ramdas Pophale) SiO2 
 PCOD8275456
Probable space group: C C C M
;
_chemical_formula_sum "Si O2"
_cell_formula_units_Z 112
_cell_length_a 17.421474
_cell_length_b 22.596081
_cell_length_c 17.983492
_cell_angle_alpha 90.000000
_cell_angle_beta 90.000000
_cell_angle_gamma 90.000000
_cell_volume 7079.328187
_symmetry_space_group_name_H-M "C C C M"
_symmetry_group_IT_number 66
_symmetry_cell_setting 'orthorhombic'
loop_
_space_group_symop_operation_xyz
x,y,z
-x,-y,z
x,-y,1/2-z
-x,y,1/2-z
-x,-y,-z
x,y,-z
-x,y,1/2+z
x,-y,1/2+z
1/2+x,1/2+y,z
1/2-x,1/2-y,z
1/2+x,1/2-y,1/2-z
1/2-x,1/2+y,1/2-z
1/2-x,1/2-y,-z
1/2+x,1/2+y,-z
1/2-x,1/2+y,1/2+z
1/2+x,1/2-y,1/2+z
loop_
_atom_site_type_symbol
_atom_site_label
_atom_site_fract_x
_atom_site_fract_y
_atom_site_fract_z
Si Si1 0.523680 0.932046 0.828372
Si Si2 0.681722 0.018764 0.334341
Si Si3 0.665334 0.463560 0.587889
Si Si4 0.983131 0.066486 0.663397
Si Si5 0.874867 0.099213 0.914066
Si Si6 0.243597 0.684169 0.911805
Si Si7 0.115780 0.404011 0.586699
O O1 0.500000 0.902869 0.750000
O O2 0.615399 0.930531 0.839122
O O3 0.474097 0.897555 0.890873
O O4 0.500000 0.000000 0.828813
O O5 0.752477 0.050311 0.375700
O O6 0.701538 0.000000 0.250000
O O7 0.655801 0.959823 0.375836
O O8 0.662668 0.447778 0.500000
O O9 0.603880 0.423155 0.634067
O O10 0.652850 0.532934 0.601835
O O11 0.000000 0.075130 0.750000
O O12 0.042029 0.110629 0.622577
O O13 0.000000 0.000000 0.637343
O O14 0.812641 0.144086 0.879018
O O15 0.884929 0.112012 0.000000
O O16 0.250000 0.750000 0.877498
O O17 0.161833 0.655235 0.889813
O O18 0.251708 0.686566 0.000000
O O19 0.121724 0.415285 0.500000
#
# Coordination Sequence:
#
# PCOD8275456 Si02
#       7
#    16  16  16  16  16  16  16
#     4   9  16  30  40  62  91 123 153 181 221 278
#     4  11  19  27  44  64  95 124 156 182 221 277
#     4  10  19  28  41  63  92 121 154 185 214 264
#     4   9  18  28  41  62  88 120 150 175 217 271
#     4   9  16  28  43  59  85 116 143 179 224 263
#     4   9  17  29  46  69  90 111 148 193 233 271
#     4  10  18  29  46  65  90 123 155 190 230 275
#
# _framework density 15.82071
#
# number of rings (size 3 to 8) (size 9 to 14) (size 15 to 20)
#    0.000    2.429    4.286    0.857    4.000    4.857 
#    0.000    0.000    0.000    0.857    0.000    0.000 
#    0.000    0.000    0.000    8.571    0.000    0.571 
#
# Total GULP energy -693906.342680 kJ/mol
# GULP energy per Si atom -12391.184691 kJ/mol
# Density = 1.578470 g / cm^3
# Si number density = 15.820710 Si / 1000 Ang^3
#
#
#
# Elastic Constant Matrix: (Units=GPa)
#
#
# Indices 1 2 3 4 5 6 
#
# 1 146.1729 33.6977 55.1562 0.0000 0.0000 0.0000
# 2 33.6977 42.3192 26.0477 0.0000 0.0000 0.0000
# 3 55.1562 26.0477 78.7265 0.0000 0.0000 0.0000
# 4 0.0000 0.0000 0.0000 5.1138 0.0000 0.0000
# 5 0.0000 0.0000 0.0000 0.0000 30.4348 0.0000
# 6 0.0000 0.0000 0.0000 0.0000 0.0000 13.2363
#
#
#
# Elastic Compliance Matrix: (Units=1/GPa)
#
#
# Indices 1 2 3 4 5 6 
#
# 1 0.009955 -0.004564 -0.005465 0.000000 0.000000 0.000000
# 2 -0.004564 0.031765 -0.007313 0.000000 0.000000 0.000000
# 3 -0.005465 -0.007313 0.018950 0.000000 0.000000 0.000000
# 4 0.000000 0.000000 0.000000 0.195549 0.000000 0.000000
# 5 0.000000 0.000000 0.000000 0.000000 0.032857 0.000000
# 6 0.000000 0.000000 0.000000 0.000000 0.000000 0.075550
#
#
# Mechanical properties :
#
#
# Convention : Reuss Voigt Hill
#
# Bulk Modulus (GPa) = 38.47853 55.22465 46.85159
# Shear Modulus (GPa) = 12.25579 19.91146 16.08362
#
# Velocity S-wave (km/s) = 2.78630 3.55148 3.19190
# Velocity P-wave (km/s) = 5.89286 7.19720 6.57744
#
# Compressibility (1/GPa) = 0.02598852
#
# Stress axis : x y z
#
# Youngs Moduli (GPa) = 100.44858 31.48150 52.76946
#
# Poissons Ratio (x) = 0.14367 0.28838
# Poissons Ratio (y) = 0.45840 0.38588
# Poissons Ratio (z) = 0.54894 0.23021
#
# Static dielectric constant tensor:
#      x y z
#    x 3.539220 0.000000 0.000000 
#    y 0.000000 2.651950 0.000000 
#    z 0.000000 0.000000 3.001010 
# 
# 
# High freq. dielectric constant tensor:
#      x y z
#    x 1.624910 0.000000 0.000000 
#    y 0.000000 1.534830 0.000000 
#    z 0.000000 0.000000 1.603480 
# 
# From -- ./inp_files/42096.got.cif
#   From: 2010.03.12/outbox.cif.g09.slc.cpg/sg66_22_cif.got.tgz:42096.got - 2010.04.10 21:57:39.
