data_PCOD8275910
_publ_section_title
;
Structure prediction by ZEFSAII (Michael W. Deem and Ramdas Pophale) SiO2 
 PCOD8275910
Probable space group: C C C M
;
_chemical_formula_sum "Si O2"
_cell_formula_units_Z 56
_cell_length_a 5.160599
_cell_length_b 22.833732
_cell_length_c 26.883665
_cell_angle_alpha 90.000000
_cell_angle_beta 90.000000
_cell_angle_gamma 90.000000
_cell_volume 3167.856412
_symmetry_space_group_name_H-M "C C C M"
_symmetry_group_IT_number 66
_symmetry_cell_setting 'orthorhombic'
loop_
_space_group_symop_operation_xyz
x,y,z
-x,-y,z
x,-y,1/2-z
-x,y,1/2-z
-x,-y,-z
x,y,-z
-x,y,1/2+z
x,-y,1/2+z
1/2+x,1/2+y,z
1/2-x,1/2-y,z
1/2+x,1/2-y,1/2-z
1/2-x,1/2+y,1/2-z
1/2-x,1/2-y,-z
1/2+x,1/2+y,-z
1/2-x,1/2+y,1/2+z
1/2+x,1/2-y,1/2+z
loop_
_atom_site_type_symbol
_atom_site_label
_atom_site_fract_x
_atom_site_fract_y
_atom_site_fract_z
Si Si1 0.752822 0.608906 0.056568
Si Si2 0.500000 0.500000 0.408266
Si Si3 0.227050 0.114710 0.616071
Si Si4 0.749852 0.181915 0.781631
O O1 0.694644 0.538764 0.057611
O O2 0.515228 0.641893 0.084892
O O3 0.016286 0.624927 0.084229
O O4 0.772251 0.630767 0.000000
O O5 0.328505 0.454970 0.374910
O O6 0.255685 0.145174 0.668473
O O7 0.500000 0.164603 0.750000
O O8 0.750000 0.250000 0.795957
O O9 0.000000 0.164519 0.750000
#
# Coordination Sequence:
#
# PCOD8275910 Si02
#       4
#    16   8  16  16
#     4  10  19  32  53  79 110 145 177 206 250 313
#     4   8  21  30  53  76 112 142 173 210 255 310
#     4  10  20  33  53  79 110 132 179 218 259 306
#     4  10  21  39  62  79  96 134 184 226 266 311
#
# _framework density 17.677569999999999
#
# number of rings (size 3 to 8) (size 9 to 14) (size 15 to 20)
#    1.714    0.571    0.000    3.857    0.000    1.143 
#    0.000    0.714    0.000    5.143    0.000    0.000 
#    0.000    0.000    0.000    0.000    0.000    0.000 
#
# Total GULP energy -346918.735284 kJ/mol
# GULP energy per Si atom -12389.954832 kJ/mol
# Density = 1.763734 g / cm^3
# Si number density = 17.677570 Si / 1000 Ang^3
#
#
#
# Elastic Constant Matrix: (Units=GPa)
#
#
# Indices 1 2 3 4 5 6 
#
# 1 175.6938 29.2702 87.0758 0.0000 0.0000 0.0000
# 2 29.2702 32.2708 55.7406 0.0000 0.0000 0.0000
# 3 87.0758 55.7406 173.4982 0.0000 0.0000 0.0000
# 4 0.0000 0.0000 0.0000 59.8095 0.0000 0.0000
# 5 0.0000 0.0000 0.0000 0.0000 24.3900 0.0000
# 6 0.0000 0.0000 0.0000 0.0000 0.0000 16.0253
#
#
#
# Elastic Compliance Matrix: (Units=1/GPa)
#
#
# Indices 1 2 3 4 5 6 
#
# 1 0.007583 -0.000684 -0.003586 0.000000 0.000000 0.000000
# 2 -0.000684 0.069686 -0.022045 0.000000 0.000000 0.000000
# 3 -0.003586 -0.022045 0.014646 0.000000 0.000000 0.000000
# 4 0.000000 0.000000 0.000000 0.016720 0.000000 0.000000
# 5 0.000000 0.000000 0.000000 0.000000 0.041000 0.000000
# 6 0.000000 0.000000 0.000000 0.000000 0.000000 0.062401
#
#
# Mechanical properties :
#
#
# Convention : Reuss Voigt Hill
#
# Bulk Modulus (GPa) = 25.45495 80.62626 53.04060
# Shear Modulus (GPa) = 18.00103 34.00336 26.00219
#
# Velocity S-wave (km/s) = 3.19454 4.39057 3.83941
# Velocity P-wave (km/s) = 5.29506 8.45051 7.05155
#
# Compressibility (1/GPa) = 0.03928508
#
# Stress axis : x y z
#
# Youngs Moduli (GPa) = 131.87518 14.35006 68.27732
#
# Poissons Ratio (x) = 0.00981 0.24485
# Poissons Ratio (y) = 0.09016 1.50519
# Poissons Ratio (z) = 0.47292 0.31635
#
# Static dielectric constant tensor:
#      x y z
#    x 3.429620 0.000000 0.000000 
#    y 0.000000 2.960220 0.000000 
#    z 0.000000 0.000000 3.041500 
# 
# 
# High freq. dielectric constant tensor:
#      x y z
#    x 1.706220 0.000000 0.000000 
#    y 0.000000 1.646450 0.000000 
#    z 0.000000 0.000000 1.674360 
# 
# From -- ./inp_files/54085.got.cif
#   From: 2010.03.12/outbox.cif.g09.slc.cpg/sg66_28_cif.got.tgz:54085.got - 2010.04.10 21:57:39.
