data_PCOD8275882
_publ_section_title
;
Structure prediction by ZEFSAII (Michael W. Deem and Ramdas Pophale) SiO2 
 PCOD8275882
Probable space group: C C C M
;
_chemical_formula_sum "Si O2"
_cell_formula_units_Z 80
_cell_length_a 25.908579
_cell_length_b 19.254454
_cell_length_c 8.829063
_cell_angle_alpha 90.000000
_cell_angle_beta 90.000000
_cell_angle_gamma 90.000000
_cell_volume 4404.427013
_symmetry_space_group_name_H-M "C C C M"
_symmetry_group_IT_number 66
_symmetry_cell_setting 'orthorhombic'
loop_
_space_group_symop_operation_xyz
x,y,z
-x,-y,z
x,-y,1/2-z
-x,y,1/2-z
-x,-y,-z
x,y,-z
-x,y,1/2+z
x,-y,1/2+z
1/2+x,1/2+y,z
1/2-x,1/2-y,z
1/2+x,1/2-y,1/2-z
1/2-x,1/2+y,1/2-z
1/2-x,1/2-y,-z
1/2+x,1/2+y,-z
1/2-x,1/2+y,1/2+z
1/2+x,1/2-y,1/2+z
loop_
_atom_site_type_symbol
_atom_site_label
_atom_site_fract_x
_atom_site_fract_y
_atom_site_fract_z
Si Si1 0.247817 0.425662 0.675360
Si Si2 0.147110 0.576203 0.320257
Si Si3 0.138030 0.075432 0.323666
Si Si4 0.947322 0.330415 0.678003
Si Si5 0.446796 0.671606 0.678750
O O1 0.252121 0.500000 0.750000
O O2 0.233313 0.432817 0.500000
O O3 0.200286 0.387182 0.760316
O O4 0.304334 0.391511 0.697051
O O5 0.140618 0.500000 0.250000
O O6 0.148657 0.571259 0.500000
O O7 0.099982 0.623340 0.262409
O O8 0.124128 0.068440 0.500000
O O9 0.100116 0.127769 0.242314
O O10 0.132873 0.000000 0.250000
O O11 0.953160 0.336456 0.500000
O O12 0.937514 0.251145 0.728175
O O13 0.000000 0.359367 0.750000
O O14 0.500000 0.643628 0.750000
O O15 0.449750 0.662659 0.500000
#
# Coordination Sequence:
#
# PCOD8275882 Si02
#       5
#    16  16  16  16  16
#     4   9  17  30  49  73 101 132 164 200 246 294
#     4  10  19  32  51  76 103 131 167 207 248 295
#     4  10  20  34  53  78 104 131 166 206 247 294
#     4   9  20  36  53  73  99 133 169 206 250 299
#     4  10  20  36  55  74  99 132 168 206 251 298
#
# _framework density 18.163544000000002
#
# number of rings (size 3 to 8) (size 9 to 14) (size 15 to 20)
#    0.000    2.400    0.000    3.600    0.000    5.600 
#    0.000    5.000    0.000    6.000    0.000    0.000 
#    0.000    0.000    0.000    0.000    0.000    0.000 
#
# Total GULP energy -495822.521681 kJ/mol
# GULP energy per Si atom -12395.563042 kJ/mol
# Density = 1.812220 g / cm^3
# Si number density = 18.163544 Si / 1000 Ang^3
#
#
#
# Elastic Constant Matrix: (Units=GPa)
#
#
# Indices 1 2 3 4 5 6 
#
# 1 179.1502 66.2768 61.9554 0.0000 0.0000 0.0000
# 2 66.2768 59.5330 32.8380 0.0000 0.0000 0.0000
# 3 61.9554 32.8380 90.0962 0.0000 0.0000 0.0000
# 4 0.0000 0.0000 0.0000 18.2122 0.0000 0.0000
# 5 0.0000 0.0000 0.0000 0.0000 35.6940 0.0000
# 6 0.0000 0.0000 0.0000 0.0000 0.0000 -3.7317
#
#
#
# Elastic Compliance Matrix: (Units=1/GPa)
#
#
# Indices 1 2 3 4 5 6 
#
# 1 0.010373 -0.009529 -0.003660 0.000000 0.000000 0.000000
# 2 -0.009529 0.029778 -0.004301 0.000000 0.000000 0.000000
# 3 -0.003660 -0.004301 0.015183 0.000000 0.000000 0.000000
# 4 0.000000 0.000000 0.000000 0.054908 0.000000 0.000000
# 5 0.000000 0.000000 0.000000 0.000000 0.028016 0.000000
# 6 0.000000 0.000000 0.000000 0.000000 0.000000 -0.267974
#
#
# Mechanical properties :
#
#
# Convention : Reuss Voigt Hill
#
# Bulk Modulus (GPa) = 49.12740 72.32443 60.72591
# Shear Modulus (GPa) = -56.85026 21.21551 -17.81737
#
# Velocity S-wave (km/s) = -5.60063 3.42135 -3.13540
# Velocity P-wave (km/s) = 3.83624 7.45066 4.51639
#
# Compressibility (1/GPa) = 0.02035524
#
# Stress axis : x y z
#
# Youngs Moduli (GPa) = 96.40464 33.58146 65.86110
#
# Poissons Ratio (x) = 0.32001 0.24104
# Poissons Ratio (y) = 0.91866 0.28325
# Poissons Ratio (z) = 0.35283 0.14442
#
# Static dielectric constant tensor:
#      x y z
#    x 4.058270 0.000000 0.000000 
#    y 0.000000 3.128280 0.000000 
#    z 0.000000 0.000000 3.456270 
# 
# 
# High freq. dielectric constant tensor:
#      x y z
#    x 1.725960 0.000000 0.000000 
#    y 0.000000 1.667430 0.000000 
#    z 0.000000 0.000000 1.718190 
# 
# From -- ./inp_files/6649.got.cif
#   From: 2010.03.12/outbox.cif.g09.slc.cpg/sg66_4_cif.got.tgz:6649.got - 2010.04.10 21:57:39.
