data_PCOD8275209
_publ_section_title
;
Structure prediction by ZEFSAII (Michael W. Deem and Ramdas Pophale) SiO2 
 PCOD8275209
Probable space group: C M M M
;
_chemical_formula_sum "Si O2"
_cell_formula_units_Z 52
_cell_length_a 9.000000
_cell_length_b 30.000000
_cell_length_c 21.000000
_cell_angle_alpha 90.000000
_cell_angle_beta 90.000000
_cell_angle_gamma 90.000000
_cell_volume 5670.000000
_symmetry_space_group_name_H-M "C M M M"
_symmetry_group_IT_number 65
_symmetry_cell_setting 'orthorhombic'
loop_
_space_group_symop_operation_xyz
x,y,z
-x,-y,z
x,-y,-z
-x,y,-z
-x,-y,-z
x,y,-z
-x,y,z
x,-y,z
1/2+x,1/2+y,z
1/2-x,1/2-y,z
1/2+x,1/2-y,-z
1/2-x,1/2+y,-z
1/2-x,1/2-y,-z
1/2+x,1/2+y,-z
1/2-x,1/2+y,z
1/2+x,1/2-y,z
loop_
_atom_site_type_symbol
_atom_site_label
_atom_site_fract_x
_atom_site_fract_y
_atom_site_fract_z
Si Si1 0.160151 0.000000 0.928167
Si Si2 0.171002 0.160241 0.073880
Si Si3 0.326140 0.356760 0.319415
Si Si4 0.173161 0.948705 0.736878
Si Si5 0.170054 0.794572 0.796401
Si Si6 0.674813 0.077209 0.132359
Si Si7 0.324457 0.797320 0.426258
O O1 0.261083 0.957974 0.915979
O O2 0.000000 0.000000 0.890143
O O3 0.113766 0.000000 0.000000
O O4 0.195944 0.198401 0.127360
O O5 0.281174 0.123266 0.099962
O O6 0.000000 0.143615 0.076389
O O7 0.209689 0.174664 0.000000
O O8 0.500000 0.348902 0.332141
O O9 0.291375 0.410463 0.316305
O O10 0.277922 0.334856 0.250852
O O11 0.237450 0.335399 0.378722
O O12 0.260313 0.933215 0.798767
O O13 0.000000 0.947056 0.753501
O O14 0.217659 0.000000 0.716283
O O15 0.250000 0.750000 0.774193
O O16 0.000000 0.785956 0.782813
O O17 0.500000 0.074193 0.137740
O O18 0.288651 0.810305 0.500000
O O19 0.500000 0.792882 0.415652
O O20 0.250000 0.750000 0.409124
#
# Coordination Sequence:
#
# PCOD8275209 Si02
#       7
#     8  16  16  16  16  16  16
#     4  11  23  37  53  71  97 139 182 223 284 357
#     4  10  21  39  58  72  97 143 190 230 282 349
#     4  10  20  36  59  87 117 150 191 237 281 330
#     4  10  20  37  61  83 110 150 192 230 276 338
#     4  10  21  36  54  80 109 141 186 234 282 339
#     4  12  23  34  52  79 107 134 174 234 294 343
#     4  10  21  37  59  90 126 161 195 230 275 334
#
# _framework density 9.1710759999999993
#
# number of rings (size 3 to 8) (size 9 to 14) (size 15 to 20)
#    0.000    1.615    2.308    3.000    0.000    7.077 
#    0.000    0.000    0.000    0.462    0.000    3.231 
#    0.000    0.000    0.000    0.000    0.000    0.000 
#
# Total GULP energy -644270.621939 kJ/mol
# GULP energy per Si atom -12389.819653 kJ/mol
# Density = 0.915020 g / cm^3
# Si number density = 9.171076 Si / 1000 Ang^3
#
#
#
# Elastic Constant Matrix: (Units=GPa)
#
#
# Indices 1 2 3 4 5 6 
#
# 1 71.1852 47.2876 45.4993 0.0000 0.0000 0.0000
# 2 47.2876 126.4959 54.1523 0.0000 0.0000 0.0000
# 3 45.4993 54.1523 121.1719 0.0000 0.0000 0.0000
# 4 0.0000 0.0000 0.0000 72.9429 0.0000 0.0000
# 5 0.0000 0.0000 0.0000 0.0000 25.3138 0.0000
# 6 0.0000 0.0000 0.0000 0.0000 0.0000 29.9414
#
#
#
# Elastic Compliance Matrix: (Units=1/GPa)
#
#
# Indices 1 2 3 4 5 6 
#
# 1 0.021277 -0.005606 -0.005484 0.000000 0.000000 0.000000
# 2 -0.005606 0.011253 -0.002924 0.000000 0.000000 0.000000
# 3 -0.005484 -0.002924 0.011619 0.000000 0.000000 0.000000
# 4 0.000000 0.000000 0.000000 0.013709 0.000000 0.000000
# 5 0.000000 0.000000 0.000000 0.000000 0.039504 0.000000
# 6 0.000000 0.000000 0.000000 0.000000 0.000000 0.033399
#
#
# Mechanical properties :
#
#
# Convention : Reuss Voigt Hill
#
# Bulk Modulus (GPa) = 62.03292 68.08126 65.05709
# Shear Modulus (GPa) = 30.45759 37.10052 33.77905
#
# Velocity S-wave (km/s) = 4.07937 4.50231 4.29605
# Velocity P-wave (km/s) = 7.48877 8.01410 7.75588
#
# Compressibility (1/GPa) = 0.01612047
#
# Stress axis : x y z
#
# Youngs Moduli (GPa) = 46.99843 88.86618 86.06884
#
# Poissons Ratio (x) = 0.49822 0.47200
# Poissons Ratio (y) = 0.26349 0.25165
# Poissons Ratio (z) = 0.25774 0.25983
#
# Static dielectric constant tensor:
#      x y z
#    x 3.368200 0.000000 0.000000 
#    y 0.000000 5.394980 0.000000 
#    z 0.000000 0.000000 3.505100 
# 
# 
# High freq. dielectric constant tensor:
#      x y z
#    x 1.713310 0.000000 0.000000 
#    y 0.000000 1.713870 0.000000 
#    z 0.000000 0.000000 1.707660 
# 
# From -- ./inp_files/60892.got.cif
#   From: 2010.03.12/outbox.ucp.g09.slc.cvg/sg65_31_cif.got.tgz:60892.got - 2010.05.04 19:44:54.
