data_PCOD8275605
_publ_section_title
;
Structure prediction by ZEFSAII (Michael W. Deem and Ramdas Pophale) SiO2 
 PCOD8275605
Probable space group: C C C M
;
_chemical_formula_sum "Si O2"
_cell_formula_units_Z 96
_cell_length_a 18.861209
_cell_length_b 29.538868
_cell_length_c 8.624966
_cell_angle_alpha 90.000000
_cell_angle_beta 90.000000
_cell_angle_gamma 90.000000
_cell_volume 4805.302888
_symmetry_space_group_name_H-M "C C C M"
_symmetry_group_IT_number 66
_symmetry_cell_setting 'orthorhombic'
loop_
_space_group_symop_operation_xyz
x,y,z
-x,-y,z
x,-y,1/2-z
-x,y,1/2-z
-x,-y,-z
x,y,-z
-x,y,1/2+z
x,-y,1/2+z
1/2+x,1/2+y,z
1/2-x,1/2-y,z
1/2+x,1/2-y,1/2-z
1/2-x,1/2+y,1/2-z
1/2-x,1/2-y,-z
1/2+x,1/2+y,-z
1/2-x,1/2+y,1/2+z
1/2+x,1/2-y,1/2+z
loop_
_atom_site_type_symbol
_atom_site_label
_atom_site_fract_x
_atom_site_fract_y
_atom_site_fract_z
Si Si1 0.725750 0.798693 0.184642
Si Si2 0.573591 0.829913 0.818405
Si Si3 0.717615 0.044700 0.174863
Si Si4 0.933732 0.426314 0.825868
Si Si5 0.691331 0.614485 0.180342
Si Si6 0.576585 0.548487 0.316841
O O1 0.750000 0.750000 0.247870
O O2 0.646097 0.807576 0.250259
O O3 0.786099 0.835183 0.238323
O O4 0.722748 0.800506 0.000000
O O5 0.500000 0.808837 0.750000
O O6 0.579011 0.882586 0.779500
O O7 0.570996 0.821824 0.000000
O O8 0.633033 0.040576 0.174065
O O9 0.738018 0.085958 0.285452
O O10 0.750999 0.000000 0.250000
O O11 0.747852 0.050717 0.000000
O O12 0.000000 0.453202 0.750000
O O13 0.951316 0.410134 0.000000
O O14 0.627749 0.590546 0.274272
O O15 0.671345 0.614149 0.000000
O O16 0.603549 0.500000 0.250000
O O17 0.500000 0.560689 0.250000
O O18 0.571664 0.543829 0.500000
#
# Coordination Sequence:
#
# PCOD8275605 Si02
#       6
#    16  16  16  16  16  16
#     4   9  19  36  59  86 114 149 192 239 292 351
#     4  10  18  32  56  82 108 144 186 230 277 334
#     4  11  23  36  52  77 110 147 188 233 277 331
#     4  10  20  33  51  74 105 142 183 228 272 320
#     4  11  21  37  60  84 114 151 190 235 287 343
#     4  11  22  39  62  90 122 156 196 238 289 352
#
# _framework density 19.977927999999999
#
# number of rings (size 3 to 8) (size 9 to 14) (size 15 to 20)
#    0.000    1.667    1.667    5.500    0.000    2.333 
#    0.000    2.500    0.000   10.000    0.000    0.000 
#    0.000    0.000    0.000    0.000    0.000    0.000 
#
# Total GULP energy -594816.966358 kJ/mol
# GULP energy per Si atom -12392.020132 kJ/mol
# Density = 1.993246 g / cm^3
# Si number density = 19.977928 Si / 1000 Ang^3
#
#
#
# Elastic Constant Matrix: (Units=GPa)
#
#
# Indices 1 2 3 4 5 6 
#
# 1 132.8671 47.7060 40.0129 0.0000 0.0000 0.0000
# 2 47.7060 121.1909 29.9518 0.0000 0.0000 0.0000
# 3 40.0129 29.9518 85.7717 0.0000 0.0000 0.0000
# 4 0.0000 0.0000 0.0000 15.4119 0.0000 0.0000
# 5 0.0000 0.0000 0.0000 0.0000 28.5102 0.0000
# 6 0.0000 0.0000 0.0000 0.0000 0.0000 29.2725
#
#
#
# Elastic Compliance Matrix: (Units=1/GPa)
#
#
# Indices 1 2 3 4 5 6 
#
# 1 0.009622 -0.002931 -0.003465 0.000000 0.000000 0.000000
# 2 -0.002931 0.009924 -0.002098 0.000000 0.000000 0.000000
# 3 -0.003465 -0.002098 0.014008 0.000000 0.000000 0.000000
# 4 0.000000 0.000000 0.000000 0.064885 0.000000 0.000000
# 5 0.000000 0.000000 0.000000 0.000000 0.035075 0.000000
# 6 0.000000 0.000000 0.000000 0.000000 0.000000 0.034162
#
#
# Mechanical properties :
#
#
# Convention : Reuss Voigt Hill
#
# Bulk Modulus (GPa) = 60.36776 63.90793 62.13785
# Shear Modulus (GPa) = 26.28993 29.44953 27.86973
#
# Velocity S-wave (km/s) = 3.63154 3.84357 3.73906
# Velocity P-wave (km/s) = 6.91859 7.19417 7.05773
#
# Compressibility (1/GPa) = 0.01656513
#
# Stress axis : x y z
#
# Youngs Moduli (GPa) = 103.92437 100.76723 71.38767
#
# Poissons Ratio (x) = 0.29539 0.24738
# Poissons Ratio (y) = 0.30464 0.14977
# Poissons Ratio (z) = 0.36012 0.21141
#
# Static dielectric constant tensor:
#      x y z
#    x 4.099870 0.000000 0.000000 
#    y 0.000000 3.476120 0.000000 
#    z 0.000000 0.000000 3.596070 
# 
# 
# High freq. dielectric constant tensor:
#      x y z
#    x 1.795000 0.000000 0.000000 
#    y 0.000000 1.749480 0.000000 
#    z 0.000000 0.000000 1.775010 
# 
# From -- ./inp_files/7978.got.cif
#   From: 2010.03.12/outbox.cif.g09.slc.cpg/sg66_4_cif.got.tgz:7978.got - 2010.04.10 21:57:39.
