data_PCOD8275242
_publ_section_title
;
Structure prediction by ZEFSAII (Michael W. Deem and Ramdas Pophale) SiO2 
 PCOD8275242
Probable space group: C C C M
;
_chemical_formula_sum "Si O2"
_cell_formula_units_Z 96
_cell_length_a 12.981179
_cell_length_b 24.072232
_cell_length_c 18.866516
_cell_angle_alpha 90.000000
_cell_angle_beta 90.000000
_cell_angle_gamma 90.000000
_cell_volume 5895.521223
_symmetry_space_group_name_H-M "C C C M"
_symmetry_group_IT_number 66
_symmetry_cell_setting 'orthorhombic'
loop_
_space_group_symop_operation_xyz
x,y,z
-x,-y,z
x,-y,1/2-z
-x,y,1/2-z
-x,-y,-z
x,y,-z
-x,y,1/2+z
x,-y,1/2+z
1/2+x,1/2+y,z
1/2-x,1/2-y,z
1/2+x,1/2-y,1/2-z
1/2-x,1/2+y,1/2-z
1/2-x,1/2-y,-z
1/2+x,1/2+y,-z
1/2-x,1/2+y,1/2+z
1/2+x,1/2-y,1/2+z
loop_
_atom_site_type_symbol
_atom_site_label
_atom_site_fract_x
_atom_site_fract_y
_atom_site_fract_z
Si Si1 0.398635 0.264120 0.082387
Si Si2 0.773164 0.333133 0.197778
Si Si3 0.269831 0.163935 0.861441
Si Si4 0.075695 0.233640 0.683758
Si Si5 0.117819 0.562504 0.171641
Si Si6 0.613035 0.939914 0.159845
O O1 0.349981 0.213567 0.126374
O O2 0.334322 0.321117 0.095868
O O3 0.513618 0.270260 0.110516
O O4 0.398425 0.249486 0.000000
O O5 0.745023 0.342684 0.279316
O O6 0.872989 0.293565 0.194468
O O7 0.667119 0.309523 0.167627
O O8 0.802389 0.388245 0.151746
O O9 0.317718 0.104271 0.883991
O O10 0.000000 0.219468 0.750000
O O11 0.156481 0.502047 0.144774
O O12 0.112265 0.567910 0.256114
O O13 0.005297 0.569847 0.136174
#
# Coordination Sequence:
#
# PCOD8275242 Si02
#       6
#    16  16  16  16  16  16
#     4  11  21  31  45  70 101 129 162 199 238 292
#     4  10  18  27  49  72  96 122 159 199 239 287
#     4  10  16  28  47  71  95 125 154 200 243 285
#     4  11  18  31  46  71  95 127 162 192 242 288
#     4   8  14  24  38  71  99 122 149 189 240 289
#     4   8  14  23  42  66 100 125 147 186 244 290
#
# _framework density 16.283548
#
# number of rings (size 3 to 8) (size 9 to 14) (size 15 to 20)
#    0.000    2.333    3.333    4.000    2.333    0.000 
#    0.000    1.667    0.000    1.000    0.000   25.667 
#    0.000    0.000    0.000    0.000    0.000    0.000 
#
# Total GULP energy -594630.950922 kJ/mol
# GULP energy per Si atom -12388.144811 kJ/mol
# Density = 1.624649 g / cm^3
# Si number density = 16.283548 Si / 1000 Ang^3
#
#
#
# Elastic Constant Matrix: (Units=GPa)
#
#
# Indices 1 2 3 4 5 6 
#
# 1 86.5457 41.9359 10.8040 0.0000 0.0000 0.0000
# 2 41.9359 111.0644 4.1114 0.0000 0.0000 0.0000
# 3 10.8040 4.1114 27.3587 0.0000 0.0000 0.0000
# 4 0.0000 0.0000 0.0000 3.6892 0.0000 0.0000
# 5 0.0000 0.0000 0.0000 0.0000 11.6805 0.0000
# 6 0.0000 0.0000 0.0000 0.0000 0.0000 25.6362
#
#
#
# Elastic Compliance Matrix: (Units=1/GPa)
#
#
# Indices 1 2 3 4 5 6 
#
# 1 0.014800 -0.005402 -0.005033 0.000000 0.000000 0.000000
# 2 -0.005402 0.011026 0.000476 0.000000 0.000000 0.000000
# 3 -0.005033 0.000476 0.038467 0.000000 0.000000 0.000000
# 4 0.000000 0.000000 0.000000 0.271064 0.000000 0.000000
# 5 0.000000 0.000000 0.000000 0.000000 0.085613 0.000000
# 6 0.000000 0.000000 0.000000 0.000000 0.000000 0.039007
#
#
# Mechanical properties :
#
#
# Convention : Reuss Voigt Hill
#
# Bulk Modulus (GPa) = 22.53451 37.63016 30.08234
# Shear Modulus (GPa) = 10.10740 19.40899 14.75820
#
# Velocity S-wave (km/s) = 2.49411 3.45619 3.01379
# Velocity P-wave (km/s) = 4.70776 6.25192 5.53396
#
# Compressibility (1/GPa) = 0.04437637
#
# Stress axis : x y z
#
# Youngs Moduli (GPa) = 67.56546 90.69572 25.99606
#
# Poissons Ratio (x) = 0.48994 0.13084
# Poissons Ratio (y) = 0.36499 -0.01238
# Poissons Ratio (z) = 0.34005 -0.04320
#
# Static dielectric constant tensor:
#      x y z
#    x 3.239990 0.000000 0.000000 
#    y 0.000000 3.406230 0.000000 
#    z 0.000000 0.000000 2.607780 
# 
# 
# High freq. dielectric constant tensor:
#      x y z
#    x 1.619320 0.000000 0.000000 
#    y 0.000000 1.623950 0.000000 
#    z 0.000000 0.000000 1.577140 
# 
# From -- ./inp_files/38803.got.cif
#   From: 2010.03.12/outbox.cif.g09.slc.cpg/sg66_20_cif.got.tgz:38803.got - 2010.04.10 21:57:39.
