data_PCOD8275773
_publ_section_title
;
Structure prediction by ZEFSAII (Michael W. Deem and Ramdas Pophale) SiO2 
 PCOD8275773
Probable space group: C C C M
;
_chemical_formula_sum "Si O2"
_cell_formula_units_Z 96
_cell_length_a 24.363844
_cell_length_b 9.364068
_cell_length_c 21.146611
_cell_angle_alpha 90.000000
_cell_angle_beta 90.000000
_cell_angle_gamma 90.000000
_cell_volume 4824.487053
_symmetry_space_group_name_H-M "C C C M"
_symmetry_group_IT_number 66
_symmetry_cell_setting 'orthorhombic'
loop_
_space_group_symop_operation_xyz
x,y,z
-x,-y,z
x,-y,1/2-z
-x,y,1/2-z
-x,-y,-z
x,y,-z
-x,y,1/2+z
x,-y,1/2+z
1/2+x,1/2+y,z
1/2-x,1/2-y,z
1/2+x,1/2-y,1/2-z
1/2-x,1/2+y,1/2-z
1/2-x,1/2-y,-z
1/2+x,1/2+y,-z
1/2-x,1/2+y,1/2+z
1/2+x,1/2-y,1/2+z
loop_
_atom_site_type_symbol
_atom_site_label
_atom_site_fract_x
_atom_site_fract_y
_atom_site_fract_z
Si Si1 0.564884 0.497362 0.176557
Si Si2 0.145746 0.760319 0.854226
Si Si3 0.700815 0.151565 0.730244
Si Si4 0.282612 0.473382 0.428918
Si Si5 0.881678 0.175593 0.430247
Si Si6 0.340632 0.042988 0.107883
O O1 0.500000 0.500000 0.175275
O O2 0.585527 0.500000 0.250000
O O3 0.590306 0.353745 0.146133
O O4 0.582086 0.628014 0.130256
O O5 0.166212 0.726911 0.784449
O O6 0.196305 0.842052 0.886812
O O7 0.131136 0.613267 0.890990
O O8 0.750000 0.250000 0.706065
O O9 0.727542 0.000000 0.750000
O O10 0.657011 0.121494 0.675571
O O11 0.283197 0.415730 0.500000
O O12 0.321412 0.610073 0.420066
O O13 0.222399 0.523140 0.410719
O O14 0.905336 0.127678 0.500000
O O15 0.874801 0.348079 0.435664
#
# Coordination Sequence:
#
# PCOD8275773 Si02
#       6
#    16  16  16  16  16  16
#     4  10  22  42  65  82 100 137 189 241 290 337
#     4  10  21  35  52  78 109 143 185 231 274 322
#     4  10  19  30  47  75 111 147 180 216 263 318
#     4  10  20  34  52  78 115 156 190 215 249 312
#     4  10  21  36  57  85 115 148 184 225 273 325
#     4  11  20  31  51  80 116 150 178 217 268 326
#
# _framework density 19.898489999999999
#
# number of rings (size 3 to 8) (size 9 to 14) (size 15 to 20)
#    0.000    1.833    0.000    5.500    0.000    7.000 
#    0.000    0.833    0.000    3.000    0.000    0.000 
#    0.000    0.000    0.000    0.000    0.000    0.000 
#
# Total GULP energy -594878.602171 kJ/mol
# GULP energy per Si atom -12393.304212 kJ/mol
# Density = 1.985320 g / cm^3
# Si number density = 19.898490 Si / 1000 Ang^3
#
#
#
# Elastic Constant Matrix: (Units=GPa)
#
#
# Indices 1 2 3 4 5 6 
#
# 1 70.8615 38.1319 33.2982 0.0000 0.0000 0.0000
# 2 38.1319 123.2956 29.7008 0.0000 0.0000 0.0000
# 3 33.2982 29.7008 110.8820 0.0000 0.0000 0.0000
# 4 0.0000 0.0000 0.0000 18.3340 0.0000 0.0000
# 5 0.0000 0.0000 0.0000 0.0000 14.8998 0.0000
# 6 0.0000 0.0000 0.0000 0.0000 0.0000 13.0757
#
#
#
# Elastic Compliance Matrix: (Units=1/GPa)
#
#
# Indices 1 2 3 4 5 6 
#
# 1 0.018704 -0.004737 -0.004348 0.000000 0.000000 0.000000
# 2 -0.004737 0.009870 -0.001221 0.000000 0.000000 0.000000
# 3 -0.004348 -0.001221 0.010651 0.000000 0.000000 0.000000
# 4 0.000000 0.000000 0.000000 0.054543 0.000000 0.000000
# 5 0.000000 0.000000 0.000000 0.000000 0.067115 0.000000
# 6 0.000000 0.000000 0.000000 0.000000 0.000000 0.076478
#
#
# Mechanical properties :
#
#
# Convention : Reuss Voigt Hill
#
# Bulk Modulus (GPa) = 53.72669 56.36676 55.04673
# Shear Modulus (GPa) = 18.92654 22.85578 20.89116
#
# Velocity S-wave (km/s) = 3.08742 3.39280 3.24371
# Velocity P-wave (km/s) = 6.30623 6.61338 6.46163
#
# Compressibility (1/GPa) = 0.01861272
#
# Stress axis : x y z
#
# Youngs Moduli (GPa) = 53.46310 101.31840 93.88421
#
# Poissons Ratio (x) = 0.47998 0.40822
# Poissons Ratio (y) = 0.25327 0.11464
# Poissons Ratio (z) = 0.23246 0.12372
#
# Static dielectric constant tensor:
#      x y z
#    x 3.093210 0.000000 0.000000 
#    y 0.000000 3.909040 0.000000 
#    z 0.000000 0.000000 4.129820 
# 
# 
# High freq. dielectric constant tensor:
#      x y z
#    x 1.721630 0.000000 0.000000 
#    y 0.000000 1.789370 0.000000 
#    z 0.000000 0.000000 1.795510 
# 
# From -- ./inp_files/47272.got.cif
#   From: 2010.03.12/outbox.cif.g09.slc.cpg/sg66_24_cif.got.tgz:47272.got - 2010.04.10 21:57:39.
