data_PCOD8275152
_publ_section_title
;
Structure prediction by ZEFSAII (Michael W. Deem and Ramdas Pophale) SiO2 
 PCOD8275152
Probable space group: C M M M
;
_chemical_formula_sum "Si O2"
_cell_formula_units_Z 88
_cell_length_a 24.842550
_cell_length_b 20.330745
_cell_length_c 9.562578
_cell_angle_alpha 90.000000
_cell_angle_beta 90.000000
_cell_angle_gamma 90.000000
_cell_volume 4829.747834
_symmetry_space_group_name_H-M "C M M M"
_symmetry_group_IT_number 65
_symmetry_cell_setting 'orthorhombic'
loop_
_space_group_symop_operation_xyz
x,y,z
-x,-y,z
x,-y,-z
-x,y,-z
-x,-y,-z
x,y,-z
-x,y,z
x,-y,z
1/2+x,1/2+y,z
1/2-x,1/2-y,z
1/2+x,1/2-y,-z
1/2-x,1/2+y,-z
1/2-x,1/2-y,-z
1/2+x,1/2+y,-z
1/2-x,1/2+y,z
1/2+x,1/2-y,z
loop_
_atom_site_type_symbol
_atom_site_label
_atom_site_fract_x
_atom_site_fract_y
_atom_site_fract_z
Si Si1 0.290562 0.693963 0.340164
Si Si2 0.826390 0.074237 0.836128
Si Si3 0.410928 0.260286 0.341210
Si Si4 0.558484 0.376946 0.839862
Si Si5 0.563278 0.116693 0.655735
Si Si6 0.435654 0.000000 0.156549
O O1 0.275699 0.675116 0.500000
O O2 0.250000 0.750000 0.282099
O O3 0.290054 0.626825 0.248580
O O4 0.348221 0.726622 0.329502
O O5 0.890133 0.079116 0.794978
O O6 0.808099 0.000000 0.797551
O O7 0.818167 0.088100 0.000000
O O8 0.431826 0.266054 0.500000
O O9 0.444445 0.310764 0.249352
O O10 0.422033 0.187716 0.282678
O O11 0.500000 0.413198 0.818666
O O12 0.565712 0.356010 0.000000
O O13 0.588295 0.107265 0.500000
O O14 0.500000 0.107177 0.646022
O O15 0.587457 0.063333 0.762068
O O16 0.500000 0.000000 0.152135
O O17 0.411960 0.000000 0.000000
#
# Coordination Sequence:
#
# PCOD8275152 Si02
#       6
#    16  16  16  16  16   8
#     4   9  18  33  53  74  95 120 156 202 248 291
#     4   9  18  32  50  73 100 131 166 199 235 285
#     4   9  17  29  46  67  90 118 153 193 235 280
#     4   9  17  28  43  67  99 131 161 193 229 270
#     4   9  16  26  41  60  83 113 147 180 218 269
#     4   9  17  27  39  57  81 111 145 179 217 261
#
# _framework density 18.220412
#
# number of rings (size 3 to 8) (size 9 to 14) (size 15 to 20)
#    0.000    3.000    0.000    0.818    0.000    4.000 
#    0.000    3.636    2.000    0.000    0.000    5.091 
#    0.000    0.000    0.000    0.000    0.000    0.000 
#
# Total GULP energy -545306.541303 kJ/mol
# GULP energy per Si atom -12393.330484 kJ/mol
# Density = 1.817894 g / cm^3
# Si number density = 18.220412 Si / 1000 Ang^3
#
#
#
# Elastic Constant Matrix: (Units=GPa)
#
#
# Indices 1 2 3 4 5 6 
#
# 1 44.9599 22.5483 15.1951 0.0000 0.0000 0.0000
# 2 22.5483 129.0180 58.1481 0.0000 0.0000 0.0000
# 3 15.1951 58.1481 72.1950 0.0000 0.0000 0.0000
# 4 0.0000 0.0000 0.0000 27.0173 0.0000 0.0000
# 5 0.0000 0.0000 0.0000 0.0000 17.7303 0.0000
# 6 0.0000 0.0000 0.0000 0.0000 0.0000 19.8953
#
#
#
# Elastic Compliance Matrix: (Units=1/GPa)
#
#
# Indices 1 2 3 4 5 6 
#
# 1 0.024711 -0.003100 -0.002704 0.000000 0.000000 0.000000
# 2 -0.003100 0.012557 -0.009461 0.000000 0.000000 0.000000
# 3 -0.002704 -0.009461 0.022041 0.000000 0.000000 0.000000
# 4 0.000000 0.000000 0.000000 0.037013 0.000000 0.000000
# 5 0.000000 0.000000 0.000000 0.000000 0.056401 0.000000
# 6 0.000000 0.000000 0.000000 0.000000 0.000000 0.050263
#
#
# Mechanical properties :
#
#
# Convention : Reuss Voigt Hill
#
# Bulk Modulus (GPa) = 34.74903 48.66177 41.70540
# Shear Modulus (GPa) = 20.56697 22.94733 21.75715
#
# Velocity S-wave (km/s) = 3.36339 3.55269 3.45934
# Velocity P-wave (km/s) = 5.84774 6.60258 6.23659
#
# Compressibility (1/GPa) = 0.02877778
#
# Stress axis : x y z
#
# Youngs Moduli (GPa) = 40.46840 79.63858 45.37035
#
# Poissons Ratio (x) = 0.24687 0.12269
# Poissons Ratio (y) = 0.12545 0.42925
# Poissons Ratio (z) = 0.10943 0.75347
#
# Static dielectric constant tensor:
#      x y z
#    x 3.141700 0.000000 0.000000 
#    y 0.000000 3.385760 0.000000 
#    z 0.000000 0.000000 3.483190 
# 
# 
# High freq. dielectric constant tensor:
#      x y z
#    x 1.675830 0.000000 0.000000 
#    y 0.000000 1.703790 0.000000 
#    z 0.000000 0.000000 1.700190 
# 
# From -- ./inp_files/13985.got.cif
#   From: 2010.03.12/outbox.cif.g09.slc.cpg/sg65_7_cif.got.tgz:13985.got - 2010.04.10 20:52:16.
