data_PCOD8275099
_publ_section_title
;
Structure prediction by ZEFSAII (Michael W. Deem and Ramdas Pophale) SiO2 
 PCOD8275099
Probable space group: C M M M
;
_chemical_formula_sum "Si O2"
_cell_formula_units_Z 80
_cell_length_a 29.612578
_cell_length_b 9.889966
_cell_length_c 19.218750
_cell_angle_alpha 90.000000
_cell_angle_beta 90.000000
_cell_angle_gamma 90.000000
_cell_volume 5628.545144
_symmetry_space_group_name_H-M "C M M M"
_symmetry_group_IT_number 65
_symmetry_cell_setting 'orthorhombic'
loop_
_space_group_symop_operation_xyz
x,y,z
-x,-y,z
x,-y,-z
-x,y,-z
-x,-y,-z
x,y,-z
-x,y,z
x,-y,z
1/2+x,1/2+y,z
1/2-x,1/2-y,z
1/2+x,1/2-y,-z
1/2-x,1/2+y,-z
1/2-x,1/2-y,-z
1/2+x,1/2+y,-z
1/2-x,1/2+y,z
1/2+x,1/2-y,z
loop_
_atom_site_type_symbol
_atom_site_label
_atom_site_fract_x
_atom_site_fract_y
_atom_site_fract_z
Si Si1 0.051062 0.657002 0.188888
Si Si2 0.553920 0.500000 0.578992
Si Si3 0.209602 0.155849 0.082468
Si Si4 0.446238 0.752109 0.336070
Si Si5 0.946022 0.500000 0.577726
Si Si6 0.127331 0.345033 0.080686
O O1 0.052268 0.500000 0.210022
O O2 0.069562 0.740553 0.255658
O O3 0.082059 0.688454 0.122875
O O4 0.000000 0.700405 0.169307
O O5 0.500000 0.500000 0.575545
O O6 0.573052 0.500000 0.500000
O O7 0.572916 0.623463 0.623729
O O8 0.250000 0.250000 0.112327
O O9 0.164275 0.235182 0.104466
O O10 0.210478 0.000000 0.111754
O O11 0.213826 0.148088 0.000000
O O12 0.500000 0.756295 0.336384
O O13 0.426338 0.873515 0.381048
O O14 0.926326 0.500000 0.500000
O O15 0.000000 0.500000 0.575549
O O16 0.144033 0.500000 0.094726
O O17 0.115343 0.326899 0.000000
#
# Coordination Sequence:
#
# PCOD8275099 Si02
#       6
#    16   8  16  16   8  16
#     4   9  16  27  41  55  75 106 144 181 208 233
#     4   9  16  24  34  50  71  91 118 161 205 243
#     4   9  16  27  44  64  84 102 122 155 201 252
#     4   9  15  24  35  49  69  95 127 163 202 240
#     4   9  14  20  34  52  67  87 120 161 201 239
#     4   9  17  28  42  60  80 104 138 175 208 241
#
# _framework density 14.213265
#
# number of rings (size 3 to 8) (size 9 to 14) (size 15 to 20)
#    0.000    3.000    1.000    1.200    0.000    5.200 
#    1.800    2.000    0.000    0.000    0.000    2.800 
#    0.000    0.000    0.000    0.000    0.000    6.000 
#
# Total GULP energy -495628.858038 kJ/mol
# GULP energy per Si atom -12390.721451 kJ/mol
# Density = 1.418091 g / cm^3
# Si number density = 14.213265 Si / 1000 Ang^3
#
#
#
# Elastic Constant Matrix: (Units=GPa)
#
#
# Indices 1 2 3 4 5 6 
#
# 1 57.3164 38.9309 38.6055 0.0000 0.0000 0.0000
# 2 38.9309 113.0843 45.3469 0.0000 0.0000 0.0000
# 3 38.6055 45.3469 79.6435 0.0000 0.0000 0.0000
# 4 0.0000 0.0000 0.0000 21.4428 0.0000 0.0000
# 5 0.0000 0.0000 0.0000 0.0000 1.0260 0.0000
# 6 0.0000 0.0000 0.0000 0.0000 0.0000 12.8401
#
#
#
# Elastic Compliance Matrix: (Units=1/GPa)
#
#
# Indices 1 2 3 4 5 6 
#
# 1 0.028320 -0.005501 -0.010595 0.000000 0.000000 0.000000
# 2 -0.005501 0.012528 -0.004467 0.000000 0.000000 0.000000
# 3 -0.010595 -0.004467 0.020235 0.000000 0.000000 0.000000
# 4 0.000000 0.000000 0.000000 0.046636 0.000000 0.000000
# 5 0.000000 0.000000 0.000000 0.000000 0.974650 0.000000
# 6 0.000000 0.000000 0.000000 0.000000 0.000000 0.077881
#
#
# Mechanical properties :
#
#
# Convention : Reuss Voigt Hill
#
# Bulk Modulus (GPa) = 50.10764 55.09008 52.59886
# Shear Modulus (GPa) = 4.13898 15.53917 9.83907
#
# Velocity S-wave (km/s) = 1.70833 3.31008 2.63391
# Velocity P-wave (km/s) = 6.26273 7.31113 6.80714
#
# Compressibility (1/GPa) = 0.01995704
#
# Stress axis : x y z
#
# Youngs Moduli (GPa) = 35.31098 79.82255 49.41918
#
# Poissons Ratio (x) = 0.43908 0.52362
# Poissons Ratio (y) = 0.19424 0.22074
# Poissons Ratio (z) = 0.37414 0.35654
#
# Static dielectric constant tensor:
#      x y z
#    x 2.405840 0.000000 0.000000 
#    y 0.000000 2.964730 0.000000 
#    z 0.000000 0.000000 2.709690 
# 
# 
# High freq. dielectric constant tensor:
#      x y z
#    x 1.484600 0.000000 0.000000 
#    y 0.000000 1.551480 0.000000 
#    z 0.000000 0.000000 1.528990 
# 
# From -- ./inp_files/60084.got.cif
#   From: 2010.03.12/outbox.cif.g09.slc.cpg/sg65_31_cif.got.tgz:60084.got - 2010.04.10 20:52:16.
