data_PCOD8275223
_publ_section_title
;
Structure prediction by ZEFSAII (Michael W. Deem and Ramdas Pophale) SiO2 
 PCOD8275223
Probable space group: C C C M
;
_chemical_formula_sum "Si O2"
_cell_formula_units_Z 48
_cell_length_a 14.161644
_cell_length_b 7.453818
_cell_length_c 17.301808
_cell_angle_alpha 90.000000
_cell_angle_beta 90.000000
_cell_angle_gamma 90.000000
_cell_volume 1826.349733
_symmetry_space_group_name_H-M "C C C M"
_symmetry_group_IT_number 66
_symmetry_cell_setting 'orthorhombic'
loop_
_space_group_symop_operation_xyz
x,y,z
-x,-y,z
x,-y,1/2-z
-x,y,1/2-z
-x,-y,-z
x,y,-z
-x,y,1/2+z
x,-y,1/2+z
1/2+x,1/2+y,z
1/2-x,1/2-y,z
1/2+x,1/2-y,1/2-z
1/2-x,1/2+y,1/2-z
1/2-x,1/2-y,-z
1/2+x,1/2+y,-z
1/2-x,1/2+y,1/2+z
1/2+x,1/2-y,1/2+z
loop_
_atom_site_type_symbol
_atom_site_label
_atom_site_fract_x
_atom_site_fract_y
_atom_site_fract_z
Si Si1 0.868371 0.060175 0.663021
Si Si2 0.300595 0.940453 0.087546
Si Si3 0.518134 0.245419 0.089304
O O1 0.923131 0.247519 0.642984
O O2 0.886753 0.000000 0.750000
O O3 0.756098 0.076420 0.644452
O O4 0.916486 0.918967 0.604773
O O5 0.250000 0.750000 0.100106
O O6 0.413414 0.926819 0.107532
O O7 0.289167 0.007639 0.000000
O O8 0.487995 0.242041 0.000000
#
# Coordination Sequence:
#
# PCOD8275223 Si02
#       3
#    16  16  16
#     4  10  16  22  35  60  93 118 145 194 242 277
#     4   8  14  24  37  54  83 122 156 189 229 275
#     4   9  15  24  38  55  84 123 156 190 229 275
#
# _framework density 26.281932999999999
#
# number of rings (size 3 to 8) (size 9 to 14) (size 15 to 20)
#    0.000    3.000    0.000    8.000    0.000    0.000 
#    0.000    0.000    0.000    0.000    0.000    0.000 
#    0.000  289.333    0.000  278.667    0.000    0.000 
#
# Total GULP energy -297318.542229 kJ/mol
# GULP energy per Si atom -12388.272593 kJ/mol
# Density = 2.622211 g / cm^3
# Si number density = 26.281933 Si / 1000 Ang^3
#
#
#
# Elastic Constant Matrix: (Units=GPa)
#
#
# Indices 1 2 3 4 5 6 
#
# 1 250.9021 23.3436 105.5060 0.0000 0.0000 0.0000
# 2 23.3436 52.9909 41.5241 0.0000 0.0000 0.0000
# 3 105.5060 41.5241 150.7804 0.0000 0.0000 0.0000
# 4 0.0000 0.0000 0.0000 2.2230 0.0000 0.0000
# 5 0.0000 0.0000 0.0000 0.0000 -3.6748 0.0000
# 6 0.0000 0.0000 0.0000 0.0000 0.0000 21.9419
#
#
#
# Elastic Compliance Matrix: (Units=1/GPa)
#
#
# Indices 1 2 3 4 5 6 
#
# 1 0.005672 0.000780 -0.004184 0.000000 0.000000 0.000000
# 2 0.000780 0.024171 -0.007202 0.000000 0.000000 0.000000
# 3 -0.004184 -0.007202 0.011543 0.000000 0.000000 0.000000
# 4 0.000000 0.000000 0.000000 0.449839 0.000000 0.000000
# 5 0.000000 0.000000 0.000000 0.000000 -0.272121 0.000000
# 6 0.000000 0.000000 0.000000 0.000000 0.000000 0.045575
#
#
# Mechanical properties :
#
#
# Convention : Reuss Voigt Hill
#
# Bulk Modulus (GPa) = 49.56833 88.38010 68.97421
# Shear Modulus (GPa) = 17.08714 23.05132 20.06923
#
# Velocity S-wave (km/s) = 2.55257 2.96476 2.76635
# Velocity P-wave (km/s) = 5.25249 6.73947 6.04190
#
# Compressibility (1/GPa) = 0.02017417
#
# Stress axis : x y z
#
# Youngs Moduli (GPa) = 176.29080 41.37114 86.63051
#
# Poissons Ratio (x) = -0.03226 0.36246
# Poissons Ratio (y) = -0.13746 0.62394
# Poissons Ratio (z) = 0.73759 0.29797
#
# Static dielectric constant tensor:
#      x y z
#    x 6.629840 0.000000 0.000000 
#    y 0.000000 4.951320 0.000000 
#    z 0.000000 0.000000 4.138910 
# 
# 
# High freq. dielectric constant tensor:
#      x y z
#    x 2.090150 0.000000 0.000000 
#    y 0.000000 2.038100 0.000000 
#    z 0.000000 0.000000 2.008170 
# 
# From -- ./inp_files/23496.got.cif
#   From: 2010.03.12/outbox.cif.g09.slc.cpg/sg66_12_cif.got.tgz:23496.got - 2010.04.10 21:57:39.
