data_PCOD8275036
_publ_section_title
;
Structure prediction by ZEFSAII (Michael W. Deem and Ramdas Pophale) SiO2 
 PCOD8275036
Probable space group: C M M M
;
_chemical_formula_sum "Si O2"
_cell_formula_units_Z 72
_cell_length_a 28.416742
_cell_length_b 9.784551
_cell_length_c 18.119446
_cell_angle_alpha 90.000000
_cell_angle_beta 90.000000
_cell_angle_gamma 90.000000
_cell_volume 5038.022475
_symmetry_space_group_name_H-M "C M M M"
_symmetry_group_IT_number 65
_symmetry_cell_setting 'orthorhombic'
loop_
_space_group_symop_operation_xyz
x,y,z
-x,-y,z
x,-y,-z
-x,y,-z
-x,-y,-z
x,y,-z
-x,y,z
x,-y,z
1/2+x,1/2+y,z
1/2-x,1/2-y,z
1/2+x,1/2-y,-z
1/2-x,1/2+y,-z
1/2-x,1/2-y,-z
1/2+x,1/2+y,-z
1/2-x,1/2+y,z
1/2+x,1/2-y,z
loop_
_atom_site_type_symbol
_atom_site_label
_atom_site_fract_x
_atom_site_fract_y
_atom_site_fract_z
Si Si1 0.606917 0.838439 0.141368
Si Si2 0.444144 0.653001 0.418333
Si Si3 0.053103 0.336665 0.000000
Si Si4 0.944924 0.340786 0.713220
Si Si5 0.793296 0.657301 0.085866
O O1 0.584612 0.783618 0.217312
O O2 0.661718 0.797903 0.134394
O O3 0.601107 0.000000 0.138769
O O4 0.578434 0.775905 0.072417
O O5 0.425381 0.694235 0.500000
O O6 0.500000 0.657024 0.419136
O O7 0.426816 0.500000 0.398279
O O8 0.425383 0.759831 0.357909
O O9 0.055531 0.500000 0.000000
O O10 0.000000 0.283364 0.000000
O O11 0.935478 0.500000 0.698813
O O12 0.000000 0.313190 0.728330
O O13 0.779859 0.500000 0.100185
O O14 0.750000 0.750000 0.111811
O O15 0.805631 0.680760 0.000000
#
# Coordination Sequence:
#
# PCOD8275036 Si02
#       5
#    16  16   8  16  16
#     4   9  15  24  36  54  79 104 129 160 197 230
#     4   8  14  25  39  53  72 102 136 162 186 222
#     4   9  14  20  33  52  75 105 137 161 182 219
#     4   9  16  24  36  57  82 104 128 160 194 226
#     4   9  16  27  42  57  74  97 128 165 202 235
#
# _framework density 14.291321999999999
#
# number of rings (size 3 to 8) (size 9 to 14) (size 15 to 20)
#    0.000    3.222    1.111    1.333    0.000    3.111 
#    0.000    3.333    0.000    0.000    0.000    0.000 
#    0.000    6.222    0.000    2.000    0.000    3.556 
#
# Total GULP energy -446209.924250 kJ/mol
# GULP energy per Si atom -12394.720118 kJ/mol
# Density = 1.425879 g / cm^3
# Si number density = 14.291322 Si / 1000 Ang^3
#
#
#
# Elastic Constant Matrix: (Units=GPa)
#
#
# Indices 1 2 3 4 5 6 
#
# 1 76.2888 34.5642 53.1609 0.0000 0.0000 0.0000
# 2 34.5642 46.0954 49.1942 0.0000 0.0000 0.0000
# 3 53.1609 49.1942 128.4681 0.0000 0.0000 0.0000
# 4 0.0000 0.0000 0.0000 13.6516 0.0000 0.0000
# 5 0.0000 0.0000 0.0000 0.0000 8.6079 0.0000
# 6 0.0000 0.0000 0.0000 0.0000 0.0000 14.4880
#
#
#
# Elastic Compliance Matrix: (Units=1/GPa)
#
#
# Indices 1 2 3 4 5 6 
#
# 1 0.021329 -0.011117 -0.004569 0.000000 0.000000 0.000000
# 2 -0.011117 0.042482 -0.011667 0.000000 0.000000 0.000000
# 3 -0.004569 -0.011667 0.014142 0.000000 0.000000 0.000000
# 4 0.000000 0.000000 0.000000 0.073251 0.000000 0.000000
# 5 0.000000 0.000000 0.000000 0.000000 0.116173 0.000000
# 6 0.000000 0.000000 0.000000 0.000000 0.000000 0.069022
#
#
# Mechanical properties :
#
#
# Convention : Reuss Voigt Hill
#
# Bulk Modulus (GPa) = 43.01732 58.29902 50.65817
# Shear Modulus (GPa) = 12.53591 14.94504 13.74048
#
# Velocity S-wave (km/s) = 2.96492 3.23730 3.10410
# Velocity P-wave (km/s) = 6.47199 7.40644 6.95493
#
# Compressibility (1/GPa) = 0.02324645
#
# Stress axis : x y z
#
# Youngs Moduli (GPa) = 46.88531 23.53960 70.70952
#
# Poissons Ratio (x) = 0.26169 0.32306
# Poissons Ratio (y) = 0.52123 0.82498
# Poissons Ratio (z) = 0.21421 0.27464
#
# Static dielectric constant tensor:
#      x y z
#    x 2.619260 0.000000 0.000000 
#    y 0.000000 2.597780 0.000000 
#    z 0.000000 0.000000 3.019510 
# 
# 
# High freq. dielectric constant tensor:
#      x y z
#    x 1.515510 0.000000 0.000000 
#    y 0.000000 1.516750 0.000000 
#    z 0.000000 0.000000 1.542030 
# 
# From -- ./inp_files/38162.got.cif
#   From: 2010.03.12/outbox.cif.g09.slc.cpg/sg65_20_cif.got.tgz:38162.got - 2010.04.10 20:52:16.
