data_PCOD8275496
_publ_section_title
;
Structure prediction by ZEFSAII (Michael W. Deem and Ramdas Pophale) SiO2 
 PCOD8275496
Probable space group: C C C M
;
_chemical_formula_sum "Si O2"
_cell_formula_units_Z 88
_cell_length_a 23.324063
_cell_length_b 22.480472
_cell_length_c 9.518024
_cell_angle_alpha 90.000000
_cell_angle_beta 90.000000
_cell_angle_gamma 90.000000
_cell_volume 4990.642110
_symmetry_space_group_name_H-M "C C C M"
_symmetry_group_IT_number 66
_symmetry_cell_setting 'orthorhombic'
loop_
_space_group_symop_operation_xyz
x,y,z
-x,-y,z
x,-y,1/2-z
-x,y,1/2-z
-x,-y,-z
x,y,-z
-x,y,1/2+z
x,-y,1/2+z
1/2+x,1/2+y,z
1/2-x,1/2-y,z
1/2+x,1/2-y,1/2-z
1/2-x,1/2+y,1/2-z
1/2-x,1/2-y,-z
1/2+x,1/2+y,-z
1/2-x,1/2+y,1/2+z
1/2+x,1/2-y,1/2+z
loop_
_atom_site_type_symbol
_atom_site_label
_atom_site_fract_x
_atom_site_fract_y
_atom_site_fract_z
Si Si1 0.840885 0.339539 0.846009
Si Si2 0.747658 0.058924 0.837717
Si Si3 0.750000 0.250000 0.746542
Si Si4 0.823037 0.142811 0.658742
Si Si5 0.947701 0.317409 0.658704
Si Si6 0.948843 0.176456 0.656563
O O1 0.809658 0.402356 0.827673
O O2 0.795226 0.285818 0.841268
O O3 0.887563 0.336717 0.724503
O O4 0.870284 0.335716 0.000000
O O5 0.800056 0.094172 0.767018
O O6 0.735606 0.000000 0.750000
O O7 0.763222 0.044778 0.000000
O O8 0.784981 0.202812 0.652837
O O9 0.823637 0.117307 0.500000
O O10 0.886966 0.156743 0.713774
O O11 0.950876 0.342579 0.500000
O O12 0.951741 0.247035 0.658183
O O13 0.000000 0.344423 0.750000
O O14 0.958152 0.152029 0.500000
O O15 0.000000 0.149120 0.750000
#
# Coordination Sequence:
#
# PCOD8275496 Si02
#       6
#    16  16   8  16  16  16
#     4  10  20  33  51  76 106 137 171 214 258 309
#     4  10  22  38  55  77 102 135 176 215 264 310
#     4  10  18  30  48  76 108 138 172 206 254 312
#     4  10  19  32  52  76 105 137 172 214 255 307
#     4  10  19  32  49  74 106 142 177 209 253 306
#     4   9  18  31  46  72 104 139 174 206 248 302
#
# _framework density 17.633001
#
# number of rings (size 3 to 8) (size 9 to 14) (size 15 to 20)
#    0.000    2.182    1.818    1.636    0.000    5.818 
#    0.000    0.000    0.000    1.091    0.000    7.636 
#    0.000    0.000    0.000    0.000    0.000    0.000 
#
# Total GULP energy -545492.555775 kJ/mol
# GULP energy per Si atom -12397.558086 kJ/mol
# Density = 1.759287 g / cm^3
# Si number density = 17.633001 Si / 1000 Ang^3
#
#
#
# Elastic Constant Matrix: (Units=GPa)
#
#
# Indices 1 2 3 4 5 6 
#
# 1 120.5962 22.0407 66.6294 0.0000 0.0000 0.0000
# 2 22.0407 63.2794 36.6914 0.0000 0.0000 0.0000
# 3 66.6294 36.6914 141.8739 0.0000 0.0000 0.0000
# 4 0.0000 0.0000 0.0000 18.2199 0.0000 0.0000
# 5 0.0000 0.0000 0.0000 0.0000 33.9816 0.0000
# 6 0.0000 0.0000 0.0000 0.0000 0.0000 13.3748
#
#
#
# Elastic Compliance Matrix: (Units=1/GPa)
#
#
# Indices 1 2 3 4 5 6 
#
# 1 0.011252 -0.001006 -0.005024 0.000000 0.000000 0.000000
# 2 -0.001006 0.018681 -0.004359 0.000000 0.000000 0.000000
# 3 -0.005024 -0.004359 0.010535 0.000000 0.000000 0.000000
# 4 0.000000 0.000000 0.000000 0.054885 0.000000 0.000000
# 5 0.000000 0.000000 0.000000 0.000000 0.029428 0.000000
# 6 0.000000 0.000000 0.000000 0.000000 0.000000 0.074767
#
#
# Mechanical properties :
#
#
# Convention : Reuss Voigt Hill
#
# Bulk Modulus (GPa) = 50.78692 64.05250 57.41971
# Shear Modulus (GPa) = 22.03721 26.47446 24.25584
#
# Velocity S-wave (km/s) = 3.53905 3.87901 3.71292
# Velocity P-wave (km/s) = 6.75015 7.51442 7.14252
#
# Compressibility (1/GPa) = 0.01969011
#
# Stress axis : x y z
#
# Youngs Moduli (GPa) = 88.87452 53.53129 94.91906
#
# Poissons Ratio (x) = 0.05385 0.47689
# Poissons Ratio (y) = 0.08940 0.41373
# Poissons Ratio (z) = 0.44652 0.23333
#
# Static dielectric constant tensor:
#      x y z
#    x 3.336020 0.000000 0.000000 
#    y 0.000000 2.951210 0.000000 
#    z 0.000000 0.000000 3.452670 
# 
# 
# High freq. dielectric constant tensor:
#      x y z
#    x 1.684750 0.000000 0.000000 
#    y 0.000000 1.640610 0.000000 
#    z 0.000000 0.000000 1.694400 
# 
# From -- ./inp_files/7779.got.cif
#   From: 2010.03.12/outbox.cif.g09.slc.cpg/sg66_4_cif.got.tgz:7779.got - 2010.04.10 21:57:39.
