data_PCOD8275813
_publ_section_title
;
Structure prediction by ZEFSAII (Michael W. Deem and Ramdas Pophale) SiO2 
 PCOD8275813
Probable space group: C C C M
;
_chemical_formula_sum "Si O2"
_cell_formula_units_Z 68
_cell_length_a 11.270818
_cell_length_b 19.673527
_cell_length_c 13.278391
_cell_angle_alpha 90.000000
_cell_angle_beta 90.000000
_cell_angle_gamma 90.000000
_cell_volume 2944.307162
_symmetry_space_group_name_H-M "C C C M"
_symmetry_group_IT_number 66
_symmetry_cell_setting 'orthorhombic'
loop_
_space_group_symop_operation_xyz
x,y,z
-x,-y,z
x,-y,1/2-z
-x,y,1/2-z
-x,-y,-z
x,y,-z
-x,y,1/2+z
x,-y,1/2+z
1/2+x,1/2+y,z
1/2-x,1/2-y,z
1/2+x,1/2-y,1/2-z
1/2-x,1/2+y,1/2-z
1/2-x,1/2-y,-z
1/2+x,1/2+y,-z
1/2-x,1/2+y,1/2+z
1/2+x,1/2-y,1/2+z
loop_
_atom_site_type_symbol
_atom_site_label
_atom_site_fract_x
_atom_site_fract_y
_atom_site_fract_z
Si Si1 0.555205 0.725571 0.115472
Si Si2 0.696637 0.678065 0.609898
Si Si3 0.000000 0.000000 0.750000
Si Si4 0.126537 0.364673 0.222034
Si Si5 0.827396 0.086375 0.612373
O O1 0.433623 0.691148 0.158953
O O2 0.600100 0.789359 0.179375
O O3 0.654298 0.667690 0.119760
O O4 0.531996 0.749185 0.000000
O O5 0.684709 0.640236 0.500000
O O6 0.750000 0.750000 0.587392
O O7 0.782760 0.636181 0.683088
O O8 0.916913 0.954061 0.818148
O O9 0.189053 0.417537 0.144995
O O10 0.000000 0.397577 0.250000
O O11 0.844283 0.058300 0.500000
#
# Coordination Sequence:
#
# PCOD8275813 Si02
#       5
#    16  16   4  16  16
#     4  10  21  37  60  93 133 171 211 268 332 396
#     4  10  19  31  48  79 127 174 210 242 299 386
#     4  12  26  48  78  90 124 176 234 288 332 386
#     4  12  23  34  62  98 141 175 208 260 339 408
#     4  11  25  44  68  98 128 170 231 285 330 388
#
# _framework density 23.095417999999999
#
# number of rings (size 3 to 8) (size 9 to 14) (size 15 to 20)
#    0.000    1.176    2.353    4.588    1.647    2.824 
#    0.000    1.765    0.000    1.412    0.000    0.000 
#    0.000    0.000    0.000    0.000    0.000    0.000 
#
# Total GULP energy -421410.812349 kJ/mol
# GULP energy per Si atom -12394.435657 kJ/mol
# Density = 2.304285 g / cm^3
# Si number density = 23.095418 Si / 1000 Ang^3
#
#
#
# Elastic Constant Matrix: (Units=GPa)
#
#
# Indices 1 2 3 4 5 6 
#
# 1 188.3190 30.5065 73.9440 0.0000 0.0000 0.0000
# 2 30.5065 40.0297 38.2873 0.0000 0.0000 0.0000
# 3 73.9440 38.2873 134.9817 0.0000 0.0000 0.0000
# 4 0.0000 0.0000 0.0000 -32.3027 0.0000 0.0000
# 5 0.0000 0.0000 0.0000 0.0000 35.0726 0.0000
# 6 0.0000 0.0000 0.0000 0.0000 0.0000 21.2212
#
#
#
# Elastic Compliance Matrix: (Units=1/GPa)
#
#
# Indices 1 2 3 4 5 6 
#
# 1 0.006911 -0.002258 -0.003145 0.000000 0.000000 0.000000
# 2 -0.002258 0.035020 -0.008696 0.000000 0.000000 0.000000
# 3 -0.003145 -0.008696 0.011598 0.000000 0.000000 0.000000
# 4 0.000000 0.000000 0.000000 -0.030957 0.000000 0.000000
# 5 0.000000 0.000000 0.000000 0.000000 0.028512 0.000000
# 6 0.000000 0.000000 0.000000 0.000000 0.000000 0.047123
#
#
# Mechanical properties :
#
#
# Convention : Reuss Voigt Hill
#
# Bulk Modulus (GPa) = 39.47978 72.08958 55.78468
# Shear Modulus (GPa) = 37.07809 19.50438 28.29124
#
# Velocity S-wave (km/s) = 4.01113 2.90920 3.50376
# Velocity P-wave (km/s) = 6.21156 6.52428 6.36984
#
# Compressibility (1/GPa) = 0.02532942
#
# Stress axis : x y z
#
# Youngs Moduli (GPa) = 144.69679 28.55482 86.22096
#
# Poissons Ratio (x) = 0.06449 0.27119
# Poissons Ratio (y) = 0.32679 0.74980
# Poissons Ratio (z) = 0.45511 0.24832
#
# Static dielectric constant tensor:
#      x y z
#    x 4.064050 0.000000 0.000000 
#    y 0.000000 3.536380 0.000000 
#    z 0.000000 0.000000 4.700560 
# 
# 
# High freq. dielectric constant tensor:
#      x y z
#    x 1.932650 0.000000 0.000000 
#    y 0.000000 1.844520 0.000000 
#    z 0.000000 0.000000 1.938630 
# 
# From -- ./inp_files/26101.got.cif
#   From: 2010.03.12/outbox.cif.g09.slc.cpg/sg66_14_cif.got.tgz:26101.got - 2010.04.10 21:57:39.
