data_PCOD8275096
_publ_section_title
;
Structure prediction by ZEFSAII (Michael W. Deem and Ramdas Pophale) SiO2 
 PCOD8275096
Probable space group: C M M M
;
_chemical_formula_sum "Si O2"
_cell_formula_units_Z 96
_cell_length_a 9.710615
_cell_length_b 26.435812
_cell_length_c 22.373456
_cell_angle_alpha 90.000000
_cell_angle_beta 90.000000
_cell_angle_gamma 90.000000
_cell_volume 5743.444976
_symmetry_space_group_name_H-M "C M M M"
_symmetry_group_IT_number 65
_symmetry_cell_setting 'orthorhombic'
loop_
_space_group_symop_operation_xyz
x,y,z
-x,-y,z
x,-y,-z
-x,y,-z
-x,-y,-z
x,y,-z
-x,y,z
x,-y,z
1/2+x,1/2+y,z
1/2-x,1/2-y,z
1/2+x,1/2-y,-z
1/2-x,1/2+y,-z
1/2-x,1/2-y,-z
1/2+x,1/2+y,-z
1/2-x,1/2+y,z
1/2+x,1/2-y,z
loop_
_atom_site_type_symbol
_atom_site_label
_atom_site_fract_x
_atom_site_fract_y
_atom_site_fract_z
Si Si1 0.660255 0.298605 0.430185
Si Si2 0.163404 0.900537 0.366432
Si Si3 0.844228 0.795358 0.067744
Si Si4 0.836028 0.057329 0.757211
Si Si5 0.153405 0.941075 0.000000
Si Si6 0.840027 0.899592 0.879775
Si Si7 0.835930 0.000000 0.432606
O O1 0.680579 0.310689 0.500000
O O2 0.500000 0.287474 0.415827
O O3 0.750000 0.250000 0.410769
O O4 0.716805 0.347377 0.393545
O O5 0.212409 0.907123 0.297657
O O6 0.000000 0.900815 0.371939
O O7 0.222801 0.949067 0.402005
O O8 0.750000 0.750000 0.089463
O O9 0.819480 0.839640 0.115429
O O10 0.000000 0.775954 0.070031
O O11 0.807206 0.813302 0.000000
O O12 0.772013 0.079858 0.818672
O O13 0.000000 0.057586 0.759867
O O14 0.782684 0.000000 0.748104
O O15 0.230396 0.924195 0.061027
O O16 0.000000 0.915365 0.000000
O O17 0.139498 0.000000 0.000000
O O18 0.000000 0.915231 0.879146
O O19 0.782902 0.000000 0.500000
O O20 0.000000 0.000000 0.428208
#
# Coordination Sequence:
#
# PCOD8275096 Si02
#       7
#    16  16  16  16   8  16   8
#     4   9  17  29  45  65  89 118 150 182 217 256
#     4   9  15  24  37  57  85 113 142 175 215 261
#     4   9  16  27  42  59  81 107 136 171 210 248
#     4   9  15  23  35  54  83 116 140 164 210 266
#     4   9  14  20  31  50  75 101 131 167 204 247
#     4   9  15  23  35  53  78 108 138 168 206 250
#     4   9  14  20  34  56  81 106 134 174 220 260
#
# _framework density 16.714707000000001
#
# number of rings (size 3 to 8) (size 9 to 14) (size 15 to 20)
#    0.000    3.000    1.667    1.000    0.000    4.000 
#    0.000    0.833    0.000    0.000    0.000    0.583 
#    0.000    8.000    0.000    0.000    0.000    0.000 
#
# Total GULP energy -594828.798220 kJ/mol
# GULP energy per Si atom -12392.266630 kJ/mol
# Density = 1.667666 g / cm^3
# Si number density = 16.714707 Si / 1000 Ang^3
#
#
#
# Elastic Constant Matrix: (Units=GPa)
#
#
# Indices 1 2 3 4 5 6 
#
# 1 18.1747 28.0075 15.0670 0.0000 0.0000 0.0000
# 2 28.0075 136.3518 77.8687 0.0000 0.0000 0.0000
# 3 15.0670 77.8687 139.6158 0.0000 0.0000 0.0000
# 4 0.0000 0.0000 0.0000 30.2458 0.0000 0.0000
# 5 0.0000 0.0000 0.0000 0.0000 7.0579 0.0000
# 6 0.0000 0.0000 0.0000 0.0000 0.0000 17.0195
#
#
#
# Elastic Compliance Matrix: (Units=1/GPa)
#
#
# Indices 1 2 3 4 5 6 
#
# 1 0.080563 -0.016997 0.000786 0.000000 0.000000 0.000000
# 2 -0.016997 0.014348 -0.006168 0.000000 0.000000 0.000000
# 3 0.000786 -0.006168 0.010518 0.000000 0.000000 0.000000
# 4 0.000000 0.000000 0.000000 0.033062 0.000000 0.000000
# 5 0.000000 0.000000 0.000000 0.000000 0.141686 0.000000
# 6 0.000000 0.000000 0.000000 0.000000 0.000000 0.058756
#
#
# Mechanical properties :
#
#
# Convention : Reuss Voigt Hill
#
# Bulk Modulus (GPa) = 16.48263 59.55875 38.02069
# Shear Modulus (GPa) = 12.37887 22.41122 17.39505
#
# Velocity S-wave (km/s) = 2.72434 3.66568 3.22949
# Velocity P-wave (km/s) = 4.44732 7.32299 6.05825
#
# Compressibility (1/GPa) = 0.06066993
#
# Stress axis : x y z
#
# Youngs Moduli (GPa) = 12.41269 69.69796 95.07672
#
# Poissons Ratio (x) = 1.18463 -0.07468
# Poissons Ratio (y) = 0.21097 0.58643
# Poissons Ratio (z) = -0.00975 0.42989
#
# Static dielectric constant tensor:
#      x y z
#    x 2.477200 0.000000 0.000000 
#    y 0.000000 3.217490 0.000000 
#    z 0.000000 0.000000 3.385400 
# 
# 
# High freq. dielectric constant tensor:
#      x y z
#    x 1.556340 0.000000 0.000000 
#    y 0.000000 1.653020 0.000000 
#    z 0.000000 0.000000 1.648990 
# 
# From -- ./inp_files/61764.got.cif
#   From: 2010.03.12/outbox.cif.g09.slc.cpg/sg65_31_cif.got.tgz:61764.got - 2010.04.10 20:52:16.
