data_PCOD8275912
_publ_section_title
;
Structure prediction by ZEFSAII (Michael W. Deem and Ramdas Pophale) SiO2 
 PCOD8275912
Probable space group: C C C M
;
_chemical_formula_sum "Si O2"
_cell_formula_units_Z 116
_cell_length_a 28.628462
_cell_length_b 22.780164
_cell_length_c 9.151290
_cell_angle_alpha 90.000000
_cell_angle_beta 90.000000
_cell_angle_gamma 90.000000
_cell_volume 5968.114982
_symmetry_space_group_name_H-M "C C C M"
_symmetry_group_IT_number 66
_symmetry_cell_setting 'orthorhombic'
loop_
_space_group_symop_operation_xyz
x,y,z
-x,-y,z
x,-y,1/2-z
-x,y,1/2-z
-x,-y,-z
x,y,-z
-x,y,1/2+z
x,-y,1/2+z
1/2+x,1/2+y,z
1/2-x,1/2-y,z
1/2+x,1/2-y,1/2-z
1/2-x,1/2+y,1/2-z
1/2-x,1/2-y,-z
1/2+x,1/2+y,-z
1/2-x,1/2+y,1/2+z
1/2+x,1/2-y,1/2+z
loop_
_atom_site_type_symbol
_atom_site_label
_atom_site_fract_x
_atom_site_fract_y
_atom_site_fract_z
Si Si1 0.500000 0.500000 0.750000
Si Si2 0.914608 0.560458 0.829592
Si Si3 0.642788 0.348733 0.326997
Si Si4 0.542411 0.386650 0.338697
Si Si5 0.954764 0.670736 0.328508
Si Si6 0.222398 0.060889 0.171679
Si Si7 0.357469 0.228638 0.329949
Si Si8 0.817928 0.620425 0.831810
O O1 0.466116 0.542557 0.655292
O O2 0.925879 0.500000 0.750000
O O3 0.945746 0.609037 0.750429
O O4 0.860078 0.574991 0.809919
O O5 0.928370 0.556880 0.000000
O O6 0.642580 0.339050 0.500000
O O7 0.592590 0.371939 0.268681
O O8 0.681172 0.395842 0.279952
O O9 0.655936 0.288327 0.249924
O O10 0.500000 0.355948 0.250000
O O11 0.540599 0.360211 0.500000
O O12 0.963382 0.660438 0.500000
O O13 0.911825 0.714629 0.300955
O O14 0.000000 0.699196 0.250000
O O15 0.271367 0.088388 0.223175
O O16 0.213379 0.000000 0.250000
O O17 0.222465 0.049454 0.000000
O O18 0.346425 0.234606 0.500000
O O19 0.324851 0.177790 0.266040
O O20 0.813797 0.640573 0.000000
#
# Coordination Sequence:
#
# PCOD8275912 Si02
#       8
#     4  16  16  16  16  16  16  16
#     4   8  18  32  54  76 106 140 190 224 268 320
#     4  10  19  32  53  80 111 146 184 224 272 326
#     4  10  22  39  56  81 115 150 184 225 279 335
#     4   9  19  33  53  78 106 143 184 225 273 324
#     4  10  21  37  56  79 108 141 182 229 279 328
#     4  10  22  38  59  87 117 148 183 223 275 329
#     4  10  22  39  59  83 108 143 188 233 275 323
#     4   9  19  37  59  82 110 148 186 225 273 329
#
# _framework density 19.436622
#
# number of rings (size 3 to 8) (size 9 to 14) (size 15 to 20)
#    0.414    1.931    0.000    1.862    0.966    5.241 
#    0.000    6.897    0.000    0.000    0.000    0.000 
#    0.000    0.000    0.000    0.000    0.000    0.000 
#
# Total GULP energy -719180.269966 kJ/mol
# GULP energy per Si atom -12399.659827 kJ/mol
# Density = 1.939238 g / cm^3
# Si number density = 19.436622 Si / 1000 Ang^3
#
#
#
# Elastic Constant Matrix: (Units=GPa)
#
#
# Indices 1 2 3 4 5 6 
#
# 1 85.9165 30.6920 38.1578 0.0000 0.0000 0.0000
# 2 30.6920 114.3486 50.0047 0.0000 0.0000 0.0000
# 3 38.1578 50.0047 86.6665 0.0000 0.0000 0.0000
# 4 0.0000 0.0000 0.0000 30.7184 0.0000 0.0000
# 5 0.0000 0.0000 0.0000 0.0000 27.8204 0.0000
# 6 0.0000 0.0000 0.0000 0.0000 0.0000 22.2554
#
#
#
# Elastic Compliance Matrix: (Units=1/GPa)
#
#
# Indices 1 2 3 4 5 6 
#
# 1 0.014655 -0.001487 -0.005594 0.000000 0.000000 0.000000
# 2 -0.001487 0.011847 -0.006181 0.000000 0.000000 0.000000
# 3 -0.005594 -0.006181 0.017568 0.000000 0.000000 0.000000
# 4 0.000000 0.000000 0.000000 0.032554 0.000000 0.000000
# 5 0.000000 0.000000 0.000000 0.000000 0.035945 0.000000
# 6 0.000000 0.000000 0.000000 0.000000 0.000000 0.044933
#
#
# Mechanical properties :
#
#
# Convention : Reuss Voigt Hill
#
# Bulk Modulus (GPa) = 56.99478 58.29342 57.64410
# Shear Modulus (GPa) = 26.33316 27.36398 26.84857
#
# Velocity S-wave (km/s) = 3.68478 3.75621 3.72067
# Velocity P-wave (km/s) = 6.89134 6.99062 6.94116
#
# Compressibility (1/GPa) = 0.01754547
#
# Stress axis : x y z
#
# Youngs Moduli (GPa) = 68.23590 84.40794 56.92239
#
# Poissons Ratio (x) = 0.12552 0.31844
# Poissons Ratio (y) = 0.10147 0.35183
# Poissons Ratio (z) = 0.38173 0.52171
#
# Static dielectric constant tensor:
#      x y z
#    x 3.660800 0.000000 0.000000 
#    y 0.000000 3.335060 0.000000 
#    z 0.000000 0.000000 3.463720 
# 
# 
# High freq. dielectric constant tensor:
#      x y z
#    x 1.761250 0.000000 0.000000 
#    y 0.000000 1.750790 0.000000 
#    z 0.000000 0.000000 1.754850 
# 
# From -- ./inp_files/11741.got.cif
#   From: 2010.03.12/outbox.cif.g09.slc.cpg/sg66_6_cif.got.tgz:11741.got - 2010.04.10 21:57:39.
