data_PCOD8275314
_publ_section_title
;
Structure prediction by ZEFSAII (Michael W. Deem and Ramdas Pophale) SiO2 
 PCOD8275314
Probable space group: C C C M
;
_chemical_formula_sum "Si O2"
_cell_formula_units_Z 112
_cell_length_a 11.419824
_cell_length_b 26.909414
_cell_length_c 20.209780
_cell_angle_alpha 90.000000
_cell_angle_beta 90.000000
_cell_angle_gamma 90.000000
_cell_volume 6210.480992
_symmetry_space_group_name_H-M "C C C M"
_symmetry_group_IT_number 66
_symmetry_cell_setting 'orthorhombic'
loop_
_space_group_symop_operation_xyz
x,y,z
-x,-y,z
x,-y,1/2-z
-x,y,1/2-z
-x,-y,-z
x,y,-z
-x,y,1/2+z
x,-y,1/2+z
1/2+x,1/2+y,z
1/2-x,1/2-y,z
1/2+x,1/2-y,1/2-z
1/2-x,1/2+y,1/2-z
1/2-x,1/2-y,-z
1/2+x,1/2+y,-z
1/2-x,1/2+y,1/2+z
1/2+x,1/2-y,1/2+z
loop_
_atom_site_type_symbol
_atom_site_label
_atom_site_fract_x
_atom_site_fract_y
_atom_site_fract_z
Si Si1 0.710863 0.379997 0.149383
Si Si2 0.229127 0.647883 0.705894
Si Si3 0.439455 0.929672 0.352441
Si Si4 0.069395 0.649524 0.075088
Si Si5 0.828187 0.476117 0.819236
Si Si6 0.953835 0.722899 0.176025
Si Si7 0.474213 0.664347 0.327025
O O1 0.746926 0.350318 0.215685
O O2 0.795046 0.363506 0.089649
O O3 0.722615 0.440216 0.156853
O O4 0.575962 0.365030 0.132851
O O5 0.138904 0.603867 0.694934
O O6 0.177495 0.700395 0.679588
O O7 0.348392 0.637477 0.664250
O O8 0.484533 0.898845 0.416187
O O9 0.554657 0.943401 0.309754
O O10 0.362551 0.979063 0.370707
O O11 0.032461 0.692589 0.124743
O O12 0.058332 0.667966 0.000000
O O13 0.790128 0.500000 0.750000
O O14 0.959311 0.778920 0.149143
O O15 0.000000 0.717223 0.250000
O O16 0.500000 0.664115 0.250000
#
# Coordination Sequence:
#
# PCOD8275314 Si02
#       7
#    16  16  16  16  16  16  16
#     4  10  19  32  49  72 111 145 172 217 274 319
#     4  10  17  30  52  77 103 136 174 223 266 316
#     4   9  18  28  51  77 101 130 172 216 271 315
#     4  10  21  34  53  82 113 137 176 228 276 324
#     4  10  17  27  51  79 104 137 176 216 274 328
#     4  10  18  32  56  77 100 141 183 220 276 325
#     4   9  20  32  47  75 108 138 181 223 256 318
#
# _framework density 18.034029
#
# number of rings (size 3 to 8) (size 9 to 14) (size 15 to 20)
#    0.000    2.286    2.857    1.286    2.000    0.571 
#    0.000    7.857    0.000   10.286    0.000    0.000 
#    0.000   14.857    0.000    0.000    0.000    0.000 
#
# Total GULP energy -693798.986254 kJ/mol
# GULP energy per Si atom -12389.267612 kJ/mol
# Density = 1.799298 g / cm^3
# Si number density = 18.034029 Si / 1000 Ang^3
#
#
#
# Elastic Constant Matrix: (Units=GPa)
#
#
# Indices 1 2 3 4 5 6 
#
# 1 97.7801 41.6429 14.1865 0.0000 0.0000 0.0000
# 2 41.6429 101.4448 12.6291 0.0000 0.0000 0.0000
# 3 14.1865 12.6291 63.2486 0.0000 0.0000 0.0000
# 4 0.0000 0.0000 0.0000 4.2221 0.0000 0.0000
# 5 0.0000 0.0000 0.0000 0.0000 12.9218 0.0000
# 6 0.0000 0.0000 0.0000 0.0000 0.0000 28.4632
#
#
#
# Elastic Compliance Matrix: (Units=1/GPa)
#
#
# Indices 1 2 3 4 5 6 
#
# 1 0.012599 -0.004943 -0.001839 0.000000 0.000000 0.000000
# 2 -0.004943 0.012048 -0.001297 0.000000 0.000000 0.000000
# 3 -0.001839 -0.001297 0.016482 0.000000 0.000000 0.000000
# 4 0.000000 0.000000 0.000000 0.236851 0.000000 0.000000
# 5 0.000000 0.000000 0.000000 0.000000 0.077389 0.000000
# 6 0.000000 0.000000 0.000000 0.000000 0.000000 0.035133
#
#
# Mechanical properties :
#
#
# Convention : Reuss Voigt Hill
#
# Bulk Modulus (GPa) = 40.04584 44.37674 42.21129
# Shear Modulus (GPa) = 12.04867 22.05574 17.05220
#
# Velocity S-wave (km/s) = 2.58758 3.50094 3.07833
# Velocity P-wave (km/s) = 5.58403 6.40334 6.00767
#
# Compressibility (1/GPa) = 0.02497138
#
# Stress axis : x y z
#
# Youngs Moduli (GPa) = 79.37182 83.00062 60.67198
#
# Poissons Ratio (x) = 0.41026 0.11157
# Poissons Ratio (y) = 0.39233 0.07869
# Poissons Ratio (z) = 0.14596 0.10765
#
# Static dielectric constant tensor:
#      x y z
#    x 3.597190 0.000000 0.000000 
#    y 0.000000 3.640780 0.000000 
#    z 0.000000 0.000000 2.745470 
# 
# 
# High freq. dielectric constant tensor:
#      x y z
#    x 1.693620 0.000000 0.000000 
#    y 0.000000 1.705960 0.000000 
#    z 0.000000 0.000000 1.634460 
# 
# From -- ./inp_files/49137.got.cif
#   From: 2010.03.12/outbox.cif.g09.slc.cpg/sg66_25_cif.got.tgz:49137.got - 2010.04.10 21:57:39.
