data_PCOD8275109
_publ_section_title
;
Structure prediction by ZEFSAII (Michael W. Deem and Ramdas Pophale) SiO2 
 PCOD8275109
Probable space group: C M M M
;
_chemical_formula_sum "Si O2"
_cell_formula_units_Z 96
_cell_length_a 26.819714
_cell_length_b 20.981611
_cell_length_c 9.720758
_cell_angle_alpha 90.000000
_cell_angle_beta 90.000000
_cell_angle_gamma 90.000000
_cell_volume 5470.072779
_symmetry_space_group_name_H-M "C M M M"
_symmetry_group_IT_number 65
_symmetry_cell_setting 'orthorhombic'
loop_
_space_group_symop_operation_xyz
x,y,z
-x,-y,z
x,-y,-z
-x,y,-z
-x,-y,-z
x,y,-z
-x,y,z
x,-y,z
1/2+x,1/2+y,z
1/2-x,1/2-y,z
1/2+x,1/2-y,-z
1/2-x,1/2+y,-z
1/2-x,1/2-y,-z
1/2+x,1/2+y,-z
1/2-x,1/2+y,z
1/2+x,1/2-y,z
loop_
_atom_site_type_symbol
_atom_site_label
_atom_site_fract_x
_atom_site_fract_y
_atom_site_fract_z
Si Si1 0.602207 0.865792 0.163893
Si Si2 0.795910 0.571404 0.163702
Si Si3 0.726429 0.315777 0.163330
Si Si4 0.941341 0.889891 0.847059
Si Si5 0.559584 0.500000 0.654121
Si Si6 0.500000 0.927632 0.836015
Si Si7 0.878849 0.774240 0.160743
O O1 0.648281 0.909777 0.212138
O O2 0.549804 0.892975 0.221481
O O3 0.611563 0.795057 0.226993
O O4 0.599305 0.863229 0.000000
O O5 0.783748 0.500000 0.218693
O O6 0.755673 0.622407 0.223864
O O7 0.793899 0.572222 0.000000
O O8 0.750000 0.250000 0.216737
O O9 0.669484 0.312527 0.217165
O O10 0.730061 0.319935 0.000000
O O11 0.926255 0.818329 0.806275
O O12 0.000000 0.894135 0.848806
O O13 0.919551 0.938731 0.735393
O O14 0.920448 0.906870 0.000000
O O15 0.500000 0.500000 0.650490
O O16 0.581424 0.500000 0.500000
O O17 0.500000 0.000000 0.781996
O O18 0.500000 0.926320 0.000000
O O19 0.870348 0.762643 0.000000
#
# Coordination Sequence:
#
# PCOD8275109 Si02
#       7
#    16  16  16  16   8   8  16
#     4   9  15  22  32  44  63  95 133 169 207 250
#     4   9  15  22  32  44  60  88 130 175 215 253
#     4   9  14  23  34  45  65  97 136 173 210 252
#     4   9  17  28  43  63  88 114 143 179 219 261
#     4   9  17  31  49  65  83 113 149 179 215 262
#     4   9  16  22  28  42  64  89 127 176 210 239
#     4   9  16  24  35  52  74 105 138 170 208 254
#
# _framework density 17.550041
#
# number of rings (size 3 to 8) (size 9 to 14) (size 15 to 20)
#    0.000    3.000    1.667    0.750    1.167    3.000 
#    1.500    0.000    0.000    0.000    0.000    0.000 
#    0.000    0.667    0.000    0.000    0.000    3.833 
#
# Total GULP energy -594745.398878 kJ/mol
# GULP energy per Si atom -12390.529143 kJ/mol
# Density = 1.751010 g / cm^3
# Si number density = 17.550041 Si / 1000 Ang^3
#
#
#
# Elastic Constant Matrix: (Units=GPa)
#
#
# Indices 1 2 3 4 5 6 
#
# 1 81.7065 62.8395 9.3487 0.0000 0.0000 0.0000
# 2 62.8395 171.0532 24.7240 0.0000 0.0000 0.0000
# 3 9.3487 24.7240 27.5545 0.0000 0.0000 0.0000
# 4 0.0000 0.0000 0.0000 0.2170 0.0000 0.0000
# 5 0.0000 0.0000 0.0000 0.0000 2.2930 0.0000
# 6 0.0000 0.0000 0.0000 0.0000 0.0000 34.6370
#
#
#
# Elastic Compliance Matrix: (Units=1/GPa)
#
#
# Indices 1 2 3 4 5 6 
#
# 1 0.017060 -0.006240 -0.000189 0.000000 0.000000 0.000000
# 2 -0.006240 0.009000 -0.005958 0.000000 0.000000 0.000000
# 3 -0.000189 -0.005958 0.041702 0.000000 0.000000 0.000000
# 4 0.000000 0.000000 0.000000 4.608683 0.000000 0.000000
# 5 0.000000 0.000000 0.000000 0.000000 0.436113 0.000000
# 6 0.000000 0.000000 0.000000 0.000000 0.000000 0.028871
#
#
# Mechanical properties :
#
#
# Convention : Reuss Voigt Hill
#
# Bulk Modulus (GPa) = 23.26281 52.68205 37.97243
# Shear Modulus (GPa) = 0.96515 19.65620 10.31067
#
# Velocity S-wave (km/s) = 0.74239 3.35028 2.42647
# Velocity P-wave (km/s) = 3.74416 6.71187 5.43452
#
# Compressibility (1/GPa) = 0.04298706
#
# Stress axis : x y z
#
# Youngs Moduli (GPa) = 58.61833 111.11588 23.97967
#
# Poissons Ratio (x) = 0.69334 0.00454
# Poissons Ratio (y) = 0.36577 0.14287
# Poissons Ratio (z) = 0.01109 0.66204
#
# Static dielectric constant tensor:
#      x y z
#    x 3.343040 0.000000 0.000000 
#    y 0.000000 3.563190 0.000000 
#    z 0.000000 0.000000 2.504840 
# 
# 
# High freq. dielectric constant tensor:
#      x y z
#    x 1.678610 0.000000 0.000000 
#    y 0.000000 1.695960 0.000000 
#    z 0.000000 0.000000 1.572860 
# 
# From -- ./inp_files/32713.got.cif
#   From: 2010.03.12/outbox.cif.g09.slc.cpg/sg65_17_cif.got.tgz:32713.got - 2010.04.10 20:52:16.
