data_PCOD8275670
_publ_section_title
;
Structure prediction by ZEFSAII (Michael W. Deem and Ramdas Pophale) SiO2 
 PCOD8275670
Probable space group: C C C M
;
_chemical_formula_sum "Si O2"
_cell_formula_units_Z 104
_cell_length_a 24.279891
_cell_length_b 23.654403
_cell_length_c 9.088228
_cell_angle_alpha 90.000000
_cell_angle_beta 90.000000
_cell_angle_gamma 90.000000
_cell_volume 5219.608602
_symmetry_space_group_name_H-M "C C C M"
_symmetry_group_IT_number 66
_symmetry_cell_setting 'orthorhombic'
loop_
_space_group_symop_operation_xyz
x,y,z
-x,-y,z
x,-y,1/2-z
-x,y,1/2-z
-x,-y,-z
x,y,-z
-x,y,1/2+z
x,-y,1/2+z
1/2+x,1/2+y,z
1/2-x,1/2-y,z
1/2+x,1/2-y,1/2-z
1/2-x,1/2+y,1/2-z
1/2-x,1/2-y,-z
1/2+x,1/2+y,-z
1/2-x,1/2+y,1/2+z
1/2+x,1/2-y,1/2+z
loop_
_atom_site_type_symbol
_atom_site_label
_atom_site_fract_x
_atom_site_fract_y
_atom_site_fract_z
Si Si1 0.750000 0.750000 0.234410
Si Si2 0.254124 0.373442 0.161319
Si Si3 0.644588 0.939629 0.172009
Si Si4 0.138599 0.872843 0.167951
Si Si5 0.630060 0.244254 0.161708
Si Si6 0.059237 0.654276 0.673636
Si Si7 0.948290 0.940129 0.826707
O O1 0.749143 0.694017 0.134712
O O2 0.696155 0.758745 0.334444
O O3 0.197496 0.401971 0.217110
O O4 0.297949 0.383786 0.290175
O O5 0.270115 0.398631 0.000000
O O6 0.590249 0.903966 0.217171
O O7 0.644595 0.000000 0.250000
O O8 0.644689 0.951616 0.000000
O O9 0.115849 0.809694 0.187325
O O10 0.106869 0.907584 0.290741
O O11 0.130143 0.893856 0.000000
O O12 0.597575 0.207043 0.280293
O O13 0.610891 0.224147 0.000000
O O14 0.050641 0.658782 0.500000
O O15 0.000000 0.656058 0.750000
O O16 0.000000 0.908045 0.750000
O O17 0.943299 0.000000 0.750000
O O18 0.957141 0.945886 0.000000
#
# Coordination Sequence:
#
# PCOD8275670 Si02
#       7
#     8  16  16  16  16  16  16
#     4  10  18  34  62  92 124 154 198 246 298 358
#     4  10  20  36  59  89 122 159 201 247 303 364
#     4  10  23  42  62  89 121 159 206 254 309 370
#     4  10  22  38  57  89 126 161 203 249 301 367
#     4  10  21  37  60  91 125 161 200 246 303 363
#     4  11  24  43  64  90 122 160 208 259 312 371
#     4  11  22  39  62  85 113 155 202 251 302 359
#
# _framework density 19.924866999999999
#
# number of rings (size 3 to 8) (size 9 to 14) (size 15 to 20)
#    0.000    1.692    1.538    3.231    0.000    7.077 
#    0.000    3.077    0.000    0.000    0.000    0.000 
#    0.000    0.000    0.000    0.000    0.000    0.000 
#
# Total GULP energy -644481.263546 kJ/mol
# GULP energy per Si atom -12393.870453 kJ/mol
# Density = 1.987952 g / cm^3
# Si number density = 19.924867 Si / 1000 Ang^3
#
#
#
# Elastic Constant Matrix: (Units=GPa)
#
#
# Indices 1 2 3 4 5 6 
#
# 1 132.5358 69.3175 55.8024 0.0000 0.0000 0.0000
# 2 69.3175 82.2713 52.0075 0.0000 0.0000 0.0000
# 3 55.8024 52.0075 126.0275 0.0000 0.0000 0.0000
# 4 0.0000 0.0000 0.0000 29.8880 0.0000 0.0000
# 5 0.0000 0.0000 0.0000 0.0000 2.8932 0.0000
# 6 0.0000 0.0000 0.0000 0.0000 0.0000 30.6800
#
#
#
# Elastic Compliance Matrix: (Units=1/GPa)
#
#
# Indices 1 2 3 4 5 6 
#
# 1 0.013776 -0.010486 -0.001772 0.000000 0.000000 0.000000
# 2 -0.010486 0.024427 -0.005437 0.000000 0.000000 0.000000
# 3 -0.001772 -0.005437 0.010963 0.000000 0.000000 0.000000
# 4 0.000000 0.000000 0.000000 0.033458 0.000000 0.000000
# 5 0.000000 0.000000 0.000000 0.000000 0.345636 0.000000
# 6 0.000000 0.000000 0.000000 0.000000 0.000000 0.032595
#
#
# Mechanical properties :
#
#
# Convention : Reuss Voigt Hill
#
# Bulk Modulus (GPa) = 72.59718 77.23214 74.91466
# Shear Modulus (GPa) = 9.98327 23.60607 16.79467
#
# Velocity S-wave (km/s) = 2.24083 3.44576 2.90642
# Velocity P-wave (km/s) = 6.57341 7.39438 6.99595
#
# Compressibility (1/GPa) = 0.01377464
#
# Stress axis : x y z
#
# Youngs Moduli (GPa) = 72.59092 40.93775 91.21399
#
# Poissons Ratio (x) = 0.42929 0.16165
# Poissons Ratio (y) = 0.76122 0.49595
# Poissons Ratio (z) = 0.12865 0.22259
#
# Static dielectric constant tensor:
#      x y z
#    x 4.010090 0.000000 0.000000 
#    y 0.000000 3.611730 0.000000 
#    z 0.000000 0.000000 3.578990 
# 
# 
# High freq. dielectric constant tensor:
#      x y z
#    x 1.781080 0.000000 0.000000 
#    y 0.000000 1.770390 0.000000 
#    z 0.000000 0.000000 1.783340 
# 
# From -- ./inp_files/10352.got.cif
#   From: 2010.03.12/outbox.cif.g09.slc.cpg/sg66_6_cif.got.tgz:10352.got - 2010.04.10 21:57:39.
