data_PCOD8275530
_publ_section_title
;
Structure prediction by ZEFSAII (Michael W. Deem and Ramdas Pophale) SiO2 
 PCOD8275530
Probable space group: C C C M
;
_chemical_formula_sum "Si O2"
_cell_formula_units_Z 104
_cell_length_a 20.950814
_cell_length_b 23.244535
_cell_length_c 13.802365
_cell_angle_alpha 90.000000
_cell_angle_beta 90.000000
_cell_angle_gamma 90.000000
_cell_volume 6721.640360
_symmetry_space_group_name_H-M "C C C M"
_symmetry_group_IT_number 66
_symmetry_cell_setting 'orthorhombic'
loop_
_space_group_symop_operation_xyz
x,y,z
-x,-y,z
x,-y,1/2-z
-x,y,1/2-z
-x,-y,-z
x,y,-z
-x,y,1/2+z
x,-y,1/2+z
1/2+x,1/2+y,z
1/2-x,1/2-y,z
1/2+x,1/2-y,1/2-z
1/2-x,1/2+y,1/2-z
1/2-x,1/2-y,-z
1/2+x,1/2+y,-z
1/2-x,1/2+y,1/2+z
1/2+x,1/2-y,1/2+z
loop_
_atom_site_type_symbol
_atom_site_label
_atom_site_fract_x
_atom_site_fract_y
_atom_site_fract_z
Si Si1 0.898303 0.227293 0.610284
Si Si2 0.650440 0.856853 0.108521
Si Si3 0.089896 0.338471 0.388353
Si Si4 0.075370 0.564282 0.756707
Si Si5 0.774108 0.184587 0.304260
Si Si6 0.234075 0.685092 0.896504
Si Si7 0.500000 0.236089 0.250000
O O1 0.917106 0.211068 0.500000
O O2 0.875788 0.292700 0.616655
O O3 0.843232 0.183031 0.645492
O O4 0.958156 0.221423 0.682667
O O5 0.606945 0.898055 0.172490
O O6 0.725102 0.856189 0.137933
O O7 0.645456 0.880547 0.000000
O O8 0.069270 0.331087 0.500000
O O9 0.090731 0.406092 0.360053
O O10 0.160081 0.315223 0.366267
O O11 0.041370 0.304310 0.320086
O O12 0.104160 0.500000 0.750000
O O13 0.000000 0.562127 0.750000
O O14 0.750000 0.250000 0.302083
O O15 0.776393 0.160771 0.192764
O O16 0.250000 0.750000 0.916723
O O17 0.245331 0.651607 0.000000
#
# Coordination Sequence:
#
# PCOD8275530 Si02
#       7
#    16  16  16  16  16  16   8
#     4  10  19  28  44  67  89 115 146 179 217 261
#     4  10  18  31  48  63  82 110 147 189 230 267
#     4  11  20  32  47  61  83 116 149 183 223 263
#     4  11  22  35  45  59  85 112 154 199 232 261
#     4   9  15  28  45  65  87 106 137 184 220 261
#     4   9  16  26  43  65  84 106 138 175 217 266
#     4  12  18  30  43  62  92 118 147 178 212 264
#
# _framework density 15.472414000000001
#
# number of rings (size 3 to 8) (size 9 to 14) (size 15 to 20)
#    0.000    1.846    3.846    2.769    0.000    4.308 
#    0.000    2.308    0.000    0.000    0.000    0.000 
#    0.000    0.000    0.000    0.692    0.308    4.000 
#
# Total GULP energy -644367.899321 kJ/mol
# GULP energy per Si atom -12391.690372 kJ/mol
# Density = 1.543720 g / cm^3
# Si number density = 15.472414 Si / 1000 Ang^3
#
#
#
# Elastic Constant Matrix: (Units=GPa)
#
#
# Indices 1 2 3 4 5 6 
#
# 1 85.6733 31.4399 54.9330 0.0000 0.0000 0.0000
# 2 31.4399 31.7978 18.2736 0.0000 0.0000 0.0000
# 3 54.9330 18.2736 136.7377 0.0000 0.0000 0.0000
# 4 0.0000 0.0000 0.0000 10.9621 0.0000 0.0000
# 5 0.0000 0.0000 0.0000 0.0000 31.3056 0.0000
# 6 0.0000 0.0000 0.0000 0.0000 0.0000 13.9773
#
#
#
# Elastic Compliance Matrix: (Units=1/GPa)
#
#
# Indices 1 2 3 4 5 6 
#
# 1 0.022820 -0.018733 -0.006664 0.000000 0.000000 0.000000
# 2 -0.018733 0.049443 0.000918 0.000000 0.000000 0.000000
# 3 -0.006664 0.000918 0.009868 0.000000 0.000000 0.000000
# 4 0.000000 0.000000 0.000000 0.091224 0.000000 0.000000
# 5 0.000000 0.000000 0.000000 0.000000 0.031943 0.000000
# 6 0.000000 0.000000 0.000000 0.000000 0.000000 0.071544
#
#
# Mechanical properties :
#
#
# Convention : Reuss Voigt Hill
#
# Bulk Modulus (GPa) = 30.14516 51.50021 40.82268
# Shear Modulus (GPa) = 14.84305 21.21982 18.03143
#
# Velocity S-wave (km/s) = 3.10065 3.70734 3.41749
# Velocity P-wave (km/s) = 5.68720 7.18911 6.48180
#
# Compressibility (1/GPa) = 0.03317282
#
# Stress axis : x y z
#
# Youngs Moduli (GPa) = 43.82144 20.22516 101.33962
#
# Poissons Ratio (x) = 0.37888 0.67534
# Poissons Ratio (y) = 0.82092 -0.09306
# Poissons Ratio (z) = 0.29203 -0.01857
#
# Static dielectric constant tensor:
#      x y z
#    x 3.066680 0.000000 0.000000 
#    y 0.000000 2.646840 0.000000 
#    z 0.000000 0.000000 3.472100 
# 
# 
# High freq. dielectric constant tensor:
#      x y z
#    x 1.589810 0.000000 0.000000 
#    y 0.000000 1.521260 0.000000 
#    z 0.000000 0.000000 1.623130 
# 
# From -- ./inp_files/30438.got.cif
#   From: 2010.03.12/outbox.cif.g09.slc.cpg/sg66_16_cif.got.tgz:30438.got - 2010.04.10 21:57:39.
