data_PCOD8275698
_publ_section_title
;
Structure prediction by ZEFSAII (Michael W. Deem and Ramdas Pophale) SiO2 
 PCOD8275698
Probable space group: C C C M
;
_chemical_formula_sum "Si O2"
_cell_formula_units_Z 80
_cell_length_a 13.257135
_cell_length_b 13.766524
_cell_length_c 22.429651
_cell_angle_alpha 90.000000
_cell_angle_beta 90.000000
_cell_angle_gamma 90.000000
_cell_volume 4093.515990
_symmetry_space_group_name_H-M "C C C M"
_symmetry_group_IT_number 66
_symmetry_cell_setting 'orthorhombic'
loop_
_space_group_symop_operation_xyz
x,y,z
-x,-y,z
x,-y,1/2-z
-x,y,1/2-z
-x,-y,-z
x,y,-z
-x,y,1/2+z
x,-y,1/2+z
1/2+x,1/2+y,z
1/2-x,1/2-y,z
1/2+x,1/2-y,1/2-z
1/2-x,1/2+y,1/2-z
1/2-x,1/2-y,-z
1/2+x,1/2+y,-z
1/2-x,1/2+y,1/2+z
1/2+x,1/2-y,1/2+z
loop_
_atom_site_type_symbol
_atom_site_label
_atom_site_fract_x
_atom_site_fract_y
_atom_site_fract_z
Si Si1 0.912443 0.428646 0.893100
Si Si2 0.965531 0.888413 0.000000
Si Si3 0.539261 0.811500 0.809674
Si Si4 0.779968 0.550241 0.188857
Si Si5 0.843551 0.819391 0.109854
Si Si6 0.366034 0.782870 0.000000
O O1 0.814984 0.485711 0.868282
O O2 0.883322 0.349669 0.942318
O O3 0.000000 0.500000 0.919422
O O4 0.951080 0.380319 0.832607
O O5 0.890030 0.875721 0.054856
O O6 0.000000 0.000000 0.000000
O O7 0.058447 0.810719 0.000000
O O8 0.500000 0.757265 0.750000
O O9 0.634458 0.875480 0.790841
O O10 0.564191 0.741286 0.863787
O O11 0.743660 0.500000 0.250000
O O12 0.685295 0.607816 0.162737
O O13 0.750000 0.750000 0.090260
O O14 0.250000 0.750000 0.000000
#
# Coordination Sequence:
#
# PCOD8275698 Si02
#       6
#    16   8  16  16  16   8
#     4  10  21  39  70  93 124 165 212 268 318 366
#     4  12  27  48  64  84 134 172 211 264 318 372
#     4  10  18  37  63  94 126 166 207 262 319 366
#     4  10  20  36  63  99 129 156 209 262 319 373
#     4  10  23  43  67  92 120 173 218 254 307 383
#     4  12  27  46  62  96 128 164 217 268 324 376
#
# _framework density 19.543101
#
# number of rings (size 3 to 8) (size 9 to 14) (size 15 to 20)
#    0.000    1.600    4.000    0.600    2.800    0.000 
#    7.200    0.000    0.000    0.000    0.000    0.000 
#    0.000    0.000    0.000    0.000    0.000    0.000 
#
# Total GULP energy -495713.727339 kJ/mol
# GULP energy per Si atom -12392.843183 kJ/mol
# Density = 1.949862 g / cm^3
# Si number density = 19.543101 Si / 1000 Ang^3
#
#
#
# Elastic Constant Matrix: (Units=GPa)
#
#
# Indices 1 2 3 4 5 6 
#
# 1 73.4760 36.1850 41.8389 0.0000 0.0000 0.0000
# 2 36.1850 104.2059 53.6079 0.0000 0.0000 0.0000
# 3 41.8389 53.6079 120.3242 0.0000 0.0000 0.0000
# 4 0.0000 0.0000 0.0000 -536.3344 0.0000 0.0000
# 5 0.0000 0.0000 0.0000 0.0000 215.2834 0.0000
# 6 0.0000 0.0000 0.0000 0.0000 0.0000 11.5060
#
#
#
# Elastic Compliance Matrix: (Units=1/GPa)
#
#
# Indices 1 2 3 4 5 6 
#
# 1 0.018150 -0.003965 -0.004545 0.000000 0.000000 0.000000
# 2 -0.003965 0.013316 -0.004554 0.000000 0.000000 0.000000
# 3 -0.004545 -0.004554 0.011920 0.000000 0.000000 0.000000
# 4 0.000000 0.000000 0.000000 -0.001865 0.000000 0.000000
# 5 0.000000 0.000000 0.000000 0.000000 0.004645 0.000000
# 6 0.000000 0.000000 0.000000 0.000000 0.000000 0.086911
#
#
# Mechanical properties :
#
#
# Convention : Reuss Voigt Hill
#
# Bulk Modulus (GPa) = 57.93945 62.36329 60.15137
# Shear Modulus (GPa) = 30.31072 -50.81738 -10.25333
#
# Velocity S-wave (km/s) = 3.94251 -5.10482 -2.29301
# Velocity P-wave (km/s) = 7.10182 1.66302 4.88212
#
# Compressibility (1/GPa) = 0.01725940
#
# Stress axis : x y z
#
# Youngs Moduli (GPa) = 55.09561 75.09854 83.89139
#
# Poissons Ratio (x) = 0.29773 0.38128
# Poissons Ratio (y) = 0.21843 0.38205
# Poissons Ratio (z) = 0.25040 0.34200
#
# Static dielectric constant tensor:
#      x y z
#    x 4.395060 0.000000 0.000000 
#    y 0.000000 3.598130 0.000000 
#    z 0.000000 0.000000 3.527340 
# 
# 
# High freq. dielectric constant tensor:
#      x y z
#    x 1.750180 0.000000 0.000000 
#    y 0.000000 1.756450 0.000000 
#    z 0.000000 0.000000 1.772180 
# 
# From -- ./inp_files/57929.got.cif
#   From: 2010.03.12/outbox.cif.g09.slc.cpg/sg66_29_cif.got.tgz:57929.got - 2010.04.10 21:57:39.
