data_PCOD8275639
_publ_section_title
;
Structure prediction by ZEFSAII (Michael W. Deem and Ramdas Pophale) SiO2 
 PCOD8275639
Probable space group: C C C M
;
_chemical_formula_sum "Si O2"
_cell_formula_units_Z 72
_cell_length_a 8.674264
_cell_length_b 28.595723
_cell_length_c 15.620426
_cell_angle_alpha 90.000000
_cell_angle_beta 90.000000
_cell_angle_gamma 90.000000
_cell_volume 3874.597474
_symmetry_space_group_name_H-M "C C C M"
_symmetry_group_IT_number 66
_symmetry_cell_setting 'orthorhombic'
loop_
_space_group_symop_operation_xyz
x,y,z
-x,-y,z
x,-y,1/2-z
-x,y,1/2-z
-x,-y,-z
x,y,-z
-x,y,1/2+z
x,-y,1/2+z
1/2+x,1/2+y,z
1/2-x,1/2-y,z
1/2+x,1/2-y,1/2-z
1/2-x,1/2+y,1/2-z
1/2-x,1/2-y,-z
1/2+x,1/2+y,-z
1/2-x,1/2+y,1/2+z
1/2+x,1/2-y,1/2+z
loop_
_atom_site_type_symbol
_atom_site_label
_atom_site_fract_x
_atom_site_fract_y
_atom_site_fract_z
Si Si1 0.102493 0.719360 0.500000
Si Si2 0.571724 0.112193 0.842667
Si Si3 0.152421 0.386506 0.000000
Si Si4 0.161974 0.973943 0.500000
Si Si5 0.676413 0.015411 0.839277
Si Si6 0.399900 0.782381 0.164379
O O1 0.250000 0.750000 0.500000
O O2 0.180966 0.668537 0.500000
O O3 0.001565 0.731663 0.416962
O O4 0.500000 0.105416 0.750000
O O5 0.444339 0.102366 0.914783
O O6 0.698433 0.071377 0.852703
O O7 0.650262 0.163378 0.848980
O O8 0.313380 0.416829 0.000000
O O9 0.243559 0.989561 0.584766
O O10 0.000000 0.000000 0.500000
O O11 0.500000 0.000000 0.838711
O O12 0.755373 0.000000 0.750000
O O13 0.500000 0.775934 0.250000
O O14 0.250000 0.750000 0.170011
#
# Coordination Sequence:
#
# PCOD8275639 Si02
#       6
#     8  16   8   8  16  16
#     4  10  21  38  59  80 111 148 190 235 281 333
#     4  10  18  33  59  85 102 139 191 232 267 322
#     4  10  19  35  55  79 109 145 181 225 273 333
#     4  12  24  36  51  82 121 147 174 225 289 333
#     4  11  19  35  62  81 104 142 192 231 260 329
#     4  10  21  37  59  84 115 144 186 236 287 343
#
# _framework density 18.582576
#
# number of rings (size 3 to 8) (size 9 to 14) (size 15 to 20)
#    0.000    1.556    4.444    2.000    0.000    0.444 
#    4.000    0.000    0.000    0.000    0.000    0.000 
#    0.000    0.000    0.000    0.000    0.000    0.000 
#
# Total GULP energy -446041.507726 kJ/mol
# GULP energy per Si atom -12390.041881 kJ/mol
# Density = 1.854028 g / cm^3
# Si number density = 18.582576 Si / 1000 Ang^3
#
#
#
# Elastic Constant Matrix: (Units=GPa)
#
#
# Indices 1 2 3 4 5 6 
#
# 1 77.9016 66.2109 46.8187 0.0000 0.0000 0.0000
# 2 66.2109 143.5905 35.6125 0.0000 0.0000 0.0000
# 3 46.8187 35.6125 162.1869 0.0000 0.0000 0.0000
# 4 0.0000 0.0000 0.0000 17.4461 0.0000 0.0000
# 5 0.0000 0.0000 0.0000 0.0000 18.5935 0.0000
# 6 0.0000 0.0000 0.0000 0.0000 0.0000 34.1669
#
#
#
# Elastic Compliance Matrix: (Units=1/GPa)
#
#
# Indices 1 2 3 4 5 6 
#
# 1 0.024186 -0.009963 -0.004794 0.000000 0.000000 0.000000
# 2 -0.009963 0.011470 0.000358 0.000000 0.000000 0.000000
# 3 -0.004794 0.000358 0.007471 0.000000 0.000000 0.000000
# 4 0.000000 0.000000 0.000000 0.057319 0.000000 0.000000
# 5 0.000000 0.000000 0.000000 0.000000 0.053782 0.000000
# 6 0.000000 0.000000 0.000000 0.000000 0.000000 0.029268
#
#
# Mechanical properties :
#
#
# Convention : Reuss Voigt Hill
#
# Bulk Modulus (GPa) = 69.79695 75.66259 72.72977
# Shear Modulus (GPa) = 23.03381 29.71045 26.37213
#
# Velocity S-wave (km/s) = 3.52453 4.00288 3.77130
# Velocity P-wave (km/s) = 7.36241 7.88476 7.62805
#
# Compressibility (1/GPa) = 0.01432727
#
# Stress axis : x y z
#
# Youngs Moduli (GPa) = 41.34584 87.18552 133.84889
#
# Poissons Ratio (x) = 0.86867 0.64169
# Poissons Ratio (y) = 0.41195 -0.04787
# Poissons Ratio (z) = 0.19822 -0.03118
#
# Static dielectric constant tensor:
#      x y z
#    x 4.805210 0.000000 0.000000 
#    y 0.000000 4.025000 0.000000 
#    z 0.000000 0.000000 3.603740 
# 
# 
# High freq. dielectric constant tensor:
#      x y z
#    x 1.664960 0.000000 0.000000 
#    y 0.000000 1.742700 0.000000 
#    z 0.000000 0.000000 1.755960 
# 
# From -- ./inp_files/24518.got.cif
#   From: 2010.03.12/outbox.cif.g09.slc.cpg/sg66_13_cif.got.tgz:24518.got - 2010.04.10 21:57:39.
