data_PCOD8275538
_publ_section_title
;
Structure prediction by ZEFSAII (Michael W. Deem and Ramdas Pophale) SiO2 
 PCOD8275538
Probable space group: C C C M
;
_chemical_formula_sum "Si O2"
_cell_formula_units_Z 112
_cell_length_a 10.653339
_cell_length_b 24.790959
_cell_length_c 24.962071
_cell_angle_alpha 90.000000
_cell_angle_beta 90.000000
_cell_angle_gamma 90.000000
_cell_volume 6592.644964
_symmetry_space_group_name_H-M "C C C M"
_symmetry_group_IT_number 66
_symmetry_cell_setting 'orthorhombic'
loop_
_space_group_symop_operation_xyz
x,y,z
-x,-y,z
x,-y,1/2-z
-x,y,1/2-z
-x,-y,-z
x,y,-z
-x,y,1/2+z
x,-y,1/2+z
1/2+x,1/2+y,z
1/2-x,1/2-y,z
1/2+x,1/2-y,1/2-z
1/2-x,1/2+y,1/2-z
1/2-x,1/2-y,-z
1/2+x,1/2+y,-z
1/2-x,1/2+y,1/2+z
1/2+x,1/2-y,1/2+z
loop_
_atom_site_type_symbol
_atom_site_label
_atom_site_fract_x
_atom_site_fract_y
_atom_site_fract_z
Si Si1 0.125561 0.471861 0.634188
Si Si2 0.502074 0.562799 0.375458
Si Si3 0.215227 0.102646 0.437671
Si Si4 0.781277 0.311801 0.853976
Si Si5 0.495148 0.872697 0.187281
Si Si6 0.124889 0.883938 0.778163
Si Si7 0.248315 0.423340 0.825604
O O1 0.203560 0.447752 0.584587
O O2 0.093391 0.424414 0.676017
O O3 0.205754 0.515118 0.667356
O O4 0.000000 0.500000 0.610880
O O5 0.500000 0.500000 0.386962
O O6 0.567457 0.591622 0.426216
O O7 0.589598 0.572421 0.323448
O O8 0.363523 0.588051 0.366461
O O9 0.240728 0.108713 0.500000
O O10 0.252863 0.158476 0.409688
O O11 0.750000 0.250000 0.862455
O O12 0.929083 0.320741 0.840034
O O13 0.698845 0.334272 0.804508
O O14 0.500000 0.863233 0.250000
O O15 0.633667 0.882053 0.162097
O O16 0.209733 0.915376 0.735466
O O17 0.000000 0.860154 0.750000
#
# Coordination Sequence:
#
# PCOD8275538 Si02
#       7
#    16  16  16  16  16  16  16
#     4   9  19  31  49  80 111 141 170 210 253 314
#     4  10  19  31  48  76 107 142 177 206 252 311
#     4  10  21  38  54  74 101 133 184 231 266 312
#     4  10  21  38  54  75 102 132 180 229 267 312
#     4  10  19  31  50  79 109 143 173 205 255 318
#     4   9  19  31  48  74 105 142 170 205 246 308
#     4  10  18  31  48  76 115 143 171 195 251 319
#
# _framework density 16.988629
#
# number of rings (size 3 to 8) (size 9 to 14) (size 15 to 20)
#    0.000    2.286    2.857    0.000    0.000    7.714 
#    0.000    0.000    0.000    0.857    0.000    1.000 
#    0.000    0.000    0.000    0.000    0.000    0.000 
#
# Total GULP energy -694233.642841 kJ/mol
# GULP energy per Si atom -12397.029336 kJ/mol
# Density = 1.694996 g / cm^3
# Si number density = 16.988629 Si / 1000 Ang^3
#
#
#
# Elastic Constant Matrix: (Units=GPa)
#
#
# Indices 1 2 3 4 5 6 
#
# 1 114.2771 49.6762 45.1158 0.0000 0.0000 0.0000
# 2 49.6762 96.4040 47.5305 0.0000 0.0000 0.0000
# 3 45.1158 47.5305 101.5297 0.0000 0.0000 0.0000
# 4 0.0000 0.0000 0.0000 14.3472 0.0000 0.0000
# 5 0.0000 0.0000 0.0000 0.0000 16.3476 0.0000
# 6 0.0000 0.0000 0.0000 0.0000 0.0000 21.0700
#
#
#
# Elastic Compliance Matrix: (Units=1/GPa)
#
#
# Indices 1 2 3 4 5 6 
#
# 1 0.012014 -0.004627 -0.003173 0.000000 0.000000 0.000000
# 2 -0.004627 0.015267 -0.005091 0.000000 0.000000 0.000000
# 3 -0.003173 -0.005091 0.013643 0.000000 0.000000 0.000000
# 4 0.000000 0.000000 0.000000 0.069700 0.000000 0.000000
# 5 0.000000 0.000000 0.000000 0.000000 0.061171 0.000000
# 6 0.000000 0.000000 0.000000 0.000000 0.000000 0.047461
#
#
# Mechanical properties :
#
#
# Convention : Reuss Voigt Hill
#
# Bulk Modulus (GPa) = 66.03810 66.31729 66.17769
# Shear Modulus (GPa) = 19.99312 21.67883 20.83598
#
# Velocity S-wave (km/s) = 3.43425 3.57610 3.50589
# Velocity P-wave (km/s) = 7.39471 7.49482 7.44494
#
# Compressibility (1/GPa) = 0.01514277
#
# Stress axis : x y z
#
# Youngs Moduli (GPa) = 83.23297 65.49931 73.29913
#
# Poissons Ratio (x) = 0.30304 0.23256
# Poissons Ratio (y) = 0.38509 0.37320
# Poissons Ratio (z) = 0.26408 0.33348
#
# Static dielectric constant tensor:
#      x y z
#    x 3.764810 0.000000 0.000000 
#    y 0.000000 2.880910 0.000000 
#    z 0.000000 0.000000 2.883310 
# 
# 
# High freq. dielectric constant tensor:
#      x y z
#    x 1.678690 0.000000 0.000000 
#    y 0.000000 1.624130 0.000000 
#    z 0.000000 0.000000 1.625280 
# 
# From -- ./inp_files/57293.got.cif
#   From: 2010.03.12/outbox.cif.g09.slc.cpg/sg66_29_cif.got.tgz:57293.got - 2010.04.10 21:57:39.
