data_PCOD8275701
_publ_section_title
;
Structure prediction by ZEFSAII (Michael W. Deem and Ramdas Pophale) SiO2 
 PCOD8275701
Probable space group: C C C M
;
_chemical_formula_sum "Si O2"
_cell_formula_units_Z 80
_cell_length_a 14.787133
_cell_length_b 11.006620
_cell_length_c 21.030712
_cell_angle_alpha 90.000000
_cell_angle_beta 90.000000
_cell_angle_gamma 90.000000
_cell_volume 3422.882003
_symmetry_space_group_name_H-M "C C C M"
_symmetry_group_IT_number 66
_symmetry_cell_setting 'orthorhombic'
loop_
_space_group_symop_operation_xyz
x,y,z
-x,-y,z
x,-y,1/2-z
-x,y,1/2-z
-x,-y,-z
x,y,-z
-x,y,1/2+z
x,-y,1/2+z
1/2+x,1/2+y,z
1/2-x,1/2-y,z
1/2+x,1/2-y,1/2-z
1/2-x,1/2+y,1/2-z
1/2-x,1/2-y,-z
1/2+x,1/2+y,-z
1/2-x,1/2+y,1/2+z
1/2+x,1/2-y,1/2+z
loop_
_atom_site_type_symbol
_atom_site_label
_atom_site_fract_x
_atom_site_fract_y
_atom_site_fract_z
Si Si1 0.500000 0.500000 0.846866
Si Si2 0.960747 0.649304 0.073618
Si Si3 0.946171 0.746818 0.692263
Si Si4 0.641768 0.612445 0.928856
Si Si5 0.250000 0.750000 0.159766
Si Si6 0.189871 0.531806 0.928352
O O1 0.490318 0.620421 0.805666
O O2 0.589939 0.510392 0.888802
O O3 0.884431 0.750095 0.089625
O O4 0.913955 0.515778 0.084635
O O5 0.041379 0.676714 0.124271
O O6 0.995125 0.660376 0.000000
O O7 0.838533 0.762125 0.704689
O O8 0.000000 0.677574 0.750000
O O9 0.748849 0.589539 0.920988
O O10 0.610198 0.587539 0.000000
O O11 0.230441 0.632256 0.117600
O O12 0.194839 0.583030 0.000000
#
# Coordination Sequence:
#
# PCOD8275701 Si02
#       6
#     8  16  16  16   8  16
#     4  10  18  38  64  90 127 164 219 276 329 376
#     4   9  20  39  67  97 134 174 219 269 328 389
#     4  11  25  46  66  95 133 175 226 272 331 399
#     4   9  16  30  59  97 131 167 212 267 323 383
#     4  12  25  44  64  94 131 174 220 272 336 394
#     4  10  20  37  63 100 136 172 214 269 328 396
#
# _framework density 23.372116999999999
#
# number of rings (size 3 to 8) (size 9 to 14) (size 15 to 20)
#    0.000    2.000    2.000    1.500    0.000    5.600 
#    7.200    4.000    0.000    0.000    0.000    0.000 
#    0.000    0.000    0.000    0.000    0.000    0.000 
#
# Total GULP energy -495648.379581 kJ/mol
# GULP energy per Si atom -12391.209490 kJ/mol
# Density = 2.331892 g / cm^3
# Si number density = 23.372117 Si / 1000 Ang^3
#
#
#
# Elastic Constant Matrix: (Units=GPa)
#
#
# Indices 1 2 3 4 5 6 
#
# 1 151.3421 7.8890 50.4384 0.0000 0.0000 0.0000
# 2 7.8890 72.7194 25.6146 0.0000 0.0000 0.0000
# 3 50.4384 25.6146 107.0041 0.0000 0.0000 0.0000
# 4 0.0000 0.0000 0.0000 9.1266 0.0000 0.0000
# 5 0.0000 0.0000 0.0000 0.0000 24.3615 0.0000
# 6 0.0000 0.0000 0.0000 0.0000 0.0000 27.2339
#
#
#
# Elastic Compliance Matrix: (Units=1/GPa)
#
#
# Indices 1 2 3 4 5 6 
#
# 1 0.007855 0.000494 -0.003821 0.000000 0.000000 0.000000
# 2 0.000494 0.015049 -0.003835 0.000000 0.000000 0.000000
# 3 -0.003821 -0.003835 0.012065 0.000000 0.000000 0.000000
# 4 0.000000 0.000000 0.000000 0.109569 0.000000 0.000000
# 5 0.000000 0.000000 0.000000 0.000000 0.041048 0.000000
# 6 0.000000 0.000000 0.000000 0.000000 0.000000 0.036719
#
#
# Mechanical properties :
#
#
# Convention : Reuss Voigt Hill
#
# Bulk Modulus (GPa) = 48.44030 55.43886 51.93958
# Shear Modulus (GPa) = 20.53295 28.61931 24.57613
#
# Velocity S-wave (km/s) = 2.96720 3.50309 3.24623
# Velocity P-wave (km/s) = 5.70173 6.33512 6.02675
#
# Compressibility (1/GPa) = 0.02064397
#
# Stress axis : x y z
#
# Youngs Moduli (GPa) = 127.30395 66.45051 82.88761
#
# Poissons Ratio (x) = -0.03281 0.31670
# Poissons Ratio (y) = -0.06285 0.31788
# Poissons Ratio (z) = 0.48641 0.25484
#
# Static dielectric constant tensor:
#      x y z
#    x 4.492870 0.000000 0.000000 
#    y 0.000000 4.209700 0.000000 
#    z 0.000000 0.000000 3.851720 
# 
# 
# High freq. dielectric constant tensor:
#      x y z
#    x 1.940820 0.000000 0.000000 
#    y 0.000000 1.930160 0.000000 
#    z 0.000000 0.000000 1.894180 
# 
# From -- ./inp_files/57943.got.cif
#   From: 2010.03.12/outbox.cif.g09.slc.cpg/sg66_29_cif.got.tgz:57943.got - 2010.04.10 21:57:39.
