data_PCOD8275522
_publ_section_title
;
Structure prediction by ZEFSAII (Michael W. Deem and Ramdas Pophale) SiO2 
 PCOD8275522
Probable space group: C C C M
;
_chemical_formula_sum "Si O2"
_cell_formula_units_Z 80
_cell_length_a 29.826649
_cell_length_b 8.671015
_cell_length_c 15.525360
_cell_angle_alpha 90.000000
_cell_angle_beta 90.000000
_cell_angle_gamma 90.000000
_cell_volume 4015.282262
_symmetry_space_group_name_H-M "C C C M"
_symmetry_group_IT_number 66
_symmetry_cell_setting 'orthorhombic'
loop_
_space_group_symop_operation_xyz
x,y,z
-x,-y,z
x,-y,1/2-z
-x,y,1/2-z
-x,-y,-z
x,y,-z
-x,y,1/2+z
x,-y,1/2+z
1/2+x,1/2+y,z
1/2-x,1/2-y,z
1/2+x,1/2-y,1/2-z
1/2-x,1/2+y,1/2-z
1/2-x,1/2-y,-z
1/2+x,1/2+y,-z
1/2-x,1/2+y,1/2+z
1/2+x,1/2-y,1/2+z
loop_
_atom_site_type_symbol
_atom_site_label
_atom_site_fract_x
_atom_site_fract_y
_atom_site_fract_z
Si Si1 0.450888 0.932273 0.500000
Si Si2 0.450770 0.566399 0.500000
Si Si3 0.208408 0.064283 0.842546
Si Si4 0.891566 0.432800 0.658749
Si Si5 0.890690 0.065166 0.343026
Si Si6 0.299122 0.100283 0.097624
O O1 0.452877 0.749161 0.500000
O O2 0.425567 0.992355 0.585501
O O3 0.500000 0.000000 0.500000
O O4 0.500000 0.500000 0.500000
O O5 0.425216 0.505019 0.414902
O O6 0.159069 0.003781 0.870950
O O7 0.251321 0.008528 0.900130
O O8 0.206289 0.249377 0.843144
O O9 0.219999 0.000000 0.750000
O O10 0.907387 0.500000 0.750000
O O11 0.891202 0.248927 0.661816
O O12 0.841446 0.495319 0.634949
O O13 0.904978 0.000000 0.250000
O O14 0.310138 0.150572 0.000000
#
# Coordination Sequence:
#
# PCOD8275522 Si02
#       6
#     8   8  16  16  16  16
#     4  10  22  40  57  81 111 141 182 232 281 332
#     4  10  22  38  59  79 105 143 180 226 277 328
#     4   9  17  28  48  80 107 140 179 220 262 314
#     4  10  20  36  58  83 111 145 184 227 272 326
#     4   9  20  36  55  82 111 142 180 224 269 322
#     4  10  18  30  53  81 108 147 186 221 268 329
#
# _framework density 19.92388
#
# number of rings (size 3 to 8) (size 9 to 14) (size 15 to 20)
#    0.000    2.400    1.000    1.800    5.600    2.400 
#    0.000    4.000    0.000    0.000    0.000    9.800 
#    0.000    0.000    0.000    0.000    0.000    0.000 
#
# Total GULP energy -495607.384016 kJ/mol
# GULP energy per Si atom -12390.184600 kJ/mol
# Density = 1.987853 g / cm^3
# Si number density = 19.923880 Si / 1000 Ang^3
#
#
#
# Elastic Constant Matrix: (Units=GPa)
#
#
# Indices 1 2 3 4 5 6 
#
# 1 189.2002 17.7403 91.8946 0.0000 0.0000 0.0000
# 2 17.7403 16.4560 30.7951 0.0000 0.0000 0.0000
# 3 91.8946 30.7951 167.7402 0.0000 0.0000 0.0000
# 4 0.0000 0.0000 0.0000 29.3888 0.0000 0.0000
# 5 0.0000 0.0000 0.0000 0.0000 31.8806 0.0000
# 6 0.0000 0.0000 0.0000 0.0000 0.0000 23.4092
#
#
#
# Elastic Compliance Matrix: (Units=1/GPa)
#
#
# Indices 1 2 3 4 5 6 
#
# 1 0.007205 -0.000580 -0.003841 0.000000 0.000000 0.000000
# 2 -0.000580 0.092619 -0.016686 0.000000 0.000000 0.000000
# 3 -0.003841 -0.016686 0.011129 0.000000 0.000000 0.000000
# 4 0.000000 0.000000 0.000000 0.034027 0.000000 0.000000
# 5 0.000000 0.000000 0.000000 0.000000 0.031367 0.000000
# 6 0.000000 0.000000 0.000000 0.000000 0.000000 0.042718
#
#
# Mechanical properties :
#
#
# Convention : Reuss Voigt Hill
#
# Bulk Modulus (GPa) = 14.54770 72.69515 43.62142
# Shear Modulus (GPa) = 17.59377 32.46681 25.03029
#
# Velocity S-wave (km/s) = 2.97484 4.04114 3.54827
# Velocity P-wave (km/s) = 4.37230 7.63807 6.22323
#
# Compressibility (1/GPa) = 0.06873940
#
# Stress axis : x y z
#
# Youngs Moduli (GPa) = 138.78681 10.79698 89.85451
#
# Poissons Ratio (x) = 0.00626 0.34512
# Poissons Ratio (y) = 0.08050 1.49930
# Poissons Ratio (z) = 0.53306 0.18016
#
# Static dielectric constant tensor:
#      x y z
#    x 4.201750 0.000000 0.000000 
#    y 0.000000 3.123400 0.000000 
#    z 0.000000 0.000000 3.743080 
# 
# 
# High freq. dielectric constant tensor:
#      x y z
#    x 1.797830 0.000000 0.000000 
#    y 0.000000 1.722750 0.000000 
#    z 0.000000 0.000000 1.781710 
# 
# From -- ./inp_files/21272.got.cif
#   From: 2010.03.12/outbox.cif.g09.slc.cpg/sg66_11_cif.got.tgz:21272.got - 2010.04.10 21:57:39.
