data_PCOD8275000
_publ_section_title
;
Structure prediction by ZEFSAII (Michael W. Deem and Ramdas Pophale) SiO2 
 PCOD8275000
Probable space group: C M M M
;
_chemical_formula_sum "Si O2"
_cell_formula_units_Z 80
_cell_length_a 19.611763
_cell_length_b 9.526656
_cell_length_c 25.818446
_cell_angle_alpha 90.000000
_cell_angle_beta 90.000000
_cell_angle_gamma 90.000000
_cell_volume 4823.776957
_symmetry_space_group_name_H-M "C M M M"
_symmetry_group_IT_number 65
_symmetry_cell_setting 'orthorhombic'
loop_
_space_group_symop_operation_xyz
x,y,z
-x,-y,z
x,-y,-z
-x,y,-z
-x,-y,-z
x,y,-z
-x,y,z
x,-y,z
1/2+x,1/2+y,z
1/2-x,1/2-y,z
1/2+x,1/2-y,-z
1/2-x,1/2+y,-z
1/2-x,1/2-y,-z
1/2+x,1/2+y,-z
1/2-x,1/2+y,z
1/2+x,1/2-y,z
loop_
_atom_site_type_symbol
_atom_site_label
_atom_site_fract_x
_atom_site_fract_y
_atom_site_fract_z
Si Si1 0.078205 0.663944 0.756136
Si Si2 0.815167 0.162754 0.058965
Si Si3 0.319567 0.835844 0.667172
Si Si4 0.578039 0.337625 0.855204
Si Si5 0.317235 0.160673 0.554679
O O1 0.087143 0.500000 0.767523
O O2 0.124319 0.714319 0.708250
O O3 0.103415 0.747086 0.806587
O O4 0.000000 0.701242 0.742749
O O5 0.750000 0.250000 0.077600
O O6 0.878725 0.205208 0.094587
O O7 0.796535 0.000000 0.064763
O O8 0.835103 0.200432 0.000000
O O9 0.250000 0.750000 0.675393
O O10 0.353489 0.806245 0.609859
O O11 0.302582 0.000000 0.674458
O O12 0.500000 0.302957 0.868857
O O13 0.588034 0.500000 0.840700
O O14 0.359086 0.189403 0.500000
O O15 0.250000 0.250000 0.552557
O O16 0.294064 0.000000 0.555728
#
# Coordination Sequence:
#
# PCOD8275000 Si02
#       5
#    16  16  16  16  16
#     4   9  18  32  47  62  85 118 149 176 212 258
#     4   9  18  32  49  69  93 119 144 173 213 258
#     4   9  17  28  43  64  87 111 142 179 216 255
#     4   9  18  32  49  68  88 112 146 184 216 249
#     4   8  13  22  37  57  81 107 135 170 211 252
#
# _framework density 16.584516000000001
#
# number of rings (size 3 to 8) (size 9 to 14) (size 15 to 20)
#    0.000    3.200    0.000    0.000    0.000    2.800 
#    0.000    6.000    0.000    0.600    0.000    9.800 
#    0.000    0.000    0.000   37.400    0.000   20.400 
#
# Total GULP energy -495551.932911 kJ/mol
# GULP energy per Si atom -12388.798323 kJ/mol
# Density = 1.654677 g / cm^3
# Si number density = 16.584516 Si / 1000 Ang^3
#
#
#
# Elastic Constant Matrix: (Units=GPa)
#
#
# Indices 1 2 3 4 5 6 
#
# 1 74.8294 32.4650 79.1478 0.0000 0.0000 0.0000
# 2 32.4650 37.6089 48.2572 0.0000 0.0000 0.0000
# 3 79.1478 48.2572 160.9741 0.0000 0.0000 0.0000
# 4 0.0000 0.0000 0.0000 24.1325 0.0000 0.0000
# 5 0.0000 0.0000 0.0000 0.0000 15.3478 0.0000
# 6 0.0000 0.0000 0.0000 0.0000 0.0000 21.2020
#
#
#
# Elastic Compliance Matrix: (Units=1/GPa)
#
#
# Indices 1 2 3 4 5 6 
#
# 1 0.030661 -0.011577 -0.011605 0.000000 0.000000 0.000000
# 2 -0.011577 0.047582 -0.008572 0.000000 0.000000 0.000000
# 3 -0.011605 -0.008572 0.014488 0.000000 0.000000 0.000000
# 4 0.000000 0.000000 0.000000 0.041438 0.000000 0.000000
# 5 0.000000 0.000000 0.000000 0.000000 0.065156 0.000000
# 6 0.000000 0.000000 0.000000 0.000000 0.000000 0.047165
#
#
# Mechanical properties :
#
#
# Convention : Reuss Voigt Hill
#
# Bulk Modulus (GPa) = 34.21935 65.90581 50.06258
# Shear Modulus (GPa) = 15.63778 19.70596 17.67187
#
# Velocity S-wave (km/s) = 3.07402 3.45079 3.26784
# Velocity P-wave (km/s) = 5.76867 7.46344 6.67010
#
# Compressibility (1/GPa) = 0.02922323
#
# Stress axis : x y z
#
# Youngs Moduli (GPa) = 32.61485 21.01632 69.02333
#
# Poissons Ratio (x) = 0.24330 0.80101
# Poissons Ratio (y) = 0.37757 0.59168
# Poissons Ratio (z) = 0.37849 0.18016
#
# Static dielectric constant tensor:
#      x y z
#    x 2.976490 0.000000 0.000000 
#    y 0.000000 3.092470 0.000000 
#    z 0.000000 0.000000 3.679420 
# 
# 
# High freq. dielectric constant tensor:
#      x y z
#    x 1.601080 0.000000 0.000000 
#    y 0.000000 1.638390 0.000000 
#    z 0.000000 0.000000 1.659460 
# 
# From -- ./inp_files/68814.got.cif
#   From: 2010.03.12/outbox.cif.g09.slc.cpg/sg65_35_cif.got.tgz:68814.got - 2010.04.10 20:52:16.
