data_PCOD8275215
_publ_section_title
;
Structure prediction by ZEFSAII (Michael W. Deem and Ramdas Pophale) SiO2 
 PCOD8275215
Probable space group: C C C M
;
_chemical_formula_sum "Si O2"
_cell_formula_units_Z 64
_cell_length_a 9.381382
_cell_length_b 17.147015
_cell_length_c 18.985035
_cell_angle_alpha 90.000000
_cell_angle_beta 90.000000
_cell_angle_gamma 90.000000
_cell_volume 3053.983949
_symmetry_space_group_name_H-M "C C C M"
_symmetry_group_IT_number 66
_symmetry_cell_setting 'orthorhombic'
loop_
_space_group_symop_operation_xyz
x,y,z
-x,-y,z
x,-y,1/2-z
-x,y,1/2-z
-x,-y,-z
x,y,-z
-x,y,1/2+z
x,-y,1/2+z
1/2+x,1/2+y,z
1/2-x,1/2-y,z
1/2+x,1/2-y,1/2-z
1/2-x,1/2+y,1/2-z
1/2-x,1/2-y,-z
1/2+x,1/2+y,-z
1/2-x,1/2+y,1/2+z
1/2+x,1/2-y,1/2+z
loop_
_atom_site_type_symbol
_atom_site_label
_atom_site_fract_x
_atom_site_fract_y
_atom_site_fract_z
Si Si1 0.179507 0.165690 0.000000
Si Si2 0.026969 0.409195 0.000000
Si Si3 0.273730 0.910901 0.262848
Si Si4 0.390425 0.302117 0.146819
Si Si5 0.534875 0.851082 0.649980
O O1 0.250000 0.250000 0.000000
O O2 0.084108 0.156119 0.929245
O O3 0.303183 0.101135 0.000000
O O4 0.954719 0.368392 0.067383
O O5 0.000000 0.500000 0.000000
O O6 0.132855 0.867112 0.292614
O O7 0.404547 0.901969 0.317799
O O8 0.317920 0.874080 0.187734
O O9 0.233171 0.000000 0.250000
O O10 0.250000 0.250000 0.140411
O O11 0.517217 0.241879 0.164567
#
# Coordination Sequence:
#
# PCOD8275215 Si02
#       5
#     8   8  16  16  16
#     4  10  14  28  40  60  93 130 169 188 237 302
#     4  12  18  24  42  68 100 131 157 203 252 298
#     4  10  18  28  42  68  97 122 156 203 251 285
#     4   9  16  28  44  61  92 132 160 197 237 296
#     4  10  18  28  42  66  95 129 163 195 247 296
#
# _framework density 20.956233999999998
#
# number of rings (size 3 to 8) (size 9 to 14) (size 15 to 20)
#    0.000    2.000    7.500    3.000    0.000    0.000 
#    0.000    0.000    0.000    0.000    0.000   56.875 
#    0.000    0.000    0.000  204.000    0.000    0.000 
#
# Total GULP energy -396650.050316 kJ/mol
# GULP energy per Si atom -12395.314072 kJ/mol
# Density = 2.090854 g / cm^3
# Si number density = 20.956234 Si / 1000 Ang^3
#
#
#
# Elastic Constant Matrix: (Units=GPa)
#
#
# Indices 1 2 3 4 5 6 
#
# 1 18.9266 44.6199 25.6754 0.0000 0.0000 0.0000
# 2 44.6199 174.8243 73.9119 0.0000 0.0000 0.0000
# 3 25.6754 73.9119 163.2259 0.0000 0.0000 0.0000
# 4 0.0000 0.0000 0.0000 19.4986 0.0000 0.0000
# 5 0.0000 0.0000 0.0000 0.0000 0.3901 0.0000
# 6 0.0000 0.0000 0.0000 0.0000 0.0000 15.4042
#
#
#
# Elastic Compliance Matrix: (Units=1/GPa)
#
#
# Indices 1 2 3 4 5 6 
#
# 1 0.139142 -0.032477 -0.007181 0.000000 0.000000 0.000000
# 2 -0.032477 0.014655 -0.001527 0.000000 0.000000 0.000000
# 3 -0.007181 -0.001527 0.007948 0.000000 0.000000 0.000000
# 4 0.000000 0.000000 0.000000 0.051286 0.000000 0.000000
# 5 0.000000 0.000000 0.000000 0.000000 2.563123 0.000000
# 6 0.000000 0.000000 0.000000 0.000000 0.000000 0.064917
#
#
# Mechanical properties :
#
#
# Convention : Reuss Voigt Hill
#
# Bulk Modulus (GPa) = 12.59854 71.71012 42.15433
# Shear Modulus (GPa) = 1.69497 21.24324 11.46911
#
# Velocity S-wave (km/s) = 0.90032 3.18731 2.34196
# Velocity P-wave (km/s) = 2.66564 6.91654 5.24138
#
# Compressibility (1/GPa) = 0.07937425
#
# Stress axis : x y z
#
# Youngs Moduli (GPa) = 7.18691 68.23740 125.82364
#
# Poissons Ratio (x) = 2.21614 0.90352
# Poissons Ratio (y) = 0.23341 0.19218
# Poissons Ratio (z) = 0.05161 0.10422
#
# Static dielectric constant tensor:
#      x y z
#    x 3.201000 0.000000 0.000000 
#    y 0.000000 3.810010 0.000000 
#    z 0.000000 0.000000 4.381170 
# 
# 
# High freq. dielectric constant tensor:
#      x y z
#    x 1.745710 0.000000 0.000000 
#    y 0.000000 1.810460 0.000000 
#    z 0.000000 0.000000 1.843570 
# 
# From -- ./inp_files/40000.got.cif
#   From: 2010.03.12/outbox.cif.g09.slc.cpg/sg66_20_cif.got.tgz:40000.got - 2010.04.10 21:57:39.
