data_PCOD8275038
_publ_section_title
;
Structure prediction by ZEFSAII (Michael W. Deem and Ramdas Pophale) SiO2 
 PCOD8275038
Probable space group: C M M M
;
_chemical_formula_sum "Si O2"
_cell_formula_units_Z 88
_cell_length_a 7.830829
_cell_length_b 20.442129
_cell_length_c 29.682683
_cell_angle_alpha 90.000000
_cell_angle_beta 90.000000
_cell_angle_gamma 90.000000
_cell_volume 4751.568768
_symmetry_space_group_name_H-M "C M M M"
_symmetry_group_IT_number 65
_symmetry_cell_setting 'orthorhombic'
loop_
_space_group_symop_operation_xyz
x,y,z
-x,-y,z
x,-y,-z
-x,y,-z
-x,-y,-z
x,y,-z
-x,y,z
x,-y,z
1/2+x,1/2+y,z
1/2-x,1/2-y,z
1/2+x,1/2-y,-z
1/2-x,1/2+y,-z
1/2-x,1/2-y,-z
1/2+x,1/2+y,-z
1/2-x,1/2+y,z
1/2+x,1/2-y,z
loop_
_atom_site_type_symbol
_atom_site_label
_atom_site_fract_x
_atom_site_fract_y
_atom_site_fract_z
Si Si1 0.298551 0.321474 0.780013
Si Si2 0.000000 0.421879 0.550951
Si Si3 0.298629 0.678630 0.880728
Si Si4 0.703195 0.573023 0.050277
Si Si5 0.297537 0.572649 0.288935
Si Si6 0.310091 0.577684 0.389542
O O1 0.500000 0.329042 0.781098
O O2 0.250000 0.250000 0.761319
O O3 0.222260 0.331049 0.830392
O O4 0.218608 0.376473 0.747104
O O5 0.170418 0.394524 0.575441
O O6 0.000000 0.500000 0.552414
O O7 0.000000 0.395591 0.500000
O O8 0.500000 0.670649 0.879212
O O9 0.250000 0.750000 0.899464
O O10 0.217991 0.624449 0.914117
O O11 0.500000 0.576339 0.050936
O O12 0.764002 0.500000 0.063697
O O13 0.769080 0.590346 0.000000
O O14 0.500000 0.569308 0.284478
O O15 0.221295 0.500000 0.279840
O O16 0.250716 0.597320 0.339152
O O17 0.500000 0.606030 0.400698
O O18 0.319122 0.500000 0.392440
#
# Coordination Sequence:
#
# PCOD8275038 Si02
#       6
#    16   8  16  16  16  16
#     4   9  17  29  43  61  87 114 140 178 221 263
#     4   9  16  24  36  58  88 120 152 184 222 274
#     4   9  17  28  43  62  84 112 142 173 218 267
#     4   8  14  25  41  62  86 109 139 183 225 257
#     4   8  14  26  44  62  81 111 146 179 217 260
#     4   8  14  25  39  56  82 115 148 185 228 269
#
# _framework density 18.520199999999999
#
# number of rings (size 3 to 8) (size 9 to 14) (size 15 to 20)
#    0.000    3.545    0.000    1.636    0.000    1.455 
#    1.636    5.455    0.000    0.545    0.000    6.364 
#    0.000    0.727    0.364    0.000    0.000    0.000 
#
# Total GULP energy -545256.154494 kJ/mol
# GULP energy per Si atom -12392.185329 kJ/mol
# Density = 1.847805 g / cm^3
# Si number density = 18.520200 Si / 1000 Ang^3
#
#
#
# Elastic Constant Matrix: (Units=GPa)
#
#
# Indices 1 2 3 4 5 6 
#
# 1 41.8923 18.3393 34.8530 0.0000 0.0000 0.0000
# 2 18.3393 106.2411 89.3519 0.0000 0.0000 0.0000
# 3 34.8530 89.3519 148.9986 0.0000 0.0000 0.0000
# 4 0.0000 0.0000 0.0000 11.5943 0.0000 0.0000
# 5 0.0000 0.0000 0.0000 0.0000 12.7303 0.0000
# 6 0.0000 0.0000 0.0000 0.0000 0.0000 14.8562
#
#
#
# Elastic Compliance Matrix: (Units=1/GPa)
#
#
# Indices 1 2 3 4 5 6 
#
# 1 0.029749 0.001447 -0.007826 0.000000 0.000000 0.000000
# 2 0.001447 0.019061 -0.011769 0.000000 0.000000 0.000000
# 3 -0.007826 -0.011769 0.015600 0.000000 0.000000 0.000000
# 4 0.000000 0.000000 0.000000 0.086249 0.000000 0.000000
# 5 0.000000 0.000000 0.000000 0.000000 0.078553 0.000000
# 6 0.000000 0.000000 0.000000 0.000000 0.000000 0.067312
#
#
# Mechanical properties :
#
#
# Convention : Reuss Voigt Hill
#
# Bulk Modulus (GPa) = 35.57125 64.69114 50.13120
# Shear Modulus (GPa) = 14.61175 18.14202 16.37689
#
# Velocity S-wave (km/s) = 2.81190 3.13322 2.97690
# Velocity P-wave (km/s) = 5.45809 6.93508 6.24044
#
# Compressibility (1/GPa) = 0.02811259
#
# Stress axis : x y z
#
# Youngs Moduli (GPa) = 33.61511 52.46384 64.10346
#
# Poissons Ratio (x) = -0.07592 0.50170
# Poissons Ratio (y) = -0.04864 0.75443
# Poissons Ratio (z) = 0.26308 0.61744
#
# Static dielectric constant tensor:
#      x y z
#    x 3.197170 0.000000 0.000000 
#    y 0.000000 3.334870 0.000000 
#    z 0.000000 0.000000 3.761850 
# 
# 
# High freq. dielectric constant tensor:
#      x y z
#    x 1.694620 0.000000 0.000000 
#    y 0.000000 1.681050 0.000000 
#    z 0.000000 0.000000 1.716760 
# 
# From -- ./inp_files/76536.got.cif
#   From: 2010.03.12/outbox.cif.g09.slc.cpg/sg65_39_cif.got.tgz:76536.got - 2010.04.10 20:52:16.
