data_PCOD8275067
_publ_section_title
;
Structure prediction by ZEFSAII (Michael W. Deem and Ramdas Pophale) SiO2 
 PCOD8275067
Probable space group: C M M M
;
_chemical_formula_sum "Si O2"
_cell_formula_units_Z 104
_cell_length_a 9.489787
_cell_length_b 19.910552
_cell_length_c 32.968018
_cell_angle_alpha 90.000000
_cell_angle_beta 90.000000
_cell_angle_gamma 90.000000
_cell_volume 6229.204719
_symmetry_space_group_name_H-M "C M M M"
_symmetry_group_IT_number 65
_symmetry_cell_setting 'orthorhombic'
loop_
_space_group_symop_operation_xyz
x,y,z
-x,-y,z
x,-y,-z
-x,y,-z
-x,-y,-z
x,y,-z
-x,y,z
x,-y,z
1/2+x,1/2+y,z
1/2-x,1/2-y,z
1/2+x,1/2-y,-z
1/2-x,1/2+y,-z
1/2-x,1/2-y,-z
1/2+x,1/2+y,-z
1/2-x,1/2+y,z
1/2+x,1/2-y,z
loop_
_atom_site_type_symbol
_atom_site_label
_atom_site_fract_x
_atom_site_fract_y
_atom_site_fract_z
Si Si1 0.159321 0.685013 0.000000
Si Si2 0.163035 0.814940 0.700003
Si Si3 0.335657 0.818953 0.088059
Si Si4 0.667239 0.425489 0.454903
Si Si5 0.336651 0.576678 0.765497
Si Si6 0.834964 0.815584 0.392720
Si Si7 0.664900 0.076795 0.155780
O O1 0.250000 0.750000 0.000000
O O2 0.189753 0.647671 0.042939
O O3 0.000000 0.710108 0.000000
O O4 0.250000 0.750000 0.713780
O O5 0.208002 0.877769 0.727514
O O6 0.196541 0.835291 0.653754
O O7 0.000000 0.796749 0.705644
O O8 0.500000 0.802172 0.094727
O O9 0.250000 0.750000 0.094267
O O10 0.283589 0.875114 0.119534
O O11 0.715288 0.402391 0.500000
O O12 0.500000 0.427406 0.452723
O O13 0.726827 0.500000 0.445690
O O14 0.725380 0.374861 0.421012
O O15 0.500000 0.585970 0.776564
O O16 0.302604 0.500000 0.753490
O O17 0.246932 0.599662 0.804147
O O18 0.750000 0.750000 0.405533
O O19 0.000000 0.802319 0.399942
O O20 0.500000 0.084990 0.164358
O O21 0.702238 0.000000 0.144106
#
# Coordination Sequence:
#
# PCOD8275067 Si02
#       7
#     8  16  16  16  16  16  16
#     4   8  14  26  43  63  87 113 141 174 212 250
#     4   9  18  31  46  65  89 115 143 178 218 258
#     4   9  17  29  46  67  89 114 145 179 213 252
#     4   8  14  25  42  65  90 114 144 182 218 252
#     4   9  18  32  48  65  85 111 145 182 217 254
#     4   9  17  29  45  65  89 116 144 176 216 259
#     4   9  18  32  47  64  89 118 145 175 214 259
#
# _framework density 16.695550999999998
#
# number of rings (size 3 to 8) (size 9 to 14) (size 15 to 20)
#    0.000    3.231    0.000    0.462    0.000    2.769 
#    0.000    6.538    0.000    2.769    0.000    5.385 
#    0.000    8.615    0.000    0.000    0.000    0.000 
#
# Total GULP energy -644467.552958 kJ/mol
# GULP energy per Si atom -12393.606788 kJ/mol
# Density = 1.665755 g / cm^3
# Si number density = 16.695551 Si / 1000 Ang^3
#
#
#
# Elastic Constant Matrix: (Units=GPa)
#
#
# Indices 1 2 3 4 5 6 
#
# 1 32.4207 37.1971 41.1964 0.0000 0.0000 0.0000
# 2 37.1971 114.1253 98.1436 0.0000 0.0000 0.0000
# 3 41.1964 98.1436 142.5433 0.0000 0.0000 0.0000
# 4 0.0000 0.0000 0.0000 33.6629 0.0000 0.0000
# 5 0.0000 0.0000 0.0000 0.0000 18.8581 0.0000
# 6 0.0000 0.0000 0.0000 0.0000 0.0000 23.6468
#
#
#
# Elastic Compliance Matrix: (Units=1/GPa)
#
#
# Indices 1 2 3 4 5 6 
#
# 1 0.053082 -0.010072 -0.008407 0.000000 0.000000 0.000000
# 2 -0.010072 0.023393 -0.013195 0.000000 0.000000 0.000000
# 3 -0.008407 -0.013195 0.018530 0.000000 0.000000 0.000000
# 4 0.000000 0.000000 0.000000 0.029706 0.000000 0.000000
# 5 0.000000 0.000000 0.000000 0.000000 0.053028 0.000000
# 6 0.000000 0.000000 0.000000 0.000000 0.000000 0.042289
#
#
# Mechanical properties :
#
#
# Convention : Reuss Voigt Hill
#
# Bulk Modulus (GPa) = 31.58817 71.35150 51.46983
# Shear Modulus (GPa) = 17.01098 22.73706 19.87402
#
# Velocity S-wave (km/s) = 3.19547 3.69435 3.45393
# Velocity P-wave (km/s) = 5.70753 7.81199 6.84117
#
# Compressibility (1/GPa) = 0.03165743
#
# Stress axis : x y z
#
# Youngs Moduli (GPa) = 18.83870 42.74874 53.96594
#
# Poissons Ratio (x) = 0.43056 0.45367
# Poissons Ratio (y) = 0.18974 0.71210
# Poissons Ratio (z) = 0.15837 0.56408
#
# Static dielectric constant tensor:
#      x y z
#    x 2.972060 0.000000 0.000000 
#    y 0.000000 3.111730 0.000000 
#    z 0.000000 0.000000 3.546080 
# 
# 
# High freq. dielectric constant tensor:
#      x y z
#    x 1.624570 0.000000 0.000000 
#    y 0.000000 1.630790 0.000000 
#    z 0.000000 0.000000 1.653870 
# 
# From -- ./inp_files/76838.got.cif
#   From: 2010.03.12/outbox.cif.g09.slc.cpg/sg65_39_cif.got.tgz:76838.got - 2010.04.10 20:52:16.
