data_PCOD8275989
_publ_section_title
;
Structure prediction by ZEFSAII (Michael W. Deem and Ramdas Pophale) SiO2 
 PCOD8275989
Probable space group: C C C M
;
_chemical_formula_sum "Si O2"
_cell_formula_units_Z 88
_cell_length_a 19.997779
_cell_length_b 9.188289
_cell_length_c 25.685239
_cell_angle_alpha 90.000000
_cell_angle_beta 90.000000
_cell_angle_gamma 90.000000
_cell_volume 4719.543816
_symmetry_space_group_name_H-M "C C C M"
_symmetry_group_IT_number 66
_symmetry_cell_setting 'orthorhombic'
loop_
_space_group_symop_operation_xyz
x,y,z
-x,-y,z
x,-y,1/2-z
-x,y,1/2-z
-x,-y,-z
x,y,-z
-x,y,1/2+z
x,-y,1/2+z
1/2+x,1/2+y,z
1/2-x,1/2-y,z
1/2+x,1/2-y,1/2-z
1/2-x,1/2+y,1/2-z
1/2-x,1/2-y,-z
1/2+x,1/2+y,-z
1/2-x,1/2+y,1/2+z
1/2+x,1/2-y,1/2+z
loop_
_atom_site_type_symbol
_atom_site_label
_atom_site_fract_x
_atom_site_fract_y
_atom_site_fract_z
Si Si1 0.319064 0.336348 0.265891
Si Si2 0.385198 0.103720 0.559935
Si Si3 0.000000 0.500000 0.130213
Si Si4 0.755913 0.581238 0.939662
Si Si5 0.934248 0.650255 0.222648
Si Si6 0.184207 0.157771 0.617783
O O1 0.303617 0.500000 0.250000
O O2 0.250000 0.250000 0.261038
O O3 0.373713 0.264357 0.227223
O O4 0.349009 0.341609 0.324762
O O5 0.405376 0.098835 0.500000
O O6 0.450863 0.087953 0.593716
O O7 0.360280 0.264947 0.574101
O O8 0.329965 0.979815 0.572824
O O9 0.044875 0.386746 0.163554
O O10 0.750000 0.750000 0.925672
O O11 0.701233 0.503052 0.903148
O O12 0.738665 0.551183 0.000000
O O13 0.911760 0.500000 0.250000
O O14 0.000000 0.717016 0.250000
O O15 0.250000 0.250000 0.624610
#
# Coordination Sequence:
#
# PCOD8275989 Si02
#       6
#    16  16   8  16  16  16
#     4  11  23  36  55  84 114 142 182 231 276 330
#     4  10  19  33  55  81 108 140 183 224 264 326
#     4  10  20  34  56  78 104 142 188 232 276 322
#     4   9  18  32  53  82 113 144 179 223 276 332
#     4   9  19  37  57  75 105 147 186 225 276 336
#     4   9  18  33  52  76 107 141 173 213 268 323
#
# _framework density 18.645869000000001
#
# number of rings (size 3 to 8) (size 9 to 14) (size 15 to 20)
#    0.000    2.545    0.000    3.545    0.000    7.636 
#    0.000    0.000    0.000    3.273    0.000    8.909 
#    0.000    0.000    0.000    0.000    0.000    0.000 
#
# Total GULP energy -545408.553118 kJ/mol
# GULP energy per Si atom -12395.648934 kJ/mol
# Density = 1.860343 g / cm^3
# Si number density = 18.645869 Si / 1000 Ang^3
#
#
#
# Elastic Constant Matrix: (Units=GPa)
#
#
# Indices 1 2 3 4 5 6 
#
# 1 88.0432 54.2738 52.7575 0.0000 0.0000 0.0000
# 2 54.2738 129.5007 49.4721 0.0000 0.0000 0.0000
# 3 52.7575 49.4721 116.6475 0.0000 0.0000 0.0000
# 4 0.0000 0.0000 0.0000 26.3650 0.0000 0.0000
# 5 0.0000 0.0000 0.0000 0.0000 35.9404 0.0000
# 6 0.0000 0.0000 0.0000 0.0000 0.0000 18.6511
#
#
#
# Elastic Compliance Matrix: (Units=1/GPa)
#
#
# Indices 1 2 3 4 5 6 
#
# 1 0.018246 -0.005363 -0.005978 0.000000 0.000000 0.000000
# 2 -0.005363 0.010792 -0.002151 0.000000 0.000000 0.000000
# 3 -0.005978 -0.002151 0.012189 0.000000 0.000000 0.000000
# 4 0.000000 0.000000 0.000000 0.037929 0.000000 0.000000
# 5 0.000000 0.000000 0.000000 0.000000 0.027824 0.000000
# 6 0.000000 0.000000 0.000000 0.000000 0.000000 0.053616
#
#
# Mechanical properties :
#
#
# Convention : Reuss Voigt Hill
#
# Bulk Modulus (GPa) = 70.21435 71.91093 71.06264
# Shear Modulus (GPa) = 25.99729 28.03715 27.01722
#
# Velocity S-wave (km/s) = 3.73804 3.88192 3.81066
# Velocity P-wave (km/s) = 7.50794 7.66439 7.58656
#
# Compressibility (1/GPa) = 0.01424210
#
# Stress axis : x y z
#
# Youngs Moduli (GPa) = 54.80557 92.66522 82.04265
#
# Poissons Ratio (x) = 0.49700 0.49043
# Poissons Ratio (y) = 0.29394 0.17648
# Poissons Ratio (z) = 0.32761 0.19933
#
# Static dielectric constant tensor:
#      x y z
#    x 3.479130 0.000000 0.000000 
#    y 0.000000 3.443710 0.000000 
#    z 0.000000 0.000000 3.620300 
# 
# 
# High freq. dielectric constant tensor:
#      x y z
#    x 1.707370 0.000000 0.000000 
#    y 0.000000 1.711210 0.000000 
#    z 0.000000 0.000000 1.733830 
# 
# From -- ./inp_files/59372.got.cif
#   From: 2010.03.12/outbox.cif.g09.slc.cpg/sg66_30_cif.got.tgz:59372.got - 2010.04.10 21:57:39.
