data_PCOD8275218
_publ_section_title
;
Structure prediction by ZEFSAII (Michael W. Deem and Ramdas Pophale) SiO2 
 PCOD8275218
Probable space group: C C C M
;
_chemical_formula_sum "Si O2"
_cell_formula_units_Z 120
_cell_length_a 20.882059
_cell_length_b 15.418511
_cell_length_c 17.987314
_cell_angle_alpha 90.000000
_cell_angle_beta 90.000000
_cell_angle_gamma 90.000000
_cell_volume 5791.380100
_symmetry_space_group_name_H-M "C C C M"
_symmetry_group_IT_number 66
_symmetry_cell_setting 'orthorhombic'
loop_
_space_group_symop_operation_xyz
x,y,z
-x,-y,z
x,-y,1/2-z
-x,y,1/2-z
-x,-y,-z
x,y,-z
-x,y,1/2+z
x,-y,1/2+z
1/2+x,1/2+y,z
1/2-x,1/2-y,z
1/2+x,1/2-y,1/2-z
1/2-x,1/2+y,1/2-z
1/2-x,1/2-y,-z
1/2+x,1/2+y,-z
1/2-x,1/2+y,1/2+z
1/2+x,1/2-y,1/2+z
loop_
_atom_site_type_symbol
_atom_site_label
_atom_site_fract_x
_atom_site_fract_y
_atom_site_fract_z
Si Si1 0.911275 0.879175 0.202613
Si Si2 0.988111 0.719551 0.834656
Si Si3 0.500000 0.500000 0.375416
Si Si4 0.230130 0.153876 0.630734
Si Si5 0.942599 0.556465 0.085818
Si Si6 0.734523 0.651518 0.805392
Si Si7 0.581325 0.349337 0.874368
Si Si8 0.800013 0.516746 0.915531
O O1 0.942553 0.801388 0.158352
O O2 0.837491 0.876865 0.181295
O O3 0.928597 0.871562 0.288278
O O4 0.940110 0.968294 0.173525
O O5 0.946087 0.647575 0.873939
O O6 0.000000 0.689656 0.750000
O O7 0.053304 0.750020 0.879568
O O8 0.463845 0.420086 0.419519
O O9 0.250000 0.250000 0.604002
O O10 0.247084 0.141773 0.717493
O O11 0.155889 0.144890 0.605719
O O12 0.269128 0.078611 0.589690
O O13 0.875661 0.507860 0.100171
O O14 0.000000 0.500000 0.120049
O O15 0.954829 0.574223 0.000000
O O16 0.750000 0.750000 0.830462
O O17 0.775109 0.585083 0.854837
O O18 0.788081 0.551123 0.000000
#
# Coordination Sequence:
#
# PCOD8275218 Si02
#       8
#    16  16   8  16  16  16  16  16
#     4   9  16  28  50  81 116 144 178 227 285 340
#     4   9  18  34  57  88 114 141 192 243 282 339
#     4  10  15  24  46  76 111 148 179 216 273 346
#     4  10  22  38  59  87 120 155 194 245 302 353
#     4  10  23  42  58  75 109 152 189 233 293 346
#     4  10  20  37  60  86 118 153 190 243 302 355
#     4   9  17  29  52  83 114 147 183 232 290 339
#     4  11  24  41  60  85 118 158 204 245 291 359
#
# _framework density 20.720448999999999
#
# number of rings (size 3 to 8) (size 9 to 14) (size 15 to 20)
#    0.000    2.267    0.000    4.000    1.867    4.000 
#    2.400    1.333    0.000    0.000    0.000    4.667 
#    0.000    0.000    0.000    0.000    0.000    0.000 
#
# Total GULP energy -743307.111261 kJ/mol
# GULP energy per Si atom -12388.451854 kJ/mol
# Density = 2.067329 g / cm^3
# Si number density = 20.720449 Si / 1000 Ang^3
#
#
#
# Elastic Constant Matrix: (Units=GPa)
#
#
# Indices 1 2 3 4 5 6 
#
# 1 110.5662 52.1315 28.7454 0.0000 0.0000 0.0000
# 2 52.1315 114.2227 19.4332 0.0000 0.0000 0.0000
# 3 28.7454 19.4332 40.0776 0.0000 0.0000 0.0000
# 4 0.0000 0.0000 0.0000 61.1581 0.0000 0.0000
# 5 0.0000 0.0000 0.0000 0.0000 15.4513 0.0000
# 6 0.0000 0.0000 0.0000 0.0000 0.0000 34.2612
#
#
#
# Elastic Compliance Matrix: (Units=1/GPa)
#
#
# Indices 1 2 3 4 5 6 
#
# 1 0.013153 -0.004793 -0.007109 0.000000 0.000000 0.000000
# 2 -0.004793 0.011289 -0.002036 0.000000 0.000000 0.000000
# 3 -0.007109 -0.002036 0.031038 0.000000 0.000000 0.000000
# 4 0.000000 0.000000 0.000000 0.016351 0.000000 0.000000
# 5 0.000000 0.000000 0.000000 0.000000 0.064719 0.000000
# 6 0.000000 0.000000 0.000000 0.000000 0.000000 0.029187
#
#
# Mechanical properties :
#
#
# Convention : Reuss Voigt Hill
#
# Bulk Modulus (GPa) = 36.22895 51.72074 43.97484
# Shear Modulus (GPa) = 24.65293 33.14457 28.89875
#
# Velocity S-wave (km/s) = 3.45307 4.00385 3.73862
# Velocity P-wave (km/s) = 5.78108 6.81100 6.31707
#
# Compressibility (1/GPa) = 0.02760224
#
# Stress axis : x y z
#
# Youngs Moduli (GPa) = 76.02969 88.58264 32.21861
#
# Poissons Ratio (x) = 0.42461 0.22906
# Poissons Ratio (y) = 0.36444 0.06559
# Poissons Ratio (z) = 0.54053 0.18034
#
# Static dielectric constant tensor:
#      x y z
#    x 4.238470 0.000000 0.000000 
#    y 0.000000 3.890060 0.000000 
#    z 0.000000 0.000000 3.363570 
# 
# 
# High freq. dielectric constant tensor:
#      x y z
#    x 1.825220 0.000000 0.000000 
#    y 0.000000 1.821570 0.000000 
#    z 0.000000 0.000000 1.772750 
# 
# From -- ./inp_files/51996.got.cif
#   From: 2010.03.12/outbox.cif.g09.slc.cpg/sg66_26_cif.got.tgz:51996.got - 2010.04.10 21:57:39.
