data_PCOD8275965
_publ_section_title
;
Structure prediction by ZEFSAII (Michael W. Deem and Ramdas Pophale) SiO2 
 PCOD8275965
Probable space group: C C C M
;
_chemical_formula_sum "Si O2"
_cell_formula_units_Z 80
_cell_length_a 14.230101
_cell_length_b 17.628718
_cell_length_c 18.073617
_cell_angle_alpha 90.000000
_cell_angle_beta 90.000000
_cell_angle_gamma 90.000000
_cell_volume 4533.919323
_symmetry_space_group_name_H-M "C C C M"
_symmetry_group_IT_number 66
_symmetry_cell_setting 'orthorhombic'
loop_
_space_group_symop_operation_xyz
x,y,z
-x,-y,z
x,-y,1/2-z
-x,y,1/2-z
-x,-y,-z
x,y,-z
-x,y,1/2+z
x,-y,1/2+z
1/2+x,1/2+y,z
1/2-x,1/2-y,z
1/2+x,1/2-y,1/2-z
1/2-x,1/2+y,1/2-z
1/2-x,1/2-y,-z
1/2+x,1/2+y,-z
1/2-x,1/2+y,1/2+z
1/2+x,1/2-y,1/2+z
loop_
_atom_site_type_symbol
_atom_site_label
_atom_site_fract_x
_atom_site_fract_y
_atom_site_fract_z
Si Si1 0.658373 0.706972 0.297222
Si Si2 0.088810 0.949791 0.416273
Si Si3 0.500077 0.288533 0.081923
Si Si4 0.762345 0.928891 0.205333
Si Si5 0.154311 0.706459 0.344672
O O1 0.750000 0.750000 0.328606
O O2 0.586020 0.700572 0.363301
O O3 0.681548 0.624523 0.263111
O O4 0.615527 0.758098 0.231738
O O5 0.120174 0.972343 0.500000
O O6 0.065306 0.861548 0.412544
O O7 0.171505 0.964319 0.358213
O O8 0.000000 0.000000 0.391976
O O9 0.431083 0.216986 0.097884
O O10 0.542298 0.278210 0.000000
O O11 0.677660 0.882418 0.166289
O O12 0.719511 0.000000 0.250000
O O13 0.250000 0.750000 0.369422
#
# Coordination Sequence:
#
# PCOD8275965 Si02
#       5
#    16  16  16  16  16
#     4   9  19  34  51  74 100 133 177 225 260 312
#     4  10  20  30  45  78 113 141 171 208 266 335
#     4  11  20  31  52  76 106 144 176 214 271 319
#     4  10  19  33  53  76 103 141 178 219 276 315
#     4   9  18  33  50  74 101 136 177 221 252 312
#
# _framework density 17.644777999999999
#
# number of rings (size 3 to 8) (size 9 to 14) (size 15 to 20)
#    0.000    2.600    4.000    1.800    0.000    3.600 
#    0.000    0.000    0.000   10.800    0.000    5.600 
#    0.000    0.000    0.000    0.000    0.000    0.000 
#
# Total GULP energy -495780.061849 kJ/mol
# GULP energy per Si atom -12394.501546 kJ/mol
# Density = 1.760462 g / cm^3
# Si number density = 17.644778 Si / 1000 Ang^3
#
#
#
# Elastic Constant Matrix: (Units=GPa)
#
#
# Indices 1 2 3 4 5 6 
#
# 1 39.5173 17.0679 30.9099 0.0000 0.0000 0.0000
# 2 17.0679 92.0476 18.0161 0.0000 0.0000 0.0000
# 3 30.9099 18.0161 68.8028 0.0000 0.0000 0.0000
# 4 0.0000 0.0000 0.0000 20.7984 0.0000 0.0000
# 5 0.0000 0.0000 0.0000 0.0000 9.6331 0.0000
# 6 0.0000 0.0000 0.0000 0.0000 0.0000 22.3402
#
#
#
# Elastic Compliance Matrix: (Units=1/GPa)
#
#
# Indices 1 2 3 4 5 6 
#
# 1 0.040472 -0.004159 -0.017093 0.000000 0.000000 0.000000
# 2 -0.004159 0.011878 -0.001242 0.000000 0.000000 0.000000
# 3 -0.017093 -0.001242 0.022539 0.000000 0.000000 0.000000
# 4 0.000000 0.000000 0.000000 0.048081 0.000000 0.000000
# 5 0.000000 0.000000 0.000000 0.000000 0.103809 0.000000
# 6 0.000000 0.000000 0.000000 0.000000 0.000000 0.044762
#
#
# Mechanical properties :
#
#
# Convention : Reuss Voigt Hill
#
# Bulk Modulus (GPa) = 33.44402 36.92840 35.18621
# Shear Modulus (GPa) = 15.31418 19.51258 17.41338
#
# Velocity S-wave (km/s) = 2.94924 3.32905 3.14488
# Velocity P-wave (km/s) = 5.53105 5.97921 5.75949
#
# Compressibility (1/GPa) = 0.02990071
#
# Stress axis : x y z
#
# Youngs Moduli (GPa) = 24.70873 84.18793 44.36841
#
# Poissons Ratio (x) = 0.35013 0.75839
# Poissons Ratio (y) = 0.10276 0.05510
# Poissons Ratio (z) = 0.42235 0.10456
#
# Static dielectric constant tensor:
#      x y z
#    x 2.998650 0.000000 0.000000 
#    y 0.000000 3.256950 0.000000 
#    z 0.000000 0.000000 3.329080 
# 
# 
# High freq. dielectric constant tensor:
#      x y z
#    x 1.653620 0.000000 0.000000 
#    y 0.000000 1.669710 0.000000 
#    z 0.000000 0.000000 1.682530 
# 
# From -- ./inp_files/40190.got.cif
#   From: 2010.03.12/outbox.cif.g09.slc.cpg/sg66_21_cif.got.tgz:40190.got - 2010.04.10 21:57:39.
