data_PCOD8275883
_publ_section_title
;
Structure prediction by ZEFSAII (Michael W. Deem and Ramdas Pophale) SiO2 
 PCOD8275883
Probable space group: C C C M
;
_chemical_formula_sum "Si O2"
_cell_formula_units_Z 84
_cell_length_a 27.209276
_cell_length_b 16.504629
_cell_length_c 10.007736
_cell_angle_alpha 90.000000
_cell_angle_beta 90.000000
_cell_angle_gamma 90.000000
_cell_volume 4494.264133
_symmetry_space_group_name_H-M "C C C M"
_symmetry_group_IT_number 66
_symmetry_cell_setting 'orthorhombic'
loop_
_space_group_symop_operation_xyz
x,y,z
-x,-y,z
x,-y,1/2-z
-x,y,1/2-z
-x,-y,-z
x,y,-z
-x,y,1/2+z
x,-y,1/2+z
1/2+x,1/2+y,z
1/2-x,1/2-y,z
1/2+x,1/2-y,1/2-z
1/2-x,1/2+y,1/2-z
1/2-x,1/2-y,-z
1/2+x,1/2+y,-z
1/2-x,1/2+y,1/2+z
1/2+x,1/2-y,1/2+z
loop_
_atom_site_type_symbol
_atom_site_label
_atom_site_fract_x
_atom_site_fract_y
_atom_site_fract_z
Si Si1 0.137856 0.077150 0.155836
Si Si2 0.065865 0.644258 0.651252
Si Si3 0.541067 0.682609 0.844665
Si Si4 0.500000 0.000000 0.750000
Si Si5 0.333961 0.072056 0.154602
Si Si6 0.236473 0.836705 0.343001
O O1 0.091900 0.135813 0.173166
O O2 0.185795 0.125398 0.210315
O O3 0.130249 0.000000 0.250000
O O4 0.144325 0.050962 0.000000
O O5 0.061136 0.669134 0.500000
O O6 0.046657 0.726395 0.720429
O O7 0.035264 0.560914 0.669118
O O8 0.123345 0.636415 0.686582
O O9 0.500000 0.640469 0.750000
O O10 0.524307 0.679913 0.000000
O O11 0.280806 0.104206 0.194657
O O12 0.347590 0.000000 0.250000
O O13 0.335995 0.044649 0.000000
O O14 0.231316 0.824210 0.500000
O O15 0.250000 0.750000 0.276803
#
# Coordination Sequence:
#
# PCOD8275883 Si02
#       6
#    16  16  16   4  16  16
#     4  10  21  37  59  84 111 144 184 230 277 328
#     4  10  20  33  51  77 109 144 181 220 268 326
#     4  10  21  38  57  79 108 143 183 227 275 328
#     4  12  18  32  52  74 110 144 178 224 272 320
#     4  10  19  32  51  76 104 135 173 215 257 309
#     4   9  17  32  56  81 105 138 178 219 267 322
#
# _framework density 18.690488999999999
#
# number of rings (size 3 to 8) (size 9 to 14) (size 15 to 20)
#    0.000    2.095    1.905    2.000    0.000    5.714 
#    0.000    2.857    0.000    4.571    0.000    0.000 
#    0.000    0.000    0.000    0.000    0.000    0.000 
#
# Total GULP energy -520364.924070 kJ/mol
# GULP energy per Si atom -12389.641049 kJ/mol
# Density = 1.864795 g / cm^3
# Si number density = 18.690489 Si / 1000 Ang^3
#
#
#
# Elastic Constant Matrix: (Units=GPa)
#
#
# Indices 1 2 3 4 5 6 
#
# 1 143.5166 36.3818 47.1510 0.0000 0.0000 0.0000
# 2 36.3818 95.1700 37.4791 0.0000 0.0000 0.0000
# 3 47.1510 37.4791 52.2623 0.0000 0.0000 0.0000
# 4 0.0000 0.0000 0.0000 23.3599 0.0000 0.0000
# 5 0.0000 0.0000 0.0000 0.0000 28.0519 0.0000
# 6 0.0000 0.0000 0.0000 0.0000 0.0000 7.9030
#
#
#
# Elastic Compliance Matrix: (Units=1/GPa)
#
#
# Indices 1 2 3 4 5 6 
#
# 1 0.009913 -0.000373 -0.008676 0.000000 0.000000 0.000000
# 2 -0.000373 0.014657 -0.010175 0.000000 0.000000 0.000000
# 3 -0.008676 -0.010175 0.034258 0.000000 0.000000 0.000000
# 4 0.000000 0.000000 0.000000 0.042808 0.000000 0.000000
# 5 0.000000 0.000000 0.000000 0.000000 0.035648 0.000000
# 6 0.000000 0.000000 0.000000 0.000000 0.000000 0.126534
#
#
# Mechanical properties :
#
#
# Convention : Reuss Voigt Hill
#
# Bulk Modulus (GPa) = 49.06484 59.21917 54.14201
# Shear Modulus (GPa) = 16.17814 23.19209 19.68511
#
# Velocity S-wave (km/s) = 2.94527 3.52639 3.24885
# Velocity P-wave (km/s) = 6.15422 6.95223 6.56536
#
# Compressibility (1/GPa) = 0.02038119
#
# Stress axis : x y z
#
# Youngs Moduli (GPa) = 100.88045 68.22709 29.19002
#
# Poissons Ratio (x) = 0.02543 0.25325
# Poissons Ratio (y) = 0.03761 0.29700
# Poissons Ratio (z) = 0.87523 0.69419
#
# Static dielectric constant tensor:
#      x y z
#    x 5.802630 0.000000 0.000000 
#    y 0.000000 3.447650 0.000000 
#    z 0.000000 0.000000 3.140880 
# 
# 
# High freq. dielectric constant tensor:
#      x y z
#    x 1.748500 0.000000 0.000000 
#    y 0.000000 1.727030 0.000000 
#    z 0.000000 0.000000 1.688220 
# 
# From -- ./inp_files/16462.got.cif
#   From: 2010.03.12/outbox.cif.g09.slc.cpg/sg66_9_cif.got.tgz:16462.got - 2010.04.10 21:57:39.
