data_PCOD8275047
_publ_section_title
;
Structure prediction by ZEFSAII (Michael W. Deem and Ramdas Pophale) SiO2 
 PCOD8275047
Probable space group: C M M M
;
_chemical_formula_sum "Si O2"
_cell_formula_units_Z 104
_cell_length_a 9.886882
_cell_length_b 28.963868
_cell_length_c 22.892318
_cell_angle_alpha 90.000000
_cell_angle_beta 90.000000
_cell_angle_gamma 90.000000
_cell_volume 6555.497869
_symmetry_space_group_name_H-M "C M M M"
_symmetry_group_IT_number 65
_symmetry_cell_setting 'orthorhombic'
loop_
_space_group_symop_operation_xyz
x,y,z
-x,-y,z
x,-y,-z
-x,y,-z
-x,-y,-z
x,y,-z
-x,y,z
x,-y,z
1/2+x,1/2+y,z
1/2-x,1/2-y,z
1/2+x,1/2-y,-z
1/2-x,1/2+y,-z
1/2-x,1/2-y,-z
1/2+x,1/2+y,-z
1/2-x,1/2+y,z
1/2+x,1/2-y,z
loop_
_atom_site_type_symbol
_atom_site_label
_atom_site_fract_x
_atom_site_fract_y
_atom_site_fract_z
Si Si1 0.348049 0.054591 0.347651
Si Si2 0.160742 0.448480 0.217807
Si Si3 0.660774 0.890800 0.109842
Si Si4 0.657711 0.608763 0.432463
Si Si5 0.338570 0.052212 0.000000
Si Si6 0.850943 0.787661 0.569380
Si Si7 0.155695 0.292077 0.931488
O O1 0.500000 0.073578 0.358882
O O2 0.297206 0.068345 0.282611
O O3 0.246083 0.074416 0.394742
O O4 0.348208 0.000000 0.353812
O O5 0.218254 0.500000 0.204855
O O6 0.217969 0.412098 0.170368
O O7 0.000000 0.450914 0.214317
O O8 0.500000 0.892942 0.108199
O O9 0.718509 0.921592 0.056898
O O10 0.706069 0.837568 0.103117
O O11 0.692924 0.600233 0.500000
O O12 0.500000 0.599280 0.420962
O O13 0.696100 0.660914 0.413758
O O14 0.500000 0.052448 0.000000
O O15 0.283144 0.000000 0.000000
O O16 0.855528 0.783278 0.500000
O O17 0.750000 0.750000 0.597131
O O18 0.000000 0.777752 0.594919
O O19 0.250000 0.250000 0.910926
O O20 0.000000 0.279960 0.916778
O O21 0.172506 0.302245 0.000000
#
# Coordination Sequence:
#
# PCOD8275047 Si02
#       7
#    16  16  16  16   8  16  16
#     4   9  18  31  45  63  87 115 150 186 216 256
#     4   8  14  25  41  60  83 113 145 175 213 263
#     4   9  14  22  37  59  86 114 141 173 215 257
#     4   9  18  31  46  66  91 116 143 178 222 268
#     4   9  14  18  29  56  91 115 131 163 214 261
#     4   8  14  25  41  62  87 111 135 165 203 251
#     4   9  16  26  40  60  87 115 145 180 215 254
#
# _framework density 15.864546000000001
#
# number of rings (size 3 to 8) (size 9 to 14) (size 15 to 20)
#    0.000    3.308    0.769    2.308    0.000    3.385 
#    0.000    3.077    0.000    1.846    0.000    4.308 
#    0.000    2.462    0.000    0.000    0.000    0.154 
#
# Total GULP energy -644483.559237 kJ/mol
# GULP energy per Si atom -12393.914601 kJ/mol
# Density = 1.582844 g / cm^3
# Si number density = 15.864546 Si / 1000 Ang^3
#
#
#
# Elastic Constant Matrix: (Units=GPa)
#
#
# Indices 1 2 3 4 5 6 
#
# 1 43.4056 42.1694 39.0615 0.0000 0.0000 0.0000
# 2 42.1694 101.8341 58.5976 0.0000 0.0000 0.0000
# 3 39.0615 58.5976 91.0756 0.0000 0.0000 0.0000
# 4 0.0000 0.0000 0.0000 15.9228 0.0000 0.0000
# 5 0.0000 0.0000 0.0000 0.0000 7.8862 0.0000
# 6 0.0000 0.0000 0.0000 0.0000 0.0000 25.8101
#
#
#
# Elastic Compliance Matrix: (Units=1/GPa)
#
#
# Indices 1 2 3 4 5 6 
#
# 1 0.045195 -0.012006 -0.011659 0.000000 0.000000 0.000000
# 2 -0.012006 0.018782 -0.006935 0.000000 0.000000 0.000000
# 3 -0.011659 -0.006935 0.020442 0.000000 0.000000 0.000000
# 4 0.000000 0.000000 0.000000 0.062803 0.000000 0.000000
# 5 0.000000 0.000000 0.000000 0.000000 0.126804 0.000000
# 6 0.000000 0.000000 0.000000 0.000000 0.000000 0.038745
#
#
# Mechanical properties :
#
#
# Convention : Reuss Voigt Hill
#
# Bulk Modulus (GPa) = 43.06825 57.33025 50.19925
# Shear Modulus (GPa) = 13.09890 16.35625 14.72758
#
# Velocity S-wave (km/s) = 2.87657 3.21439 3.05016
# Velocity P-wave (km/s) = 6.18379 7.07052 6.64197
#
# Compressibility (1/GPa) = 0.02321896
#
# Stress axis : x y z
#
# Youngs Moduli (GPa) = 22.12632 53.24160 48.91843
#
# Poissons Ratio (x) = 0.63924 0.57033
# Poissons Ratio (y) = 0.26566 0.33925
# Poissons Ratio (z) = 0.25797 0.36923
#
# Static dielectric constant tensor:
#      x y z
#    x 2.772780 0.000000 0.000000 
#    y 0.000000 3.132220 0.000000 
#    z 0.000000 0.000000 2.998350 
# 
# 
# High freq. dielectric constant tensor:
#      x y z
#    x 1.568070 0.000000 0.000000 
#    y 0.000000 1.613590 0.000000 
#    z 0.000000 0.000000 1.588220 
# 
# From -- ./inp_files/68564.got.cif
#   From: 2010.03.12/outbox.cif.g09.slc.cpg/sg65_35_cif.got.tgz:68564.got - 2010.04.10 20:52:16.
