data_PCOD8275299
_publ_section_title
;
Structure prediction by ZEFSAII (Michael W. Deem and Ramdas Pophale) SiO2 
 PCOD8275299
Probable space group: C C C M
;
_chemical_formula_sum "Si O2"
_cell_formula_units_Z 96
_cell_length_a 26.354301
_cell_length_b 28.500616
_cell_length_c 9.063220
_cell_angle_alpha 90.000000
_cell_angle_beta 90.000000
_cell_angle_gamma 90.000000
_cell_volume 6807.509730
_symmetry_space_group_name_H-M "C C C M"
_symmetry_group_IT_number 66
_symmetry_cell_setting 'orthorhombic'
loop_
_space_group_symop_operation_xyz
x,y,z
-x,-y,z
x,-y,1/2-z
-x,y,1/2-z
-x,-y,-z
x,y,-z
-x,y,1/2+z
x,-y,1/2+z
1/2+x,1/2+y,z
1/2-x,1/2-y,z
1/2+x,1/2-y,1/2-z
1/2-x,1/2+y,1/2-z
1/2-x,1/2-y,-z
1/2+x,1/2+y,-z
1/2-x,1/2+y,1/2+z
1/2+x,1/2-y,1/2+z
loop_
_atom_site_type_symbol
_atom_site_label
_atom_site_fract_x
_atom_site_fract_y
_atom_site_fract_z
Si Si1 0.144066 0.805977 0.674653
Si Si2 0.201223 0.717079 0.337289
Si Si3 0.900820 0.046188 0.173026
Si Si4 0.238513 0.852879 0.171657
Si Si5 0.052904 0.144453 0.675697
Si Si6 0.785247 0.955128 0.330323
O O1 0.138973 0.815186 0.500000
O O2 0.154160 0.750550 0.707569
O O3 0.190138 0.837137 0.734938
O O4 0.093214 0.818899 0.760248
O O5 0.192460 0.695379 0.500000
O O6 0.250000 0.750000 0.339584
O O7 0.210573 0.674610 0.222531
O O8 0.932115 0.091723 0.223156
O O9 0.842795 0.053579 0.225149
O O10 0.924266 0.000000 0.250000
O O11 0.904775 0.038767 0.000000
O O12 0.247331 0.908245 0.200229
O O13 0.227579 0.842819 0.000000
O O14 0.050207 0.149950 0.500000
O O15 0.000000 0.157417 0.750000
O O16 0.785771 0.968222 0.500000
O O17 0.760399 0.000000 0.250000
#
# Coordination Sequence:
#
# PCOD8275299 Si02
#       6
#    16  16  16  16  16  16
#     4  10  19  31  45  60  80 104 130 164 203 244
#     4   8  16  28  41  61  83 102 128 158 195 242
#     4   9  18  32  45  57  75  98 130 170 210 251
#     4  10  17  27  43  63  84 104 131 165 200 240
#     4  11  22  35  47  61  79 100 132 170 211 255
#     4   9  17  28  40  58  80 105 135 166 201 242
#
# _framework density 14.102073000000001
#
# number of rings (size 3 to 8) (size 9 to 14) (size 15 to 20)
#    0.000    2.500    1.667    2.500    0.000    6.667 
#    0.000    1.667    0.000    0.000    0.000    0.000 
#    0.000    0.000    0.000    0.000    0.000    0.833 
#
# Total GULP energy -595008.027620 kJ/mol
# GULP energy per Si atom -12396.000575 kJ/mol
# Density = 1.406998 g / cm^3
# Si number density = 14.102073 Si / 1000 Ang^3
#
#
#
# Elastic Constant Matrix: (Units=GPa)
#
#
# Indices 1 2 3 4 5 6 
#
# 1 52.5806 47.1036 31.5239 0.0000 0.0000 0.0000
# 2 47.1036 89.7235 49.9816 0.0000 0.0000 0.0000
# 3 31.5239 49.9816 69.8894 0.0000 0.0000 0.0000
# 4 0.0000 0.0000 0.0000 26.3918 0.0000 0.0000
# 5 0.0000 0.0000 0.0000 0.0000 14.7556 0.0000
# 6 0.0000 0.0000 0.0000 0.0000 0.0000 17.0149
#
#
#
# Elastic Compliance Matrix: (Units=1/GPa)
#
#
# Indices 1 2 3 4 5 6 
#
# 1 0.036781 -0.016735 -0.004622 0.000000 0.000000 0.000000
# 2 -0.016735 0.026140 -0.011146 0.000000 0.000000 0.000000
# 3 -0.004622 -0.011146 0.024364 0.000000 0.000000 0.000000
# 4 0.000000 0.000000 0.000000 0.037891 0.000000 0.000000
# 5 0.000000 0.000000 0.000000 0.000000 0.067771 0.000000
# 6 0.000000 0.000000 0.000000 0.000000 0.000000 0.058772
#
#
# Mechanical properties :
#
#
# Convention : Reuss Voigt Hill
#
# Bulk Modulus (GPa) = 44.88428 52.15687 48.52057
# Shear Modulus (GPa) = 15.42495 17.20476 16.31486
#
# Velocity S-wave (km/s) = 3.31086 3.49666 3.40503
# Velocity P-wave (km/s) = 6.82004 7.30532 7.06685
#
# Compressibility (1/GPa) = 0.02227951
#
# Stress axis : x y z
#
# Youngs Moduli (GPa) = 27.18777 38.25615 41.04398
#
# Poissons Ratio (x) = 0.64020 0.18973
# Poissons Ratio (y) = 0.45498 0.45746
# Poissons Ratio (z) = 0.12568 0.42639
#
# Static dielectric constant tensor:
#      x y z
#    x 2.563660 0.000000 0.000000 
#    y 0.000000 2.975310 0.000000 
#    z 0.000000 0.000000 2.858950 
# 
# 
# High freq. dielectric constant tensor:
#      x y z
#    x 1.485450 0.000000 0.000000 
#    y 0.000000 1.531810 0.000000 
#    z 0.000000 0.000000 1.551140 
# 
# From -- ./inp_files/9288.got.cif
#   From: 2010.03.12/outbox.cif.g09.slc.cpg/sg66_5_cif.got.tgz:9288.got - 2010.04.10 21:57:39.
