data_PCOD8275653
_publ_section_title
;
Structure prediction by ZEFSAII (Michael W. Deem and Ramdas Pophale) SiO2 
 PCOD8275653
Probable space group: C C C M
;
_chemical_formula_sum "Si O2"
_cell_formula_units_Z 88
_cell_length_a 12.811796
_cell_length_b 17.205877
_cell_length_c 22.128864
_cell_angle_alpha 90.000000
_cell_angle_beta 90.000000
_cell_angle_gamma 90.000000
_cell_volume 4878.046641
_symmetry_space_group_name_H-M "C C C M"
_symmetry_group_IT_number 66
_symmetry_cell_setting 'orthorhombic'
loop_
_space_group_symop_operation_xyz
x,y,z
-x,-y,z
x,-y,1/2-z
-x,y,1/2-z
-x,-y,-z
x,y,-z
-x,y,1/2+z
x,-y,1/2+z
1/2+x,1/2+y,z
1/2-x,1/2-y,z
1/2+x,1/2-y,1/2-z
1/2-x,1/2+y,1/2-z
1/2-x,1/2-y,-z
1/2+x,1/2+y,-z
1/2-x,1/2+y,1/2+z
1/2+x,1/2-y,1/2+z
loop_
_atom_site_type_symbol
_atom_site_label
_atom_site_fract_x
_atom_site_fract_y
_atom_site_fract_z
Si Si1 0.332476 0.818684 0.570145
Si Si2 0.736080 0.427506 0.331672
Si Si3 0.750000 0.250000 0.875247
Si Si4 0.002310 0.913610 0.350499
Si Si5 0.535599 0.270207 0.930438
Si Si6 0.788576 0.097503 0.800787
O O1 0.333585 0.847499 0.500000
O O2 0.250000 0.750000 0.578154
O O3 0.303507 0.889429 0.614813
O O4 0.445566 0.788556 0.592489
O O5 0.618814 0.393955 0.330672
O O6 0.770635 0.403866 0.263741
O O7 0.744757 0.520773 0.339203
O O8 0.649367 0.235845 0.916926
O O9 0.753751 0.174786 0.833648
O O10 0.970056 0.855140 0.402673
O O11 0.916275 0.906301 0.296192
O O12 0.000000 0.000000 0.378401
O O13 0.516304 0.282852 0.000000
#
# Coordination Sequence:
#
# PCOD8275653 Si02
#       6
#    16  16   8  16  16  16
#     4  10  20  34  55  82 109 137 176 223 272 323
#     4  10  18  34  54  80 112 140 171 229 274 317
#     4  10  21  38  54  74 105 146 186 220 260 328
#     4   9  17  30  50  79 110 138 172 217 271 328
#     4  10  20  35  53  76 106 142 181 224 266 320
#     4   9  20  33  53  79 109 143 184 215 264 324
#
# _framework density 18.040008
#
# number of rings (size 3 to 8) (size 9 to 14) (size 15 to 20)
#    0.000    2.364    1.818    0.818    1.273    2.545 
#    0.000   10.000    0.000    4.364    0.000    0.000 
#    0.000    0.000    0.000    0.000    0.000    0.000 
#
# Total GULP energy -545238.893943 kJ/mol
# GULP energy per Si atom -12391.793044 kJ/mol
# Density = 1.799895 g / cm^3
# Si number density = 18.040008 Si / 1000 Ang^3
#
#
#
# Elastic Constant Matrix: (Units=GPa)
#
#
# Indices 1 2 3 4 5 6 
#
# 1 98.6510 37.2033 33.3483 0.0000 0.0000 0.0000
# 2 37.2033 97.5422 46.6798 0.0000 0.0000 0.0000
# 3 33.3483 46.6798 75.0336 0.0000 0.0000 0.0000
# 4 0.0000 0.0000 0.0000 25.5172 0.0000 0.0000
# 5 0.0000 0.0000 0.0000 0.0000 15.5741 0.0000
# 6 0.0000 0.0000 0.0000 0.0000 0.0000 21.9023
#
#
#
# Elastic Compliance Matrix: (Units=1/GPa)
#
#
# Indices 1 2 3 4 5 6 
#
# 1 0.012519 -0.003008 -0.003693 0.000000 0.000000 0.000000
# 2 -0.003008 0.015321 -0.008195 0.000000 0.000000 0.000000
# 3 -0.003693 -0.008195 0.020067 0.000000 0.000000 0.000000
# 4 0.000000 0.000000 0.000000 0.039189 0.000000 0.000000
# 5 0.000000 0.000000 0.000000 0.000000 0.064209 0.000000
# 6 0.000000 0.000000 0.000000 0.000000 0.000000 0.045657
#
#
# Mechanical properties :
#
#
# Convention : Reuss Voigt Hill
#
# Bulk Modulus (GPa) = 55.19897 56.18772 55.69334
# Shear Modulus (GPa) = 21.47842 22.86508 22.17175
#
# Velocity S-wave (km/s) = 3.45425 3.56401 3.50956
# Velocity P-wave (km/s) = 6.82449 6.93902 6.88199
#
# Compressibility (1/GPa) = 0.01811628
#
# Stress axis : x y z
#
# Youngs Moduli (GPa) = 79.87599 65.27119 49.83374
#
# Poissons Ratio (x) = 0.19631 0.18404
# Poissons Ratio (y) = 0.24024 0.40837
# Poissons Ratio (z) = 0.29499 0.53487
#
# Static dielectric constant tensor:
#      x y z
#    x 3.532990 0.000000 0.000000 
#    y 0.000000 3.331600 0.000000 
#    z 0.000000 0.000000 3.234130 
# 
# 
# High freq. dielectric constant tensor:
#      x y z
#    x 1.691520 0.000000 0.000000 
#    y 0.000000 1.695640 0.000000 
#    z 0.000000 0.000000 1.690430 
# 
# From -- ./inp_files/48557.got.cif
#   From: 2010.03.12/outbox.cif.g09.slc.cpg/sg66_25_cif.got.tgz:48557.got - 2010.04.10 21:57:39.
