data_PCOD8275098
_publ_section_title
;
Structure prediction by ZEFSAII (Michael W. Deem and Ramdas Pophale) SiO2 
 PCOD8275098
Probable space group: C M M M
;
_chemical_formula_sum "Si O2"
_cell_formula_units_Z 80
_cell_length_a 28.785901
_cell_length_b 9.197384
_cell_length_c 20.763123
_cell_angle_alpha 90.000000
_cell_angle_beta 90.000000
_cell_angle_gamma 90.000000
_cell_volume 5497.140324
_symmetry_space_group_name_H-M "C M M M"
_symmetry_group_IT_number 65
_symmetry_cell_setting 'orthorhombic'
loop_
_space_group_symop_operation_xyz
x,y,z
-x,-y,z
x,-y,-z
-x,y,-z
-x,-y,-z
x,y,-z
-x,y,z
x,-y,z
1/2+x,1/2+y,z
1/2-x,1/2-y,z
1/2+x,1/2-y,-z
1/2-x,1/2+y,-z
1/2-x,1/2-y,-z
1/2+x,1/2+y,-z
1/2-x,1/2+y,z
1/2+x,1/2-y,z
loop_
_atom_site_type_symbol
_atom_site_label
_atom_site_fract_x
_atom_site_fract_y
_atom_site_fract_z
Si Si1 0.055442 0.335284 0.500000
Si Si2 0.444781 0.335918 0.624005
Si Si3 0.053972 0.329918 0.249017
Si Si4 0.704367 0.169739 0.925572
Si Si5 0.552332 0.826286 0.000000
Si Si6 0.106638 0.327403 0.123066
O O1 0.074473 0.500000 0.500000
O O2 0.074839 0.252215 0.562800
O O3 0.000000 0.335858 0.500000
O O4 0.500000 0.337356 0.621178
O O5 0.425120 0.500000 0.622524
O O6 0.428087 0.256562 0.688762
O O7 0.061976 0.500000 0.261861
O O8 0.084464 0.270643 0.189468
O O9 0.000000 0.298488 0.233963
O O10 0.750000 0.250000 0.899223
O O11 0.660253 0.222208 0.883477
O O12 0.713019 0.000000 0.917336
O O13 0.694586 0.209409 0.000000
O O14 0.577612 0.763319 0.063239
O O15 0.500000 0.767984 0.000000
O O16 0.553916 0.000000 0.000000
O O17 0.103202 0.500000 0.120611
#
# Coordination Sequence:
#
# PCOD8275098 Si02
#       6
#     8  16  16  16   8  16
#     4   9  15  23  37  55  73  95 128 169 202 225
#     4   9  16  25  36  51  73 102 133 162 193 229
#     4   9  16  25  37  54  76 102 132 163 195 233
#     4   9  16  27  42  58  76  96 122 159 203 247
#     4   9  14  20  33  54  77  99 127 163 200 235
#     4   9  15  24  37  55  77 100 126 162 204 239
#
# _framework density 14.553022
#
# number of rings (size 3 to 8) (size 9 to 14) (size 15 to 20)
#    0.000    3.000    1.000    1.500    0.000    6.000 
#    0.000    1.000    0.000    0.000    0.000    0.000 
#    0.000    4.800    0.000    0.900    0.000   10.900 
#
# Total GULP energy -495879.333452 kJ/mol
# GULP energy per Si atom -12396.983336 kJ/mol
# Density = 1.451990 g / cm^3
# Si number density = 14.553022 Si / 1000 Ang^3
#
#
#
# Elastic Constant Matrix: (Units=GPa)
#
#
# Indices 1 2 3 4 5 6 
#
# 1 78.4188 27.1642 53.5832 0.0000 0.0000 0.0000
# 2 27.1642 59.3912 50.3488 0.0000 0.0000 0.0000
# 3 53.5832 50.3488 138.6507 0.0000 0.0000 0.0000
# 4 0.0000 0.0000 0.0000 12.6807 0.0000 0.0000
# 5 0.0000 0.0000 0.0000 0.0000 6.2593 0.0000
# 6 0.0000 0.0000 0.0000 0.0000 0.0000 13.3015
#
#
#
# Elastic Compliance Matrix: (Units=1/GPa)
#
#
# Indices 1 2 3 4 5 6 
#
# 1 0.017773 -0.003332 -0.005659 0.000000 0.000000 0.000000
# 2 -0.003332 0.024951 -0.007773 0.000000 0.000000 0.000000
# 3 -0.005659 -0.007773 0.012222 0.000000 0.000000 0.000000
# 4 0.000000 0.000000 0.000000 0.078860 0.000000 0.000000
# 5 0.000000 0.000000 0.000000 0.000000 0.159762 0.000000
# 6 0.000000 0.000000 0.000000 0.000000 0.000000 0.075179
#
#
# Mechanical properties :
#
#
# Convention : Reuss Voigt Hill
#
# Bulk Modulus (GPa) = 46.68788 59.85033 53.26911
# Shear Modulus (GPa) = 12.21260 16.13926 14.17593
#
# Velocity S-wave (km/s) = 2.90000 3.33377 3.12443
# Velocity P-wave (km/s) = 6.58515 7.48557 7.04975
#
# Compressibility (1/GPa) = 0.02141883
#
# Stress axis : x y z
#
# Youngs Moduli (GPa) = 56.26626 40.07872 81.82094
#
# Poissons Ratio (x) = 0.13353 0.46299
# Poissons Ratio (y) = 0.18747 0.63599
# Poissons Ratio (z) = 0.31839 0.31153
#
# Static dielectric constant tensor:
#      x y z
#    x 2.607450 0.000000 0.000000 
#    y 0.000000 2.676140 0.000000 
#    z 0.000000 0.000000 2.937460 
# 
# 
# High freq. dielectric constant tensor:
#      x y z
#    x 1.511740 0.000000 0.000000 
#    y 0.000000 1.536340 0.000000 
#    z 0.000000 0.000000 1.554970 
# 
# From -- ./inp_files/60050.got.cif
#   From: 2010.03.12/outbox.cif.g09.slc.cpg/sg65_31_cif.got.tgz:60050.got - 2010.04.10 20:52:16.
