data_PCOD8275930
_publ_section_title
;
Structure prediction by ZEFSAII (Michael W. Deem and Ramdas Pophale) SiO2 
 PCOD8275930
Probable space group: C C C M
;
_chemical_formula_sum "Si O2"
_cell_formula_units_Z 104
_cell_length_a 26.516762
_cell_length_b 8.607940
_cell_length_c 23.168637
_cell_angle_alpha 90.000000
_cell_angle_beta 90.000000
_cell_angle_gamma 90.000000
_cell_volume 5288.350202
_symmetry_space_group_name_H-M "C C C M"
_symmetry_group_IT_number 66
_symmetry_cell_setting 'orthorhombic'
loop_
_space_group_symop_operation_xyz
x,y,z
-x,-y,z
x,-y,1/2-z
-x,y,1/2-z
-x,-y,-z
x,y,-z
-x,y,1/2+z
x,-y,1/2+z
1/2+x,1/2+y,z
1/2-x,1/2-y,z
1/2+x,1/2-y,1/2-z
1/2-x,1/2+y,1/2-z
1/2-x,1/2-y,-z
1/2+x,1/2+y,-z
1/2-x,1/2+y,1/2+z
1/2+x,1/2-y,1/2+z
loop_
_atom_site_type_symbol
_atom_site_label
_atom_site_fract_x
_atom_site_fract_y
_atom_site_fract_z
Si Si1 0.830331 0.000000 0.250000
Si Si2 0.965566 0.849927 0.876627
Si Si3 0.879205 0.978263 0.435546
Si Si4 0.388959 0.080989 0.334308
Si Si5 0.403428 0.235295 0.780225
Si Si6 0.196884 0.184229 0.643127
Si Si7 0.050404 0.320051 0.563932
O O1 0.865823 0.880264 0.215842
O O2 0.796126 0.906698 0.296006
O O3 0.955092 0.777429 0.813402
O O4 0.993856 0.725862 0.917246
O O5 0.910923 0.885728 0.904700
O O6 0.000000 0.000000 0.867858
O O7 0.864520 0.031866 0.500000
O O8 0.827573 0.936019 0.402349
O O9 0.915201 0.830817 0.437403
O O10 0.416579 0.189333 0.285935
O O11 0.337001 0.162965 0.350566
O O12 0.425837 0.062116 0.389449
O O13 0.376197 0.910909 0.310749
O O14 0.250000 0.250000 0.620640
O O15 0.048225 0.396228 0.500000
#
# Coordination Sequence:
#
# PCOD8275930 Si02
#       7
#     8  16  16  16  16  16  16
#     4  10  20  36  57  78 110 144 178 231 278 340
#     4  10  19  32  55  82 110 148 193 233 271 324
#     4   9  17  33  54  81 114 147 185 234 277 326
#     4   9  21  38  54  79 114 149 175 234 287 333
#     4  10  20  37  56  77 114 144 185 226 284 334
#     4  10  20  35  58  86 107 138 186 228 286 338
#     4   9  18  34  54  79 112 151 192 227 272 331
#
# _framework density 19.665868
#
# number of rings (size 3 to 8) (size 9 to 14) (size 15 to 20)
#    0.000    2.462    1.538    0.462    2.154    5.846 
#    0.000    3.846    0.000    0.000    0.000    1.077 
#    0.000    0.000    0.000    0.000    0.000    0.000 
#
# Total GULP energy -644649.332674 kJ/mol
# GULP energy per Si atom -12397.102551 kJ/mol
# Density = 1.962111 g / cm^3
# Si number density = 19.665868 Si / 1000 Ang^3
#
#
#
# Elastic Constant Matrix: (Units=GPa)
#
#
# Indices 1 2 3 4 5 6 
#
# 1 113.0179 30.3702 63.8852 0.0000 0.0000 0.0000
# 2 30.3702 63.7897 23.0348 0.0000 0.0000 0.0000
# 3 63.8852 23.0348 125.0655 0.0000 0.0000 0.0000
# 4 0.0000 0.0000 0.0000 19.1896 0.0000 0.0000
# 5 0.0000 0.0000 0.0000 0.0000 20.7064 0.0000
# 6 0.0000 0.0000 0.0000 0.0000 0.0000 25.4181
#
#
#
# Elastic Compliance Matrix: (Units=1/GPa)
#
#
# Indices 1 2 3 4 5 6 
#
# 1 0.013410 -0.004189 -0.006078 0.000000 0.000000 0.000000
# 2 -0.004189 0.018102 -0.001194 0.000000 0.000000 0.000000
# 3 -0.006078 -0.001194 0.011321 0.000000 0.000000 0.000000
# 4 0.000000 0.000000 0.000000 0.052112 0.000000 0.000000
# 5 0.000000 0.000000 0.000000 0.000000 0.048294 0.000000
# 6 0.000000 0.000000 0.000000 0.000000 0.000000 0.039342
#
#
# Mechanical properties :
#
#
# Convention : Reuss Voigt Hill
#
# Bulk Modulus (GPa) = 50.22845 59.60594 54.91719
# Shear Modulus (GPa) = 23.56927 25.36834 24.46881
#
# Velocity S-wave (km/s) = 3.46567 3.59551 3.53119
# Velocity P-wave (km/s) = 6.45065 6.90015 6.67918
#
# Compressibility (1/GPa) = 0.01990904
#
# Stress axis : x y z
#
# Youngs Moduli (GPa) = 74.57226 55.24160 88.33446
#
# Poissons Ratio (x) = 0.23143 0.53692
# Poissons Ratio (y) = 0.31242 0.10548
# Poissons Ratio (z) = 0.45327 0.06596
#
# Static dielectric constant tensor:
#      x y z
#    x 3.220250 0.000000 0.000000 
#    y 0.000000 3.455200 0.000000 
#    z 0.000000 0.000000 3.959460 
# 
# 
# High freq. dielectric constant tensor:
#      x y z
#    x 1.731630 0.000000 0.000000 
#    y 0.000000 1.757850 0.000000 
#    z 0.000000 0.000000 1.775690 
# 
# From -- ./inp_files/60153.got.cif
#   From: 2010.03.12/outbox.cif.g09.slc.cpg/sg66_31_cif.got.tgz:60153.got - 2010.04.10 21:57:39.
