data_PCOD8275564
_publ_section_title
;
Structure prediction by ZEFSAII (Michael W. Deem and Ramdas Pophale) SiO2 
 PCOD8275564
Probable space group: C C C M
;
_chemical_formula_sum "Si O2"
_cell_formula_units_Z 96
_cell_length_a 11.068277
_cell_length_b 26.809196
_cell_length_c 18.089481
_cell_angle_alpha 90.000000
_cell_angle_beta 90.000000
_cell_angle_gamma 90.000000
_cell_volume 5367.720776
_symmetry_space_group_name_H-M "C C C M"
_symmetry_group_IT_number 66
_symmetry_cell_setting 'orthorhombic'
loop_
_space_group_symop_operation_xyz
x,y,z
-x,-y,z
x,-y,1/2-z
-x,y,1/2-z
-x,-y,-z
x,y,-z
-x,y,1/2+z
x,-y,1/2+z
1/2+x,1/2+y,z
1/2-x,1/2-y,z
1/2+x,1/2-y,1/2-z
1/2-x,1/2+y,1/2-z
1/2-x,1/2-y,-z
1/2+x,1/2+y,-z
1/2-x,1/2+y,1/2+z
1/2+x,1/2-y,1/2+z
loop_
_atom_site_type_symbol
_atom_site_label
_atom_site_fract_x
_atom_site_fract_y
_atom_site_fract_z
Si Si1 0.906324 0.461057 0.413350
Si Si2 0.608451 0.241861 0.310373
Si Si3 0.630574 0.850756 0.084779
Si Si4 0.810444 0.000457 0.830997
Si Si5 0.906823 0.833104 0.917379
Si Si6 0.985867 0.082289 0.169260
O O1 0.922369 0.459918 0.500000
O O2 0.923242 0.403751 0.386191
O O3 0.776756 0.483415 0.395429
O O4 0.000000 0.500000 0.376452
O O5 0.500000 0.241720 0.250000
O O6 0.750000 0.250000 0.281301
O O7 0.591824 0.191225 0.357028
O O8 0.578534 0.285735 0.366054
O O9 0.774310 0.856500 0.086144
O O10 0.589124 0.838173 0.000000
O O11 0.855877 0.056991 0.846007
O O12 0.747397 0.000000 0.750000
O O13 0.919339 0.962065 0.831864
O O14 0.998743 0.876062 0.892833
O O15 0.940102 0.816134 0.000000
O O16 0.000000 0.108278 0.250000
#
# Coordination Sequence:
#
# PCOD8275564 Si02
#       6
#    16  16  16  16  16  16
#     4  10  20  35  52  73 104 142 182 222 261 306
#     4  10  21  38  59  84 111 139 180 227 280 330
#     4   9  18  35  56  78 107 142 185 226 260 311
#     4   9  18  32  48  72 105 143 175 211 263 315
#     4  10  18  31  56  84 106 137 181 225 267 320
#     4   9  17  30  49  75 110 139 167 214 270 314
#
# _framework density 17.884685999999999
#
# number of rings (size 3 to 8) (size 9 to 14) (size 15 to 20)
#    0.000    2.500    1.667    2.000    0.000    3.000 
#    3.000    1.667    0.000    4.000    0.000    0.000 
#    0.000    0.000    0.000    0.000    0.000    0.000 
#
# Total GULP energy -594655.515608 kJ/mol
# GULP energy per Si atom -12388.656575 kJ/mol
# Density = 1.784398 g / cm^3
# Si number density = 17.884686 Si / 1000 Ang^3
#
#
#
# Elastic Constant Matrix: (Units=GPa)
#
#
# Indices 1 2 3 4 5 6 
#
# 1 62.0601 43.1078 43.8048 0.0000 0.0000 0.0000
# 2 43.1078 132.1053 60.1792 0.0000 0.0000 0.0000
# 3 43.8048 60.1792 77.7958 0.0000 0.0000 0.0000
# 4 0.0000 0.0000 0.0000 10.2330 0.0000 0.0000
# 5 0.0000 0.0000 0.0000 0.0000 -161.6530 0.0000
# 6 0.0000 0.0000 0.0000 0.0000 0.0000 25.7045
#
#
#
# Elastic Compliance Matrix: (Units=1/GPa)
#
#
# Indices 1 2 3 4 5 6 
#
# 1 0.027472 -0.002961 -0.013178 0.000000 0.000000 0.000000
# 2 -0.002961 0.012008 -0.007621 0.000000 0.000000 0.000000
# 3 -0.013178 -0.007621 0.026170 0.000000 0.000000 0.000000
# 4 0.000000 0.000000 0.000000 0.097723 0.000000 0.000000
# 5 0.000000 0.000000 0.000000 0.000000 -0.006186 0.000000
# 6 0.000000 0.000000 0.000000 0.000000 0.000000 0.038904
#
#
# Mechanical properties :
#
#
# Convention : Reuss Voigt Hill
#
# Bulk Modulus (GPa) = 55.16197 62.90498 59.03347
# Shear Modulus (GPa) = 20.02769 -16.81848 1.60461
#
# Velocity S-wave (km/s) = 3.35001 -3.06990 0.94823
# Velocity P-wave (km/s) = 6.77300 4.76269 5.85477
#
# Compressibility (1/GPa) = 0.01812843
#
# Stress axis : x y z
#
# Youngs Moduli (GPa) = 36.40050 83.27896 38.21194
#
# Poissons Ratio (x) = 0.24662 0.50356
# Poissons Ratio (y) = 0.10780 0.29122
# Poissons Ratio (z) = 0.47969 0.63469
#
# Static dielectric constant tensor:
#      x y z
#    x 1.823790 0.000000 0.000000 
#    y 0.000000 3.277770 0.000000 
#    z 0.000000 0.000000 3.511590 
# 
# 
# High freq. dielectric constant tensor:
#      x y z
#    x 1.661310 0.000000 0.000000 
#    y 0.000000 1.704690 0.000000 
#    z 0.000000 0.000000 1.685060 
# 
# From -- ./inp_files/38804.got.cif
#   From: 2010.03.12/outbox.cif.g09.slc.cpg/sg66_20_cif.got.tgz:38804.got - 2010.04.10 21:57:39.
