data_PCOD8275262
_publ_section_title
;
Structure prediction by ZEFSAII (Michael W. Deem and Ramdas Pophale) SiO2 
 PCOD8275262
Probable space group: C C C M
;
_chemical_formula_sum "Si O2"
_cell_formula_units_Z 88
_cell_length_a 13.547775
_cell_length_b 24.185075
_cell_length_c 14.379631
_cell_angle_alpha 90.000000
_cell_angle_beta 90.000000
_cell_angle_gamma 90.000000
_cell_volume 4711.542961
_symmetry_space_group_name_H-M "C C C M"
_symmetry_group_IT_number 66
_symmetry_cell_setting 'orthorhombic'
loop_
_space_group_symop_operation_xyz
x,y,z
-x,-y,z
x,-y,1/2-z
-x,y,1/2-z
-x,-y,-z
x,y,-z
-x,y,1/2+z
x,-y,1/2+z
1/2+x,1/2+y,z
1/2-x,1/2-y,z
1/2+x,1/2-y,1/2-z
1/2-x,1/2+y,1/2-z
1/2-x,1/2-y,-z
1/2+x,1/2+y,-z
1/2-x,1/2+y,1/2+z
1/2+x,1/2-y,1/2+z
loop_
_atom_site_type_symbol
_atom_site_label
_atom_site_fract_x
_atom_site_fract_y
_atom_site_fract_z
Si Si1 0.250000 0.750000 0.288473
Si Si2 0.338148 0.639390 0.236702
Si Si3 0.042126 0.273284 0.853064
Si Si4 0.347160 0.065157 0.744138
Si Si5 0.010987 0.153513 0.103353
Si Si6 0.507830 0.894619 0.895560
O O1 0.286257 0.699189 0.224014
O O2 0.161458 0.727368 0.352952
O O3 0.261051 0.589854 0.232820
O O4 0.413477 0.629535 0.152279
O O5 0.393221 0.637712 0.336202
O O6 0.002111 0.219839 0.906702
O O7 0.002633 0.328233 0.902194
O O8 0.000000 0.270364 0.750000
O O9 0.395288 0.087986 0.838663
O O10 0.411358 0.081657 0.654629
O O11 0.338555 0.000000 0.750000
O O12 0.020307 0.127783 0.000000
O O13 0.512670 0.918788 0.000000
#
# Coordination Sequence:
#
# PCOD8275262 Si02
#       6
#     8  16  16  16  16  16
#     4  10  16  32  58  78 112 152 182 226 276 332
#     4  10  20  38  59  81 117 149 189 240 280 347
#     4  11  17  34  56  84 122 151 186 228 281 343
#     4  11  24  41  60  82 114 155 196 239 288 335
#     4  10  21  36  58  87 118 151 183 235 295 343
#     4  11  22  37  59  87 118 154 193 233 279 339
#
# _framework density 18.677534000000001
#
# number of rings (size 3 to 8) (size 9 to 14) (size 15 to 20)
#    0.000    1.455    7.273    1.636    0.000    2.909 
#    0.000    4.545    0.000    1.091    0.000    0.000 
#    0.000    0.000    0.000    0.000    0.000    0.000 
#
# Total GULP energy -545596.093386 kJ/mol
# GULP energy per Si atom -12399.911213 kJ/mol
# Density = 1.863502 g / cm^3
# Si number density = 18.677534 Si / 1000 Ang^3
#
#
#
# Elastic Constant Matrix: (Units=GPa)
#
#
# Indices 1 2 3 4 5 6 
#
# 1 128.8331 46.8058 47.2020 0.0000 0.0000 0.0000
# 2 46.8058 82.4528 8.8347 0.0000 0.0000 0.0000
# 3 47.2020 8.8347 133.6520 0.0000 0.0000 0.0000
# 4 0.0000 0.0000 0.0000 10.6770 0.0000 0.0000
# 5 0.0000 0.0000 0.0000 0.0000 8.7438 0.0000
# 6 0.0000 0.0000 0.0000 0.0000 0.0000 25.3389
#
#
#
# Elastic Compliance Matrix: (Units=1/GPa)
#
#
# Indices 1 2 3 4 5 6 
#
# 1 0.011255 -0.006006 -0.003578 0.000000 0.000000 0.000000
# 2 -0.006006 0.015419 0.001102 0.000000 0.000000 0.000000
# 3 -0.003578 0.001102 0.008673 0.000000 0.000000 0.000000
# 4 0.000000 0.000000 0.000000 0.093660 0.000000 0.000000
# 5 0.000000 0.000000 0.000000 0.000000 0.114366 0.000000
# 6 0.000000 0.000000 0.000000 0.000000 0.000000 0.039465
#
#
# Mechanical properties :
#
#
# Convention : Reuss Voigt Hill
#
# Bulk Modulus (GPa) = 54.39661 61.18032 57.78847
# Shear Modulus (GPa) = 16.34366 25.09163 20.71764
#
# Velocity S-wave (km/s) = 2.96132 3.66924 3.33412
# Velocity P-wave (km/s) = 6.39374 7.12589 6.76972
#
# Compressibility (1/GPa) = 0.01838350
#
# Stress axis : x y z
#
# Youngs Moduli (GPa) = 88.85182 64.85393 115.30191
#
# Poissons Ratio (x) = 0.38948 0.41253
# Poissons Ratio (y) = 0.53361 -0.12703
# Poissons Ratio (z) = 0.31790 -0.07145
#
# Static dielectric constant tensor:
#      x y z
#    x 3.650520 0.000000 0.000000 
#    y 0.000000 3.396240 0.000000 
#    z 0.000000 0.000000 3.494580 
# 
# 
# High freq. dielectric constant tensor:
#      x y z
#    x 1.729710 0.000000 0.000000 
#    y 0.000000 1.709560 0.000000 
#    z 0.000000 0.000000 1.710910 
# 
# From -- ./inp_files/28784.got.cif
#   From: 2010.03.12/outbox.cif.g09.slc.cpg/sg66_15_cif.got.tgz:28784.got - 2010.04.10 21:57:39.
