data_PCOD8275118
_publ_section_title
;
Structure prediction by ZEFSAII (Michael W. Deem and Ramdas Pophale) SiO2 
 PCOD8275118
Probable space group: C M M M
;
_chemical_formula_sum "Si O2"
_cell_formula_units_Z 56
_cell_length_a 9.423972
_cell_length_b 36.442603
_cell_length_c 9.134584
_cell_angle_alpha 90.000000
_cell_angle_beta 90.000000
_cell_angle_gamma 90.000000
_cell_volume 3137.127363
_symmetry_space_group_name_H-M "C M M M"
_symmetry_group_IT_number 65
_symmetry_cell_setting 'orthorhombic'
loop_
_space_group_symop_operation_xyz
x,y,z
-x,-y,z
x,-y,-z
-x,y,-z
-x,-y,-z
x,y,-z
-x,y,z
x,-y,z
1/2+x,1/2+y,z
1/2-x,1/2-y,z
1/2+x,1/2-y,-z
1/2-x,1/2+y,-z
1/2-x,1/2-y,-z
1/2+x,1/2+y,-z
1/2-x,1/2+y,z
1/2+x,1/2-y,z
loop_
_atom_site_type_symbol
_atom_site_label
_atom_site_fract_x
_atom_site_fract_y
_atom_site_fract_z
Si Si1 0.335373 0.714518 0.329869
Si Si2 0.169147 0.000000 0.834392
Si Si3 0.331024 0.642478 0.165234
Si Si4 0.330737 0.428562 0.334415
O O1 0.308294 0.706477 0.500000
O O2 0.500000 0.721686 0.297141
O O3 0.250000 0.750000 0.275792
O O4 0.276550 0.679665 0.241045
O O5 0.227089 0.964133 0.751039
O O6 0.000000 0.000000 0.835110
O O7 0.227668 0.000000 0.000000
O O8 0.500000 0.641562 0.167363
O O9 0.271141 0.607615 0.253958
O O10 0.272705 0.640849 0.000000
O O11 0.272578 0.429309 0.500000
O O12 0.500000 0.428400 0.334393
#
# Coordination Sequence:
#
# PCOD8275118 Si02
#       4
#    16   8  16  16
#     4   9  17  29  44  61  81 106 136 169 205 245
#     4   9  15  21  29  43  65  93 126 163 200 237
#     4   9  16  25  37  53  73  98 129 164 201 241
#     4   9  15  22  32  46  66  94 128 163 198 238
#
# _framework density 17.850724
#
# number of rings (size 3 to 8) (size 9 to 14) (size 15 to 20)
#    0.000    3.000    0.000    2.143    0.000    9.143 
#    0.000    0.000    0.000    0.000    0.000    0.000 
#    0.000    0.000    0.000    1.286    0.000   28.000 
#
# Total GULP energy -347169.399149 kJ/mol
# GULP energy per Si atom -12398.907112 kJ/mol
# Density = 1.781010 g / cm^3
# Si number density = 17.850724 Si / 1000 Ang^3
#
#
#
# Elastic Constant Matrix: (Units=GPa)
#
#
# Indices 1 2 3 4 5 6 
#
# 1 10.0094 21.8195 14.2628 0.0000 0.0000 0.0000
# 2 21.8195 208.8311 112.3866 0.0000 0.0000 0.0000
# 3 14.2628 112.3866 163.7742 0.0000 0.0000 0.0000
# 4 0.0000 0.0000 0.0000 37.1312 0.0000 0.0000
# 5 0.0000 0.0000 0.0000 0.0000 6.3466 0.0000
# 6 0.0000 0.0000 0.0000 0.0000 0.0000 15.1922
#
#
#
# Elastic Compliance Matrix: (Units=1/GPa)
#
#
# Indices 1 2 3 4 5 6 
#
# 1 0.130411 -0.011913 -0.003182 0.000000 0.000000 0.000000
# 2 -0.011913 0.008681 -0.004920 0.000000 0.000000 0.000000
# 3 -0.003182 -0.004920 0.009759 0.000000 0.000000 0.000000
# 4 0.000000 0.000000 0.000000 0.026932 0.000000 0.000000
# 5 0.000000 0.000000 0.000000 0.000000 0.157564 0.000000
# 6 0.000000 0.000000 0.000000 0.000000 0.000000 0.065823
#
#
# Mechanical properties :
#
#
# Convention : Reuss Voigt Hill
#
# Bulk Modulus (GPa) = 9.18942 75.50582 42.34762
# Shear Modulus (GPa) = 10.51585 27.34372 18.92978
#
# Velocity S-wave (km/s) = 2.42977 3.91807 3.25999
# Velocity P-wave (km/s) = 3.60982 7.92834 6.15993
#
# Compressibility (1/GPa) = 0.10882079
#
# Stress axis : x y z
#
# Youngs Moduli (GPa) = 7.66809 115.19596 102.46938
#
# Poissons Ratio (x) = 1.37237 0.32605
# Poissons Ratio (y) = 0.09135 0.50410
# Poissons Ratio (z) = 0.02440 0.56671
#
# Static dielectric constant tensor:
#      x y z
#    x 2.490530 0.000000 0.000000 
#    y 0.000000 3.562950 0.000000 
#    z 0.000000 0.000000 3.497140 
# 
# 
# High freq. dielectric constant tensor:
#      x y z
#    x 1.593990 0.000000 0.000000 
#    y 0.000000 1.711380 0.000000 
#    z 0.000000 0.000000 1.704730 
# 
# From -- ./inp_files/4708.got.cif
#   From: 2010.03.12/outbox.cif.g09.slc.cpg/sg65_3_cif.got.tgz:4708.got - 2010.04.10 20:52:16.
