data_PCOD8275521
_publ_section_title
;
Structure prediction by ZEFSAII (Michael W. Deem and Ramdas Pophale) SiO2 
 PCOD8275521
Probable space group: C C C M
;
_chemical_formula_sum "Si O2"
_cell_formula_units_Z 80
_cell_length_a 13.595974
_cell_length_b 18.021612
_cell_length_c 17.164935
_cell_angle_alpha 90.000000
_cell_angle_beta 90.000000
_cell_angle_gamma 90.000000
_cell_volume 4205.775859
_symmetry_space_group_name_H-M "C C C M"
_symmetry_group_IT_number 66
_symmetry_cell_setting 'orthorhombic'
loop_
_space_group_symop_operation_xyz
x,y,z
-x,-y,z
x,-y,1/2-z
-x,y,1/2-z
-x,-y,-z
x,y,-z
-x,y,1/2+z
x,-y,1/2+z
1/2+x,1/2+y,z
1/2-x,1/2-y,z
1/2+x,1/2-y,1/2-z
1/2-x,1/2+y,1/2-z
1/2-x,1/2-y,-z
1/2+x,1/2+y,-z
1/2-x,1/2+y,1/2+z
1/2+x,1/2-y,1/2+z
loop_
_atom_site_type_symbol
_atom_site_label
_atom_site_fract_x
_atom_site_fract_y
_atom_site_fract_z
Si Si1 0.759034 0.433623 0.798248
Si Si2 0.171363 0.686129 0.913377
Si Si3 0.031086 0.204666 0.632901
Si Si4 0.407065 0.455026 0.411855
Si Si5 0.840346 0.195692 0.717354
O O1 0.814463 0.500000 0.750000
O O2 0.829080 0.380975 0.850636
O O3 0.683509 0.474386 0.856291
O O4 0.700939 0.386175 0.733444
O O5 0.250000 0.750000 0.887291
O O6 0.062434 0.722929 0.917318
O O7 0.198114 0.655787 0.000000
O O8 0.072303 0.132500 0.589860
O O9 0.090126 0.220402 0.712401
O O10 0.913312 0.197065 0.642396
O O11 0.500000 0.500000 0.378940
O O12 0.382825 0.479664 0.500000
O O13 0.750000 0.250000 0.701261
#
# Coordination Sequence:
#
# PCOD8275521 Si02
#       5
#    16  16  16  16  16
#     4  11  20  32  49  81 119 148 182 236 300 342
#     4  11  19  34  57  81 110 148 197 239 277 333
#     4  10  18  30  53  78 108 146 186 237 275 334
#     4  10  19  31  47  76 113 152 185 216 282 359
#     4  10  18  32  50  77 113 140 185 233 290 336
#
# _framework density 19.021460999999999
#
# number of rings (size 3 to 8) (size 9 to 14) (size 15 to 20)
#    0.000    1.600    6.000    2.400    0.000    2.000 
#    0.000    0.000    0.000    4.800    0.000    1.400 
#    0.000    3.200    0.000    0.000    0.000    0.000 
#
# Total GULP energy -495635.148789 kJ/mol
# GULP energy per Si atom -12390.878720 kJ/mol
# Density = 1.897817 g / cm^3
# Si number density = 19.021461 Si / 1000 Ang^3
#
#
#
# Elastic Constant Matrix: (Units=GPa)
#
#
# Indices 1 2 3 4 5 6 
#
# 1 48.2234 23.1093 16.5332 0.0000 0.0000 0.0000
# 2 23.1093 95.7911 42.6829 0.0000 0.0000 0.0000
# 3 16.5332 42.6829 63.9068 0.0000 0.0000 0.0000
# 4 0.0000 0.0000 0.0000 8.0667 0.0000 0.0000
# 5 0.0000 0.0000 0.0000 0.0000 3.9563 0.0000
# 6 0.0000 0.0000 0.0000 0.0000 0.0000 32.0442
#
#
#
# Elastic Compliance Matrix: (Units=1/GPa)
#
#
# Indices 1 2 3 4 5 6 
#
# 1 0.023934 -0.004292 -0.003325 0.000000 0.000000 0.000000
# 2 -0.004292 0.015632 -0.009330 0.000000 0.000000 0.000000
# 3 -0.003325 -0.009330 0.022740 0.000000 0.000000 0.000000
# 4 0.000000 0.000000 0.000000 0.123967 0.000000 0.000000
# 5 0.000000 0.000000 0.000000 0.000000 0.252761 0.000000
# 6 0.000000 0.000000 0.000000 0.000000 0.000000 0.031207
#
#
# Mechanical properties :
#
#
# Convention : Reuss Voigt Hill
#
# Bulk Modulus (GPa) = 35.19835 41.39690 38.29763
# Shear Modulus (GPa) = 9.73509 17.18649 13.46079
#
# Velocity S-wave (km/s) = 2.26474 3.00914 2.66308
# Velocity P-wave (km/s) = 5.03820 5.82097 5.44368
#
# Compressibility (1/GPa) = 0.02841042
#
# Stress axis : x y z
#
# Youngs Moduli (GPa) = 41.78198 63.97003 43.97614
#
# Poissons Ratio (x) = 0.27458 0.14622
# Poissons Ratio (y) = 0.17934 0.41031
# Poissons Ratio (z) = 0.13892 0.59686
#
# Static dielectric constant tensor:
#      x y z
#    x 3.531700 0.000000 0.000000 
#    y 0.000000 3.332270 0.000000 
#    z 0.000000 0.000000 3.511010 
# 
# 
# High freq. dielectric constant tensor:
#      x y z
#    x 1.701520 0.000000 0.000000 
#    y 0.000000 1.724700 0.000000 
#    z 0.000000 0.000000 1.732330 
# 
# From -- ./inp_files/40210.got.cif
#   From: 2010.03.12/outbox.cif.g09.slc.cpg/sg66_21_cif.got.tgz:40210.got - 2010.04.10 21:57:39.
