data_PCOD8275934
_publ_section_title
;
Structure prediction by ZEFSAII (Michael W. Deem and Ramdas Pophale) SiO2 
 PCOD8275934
Probable space group: C C C M
;
_chemical_formula_sum "Si O2"
_cell_formula_units_Z 112
_cell_length_a 24.088308
_cell_length_b 13.522349
_cell_length_c 14.733733
_cell_angle_alpha 90.000000
_cell_angle_beta 90.000000
_cell_angle_gamma 90.000000
_cell_volume 4799.226329
_symmetry_space_group_name_H-M "C C C M"
_symmetry_group_IT_number 66
_symmetry_cell_setting 'orthorhombic'
loop_
_space_group_symop_operation_xyz
x,y,z
-x,-y,z
x,-y,1/2-z
-x,y,1/2-z
-x,-y,-z
x,y,-z
-x,y,1/2+z
x,-y,1/2+z
1/2+x,1/2+y,z
1/2-x,1/2-y,z
1/2+x,1/2-y,1/2-z
1/2-x,1/2+y,1/2-z
1/2-x,1/2-y,-z
1/2+x,1/2+y,-z
1/2-x,1/2+y,1/2+z
1/2+x,1/2-y,1/2+z
loop_
_atom_site_type_symbol
_atom_site_label
_atom_site_fract_x
_atom_site_fract_y
_atom_site_fract_z
Si Si1 0.267562 0.353560 0.396948
Si Si2 0.191205 0.275606 0.103103
Si Si3 0.829382 0.499097 0.642591
Si Si4 0.882995 0.069133 0.891957
Si Si5 0.472801 0.729793 0.108125
Si Si6 0.590688 0.351632 0.391630
Si Si7 0.948350 0.447630 0.847439
O O1 0.283957 0.328733 0.500000
O O2 0.250000 0.250000 0.348555
O O3 0.217142 0.429412 0.396059
O O4 0.322708 0.400301 0.351376
O O5 0.250000 0.250000 0.151884
O O6 0.181158 0.391281 0.104853
O O7 0.140049 0.216980 0.148939
O O8 0.194753 0.237662 0.000000
O O9 0.826749 0.500000 0.750000
O O10 0.889173 0.534573 0.604122
O O11 0.927682 0.149629 0.860209
O O12 0.900298 0.962008 0.852646
O O13 0.881437 0.061063 0.000000
O O14 0.532368 0.691729 0.142956
O O15 0.459079 0.831091 0.159852
O O16 0.471295 0.747274 0.000000
O O17 0.590021 0.351367 0.500000
O O18 0.945006 0.500000 0.750000
O O19 0.000000 0.500000 0.900864
#
# Coordination Sequence:
#
# PCOD8275934 Si02
#       7
#    16  16  16  16  16  16  16
#     4  10  20  35  56  81 111 148 187 228 277 334
#     4  10  20  35  56  81 110 144 182 226 276 335
#     4  11  23  37  55  80 108 143 185 229 277 328
#     4   9  17  31  53  83 117 147 176 220 280 337
#     4  10  19  32  55  86 114 141 182 232 274 323
#     4   9  17  30  51  82 115 144 178 225 280 333
#     4  10  22  39  55  75 106 148 185 220 274 330
#
# _framework density 23.337095999999999
#
# number of rings (size 3 to 8) (size 9 to 14) (size 15 to 20)
#    0.000    2.143    0.000    3.429    0.000    7.143 
#    0.000    0.000    0.000    1.714    0.000   12.000 
#    0.000    0.000    0.000    0.000    0.000    0.857 
#
# Total GULP energy -694328.472653 kJ/mol
# GULP energy per Si atom -12398.722726 kJ/mol
# Density = 2.328398 g / cm^3
# Si number density = 23.337096 Si / 1000 Ang^3
#
#
#
# Elastic Constant Matrix: (Units=GPa)
#
#
# Indices 1 2 3 4 5 6 
#
# 1 263.0952 127.2573 0.1329 0.0000 0.0000 0.0000
# 2 127.2573 243.6689 -0.5228 0.0000 0.0000 0.0000
# 3 0.1329 -0.5228 19.0219 0.0000 0.0000 0.0000
# 4 0.0000 0.0000 0.0000 8.4787 0.0000 0.0000
# 5 0.0000 0.0000 0.0000 0.0000 13.6174 0.0000
# 6 0.0000 0.0000 0.0000 0.0000 0.0000 61.9606
#
#
#
# Elastic Compliance Matrix: (Units=1/GPa)
#
#
# Indices 1 2 3 4 5 6 
#
# 1 0.005086 -0.002656 -0.000109 0.000000 0.000000 0.000000
# 2 -0.002656 0.005492 0.000169 0.000000 0.000000 0.000000
# 3 -0.000109 0.000169 0.052576 0.000000 0.000000 0.000000
# 4 0.000000 0.000000 0.000000 0.117943 0.000000 0.000000
# 5 0.000000 0.000000 0.000000 0.000000 0.073436 0.000000
# 6 0.000000 0.000000 0.000000 0.000000 0.000000 0.016139
#
#
# Mechanical properties :
#
#
# Convention : Reuss Voigt Hill
#
# Bulk Modulus (GPa) = 17.25240 86.61343 51.93291
# Shear Modulus (GPa) = 16.93864 43.40592 30.17228
#
# Velocity S-wave (km/s) = 2.69704 4.31740 3.59958
# Velocity P-wave (km/s) = 4.13611 7.87705 6.29108
#
# Compressibility (1/GPa) = 0.05796297
#
# Stress axis : x y z
#
# Youngs Moduli (GPa) = 196.62578 182.09733 19.01996
#
# Poissons Ratio (x) = 0.48371 0.00206
# Poissons Ratio (y) = 0.52230 -0.00322
# Poissons Ratio (z) = 0.02134 -0.03086
#
# Static dielectric constant tensor:
#      x y z
#    x 4.953380 0.000000 0.000000 
#    y 0.000000 4.228490 0.000000 
#    z 0.000000 0.000000 3.592280 
# 
# 
# High freq. dielectric constant tensor:
#      x y z
#    x 1.948070 0.000000 0.000000 
#    y 0.000000 1.934190 0.000000 
#    z 0.000000 0.000000 1.881360 
# 
# From -- ./inp_files/52622.got.cif
#   From: 2010.03.12/outbox.cif.g09.slc.cpg/sg66_27_cif.got.tgz:52622.got - 2010.04.10 21:57:39.
