data_PCOD8275786
_publ_section_title
;
Structure prediction by ZEFSAII (Michael W. Deem and Ramdas Pophale) SiO2 
 PCOD8275786
Probable space group: C C C M
;
_chemical_formula_sum "Si O2"
_cell_formula_units_Z 120
_cell_length_a 12.652435
_cell_length_b 28.545019
_cell_length_c 18.743389
_cell_angle_alpha 90.000000
_cell_angle_beta 90.000000
_cell_angle_gamma 90.000000
_cell_volume 6769.437297
_symmetry_space_group_name_H-M "C C C M"
_symmetry_group_IT_number 66
_symmetry_cell_setting 'orthorhombic'
loop_
_space_group_symop_operation_xyz
x,y,z
-x,-y,z
x,-y,1/2-z
-x,y,1/2-z
-x,-y,-z
x,y,-z
-x,y,1/2+z
x,-y,1/2+z
1/2+x,1/2+y,z
1/2-x,1/2-y,z
1/2+x,1/2-y,1/2-z
1/2-x,1/2+y,1/2-z
1/2-x,1/2-y,-z
1/2+x,1/2+y,-z
1/2-x,1/2+y,1/2+z
1/2+x,1/2-y,1/2+z
loop_
_atom_site_type_symbol
_atom_site_label
_atom_site_fract_x
_atom_site_fract_y
_atom_site_fract_z
Si Si1 0.467646 0.887162 0.084786
Si Si2 0.060213 0.044343 0.583156
Si Si3 0.888980 0.879882 0.916953
Si Si4 0.048355 0.704009 0.824382
Si Si5 0.294637 0.960572 0.085003
Si Si6 0.316834 0.065592 0.915376
Si Si7 0.250000 0.250000 0.731563
Si Si8 0.073539 0.795985 0.314138
O O1 0.454088 0.835542 0.115956
O O2 0.376967 0.922076 0.114622
O O3 0.579906 0.907081 0.110822
O O4 0.462303 0.882970 0.000000
O O5 0.073659 0.033119 0.500000
O O6 0.177653 0.051614 0.614768
O O7 0.993972 0.090587 0.597522
O O8 0.000000 0.000000 0.618659
O O9 0.787367 0.907779 0.886334
O O10 0.908543 0.831642 0.877534
O O11 0.872940 0.868782 0.000000
O O12 0.169812 0.720180 0.817105
O O13 0.000000 0.684584 0.750000
O O14 0.978257 0.748913 0.847403
O O15 0.323350 0.012441 0.113782
O O16 0.300050 0.959562 0.000000
O O17 0.309998 0.063579 0.000000
O O18 0.188122 0.214063 0.781905
O O19 0.000000 0.815855 0.250000
#
# Coordination Sequence:
#
# PCOD8275786 Si02
#       8
#    16  16  16  16  16  16   8  16
#     4  10  20  32  51  81 108 134 174 218 264 308
#     4   9  15  27  46  72 105 134 169 209 248 303
#     4  10  19  30  52  83 108 133 170 218 268 308
#     4   9  20  37  55  75  98 136 179 213 258 316
#     4   9  16  28  47  73 106 143 173 206 251 308
#     4   9  17  29  47  76 111 138 167 208 257 312
#     4   8  18  38  58  68  94 136 182 214 246 326
#     4   9  20  36  54  76 100 135 177 212 260 321
#
# _framework density 17.726731999999998
#
# number of rings (size 3 to 8) (size 9 to 14) (size 15 to 20)
#    0.000    3.067    1.333    0.400    3.733    4.267 
#    0.000    0.667    0.000    2.000    0.000    0.000 
#    0.000    0.000    0.000    0.000    0.000    0.000 
#
# Total GULP energy -743737.360414 kJ/mol
# GULP energy per Si atom -12395.622674 kJ/mol
# Density = 1.768638 g / cm^3
# Si number density = 17.726732 Si / 1000 Ang^3
#
#
#
# Elastic Constant Matrix: (Units=GPa)
#
#
# Indices 1 2 3 4 5 6 
#
# 1 142.9167 59.3808 25.3880 0.0000 0.0000 0.0000
# 2 59.3808 127.7656 39.7183 0.0000 0.0000 0.0000
# 3 25.3880 39.7183 30.0454 0.0000 0.0000 0.0000
# 4 0.0000 0.0000 0.0000 10.0664 0.0000 0.0000
# 5 0.0000 0.0000 0.0000 0.0000 8.9963 0.0000
# 6 0.0000 0.0000 0.0000 0.0000 0.0000 22.1100
#
#
#
# Elastic Compliance Matrix: (Units=1/GPa)
#
#
# Indices 1 2 3 4 5 6 
#
# 1 0.008880 -0.003047 -0.003476 0.000000 0.000000 0.000000
# 2 -0.003047 0.014332 -0.016372 0.000000 0.000000 0.000000
# 3 -0.003476 -0.016372 0.057864 0.000000 0.000000 0.000000
# 4 0.000000 0.000000 0.000000 0.099340 0.000000 0.000000
# 5 0.000000 0.000000 0.000000 0.000000 0.111156 0.000000
# 6 0.000000 0.000000 0.000000 0.000000 0.000000 0.045228
#
#
# Mechanical properties :
#
#
# Convention : Reuss Voigt Hill
#
# Bulk Modulus (GPa) = 28.33988 61.07799 44.70894
# Shear Modulus (GPa) = 12.67895 19.98393 16.33144
#
# Velocity S-wave (km/s) = 2.67731 3.36122 3.03857
# Velocity P-wave (km/s) = 5.05758 7.04229 6.13078
#
# Compressibility (1/GPa) = 0.03528596
#
# Stress axis : x y z
#
# Youngs Moduli (GPa) = 112.60642 69.77204 17.28198
#
# Poissons Ratio (x) = 0.21257 0.06008
# Poissons Ratio (y) = 0.34307 0.28294
# Poissons Ratio (z) = 0.39147 1.14233
#
# Static dielectric constant tensor:
#      x y z
#    x 3.262850 0.000000 0.000000 
#    y 0.000000 3.223480 0.000000 
#    z 0.000000 0.000000 2.728360 
# 
# 
# High freq. dielectric constant tensor:
#      x y z
#    x 1.708630 0.000000 0.000000 
#    y 0.000000 1.688100 0.000000 
#    z 0.000000 0.000000 1.626500 
# 
# From -- ./inp_files/49173.got.cif
#   From: 2010.03.12/outbox.cif.g09.slc.cpg/sg66_25_cif.got.tgz:49173.got - 2010.04.10 21:57:39.
