data_PCOD8275170
_publ_section_title
;
Structure prediction by ZEFSAII (Michael W. Deem and Ramdas Pophale) SiO2 
 PCOD8275170
Probable space group: C M M M
;
_chemical_formula_sum "Si O2"
_cell_formula_units_Z 72
_cell_length_a 33.099851
_cell_length_b 14.474050
_cell_length_c 9.295511
_cell_angle_alpha 90.000000
_cell_angle_beta 90.000000
_cell_angle_gamma 90.000000
_cell_volume 4453.376125
_symmetry_space_group_name_H-M "C M M M"
_symmetry_group_IT_number 65
_symmetry_cell_setting 'orthorhombic'
loop_
_space_group_symop_operation_xyz
x,y,z
-x,-y,z
x,-y,-z
-x,y,-z
-x,-y,-z
x,y,-z
-x,y,z
x,-y,z
1/2+x,1/2+y,z
1/2-x,1/2-y,z
1/2+x,1/2-y,-z
1/2-x,1/2+y,-z
1/2-x,1/2-y,-z
1/2+x,1/2+y,-z
1/2-x,1/2+y,z
1/2+x,1/2-y,z
loop_
_atom_site_type_symbol
_atom_site_label
_atom_site_fract_x
_atom_site_fract_y
_atom_site_fract_z
Si Si1 0.500000 0.390264 0.662116
Si Si2 0.308256 0.099772 0.164005
Si Si3 0.766028 0.147369 0.660137
Si Si4 0.922132 0.106845 0.167291
Si Si5 0.340513 0.294563 0.831528
O O1 0.500000 0.500000 0.664328
O O2 0.500000 0.351360 0.500000
O O3 0.460140 0.354688 0.743525
O O4 0.267766 0.089403 0.257295
O O5 0.336777 0.185526 0.211089
O O6 0.331070 0.000000 0.179643
O O7 0.294649 0.116789 0.000000
O O8 0.772744 0.106578 0.500000
O O9 0.750000 0.250000 0.651051
O O10 0.808063 0.144032 0.746133
O O11 0.884485 0.169965 0.214152
O O12 0.912454 0.000000 0.203420
O O13 0.932451 0.118536 0.000000
O O14 0.333065 0.310855 0.000000
#
# Coordination Sequence:
#
# PCOD8275170 Si02
#       5
#     8  16  16  16  16
#     4   9  17  29  45  65  88 111 134 162 199 247
#     4   9  17  29  44  60  81 113 149 181 213 248
#     4   9  17  28  41  58  82 111 142 178 217 252
#     4   9  17  29  45  64  86 111 136 164 203 251
#     4   9  17  29  44  63  86 111 142 178 212 250
#
# _framework density 16.16751
#
# number of rings (size 3 to 8) (size 9 to 14) (size 15 to 20)
#    0.000    3.000    0.000    1.000    0.000    6.222 
#    0.000    2.222    0.000    0.000    0.000    0.778 
#    0.000    6.222    0.000    0.000    0.000    0.000 
#
# Total GULP energy -446185.589781 kJ/mol
# GULP energy per Si atom -12394.044161 kJ/mol
# Density = 1.613071 g / cm^3
# Si number density = 16.167510 Si / 1000 Ang^3
#
#
#
# Elastic Constant Matrix: (Units=GPa)
#
#
# Indices 1 2 3 4 5 6 
#
# 1 135.4349 48.5719 60.0959 0.0000 0.0000 0.0000
# 2 48.5719 73.4287 25.8680 0.0000 0.0000 0.0000
# 3 60.0959 25.8680 75.4792 0.0000 0.0000 0.0000
# 4 0.0000 0.0000 0.0000 8.5018 0.0000 0.0000
# 5 0.0000 0.0000 0.0000 0.0000 13.8445 0.0000
# 6 0.0000 0.0000 0.0000 0.0000 0.0000 20.0166
#
#
#
# Elastic Compliance Matrix: (Units=1/GPa)
#
#
# Indices 1 2 3 4 5 6 
#
# 1 0.013251 -0.005742 -0.008583 0.000000 0.000000 0.000000
# 2 -0.005742 0.017977 -0.001589 0.000000 0.000000 0.000000
# 3 -0.008583 -0.001589 0.020627 0.000000 0.000000 0.000000
# 4 0.000000 0.000000 0.000000 0.117622 0.000000 0.000000
# 5 0.000000 0.000000 0.000000 0.000000 0.072231 0.000000
# 6 0.000000 0.000000 0.000000 0.000000 0.000000 0.049958
#
#
# Mechanical properties :
#
#
# Convention : Reuss Voigt Hill
#
# Bulk Modulus (GPa) = 49.93248 61.49050 55.71149
# Shear Modulus (GPa) = 15.14374 18.45972 16.80173
#
# Velocity S-wave (km/s) = 3.06384 3.38269 3.22720
# Velocity P-wave (km/s) = 6.59300 7.30566 6.95846
#
# Compressibility (1/GPa) = 0.02002704
#
# Stress axis : x y z
#
# Youngs Moduli (GPa) = 75.46473 55.62757 48.48064
#
# Poissons Ratio (x) = 0.31941 0.41609
# Poissons Ratio (y) = 0.43331 0.07705
# Poissons Ratio (z) = 0.64769 0.08841
#
# Static dielectric constant tensor:
#      x y z
#    x 2.954550 0.000000 0.000000 
#    y 0.000000 2.988840 0.000000 
#    z 0.000000 0.000000 3.267380 
# 
# 
# High freq. dielectric constant tensor:
#      x y z
#    x 1.597920 0.000000 0.000000 
#    y 0.000000 1.603170 0.000000 
#    z 0.000000 0.000000 1.626210 
# 
# From -- ./inp_files/15941.got.cif
#   From: 2010.03.12/outbox.cif.g09.slc.cpg/sg65_8_cif.got.tgz:15941.got - 2010.04.10 20:52:16.
