data_PCOD8275190
_publ_section_title
;
Structure prediction by ZEFSAII (Michael W. Deem and Ramdas Pophale) SiO2 
 PCOD8275190
Probable space group: C M M M
;
_chemical_formula_sum "Si O2"
_cell_formula_units_Z 56
_cell_length_a 39.726991
_cell_length_b 9.710790
_cell_length_c 7.700418
_cell_angle_alpha 90.000000
_cell_angle_beta 90.000000
_cell_angle_gamma 90.000000
_cell_volume 2970.670852
_symmetry_space_group_name_H-M "C M M M"
_symmetry_group_IT_number 65
_symmetry_cell_setting 'orthorhombic'
loop_
_space_group_symop_operation_xyz
x,y,z
-x,-y,z
x,-y,-z
-x,y,-z
-x,-y,-z
x,y,-z
-x,y,z
x,-y,z
1/2+x,1/2+y,z
1/2-x,1/2-y,z
1/2+x,1/2-y,-z
1/2-x,1/2+y,-z
1/2-x,1/2-y,-z
1/2+x,1/2+y,-z
1/2-x,1/2+y,z
1/2+x,1/2-y,z
loop_
_atom_site_type_symbol
_atom_site_label
_atom_site_fract_x
_atom_site_fract_y
_atom_site_fract_z
Si Si1 0.148706 0.345774 0.795424
Si Si2 0.221693 0.347743 0.701788
Si Si3 0.962687 0.837369 0.500000
Si Si4 0.086935 0.161035 0.200613
O O1 0.142797 0.500000 0.719139
O O2 0.184440 0.285777 0.730927
O O3 0.119472 0.243905 0.731993
O O4 0.148859 0.351123 0.000000
O O5 0.229508 0.360186 0.500000
O O6 0.223667 0.500000 0.788111
O O7 0.250000 0.250000 0.789285
O O8 0.943656 0.790884 0.324011
O O9 0.000000 0.770454 0.500000
O O10 0.965857 0.000000 0.500000
O O11 0.094899 0.000000 0.223680
O O12 0.077708 0.195198 0.000000
#
# Coordination Sequence:
#
# PCOD8275190 Si02
#       4
#    16  16   8  16
#     4   9  18  32  49  69  94 126 162 199 242 289
#     4   9  18  31  45  64  91 123 159 198 241 287
#     4   9  18  32  51  77 104 129 160 197 240 289
#     4   9  18  32  50  74 101 128 162 202 241 284
#
# _framework density 18.850961999999999
#
# number of rings (size 3 to 8) (size 9 to 14) (size 15 to 20)
#    0.000    3.000    0.000    0.000    2.000    2.286 
#    0.000    2.857    0.000    1.714    0.000    4.000 
#    0.000    0.000    0.000    0.000    0.000    0.000 
#
# Total GULP energy -347063.980262 kJ/mol
# GULP energy per Si atom -12395.142152 kJ/mol
# Density = 1.880806 g / cm^3
# Si number density = 18.850962 Si / 1000 Ang^3
#
#
#
# Elastic Constant Matrix: (Units=GPa)
#
#
# Indices 1 2 3 4 5 6 
#
# 1 194.1885 73.5838 54.6649 0.0000 0.0000 0.0000
# 2 73.5838 62.4341 24.9089 0.0000 0.0000 0.0000
# 3 54.6649 24.9089 58.4232 0.0000 0.0000 0.0000
# 4 0.0000 0.0000 0.0000 9.4745 0.0000 0.0000
# 5 0.0000 0.0000 0.0000 0.0000 14.9749 0.0000
# 6 0.0000 0.0000 0.0000 0.0000 0.0000 21.3112
#
#
#
# Elastic Compliance Matrix: (Units=1/GPa)
#
#
# Indices 1 2 3 4 5 6 
#
# 1 0.010610 -0.010295 -0.005538 0.000000 0.000000 0.000000
# 2 -0.010295 0.029289 -0.002855 0.000000 0.000000 0.000000
# 3 -0.005538 -0.002855 0.023515 0.000000 0.000000 0.000000
# 4 0.000000 0.000000 0.000000 0.105546 0.000000 0.000000
# 5 0.000000 0.000000 0.000000 0.000000 0.066778 0.000000
# 6 0.000000 0.000000 0.000000 0.000000 0.000000 0.046924
#
#
# Mechanical properties :
#
#
# Convention : Reuss Voigt Hill
#
# Bulk Modulus (GPa) = 38.40415 69.04013 53.72214
# Shear Modulus (GPa) = 15.21064 19.94467 17.57765
#
# Velocity S-wave (km/s) = 2.84366 3.25625 3.05692
# Velocity P-wave (km/s) = 5.58557 7.13030 6.40468
#
# Compressibility (1/GPa) = 0.02603885
#
# Stress axis : x y z
#
# Youngs Moduli (GPa) = 94.25405 34.14209 42.52555
#
# Poissons Ratio (x) = 0.35149 0.23550
# Poissons Ratio (y) = 0.97034 0.12141
# Poissons Ratio (z) = 0.52196 0.09747
#
# Static dielectric constant tensor:
#      x y z
#    x 3.698970 0.000000 0.000000 
#    y 0.000000 3.645940 0.000000 
#    z 0.000000 0.000000 3.354510 
# 
# 
# High freq. dielectric constant tensor:
#      x y z
#    x 1.729730 0.000000 0.000000 
#    y 0.000000 1.707910 0.000000 
#    z 0.000000 0.000000 1.729290 
# 
# From -- ./inp_files/4429.got.cif
#   From: 2010.03.12/outbox.cif.g09.slc.cpg/sg65_3_cif.got.tgz:4429.got - 2010.04.10 20:52:16.
