data_PCOD8275978
_publ_section_title
;
Structure prediction by ZEFSAII (Michael W. Deem and Ramdas Pophale) SiO2 
 PCOD8275978
Probable space group: C C C M
;
_chemical_formula_sum "Si O2"
_cell_formula_units_Z 80
_cell_length_a 25.932301
_cell_length_b 19.779402
_cell_length_c 8.612640
_cell_angle_alpha 90.000000
_cell_angle_beta 90.000000
_cell_angle_gamma 90.000000
_cell_volume 4417.641871
_symmetry_space_group_name_H-M "C C C M"
_symmetry_group_IT_number 66
_symmetry_cell_setting 'orthorhombic'
loop_
_space_group_symop_operation_xyz
x,y,z
-x,-y,z
x,-y,1/2-z
-x,y,1/2-z
-x,-y,-z
x,y,-z
-x,y,1/2+z
x,-y,1/2+z
1/2+x,1/2+y,z
1/2-x,1/2-y,z
1/2+x,1/2-y,1/2-z
1/2-x,1/2+y,1/2-z
1/2-x,1/2-y,-z
1/2+x,1/2+y,-z
1/2-x,1/2+y,1/2+z
1/2+x,1/2-y,1/2+z
loop_
_atom_site_type_symbol
_atom_site_label
_atom_site_fract_x
_atom_site_fract_y
_atom_site_fract_z
Si Si1 0.248672 0.072509 0.680289
Si Si2 0.054864 0.176135 0.816873
Si Si3 0.139841 0.574520 0.183958
Si Si4 0.444685 0.820839 0.184533
Si Si5 0.363020 0.424639 0.316398
O O1 0.253947 0.061981 0.500000
O O2 0.303405 0.104222 0.737294
O O3 0.194040 0.109158 0.717937
O O4 0.242750 0.000000 0.750000
O O5 0.071908 0.247366 0.744439
O O6 0.096373 0.120334 0.773765
O O7 0.000000 0.152584 0.750000
O O8 0.050211 0.184112 0.000000
O O9 0.130052 0.500000 0.250000
O O10 0.096948 0.625621 0.248971
O O11 0.135381 0.570230 0.000000
O O12 0.500000 0.842810 0.250000
O O13 0.446863 0.819228 0.000000
O O14 0.367137 0.500000 0.250000
O O15 0.374591 0.425433 0.500000
#
# Coordination Sequence:
#
# PCOD8275978 Si02
#       5
#    16  16  16  16  16
#     4   8  15  29  49  73 101 132 164 200 245 294
#     4  11  22  37  55  74  99 132 169 207 252 301
#     4   9  18  32  52  77 103 133 169 208 249 295
#     4  10  20  35  53  73 100 134 171 209 253 301
#     4  10  19  33  54  79 105 132 165 205 248 295
#
# _framework density 18.109210000000001
#
# number of rings (size 3 to 8) (size 9 to 14) (size 15 to 20)
#    0.000    2.400    0.000    4.200    0.000    3.200 
#    0.000    5.000    0.000    6.000    0.000    0.000 
#    0.000    0.000    0.000    0.000    0.000    0.000 
#
# Total GULP energy -495532.091835 kJ/mol
# GULP energy per Si atom -12388.302296 kJ/mol
# Density = 1.806799 g / cm^3
# Si number density = 18.109210 Si / 1000 Ang^3
#
#
#
# Elastic Constant Matrix: (Units=GPa)
#
#
# Indices 1 2 3 4 5 6 
#
# 1 153.3551 81.6806 37.5113 0.0000 0.0000 0.0000
# 2 81.6806 82.3153 24.0429 0.0000 0.0000 0.0000
# 3 37.5113 24.0429 63.5447 0.0000 0.0000 0.0000
# 4 0.0000 0.0000 0.0000 25.9446 0.0000 0.0000
# 5 0.0000 0.0000 0.0000 0.0000 24.4494 0.0000
# 6 0.0000 0.0000 0.0000 0.0000 0.0000 1.7453
#
#
#
# Elastic Compliance Matrix: (Units=1/GPa)
#
#
# Indices 1 2 3 4 5 6 
#
# 1 0.014491 -0.013357 -0.003501 0.000000 0.000000 0.000000
# 2 -0.013357 0.025970 -0.001941 0.000000 0.000000 0.000000
# 3 -0.003501 -0.001941 0.018538 0.000000 0.000000 0.000000
# 4 0.000000 0.000000 0.000000 0.038544 0.000000 0.000000
# 5 0.000000 0.000000 0.000000 0.000000 0.040901 0.000000
# 6 0.000000 0.000000 0.000000 0.000000 0.000000 0.572960
#
#
# Mechanical properties :
#
#
# Convention : Reuss Voigt Hill
#
# Bulk Modulus (GPa) = 46.72629 65.07606 55.90118
# Shear Modulus (GPa) = 6.61258 20.82655 13.71957
#
# Velocity S-wave (km/s) = 1.91296 3.39492 2.75544
# Velocity P-wave (km/s) = 5.54416 7.16803 6.40775
#
# Compressibility (1/GPa) = 0.02140123
#
# Stress axis : x y z
#
# Youngs Moduli (GPa) = 69.00602 38.50657 53.94380
#
# Poissons Ratio (x) = 0.51434 0.18884
# Poissons Ratio (y) = 0.92173 0.10470
# Poissons Ratio (z) = 0.24157 0.07474
#
# Static dielectric constant tensor:
#      x y z
#    x 4.069980 0.000000 0.000000 
#    y 0.000000 3.162510 0.000000 
#    z 0.000000 0.000000 3.397620 
# 
# 
# High freq. dielectric constant tensor:
#      x y z
#    x 1.726280 0.000000 0.000000 
#    y 0.000000 1.669750 0.000000 
#    z 0.000000 0.000000 1.709520 
# 
# From -- ./inp_files/6658.got.cif
#   From: 2010.03.12/outbox.cif.g09.slc.cpg/sg66_4_cif.got.tgz:6658.got - 2010.04.10 21:57:39.
