data_PCOD8275801
_publ_section_title
;
Structure prediction by ZEFSAII (Michael W. Deem and Ramdas Pophale) SiO2 
 PCOD8275801
Probable space group: C C C M
;
_chemical_formula_sum "Si O2"
_cell_formula_units_Z 80
_cell_length_a 18.527165
_cell_length_b 27.090737
_cell_length_c 8.810038
_cell_angle_alpha 90.000000
_cell_angle_beta 90.000000
_cell_angle_gamma 90.000000
_cell_volume 4421.886297
_symmetry_space_group_name_H-M "C C C M"
_symmetry_group_IT_number 66
_symmetry_cell_setting 'orthorhombic'
loop_
_space_group_symop_operation_xyz
x,y,z
-x,-y,z
x,-y,1/2-z
-x,y,1/2-z
-x,-y,-z
x,y,-z
-x,y,1/2+z
x,-y,1/2+z
1/2+x,1/2+y,z
1/2-x,1/2-y,z
1/2+x,1/2-y,1/2-z
1/2-x,1/2+y,1/2-z
1/2-x,1/2-y,-z
1/2+x,1/2+y,-z
1/2-x,1/2+y,1/2+z
1/2+x,1/2-y,1/2+z
loop_
_atom_site_type_symbol
_atom_site_label
_atom_site_fract_x
_atom_site_fract_y
_atom_site_fract_z
Si Si1 0.783952 0.392302 0.175121
Si Si2 0.219190 0.800853 0.321277
Si Si3 0.427730 0.052964 0.321221
Si Si4 0.425358 0.352113 0.180576
Si Si5 0.640136 0.447245 0.177795
O O1 0.773457 0.343931 0.274948
O O2 0.861283 0.412715 0.223150
O O3 0.723505 0.433529 0.210115
O O4 0.780705 0.376811 0.000000
O O5 0.218492 0.796267 0.500000
O O6 0.250000 0.750000 0.249136
O O7 0.138163 0.814602 0.264996
O O8 0.500000 0.076821 0.250000
O O9 0.436734 0.047102 0.500000
O O10 0.413270 0.000000 0.250000
O O11 0.500000 0.331772 0.250000
O O12 0.411015 0.406755 0.244706
O O13 0.430204 0.354777 0.000000
O O14 0.622901 0.500000 0.250000
O O15 0.622711 0.448933 0.000000
#
# Coordination Sequence:
#
# PCOD8275801 Si02
#       5
#    16  16  16  16  16
#     4   9  19  33  50  73 100 130 166 208 250 296
#     4   9  19  36  57  78  99 127 164 205 250 298
#     4  10  19  31  47  70 100 134 170 205 247 295
#     4  10  20  35  54  76 103 133 165 202 246 293
#     4  10  19  32  50  74 103 134 169 205 244 291
#
# _framework density 18.091828
#
# number of rings (size 3 to 8) (size 9 to 14) (size 15 to 20)
#    0.000    2.400    0.000    3.000    0.000    4.000 
#    0.000    3.000    0.000    4.800    0.000    0.000 
#    0.000    0.000    0.000    0.000    0.000    0.000 
#
# Total GULP energy -496001.781116 kJ/mol
# GULP energy per Si atom -12400.044528 kJ/mol
# Density = 1.805065 g / cm^3
# Si number density = 18.091828 Si / 1000 Ang^3
#
#
#
# Elastic Constant Matrix: (Units=GPa)
#
#
# Indices 1 2 3 4 5 6 
#
# 1 143.7850 63.9873 41.8563 0.0000 0.0000 0.0000
# 2 63.9873 111.2637 32.4275 0.0000 0.0000 0.0000
# 3 41.8563 32.4275 57.8404 0.0000 0.0000 0.0000
# 4 0.0000 0.0000 0.0000 23.7805 0.0000 0.0000
# 5 0.0000 0.0000 0.0000 0.0000 21.8560 0.0000
# 6 0.0000 0.0000 0.0000 0.0000 0.0000 16.4565
#
#
#
# Elastic Compliance Matrix: (Units=1/GPa)
#
#
# Indices 1 2 3 4 5 6 
#
# 1 0.010432 -0.004541 -0.005003 0.000000 0.000000 0.000000
# 2 -0.004541 0.012720 -0.003845 0.000000 0.000000 0.000000
# 3 -0.005003 -0.003845 0.023065 0.000000 0.000000 0.000000
# 4 0.000000 0.000000 0.000000 0.042051 0.000000 0.000000
# 5 0.000000 0.000000 0.000000 0.000000 0.045754 0.000000
# 6 0.000000 0.000000 0.000000 0.000000 0.000000 0.060766
#
#
# Mechanical properties :
#
#
# Convention : Reuss Voigt Hill
#
# Bulk Modulus (GPa) = 51.44479 65.49235 58.46857
# Shear Modulus (GPa) = 21.92524 24.05980 22.99252
#
# Velocity S-wave (km/s) = 3.48499 3.65070 3.56881
# Velocity P-wave (km/s) = 6.68511 7.35178 7.02636
#
# Compressibility (1/GPa) = 0.01943831
#
# Stress axis : x y z
#
# Youngs Moduli (GPa) = 95.85604 78.61651 43.35536
#
# Poissons Ratio (x) = 0.35703 0.21692
# Poissons Ratio (y) = 0.43532 0.16670
# Poissons Ratio (z) = 0.47960 0.30227
#
# Static dielectric constant tensor:
#      x y z
#    x 3.581650 0.000000 0.000000 
#    y 0.000000 3.287560 0.000000 
#    z 0.000000 0.000000 3.338620 
# 
# 
# High freq. dielectric constant tensor:
#      x y z
#    x 1.708700 0.000000 0.000000 
#    y 0.000000 1.682370 0.000000 
#    z 0.000000 0.000000 1.706530 
# 
# From -- ./inp_files/6670.got.cif
#   From: 2010.03.12/outbox.cif.g09.slc.cpg/sg66_4_cif.got.tgz:6670.got - 2010.04.10 21:57:39.
