data_PCOD8275601
_publ_section_title
;
Structure prediction by ZEFSAII (Michael W. Deem and Ramdas Pophale) SiO2 
 PCOD8275601
Probable space group: C C C M
;
_chemical_formula_sum "Si O2"
_cell_formula_units_Z 112
_cell_length_a 14.998134
_cell_length_b 14.138316
_cell_length_c 26.538559
_cell_angle_alpha 90.000000
_cell_angle_beta 90.000000
_cell_angle_gamma 90.000000
_cell_volume 5627.457857
_symmetry_space_group_name_H-M "C C C M"
_symmetry_group_IT_number 66
_symmetry_cell_setting 'orthorhombic'
loop_
_space_group_symop_operation_xyz
x,y,z
-x,-y,z
x,-y,1/2-z
-x,y,1/2-z
-x,-y,-z
x,y,-z
-x,y,1/2+z
x,-y,1/2+z
1/2+x,1/2+y,z
1/2-x,1/2-y,z
1/2+x,1/2-y,1/2-z
1/2-x,1/2+y,1/2-z
1/2-x,1/2-y,-z
1/2+x,1/2+y,-z
1/2-x,1/2+y,1/2+z
1/2+x,1/2-y,1/2+z
loop_
_atom_site_type_symbol
_atom_site_label
_atom_site_fract_x
_atom_site_fract_y
_atom_site_fract_z
Si Si1 0.710708 0.089139 0.716740
Si Si2 0.251856 0.976987 0.556023
Si Si3 0.826939 0.182364 0.944902
Si Si4 0.438165 0.638283 0.853614
Si Si5 0.839480 0.297611 0.810211
Si Si6 0.603787 0.989140 0.635929
Si Si7 0.134305 0.069890 0.144396
O O1 0.676962 0.173694 0.752178
O O2 0.800297 0.114934 0.686076
O O3 0.737442 0.000000 0.750000
O O4 0.630258 0.064037 0.679035
O O5 0.263507 0.931011 0.500000
O O6 0.181472 0.917742 0.589906
O O7 0.212273 0.079423 0.549392
O O8 0.346746 0.984384 0.584113
O O9 0.750000 0.250000 0.923718
O O10 0.910083 0.183602 0.907049
O O11 0.860313 0.217724 0.000000
O O12 0.413981 0.714681 0.810462
O O13 0.385274 0.540604 0.843490
O O14 0.543682 0.627745 0.854890
O O15 0.750000 0.250000 0.832795
O O16 0.868264 0.384797 0.845480
O O17 0.500000 0.000000 0.625533
#
# Coordination Sequence:
#
# PCOD8275601 Si02
#       7
#    16  16  16  16  16  16  16
#     4   9  19  37  55  72 108 148 182 227 293 336
#     4   9  17  31  55  81 109 152 194 222 276 352
#     4   9  16  27  49  82 116 148 185 234 286 333
#     4  10  18  32  55  81 115 151 191 232 283 339
#     4  11  21  37  59  83 108 148 195 237 286 350
#     4  10  21  38  58  82 119 149 181 243 296 332
#     4   9  19  35  53  80 119 153 179 237 291 330
#
# _framework density 19.902415000000001
#
# number of rings (size 3 to 8) (size 9 to 14) (size 15 to 20)
#    0.000    2.429    0.000    4.714    0.000    3.429 
#    5.143    7.143    0.000    0.000    0.000    1.000 
#    0.000    0.000    0.000    0.000    0.000    0.000 
#
# Total GULP energy -694155.990487 kJ/mol
# GULP energy per Si atom -12395.642687 kJ/mol
# Density = 1.985712 g / cm^3
# Si number density = 19.902415 Si / 1000 Ang^3
#
#
#
# Elastic Constant Matrix: (Units=GPa)
#
#
# Indices 1 2 3 4 5 6 
#
# 1 164.1414 52.9458 79.1077 0.0000 0.0000 0.0000
# 2 52.9458 71.6572 51.0181 0.0000 0.0000 0.0000
# 3 79.1077 51.0181 153.4880 0.0000 0.0000 0.0000
# 4 0.0000 0.0000 0.0000 26.3693 0.0000 0.0000
# 5 0.0000 0.0000 0.0000 0.0000 15.8787 0.0000
# 6 0.0000 0.0000 0.0000 0.0000 0.0000 33.2487
#
#
#
# Elastic Compliance Matrix: (Units=1/GPa)
#
#
# Indices 1 2 3 4 5 6 
#
# 1 0.009059 -0.004414 -0.003202 0.000000 0.000000 0.000000
# 2 -0.004414 0.020432 -0.004517 0.000000 0.000000 0.000000
# 3 -0.003202 -0.004517 0.009667 0.000000 0.000000 0.000000
# 4 0.000000 0.000000 0.000000 0.037923 0.000000 0.000000
# 5 0.000000 0.000000 0.000000 0.000000 0.062977 0.000000
# 6 0.000000 0.000000 0.000000 0.000000 0.000000 0.030076
#
#
# Mechanical properties :
#
#
# Convention : Reuss Voigt Hill
#
# Bulk Modulus (GPa) = 67.14409 83.93662 75.54035
# Shear Modulus (GPa) = 25.07968 28.84702 26.96335
#
# Velocity S-wave (km/s) = 3.55369 3.81126 3.68472
# Velocity P-wave (km/s) = 7.11675 7.85068 7.49271
#
# Compressibility (1/GPa) = 0.01489334
#
# Stress axis : x y z
#
# Youngs Moduli (GPa) = 110.38413 48.94190 103.44739
#
# Poissons Ratio (x) = 0.21603 0.33124
# Poissons Ratio (y) = 0.48723 0.46723
# Poissons Ratio (z) = 0.35345 0.22105
#
# Static dielectric constant tensor:
#      x y z
#    x 3.464540 0.000000 0.000000 
#    y 0.000000 3.485400 0.000000 
#    z 0.000000 0.000000 4.136440 
# 
# 
# High freq. dielectric constant tensor:
#      x y z
#    x 1.765970 0.000000 0.000000 
#    y 0.000000 1.753710 0.000000 
#    z 0.000000 0.000000 1.784220 
# 
# From -- ./inp_files/64641.got.cif
#   From: 2010.03.12/outbox.cif.g09.slc.cpg/sg66_33_cif.got.tgz:64641.got - 2010.04.10 21:57:39.
