data_PCOD8275696
_publ_section_title
;
Structure prediction by ZEFSAII (Michael W. Deem and Ramdas Pophale) SiO2 
 PCOD8275696
Probable space group: C C C M
;
_chemical_formula_sum "Si O2"
_cell_formula_units_Z 72
_cell_length_a 16.334087
_cell_length_b 12.850670
_cell_length_c 16.921402
_cell_angle_alpha 90.000000
_cell_angle_beta 90.000000
_cell_angle_gamma 90.000000
_cell_volume 3551.869319
_symmetry_space_group_name_H-M "C C C M"
_symmetry_group_IT_number 66
_symmetry_cell_setting 'orthorhombic'
loop_
_space_group_symop_operation_xyz
x,y,z
-x,-y,z
x,-y,1/2-z
-x,y,1/2-z
-x,-y,-z
x,y,-z
-x,y,1/2+z
x,-y,1/2+z
1/2+x,1/2+y,z
1/2-x,1/2-y,z
1/2+x,1/2-y,1/2-z
1/2-x,1/2+y,1/2-z
1/2-x,1/2-y,-z
1/2+x,1/2+y,-z
1/2-x,1/2+y,1/2+z
1/2+x,1/2-y,1/2+z
loop_
_atom_site_type_symbol
_atom_site_label
_atom_site_fract_x
_atom_site_fract_y
_atom_site_fract_z
Si Si1 0.250000 0.250000 0.309162
Si Si2 0.173505 0.590152 0.696751
Si Si3 0.681270 0.459455 0.590545
Si Si4 0.095394 0.849539 0.836877
Si Si5 0.919079 0.210705 0.657761
O O1 0.236701 0.348614 0.252477
O O2 0.170939 0.225556 0.363373
O O3 0.131247 0.500000 0.750000
O O4 0.227774 0.537397 0.627747
O O5 0.103033 0.666550 0.663034
O O6 0.690237 0.492608 0.500000
O O7 0.615482 0.534832 0.633399
O O8 0.643680 0.343485 0.597249
O O9 0.089443 0.845879 0.742095
O O10 0.011724 0.804209 0.874217
#
# Coordination Sequence:
#
# PCOD8275696 Si02
#       5
#     8  16  16  16  16
#     4  10  18  36  64  80 110 150 198 248 294 348
#     4  11  19  37  62  85 117 153 199 249 296 353
#     4  12  22  34  57  89 122 160 195 236 297 359
#     4  10  20  37  58  85 113 150 198 247 296 347
#     4  10  21  36  59  87 118 150 192 249 303 345
#
# _framework density 20.271015999999999
#
# number of rings (size 3 to 8) (size 9 to 14) (size 15 to 20)
#    0.000    1.333    6.667    1.333    0.000    5.333 
#    0.000    9.444    0.000    0.000    0.000    1.556 
#    0.000    0.000    0.000    0.000    0.000    0.000 
#
# Total GULP energy -446259.260078 kJ/mol
# GULP energy per Si atom -12396.090558 kJ/mol
# Density = 2.022488 g / cm^3
# Si number density = 20.271016 Si / 1000 Ang^3
#
#
#
# Elastic Constant Matrix: (Units=GPa)
#
#
# Indices 1 2 3 4 5 6 
#
# 1 115.1738 52.7079 18.7714 0.0000 0.0000 0.0000
# 2 52.7079 110.9315 33.4708 0.0000 0.0000 0.0000
# 3 18.7714 33.4708 57.8995 0.0000 0.0000 0.0000
# 4 0.0000 0.0000 0.0000 9.6625 0.0000 0.0000
# 5 0.0000 0.0000 0.0000 0.0000 13.3737 0.0000
# 6 0.0000 0.0000 0.0000 0.0000 0.0000 42.9731
#
#
#
# Elastic Compliance Matrix: (Units=1/GPa)
#
#
# Indices 1 2 3 4 5 6 
#
# 1 0.011116 -0.005081 -0.000667 0.000000 0.000000 0.000000
# 2 -0.005081 0.013241 -0.006007 0.000000 0.000000 0.000000
# 3 -0.000667 -0.006007 0.020960 0.000000 0.000000 0.000000
# 4 0.000000 0.000000 0.000000 0.103493 0.000000 0.000000
# 5 0.000000 0.000000 0.000000 0.000000 0.074774 0.000000
# 6 0.000000 0.000000 0.000000 0.000000 0.000000 0.023270
#
#
# Mechanical properties :
#
#
# Convention : Reuss Voigt Hill
#
# Bulk Modulus (GPa) = 45.85482 54.87835 50.36658
# Shear Modulus (GPa) = 18.00933 25.13883 21.57408
#
# Velocity S-wave (km/s) = 2.98388 3.52538 3.26587
# Velocity P-wave (km/s) = 5.87719 6.61076 6.25474
#
# Compressibility (1/GPa) = 0.02180796
#
# Stress axis : x y z
#
# Youngs Moduli (GPa) = 89.95812 75.52245 47.70923
#
# Poissons Ratio (x) = 0.38369 0.03182
# Poissons Ratio (y) = 0.45704 0.28660
# Poissons Ratio (z) = 0.06000 0.45369
#
# Static dielectric constant tensor:
#      x y z
#    x 3.906980 0.000000 0.000000 
#    y 0.000000 3.714460 0.000000 
#    z 0.000000 0.000000 3.195060 
# 
# 
# High freq. dielectric constant tensor:
#      x y z
#    x 1.793770 0.000000 0.000000 
#    y 0.000000 1.788970 0.000000 
#    z 0.000000 0.000000 1.740120 
# 
# From -- ./inp_files/38336.got.cif
#   From: 2010.03.12/outbox.cif.g09.slc.cpg/sg66_20_cif.got.tgz:38336.got - 2010.04.10 21:57:39.
