data_PCOD8275938
_publ_section_title
;
Structure prediction by ZEFSAII (Michael W. Deem and Ramdas Pophale) SiO2 
 PCOD8275938
Probable space group: C C C M
;
_chemical_formula_sum "Si O2"
_cell_formula_units_Z 104
_cell_length_a 9.039998
_cell_length_b 27.917526
_cell_length_c 21.383970
_cell_angle_alpha 90.000000
_cell_angle_beta 90.000000
_cell_angle_gamma 90.000000
_cell_volume 5396.766154
_symmetry_space_group_name_H-M "C C C M"
_symmetry_group_IT_number 66
_symmetry_cell_setting 'orthorhombic'
loop_
_space_group_symop_operation_xyz
x,y,z
-x,-y,z
x,-y,1/2-z
-x,y,1/2-z
-x,-y,-z
x,y,-z
-x,y,1/2+z
x,-y,1/2+z
1/2+x,1/2+y,z
1/2-x,1/2-y,z
1/2+x,1/2-y,1/2-z
1/2-x,1/2+y,1/2-z
1/2-x,1/2-y,-z
1/2+x,1/2+y,-z
1/2-x,1/2+y,1/2+z
1/2+x,1/2-y,1/2+z
loop_
_atom_site_type_symbol
_atom_site_label
_atom_site_fract_x
_atom_site_fract_y
_atom_site_fract_z
Si Si1 0.112776 0.306581 0.834349
Si Si2 0.047454 0.794922 0.318646
Si Si3 0.038245 0.865168 0.570851
Si Si4 0.922990 0.452105 0.145324
Si Si5 0.500000 0.114293 0.250000
Si Si6 0.876897 0.380847 0.428727
Si Si7 0.874593 0.036675 0.928596
O O1 0.999959 0.261775 0.822917
O O2 0.279897 0.290507 0.828807
O O3 0.108351 0.350949 0.786932
O O4 0.071605 0.329367 0.901458
O O5 0.984831 0.826763 0.376305
O O6 0.000000 0.815039 0.250000
O O7 0.032679 0.842927 0.500000
O O8 0.201493 0.886188 0.584247
O O9 0.926820 0.908896 0.575709
O O10 0.769986 0.467137 0.113621
O O11 0.000000 0.500000 0.169572
O O12 0.896753 0.418095 0.205239
O O13 0.035482 0.425886 0.098448
O O14 0.919429 0.379280 0.500000
O O15 0.834607 0.022660 0.000000
O O16 0.000000 0.000000 0.903460
#
# Coordination Sequence:
#
# PCOD8275938 Si02
#       7
#    16  16  16  16   8  16  16
#     4   9  19  34  52  80 105 143 184 225 275 322
#     4  10  19  32  56  81 109 143 190 225 271 338
#     4   9  19  35  54  82 117 148 181 233 287 330
#     4  11  22  35  57  80 109 148 191 230 285 335
#     4  10  21  38  54  74 110 144 183 232 278 326
#     4   9  18  34  56  79 109 143 185 231 275 335
#     4  10  21  37  59  86 116 147 185 232 287 347
#
# _framework density 19.270800999999999
#
# number of rings (size 3 to 8) (size 9 to 14) (size 15 to 20)
#    0.000    2.308    0.769    1.615    2.154    3.077 
#    0.000    3.077    0.000    0.000    0.000    7.538 
#    0.000    0.000    0.000    0.000    0.000    0.000 
#
# Total GULP energy -644306.299468 kJ/mol
# GULP energy per Si atom -12390.505759 kJ/mol
# Density = 1.922694 g / cm^3
# Si number density = 19.270801 Si / 1000 Ang^3
#
#
#
# Elastic Constant Matrix: (Units=GPa)
#
#
# Indices 1 2 3 4 5 6 
#
# 1 48.7174 27.9320 18.6756 0.0000 0.0000 0.0000
# 2 27.9320 113.5442 54.6959 0.0000 0.0000 0.0000
# 3 18.6756 54.6959 109.2886 0.0000 0.0000 0.0000
# 4 0.0000 0.0000 0.0000 15.4364 0.0000 0.0000
# 5 0.0000 0.0000 0.0000 0.0000 13.9315 0.0000
# 6 0.0000 0.0000 0.0000 0.0000 0.0000 23.1668
#
#
#
# Elastic Compliance Matrix: (Units=1/GPa)
#
#
# Indices 1 2 3 4 5 6 
#
# 1 0.024086 -0.005195 -0.001516 0.000000 0.000000 0.000000
# 2 -0.005195 0.012725 -0.005481 0.000000 0.000000 0.000000
# 3 -0.001516 -0.005481 0.012152 0.000000 0.000000 0.000000
# 4 0.000000 0.000000 0.000000 0.064782 0.000000 0.000000
# 5 0.000000 0.000000 0.000000 0.000000 0.071780 0.000000
# 6 0.000000 0.000000 0.000000 0.000000 0.000000 0.043165
#
#
# Mechanical properties :
#
#
# Convention : Reuss Voigt Hill
#
# Bulk Modulus (GPa) = 40.68353 52.68412 46.68383
# Shear Modulus (GPa) = 19.13746 21.85673 20.49709
#
# Velocity S-wave (km/s) = 3.15474 3.37143 3.26488
# Velocity P-wave (km/s) = 5.86746 6.52331 6.20406
#
# Compressibility (1/GPa) = 0.02457997
#
# Stress axis : x y z
#
# Youngs Moduli (GPa) = 41.51748 78.58318 82.28958
#
# Poissons Ratio (x) = 0.40824 0.12475
# Poissons Ratio (y) = 0.21568 0.45103
# Poissons Ratio (z) = 0.06294 0.43071
#
# Static dielectric constant tensor:
#      x y z
#    x 3.168320 0.000000 0.000000 
#    y 0.000000 3.859300 0.000000 
#    z 0.000000 0.000000 3.826430 
# 
# 
# High freq. dielectric constant tensor:
#      x y z
#    x 1.721760 0.000000 0.000000 
#    y 0.000000 1.763240 0.000000 
#    z 0.000000 0.000000 1.753410 
# 
# From -- ./inp_files/47559.got.cif
#   From: 2010.03.12/outbox.cif.g09.slc.cpg/sg66_24_cif.got.tgz:47559.got - 2010.04.10 21:57:39.
