data_PCOD8275366
_publ_section_title
;
Structure prediction by ZEFSAII (Michael W. Deem and Ramdas Pophale) SiO2 
 PCOD8275366
Probable space group: C C C M
;
_chemical_formula_sum "Si O2"
_cell_formula_units_Z 88
_cell_length_a 18.520516
_cell_length_b 13.326047
_cell_length_c 19.131371
_cell_angle_alpha 90.000000
_cell_angle_beta 90.000000
_cell_angle_gamma 90.000000
_cell_volume 4721.723122
_symmetry_space_group_name_H-M "C C C M"
_symmetry_group_IT_number 66
_symmetry_cell_setting 'orthorhombic'
loop_
_space_group_symop_operation_xyz
x,y,z
-x,-y,z
x,-y,1/2-z
-x,y,1/2-z
-x,-y,-z
x,y,-z
-x,y,1/2+z
x,-y,1/2+z
1/2+x,1/2+y,z
1/2-x,1/2-y,z
1/2+x,1/2-y,1/2-z
1/2-x,1/2+y,1/2-z
1/2-x,1/2-y,-z
1/2+x,1/2+y,-z
1/2-x,1/2+y,1/2+z
1/2+x,1/2-y,1/2+z
loop_
_atom_site_type_symbol
_atom_site_label
_atom_site_fract_x
_atom_site_fract_y
_atom_site_fract_z
Si Si1 0.277842 0.395886 0.221860
Si Si2 0.020349 0.110052 0.125366
Si Si3 0.131137 0.826706 0.077279
Si Si4 0.000000 0.749198 0.750000
Si Si5 0.173198 0.051739 0.921979
Si Si6 0.649775 0.211220 0.212714
O O1 0.310429 0.500000 0.250000
O O2 0.273527 0.400996 0.136965
O O3 0.333196 0.308987 0.241173
O O4 0.200733 0.378342 0.260386
O O5 0.093926 0.102453 0.081024
O O6 0.955244 0.156774 0.080023
O O7 0.033548 0.181250 0.190619
O O8 0.000000 0.000000 0.153313
O O9 0.160626 0.742708 0.131542
O O10 0.169800 0.932594 0.092401
O O11 0.150524 0.786998 0.000000
O O12 0.066238 0.679800 0.776293
O O13 0.204165 0.072710 0.000000
#
# Coordination Sequence:
#
# PCOD8275366 Si02
#       6
#    16  16  16   8  16  16
#     4  11  21  37  52  75 108 143 175 219 262 316
#     4   9  16  24  45  77 110 140 165 208 266 319
#     4   9  17  30  49  79 110 135 173 218 269 321
#     4  10  17  30  51  76 102 132 186 220 252 312
#     4  10  18  30  50  77 111 144 172 209 266 326
#     4  10  21  34  55  77 101 143 177 221 265 311
#
# _framework density 18.637263999999998
#
# number of rings (size 3 to 8) (size 9 to 14) (size 15 to 20)
#    0.000    2.182    3.636    0.818    0.000    2.182 
#    0.000    5.000    0.000    0.000    0.000    0.000 
#    0.000    4.727    0.000    0.000    0.000    0.000 
#
# Total GULP energy -545198.971052 kJ/mol
# GULP energy per Si atom -12390.885706 kJ/mol
# Density = 1.859485 g / cm^3
# Si number density = 18.637264 Si / 1000 Ang^3
#
#
#
# Elastic Constant Matrix: (Units=GPa)
#
#
# Indices 1 2 3 4 5 6 
#
# 1 72.9826 6.9509 30.7198 0.0000 0.0000 0.0000
# 2 6.9509 28.4258 21.3238 0.0000 0.0000 0.0000
# 3 30.7198 21.3238 151.9862 0.0000 0.0000 0.0000
# 4 0.0000 0.0000 0.0000 18.3577 0.0000 0.0000
# 5 0.0000 0.0000 0.0000 0.0000 21.1691 0.0000
# 6 0.0000 0.0000 0.0000 0.0000 0.0000 20.2194
#
#
#
# Elastic Compliance Matrix: (Units=1/GPa)
#
#
# Indices 1 2 3 4 5 6 
#
# 1 0.015038 -0.001561 -0.002820 0.000000 0.000000 0.000000
# 2 -0.001561 0.039480 -0.005223 0.000000 0.000000 0.000000
# 3 -0.002820 -0.005223 0.007882 0.000000 0.000000 0.000000
# 4 0.000000 0.000000 0.000000 0.054473 0.000000 0.000000
# 5 0.000000 0.000000 0.000000 0.000000 0.047239 0.000000
# 6 0.000000 0.000000 0.000000 0.000000 0.000000 0.049457
#
#
# Mechanical properties :
#
#
# Convention : Reuss Voigt Hill
#
# Bulk Modulus (GPa) = 23.15388 41.26484 32.20936
# Shear Modulus (GPa) = 20.22851 24.90925 22.56888
#
# Velocity S-wave (km/s) = 3.29808 3.65982 3.48365
# Velocity P-wave (km/s) = 5.19168 6.32836 5.78799
#
# Compressibility (1/GPa) = 0.04318930
#
# Stress axis : x y z
#
# Youngs Moduli (GPa) = 66.49921 25.32959 126.86397
#
# Poissons Ratio (x) = 0.03955 0.35781
# Poissons Ratio (y) = 0.10383 0.66266
# Poissons Ratio (z) = 0.18755 0.13231
#
# Static dielectric constant tensor:
#      x y z
#    x 3.439190 0.000000 0.000000 
#    y 0.000000 2.966660 0.000000 
#    z 0.000000 0.000000 3.652790 
# 
# 
# High freq. dielectric constant tensor:
#      x y z
#    x 1.709580 0.000000 0.000000 
#    y 0.000000 1.670860 0.000000 
#    z 0.000000 0.000000 1.732760 
# 
# From -- ./inp_files/40500.got.cif
#   From: 2010.03.12/outbox.cif.g09.slc.cpg/sg66_21_cif.got.tgz:40500.got - 2010.04.10 21:57:39.
