data_PCOD8275002
_publ_section_title
;
Structure prediction by ZEFSAII (Michael W. Deem and Ramdas Pophale) SiO2 
 PCOD8275002
Probable space group: C M M M
;
_chemical_formula_sum "Si O2"
_cell_formula_units_Z 96
_cell_length_a 14.720110
_cell_length_b 34.543804
_cell_length_c 13.687894
_cell_angle_alpha 90.000000
_cell_angle_beta 90.000000
_cell_angle_gamma 90.000000
_cell_volume 6960.137984
_symmetry_space_group_name_H-M "C M M M"
_symmetry_group_IT_number 65
_symmetry_cell_setting 'orthorhombic'
loop_
_space_group_symop_operation_xyz
x,y,z
-x,-y,z
x,-y,-z
-x,y,-z
-x,-y,-z
x,y,-z
-x,y,z
x,-y,z
1/2+x,1/2+y,z
1/2-x,1/2-y,z
1/2+x,1/2-y,-z
1/2-x,1/2+y,-z
1/2-x,1/2-y,-z
1/2+x,1/2+y,-z
1/2-x,1/2+y,z
1/2+x,1/2-y,z
loop_
_atom_site_type_symbol
_atom_site_label
_atom_site_fract_x
_atom_site_fract_y
_atom_site_fract_z
Si Si1 0.848153 0.734341 0.781941
Si Si2 0.892273 0.457007 0.391053
Si Si3 0.108723 0.614952 0.732847
Si Si4 0.396303 0.185869 0.393645
Si Si5 0.710237 0.159331 0.885605
Si Si6 0.900697 0.191492 0.112264
O O1 0.750000 0.750000 0.759762
O O2 0.888108 0.722890 0.676640
O O3 0.845348 0.697869 0.855593
O O4 0.907073 0.768404 0.828687
O O5 0.855115 0.447081 0.500000
O O6 0.859224 0.500000 0.359673
O O7 0.858527 0.426047 0.311268
O O8 0.000000 0.455570 0.395115
O O9 0.144463 0.647823 0.658059
O O10 0.164307 0.622279 0.832972
O O11 0.000000 0.616800 0.751763
O O12 0.349161 0.193001 0.500000
O O13 0.500000 0.176716 0.413099
O O14 0.817067 0.163954 0.854289
O O15 0.700083 0.152157 0.000000
O O16 0.000000 0.170947 0.125411
O O17 0.882837 0.202732 0.000000
#
# Coordination Sequence:
#
# PCOD8275002 Si02
#       6
#    16  16  16  16  16  16
#     4   9  16  25  36  50  68  89 116 152 189 223
#     4   8  13  22  38  59  80 101 124 148 173 203
#     4   9  16  25  37  53  75 101 123 145 175 209
#     4   9  16  24  33  46  66  92 120 147 175 209
#     4   9  17  27  37  52  73  95 123 155 184 219
#     4   9  16  26  40  54  68  89 119 158 199 227
#
# _framework density 13.79283
#
# number of rings (size 3 to 8) (size 9 to 14) (size 15 to 20)
#    0.000    3.167    0.000    2.000    0.000    5.333 
#    0.000    0.000    0.000    0.500    0.000    2.333 
#    0.000    0.667    0.000    6.000    0.000    0.167 
#
# Total GULP energy -594692.876175 kJ/mol
# GULP energy per Si atom -12389.434920 kJ/mol
# Density = 1.376144 g / cm^3
# Si number density = 13.792830 Si / 1000 Ang^3
#
#
#
# Elastic Constant Matrix: (Units=GPa)
#
#
# Indices 1 2 3 4 5 6 
#
# 1 47.8434 21.7779 27.7776 0.0000 0.0000 0.0000
# 2 21.7779 74.3016 46.4048 0.0000 0.0000 0.0000
# 3 27.7776 46.4048 94.4730 0.0000 0.0000 0.0000
# 4 0.0000 0.0000 0.0000 22.3857 0.0000 0.0000
# 5 0.0000 0.0000 0.0000 0.0000 13.7572 0.0000
# 6 0.0000 0.0000 0.0000 0.0000 0.0000 11.8798
#
#
#
# Elastic Compliance Matrix: (Units=1/GPa)
#
#
# Indices 1 2 3 4 5 6 
#
# 1 0.026047 -0.004113 -0.005638 0.000000 0.000000 0.000000
# 2 -0.004113 0.020064 -0.008646 0.000000 0.000000 0.000000
# 3 -0.005638 -0.008646 0.016490 0.000000 0.000000 0.000000
# 4 0.000000 0.000000 0.000000 0.044671 0.000000 0.000000
# 5 0.000000 0.000000 0.000000 0.000000 0.072689 0.000000
# 6 0.000000 0.000000 0.000000 0.000000 0.000000 0.084176
#
#
# Mechanical properties :
#
#
# Convention : Reuss Voigt Hill
#
# Bulk Modulus (GPa) = 38.75024 45.39318 42.07171
# Shear Modulus (GPa) = 16.15327 17.64840 16.90084
#
# Velocity S-wave (km/s) = 3.42590 3.58094 3.50428
# Velocity P-wave (km/s) = 6.61850 7.07670 6.85143
#
# Compressibility (1/GPa) = 0.02580629
#
# Stress axis : x y z
#
# Youngs Moduli (GPa) = 38.39161 49.84031 60.64383
#
# Poissons Ratio (x) = 0.20500 0.34193
# Poissons Ratio (y) = 0.15791 0.52433
# Poissons Ratio (z) = 0.21646 0.43092
#
# Static dielectric constant tensor:
#      x y z
#    x 2.583570 0.000000 0.000000 
#    y 0.000000 2.689910 0.000000 
#    z 0.000000 0.000000 2.896540 
# 
# 
# High freq. dielectric constant tensor:
#      x y z
#    x 1.497390 0.000000 0.000000 
#    y 0.000000 1.495740 0.000000 
#    z 0.000000 0.000000 1.527990 
# 
# From -- ./inp_files/41271.got.cif
#   From: 2010.03.12/outbox.cif.g09.slc.cpg/sg65_21_cif.got.tgz:41271.got - 2010.04.10 20:52:16.
