data_PCOD8275110
_publ_section_title
;
Structure prediction by ZEFSAII (Michael W. Deem and Ramdas Pophale) SiO2 
 PCOD8275110
Probable space group: C M M M
;
_chemical_formula_sum "Si O2"
_cell_formula_units_Z 80
_cell_length_a 25.055372
_cell_length_b 20.729738
_cell_length_c 9.355252
_cell_angle_alpha 90.000000
_cell_angle_beta 90.000000
_cell_angle_gamma 90.000000
_cell_volume 4859.036471
_symmetry_space_group_name_H-M "C M M M"
_symmetry_group_IT_number 65
_symmetry_cell_setting 'orthorhombic'
loop_
_space_group_symop_operation_xyz
x,y,z
-x,-y,z
x,-y,-z
-x,y,-z
-x,-y,-z
x,y,-z
-x,y,z
x,-y,z
1/2+x,1/2+y,z
1/2-x,1/2-y,z
1/2+x,1/2-y,-z
1/2-x,1/2+y,-z
1/2-x,1/2-y,-z
1/2+x,1/2+y,-z
1/2-x,1/2+y,z
1/2+x,1/2-y,z
loop_
_atom_site_type_symbol
_atom_site_label
_atom_site_fract_x
_atom_site_fract_y
_atom_site_fract_z
Si Si1 0.101303 0.377058 0.336022
Si Si2 0.398600 0.275245 0.336165
Si Si3 0.000000 0.776174 0.161381
Si Si4 0.782782 0.811004 0.670308
Si Si5 0.000000 0.377446 0.838559
Si Si6 0.286115 0.928378 0.670025
O O1 0.089789 0.395800 0.500000
O O2 0.108983 0.300915 0.320262
O O3 0.052366 0.403443 0.241923
O O4 0.154609 0.410753 0.276514
O O5 0.410740 0.293590 0.500000
O O6 0.447268 0.302034 0.241290
O O7 0.344285 0.308475 0.279802
O O8 0.000000 0.699420 0.165461
O O9 0.000000 0.802643 0.000000
O O10 0.780311 0.808384 0.500000
O O11 0.750000 0.750000 0.732403
O O12 0.756693 0.876994 0.730502
O O13 0.000000 0.403785 0.000000
O O14 0.285942 0.924973 0.500000
O O15 0.270779 0.000000 0.724545
#
# Coordination Sequence:
#
# PCOD8275110 Si02
#       6
#    16  16   8  16   8  16
#     4   9  15  25  41  60  82 110 144 177 208 246
#     4   9  15  24  42  64  85 111 143 174 205 250
#     4   9  17  27  39  60  91 114 134 174 223 256
#     4   9  14  23  40  63  87 111 140 173 210 253
#     4   9  17  27  40  58  81 111 145 181 217 248
#     4   9  16  25  39  62  89 112 137 174 216 252
#
# _framework density 16.464169999999999
#
# number of rings (size 3 to 8) (size 9 to 14) (size 15 to 20)
#    0.000    3.000    2.000    0.600    0.000    2.400 
#    0.000    0.500    0.000    5.400    0.000    0.700 
#    0.000    5.600    0.000    0.000    0.000    0.000 
#
# Total GULP energy -495852.403562 kJ/mol
# GULP energy per Si atom -12396.310089 kJ/mol
# Density = 1.642670 g / cm^3
# Si number density = 16.464170 Si / 1000 Ang^3
#
#
#
# Elastic Constant Matrix: (Units=GPa)
#
#
# Indices 1 2 3 4 5 6 
#
# 1 163.2310 62.2310 52.2658 0.0000 0.0000 0.0000
# 2 62.2310 68.9163 20.4542 0.0000 0.0000 0.0000
# 3 52.2658 20.4542 58.0832 0.0000 0.0000 0.0000
# 4 0.0000 0.0000 0.0000 4.9493 0.0000 0.0000
# 5 0.0000 0.0000 0.0000 0.0000 3.8740 0.0000
# 6 0.0000 0.0000 0.0000 0.0000 0.0000 15.3009
#
#
#
# Elastic Compliance Matrix: (Units=1/GPa)
#
#
# Indices 1 2 3 4 5 6 
#
# 1 0.011754 -0.008347 -0.007637 0.000000 0.000000 0.000000
# 2 -0.008347 0.022132 -0.000283 0.000000 0.000000 0.000000
# 3 -0.007637 -0.000283 0.024189 0.000000 0.000000 0.000000
# 4 0.000000 0.000000 0.000000 0.202050 0.000000 0.000000
# 5 0.000000 0.000000 0.000000 0.000000 0.258134 0.000000
# 6 0.000000 0.000000 0.000000 0.000000 0.000000 0.065356
#
#
# Mechanical properties :
#
#
# Convention : Reuss Voigt Hill
#
# Bulk Modulus (GPa) = 39.15413 62.23695 50.69554
# Shear Modulus (GPa) = 8.00434 15.17679 11.59057
#
# Velocity S-wave (km/s) = 2.20731 3.03942 2.65615
# Velocity P-wave (km/s) = 5.50721 7.08526 6.34548
#
# Compressibility (1/GPa) = 0.02554009
#
# Stress axis : x y z
#
# Youngs Moduli (GPa) = 85.07761 45.18432 41.34182
#
# Poissons Ratio (x) = 0.37716 0.31574
# Poissons Ratio (y) = 0.71015 0.01169
# Poissons Ratio (z) = 0.64976 0.01277
#
# Static dielectric constant tensor:
#      x y z
#    x 3.325230 0.000000 0.000000 
#    y 0.000000 2.913340 0.000000 
#    z 0.000000 0.000000 2.788320 
# 
# 
# High freq. dielectric constant tensor:
#      x y z
#    x 1.646320 0.000000 0.000000 
#    y 0.000000 1.591840 0.000000 
#    z 0.000000 0.000000 1.589160 
# 
# From -- ./inp_files/14206.got.cif
#   From: 2010.03.12/outbox.cif.g09.slc.cpg/sg65_8_cif.got.tgz:14206.got - 2010.04.10 20:52:16.
