data_PCOD8275683
_publ_section_title
;
Structure prediction by ZEFSAII (Michael W. Deem and Ramdas Pophale) SiO2 
 PCOD8275683
Probable space group: C C C M
;
_chemical_formula_sum "Si O2"
_cell_formula_units_Z 120
_cell_length_a 20.478506
_cell_length_b 12.260348
_cell_length_c 23.408672
_cell_angle_alpha 90.000000
_cell_angle_beta 90.000000
_cell_angle_gamma 90.000000
_cell_volume 5877.299786
_symmetry_space_group_name_H-M "C C C M"
_symmetry_group_IT_number 66
_symmetry_cell_setting 'orthorhombic'
loop_
_space_group_symop_operation_xyz
x,y,z
-x,-y,z
x,-y,1/2-z
-x,y,1/2-z
-x,-y,-z
x,y,-z
-x,y,1/2+z
x,-y,1/2+z
1/2+x,1/2+y,z
1/2-x,1/2-y,z
1/2+x,1/2-y,1/2-z
1/2-x,1/2+y,1/2-z
1/2-x,1/2-y,-z
1/2+x,1/2+y,-z
1/2-x,1/2+y,1/2+z
1/2+x,1/2-y,1/2+z
loop_
_atom_site_type_symbol
_atom_site_label
_atom_site_fract_x
_atom_site_fract_y
_atom_site_fract_z
Si Si1 0.675642 0.217567 0.650704
Si Si2 0.073278 0.207020 0.936368
Si Si3 0.052492 0.335821 0.434092
Si Si4 0.737925 0.623674 0.434888
Si Si5 0.176171 0.281372 0.716757
Si Si6 0.500000 0.500000 0.100063
Si Si7 0.647143 0.966841 0.632660
Si Si8 0.386337 0.359650 0.627404
O O1 0.750000 0.250000 0.635841
O O2 0.630209 0.293248 0.610943
O O3 0.661312 0.235678 0.717049
O O4 0.655719 0.093844 0.640637
O O5 0.022906 0.305299 0.921910
O O6 0.102653 0.224650 0.000000
O O7 0.035160 0.091814 0.938087
O O8 0.062818 0.369117 0.500000
O O9 0.075351 0.434772 0.392349
O O10 0.096662 0.230049 0.420806
O O11 0.721908 0.597043 0.500000
O O12 0.750000 0.750000 0.422564
O O13 0.803140 0.562906 0.417393
O O14 0.677768 0.579166 0.396673
O O15 0.250000 0.250000 0.701328
O O16 0.162233 0.403090 0.692240
O O17 0.127103 0.196703 0.687639
O O18 0.555115 0.443780 0.139297
#
# Coordination Sequence:
#
# PCOD8275683 Si02
#       8
#    16  16  16  16  16   8  16  16
#     4  11  27  42  59  87 125 165 209 252 311 379
#     4  10  23  44  63  87 123 164 206 248 304 373
#     4   9  18  35  62  89 117 154 201 253 299 358
#     4  11  19  30  58  97 129 156 205 264 308 352
#     4  10  19  40  65  88 117 159 211 265 301 356
#     4  10  23  40  67  94 122 166 204 246 310 388
#     4  11  20  37  60  91 121 159 206 254 314 359
#     4  10  18  35  59  93 126 155 200 253 314 354
#
# _framework density 20.417539000000001
#
# number of rings (size 3 to 8) (size 9 to 14) (size 15 to 20)
#    0.000    1.733    4.000    1.400    1.867    3.467 
#    0.000    8.667    0.000    4.800    0.000    0.000 
#    0.000    0.000    0.000    0.000    0.000    0.000 
#
# Total GULP energy -743799.430637 kJ/mol
# GULP energy per Si atom -12396.657177 kJ/mol
# Density = 2.037107 g / cm^3
# Si number density = 20.417539 Si / 1000 Ang^3
#
#
#
# Elastic Constant Matrix: (Units=GPa)
#
#
# Indices 1 2 3 4 5 6 
#
# 1 107.5845 41.6284 62.7212 0.0000 0.0000 0.0000
# 2 41.6284 77.2823 38.2835 0.0000 0.0000 0.0000
# 3 62.7212 38.2835 118.3916 0.0000 0.0000 0.0000
# 4 0.0000 0.0000 0.0000 13.4487 0.0000 0.0000
# 5 0.0000 0.0000 0.0000 0.0000 28.6084 0.0000
# 6 0.0000 0.0000 0.0000 0.0000 0.0000 34.5451
#
#
#
# Elastic Compliance Matrix: (Units=1/GPa)
#
#
# Indices 1 2 3 4 5 6 
#
# 1 0.014851 -0.004885 -0.006288 0.000000 0.000000 0.000000
# 2 -0.004885 0.017014 -0.002914 0.000000 0.000000 0.000000
# 3 -0.006288 -0.002914 0.012720 0.000000 0.000000 0.000000
# 4 0.000000 0.000000 0.000000 0.074357 0.000000 0.000000
# 5 0.000000 0.000000 0.000000 0.000000 0.034955 0.000000
# 6 0.000000 0.000000 0.000000 0.000000 0.000000 0.028948
#
#
# Mechanical properties :
#
#
# Convention : Reuss Voigt Hill
#
# Bulk Modulus (GPa) = 60.93193 65.39161 63.16177
# Shear Modulus (GPa) = 23.09589 26.02880 24.56234
#
# Velocity S-wave (km/s) = 3.36695 3.57434 3.47219
# Velocity P-wave (km/s) = 6.70991 7.00937 6.86127
#
# Compressibility (1/GPa) = 0.01641176
#
# Stress axis : x y z
#
# Youngs Moduli (GPa) = 67.33530 58.77446 78.61504
#
# Poissons Ratio (x) = 0.28709 0.49435
# Poissons Ratio (y) = 0.32890 0.22909
# Poissons Ratio (z) = 0.42342 0.17127
#
# Static dielectric constant tensor:
#      x y z
#    x 3.913030 0.000000 0.000000 
#    y 0.000000 7.124780 0.000000 
#    z 0.000000 0.000000 3.604380 
# 
# 
# High freq. dielectric constant tensor:
#      x y z
#    x 1.802030 0.000000 0.000000 
#    y 0.000000 1.783120 0.000000 
#    z 0.000000 0.000000 1.788590 
# 
# From -- ./inp_files/59607.got.cif
#   From: 2010.03.12/outbox.cif.g09.slc.cpg/sg66_30_cif.got.tgz:59607.got - 2010.04.10 21:57:39.
