data_PCOD8275654
_publ_section_title
;
Structure prediction by ZEFSAII (Michael W. Deem and Ramdas Pophale) SiO2 
 PCOD8275654
Probable space group: C C C M
;
_chemical_formula_sum "Si O2"
_cell_formula_units_Z 96
_cell_length_a 8.741218
_cell_length_b 18.055359
_cell_length_c 31.536559
_cell_angle_alpha 90.000000
_cell_angle_beta 90.000000
_cell_angle_gamma 90.000000
_cell_volume 4977.283571
_symmetry_space_group_name_H-M "C C C M"
_symmetry_group_IT_number 66
_symmetry_cell_setting 'orthorhombic'
loop_
_space_group_symop_operation_xyz
x,y,z
-x,-y,z
x,-y,1/2-z
-x,y,1/2-z
-x,-y,-z
x,y,-z
-x,y,1/2+z
x,-y,1/2+z
1/2+x,1/2+y,z
1/2-x,1/2-y,z
1/2+x,1/2-y,1/2-z
1/2-x,1/2+y,1/2-z
1/2-x,1/2-y,-z
1/2+x,1/2+y,-z
1/2-x,1/2+y,1/2+z
1/2+x,1/2-y,1/2+z
loop_
_atom_site_type_symbol
_atom_site_label
_atom_site_fract_x
_atom_site_fract_y
_atom_site_fract_z
Si Si1 0.218367 0.935663 0.379973
Si Si2 0.191676 0.676843 0.175299
Si Si3 0.339578 0.460796 0.546018
Si Si4 0.567633 0.659599 0.601751
Si Si5 0.178317 0.516718 0.796397
Si Si6 0.104808 0.293306 0.870777
O O1 0.339109 0.870375 0.391193
O O2 0.046084 0.903876 0.379775
O O3 0.251369 0.997212 0.416264
O O4 0.239599 0.970872 0.333522
O O5 0.250000 0.750000 0.200832
O O6 0.290063 0.672622 0.132372
O O7 0.214393 0.603467 0.201682
O O8 0.011861 0.687042 0.166449
O O9 0.500000 0.500000 0.540230
O O10 0.254272 0.463599 0.500000
O O11 0.364730 0.373942 0.558139
O O12 0.476749 0.737549 0.595072
O O13 0.245222 0.500000 0.750000
O O14 0.000000 0.500000 0.799767
O O15 0.250000 0.250000 0.850637
#
# Coordination Sequence:
#
# PCOD8275654 Si02
#       6
#    16  16  16  16  16  16
#     4  10  18  34  55  80 111 145 188 230 284 334
#     4  10  19  35  57  81 111 148 186 228 286 338
#     4   9  17  30  53  83 113 145 185 231 285 345
#     4   9  18  32  55  81 110 146 183 226 284 342
#     4  11  22  36  58  83 112 152 190 236 285 342
#     4   9  18  32  54  80 106 149 186 227 279 341
#
# _framework density 19.287628999999999
#
# number of rings (size 3 to 8) (size 9 to 14) (size 15 to 20)
#    0.000    2.333    3.333    0.000    0.000    0.000 
#    0.000    5.000    0.000   14.000    0.000    0.000 
#    0.000    0.000    0.000    0.000    0.000    0.000 
#
# Total GULP energy -594627.430583 kJ/mol
# GULP energy per Si atom -12388.071470 kJ/mol
# Density = 1.924373 g / cm^3
# Si number density = 19.287629 Si / 1000 Ang^3
#
#
#
# Elastic Constant Matrix: (Units=GPa)
#
#
# Indices 1 2 3 4 5 6 
#
# 1 71.1021 29.4808 27.4724 0.0000 0.0000 0.0000
# 2 29.4808 154.3606 63.6762 0.0000 0.0000 0.0000
# 3 27.4724 63.6762 129.8009 0.0000 0.0000 0.0000
# 4 0.0000 0.0000 0.0000 -44.0954 0.0000 0.0000
# 5 0.0000 0.0000 0.0000 0.0000 2619.5969 0.0000
# 6 0.0000 0.0000 0.0000 0.0000 0.0000 25.7615
#
#
#
# Elastic Compliance Matrix: (Units=1/GPa)
#
#
# Indices 1 2 3 4 5 6 
#
# 1 0.015821 -0.002056 -0.002340 0.000000 0.000000 0.000000
# 2 -0.002056 0.008389 -0.003680 0.000000 0.000000 0.000000
# 3 -0.002340 -0.003680 0.010005 0.000000 0.000000 0.000000
# 4 0.000000 0.000000 0.000000 -0.022678 0.000000 0.000000
# 5 0.000000 0.000000 0.000000 0.000000 0.000382 0.000000
# 6 0.000000 0.000000 0.000000 0.000000 0.000000 0.038818
#
#
# Mechanical properties :
#
#
# Convention : Reuss Voigt Hill
#
# Bulk Modulus (GPa) = 55.36436 66.28027 60.82231
# Shear Modulus (GPa) = 68.57814 535.89489 302.23652
#
# Velocity S-wave (km/s) = 5.96931 16.68673 12.53155
# Velocity P-wave (km/s) = 8.73368 20.14203 15.52383
#
# Compressibility (1/GPa) = 0.01806216
#
# Stress axis : x y z
#
# Youngs Moduli (GPa) = 63.20742 119.20015 99.95286
#
# Poissons Ratio (x) = 0.24513 0.23386
# Poissons Ratio (y) = 0.12998 0.36785
# Poissons Ratio (z) = 0.14789 0.43869
#
# Static dielectric constant tensor:
#      x y z
#    x 3.569220 0.000000 0.000000 
#    y 0.000000 4.113000 0.000000 
#    z 0.000000 0.000000 3.381430 
# 
# 
# High freq. dielectric constant tensor:
#      x y z
#    x 1.744170 0.000000 0.000000 
#    y 0.000000 1.777250 0.000000 
#    z 0.000000 0.000000 1.701620 
# 
# From -- ./inp_files/62564.got.cif
#   From: 2010.03.12/outbox.cif.g09.slc.cpg/sg66_32_cif.got.tgz:62564.got - 2010.04.10 21:57:39.
