data_PCOD8275952
_publ_section_title
;
Structure prediction by ZEFSAII (Michael W. Deem and Ramdas Pophale) SiO2 
 PCOD8275952
Probable space group: C C C M
;
_chemical_formula_sum "Si O2"
_cell_formula_units_Z 112
_cell_length_a 21.008786
_cell_length_b 16.890762
_cell_length_c 17.967326
_cell_angle_alpha 90.000000
_cell_angle_beta 90.000000
_cell_angle_gamma 90.000000
_cell_volume 6375.784763
_symmetry_space_group_name_H-M "C C C M"
_symmetry_group_IT_number 66
_symmetry_cell_setting 'orthorhombic'
loop_
_space_group_symop_operation_xyz
x,y,z
-x,-y,z
x,-y,1/2-z
-x,y,1/2-z
-x,-y,-z
x,y,-z
-x,y,1/2+z
x,-y,1/2+z
1/2+x,1/2+y,z
1/2-x,1/2-y,z
1/2+x,1/2-y,1/2-z
1/2-x,1/2+y,1/2-z
1/2-x,1/2-y,-z
1/2+x,1/2+y,-z
1/2-x,1/2+y,1/2+z
1/2+x,1/2-y,1/2+z
loop_
_atom_site_type_symbol
_atom_site_label
_atom_site_fract_x
_atom_site_fract_y
_atom_site_fract_z
Si Si1 0.819019 0.344084 0.215876
Si Si2 0.772746 0.942749 0.188958
Si Si3 0.916419 0.491682 0.582158
Si Si4 0.816195 0.223950 0.337968
Si Si5 0.430350 0.814324 0.587865
Si Si6 0.463315 0.126507 0.675927
Si Si7 0.778881 0.566250 0.416714
O O1 0.794319 0.409957 0.275980
O O2 0.810948 0.258383 0.253606
O O3 0.892843 0.348838 0.197099
O O4 0.777810 0.357935 0.139743
O O5 0.819994 0.870884 0.168878
O O6 0.805633 0.000000 0.250000
O O7 0.762735 0.993190 0.113885
O O8 0.944892 0.485432 0.500000
O O9 0.907240 0.402280 0.612421
O O10 0.965480 0.546040 0.627948
O O11 0.850152 0.536136 0.581696
O O12 0.750000 0.250000 0.379747
O O13 0.878160 0.252889 0.381790
O O14 0.437433 0.800991 0.500000
O O15 0.499266 0.804347 0.628709
O O16 0.500000 0.106259 0.750000
O O17 0.755566 0.590171 0.500000
#
# Coordination Sequence:
#
# PCOD8275952 Si02
#       7
#    16  16  16  16  16  16  16
#     4   9  18  33  48  70  98 130 168 206 246 290
#     4   9  18  33  54  74  99 126 167 211 251 297
#     4   9  18  30  40  59  95 134 169 202 232 270
#     4  10  19  33  51  71  97 135 168 206 254 297
#     4  11  22  33  43  69 102 132 172 214 245 289
#     4  11  20  30  45  64  94 137 176 204 237 284
#     4   9  17  29  48  70  97 129 165 207 249 293
#
# _framework density 17.566465000000001
#
# number of rings (size 3 to 8) (size 9 to 14) (size 15 to 20)
#    0.000    2.286    1.429    2.571    0.000    4.857 
#    5.143    0.000    0.000   10.714    0.000    2.000 
#    0.000    1.143    0.000    0.000    0.000    0.000 
#
# Total GULP energy -693746.301496 kJ/mol
# GULP energy per Si atom -12388.326812 kJ/mol
# Density = 1.752648 g / cm^3
# Si number density = 17.566465 Si / 1000 Ang^3
#
#
#
# Elastic Constant Matrix: (Units=GPa)
#
#
# Indices 1 2 3 4 5 6 
#
# 1 69.7840 29.5128 30.1878 0.0000 0.0000 0.0000
# 2 29.5128 74.4286 37.9746 0.0000 0.0000 0.0000
# 3 30.1878 37.9746 123.9512 0.0000 0.0000 0.0000
# 4 0.0000 0.0000 0.0000 20.9083 0.0000 0.0000
# 5 0.0000 0.0000 0.0000 0.0000 7.8463 0.0000
# 6 0.0000 0.0000 0.0000 0.0000 0.0000 23.1633
#
#
#
# Elastic Compliance Matrix: (Units=1/GPa)
#
#
# Indices 1 2 3 4 5 6 
#
# 1 0.017891 -0.005774 -0.002589 0.000000 0.000000 0.000000
# 2 -0.005774 0.017788 -0.004044 0.000000 0.000000 0.000000
# 3 -0.002589 -0.004044 0.009937 0.000000 0.000000 0.000000
# 4 0.000000 0.000000 0.000000 0.047828 0.000000 0.000000
# 5 0.000000 0.000000 0.000000 0.000000 0.127448 0.000000
# 6 0.000000 0.000000 0.000000 0.000000 0.000000 0.043172
#
#
# Mechanical properties :
#
#
# Convention : Reuss Voigt Hill
#
# Bulk Modulus (GPa) = 48.06529 51.50157 49.78343
# Shear Modulus (GPa) = 16.90270 21.74951 19.32610
#
# Velocity S-wave (km/s) = 3.10532 3.52252 3.32048
# Velocity P-wave (km/s) = 6.34655 6.77687 6.56524
#
# Compressibility (1/GPa) = 0.02080503
#
# Stress axis : x y z
#
# Youngs Moduli (GPa) = 55.89247 56.21702 100.63477
#
# Poissons Ratio (x) = 0.32458 0.26049
# Poissons Ratio (y) = 0.32271 0.40692
# Poissons Ratio (z) = 0.14468 0.22732
#
# Static dielectric constant tensor:
#      x y z
#    x 3.134980 0.000000 0.000000 
#    y 0.000000 3.116510 0.000000 
#    z 0.000000 0.000000 3.683150 
# 
# 
# High freq. dielectric constant tensor:
#      x y z
#    x 1.654610 0.000000 0.000000 
#    y 0.000000 1.644590 0.000000 
#    z 0.000000 0.000000 1.690370 
# 
# From -- ./inp_files/41976.got.cif
#   From: 2010.03.12/outbox.cif.g09.slc.cpg/sg66_21_cif.got.tgz:41976.got - 2010.04.10 21:57:39.
