data_PCOD8275750
_publ_section_title
;
Structure prediction by ZEFSAII (Michael W. Deem and Ramdas Pophale) SiO2 
 PCOD8275750
Probable space group: C C C M
;
_chemical_formula_sum "Si O2"
_cell_formula_units_Z 84
_cell_length_a 16.268888
_cell_length_b 27.516608
_cell_length_c 9.162519
_cell_angle_alpha 90.000000
_cell_angle_beta 90.000000
_cell_angle_gamma 90.000000
_cell_volume 4101.735529
_symmetry_space_group_name_H-M "C C C M"
_symmetry_group_IT_number 66
_symmetry_cell_setting 'orthorhombic'
loop_
_space_group_symop_operation_xyz
x,y,z
-x,-y,z
x,-y,1/2-z
-x,y,1/2-z
-x,-y,-z
x,y,-z
-x,y,1/2+z
x,-y,1/2+z
1/2+x,1/2+y,z
1/2-x,1/2-y,z
1/2+x,1/2-y,1/2-z
1/2-x,1/2+y,1/2-z
1/2-x,1/2-y,-z
1/2+x,1/2+y,-z
1/2-x,1/2+y,1/2+z
1/2+x,1/2-y,1/2+z
loop_
_atom_site_type_symbol
_atom_site_label
_atom_site_fract_x
_atom_site_fract_y
_atom_site_fract_z
Si Si1 0.000000 0.000000 0.250000
Si Si2 0.672534 0.848401 0.661732
Si Si3 0.652699 0.757735 0.163806
Si Si4 0.628632 0.426809 0.336662
Si Si5 0.132785 0.834543 0.164363
Si Si6 0.791700 0.453471 0.827222
O O1 0.944010 0.965840 0.148677
O O2 0.637843 0.837872 0.500000
O O3 0.629826 0.811005 0.772868
O O4 0.769747 0.840811 0.661895
O O5 0.655335 0.904661 0.706124
O O6 0.750000 0.750000 0.166459
O O7 0.608820 0.716727 0.261690
O O8 0.618287 0.754644 0.000000
O O9 0.660283 0.414338 0.500000
O O10 0.594165 0.377923 0.259939
O O11 0.701188 0.448980 0.239874
O O12 0.097149 0.835926 0.000000
O O13 0.835190 0.500000 0.750000
O O14 0.782900 0.461971 0.000000
#
# Coordination Sequence:
#
# PCOD8275750 Si02
#       6
#     4  16  16  16  16  16
#     4  12  26  36  48  62  78 100 134 176 224 256
#     4   8  15  25  37  55  77 100 123 150 187 231
#     4   9  15  23  38  59  78  96 119 147 184 230
#     4  11  22  34  47  59  74  95 127 167 208 252
#     4   9  17  29  43  57  76  96 118 150 195 242
#     4  10  19  30  43  58  78 103 132 164 201 241
#
# _framework density 20.479136
#
# number of rings (size 3 to 8) (size 9 to 14) (size 15 to 20)
#    0.000    2.476    0.952    3.714    0.000    9.905 
#    0.000    0.000    0.000    0.000    0.000    0.000 
#    0.000    0.000    0.000    0.000    0.000    0.000 
#
# Total GULP energy -520606.640481 kJ/mol
# GULP energy per Si atom -12395.396202 kJ/mol
# Density = 2.043252 g / cm^3
# Si number density = 20.479136 Si / 1000 Ang^3
#
#
#
# Elastic Constant Matrix: (Units=GPa)
#
#
# Indices 1 2 3 4 5 6 
#
# 1 4.8342 6.5356 5.0142 0.0000 0.0000 0.0000
# 2 6.5356 196.0747 97.6264 0.0000 0.0000 0.0000
# 3 5.0142 97.6264 171.1774 0.0000 0.0000 0.0000
# 4 0.0000 0.0000 0.0000 40.6858 0.0000 0.0000
# 5 0.0000 0.0000 0.0000 0.0000 5.7568 0.0000
# 6 0.0000 0.0000 0.0000 0.0000 0.0000 12.6583
#
#
#
# Elastic Compliance Matrix: (Units=1/GPa)
#
#
# Indices 1 2 3 4 5 6 
#
# 1 0.217814 -0.005703 -0.003128 0.000000 0.000000 0.000000
# 2 -0.005703 0.007272 -0.003980 0.000000 0.000000 0.000000
# 3 -0.003128 -0.003980 0.008204 0.000000 0.000000 0.000000
# 4 0.000000 0.000000 0.000000 0.024579 0.000000 0.000000
# 5 0.000000 0.000000 0.000000 0.000000 0.173707 0.000000
# 6 0.000000 0.000000 0.000000 0.000000 0.000000 0.078999
#
#
# Mechanical properties :
#
#
# Convention : Reuss Voigt Hill
#
# Bulk Modulus (GPa) = 4.81540 65.60429 35.20984
# Shear Modulus (GPa) = 8.25875 29.34753 18.80314
#
# Velocity S-wave (km/s) = 2.01035 3.78967 3.03340
# Velocity P-wave (km/s) = 2.78301 7.15912 5.43131
#
# Compressibility (1/GPa) = 0.20766727
#
# Stress axis : x y z
#
# Youngs Moduli (GPa) = 4.59108 137.51341 121.89765
#
# Poissons Ratio (x) = 0.78421 0.38128
# Poissons Ratio (y) = 0.02618 0.48520
# Poissons Ratio (z) = 0.01436 0.54735
#
# Static dielectric constant tensor:
#      x y z
#    x 2.768930 0.000000 0.000000 
#    y 0.000000 4.338780 0.000000 
#    z 0.000000 0.000000 3.830620 
# 
# 
# High freq. dielectric constant tensor:
#      x y z
#    x 1.701250 0.000000 0.000000 
#    y 0.000000 1.824600 0.000000 
#    z 0.000000 0.000000 1.811710 
# 
# From -- ./inp_files/9252.got.cif
#   From: 2010.03.12/outbox.cif.g09.slc.cpg/sg66_5_cif.got.tgz:9252.got - 2010.04.10 21:57:39.
