data_PCOD8275519
_publ_section_title
;
Structure prediction by ZEFSAII (Michael W. Deem and Ramdas Pophale) SiO2 
 PCOD8275519
Probable space group: C C C M
;
_chemical_formula_sum "Si O2"
_cell_formula_units_Z 120
_cell_length_a 14.502404
_cell_length_b 28.256852
_cell_length_c 15.239555
_cell_angle_alpha 90.000000
_cell_angle_beta 90.000000
_cell_angle_gamma 90.000000
_cell_volume 6245.052043
_symmetry_space_group_name_H-M "C C C M"
_symmetry_group_IT_number 66
_symmetry_cell_setting 'orthorhombic'
loop_
_space_group_symop_operation_xyz
x,y,z
-x,-y,z
x,-y,1/2-z
-x,y,1/2-z
-x,-y,-z
x,y,-z
-x,y,1/2+z
x,-y,1/2+z
1/2+x,1/2+y,z
1/2-x,1/2-y,z
1/2+x,1/2-y,1/2-z
1/2-x,1/2+y,1/2-z
1/2-x,1/2-y,-z
1/2+x,1/2+y,-z
1/2-x,1/2+y,1/2+z
1/2+x,1/2-y,1/2+z
loop_
_atom_site_type_symbol
_atom_site_label
_atom_site_fract_x
_atom_site_fract_y
_atom_site_fract_z
Si Si1 0.558176 0.300906 0.899231
Si Si2 0.311967 0.949900 0.400984
Si Si3 0.497086 0.900614 0.648907
Si Si4 0.310318 0.058629 0.400782
Si Si5 0.301211 0.397757 0.756075
Si Si6 0.746908 0.302257 0.192374
Si Si7 0.000000 0.868945 0.250000
Si Si8 0.061386 0.694952 0.898114
O O1 0.667895 0.302938 0.882371
O O2 0.502576 0.336223 0.836612
O O3 0.523003 0.247491 0.878572
O O4 0.538881 0.314859 0.000000
O O5 0.274936 0.945351 0.500000
O O6 0.411089 0.925577 0.395853
O O7 0.238288 0.925282 0.338485
O O8 0.321455 0.004203 0.372402
O O9 0.500000 0.914952 0.750000
O O10 0.589844 0.917535 0.602290
O O11 0.487632 0.843726 0.636477
O O12 0.272091 0.063305 0.500000
O O13 0.238303 0.083343 0.335894
O O14 0.276293 0.341883 0.765430
O O15 0.411630 0.403229 0.755404
O O16 0.750000 0.250000 0.236460
O O17 0.842969 0.316064 0.149533
O O18 0.080219 0.688428 0.000000
#
# Coordination Sequence:
#
# PCOD8275519 Si02
#       8
#    16  16  16  16  16  16   8  16
#     4   9  19  34  55  81 115 156 197 246 297 344
#     4  11  24  41  60  87 124 161 194 234 290 361
#     4  12  22  34  58  91 125 163 192 233 284 354
#     4  11  23  40  64  90 119 153 196 248 296 348
#     4  11  22  41  62  86 115 156 199 248 302 354
#     4   9  17  32  56  87 117 150 197 249 296 335
#     4  10  24  40  61  86 112 152 199 256 304 354
#     4  10  18  30  52  85 121 156 196 239 284 340
#
# _framework density 19.215212000000001
#
# number of rings (size 3 to 8) (size 9 to 14) (size 15 to 20)
#    0.000    1.600    2.667    2.400    0.933    5.867 
#    2.400    1.333    0.000    2.000    0.000    0.000 
#    0.000    0.000    0.000    0.000    0.000    0.000 
#
# Total GULP energy -744074.819606 kJ/mol
# GULP energy per Si atom -12401.246993 kJ/mol
# Density = 1.917148 g / cm^3
# Si number density = 19.215212 Si / 1000 Ang^3
#
#
#
# Elastic Constant Matrix: (Units=GPa)
#
#
# Indices 1 2 3 4 5 6 
#
# 1 109.9053 45.2219 29.2616 0.0000 0.0000 0.0000
# 2 45.2219 110.9363 37.2544 0.0000 0.0000 0.0000
# 3 29.2616 37.2544 87.3625 0.0000 0.0000 0.0000
# 4 0.0000 0.0000 0.0000 30.9112 0.0000 0.0000
# 5 0.0000 0.0000 0.0000 0.0000 18.7481 0.0000
# 6 0.0000 0.0000 0.0000 0.0000 0.0000 23.6108
#
#
#
# Elastic Compliance Matrix: (Units=1/GPa)
#
#
# Indices 1 2 3 4 5 6 
#
# 1 0.011258 -0.003878 -0.002117 0.000000 0.000000 0.000000
# 2 -0.003878 0.011857 -0.003757 0.000000 0.000000 0.000000
# 3 -0.002117 -0.003757 0.013758 0.000000 0.000000 0.000000
# 4 0.000000 0.000000 0.000000 0.032351 0.000000 0.000000
# 5 0.000000 0.000000 0.000000 0.000000 0.053339 0.000000
# 6 0.000000 0.000000 0.000000 0.000000 0.000000 0.042354
#
#
# Mechanical properties :
#
#
# Convention : Reuss Voigt Hill
#
# Bulk Modulus (GPa) = 57.57762 59.07557 58.32660
# Shear Modulus (GPa) = 26.28669 27.75174 27.01922
#
# Velocity S-wave (km/s) = 3.70268 3.80446 3.75392
# Velocity P-wave (km/s) = 6.95050 7.07881 7.01495
#
# Compressibility (1/GPa) = 0.01736786
#
# Stress axis : x y z
#
# Youngs Moduli (GPa) = 88.82439 84.33940 72.68589
#
# Poissons Ratio (x) = 0.32710 0.15388
# Poissons Ratio (y) = 0.34449 0.27309
# Poissons Ratio (z) = 0.18804 0.31688
#
# Static dielectric constant tensor:
#      x y z
#    x 3.329700 0.000000 0.000000 
#    y 0.000000 3.832110 0.000000 
#    z 0.000000 0.000000 3.409980 
# 
# 
# High freq. dielectric constant tensor:
#      x y z
#    x 1.724980 0.000000 0.000000 
#    y 0.000000 1.761060 0.000000 
#    z 0.000000 0.000000 1.742500 
# 
# From -- ./inp_files/29054.got.cif
#   From: 2010.03.12/outbox.cif.g09.slc.cpg/sg66_15_cif.got.tgz:29054.got - 2010.04.10 21:57:39.
