data_PCOD8275339
_publ_section_title
;
Structure prediction by ZEFSAII (Michael W. Deem and Ramdas Pophale) SiO2 
 PCOD8275339
Probable space group: C C C M
;
_chemical_formula_sum "Si O2"
_cell_formula_units_Z 80
_cell_length_a 17.164480
_cell_length_b 20.257539
_cell_length_c 14.392477
_cell_angle_alpha 90.000000
_cell_angle_beta 90.000000
_cell_angle_gamma 90.000000
_cell_volume 5004.409948
_symmetry_space_group_name_H-M "C C C M"
_symmetry_group_IT_number 66
_symmetry_cell_setting 'orthorhombic'
loop_
_space_group_symop_operation_xyz
x,y,z
-x,-y,z
x,-y,1/2-z
-x,y,1/2-z
-x,-y,-z
x,y,-z
-x,y,1/2+z
x,-y,1/2+z
1/2+x,1/2+y,z
1/2-x,1/2-y,z
1/2+x,1/2-y,1/2-z
1/2-x,1/2+y,1/2-z
1/2-x,1/2-y,-z
1/2+x,1/2+y,-z
1/2-x,1/2+y,1/2+z
1/2+x,1/2-y,1/2+z
loop_
_atom_site_type_symbol
_atom_site_label
_atom_site_fract_x
_atom_site_fract_y
_atom_site_fract_z
Si Si1 0.637648 0.168520 0.895647
Si Si2 0.741081 0.328551 0.750000
Si Si3 1.000000 0.576093 0.140834
Si Si4 0.087172 0.225508 0.750000
Si Si5 0.137648 0.331480 0.895647
O O1 0.715976 0.143557 0.842143
O O2 0.577122 0.108556 0.901422
O O3 0.599207 0.230037 0.841860
O O4 0.660025 0.190368 0.000000
O O5 0.750000 0.250000 0.750000
O O6 0.647006 0.337801 0.750000
O O7 0.784024 0.356443 0.657857
O O8 0.922878 0.608556 0.098578
O O9 0.000000 0.500000 0.112310
O O10 0.000000 0.587730 0.250000
O O11 0.099207 0.269963 0.841860
O O12 0.000000 0.196576 0.750000
O O13 0.160025 0.309632 0.000000
#
# Coordination Sequence:
#
# PCOD8275339 Si02
#       5
#    16  16  16  16  16
#     4  10  17  29  43  58  85 114 143 172 208 249
#     4   8  18  29  40  58  81 107 147 176 213 244
#     4  11  19  29  45  64  91 119 144 173 207 252
#     4  10  18  30  41  61  82 109 146 180 214 244
#     4  10  17  29  43  58  85 114 143 172 208 249
#
# _framework density 15.985901
#
# number of rings (size 3 to 8) (size 9 to 14) (size 15 to 20)
#    0.000    2.600    6.000    0.600    0.000    8.800 
#    0.000    0.000    0.000    0.000    0.000    0.000 
#    0.000    3.200    0.000    3.600    0.000    0.000 
#
# Total GULP energy -495627.965563 kJ/mol
# GULP energy per Si atom -12390.699139 kJ/mol
# Density = 1.594952 g / cm^3
# Si number density = 15.985901 Si / 1000 Ang^3
#
#
#
# Elastic Constant Matrix: (Units=GPa)
#
#
# Indices 1 2 3 4 5 6 
#
# 1 159.9123 30.5691 43.8989 0.0000 0.0000 0.0000
# 2 30.5691 33.7045 14.9805 0.0000 0.0000 0.0000
# 3 43.8989 14.9805 142.3216 0.0000 0.0000 0.0000
# 4 0.0000 0.0000 0.0000 4.4020 0.0000 0.0000
# 5 0.0000 0.0000 0.0000 0.0000 3.4794 0.0000
# 6 0.0000 0.0000 0.0000 0.0000 0.0000 10.7190
#
#
#
# Elastic Compliance Matrix: (Units=1/GPa)
#
#
# Indices 1 2 3 4 5 6 
#
# 1 0.007974 -0.006440 -0.001782 0.000000 0.000000 0.000000
# 2 -0.006440 0.036327 -0.001837 0.000000 0.000000 0.000000
# 3 -0.001782 -0.001837 0.007769 0.000000 0.000000 0.000000
# 4 0.000000 0.000000 0.000000 0.227172 0.000000 0.000000
# 5 0.000000 0.000000 0.000000 0.000000 0.287405 0.000000
# 6 0.000000 0.000000 0.000000 0.000000 0.000000 0.093292
#
#
# Mechanical properties :
#
#
# Convention : Reuss Voigt Hill
#
# Bulk Modulus (GPa) = 31.29668 57.20393 44.25030
# Shear Modulus (GPa) = 7.23895 20.15274 13.69584
#
# Velocity S-wave (km/s) = 2.13030 3.55443 2.93020
# Velocity P-wave (km/s) = 5.06666 7.25995 6.26011
#
# Compressibility (1/GPa) = 0.03195227
#
# Stress axis : x y z
#
# Youngs Moduli (GPa) = 125.41415 27.52759 128.71241
#
# Poissons Ratio (x) = 0.17728 0.22931
# Poissons Ratio (y) = 0.80767 0.23649
# Poissons Ratio (z) = 0.22344 0.05058
#
# Static dielectric constant tensor:
#      x y z
#    x 3.976330 0.000000 0.000000 
#    y 0.000000 2.608940 0.000000 
#    z 0.000000 0.000000 3.148750 
# 
# 
# High freq. dielectric constant tensor:
#      x y z
#    x 1.618950 0.000000 0.000000 
#    y 0.000000 1.541650 0.000000 
#    z 0.000000 0.000000 1.627810 
# 
# From -- ./inp_files/29970.got.cif
#   From: 2010.03.12/outbox.cif.g09.slc.cpg/sg66_15_cif.got.tgz:29970.got - 2010.04.10 21:57:39.
