data_PCOD8275668
_publ_section_title
;
Structure prediction by ZEFSAII (Michael W. Deem and Ramdas Pophale) SiO2 
 PCOD8275668
Probable space group: C C C M
;
_chemical_formula_sum "Si O2"
_cell_formula_units_Z 112
_cell_length_a 25.384425
_cell_length_b 13.072043
_cell_length_c 14.290331
_cell_angle_alpha 90.000000
_cell_angle_beta 90.000000
_cell_angle_gamma 90.000000
_cell_volume 4741.907592
_symmetry_space_group_name_H-M "C C C M"
_symmetry_group_IT_number 66
_symmetry_cell_setting 'orthorhombic'
loop_
_space_group_symop_operation_xyz
x,y,z
-x,-y,z
x,-y,1/2-z
-x,y,1/2-z
-x,-y,-z
x,y,-z
-x,y,1/2+z
x,-y,1/2+z
1/2+x,1/2+y,z
1/2-x,1/2-y,z
1/2+x,1/2-y,1/2-z
1/2-x,1/2+y,1/2-z
1/2-x,1/2-y,-z
1/2+x,1/2+y,-z
1/2-x,1/2+y,1/2+z
1/2+x,1/2-y,1/2+z
loop_
_atom_site_type_symbol
_atom_site_label
_atom_site_fract_x
_atom_site_fract_y
_atom_site_fract_z
Si Si1 0.229793 0.639926 0.103554
Si Si2 0.132475 0.669439 0.211592
Si Si3 0.034124 0.595276 0.893416
Si Si4 0.093747 0.138740 0.607326
Si Si5 0.320410 0.488107 0.142360
Si Si6 0.869437 0.782653 0.892033
Si Si7 0.516469 0.688424 0.104733
O O1 0.250000 0.750000 0.140434
O O2 0.183089 0.607197 0.173639
O O3 0.273700 0.551018 0.093959
O O4 0.206151 0.655550 0.000000
O O5 0.081150 0.605454 0.181937
O O6 0.129824 0.781398 0.163470
O O7 0.141318 0.686042 0.323478
O O8 0.000000 0.500000 0.860536
O O9 0.995438 0.691428 0.888112
O O10 0.055716 0.581509 0.000000
O O11 0.088090 0.178305 0.500000
O O12 0.034140 0.130368 0.651339
O O13 0.122566 0.030535 0.611106
O O14 0.310075 0.500000 0.250000
O O15 0.323192 0.368228 0.114480
O O16 0.925306 0.829329 0.852276
O O17 0.873979 0.743905 0.000000
O O18 0.520888 0.647147 0.000000
#
# Coordination Sequence:
#
# PCOD8275668 Si02
#       7
#    16  16  16  16  16  16  16
#     4  11  21  37  66  98 128 167 221 290 354 402
#     4  11  21  38  64  98 131 172 221 279 340 417
#     4   9  18  36  65 101 137 168 213 281 351 413
#     4  10  18  34  60  93 130 170 215 271 334 395
#     4  12  23  40  60  94 135 176 222 278 334 404
#     4  11  23  41  62  91 135 186 225 266 332 411
#     4   8  18  35  58  89 132 179 219 259 323 406
#
# _framework density 23.619185999999999
#
# number of rings (size 3 to 8) (size 9 to 14) (size 15 to 20)
#    0.000    1.714    2.857    3.429    0.000    2.857 
#    0.000    5.714    0.000    8.571    0.000    0.000 
#    0.000    0.000    0.000    0.000    0.000    0.000 
#
# Total GULP energy -693961.616578 kJ/mol
# GULP energy per Si atom -12392.171725 kJ/mol
# Density = 2.356543 g / cm^3
# Si number density = 23.619186 Si / 1000 Ang^3
#
#
#
# Elastic Constant Matrix: (Units=GPa)
#
#
# Indices 1 2 3 4 5 6 
#
# 1 116.8187 44.8502 32.3641 0.0000 0.0000 0.0000
# 2 44.8502 70.2091 26.5068 0.0000 0.0000 0.0000
# 3 32.3641 26.5068 115.0540 0.0000 0.0000 0.0000
# 4 0.0000 0.0000 0.0000 25.9486 0.0000 0.0000
# 5 0.0000 0.0000 0.0000 0.0000 45.6477 0.0000
# 6 0.0000 0.0000 0.0000 0.0000 0.0000 33.5300
#
#
#
# Elastic Compliance Matrix: (Units=1/GPa)
#
#
# Indices 1 2 3 4 5 6 
#
# 1 0.011641 -0.006791 -0.001710 0.000000 0.000000 0.000000
# 2 -0.006791 0.019562 -0.002596 0.000000 0.000000 0.000000
# 3 -0.001710 -0.002596 0.009771 0.000000 0.000000 0.000000
# 4 0.000000 0.000000 0.000000 0.038538 0.000000 0.000000
# 5 0.000000 0.000000 0.000000 0.000000 0.021907 0.000000
# 6 0.000000 0.000000 0.000000 0.000000 0.000000 0.029824
#
#
# Mechanical properties :
#
#
# Convention : Reuss Voigt Hill
#
# Bulk Modulus (GPa) = 53.25190 56.61378 54.93284
# Shear Modulus (GPa) = 31.30933 34.24930 32.77932
#
# Velocity S-wave (km/s) = 3.64481 3.81210 3.72940
# Velocity P-wave (km/s) = 6.34885 6.58768 6.46937
#
# Compressibility (1/GPa) = 0.01877867
#
# Stress axis : x y z
#
# Youngs Moduli (GPa) = 85.90117 51.12078 102.34575
#
# Poissons Ratio (x) = 0.34716 0.17502
# Poissons Ratio (y) = 0.58335 0.26574
# Poissons Ratio (z) = 0.14690 0.13273
#
# Static dielectric constant tensor:
#      x y z
#    x 4.297920 0.000000 0.000000 
#    y 0.000000 3.933170 0.000000 
#    z 0.000000 0.000000 4.290100 
# 
# 
# High freq. dielectric constant tensor:
#      x y z
#    x 1.929130 0.000000 0.000000 
#    y 0.000000 1.899340 0.000000 
#    z 0.000000 0.000000 1.934860 
# 
# From -- ./inp_files/32450.got.cif
#   From: 2010.03.12/outbox.cif.g09.slc.cpg/sg66_17_cif.got.tgz:32450.got - 2010.04.10 21:57:39.
