data_PCOD8275421
_publ_section_title
;
Structure prediction by ZEFSAII (Michael W. Deem and Ramdas Pophale) SiO2 
 PCOD8275421
Probable space group: C C C M
;
_chemical_formula_sum "Si O2"
_cell_formula_units_Z 96
_cell_length_a 26.468604
_cell_length_b 28.569227
_cell_length_c 8.700070
_cell_angle_alpha 90.000000
_cell_angle_beta 90.000000
_cell_angle_gamma 90.000000
_cell_volume 6578.884671
_symmetry_space_group_name_H-M "C C C M"
_symmetry_group_IT_number 66
_symmetry_cell_setting 'orthorhombic'
loop_
_space_group_symop_operation_xyz
x,y,z
-x,-y,z
x,-y,1/2-z
-x,y,1/2-z
-x,-y,-z
x,y,-z
-x,y,1/2+z
x,-y,1/2+z
1/2+x,1/2+y,z
1/2-x,1/2-y,z
1/2+x,1/2-y,1/2-z
1/2-x,1/2+y,1/2-z
1/2-x,1/2-y,-z
1/2+x,1/2+y,-z
1/2-x,1/2+y,1/2+z
1/2+x,1/2-y,1/2+z
loop_
_atom_site_type_symbol
_atom_site_label
_atom_site_fract_x
_atom_site_fract_y
_atom_site_fract_z
Si Si1 0.263336 0.646545 0.175218
Si Si2 0.201008 0.282386 0.170517
Si Si3 0.207231 0.953708 0.822520
Si Si4 0.901885 0.048738 0.317660
Si Si5 0.947471 0.140590 0.181471
Si Si6 0.142690 0.805073 0.319409
O O1 0.211071 0.672919 0.220041
O O2 0.255602 0.590715 0.196803
O O3 0.309349 0.662594 0.281635
O O4 0.277190 0.658639 0.000000
O O5 0.250000 0.250000 0.170925
O O6 0.154564 0.249317 0.224821
O O7 0.190394 0.301727 0.000000
O O8 0.155386 0.942898 0.735015
O O9 0.233350 0.000000 0.750000
O O10 0.194251 0.963185 0.000000
O O11 0.904895 0.047867 0.500000
O O12 0.936097 0.090406 0.255089
O O13 0.922945 0.000000 0.250000
O O14 0.905384 0.178935 0.222988
O O15 0.000000 0.159233 0.250000
O O16 0.950730 0.135200 0.000000
O O17 0.131722 0.810369 0.500000
#
# Coordination Sequence:
#
# PCOD8275421 Si02
#       6
#    16  16  16  16  16  16
#     4  10  18  27  43  65  87 109 138 172 208 249
#     4   8  16  28  43  63  85 107 134 164 204 252
#     4  10  19  29  42  62  85 112 143 175 210 252
#     4  11  21  34  50  64  80 105 136 176 219 261
#     4  12  24  37  50  65  82 105 138 175 218 264
#     4  10  19  32  47  63  83 108 135 170 212 254
#
# _framework density 14.592138
#
# number of rings (size 3 to 8) (size 9 to 14) (size 15 to 20)
#    0.000    1.833    1.667    6.500    0.000    6.000 
#    0.000    1.667    0.000    0.000    0.000    0.000 
#    0.000    0.000    0.000    0.000    0.000    0.833 
#
# Total GULP energy -595049.604764 kJ/mol
# GULP energy per Si atom -12396.866766 kJ/mol
# Density = 1.455893 g / cm^3
# Si number density = 14.592138 Si / 1000 Ang^3
#
#
#
# Elastic Constant Matrix: (Units=GPa)
#
#
# Indices 1 2 3 4 5 6 
#
# 1 46.9275 44.0714 27.3989 0.0000 0.0000 0.0000
# 2 44.0714 88.1667 44.0881 0.0000 0.0000 0.0000
# 3 27.3989 44.0881 109.7129 0.0000 0.0000 0.0000
# 4 0.0000 0.0000 0.0000 25.6401 0.0000 0.0000
# 5 0.0000 0.0000 0.0000 0.0000 17.6527 0.0000
# 6 0.0000 0.0000 0.0000 0.0000 0.0000 16.4804
#
#
#
# Elastic Compliance Matrix: (Units=1/GPa)
#
#
# Indices 1 2 3 4 5 6 
#
# 1 0.040700 -0.019100 -0.002489 0.000000 0.000000 0.000000
# 2 -0.019100 0.023158 -0.004536 0.000000 0.000000 0.000000
# 3 -0.002489 -0.004536 0.011559 0.000000 0.000000 0.000000
# 4 0.000000 0.000000 0.000000 0.039001 0.000000 0.000000
# 5 0.000000 0.000000 0.000000 0.000000 0.056648 0.000000
# 6 0.000000 0.000000 0.000000 0.000000 0.000000 0.060678
#
#
# Mechanical properties :
#
#
# Convention : Reuss Voigt Hill
#
# Bulk Modulus (GPa) = 43.16439 52.88042 48.02241
# Shear Modulus (GPa) = 17.13988 20.57123 18.85556
#
# Velocity S-wave (km/s) = 3.43096 3.75873 3.59858
# Velocity P-wave (km/s) = 6.73351 7.42665 7.08855
#
# Compressibility (1/GPa) = 0.02316724
#
# Stress axis : x y z
#
# Youngs Moduli (GPa) = 24.56992 43.18182 86.51217
#
# Poissons Ratio (x) = 0.82477 0.21531
# Poissons Ratio (y) = 0.46929 0.39243
# Poissons Ratio (z) = 0.06115 0.19588
#
# Static dielectric constant tensor:
#      x y z
#    x 2.615450 0.000000 0.000000 
#    y 0.000000 3.217810 0.000000 
#    z 0.000000 0.000000 2.999920 
# 
# 
# High freq. dielectric constant tensor:
#      x y z
#    x 1.501010 0.000000 0.000000 
#    y 0.000000 1.553380 0.000000 
#    z 0.000000 0.000000 1.579210 
# 
# From -- ./inp_files/10652.got.cif
#   From: 2010.03.12/outbox.cif.g09.slc.cpg/sg66_6_cif.got.tgz:10652.got - 2010.04.10 21:57:39.
