data_PCOD8275352
_publ_section_title
;
Structure prediction by ZEFSAII (Michael W. Deem and Ramdas Pophale) SiO2 
 PCOD8275352
Probable space group: C C C M
;
_chemical_formula_sum "Si O2"
_cell_formula_units_Z 96
_cell_length_a 9.467087
_cell_length_b 24.520617
_cell_length_c 22.669394
_cell_angle_alpha 90.000000
_cell_angle_beta 90.000000
_cell_angle_gamma 90.000000
_cell_volume 5262.446247
_symmetry_space_group_name_H-M "C C C M"
_symmetry_group_IT_number 66
_symmetry_cell_setting 'orthorhombic'
loop_
_space_group_symop_operation_xyz
x,y,z
-x,-y,z
x,-y,1/2-z
-x,y,1/2-z
-x,-y,-z
x,y,-z
-x,y,1/2+z
x,-y,1/2+z
1/2+x,1/2+y,z
1/2-x,1/2-y,z
1/2+x,1/2-y,1/2-z
1/2-x,1/2+y,1/2-z
1/2-x,1/2-y,-z
1/2+x,1/2+y,-z
1/2-x,1/2+y,1/2+z
1/2+x,1/2-y,1/2+z
loop_
_atom_site_type_symbol
_atom_site_label
_atom_site_fract_x
_atom_site_fract_y
_atom_site_fract_z
Si Si1 0.042323 0.879029 0.122382
Si Si2 0.403048 0.577519 0.000000
Si Si3 0.686089 0.531392 0.695270
Si Si4 0.251584 0.928316 0.621929
Si Si5 0.139375 0.202242 0.285470
Si Si6 0.348493 0.116199 0.763582
Si Si7 0.275881 0.464176 0.000000
O O1 0.076008 0.926436 0.168926
O O2 0.091053 0.821829 0.151106
O O3 0.875116 0.884724 0.115463
O O4 0.119604 0.886063 0.059052
O O5 0.284193 0.530036 0.000000
O O6 0.561084 0.554221 0.000000
O O7 0.614230 0.500000 0.750000
O O8 0.716049 0.489018 0.643597
O O9 0.823691 0.563499 0.721291
O O10 0.359895 0.901250 0.667645
O O11 0.309484 0.939664 0.556032
O O12 0.250000 0.250000 0.298507
O O13 0.219830 0.157775 0.245477
O O14 0.000000 0.222121 0.250000
O O15 0.500000 0.143106 0.750000
#
# Coordination Sequence:
#
# PCOD8275352 Si02
#       7
#    16   8  16  16  16  16   8
#     4  10  18  31  49  82 112 148 186 232 281 327
#     4   9  16  28  49  77 122 153 192 222 268 324
#     4   9  18  25  45  73 111 151 183 223 266 326
#     4  10  17  29  49  77 116 150 189 221 265 328
#     4  11  22  39  60  84 106 138 183 244 303 345
#     4  10  21  35  51  77 113 152 184 227 282 338
#     4   9  16  26  46  82 113 162 188 225 259 316
#
# _framework density 18.242467000000001
#
# number of rings (size 3 to 8) (size 9 to 14) (size 15 to 20)
#    0.000    2.167    3.333    1.000    0.000    5.000 
#    0.000    0.417    0.000    6.000    0.000    4.667 
#    0.000    0.000    0.000    0.000    0.000    0.000 
#
# Total GULP energy -594678.976329 kJ/mol
# GULP energy per Si atom -12389.145340 kJ/mol
# Density = 1.820095 g / cm^3
# Si number density = 18.242467 Si / 1000 Ang^3
#
#
#
# Elastic Constant Matrix: (Units=GPa)
#
#
# Indices 1 2 3 4 5 6 
#
# 1 66.9937 20.6207 25.1061 0.0000 0.0000 0.0000
# 2 20.6207 76.4150 38.5441 0.0000 0.0000 0.0000
# 3 25.1061 38.5441 144.1564 0.0000 0.0000 0.0000
# 4 0.0000 0.0000 0.0000 19.6016 0.0000 0.0000
# 5 0.0000 0.0000 0.0000 0.0000 14.1153 0.0000
# 6 0.0000 0.0000 0.0000 0.0000 0.0000 21.8692
#
#
#
# Elastic Compliance Matrix: (Units=1/GPa)
#
#
# Indices 1 2 3 4 5 6 
#
# 1 0.016752 -0.003524 -0.001975 0.000000 0.000000 0.000000
# 2 -0.003524 0.015868 -0.003629 0.000000 0.000000 0.000000
# 3 -0.001975 -0.003629 0.008251 0.000000 0.000000 0.000000
# 4 0.000000 0.000000 0.000000 0.051016 0.000000 0.000000
# 5 0.000000 0.000000 0.000000 0.000000 0.070845 0.000000
# 6 0.000000 0.000000 0.000000 0.000000 0.000000 0.045726
#
#
# Mechanical properties :
#
#
# Convention : Reuss Voigt Hill
#
# Bulk Modulus (GPa) = 44.21997 50.67853 47.44925
# Shear Modulus (GPa) = 21.34440 24.67017 23.00729
#
# Velocity S-wave (km/s) = 3.42429 3.68142 3.55518
# Velocity P-wave (km/s) = 6.31879 6.77579 6.55128
#
# Compressibility (1/GPa) = 0.02261422
#
# Stress axis : x y z
#
# Youngs Moduli (GPa) = 59.69539 63.02036 121.19459
#
# Poissons Ratio (x) = 0.22210 0.23938
# Poissons Ratio (y) = 0.21038 0.43981
# Poissons Ratio (z) = 0.11791 0.22870
#
# Static dielectric constant tensor:
#      x y z
#    x 2.991230 0.000000 0.000000 
#    y 0.000000 3.213930 0.000000 
#    z 0.000000 0.000000 3.647440 
# 
# 
# High freq. dielectric constant tensor:
#      x y z
#    x 1.672170 0.000000 0.000000 
#    y 0.000000 1.678520 0.000000 
#    z 0.000000 0.000000 1.714470 
# 
# From -- ./inp_files/55673.got.cif
#   From: 2010.03.12/outbox.cif.g09.slc.cpg/sg66_28_cif.got.tgz:55673.got - 2010.04.10 21:57:39.
