data_PCOD8275103
_publ_section_title
;
Structure prediction by ZEFSAII (Michael W. Deem and Ramdas Pophale) SiO2 
 PCOD8275103
Probable space group: C M M M
;
_chemical_formula_sum "Si O2"
_cell_formula_units_Z 64
_cell_length_a 7.632053
_cell_length_b 28.936037
_cell_length_c 17.384528
_cell_angle_alpha 90.000000
_cell_angle_beta 90.000000
_cell_angle_gamma 90.000000
_cell_volume 3839.222945
_symmetry_space_group_name_H-M "C M M M"
_symmetry_group_IT_number 65
_symmetry_cell_setting 'orthorhombic'
loop_
_space_group_symop_operation_xyz
x,y,z
-x,-y,z
x,-y,-z
-x,y,-z
-x,-y,-z
x,y,-z
-x,y,z
x,-y,z
1/2+x,1/2+y,z
1/2-x,1/2-y,z
1/2+x,1/2-y,-z
1/2-x,1/2+y,-z
1/2-x,1/2-y,-z
1/2+x,1/2+y,-z
1/2-x,1/2+y,z
1/2+x,1/2-y,z
loop_
_atom_site_type_symbol
_atom_site_label
_atom_site_fract_x
_atom_site_fract_y
_atom_site_fract_z
Si Si1 0.205027 0.299668 0.585982
Si Si2 0.791010 0.448202 0.500000
Si Si3 0.202482 0.445868 0.200477
Si Si4 0.000000 0.945482 0.914850
Si Si5 0.707939 0.105625 0.647875
O O1 0.288702 0.302370 0.500000
O O2 0.250000 0.250000 0.623972
O O3 0.276915 0.341356 0.639452
O O4 0.000000 0.306200 0.578362
O O5 0.717839 0.500000 0.500000
O O6 0.717231 0.422825 0.575572
O O7 0.000000 0.447464 0.500000
O O8 0.225283 0.500000 0.219614
O O9 0.323064 0.430150 0.129177
O O10 0.274623 0.416971 0.273199
O O11 0.000000 0.434548 0.180539
O O12 0.000000 0.000000 0.922843
O O13 0.000000 0.922768 0.000000
O O14 0.500000 0.103010 0.647647
#
# Coordination Sequence:
#
# PCOD8275103 Si02
#       5
#    16   8  16   8  16
#     4   9  16  27  41  57  81 113 151 190 228 264
#     4   9  14  20  35  59  83 113 156 189 212 256
#     4   9  17  29  46  68  93 122 152 185 226 270
#     4   9  18  32  48  67  93 123 151 182 224 274
#     4   9  15  25  40  60  86 118 151 188 227 260
#
# _framework density 16.670038999999999
#
# number of rings (size 3 to 8) (size 9 to 14) (size 15 to 20)
#    0.000    3.000    1.250    0.750    0.000    3.500 
#    2.250    2.500    0.000    0.750    0.000    3.500 
#    0.000    1.000    0.500    0.000    0.000    0.000 
#
# Total GULP energy -396579.975964 kJ/mol
# GULP energy per Si atom -12393.124249 kJ/mol
# Density = 1.663210 g / cm^3
# Si number density = 16.670039 Si / 1000 Ang^3
#
#
#
# Elastic Constant Matrix: (Units=GPa)
#
#
# Indices 1 2 3 4 5 6 
#
# 1 49.4793 17.7802 40.4223 0.0000 0.0000 0.0000
# 2 17.7802 116.2659 60.0921 0.0000 0.0000 0.0000
# 3 40.4223 60.0921 140.2058 0.0000 0.0000 0.0000
# 4 0.0000 0.0000 0.0000 6.6934 0.0000 0.0000
# 5 0.0000 0.0000 0.0000 0.0000 2.4787 0.0000
# 6 0.0000 0.0000 0.0000 0.0000 0.0000 14.1223
#
#
#
# Elastic Compliance Matrix: (Units=1/GPa)
#
#
# Indices 1 2 3 4 5 6 
#
# 1 0.026439 -0.000133 -0.007566 0.000000 0.000000 0.000000
# 2 -0.000133 0.011049 -0.004697 0.000000 0.000000 0.000000
# 3 -0.007566 -0.004697 0.011327 0.000000 0.000000 0.000000
# 4 0.000000 0.000000 0.000000 0.149400 0.000000 0.000000
# 5 0.000000 0.000000 0.000000 0.000000 0.403438 0.000000
# 6 0.000000 0.000000 0.000000 0.000000 0.000000 0.070810
#
#
# Mechanical properties :
#
#
# Convention : Reuss Voigt Hill
#
# Bulk Modulus (GPa) = 41.62632 60.28225 50.95428
# Shear Modulus (GPa) = 7.08957 17.16932 12.12944
#
# Velocity S-wave (km/s) = 2.06449 3.21277 2.70037
# Velocity P-wave (km/s) = 5.54146 7.07128 6.35259
#
# Compressibility (1/GPa) = 0.02402326
#
# Stress axis : x y z
#
# Youngs Moduli (GPa) = 37.82300 90.50494 88.28591
#
# Poissons Ratio (x) = 0.01203 0.66793
# Poissons Ratio (y) = 0.00503 0.41471
# Poissons Ratio (z) = 0.28615 0.42513
#
# Static dielectric constant tensor:
#      x y z
#    x 2.927780 0.000000 0.000000 
#    y 0.000000 3.291870 0.000000 
#    z 0.000000 0.000000 3.178770 
# 
# 
# High freq. dielectric constant tensor:
#      x y z
#    x 1.631650 0.000000 0.000000 
#    y 0.000000 1.625900 0.000000 
#    z 0.000000 0.000000 1.608540 
# 
# From -- ./inp_files/36833.got.cif
#   From: 2010.03.12/outbox.cif.g09.slc.cpg/sg65_19_cif.got.tgz:36833.got - 2010.04.10 20:52:16.
