data_PCOD8275830
_publ_section_title
;
Structure prediction by ZEFSAII (Michael W. Deem and Ramdas Pophale) SiO2 
 PCOD8275830
Probable space group: C C C M
;
_chemical_formula_sum "Si O2"
_cell_formula_units_Z 112
_cell_length_a 25.659112
_cell_length_b 12.239579
_cell_length_c 20.074351
_cell_angle_alpha 90.000000
_cell_angle_beta 90.000000
_cell_angle_gamma 90.000000
_cell_volume 6304.485000
_symmetry_space_group_name_H-M "C C C M"
_symmetry_group_IT_number 66
_symmetry_cell_setting 'orthorhombic'
loop_
_space_group_symop_operation_xyz
x,y,z
-x,-y,z
x,-y,1/2-z
-x,y,1/2-z
-x,-y,-z
x,y,-z
-x,y,1/2+z
x,-y,1/2+z
1/2+x,1/2+y,z
1/2-x,1/2-y,z
1/2+x,1/2-y,1/2-z
1/2-x,1/2+y,1/2-z
1/2-x,1/2-y,-z
1/2+x,1/2+y,-z
1/2-x,1/2+y,1/2+z
1/2+x,1/2-y,1/2+z
loop_
_atom_site_type_symbol
_atom_site_label
_atom_site_fract_x
_atom_site_fract_y
_atom_site_fract_z
Si Si1 0.271742 0.089062 0.426502
Si Si2 0.153389 0.883158 0.923828
Si Si3 0.343490 0.437964 0.817497
Si Si4 0.441262 0.986278 0.328726
Si Si5 0.132993 0.327346 0.351728
Si Si6 0.763846 0.368508 0.635713
Si Si7 0.870145 0.700390 0.195952
O O1 0.293746 0.119101 0.500000
O O2 0.215031 0.143778 0.417095
O O3 0.308994 0.131137 0.368275
O O4 0.267936 0.956997 0.423145
O O5 0.121130 0.779529 0.896251
O O6 0.139982 0.989471 0.880581
O O7 0.137564 0.906617 0.000000
O O8 0.359029 0.500000 0.750000
O O9 0.282032 0.408714 0.814548
O O10 0.375033 0.325313 0.827469
O O11 0.417383 0.865166 0.340213
O O12 0.500000 0.000000 0.354994
O O13 0.437476 0.000000 0.250000
O O14 0.408090 0.077054 0.368494
O O15 0.127746 0.296372 0.275290
O O16 0.750000 0.250000 0.604334
O O17 0.816871 0.360989 0.677193
#
# Coordination Sequence:
#
# PCOD8275830 Si02
#       7
#    16  16  16  16  16  16  16
#     4  10  20  31  45  70 106 144 180 210 251 312
#     4  10  21  34  49  76 111 147 176 207 257 315
#     4  10  19  31  50  77 108 140 174 216 250 307
#     4   9  19  34  54  80 104 130 167 222 278 317
#     4  11  19  30  53  74 103 136 173 219 261 313
#     4   9  19  29  45  72 103 138 175 211 257 304
#     4  10  19  32  51  78 103 135 176 218 266 308
#
# _framework density 17.765129999999999
#
# number of rings (size 3 to 8) (size 9 to 14) (size 15 to 20)
#    0.000    2.143    2.857    0.857    4.000    2.571 
#    0.000    2.143    0.000    2.571    0.000    1.000 
#    0.000    0.000    0.000    0.000    0.000    0.000 
#
# Total GULP energy -694180.376094 kJ/mol
# GULP energy per Si atom -12396.078145 kJ/mol
# Density = 1.772470 g / cm^3
# Si number density = 17.765130 Si / 1000 Ang^3
#
#
#
# Elastic Constant Matrix: (Units=GPa)
#
#
# Indices 1 2 3 4 5 6 
#
# 1 69.0300 56.1417 29.1380 0.0000 0.0000 0.0000
# 2 56.1417 137.2382 46.2177 0.0000 0.0000 0.0000
# 3 29.1380 46.2177 81.0407 0.0000 0.0000 0.0000
# 4 0.0000 0.0000 0.0000 21.9749 0.0000 0.0000
# 5 0.0000 0.0000 0.0000 0.0000 10.2386 0.0000
# 6 0.0000 0.0000 0.0000 0.0000 0.0000 20.6116
#
#
#
# Elastic Compliance Matrix: (Units=1/GPa)
#
#
# Indices 1 2 3 4 5 6 
#
# 1 0.022490 -0.008017 -0.003514 0.000000 0.000000 0.000000
# 2 -0.008017 0.011876 -0.003891 0.000000 0.000000 0.000000
# 3 -0.003514 -0.003891 0.015822 0.000000 0.000000 0.000000
# 4 0.000000 0.000000 0.000000 0.045506 0.000000 0.000000
# 5 0.000000 0.000000 0.000000 0.000000 0.097670 0.000000
# 6 0.000000 0.000000 0.000000 0.000000 0.000000 0.048516
#
#
# Mechanical properties :
#
#
# Convention : Reuss Voigt Hill
#
# Bulk Modulus (GPa) = 51.69357 61.14486 56.41922
# Shear Modulus (GPa) = 17.91008 20.95245 19.43127
#
# Velocity S-wave (km/s) = 3.17860 3.43799 3.31083
# Velocity P-wave (km/s) = 6.52938 7.08892 6.81490
#
# Compressibility (1/GPa) = 0.01934476
#
# Stress axis : x y z
#
# Youngs Moduli (GPa) = 44.46468 84.20079 63.20355
#
# Poissons Ratio (x) = 0.67501 0.22211
# Poissons Ratio (y) = 0.35646 0.24591
# Poissons Ratio (z) = 0.15626 0.32760
#
# Static dielectric constant tensor:
#      x y z
#    x 3.059830 0.000000 0.000000 
#    y 0.000000 3.629320 0.000000 
#    z 0.000000 0.000000 3.027160 
# 
# 
# High freq. dielectric constant tensor:
#      x y z
#    x 1.639030 0.000000 0.000000 
#    y 0.000000 1.711900 0.000000 
#    z 0.000000 0.000000 1.664110 
# 
# From -- ./inp_files/52576.got.cif
#   From: 2010.03.12/outbox.cif.g09.slc.cpg/sg66_27_cif.got.tgz:52576.got - 2010.04.10 21:57:39.
