data_PCOD8275195
_publ_section_title
;
Structure prediction by ZEFSAII (Michael W. Deem and Ramdas Pophale) SiO2 
 PCOD8275195
Probable space group: C M M M
;
_chemical_formula_sum "Si O2"
_cell_formula_units_Z 60
_cell_length_a 27.000000
_cell_length_b 9.000000
_cell_length_c 27.000000
_cell_angle_alpha 90.000000
_cell_angle_beta 90.000000
_cell_angle_gamma 90.000000
_cell_volume 6561.000000
_symmetry_space_group_name_H-M "C M M M"
_symmetry_group_IT_number 65
_symmetry_cell_setting 'orthorhombic'
loop_
_space_group_symop_operation_xyz
x,y,z
-x,-y,z
x,-y,-z
-x,y,-z
-x,-y,-z
x,y,-z
-x,y,z
x,-y,z
1/2+x,1/2+y,z
1/2-x,1/2-y,z
1/2+x,1/2-y,-z
1/2-x,1/2+y,-z
1/2-x,1/2-y,-z
1/2+x,1/2+y,-z
1/2-x,1/2+y,z
1/2+x,1/2-y,z
loop_
_atom_site_type_symbol
_atom_site_label
_atom_site_fract_x
_atom_site_fract_y
_atom_site_fract_z
Si Si1 0.698263 0.827609 0.500000
Si Si2 0.058436 0.169070 0.245007
Si Si3 0.200984 0.171742 0.103490
Si Si4 0.557707 0.835645 0.852192
Si Si5 0.196794 0.674783 0.392458
Si Si6 0.634956 0.823975 0.701577
Si Si7 0.300749 0.324193 0.215696
Si Si8 0.900456 0.173827 0.056133
O O1 0.750000 0.750000 0.500000
O O2 0.672593 0.785357 0.552937
O O3 0.709201 0.000000 0.500000
O O4 0.078617 0.235499 0.192727
O O5 0.078746 0.264260 0.292305
O O6 0.000000 0.176723 0.248763
O O7 0.077685 0.000000 0.247378
O O8 0.250000 0.250000 0.083325
O O9 0.186789 0.223079 0.159186
O O10 0.156692 0.212795 0.066682
O O11 0.213278 0.000000 0.103587
O O12 0.500000 0.852343 0.843953
O O13 0.565669 0.762036 0.905679
O O14 0.582367 0.000000 0.850563
O O15 0.205560 0.500000 0.387376
O O16 0.250000 0.750000 0.384529
O O17 0.158631 0.729940 0.350413
O O18 0.658808 0.742130 0.748190
O O19 0.637960 0.000000 0.706846
O O20 0.296999 0.500000 0.222227
O O21 0.250000 0.250000 0.232946
O O22 0.910485 0.000000 0.064016
O O23 0.913350 0.222087 0.000000
#
# Coordination Sequence:
#
# PCOD8275195 Si02
#       8
#     8  16  16  16  16  16  16  16
#     4   8  14  28  46  64  93 134 177 215 248 283
#     4  10  21  37  56  76  98 127 162 198 242 299
#     4   9  19  34  50  68  91 122 161 199 234 277
#     4  10  21  37  57  79 101 125 155 195 243 295
#     4   9  18  30  46  70 101 138 176 212 248 288
#     4  11  21  31  47  74 104 132 164 204 251 297
#     4  10  19  31  47  68  97 132 167 203 244 292
#     4  10  21  36  53  74 100 129 162 199 239 287
#
# _framework density 9.1449470000000002
#
# number of rings (size 3 to 8) (size 9 to 14) (size 15 to 20)
#    0.000    2.267    0.000    2.800    0.000    6.667 
#    0.000    1.333    0.000    0.000    0.000    0.467 
#    0.000    3.733    0.000    0.000    0.000    0.000 
#
# Total GULP energy -743627.951205 kJ/mol
# GULP energy per Si atom -12393.799187 kJ/mol
# Density = 0.912413 g / cm^3
# Si number density = 9.144947 Si / 1000 Ang^3
#
#
#
# Elastic Constant Matrix: (Units=GPa)
#
#
# Indices 1 2 3 4 5 6 
#
# 1 32.0755 24.4596 36.1740 0.0000 0.0000 0.0000
# 2 24.4596 71.0224 48.9469 0.0000 0.0000 0.0000
# 3 36.1740 48.9469 133.9697 0.0000 0.0000 0.0000
# 4 0.0000 0.0000 0.0000 23.2643 0.0000 0.0000
# 5 0.0000 0.0000 0.0000 0.0000 26.0783 0.0000
# 6 0.0000 0.0000 0.0000 0.0000 0.0000 27.8374
#
#
#
# Elastic Compliance Matrix: (Units=1/GPa)
#
#
# Indices 1 2 3 4 5 6 
#
# 1 0.050178 -0.010616 -0.009670 0.000000 0.000000 0.000000
# 2 -0.010616 0.021065 -0.004830 0.000000 0.000000 0.000000
# 3 -0.009670 -0.004830 0.011840 0.000000 0.000000 0.000000
# 4 0.000000 0.000000 0.000000 0.042984 0.000000 0.000000
# 5 0.000000 0.000000 0.000000 0.000000 0.038346 0.000000
# 6 0.000000 0.000000 0.000000 0.000000 0.000000 0.035923
#
#
# Mechanical properties :
#
#
# Convention : Reuss Voigt Hill
#
# Bulk Modulus (GPa) = 30.44110 50.69207 40.56659
# Shear Modulus (GPa) = 19.11917 23.93515 21.52716
#
# Velocity S-wave (km/s) = 3.23668 3.62146 3.43446
# Velocity P-wave (km/s) = 5.53606 6.72775 6.16079
#
# Compressibility (1/GPa) = 0.03285032
#
# Stress axis : x y z
#
# Youngs Moduli (GPa) = 19.92919 47.47284 84.46002
#
# Poissons Ratio (x) = 0.50399 0.81673
# Poissons Ratio (y) = 0.21158 0.40790
# Poissons Ratio (z) = 0.19271 0.22927
#
# Static dielectric constant tensor:
#      x y z
#    x 3.074170 0.000000 0.000000 
#    y 0.000000 3.210550 0.000000 
#    z 0.000000 0.000000 3.733240 
# 
# 
# High freq. dielectric constant tensor:
#      x y z
#    x 1.688290 0.000000 0.000000 
#    y 0.000000 1.714420 0.000000 
#    z 0.000000 0.000000 1.704730 
# 
# From -- ./inp_files/76189.got.cif
#   From: 2010.03.12/outbox.ucp.g09.slc.cvg/sg65_39_cif.got.tgz:76189.got - 2010.05.04 19:44:54.
