data_PCOD8275005
_publ_section_title
;
Structure prediction by ZEFSAII (Michael W. Deem and Ramdas Pophale) SiO2 
 PCOD8275005
Probable space group: C M M M
;
_chemical_formula_sum "Si O2"
_cell_formula_units_Z 80
_cell_length_a 34.290489
_cell_length_b 14.349667
_cell_length_c 9.211578
_cell_angle_alpha 90.000000
_cell_angle_beta 90.000000
_cell_angle_gamma 90.000000
_cell_volume 4532.622343
_symmetry_space_group_name_H-M "C M M M"
_symmetry_group_IT_number 65
_symmetry_cell_setting 'orthorhombic'
loop_
_space_group_symop_operation_xyz
x,y,z
-x,-y,z
x,-y,-z
-x,y,-z
-x,-y,-z
x,y,-z
-x,y,z
x,-y,z
1/2+x,1/2+y,z
1/2-x,1/2-y,z
1/2+x,1/2-y,-z
1/2-x,1/2+y,-z
1/2-x,1/2-y,-z
1/2+x,1/2+y,-z
1/2-x,1/2+y,z
1/2+x,1/2-y,z
loop_
_atom_site_type_symbol
_atom_site_label
_atom_site_fract_x
_atom_site_fract_y
_atom_site_fract_z
Si Si1 0.884004 0.214129 0.829638
Si Si2 0.656208 0.104532 0.169407
Si Si3 0.456997 0.605324 0.827320
Si Si4 0.692033 0.390355 0.831832
Si Si5 0.767246 0.610713 0.663516
O O1 0.879307 0.324546 0.795339
O O2 0.924233 0.174839 0.760554
O O3 0.846742 0.158254 0.768442
O O4 0.885718 0.195372 0.000000
O O5 0.694068 0.142733 0.252395
O O6 0.644038 0.000000 0.218655
O O7 0.666727 0.106275 0.000000
O O8 0.500000 0.634427 0.768943
O O9 0.447140 0.500000 0.777961
O O10 0.457252 0.610728 0.000000
O O11 0.687087 0.500000 0.808559
O O12 0.728856 0.349594 0.742957
O O13 0.698849 0.365575 0.000000
O O14 0.768577 0.649658 0.500000
O O15 0.765453 0.500000 0.666042
#
# Coordination Sequence:
#
# PCOD8275005 Si02
#       5
#    16  16  16  16  16
#     4   9  16  25  39  59  81 107 139 171 202 241
#     4   9  17  29  43  57  77 109 146 177 203 235
#     4   8  13  22  38  61  88 113 133 158 199 249
#     4   9  16  26  41  60  82 107 135 169 208 248
#     4   9  17  29  43  58  80 110 141 174 211 246
#
# _framework density 17.649827999999999
#
# number of rings (size 3 to 8) (size 9 to 14) (size 15 to 20)
#    0.000    3.200    0.000    1.800    0.000    5.600 
#    0.000    5.000    0.000    0.600    0.000    4.200 
#    0.000    3.200    0.000   19.200    0.000   18.400 
#
# Total GULP energy -495751.929836 kJ/mol
# GULP energy per Si atom -12393.798246 kJ/mol
# Density = 1.760966 g / cm^3
# Si number density = 17.649828 Si / 1000 Ang^3
#
#
#
# Elastic Constant Matrix: (Units=GPa)
#
#
# Indices 1 2 3 4 5 6 
#
# 1 157.0290 78.0229 30.7962 0.0000 0.0000 0.0000
# 2 78.0229 83.8660 18.7554 0.0000 0.0000 0.0000
# 3 30.7962 18.7554 39.7977 0.0000 0.0000 0.0000
# 4 0.0000 0.0000 0.0000 6.2869 0.0000 0.0000
# 5 0.0000 0.0000 0.0000 0.0000 2.0423 0.0000
# 6 0.0000 0.0000 0.0000 0.0000 0.0000 30.4901
#
#
#
# Elastic Compliance Matrix: (Units=1/GPa)
#
#
# Indices 1 2 3 4 5 6 
#
# 1 0.012588 -0.010656 -0.004719 0.000000 0.000000 0.000000
# 2 -0.010656 0.022349 -0.002286 0.000000 0.000000 0.000000
# 3 -0.004719 -0.002286 0.029857 0.000000 0.000000 0.000000
# 4 0.000000 0.000000 0.000000 0.159061 0.000000 0.000000
# 5 0.000000 0.000000 0.000000 0.000000 0.489634 0.000000
# 6 0.000000 0.000000 0.000000 0.000000 0.000000 0.032798
#
#
# Mechanical properties :
#
#
# Convention : Reuss Voigt Hill
#
# Bulk Modulus (GPa) = 33.93268 59.53798 46.73533
# Shear Modulus (GPa) = 6.31765 17.97175 12.14470
#
# Velocity S-wave (km/s) = 1.89399 3.19445 2.62600
# Velocity P-wave (km/s) = 4.90410 6.88565 5.97755
#
# Compressibility (1/GPa) = 0.02947011
#
# Stress axis : x y z
#
# Youngs Moduli (GPa) = 79.43820 44.74552 33.49351
#
# Poissons Ratio (x) = 0.47680 0.15807
# Poissons Ratio (y) = 0.84649 0.07658
# Poissons Ratio (z) = 0.37490 0.10231
#
# Static dielectric constant tensor:
#      x y z
#    x 3.542800 0.000000 0.000000 
#    y 0.000000 3.315740 0.000000 
#    z 0.000000 0.000000 2.920680 
# 
# 
# High freq. dielectric constant tensor:
#      x y z
#    x 1.669500 0.000000 0.000000 
#    y 0.000000 1.682330 0.000000 
#    z 0.000000 0.000000 1.632120 
# 
# From -- ./inp_files/32116.got.cif
#   From: 2010.03.12/outbox.cif.g09.slc.cpg/sg65_17_cif.got.tgz:32116.got - 2010.04.10 20:52:16.
