data_PCOD8275395
_publ_section_title
;
Structure prediction by ZEFSAII (Michael W. Deem and Ramdas Pophale) SiO2 
 PCOD8275395
Probable space group: C C C M
;
_chemical_formula_sum "Si O2"
_cell_formula_units_Z 88
_cell_length_a 16.756975
_cell_length_b 13.569434
_cell_length_c 20.926358
_cell_angle_alpha 90.000000
_cell_angle_beta 90.000000
_cell_angle_gamma 90.000000
_cell_volume 4758.291078
_symmetry_space_group_name_H-M "C C C M"
_symmetry_group_IT_number 66
_symmetry_cell_setting 'orthorhombic'
loop_
_space_group_symop_operation_xyz
x,y,z
-x,-y,z
x,-y,1/2-z
-x,y,1/2-z
-x,-y,-z
x,y,-z
-x,y,1/2+z
x,-y,1/2+z
1/2+x,1/2+y,z
1/2-x,1/2-y,z
1/2+x,1/2-y,1/2-z
1/2-x,1/2+y,1/2-z
1/2-x,1/2-y,-z
1/2+x,1/2+y,-z
1/2-x,1/2+y,1/2+z
1/2+x,1/2-y,1/2+z
loop_
_atom_site_type_symbol
_atom_site_label
_atom_site_fract_x
_atom_site_fract_y
_atom_site_fract_z
Si Si1 0.257930 0.088273 0.801214
Si Si2 0.500000 0.000000 0.131619
Si Si3 0.377273 0.735445 0.712105
Si Si4 0.336075 0.020166 0.071069
Si Si5 0.533846 0.788261 0.336201
Si Si6 0.169545 0.710481 0.070525
O O1 0.319276 0.172035 0.781227
O O2 0.168830 0.133059 0.799116
O O3 0.265928 0.000000 0.750000
O O4 0.276113 0.059891 0.874633
O O5 0.428432 0.042309 0.087931
O O6 0.468037 0.908014 0.174050
O O7 0.442665 0.749795 0.655369
O O8 0.426367 0.733123 0.777170
O O9 0.322436 0.905169 0.067992
O O10 0.318036 0.065472 0.000000
O O11 0.587349 0.757437 0.396283
O O12 0.250000 0.750000 0.105889
O O13 0.165541 0.757531 0.000000
#
# Coordination Sequence:
#
# PCOD8275395 Si02
#       6
#    16   8  16  16  16  16
#     4  11  22  39  58  81 113 156 188 234 285 340
#     4  10  17  33  58  84 115 144 175 232 311 332
#     4  10  23  36  55  84 113 143 199 227 281 343
#     4  10  20  34  56  86 116 147 186 232 285 349
#     4  10  20  35  55  82 115 142 182 241 280 343
#     4   9  19  34  57  86 111 144 186 231 283 335
#
# _framework density 18.494035
#
# number of rings (size 3 to 8) (size 9 to 14) (size 15 to 20)
#    0.000    2.000    1.818    2.455    5.091    1.455 
#    0.000    4.545    0.000    0.000    0.000    3.818 
#    0.000    0.000    0.000    0.000    0.000    0.000 
#
# Total GULP energy -545199.718542 kJ/mol
# GULP energy per Si atom -12390.902694 kJ/mol
# Density = 1.845194 g / cm^3
# Si number density = 18.494035 Si / 1000 Ang^3
#
#
#
# Elastic Constant Matrix: (Units=GPa)
#
#
# Indices 1 2 3 4 5 6 
#
# 1 139.9666 47.5868 53.0304 0.0000 0.0000 0.0000
# 2 47.5868 50.0202 40.2189 0.0000 0.0000 0.0000
# 3 53.0304 40.2189 103.6017 0.0000 0.0000 0.0000
# 4 0.0000 0.0000 0.0000 13.0384 0.0000 0.0000
# 5 0.0000 0.0000 0.0000 0.0000 26.1035 0.0000
# 6 0.0000 0.0000 0.0000 0.0000 0.0000 34.8179
#
#
#
# Elastic Compliance Matrix: (Units=1/GPa)
#
#
# Indices 1 2 3 4 5 6 
#
# 1 0.010913 -0.008564 -0.002262 0.000000 0.000000 0.000000
# 2 -0.008564 0.035784 -0.009508 0.000000 0.000000 0.000000
# 3 -0.002262 -0.009508 0.014501 0.000000 0.000000 0.000000
# 4 0.000000 0.000000 0.000000 0.076696 0.000000 0.000000
# 5 0.000000 0.000000 0.000000 0.000000 0.038309 0.000000
# 6 0.000000 0.000000 0.000000 0.000000 0.000000 0.028721
#
#
# Mechanical properties :
#
#
# Convention : Reuss Voigt Hill
#
# Bulk Modulus (GPa) = 48.70587 63.91787 56.31187
# Shear Modulus (GPa) = 19.80710 24.97545 22.39128
#
# Velocity S-wave (km/s) = 3.27616 3.67885 3.48333
# Velocity P-wave (km/s) = 6.37998 7.25821 6.83322
#
# Compressibility (1/GPa) = 0.02053141
#
# Stress axis : x y z
#
# Youngs Moduli (GPa) = 91.63429 27.94540 68.96036
#
# Poissons Ratio (x) = 0.23932 0.15595
# Poissons Ratio (y) = 0.78473 0.65569
# Poissons Ratio (z) = 0.20723 0.26571
#
# Static dielectric constant tensor:
#      x y z
#    x 3.968940 0.000000 0.000000 
#    y 0.000000 3.261000 0.000000 
#    z 0.000000 0.000000 3.674880 
# 
# 
# High freq. dielectric constant tensor:
#      x y z
#    x 1.729510 0.000000 0.000000 
#    y 0.000000 1.686780 0.000000 
#    z 0.000000 0.000000 1.709140 
# 
# From -- ./inp_files/50945.got.cif
#   From: 2010.03.12/outbox.cif.g09.slc.cpg/sg66_26_cif.got.tgz:50945.got - 2010.04.10 21:57:39.
