data_PCOD8275207
_publ_section_title
;
Structure prediction by ZEFSAII (Michael W. Deem and Ramdas Pophale) SiO2 
 PCOD8275207
Probable space group: C M M M
;
_chemical_formula_sum "Si O2"
_cell_formula_units_Z 32
_cell_length_a 9.000000
_cell_length_b 15.000000
_cell_length_c 24.000000
_cell_angle_alpha 90.000000
_cell_angle_beta 90.000000
_cell_angle_gamma 90.000000
_cell_volume 3240.000000
_symmetry_space_group_name_H-M "C M M M"
_symmetry_group_IT_number 65
_symmetry_cell_setting 'orthorhombic'
loop_
_space_group_symop_operation_xyz
x,y,z
-x,-y,z
x,-y,-z
-x,y,-z
-x,-y,-z
x,y,-z
-x,y,z
x,-y,z
1/2+x,1/2+y,z
1/2-x,1/2-y,z
1/2+x,1/2-y,-z
1/2-x,1/2+y,-z
1/2-x,1/2-y,-z
1/2+x,1/2+y,-z
1/2-x,1/2+y,z
1/2+x,1/2-y,z
loop_
_atom_site_type_symbol
_atom_site_label
_atom_site_fract_x
_atom_site_fract_y
_atom_site_fract_z
Si Si1 0.666822 0.101162 0.380039
Si Si2 0.180283 0.500000 0.921667
Si Si3 0.173850 0.000000 0.196484
Si Si4 0.826845 0.163930 0.725621
Si Si5 0.675322 0.843941 0.500000
Si Si6 0.183272 0.147508 0.000000
O O1 0.500000 0.140814 0.376085
O O2 0.771874 0.153562 0.337881
O O3 0.726923 0.106039 0.443655
O O4 0.668014 0.000000 0.360515
O O5 0.220082 0.500000 0.856865
O O6 0.253852 0.409561 0.947405
O O7 0.000000 0.500000 0.930365
O O8 0.216391 0.916150 0.234078
O O9 0.000000 0.000000 0.179163
O O10 0.750000 0.250000 0.752617
O O11 0.000000 0.178940 0.722856
O O12 0.500000 0.834795 0.500000
O O13 0.750000 0.750000 0.500000
O O14 0.250000 0.250000 0.000000
O O15 0.000000 0.150547 0.000000
#
# Coordination Sequence:
#
# PCOD8275207 Si02
#       6
#    16   8   8  16   8   8
#     4  10  20  36  58  81 109 146 191 242 300 366
#     4  11  23  40  65  98 133 171 215 260 310 367
#     4  10  23  43  62  85 124 166 206 256 307 358
#     4  11  23  40  61  86 117 155 200 251 305 364
#     4  10  21  35  51  77 109 144 185 237 297 363
#     4  11  22  41  68  98 136 177 216 259 308 360
#
# _framework density 9.8765429999999999
#
# number of rings (size 3 to 8) (size 9 to 14) (size 15 to 20)
#    0.000    1.500    1.250    4.875    0.000    7.500 
#    0.000    2.500    0.000    2.250    0.000    0.000 
#    0.000    0.000    0.000    0.000    0.000    0.000 
#
# Total GULP energy -396627.574421 kJ/mol
# GULP energy per Si atom -12394.611701 kJ/mol
# Density = 0.985406 g / cm^3
# Si number density = 9.876543 Si / 1000 Ang^3
#
#
#
# Elastic Constant Matrix: (Units=GPa)
#
#
# Indices 1 2 3 4 5 6 
#
# 1 118.5507 63.7565 64.2624 0.0000 0.0000 0.0000
# 2 63.7565 149.5612 56.0191 0.0000 0.0000 0.0000
# 3 64.2624 56.0191 140.0634 0.0000 0.0000 0.0000
# 4 0.0000 0.0000 0.0000 -107.7194 0.0000 0.0000
# 5 0.0000 0.0000 0.0000 0.0000 36.2501 0.0000
# 6 0.0000 0.0000 0.0000 0.0000 0.0000 37.1094
#
#
#
# Elastic Compliance Matrix: (Units=1/GPa)
#
#
# Indices 1 2 3 4 5 6 
#
# 1 0.012874 -0.003853 -0.004366 0.000000 0.000000 0.000000
# 2 -0.003853 0.009017 -0.001839 0.000000 0.000000 0.000000
# 3 -0.004366 -0.001839 0.009878 0.000000 0.000000 0.000000
# 4 0.000000 0.000000 0.000000 -0.009283 0.000000 0.000000
# 5 0.000000 0.000000 0.000000 0.000000 0.027586 0.000000
# 6 0.000000 0.000000 0.000000 0.000000 0.000000 0.026947
#
#
# Mechanical properties :
#
#
# Convention : Reuss Voigt Hill
#
# Bulk Modulus (GPa) = 85.80282 86.25014 86.02648
# Shear Modulus (GPa) = 49.49580 8.07050 28.78315
#
# Velocity S-wave (km/s) = 5.01115 2.02350 3.82140
# Velocity P-wave (km/s) = 8.77577 7.01558 7.94457
#
# Compressibility (1/GPa) = 0.01165463
#
# Stress axis : x y z
#
# Youngs Moduli (GPa) = 77.67782 110.89706 101.23416
#
# Poissons Ratio (x) = 0.42726 0.44195
# Poissons Ratio (y) = 0.29927 0.18616
# Poissons Ratio (z) = 0.33911 0.20393
#
# Static dielectric constant tensor:
#      x y z
#    x 3.781280 0.000000 0.000000 
#    y 0.000000 3.671140 0.000000 
#    z 0.000000 0.000000 3.982620 
# 
# 
# High freq. dielectric constant tensor:
#      x y z
#    x 1.778040 0.000000 0.000000 
#    y 0.000000 1.782750 0.000000 
#    z 0.000000 0.000000 1.776000 
# 
# From -- ./inp_files/66896.got.cif
#   From: 2010.03.12/outbox.ucp.g09.slc.cvg/sg65_34_cif.got.tgz:66896.got - 2010.05.04 19:44:54.
