data_PCOD8275943
_publ_section_title
;
Structure prediction by ZEFSAII (Michael W. Deem and Ramdas Pophale) SiO2 
 PCOD8275943
Probable space group: C C C M
;
_chemical_formula_sum "Si O2"
_cell_formula_units_Z 64
_cell_length_a 8.811080
_cell_length_b 17.074014
_cell_length_c 20.741413
_cell_angle_alpha 90.000000
_cell_angle_beta 90.000000
_cell_angle_gamma 90.000000
_cell_volume 3120.348610
_symmetry_space_group_name_H-M "C C C M"
_symmetry_group_IT_number 66
_symmetry_cell_setting 'orthorhombic'
loop_
_space_group_symop_operation_xyz
x,y,z
-x,-y,z
x,-y,1/2-z
-x,y,1/2-z
-x,-y,-z
x,y,-z
-x,y,1/2+z
x,-y,1/2+z
1/2+x,1/2+y,z
1/2-x,1/2-y,z
1/2+x,1/2-y,1/2-z
1/2-x,1/2+y,1/2-z
1/2-x,1/2-y,-z
1/2+x,1/2+y,-z
1/2-x,1/2+y,1/2+z
1/2+x,1/2-y,1/2+z
loop_
_atom_site_type_symbol
_atom_site_label
_atom_site_fract_x
_atom_site_fract_y
_atom_site_fract_z
Si Si1 0.328904 0.593736 0.749939
Si Si2 0.100268 0.080725 0.000000
Si Si3 0.805370 0.838146 0.500000
Si Si4 0.318804 0.914636 0.621448
Si Si5 0.653887 0.096521 0.125164
O O1 0.329586 0.500000 0.750000
O O2 0.500000 0.626033 0.750000
O O3 0.255657 0.625176 0.683934
O O4 0.234360 0.630164 0.810212
O O5 0.207606 0.091373 0.061176
O O6 0.987376 0.154947 0.000000
O O7 0.000000 0.000000 0.000000
O O8 0.750000 0.750000 0.500000
O O9 0.750463 0.882673 0.436921
O O10 0.482379 0.872071 0.612745
O O11 0.350520 0.004558 0.634954
#
# Coordination Sequence:
#
# PCOD8275943 Si02
#       5
#    16   8   8  16  16
#     4   9  17  28  52  85 119 146 185 242 300 349
#     4  12  21  35  59  87 116 152 205 254 306 361
#     4  12  25  39  57  81 120 161 195 242 301 372
#     4  10  19  32  58  88 114 148 189 255 304 347
#     4  10  19  35  54  84 120 150 194 243 304 352
#
# _framework density 20.510528000000001
#
# number of rings (size 3 to 8) (size 9 to 14) (size 15 to 20)
#    0.000    1.750    2.500    3.000    3.500    5.000 
#    0.000    2.500    0.000    9.000    0.000    0.000 
#    0.000    0.000    0.000    0.000    0.000    0.000 
#
# Total GULP energy -396595.427640 kJ/mol
# GULP energy per Si atom -12393.607114 kJ/mol
# Density = 2.046385 g / cm^3
# Si number density = 20.510528 Si / 1000 Ang^3
#
#
#
# Elastic Constant Matrix: (Units=GPa)
#
#
# Indices 1 2 3 4 5 6 
#
# 1 214.1134 14.5449 105.0045 0.0000 0.0000 0.0000
# 2 14.5449 20.3941 2.6144 0.0000 0.0000 0.0000
# 3 105.0045 2.6144 210.9179 0.0000 0.0000 0.0000
# 4 0.0000 0.0000 0.0000 -7.3779 0.0000 0.0000
# 5 0.0000 0.0000 0.0000 0.0000 49.0710 0.0000
# 6 0.0000 0.0000 0.0000 0.0000 0.0000 14.9976
#
#
#
# Elastic Compliance Matrix: (Units=1/GPa)
#
#
# Indices 1 2 3 4 5 6 
#
# 1 0.006526 -0.004245 -0.003197 0.000000 0.000000 0.000000
# 2 -0.004245 0.051873 0.001470 0.000000 0.000000 0.000000
# 3 -0.003197 0.001470 0.006314 0.000000 0.000000 0.000000
# 4 0.000000 0.000000 0.000000 -0.135539 0.000000 0.000000
# 5 0.000000 0.000000 0.000000 0.000000 0.020379 0.000000
# 6 0.000000 0.000000 0.000000 0.000000 0.000000 0.066677
#
#
# Mechanical properties :
#
#
# Convention : Reuss Voigt Hill
#
# Bulk Modulus (GPa) = 18.94965 76.63922 47.79443
# Shear Modulus (GPa) = 109.25851 32.88890 71.07371
#
# Velocity S-wave (km/s) = 7.30651 4.00873 5.89301
# Velocity P-wave (km/s) = 8.96879 7.67291 8.34604
#
# Compressibility (1/GPa) = 0.05277142
#
# Stress axis : x y z
#
# Youngs Moduli (GPa) = 153.22387 19.27793 158.36995
#
# Poissons Ratio (x) = 0.08183 0.50623
# Poissons Ratio (y) = 0.65040 -0.23285
# Poissons Ratio (z) = 0.48978 -0.02834
#
# Static dielectric constant tensor:
#      x y z
#    x 4.252330 0.000000 0.000000 
#    y 0.000000 3.010660 0.000000 
#    z 0.000000 0.000000 3.908480 
# 
# 
# High freq. dielectric constant tensor:
#      x y z
#    x 1.829920 0.000000 0.000000 
#    y 0.000000 1.721740 0.000000 
#    z 0.000000 0.000000 1.822780 
# 
# From -- ./inp_files/36421.got.cif
#   From: 2010.03.12/outbox.cif.g09.slc.cpg/sg66_19_cif.got.tgz:36421.got - 2010.04.10 21:57:39.
