data_PCOD8275182
_publ_section_title
;
Structure prediction by ZEFSAII (Michael W. Deem and Ramdas Pophale) SiO2 
 PCOD8275182
Probable space group: C M M M
;
_chemical_formula_sum "Si O2"
_cell_formula_units_Z 56
_cell_length_a 29.683359
_cell_length_b 9.393537
_cell_length_c 10.602563
_cell_angle_alpha 90.000000
_cell_angle_beta 90.000000
_cell_angle_gamma 90.000000
_cell_volume 2956.330995
_symmetry_space_group_name_H-M "C M M M"
_symmetry_group_IT_number 65
_symmetry_cell_setting 'orthorhombic'
loop_
_space_group_symop_operation_xyz
x,y,z
-x,-y,z
x,-y,-z
-x,y,-z
-x,-y,-z
x,y,-z
-x,y,z
x,-y,z
1/2+x,1/2+y,z
1/2-x,1/2-y,z
1/2+x,1/2-y,-z
1/2-x,1/2+y,-z
1/2-x,1/2-y,-z
1/2+x,1/2+y,-z
1/2-x,1/2+y,z
1/2+x,1/2-y,z
loop_
_atom_site_type_symbol
_atom_site_label
_atom_site_fract_x
_atom_site_fract_y
_atom_site_fract_z
Si Si1 0.949228 0.164294 0.738268
Si Si2 0.640110 0.666467 0.863189
Si Si3 0.946753 0.657918 0.500000
Si Si4 0.295827 0.332511 0.357506
O O1 0.913525 0.195044 0.848738
O O2 0.931170 0.256815 0.622317
O O3 0.000000 0.206185 0.782120
O O4 0.947936 0.000000 0.695644
O O5 0.649422 0.500000 0.865908
O O6 0.668518 0.728366 0.745362
O O7 0.654341 0.732199 0.000000
O O8 0.925179 0.500000 0.500000
O O9 0.000000 0.647560 0.500000
O O10 0.313578 0.300756 0.500000
O O11 0.287000 0.500000 0.340682
O O12 0.250000 0.250000 0.331372
#
# Coordination Sequence:
#
# PCOD8275182 Si02
#       4
#    16  16   8  16
#     4   9  17  29  48  73 100 131 168 206 242 286
#     4   9  18  31  49  75 104 133 165 202 247 295
#     4   9  17  29  45  67  96 129 166 207 250 289
#     4   9  18  33  53  74  97 127 163 204 250 297
#
# _framework density 18.942398000000001
#
# number of rings (size 3 to 8) (size 9 to 14) (size 15 to 20)
#    0.000    3.000    0.000    0.429    2.000    2.857 
#    0.000    4.286    0.000    2.571    0.000    4.000 
#    0.000    0.000    0.000    0.000    0.000    0.000 
#
# Total GULP energy -346926.355044 kJ/mol
# GULP energy per Si atom -12390.226966 kJ/mol
# Density = 1.889928 g / cm^3
# Si number density = 18.942398 Si / 1000 Ang^3
#
#
#
# Elastic Constant Matrix: (Units=GPa)
#
#
# Indices 1 2 3 4 5 6 
#
# 1 107.4059 18.8368 80.9791 0.0000 0.0000 0.0000
# 2 18.8368 38.0883 27.1500 0.0000 0.0000 0.0000
# 3 80.9791 27.1500 161.7218 0.0000 0.0000 0.0000
# 4 0.0000 0.0000 0.0000 7.4938 0.0000 0.0000
# 5 0.0000 0.0000 0.0000 0.0000 22.4909 0.0000
# 6 0.0000 0.0000 0.0000 0.0000 0.0000 18.7666
#
#
#
# Elastic Compliance Matrix: (Units=1/GPa)
#
#
# Indices 1 2 3 4 5 6 
#
# 1 0.015143 -0.002367 -0.007185 0.000000 0.000000 0.000000
# 2 -0.002367 0.030194 -0.003884 0.000000 0.000000 0.000000
# 3 -0.007185 -0.003884 0.010433 0.000000 0.000000 0.000000
# 4 0.000000 0.000000 0.000000 0.133443 0.000000 0.000000
# 5 0.000000 0.000000 0.000000 0.000000 0.044462 0.000000
# 6 0.000000 0.000000 0.000000 0.000000 0.000000 0.053286
#
#
# Mechanical properties :
#
#
# Convention : Reuss Voigt Hill
#
# Bulk Modulus (GPa) = 34.60454 62.34977 48.47715
# Shear Modulus (GPa) = 15.45759 21.76695 18.61227
#
# Velocity S-wave (km/s) = 2.85972 3.39353 3.13800
# Velocity P-wave (km/s) = 5.40481 6.95282 6.22710
#
# Compressibility (1/GPa) = 0.02889794
#
# Stress axis : x y z
#
# Youngs Moduli (GPa) = 66.03765 33.11937 95.84769
#
# Poissons Ratio (x) = 0.07841 0.68867
# Poissons Ratio (y) = 0.15633 0.37223
# Poissons Ratio (z) = 0.47449 0.12862
#
# Static dielectric constant tensor:
#      x y z
#    x 3.396180 0.000000 0.000000 
#    y 0.000000 3.296910 0.000000 
#    z 0.000000 0.000000 3.762230 
# 
# 
# High freq. dielectric constant tensor:
#      x y z
#    x 1.729310 0.000000 0.000000 
#    y 0.000000 1.695500 0.000000 
#    z 0.000000 0.000000 1.736020 
# 
# From -- ./inp_files/20788.got.cif
#   From: 2010.03.12/outbox.cif.g09.slc.cpg/sg65_11_cif.got.tgz:20788.got - 2010.04.10 20:52:16.
