data_PCOD8275946
_publ_section_title
;
Structure prediction by ZEFSAII (Michael W. Deem and Ramdas Pophale) SiO2 
 PCOD8275946
Probable space group: C C C M
;
_chemical_formula_sum "Si O2"
_cell_formula_units_Z 112
_cell_length_a 24.723135
_cell_length_b 14.006145
_cell_length_c 17.510677
_cell_angle_alpha 90.000000
_cell_angle_beta 90.000000
_cell_angle_gamma 90.000000
_cell_volume 6063.523926
_symmetry_space_group_name_H-M "C C C M"
_symmetry_group_IT_number 66
_symmetry_cell_setting 'orthorhombic'
loop_
_space_group_symop_operation_xyz
x,y,z
-x,-y,z
x,-y,1/2-z
-x,y,1/2-z
-x,-y,-z
x,y,-z
-x,y,1/2+z
x,-y,1/2+z
1/2+x,1/2+y,z
1/2-x,1/2-y,z
1/2+x,1/2-y,1/2-z
1/2-x,1/2+y,1/2-z
1/2-x,1/2-y,-z
1/2+x,1/2+y,-z
1/2-x,1/2+y,1/2+z
1/2+x,1/2-y,1/2+z
loop_
_atom_site_type_symbol
_atom_site_label
_atom_site_fract_x
_atom_site_fract_y
_atom_site_fract_z
Si Si1 0.783280 0.655097 0.679944
Si Si2 0.467237 0.865830 0.910024
Si Si3 0.191937 0.938567 0.089080
Si Si4 0.872046 0.755991 0.589473
Si Si5 0.421012 0.065484 0.090286
Si Si6 0.801409 0.148607 0.413016
Si Si7 0.186209 0.344016 0.848468
O O1 0.750000 0.750000 0.691905
O O2 0.746093 0.576465 0.638679
O O3 0.834820 0.676093 0.627880
O O4 0.801214 0.620767 0.763223
O O5 0.434150 0.769516 0.886517
O O6 0.529414 0.865544 0.880781
O O7 0.434856 0.959011 0.880670
O O8 0.470570 0.876327 0.000000
O O9 0.144635 0.863802 0.113440
O O10 0.170652 0.046068 0.104772
O O11 0.207003 0.924865 0.000000
O O12 0.864066 0.742206 0.500000
O O13 0.365689 0.096790 0.128257
O O14 0.413611 0.071566 0.000000
O O15 0.813574 0.179637 0.500000
O O16 0.825082 0.229164 0.355695
O O17 0.736889 0.134902 0.403441
#
# Coordination Sequence:
#
# PCOD8275946 Si02
#       7
#    16  16  16  16  16  16  16
#     4  10  19  33  45  71 105 132 163 202 253 305
#     4   8  16  31  52  76  97 125 171 216 257 300
#     4   9  19  33  51  73  99 133 172 211 253 304
#     4   9  17  32  52  71  95 128 165 208 252 301
#     4   9  17  31  51  74  99 132 173 212 250 300
#     4  10  20  34  50  71  99 137 179 207 240 299
#     4  11  20  33  47  72 103 138 169 205 252 298
#
# _framework density 18.471107
#
# number of rings (size 3 to 8) (size 9 to 14) (size 15 to 20)
#    0.000    2.571    1.429    3.000    2.000    2.286 
#    0.000    0.714    0.000    2.571    0.000    5.000 
#    0.000    2.571    0.000    0.143    0.000    0.000 
#
# Total GULP energy -693932.925431 kJ/mol
# GULP energy per Si atom -12391.659383 kJ/mol
# Density = 1.842907 g / cm^3
# Si number density = 18.471107 Si / 1000 Ang^3
#
#
#
# Elastic Constant Matrix: (Units=GPa)
#
#
# Indices 1 2 3 4 5 6 
#
# 1 59.5304 8.0529 11.7726 0.0000 0.0000 0.0000
# 2 8.0529 68.6214 18.2581 0.0000 0.0000 0.0000
# 3 11.7726 18.2581 51.4382 0.0000 0.0000 0.0000
# 4 0.0000 0.0000 0.0000 12.5932 0.0000 0.0000
# 5 0.0000 0.0000 0.0000 0.0000 15.1997 0.0000
# 6 0.0000 0.0000 0.0000 0.0000 0.0000 25.1015
#
#
#
# Elastic Compliance Matrix: (Units=1/GPa)
#
#
# Indices 1 2 3 4 5 6 
#
# 1 0.017670 -0.001102 -0.003653 0.000000 0.000000 0.000000
# 2 -0.001102 0.016161 -0.005484 0.000000 0.000000 0.000000
# 3 -0.003653 -0.005484 0.022224 0.000000 0.000000 0.000000
# 4 0.000000 0.000000 0.000000 0.079408 0.000000 0.000000
# 5 0.000000 0.000000 0.000000 0.000000 0.065791 0.000000
# 6 0.000000 0.000000 0.000000 0.000000 0.000000 0.039838
#
#
# Mechanical properties :
#
#
# Convention : Reuss Voigt Hill
#
# Bulk Modulus (GPa) = 28.10854 28.41750 28.26302
# Shear Modulus (GPa) = 18.28636 20.01264 19.14950
#
# Velocity S-wave (km/s) = 3.14984 3.29516 3.22332
# Velocity P-wave (km/s) = 5.33659 5.46769 5.40254
#
# Compressibility (1/GPa) = 0.03557638
#
# Stress axis : x y z
#
# Youngs Moduli (GPa) = 56.59450 61.87654 44.99736
#
# Poissons Ratio (x) = 0.06816 0.16438
# Poissons Ratio (y) = 0.06235 0.24678
# Poissons Ratio (z) = 0.20674 0.33935
#
# Static dielectric constant tensor:
#      x y z
#    x 3.448290 0.000000 0.000000 
#    y 0.000000 3.576770 0.000000 
#    z 0.000000 0.000000 3.421080 
# 
# 
# High freq. dielectric constant tensor:
#      x y z
#    x 1.692080 0.000000 0.000000 
#    y 0.000000 1.712450 0.000000 
#    z 0.000000 0.000000 1.699780 
# 
# From -- ./inp_files/32465.got.cif
#   From: 2010.03.12/outbox.cif.g09.slc.cpg/sg66_17_cif.got.tgz:32465.got - 2010.04.10 21:57:39.
