data_PCOD8275281
_publ_section_title
;
Structure prediction by ZEFSAII (Michael W. Deem and Ramdas Pophale) SiO2 
 PCOD8275281
Probable space group: C C C M
;
_chemical_formula_sum "Si O2"
_cell_formula_units_Z 116
_cell_length_a 13.705914
_cell_length_b 18.877537
_cell_length_c 28.062375
_cell_angle_alpha 90.000000
_cell_angle_beta 90.000000
_cell_angle_gamma 90.000000
_cell_volume 7260.687689
_symmetry_space_group_name_H-M "C C C M"
_symmetry_group_IT_number 66
_symmetry_cell_setting 'orthorhombic'
loop_
_space_group_symop_operation_xyz
x,y,z
-x,-y,z
x,-y,1/2-z
-x,y,1/2-z
-x,-y,-z
x,y,-z
-x,y,1/2+z
x,-y,1/2+z
1/2+x,1/2+y,z
1/2-x,1/2-y,z
1/2+x,1/2-y,1/2-z
1/2-x,1/2+y,1/2-z
1/2-x,1/2-y,-z
1/2+x,1/2+y,-z
1/2-x,1/2+y,1/2+z
1/2+x,1/2-y,1/2+z
loop_
_atom_site_type_symbol
_atom_site_label
_atom_site_fract_x
_atom_site_fract_y
_atom_site_fract_z
Si Si1 0.269957 0.363173 0.053821
Si Si2 0.595116 0.255075 0.720117
Si Si3 0.143463 0.580269 0.181683
Si Si4 0.319305 0.062255 0.139179
Si Si5 0.488776 0.829036 0.636462
Si Si6 0.500000 0.000000 0.750000
Si Si7 0.244351 0.364091 0.234231
Si Si8 0.589462 0.757543 0.052680
O O1 0.253810 0.421835 0.095063
O O2 0.371116 0.321538 0.064792
O O3 0.181599 0.308794 0.057088
O O4 0.273621 0.396220 0.000000
O O5 0.500000 0.267727 0.750000
O O6 0.566657 0.230335 0.667486
O O7 0.652521 0.329266 0.721098
O O8 0.660969 0.194130 0.742416
O O9 0.168378 0.522596 0.141155
O O10 0.240181 0.597483 0.213769
O O11 0.095895 0.648964 0.155379
O O12 0.063066 0.551961 0.218153
O O13 0.423617 0.099916 0.131739
O O14 0.277268 0.083649 0.190683
O O15 0.496724 0.787247 0.586361
O O16 0.544720 0.758372 0.000000
#
# Coordination Sequence:
#
# PCOD8275281 Si02
#       8
#    16  16  16  16  16   4  16  16
#     4   8  14  25  39  57  82 116 153 190 227 273
#     4  10  18  30  44  63  90 114 149 190 226 264
#     4  12  18  27  41  61  89 116 154 187 220 268
#     4  10  17  25  40  61  85 118 154 180 218 271
#     4  10  17  26  41  63  86 117 148 188 229 269
#     4  12  16  28  40  56  84 120 148 192 210 244
#     4  10  19  28  43  64  88 119 152 185 223 267
#     4   8  14  25  40  57  83 115 150 188 231 274
#
# _framework density 15.976448
#
# number of rings (size 3 to 8) (size 9 to 14) (size 15 to 20)
#    0.000    2.207    4.138    2.483    0.000    3.310 
#    0.000    0.690    0.000    4.966    0.000    0.000 
#    0.000    3.310    0.000    4.966    0.000    1.655 
#
# Total GULP energy -718655.189940 kJ/mol
# GULP energy per Si atom -12390.606723 kJ/mol
# Density = 1.594009 g / cm^3
# Si number density = 15.976448 Si / 1000 Ang^3
#
#
#
# Elastic Constant Matrix: (Units=GPa)
#
#
# Indices 1 2 3 4 5 6 
#
# 1 43.3221 26.6036 28.9287 0.0000 0.0000 0.0000
# 2 26.6036 56.7647 44.6549 0.0000 0.0000 0.0000
# 3 28.9287 44.6549 112.8329 0.0000 0.0000 0.0000
# 4 0.0000 0.0000 0.0000 892.3528 0.0000 0.0000
# 5 0.0000 0.0000 0.0000 0.0000 7.5264 0.0000
# 6 0.0000 0.0000 0.0000 0.0000 0.0000 -10.6638
#
#
#
# Elastic Compliance Matrix: (Units=1/GPa)
#
#
# Indices 1 2 3 4 5 6 
#
# 1 0.033300 -0.012909 -0.003429 0.000000 0.000000 0.000000
# 2 -0.012909 0.030585 -0.008795 0.000000 0.000000 0.000000
# 3 -0.003429 -0.008795 0.013222 0.000000 0.000000 0.000000
# 4 0.000000 0.000000 0.000000 0.001121 0.000000 0.000000
# 5 0.000000 0.000000 0.000000 0.000000 0.132865 0.000000
# 6 0.000000 0.000000 0.000000 0.000000 0.000000 -0.093775
#
#
# Mechanical properties :
#
#
# Convention : Reuss Voigt Hill
#
# Bulk Modulus (GPa) = 37.25476 45.92153 41.58815
# Shear Modulus (GPa) = 28.32377 185.35858 106.84118
#
# Velocity S-wave (km/s) = 4.21508 10.78294 8.18653
# Velocity P-wave (km/s) = 6.85991 13.55856 10.74461
#
# Compressibility (1/GPa) = 0.02684221
#
# Stress axis : x y z
#
# Youngs Moduli (GPa) = 30.03023 32.69555 75.62978
#
# Poissons Ratio (x) = 0.42208 0.25930
# Poissons Ratio (y) = 0.38767 0.66514
# Poissons Ratio (z) = 0.10296 0.28755
#
# Static dielectric constant tensor:
#      x y z
#    x 2.716500 0.000000 0.000000 
#    y 0.000000 3.017510 0.000000 
#    z 0.000000 0.000000 3.337010 
# 
# 
# High freq. dielectric constant tensor:
#      x y z
#    x 1.562340 0.000000 0.000000 
#    y 0.000000 1.591460 0.000000 
#    z 0.000000 0.000000 1.615040 
# 
# From -- ./inp_files/64784.got.cif
#   From: 2010.03.12/outbox.cif.g09.slc.cpg/sg66_33_cif.got.tgz:64784.got - 2010.04.10 21:57:39.
