data_PCOD8275033
_publ_section_title
;
Structure prediction by ZEFSAII (Michael W. Deem and Ramdas Pophale) SiO2 
 PCOD8275033
Probable space group: C M M M
;
_chemical_formula_sum "Si O2"
_cell_formula_units_Z 88
_cell_length_a 9.385596
_cell_length_b 19.328046
_cell_length_c 28.403625
_cell_angle_alpha 90.000000
_cell_angle_beta 90.000000
_cell_angle_gamma 90.000000
_cell_volume 5152.566161
_symmetry_space_group_name_H-M "C M M M"
_symmetry_group_IT_number 65
_symmetry_cell_setting 'orthorhombic'
loop_
_space_group_symop_operation_xyz
x,y,z
-x,-y,z
x,-y,-z
-x,y,-z
-x,-y,-z
x,y,-z
-x,y,z
x,-y,z
1/2+x,1/2+y,z
1/2-x,1/2-y,z
1/2+x,1/2-y,-z
1/2-x,1/2+y,-z
1/2-x,1/2-y,-z
1/2+x,1/2+y,-z
1/2-x,1/2+y,z
1/2+x,1/2-y,z
loop_
_atom_site_type_symbol
_atom_site_label
_atom_site_fract_x
_atom_site_fract_y
_atom_site_fract_z
Si Si1 0.166474 0.318591 0.629158
Si Si2 0.331131 0.922317 0.183776
Si Si3 0.161391 0.682058 0.000000
Si Si4 0.666977 0.822212 0.102167
Si Si5 0.668999 0.076792 0.448112
Si Si6 0.165812 0.680765 0.263817
O O1 0.250000 0.250000 0.616632
O O2 0.229363 0.375632 0.593554
O O3 0.196952 0.342273 0.682630
O O4 0.000000 0.305020 0.620971
O O5 0.500000 0.928021 0.181722
O O6 0.274680 0.878864 0.138929
O O7 0.282662 0.882402 0.231042
O O8 0.265279 0.000000 0.183534
O O9 0.250000 0.750000 0.000000
O O10 0.192823 0.643562 0.950209
O O11 0.000000 0.707026 0.000000
O O12 0.500000 0.807020 0.110946
O O13 0.750000 0.750000 0.108652
O O14 0.714161 0.104816 0.500000
O O15 0.500000 0.073925 0.444613
O O16 0.731771 0.000000 0.440804
O O17 0.250000 0.750000 0.250066
O O18 0.000000 0.697181 0.255790
#
# Coordination Sequence:
#
# PCOD8275033 Si02
#       6
#    16  16   8  16  16  16
#     4   9  17  28  43  64  86 107 134 169 207 244
#     4   9  17  28  42  62  86 109 135 169 207 243
#     4   8  14  24  39  61  83 103 133 168 200 236
#     4   9  16  27  44  63  83 108 137 169 203 240
#     4   8  14  25  41  61  84 109 138 171 203 236
#     4   9  17  29  45  63  83 108 137 169 204 243
#
# _framework density 17.078869000000001
#
# number of rings (size 3 to 8) (size 9 to 14) (size 15 to 20)
#    0.000    3.273    0.000    1.091    0.000    1.091 
#    0.000    4.091    0.000    5.455    0.000    6.364 
#    0.000    7.273    0.000    0.000    0.000    0.000 
#
# Total GULP energy -545156.380047 kJ/mol
# GULP energy per Si atom -12389.917728 kJ/mol
# Density = 1.704000 g / cm^3
# Si number density = 17.078869 Si / 1000 Ang^3
#
#
#
# Elastic Constant Matrix: (Units=GPa)
#
#
# Indices 1 2 3 4 5 6 
#
# 1 20.8078 24.9667 24.0706 0.0000 0.0000 0.0000
# 2 24.9667 131.3689 102.3326 0.0000 0.0000 0.0000
# 3 24.0706 102.3326 161.3853 0.0000 0.0000 0.0000
# 4 0.0000 0.0000 0.0000 20.6481 0.0000 0.0000
# 5 0.0000 0.0000 0.0000 0.0000 14.0601 0.0000
# 6 0.0000 0.0000 0.0000 0.0000 0.0000 18.5719
#
#
#
# Elastic Compliance Matrix: (Units=1/GPa)
#
#
# Indices 1 2 3 4 5 6 
#
# 1 0.063286 -0.009237 -0.003582 0.000000 0.000000 0.000000
# 2 -0.009237 0.016390 -0.009015 0.000000 0.000000 0.000000
# 3 -0.003582 -0.009015 0.012447 0.000000 0.000000 0.000000
# 4 0.000000 0.000000 0.000000 0.048431 0.000000 0.000000
# 5 0.000000 0.000000 0.000000 0.000000 0.071123 0.000000
# 6 0.000000 0.000000 0.000000 0.000000 0.000000 0.053845
#
#
# Mechanical properties :
#
#
# Convention : Reuss Voigt Hill
#
# Bulk Modulus (GPa) = 20.63785 68.47797 44.55791
# Shear Modulus (GPa) = 15.36843 21.46882 18.41862
#
# Velocity S-wave (km/s) = 3.00300 3.54932 3.28753
# Velocity P-wave (km/s) = 4.91265 7.54845 6.36841
#
# Compressibility (1/GPa) = 0.04845467
#
# Stress axis : x y z
#
# Youngs Moduli (GPa) = 15.80126 61.01193 80.34111
#
# Poissons Ratio (x) = 0.56360 0.28776
# Poissons Ratio (y) = 0.14596 0.72428
# Poissons Ratio (z) = 0.05660 0.55003
#
# Static dielectric constant tensor:
#      x y z
#    x 2.830520 0.000000 0.000000 
#    y 0.000000 3.200820 0.000000 
#    z 0.000000 0.000000 3.793900 
# 
# 
# High freq. dielectric constant tensor:
#      x y z
#    x 1.616460 0.000000 0.000000 
#    y 0.000000 1.638820 0.000000 
#    z 0.000000 0.000000 1.682520 
# 
# From -- ./inp_files/73120.got.cif
#   From: 2010.03.12/outbox.cif.g09.slc.cpg/sg65_37_cif.got.tgz:73120.got - 2010.04.10 20:52:16.
