data_PCOD8275336
_publ_section_title
;
Structure prediction by ZEFSAII (Michael W. Deem and Ramdas Pophale) SiO2 
 PCOD8275336
Probable space group: C C C M
;
_chemical_formula_sum "Si O2"
_cell_formula_units_Z 88
_cell_length_a 10.696528
_cell_length_b 23.688008
_cell_length_c 20.015366
_cell_angle_alpha 90.000000
_cell_angle_beta 90.000000
_cell_angle_gamma 90.000000
_cell_volume 5071.482245
_symmetry_space_group_name_H-M "C C C M"
_symmetry_group_IT_number 66
_symmetry_cell_setting 'orthorhombic'
loop_
_space_group_symop_operation_xyz
x,y,z
-x,-y,z
x,-y,1/2-z
-x,y,1/2-z
-x,-y,-z
x,y,-z
-x,y,1/2+z
x,-y,1/2+z
1/2+x,1/2+y,z
1/2-x,1/2-y,z
1/2+x,1/2-y,1/2-z
1/2-x,1/2+y,1/2-z
1/2-x,1/2-y,-z
1/2+x,1/2+y,-z
1/2-x,1/2+y,1/2+z
1/2+x,1/2-y,1/2+z
loop_
_atom_site_type_symbol
_atom_site_label
_atom_site_fract_x
_atom_site_fract_y
_atom_site_fract_z
Si Si1 0.625591 0.140218 0.633251
Si Si2 0.413620 0.312900 0.000000
Si Si3 0.250000 0.750000 0.394827
Si Si4 0.791067 0.186426 0.000000
Si Si5 0.364603 0.975164 0.000000
Si Si6 0.149475 0.436273 0.747395
Si Si7 0.344953 0.115788 0.388833
Si Si8 0.736111 0.092819 0.500000
O O1 0.681228 0.202317 0.649050
O O2 0.688259 0.098830 0.687400
O O3 0.475802 0.144719 0.631130
O O4 0.659773 0.116664 0.561678
O O5 0.359569 0.279889 0.063331
O O6 0.561061 0.314999 0.000000
O O7 0.373390 0.379168 0.000000
O O8 0.750000 0.250000 0.000000
O O9 0.741220 0.158478 0.068875
O O10 0.355284 0.940225 0.067409
O O11 0.500000 0.000000 0.000000
O O12 0.259676 0.024748 0.000000
O O13 0.203116 0.500000 0.750000
O O14 0.209317 0.405126 0.682495
O O15 0.000000 0.438013 0.750000
#
# Coordination Sequence:
#
# PCOD8275336 Si02
#       8
#    16   8   8   8   8  16  16   8
#     4  10  17  30  49  77 105 131 172 217 261 311
#     4   9  19  33  52  77 103 133 173 221 270 308
#     4   9  18  32  54  74  96 129 178 222 264 307
#     4  11  21  36  53  73 107 144 177 219 270 315
#     4  11  17  27  52  81 107 131 172 218 268 308
#     4   9  18  30  49  75 109 136 167 215 269 313
#     4  10  20  31  49  79 107 138 174 210 266 323
#     4  10  17  28  51  78 101 131 165 221 259 304
#
# _framework density 17.351928999999998
#
# number of rings (size 3 to 8) (size 9 to 14) (size 15 to 20)
#    0.000    2.182    1.818    3.273    2.545    0.000 
#    1.636    1.818    0.000    3.273    0.000    5.091 
#    0.000    0.000    0.000    0.000    0.000    0.000 
#
# Total GULP energy -545215.397386 kJ/mol
# GULP energy per Si atom -12391.259032 kJ/mol
# Density = 1.731244 g / cm^3
# Si number density = 17.351929 Si / 1000 Ang^3
#
#
#
# Elastic Constant Matrix: (Units=GPa)
#
#
# Indices 1 2 3 4 5 6 
#
# 1 88.4951 52.5579 28.1106 0.0000 0.0000 0.0000
# 2 52.5579 156.9647 54.6373 0.0000 0.0000 0.0000
# 3 28.1106 54.6373 124.9496 0.0000 0.0000 0.0000
# 4 0.0000 0.0000 0.0000 87.8891 0.0000 0.0000
# 5 0.0000 0.0000 0.0000 0.0000 8.8184 0.0000
# 6 0.0000 0.0000 0.0000 0.0000 0.0000 30.0759
#
#
#
# Elastic Compliance Matrix: (Units=1/GPa)
#
#
# Indices 1 2 3 4 5 6 
#
# 1 0.014288 -0.004323 -0.001324 0.000000 0.000000 0.000000
# 2 -0.004323 0.008823 -0.002885 0.000000 0.000000 0.000000
# 3 -0.001324 -0.002885 0.009563 0.000000 0.000000 0.000000
# 4 0.000000 0.000000 0.000000 0.011378 0.000000 0.000000
# 5 0.000000 0.000000 0.000000 0.000000 0.113399 0.000000
# 6 0.000000 0.000000 0.000000 0.000000 0.000000 0.033249
#
#
# Mechanical properties :
#
#
# Convention : Reuss Voigt Hill
#
# Bulk Modulus (GPa) = 64.06790 71.22456 67.64623
# Shear Modulus (GPa) = 23.47765 41.03027 32.25396
#
# Velocity S-wave (km/s) = 3.68234 4.86798 4.31607
# Velocity P-wave (km/s) = 7.42175 8.52834 7.99421
#
# Compressibility (1/GPa) = 0.01560844
#
# Stress axis : x y z
#
# Youngs Moduli (GPa) = 69.98707 113.34193 104.57204
#
# Poissons Ratio (x) = 0.49003 0.13845
# Poissons Ratio (y) = 0.30258 0.30173
# Poissons Ratio (z) = 0.09266 0.32703
#
# Static dielectric constant tensor:
#      x y z
#    x 3.342860 0.000000 0.000000 
#    y 0.000000 4.550100 0.000000 
#    z 0.000000 0.000000 3.344950 
# 
# 
# High freq. dielectric constant tensor:
#      x y z
#    x 1.626480 0.000000 0.000000 
#    y 0.000000 1.685820 0.000000 
#    z 0.000000 0.000000 1.670820 
# 
# From -- ./inp_files/47213.got.cif
#   From: 2010.03.12/outbox.cif.g09.slc.cpg/sg66_24_cif.got.tgz:47213.got - 2010.04.10 21:57:39.
