data_PCOD8275835
_publ_section_title
;
Structure prediction by ZEFSAII (Michael W. Deem and Ramdas Pophale) SiO2 
 PCOD8275835
Probable space group: C C C M
;
_chemical_formula_sum "Si O2"
_cell_formula_units_Z 104
_cell_length_a 17.356760
_cell_length_b 12.275730
_cell_length_c 24.444350
_cell_angle_alpha 90.000000
_cell_angle_beta 90.000000
_cell_angle_gamma 90.000000
_cell_volume 5208.281863
_symmetry_space_group_name_H-M "C C C M"
_symmetry_group_IT_number 66
_symmetry_cell_setting 'orthorhombic'
loop_
_space_group_symop_operation_xyz
x,y,z
-x,-y,z
x,-y,1/2-z
-x,y,1/2-z
-x,-y,-z
x,y,-z
-x,y,1/2+z
x,-y,1/2+z
1/2+x,1/2+y,z
1/2-x,1/2-y,z
1/2+x,1/2-y,1/2-z
1/2-x,1/2+y,1/2-z
1/2-x,1/2-y,-z
1/2+x,1/2+y,-z
1/2-x,1/2+y,1/2+z
1/2+x,1/2-y,1/2+z
loop_
_atom_site_type_symbol
_atom_site_label
_atom_site_fract_x
_atom_site_fract_y
_atom_site_fract_z
Si Si1 0.903193 0.712254 0.438848
Si Si2 0.683258 0.002500 0.095972
Si Si3 0.000000 0.000000 0.872842
Si Si4 0.348552 0.553748 0.937090
Si Si5 0.923226 0.550428 0.190182
Si Si6 0.335162 0.771884 0.438885
Si Si7 0.463203 0.732181 0.641339
O O1 0.940064 0.712173 0.500000
O O2 0.848202 0.609712 0.432402
O O3 0.848006 0.816062 0.431733
O O4 0.969659 0.710580 0.393573
O O5 0.776001 0.005332 0.096187
O O6 0.652766 0.987134 0.157937
O O7 0.649695 0.901255 0.061699
O O8 0.009733 0.111920 0.836573
O O9 0.926949 0.008381 0.912089
O O10 0.341716 0.515893 0.000000
O O11 0.913629 0.500000 0.250000
O O12 0.935523 0.683297 0.188986
O O13 0.000000 0.500000 0.162665
O O14 0.345140 0.725567 0.500000
O O15 0.250000 0.750000 0.416084
O O16 0.392917 0.707941 0.399635
#
# Coordination Sequence:
#
# PCOD8275835 Si02
#       7
#    16  16   8  16  16  16  16
#     4  10  19  31  50  82 120 156 191 230 280 343
#     4  11  20  33  55  82 111 151 197 249 294 341
#     4  10  21  36  58  85 124 164 195 232 267 342
#     4  10  20  33  53  83 124 169 201 224 269 338
#     4  10  21  40  63  85 105 140 190 251 307 360
#     4  10  20  31  47  76 118 161 195 230 274 332
#     4  10  20  35  55  86 113 151 193 233 287 342
#
# _framework density 19.968195999999999
#
# number of rings (size 3 to 8) (size 9 to 14) (size 15 to 20)
#    0.000    1.846    1.538    3.462    0.000    4.308 
#    0.000    2.308    0.000   12.923    0.000    0.000 
#    0.000    0.000    0.000    0.000    0.000    0.000 
#
# Total GULP energy -644486.645570 kJ/mol
# GULP energy per Si atom -12393.973953 kJ/mol
# Density = 1.992275 g / cm^3
# Si number density = 19.968196 Si / 1000 Ang^3
#
#
#
# Elastic Constant Matrix: (Units=GPa)
#
#
# Indices 1 2 3 4 5 6 
#
# 1 110.3794 22.7854 32.7096 0.0000 0.0000 0.0000
# 2 22.7854 143.3113 37.1901 0.0000 0.0000 0.0000
# 3 32.7096 37.1901 78.7779 0.0000 0.0000 0.0000
# 4 0.0000 0.0000 0.0000 6.7730 0.0000 0.0000
# 5 0.0000 0.0000 0.0000 0.0000 15.4086 0.0000
# 6 0.0000 0.0000 0.0000 0.0000 0.0000 26.2909
#
#
#
# Elastic Compliance Matrix: (Units=1/GPa)
#
#
# Indices 1 2 3 4 5 6 
#
# 1 0.010377 -0.000606 -0.004023 0.000000 0.000000 0.000000
# 2 -0.000606 0.007987 -0.003519 0.000000 0.000000 0.000000
# 3 -0.004023 -0.003519 0.016025 0.000000 0.000000 0.000000
# 4 0.000000 0.000000 0.000000 0.147645 0.000000 0.000000
# 5 0.000000 0.000000 0.000000 0.000000 0.064899 0.000000
# 6 0.000000 0.000000 0.000000 0.000000 0.000000 0.038036
#
#
# Mechanical properties :
#
#
# Convention : Reuss Voigt Hill
#
# Bulk Modulus (GPa) = 55.26575 57.53766 56.40171
# Shear Modulus (GPa) = 16.27094 25.68007 20.97550
#
# Velocity S-wave (km/s) = 2.85764 3.59004 3.24457
# Velocity P-wave (km/s) = 6.21491 6.78688 6.50718
#
# Compressibility (1/GPa) = 0.01809439
#
# Stress axis : x y z
#
# Youngs Moduli (GPa) = 96.36912 125.19715 62.40072
#
# Poissons Ratio (x) = 0.07587 0.25101
# Poissons Ratio (y) = 0.05840 0.21960
# Poissons Ratio (z) = 0.38765 0.44059
#
# Static dielectric constant tensor:
#      x y z
#    x 3.722480 0.000000 0.000000 
#    y 0.000000 4.004790 0.000000 
#    z 0.000000 0.000000 3.121540 
# 
# 
# High freq. dielectric constant tensor:
#      x y z
#    x 1.783850 0.000000 0.000000 
#    y 0.000000 1.807120 0.000000 
#    z 0.000000 0.000000 1.724190 
# 
# From -- ./inp_files/65270.got.cif
#   From: 2010.03.12/outbox.cif.g09.slc.cpg/sg66_33_cif.got.tgz:65270.got - 2010.04.10 21:57:39.
