data_PCOD8275408
_publ_section_title
;
Structure prediction by ZEFSAII (Michael W. Deem and Ramdas Pophale) SiO2 
 PCOD8275408
Probable space group: C C C M
;
_chemical_formula_sum "Si O2"
_cell_formula_units_Z 80
_cell_length_a 27.089411
_cell_length_b 6.067375
_cell_length_c 17.060827
_cell_angle_alpha 90.000000
_cell_angle_beta 90.000000
_cell_angle_gamma 90.000000
_cell_volume 2804.145080
_symmetry_space_group_name_H-M "C C C M"
_symmetry_group_IT_number 66
_symmetry_cell_setting 'orthorhombic'
loop_
_space_group_symop_operation_xyz
x,y,z
-x,-y,z
x,-y,1/2-z
-x,y,1/2-z
-x,-y,-z
x,y,-z
-x,y,1/2+z
x,-y,1/2+z
1/2+x,1/2+y,z
1/2-x,1/2-y,z
1/2+x,1/2-y,1/2-z
1/2-x,1/2+y,1/2-z
1/2-x,1/2-y,-z
1/2+x,1/2+y,-z
1/2-x,1/2+y,1/2+z
1/2+x,1/2-y,1/2+z
loop_
_atom_site_type_symbol
_atom_site_label
_atom_site_fract_x
_atom_site_fract_y
_atom_site_fract_z
Si Si1 0.584946 0.838355 0.409089
Si Si2 0.192092 0.546539 0.909089
Si Si3 0.387993 0.646459 0.407142
Si Si4 0.488341 0.260233 0.159025
Si Si5 0.709599 0.527056 0.841643
O O1 0.574528 0.816540 0.500000
O O2 0.632316 0.005151 0.394936
O O3 0.601989 0.601047 0.375776
O O4 0.532034 0.906280 0.370792
O O5 0.232118 0.408639 0.856075
O O6 0.199869 0.801754 0.888285
O O7 0.204922 0.511295 0.000000
O O8 0.392111 0.670294 0.500000
O O9 0.431533 0.797471 0.367103
O O10 0.330809 0.699732 0.378585
O O11 0.500000 0.500000 0.121335
O O12 0.500000 0.264095 0.250000
O O13 0.699747 0.500000 0.750000
#
# Coordination Sequence:
#
# PCOD8275408 Si02
#       5
#    16  16  16  16  16
#     4   8  14  24  38  52  77 114 152 184 214 258
#     4   9  17  31  46  62  88 123 165 202 233 275
#     4   9  16  24  35  53  82 118 150 175 215 278
#     4   9  16  21  33  54  86 115 144 178 218 269
#     4  10  18  25  42  64  88 117 158 196 236 269
#
# _framework density 28.529194
#
# number of rings (size 3 to 8) (size 9 to 14) (size 15 to 20)
#    0.000    3.000    0.000    4.200    8.400    2.400 
#    0.000    0.000    0.000    0.000    0.000   25.200 
#    0.000    0.800    0.000    4.400    1.600    8.400 
#
# Total GULP energy -496088.744727 kJ/mol
# GULP energy per Si atom -12402.218618 kJ/mol
# Density = 2.846426 g / cm^3
# Si number density = 28.529194 Si / 1000 Ang^3
#
#
#
# Elastic Constant Matrix: (Units=GPa)
#
#
# Indices 1 2 3 4 5 6 
#
# 1 340.6956 112.8271 109.4361 0.0000 0.0000 0.0000
# 2 112.8271 152.1101 24.9722 0.0000 0.0000 0.0000
# 3 109.4361 24.9722 151.3936 0.0000 0.0000 0.0000
# 4 0.0000 0.0000 0.0000 -6.2840 0.0000 0.0000
# 5 0.0000 0.0000 0.0000 0.0000 49.9080 0.0000
# 6 0.0000 0.0000 0.0000 0.0000 0.0000 62.9598
#
#
#
# Elastic Compliance Matrix: (Units=1/GPa)
#
#
# Indices 1 2 3 4 5 6 
#
# 1 0.004978 -0.003188 -0.003072 0.000000 0.000000 0.000000
# 2 -0.003188 0.008799 0.000853 0.000000 0.000000 0.000000
# 3 -0.003072 0.000853 0.008686 0.000000 0.000000 0.000000
# 4 0.000000 0.000000 0.000000 -0.159135 0.000000 0.000000
# 5 0.000000 0.000000 0.000000 0.000000 0.020037 0.000000
# 6 0.000000 0.000000 0.000000 0.000000 0.000000 0.015883
#
#
# Mechanical properties :
#
#
# Convention : Reuss Voigt Hill
#
# Bulk Modulus (GPa) = 85.85491 126.51889 106.18690
# Shear Modulus (GPa) = -58.10191 47.78103 -5.16044
#
# Velocity S-wave (km/s) = -4.51774 4.09689 -1.34639
# Velocity P-wave (km/s) = 1.71631 8.17452 5.90629
#
# Compressibility (1/GPa) = 0.01164756
#
# Stress axis : x y z
#
# Youngs Moduli (GPa) = 200.89298 113.65298 115.13439
#
# Poissons Ratio (x) = 0.36231 0.35374
# Poissons Ratio (y) = 0.64042 -0.09821
# Poissons Ratio (z) = 0.61722 -0.09695
#
# Static dielectric constant tensor:
#      x y z
#    x 6.824000 0.000000 0.000000 
#    y 0.000000 6.760810 0.000000 
#    z 0.000000 0.000000 4.377140 
# 
# 
# High freq. dielectric constant tensor:
#      x y z
#    x 2.233600 0.000000 0.000000 
#    y 0.000000 2.276000 0.000000 
#    z 0.000000 0.000000 2.099860 
# 
# From -- ./inp_files/33124.got.cif
#   From: 2010.03.12/outbox.cif.g09.slc.cpg/sg66_17_cif.got.tgz:33124.got - 2010.04.10 21:57:39.
