data_PCOD8275015
_publ_section_title
;
Structure prediction by ZEFSAII (Michael W. Deem and Ramdas Pophale) SiO2 
 PCOD8275015
Probable space group: C M M M
;
_chemical_formula_sum "Si O2"
_cell_formula_units_Z 72
_cell_length_a 23.727819
_cell_length_b 22.239872
_cell_length_c 9.978183
_cell_angle_alpha 90.000000
_cell_angle_beta 90.000000
_cell_angle_gamma 90.000000
_cell_volume 5265.523663
_symmetry_space_group_name_H-M "C M M M"
_symmetry_group_IT_number 65
_symmetry_cell_setting 'orthorhombic'
loop_
_space_group_symop_operation_xyz
x,y,z
-x,-y,z
x,-y,-z
-x,y,-z
-x,-y,-z
x,y,-z
-x,y,z
x,-y,z
1/2+x,1/2+y,z
1/2-x,1/2-y,z
1/2+x,1/2-y,-z
1/2-x,1/2+y,-z
1/2-x,1/2-y,-z
1/2+x,1/2+y,-z
1/2-x,1/2+y,z
1/2+x,1/2-y,z
loop_
_atom_site_type_symbol
_atom_site_label
_atom_site_fract_x
_atom_site_fract_y
_atom_site_fract_z
Si Si1 0.295965 0.665438 0.650000
Si Si2 0.267486 0.568581 0.152724
Si Si3 0.063362 0.500000 0.840744
Si Si4 0.640259 0.891951 0.845085
Si Si5 0.167762 0.293298 0.650479
O O1 0.310291 0.642926 0.500000
O O2 0.305876 0.611095 0.753614
O O3 0.231910 0.686196 0.657624
O O4 0.335506 0.722411 0.687775
O O5 0.281601 0.500000 0.189334
O O6 0.201415 0.579151 0.176049
O O7 0.283674 0.583208 0.000000
O O8 0.095134 0.440204 0.790859
O O9 0.000000 0.500000 0.783177
O O10 0.064197 0.500000 0.000000
O O11 0.631809 0.831715 0.757008
O O12 0.630045 0.874882 0.000000
O O13 0.144269 0.303812 0.500000
#
# Coordination Sequence:
#
# PCOD8275015 Si02
#       5
#    16  16   8  16  16
#     4   8  14  23  33  46  64  85 109 136 165 201
#     4   9  15  22  32  47  68  89 111 141 172 199
#     4   9  16  26  39  53  69  89 115 149 185 215
#     4   9  15  24  37  50  63  83 113 144 174 209
#     4   8  14  24  35  47  64  83 105 137 173 204
#
# _framework density 13.673855
#
# number of rings (size 3 to 8) (size 9 to 14) (size 15 to 20)
#    0.000    3.444    1.111    1.333    0.000    1.333 
#    0.000    5.000    0.000    1.333    0.000    0.000 
#    0.000    0.000    0.000    0.000    0.000    1.111 
#
# Total GULP energy -446147.504866 kJ/mol
# GULP energy per Si atom -12392.986246 kJ/mol
# Density = 1.364273 g / cm^3
# Si number density = 13.673855 Si / 1000 Ang^3
#
#
#
# Elastic Constant Matrix: (Units=GPa)
#
#
# Indices 1 2 3 4 5 6 
#
# 1 25.6696 31.1216 22.2353 0.0000 0.0000 0.0000
# 2 31.1216 126.2621 79.8829 0.0000 0.0000 0.0000
# 3 22.2353 79.8829 85.7325 0.0000 0.0000 0.0000
# 4 0.0000 0.0000 0.0000 27.5889 0.0000 0.0000
# 5 0.0000 0.0000 0.0000 0.0000 6.2628 0.0000
# 6 0.0000 0.0000 0.0000 0.0000 0.0000 10.0954
#
#
#
# Elastic Compliance Matrix: (Units=1/GPa)
#
#
# Indices 1 2 3 4 5 6 
#
# 1 0.056134 -0.011267 -0.004060 0.000000 0.000000 0.000000
# 2 -0.011267 0.021556 -0.017163 0.000000 0.000000 0.000000
# 3 -0.004060 -0.017163 0.028709 0.000000 0.000000 0.000000
# 4 0.000000 0.000000 0.000000 0.036246 0.000000 0.000000
# 5 0.000000 0.000000 0.000000 0.000000 0.159673 0.000000
# 6 0.000000 0.000000 0.000000 0.000000 0.000000 0.099055
#
#
# Mechanical properties :
#
#
# Convention : Reuss Voigt Hill
#
# Bulk Modulus (GPa) = 24.14400 56.01598 40.07999
# Shear Modulus (GPa) = 10.41322 15.75105 13.08214
#
# Velocity S-wave (km/s) = 2.76260 3.39766 3.09646
# Velocity P-wave (km/s) = 5.27933 7.51311 6.49300
#
# Compressibility (1/GPa) = 0.04141815
#
# Stress axis : x y z
#
# Youngs Moduli (GPa) = 17.81454 46.39167 34.83254
#
# Poissons Ratio (x) = 0.52271 0.14143
# Poissons Ratio (y) = 0.20072 0.59782
# Poissons Ratio (z) = 0.07233 0.79620
#
# Static dielectric constant tensor:
#      x y z
#    x 2.250070 0.000000 0.000000 
#    y 0.000000 2.966590 0.000000 
#    z 0.000000 0.000000 2.809620 
# 
# 
# High freq. dielectric constant tensor:
#      x y z
#    x 1.445590 0.000000 0.000000 
#    y 0.000000 1.527410 0.000000 
#    z 0.000000 0.000000 1.519860 
# 
# From -- ./inp_files/11439.got.cif
#   From: 2010.03.12/outbox.cif.g09.slc.cpg/sg65_6_cif.got.tgz:11439.got - 2010.04.10 20:52:16.
