data_PCOD8275714
_publ_section_title
;
Structure prediction by ZEFSAII (Michael W. Deem and Ramdas Pophale) SiO2 
 PCOD8275714
Probable space group: C C C M
;
_chemical_formula_sum "Si O2"
_cell_formula_units_Z 80
_cell_length_a 28.993268
_cell_length_b 23.161555
_cell_length_c 8.667447
_cell_angle_alpha 90.000000
_cell_angle_beta 90.000000
_cell_angle_gamma 90.000000
_cell_volume 5820.443502
_symmetry_space_group_name_H-M "C C C M"
_symmetry_group_IT_number 66
_symmetry_cell_setting 'orthorhombic'
loop_
_space_group_symop_operation_xyz
x,y,z
-x,-y,z
x,-y,1/2-z
-x,y,1/2-z
-x,-y,-z
x,y,-z
-x,y,1/2+z
x,-y,1/2+z
1/2+x,1/2+y,z
1/2-x,1/2-y,z
1/2+x,1/2-y,1/2-z
1/2-x,1/2+y,1/2-z
1/2-x,1/2-y,-z
1/2+x,1/2+y,-z
1/2-x,1/2+y,1/2+z
1/2+x,1/2-y,1/2+z
loop_
_atom_site_type_symbol
_atom_site_label
_atom_site_fract_x
_atom_site_fract_y
_atom_site_fract_z
Si Si1 0.549245 0.938626 0.817606
Si Si2 0.766494 0.172476 0.323528
Si Si3 0.781327 0.439571 0.321590
Si Si4 0.817007 0.736830 0.677582
Si Si5 0.632307 0.125759 0.818081
O O1 0.500000 0.920243 0.750000
O O2 0.585676 0.890137 0.769730
O O3 0.565480 0.000000 0.750000
O O4 0.545595 0.943656 0.000000
O O5 0.755255 0.188230 0.500000
O O6 0.762875 0.103367 0.300303
O O7 0.815496 0.202300 0.274083
O O8 0.729063 0.200812 0.211637
O O9 0.765988 0.500000 0.250000
O O10 0.794001 0.447543 0.500000
O O11 0.826380 0.415046 0.238078
O O12 0.819828 0.753703 0.500000
O O13 0.858736 0.693528 0.722359
O O14 0.626620 0.116495 0.000000
#
# Coordination Sequence:
#
# PCOD8275714 Si02
#       5
#    16  16  16  16  16
#     4  11  21  33  46  58  74  96 122 154 191 230
#     4   9  16  25  37  52  72  94 119 150 184 219
#     4  10  19  28  38  54  74  99 127 157 190 222
#     4   9  16  25  39  55  71  92 118 148 183 219
#     4  10  19  30  42  57  75  95 122 156 190 226
#
# _framework density 13.744657999999999
#
# number of rings (size 3 to 8) (size 9 to 14) (size 15 to 20)
#    0.000    2.200    0.000    6.600    0.000    4.800 
#    0.000    0.000    0.000    0.000    0.000    0.000 
#    0.000    0.000    0.000    0.000    0.000    1.000 
#
# Total GULP energy -495629.917516 kJ/mol
# GULP energy per Si atom -12390.747938 kJ/mol
# Density = 1.371337 g / cm^3
# Si number density = 13.744658 Si / 1000 Ang^3
#
#
#
# Elastic Constant Matrix: (Units=GPa)
#
#
# Indices 1 2 3 4 5 6 
#
# 1 55.1195 47.5293 32.6410 0.0000 0.0000 0.0000
# 2 47.5293 93.7622 40.6194 0.0000 0.0000 0.0000
# 3 32.6410 40.6194 81.9147 0.0000 0.0000 0.0000
# 4 0.0000 0.0000 0.0000 22.4076 0.0000 0.0000
# 5 0.0000 0.0000 0.0000 0.0000 18.1329 0.0000
# 6 0.0000 0.0000 0.0000 0.0000 0.0000 21.6607
#
#
#
# Elastic Compliance Matrix: (Units=1/GPa)
#
#
# Indices 1 2 3 4 5 6 
#
# 1 0.034760 -0.014799 -0.006513 0.000000 0.000000 0.000000
# 2 -0.014799 0.019884 -0.003963 0.000000 0.000000 0.000000
# 3 -0.006513 -0.003963 0.016768 0.000000 0.000000 0.000000
# 4 0.000000 0.000000 0.000000 0.044628 0.000000 0.000000
# 5 0.000000 0.000000 0.000000 0.000000 0.055148 0.000000
# 6 0.000000 0.000000 0.000000 0.000000 0.000000 0.046167
#
#
# Mechanical properties :
#
#
# Convention : Reuss Voigt Hill
#
# Bulk Modulus (GPa) = 47.93157 52.48621 50.20889
# Shear Modulus (GPa) = 18.19120 19.77402 18.98261
#
# Velocity S-wave (km/s) = 3.64196 3.79709 3.72033
# Velocity P-wave (km/s) = 7.25491 7.58244 7.42048
#
# Compressibility (1/GPa) = 0.02086308
#
# Stress axis : x y z
#
# Youngs Moduli (GPa) = 28.76854 50.29205 59.63722
#
# Poissons Ratio (x) = 0.74427 0.38840
# Poissons Ratio (y) = 0.42575 0.23633
# Poissons Ratio (z) = 0.18736 0.19930
#
# Static dielectric constant tensor:
#      x y z
#    x 2.577530 0.000000 0.000000 
#    y 0.000000 3.181770 0.000000 
#    z 0.000000 0.000000 2.869630 
# 
# 
# High freq. dielectric constant tensor:
#      x y z
#    x 1.471540 0.000000 0.000000 
#    y 0.000000 1.517430 0.000000 
#    z 0.000000 0.000000 1.547650 
# 
# From -- ./inp_files/8216.got.cif
#   From: 2010.03.12/outbox.cif.g09.slc.cpg/sg66_5_cif.got.tgz:8216.got - 2010.04.10 21:57:39.
