data_PCOD8275847
_publ_section_title
;
Structure prediction by ZEFSAII (Michael W. Deem and Ramdas Pophale) SiO2 
 PCOD8275847
Probable space group: C C C M
;
_chemical_formula_sum "Si O2"
_cell_formula_units_Z 56
_cell_length_a 24.195639
_cell_length_b 20.876080
_cell_length_c 5.329271
_cell_angle_alpha 90.000000
_cell_angle_beta 90.000000
_cell_angle_gamma 90.000000
_cell_volume 2691.868583
_symmetry_space_group_name_H-M "C C C M"
_symmetry_group_IT_number 66
_symmetry_cell_setting 'orthorhombic'
loop_
_space_group_symop_operation_xyz
x,y,z
-x,-y,z
x,-y,1/2-z
-x,y,1/2-z
-x,-y,-z
x,y,-z
-x,y,1/2+z
x,-y,1/2+z
1/2+x,1/2+y,z
1/2-x,1/2-y,z
1/2+x,1/2-y,1/2-z
1/2-x,1/2+y,1/2-z
1/2-x,1/2-y,-z
1/2+x,1/2+y,-z
1/2-x,1/2+y,1/2+z
1/2+x,1/2-y,1/2+z
loop_
_atom_site_type_symbol
_atom_site_label
_atom_site_fract_x
_atom_site_fract_y
_atom_site_fract_z
Si Si1 0.925310 0.015015 0.500000
Si Si2 0.329026 0.407859 0.500000
Si Si3 0.967671 0.391284 0.500000
Si Si4 0.370906 0.645283 0.500000
Si Si5 0.343849 0.927435 0.500000
Si Si6 0.032985 0.759662 0.500000
Si Si7 0.702563 0.929825 0.500000
O O1 0.915588 0.089593 0.500000
O O2 0.960371 0.000000 0.250000
O O3 0.870062 0.969383 0.500000
O O4 0.335227 0.362521 0.254540
O O5 0.268208 0.437051 0.500000
O O6 0.909660 0.427163 0.500000
O O7 0.957539 0.315709 0.500000
O O8 0.000000 0.412838 0.250000
O O9 0.405398 0.710941 0.500000
O O10 0.319443 0.892935 0.249470
O O11 0.323606 0.000112 0.500000
O O12 0.000000 0.781751 0.750000
#
# Coordination Sequence:
#
# PCOD8275847 Si02
#       7
#     8   8   8   8   8   8   8
#     4   8  16  25  44  69  99 129 176 205 243 310
#     4  10  19  31  53  78 109 150 184 207 259 341
#     4  10  21  40  62  80 105 147 189 223 280 329
#     4  10  19  31  53  81 105 135 190 226 262 322
#     4  10  21  34  55  84 115 141 181 233 260 318
#     4  10  21  38  61  81 102 139 189 240 279 319
#     4  10  21  33  53  83 116 149 178 214 272 322
#
# _framework density 20.803394000000001
#
# number of rings (size 3 to 8) (size 9 to 14) (size 15 to 20)
#    0.000    2.286    0.000    2.571   12.000    0.000 
#    0.000    8.571    0.000   28.286    0.000    0.000 
#    0.000    0.000    0.000    0.000    0.000    0.000 
#
# Total GULP energy -346896.572877 kJ/mol
# GULP energy per Si atom -12389.163317 kJ/mol
# Density = 2.075604 g / cm^3
# Si number density = 20.803394 Si / 1000 Ang^3
#
#
#
# Elastic Constant Matrix: (Units=GPa)
#
#
# Indices 1 2 3 4 5 6 
#
# 1 157.2675 35.6040 46.4253 0.0000 0.0000 0.0000
# 2 35.6040 25.3308 19.8125 0.0000 0.0000 0.0000
# 3 46.4253 19.8125 225.7528 0.0000 0.0000 0.0000
# 4 0.0000 0.0000 0.0000 9.2573 0.0000 0.0000
# 5 0.0000 0.0000 0.0000 0.0000 46.0555 0.0000
# 6 0.0000 0.0000 0.0000 0.0000 0.0000 6.5503
#
#
#
# Elastic Compliance Matrix: (Units=1/GPa)
#
#
# Indices 1 2 3 4 5 6 
#
# 1 0.009471 -0.012658 -0.000837 0.000000 0.000000 0.000000
# 2 -0.012658 0.059304 -0.002602 0.000000 0.000000 0.000000
# 3 -0.000837 -0.002602 0.004830 0.000000 0.000000 0.000000
# 4 0.000000 0.000000 0.000000 0.108023 0.000000 0.000000
# 5 0.000000 0.000000 0.000000 0.000000 0.021713 0.000000
# 6 0.000000 0.000000 0.000000 0.000000 0.000000 0.152666
#
#
# Mechanical properties :
#
#
# Convention : Reuss Voigt Hill
#
# Bulk Modulus (GPa) = 24.14727 68.00387 46.07557
# Shear Modulus (GPa) = 12.43768 32.80655 22.62211
#
# Velocity S-wave (km/s) = 2.44779 3.97543 3.30119
# Velocity P-wave (km/s) = 4.42961 7.33702 6.06025
#
# Compressibility (1/GPa) = 0.04141254
#
# Stress axis : x y z
#
# Youngs Moduli (GPa) = 105.58234 16.86229 207.03761
#
# Poissons Ratio (x) = 0.21344 0.17326
# Poissons Ratio (y) = 1.33645 0.53863
# Poissons Ratio (z) = 0.08836 0.04387
#
# Static dielectric constant tensor:
#      x y z
#    x 3.484660 0.000000 0.000000 
#    y 0.000000 3.263840 0.000000 
#    z 0.000000 0.000000 8.918330 
# 
# 
# High freq. dielectric constant tensor:
#      x y z
#    x 1.807410 0.000000 0.000000 
#    y 0.000000 1.760270 0.000000 
#    z 0.000000 0.000000 1.860780 
# 
# From -- ./inp_files/1197.got.cif
#   From: 2010.03.12/outbox.cif.g09.slc.cpg/sg66_1_cif.got.tgz:1197.got - 2010.04.10 21:57:39.
