data_PCOD8275279
_publ_section_title
;
Structure prediction by ZEFSAII (Michael W. Deem and Ramdas Pophale) SiO2 
 PCOD8275279
Probable space group: C C C M
;
_chemical_formula_sum "Si O2"
_cell_formula_units_Z 80
_cell_length_a 23.101866
_cell_length_b 29.119205
_cell_length_c 8.608818
_cell_angle_alpha 90.000000
_cell_angle_beta 90.000000
_cell_angle_gamma 90.000000
_cell_volume 5791.220498
_symmetry_space_group_name_H-M "C C C M"
_symmetry_group_IT_number 66
_symmetry_cell_setting 'orthorhombic'
loop_
_space_group_symop_operation_xyz
x,y,z
-x,-y,z
x,-y,1/2-z
-x,y,1/2-z
-x,-y,-z
x,y,-z
-x,y,1/2+z
x,-y,1/2+z
1/2+x,1/2+y,z
1/2-x,1/2-y,z
1/2+x,1/2-y,1/2-z
1/2-x,1/2+y,1/2-z
1/2-x,1/2-y,-z
1/2+x,1/2+y,-z
1/2-x,1/2+y,1/2+z
1/2+x,1/2-y,1/2+z
loop_
_atom_site_type_symbol
_atom_site_label
_atom_site_fract_x
_atom_site_fract_y
_atom_site_fract_z
Si Si1 0.327269 0.267537 0.318665
Si Si2 0.061419 0.450408 0.816267
Si Si3 0.868154 0.369258 0.184251
Si Si4 0.765995 0.680065 0.817867
Si Si5 0.438404 0.219057 0.321122
O O1 0.312780 0.260328 0.500000
O O2 0.299305 0.315280 0.255601
O O3 0.298816 0.227033 0.219593
O O4 0.396518 0.263294 0.291814
O O5 0.077839 0.500000 0.750000
O O6 0.111068 0.415644 0.764710
O O7 0.000000 0.433201 0.750000
O O8 0.057079 0.453142 0.000000
O O9 0.801788 0.361211 0.238165
O O10 0.908643 0.327326 0.245176
O O11 0.870165 0.374133 0.000000
O O12 0.761350 0.671060 0.000000
O O13 0.500000 0.230174 0.250000
O O14 0.448999 0.210416 0.500000
#
# Coordination Sequence:
#
# PCOD8275279 Si02
#       5
#    16  16  16  16  16
#     4   9  16  27  38  51  73 100 124 152 190 230
#     4  11  21  33  46  60  77 100 128 160 197 238
#     4  10  19  31  43  57  76  99 126 161 199 235
#     4  10  17  25  39  58  73  92 122 157 192 228
#     4   9  18  27  38  54  74  99 127 157 192 227
#
# _framework density 13.814014
#
# number of rings (size 3 to 8) (size 9 to 14) (size 15 to 20)
#    0.000    2.200    0.000    8.400    0.000    6.400 
#    0.000    0.000    0.000    0.000    0.000    0.000 
#    0.000    0.000    0.000    0.000    0.000    1.000 
#
# Total GULP energy -495708.046889 kJ/mol
# GULP energy per Si atom -12392.701172 kJ/mol
# Density = 1.378257 g / cm^3
# Si number density = 13.814014 Si / 1000 Ang^3
#
#
#
# Elastic Constant Matrix: (Units=GPa)
#
#
# Indices 1 2 3 4 5 6 
#
# 1 87.6202 46.3148 36.1709 0.0000 0.0000 0.0000
# 2 46.3148 57.8201 27.6722 0.0000 0.0000 0.0000
# 3 36.1709 27.6722 85.3786 0.0000 0.0000 0.0000
# 4 0.0000 0.0000 0.0000 19.0717 0.0000 0.0000
# 5 0.0000 0.0000 0.0000 0.0000 23.9667 0.0000
# 6 0.0000 0.0000 0.0000 0.0000 0.0000 21.0803
#
#
#
# Elastic Compliance Matrix: (Units=1/GPa)
#
#
# Indices 1 2 3 4 5 6 
#
# 1 0.020919 -0.014813 -0.004062 0.000000 0.000000 0.000000
# 2 -0.014813 0.030959 -0.003759 0.000000 0.000000 0.000000
# 3 -0.004062 -0.003759 0.014651 0.000000 0.000000 0.000000
# 4 0.000000 0.000000 0.000000 0.052434 0.000000 0.000000
# 5 0.000000 0.000000 0.000000 0.000000 0.041725 0.000000
# 6 0.000000 0.000000 0.000000 0.000000 0.000000 0.047438
#
#
# Mechanical properties :
#
#
# Convention : Reuss Voigt Hill
#
# Bulk Modulus (GPa) = 47.02830 50.12607 48.57719
# Shear Modulus (GPa) = 19.19528 20.86782 20.03155
#
# Velocity S-wave (km/s) = 3.73171 3.89089 3.81213
# Velocity P-wave (km/s) = 7.25847 7.52001 7.39040
#
# Compressibility (1/GPa) = 0.02126379
#
# Stress axis : x y z
#
# Youngs Moduli (GPa) = 47.80232 32.30038 68.25260
#
# Poissons Ratio (x) = 0.47847 0.27721
# Poissons Ratio (y) = 0.70810 0.25654
# Poissons Ratio (z) = 0.19415 0.12141
#
# Static dielectric constant tensor:
#      x y z
#    x 3.211030 0.000000 0.000000 
#    y 0.000000 2.587780 0.000000 
#    z 0.000000 0.000000 2.793280 
# 
# 
# High freq. dielectric constant tensor:
#      x y z
#    x 1.517620 0.000000 0.000000 
#    y 0.000000 1.477460 0.000000 
#    z 0.000000 0.000000 1.544640 
# 
# From -- ./inp_files/8222.got.cif
#   From: 2010.03.12/outbox.cif.g09.slc.cpg/sg66_5_cif.got.tgz:8222.got - 2010.04.10 21:57:39.
