data_PCOD8275444
_publ_section_title
;
Structure prediction by ZEFSAII (Michael W. Deem and Ramdas Pophale) SiO2 
 PCOD8275444
Probable space group: C C C M
;
_chemical_formula_sum "Si O2"
_cell_formula_units_Z 128
_cell_length_a 11.380214
_cell_length_b 23.008342
_cell_length_c 27.234541
_cell_angle_alpha 90.000000
_cell_angle_beta 90.000000
_cell_angle_gamma 90.000000
_cell_volume 7131.088287
_symmetry_space_group_name_H-M "C C C M"
_symmetry_group_IT_number 66
_symmetry_cell_setting 'orthorhombic'
loop_
_space_group_symop_operation_xyz
x,y,z
-x,-y,z
x,-y,1/2-z
-x,y,1/2-z
-x,-y,-z
x,y,-z
-x,y,1/2+z
x,-y,1/2+z
1/2+x,1/2+y,z
1/2-x,1/2-y,z
1/2+x,1/2-y,1/2-z
1/2-x,1/2+y,1/2-z
1/2-x,1/2-y,-z
1/2+x,1/2+y,-z
1/2-x,1/2+y,1/2+z
1/2+x,1/2-y,1/2+z
loop_
_atom_site_type_symbol
_atom_site_label
_atom_site_fract_x
_atom_site_fract_y
_atom_site_fract_z
Si Si1 0.259319 0.684328 0.858169
Si Si2 0.098450 0.953559 0.641113
Si Si3 0.196021 0.599127 0.944137
Si Si4 0.545032 0.367842 0.196652
Si Si5 0.937633 0.381506 0.198477
Si Si6 0.236007 0.032511 0.298147
Si Si7 0.763208 0.966853 0.944482
Si Si8 0.966332 0.434543 0.392465
O O1 0.250000 0.750000 0.877038
O O2 0.259692 0.641894 0.905498
O O3 0.388241 0.683788 0.831792
O O4 0.153449 0.668141 0.820085
O O5 0.117930 0.945127 0.582993
O O6 0.068030 0.892424 0.666967
O O7 0.221936 0.983368 0.659363
O O8 0.000000 0.000000 0.654676
O O9 0.256084 0.536318 0.939802
O O10 0.060007 0.592843 0.930269
O O11 0.207079 0.622891 0.000000
O O12 0.500000 0.347606 0.250000
O O13 0.645962 0.415532 0.197067
O O14 0.867280 0.442524 0.203561
O O15 0.000000 0.363806 0.250000
O O16 0.036146 0.394737 0.157008
O O17 0.198010 0.000000 0.250000
O O18 0.655953 0.931701 0.920617
O O19 0.773901 0.946418 0.000000
O O20 0.000000 0.500000 0.378532
#
# Coordination Sequence:
#
# PCOD8275444 Si02
#       8
#    16  16  16  16  16  16  16  16
#     4  10  22  39  53  71  95 123 174 227 257 288
#     4  10  19  30  46  69 102 136 169 200 230 286
#     4   9  17  33  52  73  98 127 165 207 252 301
#     4  10  19  33  51  72  96 138 170 199 243 296
#     4  10  22  31  47  77 106 134 164 201 252 295
#     4  10  18  28  46  73 106 131 161 196 228 291
#     4  10  19  30  48  74 107 141 162 187 239 307
#     4   9  17  29  45  72 107 138 161 186 233 302
#
# _framework density 17.949574999999999
#
# number of rings (size 3 to 8) (size 9 to 14) (size 15 to 20)
#    0.000    2.250    1.250    4.125    3.500    2.500 
#    0.000    0.625    0.000    0.000    0.000    0.000 
#    0.000    5.000    0.000    0.000    0.000    0.000 
#
# Total GULP energy -793073.745485 kJ/mol
# GULP energy per Si atom -12391.777273 kJ/mol
# Density = 1.790872 g / cm^3
# Si number density = 17.949575 Si / 1000 Ang^3
#
#
#
# Elastic Constant Matrix: (Units=GPa)
#
#
# Indices 1 2 3 4 5 6 
#
# 1 41.5992 18.3078 35.1097 0.0000 0.0000 0.0000
# 2 18.3078 44.3098 28.0238 0.0000 0.0000 0.0000
# 3 35.1097 28.0238 142.5548 0.0000 0.0000 0.0000
# 4 0.0000 0.0000 0.0000 14.3228 0.0000 0.0000
# 5 0.0000 0.0000 0.0000 0.0000 31.6029 0.0000
# 6 0.0000 0.0000 0.0000 0.0000 0.0000 21.0723
#
#
#
# Elastic Compliance Matrix: (Units=1/GPa)
#
#
# Indices 1 2 3 4 5 6 
#
# 1 0.033785 -0.009931 -0.006368 0.000000 0.000000 0.000000
# 2 -0.009931 0.028692 -0.003194 0.000000 0.000000 0.000000
# 3 -0.006368 -0.003194 0.009211 0.000000 0.000000 0.000000
# 4 0.000000 0.000000 0.000000 0.069819 0.000000 0.000000
# 5 0.000000 0.000000 0.000000 0.000000 0.031643 0.000000
# 6 0.000000 0.000000 0.000000 0.000000 0.000000 0.047456
#
#
# Mechanical properties :
#
#
# Convention : Reuss Voigt Hill
#
# Bulk Modulus (GPa) = 30.58133 43.48294 37.03214
# Shear Modulus (GPa) = 18.48474 23.20110 20.84292
#
# Velocity S-wave (km/s) = 3.21255 3.59913 3.41132
# Velocity P-wave (km/s) = 5.55293 6.44588 6.01599
#
# Compressibility (1/GPa) = 0.03269969
#
# Stress axis : x y z
#
# Youngs Moduli (GPa) = 29.59914 34.85280 108.56230
#
# Poissons Ratio (x) = 0.34614 0.69138
# Poissons Ratio (y) = 0.29396 0.34679
# Poissons Ratio (z) = 0.18850 0.11133
#
# Static dielectric constant tensor:
#      x y z
#    x 3.408710 0.000000 0.000000 
#    y 0.000000 2.581590 0.000000 
#    z 0.000000 0.000000 3.471000 
# 
# 
# High freq. dielectric constant tensor:
#      x y z
#    x 1.688870 0.000000 0.000000 
#    y 0.000000 1.639940 0.000000 
#    z 0.000000 0.000000 1.707620 
# 
# From -- ./inp_files/64008.got.cif
#   From: 2010.03.12/outbox.cif.g09.slc.cpg/sg66_33_cif.got.tgz:64008.got - 2010.04.10 21:57:39.
