data_PCOD8275357
_publ_section_title
;
Structure prediction by ZEFSAII (Michael W. Deem and Ramdas Pophale) SiO2 
 PCOD8275357
Probable space group: C C C M
;
_chemical_formula_sum "Si O2"
_cell_formula_units_Z 112
_cell_length_a 13.912114
_cell_length_b 23.549358
_cell_length_c 20.806782
_cell_angle_alpha 90.000000
_cell_angle_beta 90.000000
_cell_angle_gamma 90.000000
_cell_volume 6816.746073
_symmetry_space_group_name_H-M "C C C M"
_symmetry_group_IT_number 66
_symmetry_cell_setting 'orthorhombic'
loop_
_space_group_symop_operation_xyz
x,y,z
-x,-y,z
x,-y,1/2-z
-x,y,1/2-z
-x,-y,-z
x,y,-z
-x,y,1/2+z
x,-y,1/2+z
1/2+x,1/2+y,z
1/2-x,1/2-y,z
1/2+x,1/2-y,1/2-z
1/2-x,1/2+y,1/2-z
1/2-x,1/2-y,-z
1/2+x,1/2+y,-z
1/2-x,1/2+y,1/2+z
1/2+x,1/2-y,1/2+z
loop_
_atom_site_type_symbol
_atom_site_label
_atom_site_fract_x
_atom_site_fract_y
_atom_site_fract_z
Si Si1 0.506988 0.566102 0.426663
Si Si2 0.824933 0.854504 0.570546
Si Si3 0.314251 0.193727 0.668115
Si Si4 0.733889 0.817105 0.803784
Si Si5 0.472224 0.264381 0.614584
Si Si6 0.839285 0.708025 0.069006
Si Si7 0.942332 0.861895 0.810988
O O1 0.500000 0.500000 0.411882
O O2 0.471919 0.579549 0.500000
O O3 0.616971 0.587027 0.417914
O O4 0.442487 0.598291 0.374073
O O5 0.777090 0.854199 0.500000
O O6 0.739984 0.851176 0.622476
O O7 0.899332 0.801686 0.572058
O O8 0.250000 0.250000 0.672308
O O9 0.327306 0.168265 0.739858
O O10 0.418818 0.208095 0.640382
O O11 0.750000 0.750000 0.808782
O O12 0.676017 0.834148 0.869471
O O13 0.831662 0.851915 0.794799
O O14 0.563910 0.245105 0.574112
O O15 0.505925 0.301996 0.675099
O O16 0.750000 0.750000 0.066380
O O17 0.844194 0.674987 0.000000
O O18 0.000000 0.888922 0.750000
#
# Coordination Sequence:
#
# PCOD8275357 Si02
#       7
#    16  16  16  16  16  16  16
#     4   9  19  34  49  66  90 121 157 197 244 290
#     4   9  17  29  45  65  87 114 151 193 229 270
#     4   9  18  28  42  62  87 120 156 186 223 271
#     4  10  17  30  40  59  90 121 153 190 224 266
#     4  10  18  28  43  61  89 127 157 184 225 273
#     4  10  19  28  39  58  86 121 159 195 223 256
#     4  11  19  29  47  67  91 125 161 192 231 276
#
# _framework density 16.430126000000001
#
# number of rings (size 3 to 8) (size 9 to 14) (size 15 to 20)
#    0.000    2.286    2.857    3.857    0.000    4.571 
#    0.000    0.000    0.000    0.000    0.000    0.000 
#    0.000    1.143    0.000    9.571    0.571    2.714 
#
# Total GULP energy -693882.915801 kJ/mol
# GULP energy per Si atom -12390.766354 kJ/mol
# Density = 1.639273 g / cm^3
# Si number density = 16.430126 Si / 1000 Ang^3
#
#
#
# Elastic Constant Matrix: (Units=GPa)
#
#
# Indices 1 2 3 4 5 6 
#
# 1 72.4302 30.1489 38.7301 0.0000 0.0000 0.0000
# 2 30.1489 51.2162 36.4064 0.0000 0.0000 0.0000
# 3 38.7301 36.4064 144.1330 0.0000 0.0000 0.0000
# 4 0.0000 0.0000 0.0000 11.5582 0.0000 0.0000
# 5 0.0000 0.0000 0.0000 0.0000 -18.6647 0.0000
# 6 0.0000 0.0000 0.0000 0.0000 0.0000 12.1832
#
#
#
# Elastic Compliance Matrix: (Units=1/GPa)
#
#
# Indices 1 2 3 4 5 6 
#
# 1 0.019175 -0.009293 -0.002805 0.000000 0.000000 0.000000
# 2 -0.009293 0.028302 -0.004652 0.000000 0.000000 0.000000
# 3 -0.002805 -0.004652 0.008867 0.000000 0.000000 0.000000
# 4 0.000000 0.000000 0.000000 0.086519 0.000000 0.000000
# 5 0.000000 0.000000 0.000000 0.000000 -0.053577 0.000000
# 6 0.000000 0.000000 0.000000 0.000000 0.000000 0.082081
#
#
# Mechanical properties :
#
#
# Convention : Reuss Voigt Hill
#
# Bulk Modulus (GPa) = 43.77603 53.15003 48.46303
# Shear Modulus (GPa) = 23.53161 11.84828 17.68994
#
# Velocity S-wave (km/s) = 3.78858 2.68830 3.28484
# Velocity P-wave (km/s) = 6.77048 6.48501 6.62928
#
# Compressibility (1/GPa) = 0.02284355
#
# Stress axis : x y z
#
# Youngs Moduli (GPa) = 52.15210 35.33285 112.78132
#
# Poissons Ratio (x) = 0.32836 0.31635
# Poissons Ratio (y) = 0.48467 0.52461
# Poissons Ratio (z) = 0.14629 0.16435
#
# Static dielectric constant tensor:
#      x y z
#    x 3.038930 0.000000 0.000000 
#    y 0.000000 2.627650 0.000000 
#    z 0.000000 0.000000 3.875790 
# 
# 
# High freq. dielectric constant tensor:
#      x y z
#    x 1.616980 0.000000 0.000000 
#    y 0.000000 1.553170 0.000000 
#    z 0.000000 0.000000 1.664330 
# 
# From -- ./inp_files/49141.got.cif
#   From: 2010.03.12/outbox.cif.g09.slc.cpg/sg66_25_cif.got.tgz:49141.got - 2010.04.10 21:57:39.
