data_PCOD8275267
_publ_section_title
;
Structure prediction by ZEFSAII (Michael W. Deem and Ramdas Pophale) SiO2 
 PCOD8275267
Probable space group: C C C M
;
_chemical_formula_sum "Si O2"
_cell_formula_units_Z 92
_cell_length_a 27.568045
_cell_length_b 19.059172
_cell_length_c 9.639448
_cell_angle_alpha 90.000000
_cell_angle_beta 90.000000
_cell_angle_gamma 90.000000
_cell_volume 5064.798399
_symmetry_space_group_name_H-M "C C C M"
_symmetry_group_IT_number 66
_symmetry_cell_setting 'orthorhombic'
loop_
_space_group_symop_operation_xyz
x,y,z
-x,-y,z
x,-y,1/2-z
-x,y,1/2-z
-x,-y,-z
x,y,-z
-x,y,1/2+z
x,-y,1/2+z
1/2+x,1/2+y,z
1/2-x,1/2-y,z
1/2+x,1/2-y,1/2-z
1/2-x,1/2+y,1/2-z
1/2-x,1/2-y,-z
1/2+x,1/2+y,-z
1/2-x,1/2+y,1/2+z
1/2+x,1/2-y,1/2+z
loop_
_atom_site_type_symbol
_atom_site_label
_atom_site_fract_x
_atom_site_fract_y
_atom_site_fract_z
Si Si1 0.440440 0.706163 0.500000
Si Si2 0.018591 0.094244 0.500000
Si Si3 0.894934 0.441565 0.649755
Si Si4 0.500000 0.500000 0.750000
Si Si5 0.395957 0.215278 0.243454
Si Si6 0.790354 0.308525 0.843648
Si Si7 0.544555 0.256326 0.000000
Si Si8 0.219009 0.438562 0.843521
O O1 0.462475 0.625909 0.500000
O O2 0.407350 0.723211 0.366810
O O3 0.486877 0.758344 0.500000
O O4 0.055507 0.159534 0.500000
O O5 0.029470 0.049601 0.358933
O O6 0.918542 0.500000 0.750000
O O7 0.917765 0.456788 0.500000
O O8 0.906298 0.361952 0.687295
O O9 0.837646 0.453034 0.644582
O O10 0.340765 0.224960 0.292398
O O11 0.433144 0.221259 0.367101
O O12 0.750000 0.250000 0.846109
O O13 0.771336 0.366442 0.736837
O O14 0.797523 0.339544 0.000000
O O15 0.243267 0.500000 0.750000
O O16 0.241504 0.435877 0.000000
#
# Coordination Sequence:
#
# PCOD8275267 Si02
#       8
#     8   8  16   4  16  16   8  16
#     4  10  21  36  54  83 114 136 184 222 269 337
#     4   9  20  32  56  88 109 136 176 224 269 326
#     4   9  18  29  47  73 104 139 186 232 265 311
#     4  10  16  34  56  86 116 130 166 234 272 302
#     4  11  19  35  55  79 111 147 180 232 279 323
#     4  10  21  35  52  82 111 144 185 229 278 330
#     4  10  21  34  56  85 106 148 184 216 275 337
#     4   9  17  30  51  78 105 139 181 230 276 319
#
# _framework density 18.164593
#
# number of rings (size 3 to 8) (size 9 to 14) (size 15 to 20)
#    0.522    1.739    1.739    2.087    2.435    2.435 
#    0.000    0.000    0.000    3.130   13.565    0.000 
#    0.000    0.000    0.000    0.000    0.000    0.000 
#
# Total GULP energy -569909.831199 kJ/mol
# GULP energy per Si atom -12389.344156 kJ/mol
# Density = 1.812325 g / cm^3
# Si number density = 18.164593 Si / 1000 Ang^3
#
#
#
# Elastic Constant Matrix: (Units=GPa)
#
#
# Indices 1 2 3 4 5 6 
#
# 1 46.6698 18.8401 25.3914 0.0000 0.0000 0.0000
# 2 18.8401 79.5785 53.8448 0.0000 0.0000 0.0000
# 3 25.3914 53.8448 175.8897 0.0000 0.0000 0.0000
# 4 0.0000 0.0000 0.0000 9.7264 0.0000 0.0000
# 5 0.0000 0.0000 0.0000 0.0000 27.8560 0.0000
# 6 0.0000 0.0000 0.0000 0.0000 0.0000 15.0886
#
#
#
# Elastic Compliance Matrix: (Units=1/GPa)
#
#
# Indices 1 2 3 4 5 6 
#
# 1 0.024353 -0.004272 -0.002208 0.000000 0.000000 0.000000
# 2 -0.004272 0.016598 -0.004465 0.000000 0.000000 0.000000
# 3 -0.002208 -0.004465 0.007371 0.000000 0.000000 0.000000
# 4 0.000000 0.000000 0.000000 0.102813 0.000000 0.000000
# 5 0.000000 0.000000 0.000000 0.000000 0.035899 0.000000
# 6 0.000000 0.000000 0.000000 0.000000 0.000000 0.066275
#
#
# Mechanical properties :
#
#
# Convention : Reuss Voigt Hill
#
# Bulk Modulus (GPa) = 37.83030 55.36562 46.59796
# Shear Modulus (GPa) = 17.60512 24.13833 20.87173
#
# Velocity S-wave (km/s) = 3.11657 3.64932 3.39342
# Velocity P-wave (km/s) = 5.81570 6.95002 6.40801
#
# Compressibility (1/GPa) = 0.02643384
#
# Stress axis : x y z
#
# Youngs Moduli (GPa) = 41.06315 60.24703 135.66970
#
# Poissons Ratio (x) = 0.25735 0.29955
# Poissons Ratio (y) = 0.17540 0.60571
# Poissons Ratio (z) = 0.09066 0.26898
#
# Static dielectric constant tensor:
#      x y z
#    x 2.891000 0.000000 0.000000 
#    y 0.000000 3.327470 0.000000 
#    z 0.000000 0.000000 3.754050 
# 
# 
# High freq. dielectric constant tensor:
#      x y z
#    x 1.645190 0.000000 0.000000 
#    y 0.000000 1.702910 0.000000 
#    z 0.000000 0.000000 1.732210 
# 
# From -- ./inp_files/10327.got.cif
#   From: 2010.03.12/outbox.cif.g09.slc.cpg/sg66_6_cif.got.tgz:10327.got - 2010.04.10 21:57:39.
