data_PCOD8275278
_publ_section_title
;
Structure prediction by ZEFSAII (Michael W. Deem and Ramdas Pophale) SiO2 
 PCOD8275278
Probable space group: C C C M
;
_chemical_formula_sum "Si O2"
_cell_formula_units_Z 80
_cell_length_a 23.115450
_cell_length_b 28.745321
_cell_length_c 8.683534
_cell_angle_alpha 90.000000
_cell_angle_beta 90.000000
_cell_angle_gamma 90.000000
_cell_volume 5769.869948
_symmetry_space_group_name_H-M "C C C M"
_symmetry_group_IT_number 66
_symmetry_cell_setting 'orthorhombic'
loop_
_space_group_symop_operation_xyz
x,y,z
-x,-y,z
x,-y,1/2-z
-x,y,1/2-z
-x,-y,-z
x,y,-z
-x,y,1/2+z
x,-y,1/2+z
1/2+x,1/2+y,z
1/2-x,1/2-y,z
1/2+x,1/2-y,1/2-z
1/2-x,1/2+y,1/2-z
1/2-x,1/2-y,-z
1/2+x,1/2+y,-z
1/2-x,1/2+y,1/2+z
1/2+x,1/2-y,1/2+z
loop_
_atom_site_type_symbol
_atom_site_label
_atom_site_fract_x
_atom_site_fract_y
_atom_site_fract_z
Si Si1 0.561321 0.048806 0.180173
Si Si2 0.833541 0.226785 0.819606
Si Si3 0.874572 0.369245 0.323739
Si Si4 0.936935 0.726473 0.181123
Si Si5 0.768563 0.312611 0.678501
O O1 0.500000 0.064435 0.250000
O O2 0.608678 0.087948 0.215720
O O3 0.582449 0.000000 0.250000
O O4 0.553875 0.042651 0.000000
O O5 0.898029 0.231857 0.751460
O O6 0.799358 0.273754 0.781520
O O7 0.797819 0.183811 0.739453
O O8 0.837245 0.217664 0.000000
O O9 0.888506 0.382282 0.500000
O O10 0.910733 0.323703 0.274290
O O11 0.805620 0.359957 0.300891
O O12 0.000000 0.731013 0.250000
O O13 0.938840 0.733146 0.000000
O O14 0.770311 0.297283 0.500000
#
# Coordination Sequence:
#
# PCOD8275278 Si02
#       5
#    16  16  16  16  16
#     4  11  21  32  45  57  74  97 124 157 194 235
#     4  10  17  25  38  55  75  97 123 154 186 224
#     4   9  18  30  43  58  75  95 123 158 195 231
#     4  10  19  29  40  55  76 101 128 159 193 228
#     4   9  16  27  41  55  73  96 121 153 189 224
#
# _framework density 13.865131
#
# number of rings (size 3 to 8) (size 9 to 14) (size 15 to 20)
#    0.000    2.200    0.000    8.400    0.000    6.400 
#    0.000    0.000    0.000    0.000    0.000    0.000 
#    0.000    0.000    0.000    0.000    0.000    1.000 
#
# Total GULP energy -495781.066591 kJ/mol
# GULP energy per Si atom -12394.526665 kJ/mol
# Density = 1.383357 g / cm^3
# Si number density = 13.865131 Si / 1000 Ang^3
#
#
#
# Elastic Constant Matrix: (Units=GPa)
#
#
# Indices 1 2 3 4 5 6 
#
# 1 99.0370 46.7102 44.6204 0.0000 0.0000 0.0000
# 2 46.7102 50.9793 33.3099 0.0000 0.0000 0.0000
# 3 44.6204 33.3099 93.3410 0.0000 0.0000 0.0000
# 4 0.0000 0.0000 0.0000 15.4446 0.0000 0.0000
# 5 0.0000 0.0000 0.0000 0.0000 23.5850 0.0000
# 6 0.0000 0.0000 0.0000 0.0000 0.0000 22.4096
#
#
#
# Elastic Compliance Matrix: (Units=1/GPa)
#
#
# Indices 1 2 3 4 5 6 
#
# 1 0.018705 -0.014731 -0.003685 0.000000 0.000000 0.000000
# 2 -0.014731 0.037182 -0.006227 0.000000 0.000000 0.000000
# 3 -0.003685 -0.006227 0.014697 0.000000 0.000000 0.000000
# 4 0.000000 0.000000 0.000000 0.064748 0.000000 0.000000
# 5 0.000000 0.000000 0.000000 0.000000 0.042400 0.000000
# 6 0.000000 0.000000 0.000000 0.000000 0.000000 0.044624
#
#
# Mechanical properties :
#
#
# Convention : Reuss Voigt Hill
#
# Bulk Modulus (GPa) = 46.95130 54.73756 50.84443
# Shear Modulus (GPa) = 17.93782 20.20229 19.07006
#
# Velocity S-wave (km/s) = 3.60076 3.82128 3.71266
# Velocity P-wave (km/s) = 7.15707 7.68335 7.42487
#
# Compressibility (1/GPa) = 0.02129866
#
# Stress axis : x y z
#
# Youngs Moduli (GPa) = 53.46088 26.89473 68.04126
#
# Poissons Ratio (x) = 0.39619 0.25072
# Poissons Ratio (y) = 0.78754 0.42368
# Poissons Ratio (z) = 0.19699 0.16747
#
# Static dielectric constant tensor:
#      x y z
#    x 3.078920 0.000000 0.000000 
#    y 0.000000 2.502450 0.000000 
#    z 0.000000 0.000000 2.810520 
# 
# 
# High freq. dielectric constant tensor:
#      x y z
#    x 1.522940 0.000000 0.000000 
#    y 0.000000 1.474470 0.000000 
#    z 0.000000 0.000000 1.547570 
# 
# From -- ./inp_files/8203.got.cif
#   From: 2010.03.12/outbox.cif.g09.slc.cpg/sg66_5_cif.got.tgz:8203.got - 2010.04.10 21:57:39.
