data_PCOD8275831
_publ_section_title
;
Structure prediction by ZEFSAII (Michael W. Deem and Ramdas Pophale) SiO2 
 PCOD8275831
Probable space group: C C C M
;
_chemical_formula_sum "Si O2"
_cell_formula_units_Z 116
_cell_length_a 26.326502
_cell_length_b 26.745464
_cell_length_c 8.896736
_cell_angle_alpha 90.000000
_cell_angle_beta 90.000000
_cell_angle_gamma 90.000000
_cell_volume 6264.320922
_symmetry_space_group_name_H-M "C C C M"
_symmetry_group_IT_number 66
_symmetry_cell_setting 'orthorhombic'
loop_
_space_group_symop_operation_xyz
x,y,z
-x,-y,z
x,-y,1/2-z
-x,y,1/2-z
-x,-y,-z
x,y,-z
-x,y,1/2+z
x,-y,1/2+z
1/2+x,1/2+y,z
1/2-x,1/2-y,z
1/2+x,1/2-y,1/2-z
1/2-x,1/2+y,1/2-z
1/2-x,1/2-y,-z
1/2+x,1/2+y,-z
1/2-x,1/2+y,1/2+z
1/2+x,1/2-y,1/2+z
loop_
_atom_site_type_symbol
_atom_site_label
_atom_site_fract_x
_atom_site_fract_y
_atom_site_fract_z
Si Si1 0.951406 0.217235 0.674217
Si Si2 0.426591 0.820592 0.171035
Si Si3 0.248719 0.368195 0.828476
Si Si4 0.077870 0.580623 0.667941
Si Si5 0.841454 0.191871 0.671851
Si Si6 0.686251 0.790443 0.669398
Si Si7 0.317627 0.051100 0.322424
Si Si8 0.000000 0.500000 0.250000
O O1 0.962061 0.223439 0.500000
O O2 0.947046 0.272451 0.743284
O O3 0.901339 0.183646 0.706137
O O4 0.000000 0.190140 0.750000
O O5 0.446582 0.870802 0.252115
O O6 0.365677 0.821705 0.176651
O O7 0.446541 0.819840 0.000000
O O8 0.309675 0.359739 0.806035
O O9 0.224480 0.314660 0.788377
O O10 0.226046 0.408983 0.716344
O O11 0.236026 0.382934 0.000000
O O12 0.095176 0.594901 0.500000
O O13 0.127042 0.563945 0.760281
O O14 0.036595 0.536146 0.653785
O O15 0.835245 0.211114 0.500000
O O16 0.821011 0.233104 0.786511
O O17 0.708199 0.792429 0.500000
O O18 0.322157 0.045949 0.500000
O O19 0.298144 0.000000 0.250000
#
# Coordination Sequence:
#
# PCOD8275831 Si02
#       8
#    16  16  16  16  16  16  16   4
#     4  10  20  36  55  77 108 145 185 223 266 316
#     4  10  21  36  54  76 104 137 179 225 273 329
#     4  11  21  35  56  80 108 143 178 219 274 329
#     4  12  25  42  61  78 101 135 177 231 288 337
#     4   9  20  35  52  77 110 145 182 220 264 325
#     4  10  19  31  50  78 110 141 175 219 268 321
#     4  12  25  42  62  83 107 138 179 226 279 336
#     4  12  30  44  60  78 106 128 186 240 296 332
#
# _framework density 18.517569999999999
#
# number of rings (size 3 to 8) (size 9 to 14) (size 15 to 20)
#    0.000    1.379    2.069    3.931    0.966    6.069 
#    0.000    0.000    0.000    0.000    0.000    0.000 
#    0.000    0.552    0.000    6.345    0.000    1.931 
#
# Total GULP energy -719104.908188 kJ/mol
# GULP energy per Si atom -12398.360486 kJ/mol
# Density = 1.847542 g / cm^3
# Si number density = 18.517570 Si / 1000 Ang^3
#
#
#
# Elastic Constant Matrix: (Units=GPa)
#
#
# Indices 1 2 3 4 5 6 
#
# 1 110.8645 44.5091 44.2883 0.0000 0.0000 0.0000
# 2 44.5091 51.8248 29.9631 0.0000 0.0000 0.0000
# 3 44.2883 29.9631 128.6969 0.0000 0.0000 0.0000
# 4 0.0000 0.0000 0.0000 17.9787 0.0000 0.0000
# 5 0.0000 0.0000 0.0000 0.0000 24.1226 0.0000
# 6 0.0000 0.0000 0.0000 0.0000 0.0000 15.5140
#
#
#
# Elastic Compliance Matrix: (Units=1/GPa)
#
#
# Indices 1 2 3 4 5 6 
#
# 1 0.014379 -0.010964 -0.002396 0.000000 0.000000 0.000000
# 2 -0.010964 0.030657 -0.003365 0.000000 0.000000 0.000000
# 3 -0.002396 -0.003365 0.009378 0.000000 0.000000 0.000000
# 4 0.000000 0.000000 0.000000 0.055621 0.000000 0.000000
# 5 0.000000 0.000000 0.000000 0.000000 0.041455 0.000000
# 6 0.000000 0.000000 0.000000 0.000000 0.000000 0.064458
#
#
# Mechanical properties :
#
#
# Convention : Reuss Voigt Hill
#
# Bulk Modulus (GPa) = 47.69677 58.76745 53.23211
# Shear Modulus (GPa) = 19.50194 23.03145 21.26669
#
# Velocity S-wave (km/s) = 3.24876 3.53053 3.39257
# Velocity P-wave (km/s) = 6.31554 6.95877 6.64494
#
# Compressibility (1/GPa) = 0.02096578
#
# Stress axis : x y z
#
# Youngs Moduli (GPa) = 69.54721 32.61864 106.63368
#
# Poissons Ratio (x) = 0.35763 0.25544
# Poissons Ratio (y) = 0.76251 0.35878
# Poissons Ratio (z) = 0.16660 0.10975
#
# Static dielectric constant tensor:
#      x y z
#    x 3.694370 0.000000 0.000000 
#    y 0.000000 3.247520 0.000000 
#    z 0.000000 0.000000 3.524040 
# 
# 
# High freq. dielectric constant tensor:
#      x y z
#    x 1.718880 0.000000 0.000000 
#    y 0.000000 1.673930 0.000000 
#    z 0.000000 0.000000 1.734760 
# 
# From -- ./inp_files/10632.got.cif
#   From: 2010.03.12/outbox.cif.g09.slc.cpg/sg66_6_cif.got.tgz:10632.got - 2010.04.10 21:57:39.
