data_PCOD8275900
_publ_section_title
;
Structure prediction by ZEFSAII (Michael W. Deem and Ramdas Pophale) SiO2 
 PCOD8275900
Probable space group: C C C M
;
_chemical_formula_sum "Si O2"
_cell_formula_units_Z 72
_cell_length_a 16.361088
_cell_length_b 24.767837
_cell_length_c 9.367996
_cell_angle_alpha 90.000000
_cell_angle_beta 90.000000
_cell_angle_gamma 90.000000
_cell_volume 3796.181410
_symmetry_space_group_name_H-M "C C C M"
_symmetry_group_IT_number 66
_symmetry_cell_setting 'orthorhombic'
loop_
_space_group_symop_operation_xyz
x,y,z
-x,-y,z
x,-y,1/2-z
-x,y,1/2-z
-x,-y,-z
x,y,-z
-x,y,1/2+z
x,-y,1/2+z
1/2+x,1/2+y,z
1/2-x,1/2-y,z
1/2+x,1/2-y,1/2-z
1/2-x,1/2+y,1/2-z
1/2-x,1/2-y,-z
1/2+x,1/2+y,-z
1/2-x,1/2+y,1/2+z
1/2+x,1/2-y,1/2+z
loop_
_atom_site_type_symbol
_atom_site_label
_atom_site_fract_x
_atom_site_fract_y
_atom_site_fract_z
Si Si1 0.625922 0.788231 0.157414
Si Si2 0.421853 0.326305 0.166717
Si Si3 0.000000 0.629988 0.750000
Si Si4 0.250593 0.373013 0.167469
Si Si5 0.137787 0.447547 0.337480
O O1 0.600795 0.732561 0.235839
O O2 0.551881 0.831075 0.147167
O O3 0.705233 0.818253 0.223868
O O4 0.650844 0.769256 0.000000
O O5 0.500000 0.349722 0.250000
O O6 0.347123 0.367387 0.192542
O O7 0.443975 0.321889 0.000000
O O8 0.061631 0.593498 0.841699
O O9 0.217605 0.423053 0.259511
O O10 0.229668 0.382261 0.000000
O O11 0.110123 0.500000 0.250000
O O12 0.160683 0.462549 0.500000
#
# Coordination Sequence:
#
# PCOD8275900 Si02
#       5
#    16  16   8  16  16
#     4   9  16  29  49  73 106 146 182 211 251 311
#     4  10  19  32  52  78 108 143 181 221 267 316
#     4  10  19  32  52  78 116 146 177 214 258 308
#     4   9  19  35  54  75 104 143 183 224 269 318
#     4  11  23  37  56  80 107 142 183 228 274 320
#
# _framework density 18.966428000000001
#
# number of rings (size 3 to 8) (size 9 to 14) (size 15 to 20)
#    0.000    2.222    1.111    2.333    0.000    7.111 
#    0.000    0.000    0.000    4.667    0.000    4.667 
#    0.000    0.000    0.000    0.000    0.000    0.000 
#
# Total GULP energy -446205.007219 kJ/mol
# GULP energy per Si atom -12394.583534 kJ/mol
# Density = 1.892326 g / cm^3
# Si number density = 18.966428 Si / 1000 Ang^3
#
#
#
# Elastic Constant Matrix: (Units=GPa)
#
#
# Indices 1 2 3 4 5 6 
#
# 1 117.0322 21.2775 34.4921 0.0000 0.0000 0.0000
# 2 21.2775 51.6936 22.4202 0.0000 0.0000 0.0000
# 3 34.4921 22.4202 81.3518 0.0000 0.0000 0.0000
# 4 0.0000 0.0000 0.0000 23.9833 0.0000 0.0000
# 5 0.0000 0.0000 0.0000 0.0000 25.5681 0.0000
# 6 0.0000 0.0000 0.0000 0.0000 0.0000 17.0454
#
#
#
# Elastic Compliance Matrix: (Units=1/GPa)
#
#
# Indices 1 2 3 4 5 6 
#
# 1 0.010064 -0.002603 -0.003550 0.000000 0.000000 0.000000
# 2 -0.002603 0.022644 -0.005137 0.000000 0.000000 0.000000
# 3 -0.003550 -0.005137 0.015213 0.000000 0.000000 0.000000
# 4 0.000000 0.000000 0.000000 0.041696 0.000000 0.000000
# 5 0.000000 0.000000 0.000000 0.000000 0.039111 0.000000
# 6 0.000000 0.000000 0.000000 0.000000 0.000000 0.058667
#
#
# Mechanical properties :
#
#
# Convention : Reuss Voigt Hill
#
# Bulk Modulus (GPa) = 39.46016 45.16191 42.31103
# Shear Modulus (GPa) = 22.89151 24.77855 23.83503
#
# Velocity S-wave (km/s) = 3.47789 3.61840 3.54884
# Velocity P-wave (km/s) = 6.08096 6.42808 6.25693
#
# Compressibility (1/GPa) = 0.02534201
#
# Stress axis : x y z
#
# Youngs Moduli (GPa) = 99.36349 44.16162 65.73308
#
# Poissons Ratio (x) = 0.11495 0.23333
# Poissons Ratio (y) = 0.25863 0.33767
# Poissons Ratio (z) = 0.35271 0.22686
#
# Static dielectric constant tensor:
#      x y z
#    x 3.445070 0.000000 0.000000 
#    y 0.000000 3.369050 0.000000 
#    z 0.000000 0.000000 3.142930 
# 
# 
# High freq. dielectric constant tensor:
#      x y z
#    x 1.735470 0.000000 0.000000 
#    y 0.000000 1.719060 0.000000 
#    z 0.000000 0.000000 1.708580 
# 
# From -- ./inp_files/5385.got.cif
#   From: 2010.03.12/outbox.cif.g09.slc.cpg/sg66_3_cif.got.tgz:5385.got - 2010.04.10 21:57:39.
