data_PCOD8275810
_publ_section_title
;
Structure prediction by ZEFSAII (Michael W. Deem and Ramdas Pophale) SiO2 
 PCOD8275810
Probable space group: C C C M
;
_chemical_formula_sum "Si O2"
_cell_formula_units_Z 80
_cell_length_a 26.699947
_cell_length_b 18.512122
_cell_length_c 8.919227
_cell_angle_alpha 90.000000
_cell_angle_beta 90.000000
_cell_angle_gamma 90.000000
_cell_volume 4408.530199
_symmetry_space_group_name_H-M "C C C M"
_symmetry_group_IT_number 66
_symmetry_cell_setting 'orthorhombic'
loop_
_space_group_symop_operation_xyz
x,y,z
-x,-y,z
x,-y,1/2-z
-x,y,1/2-z
-x,-y,-z
x,y,-z
-x,y,1/2+z
x,-y,1/2+z
1/2+x,1/2+y,z
1/2-x,1/2-y,z
1/2+x,1/2-y,1/2-z
1/2-x,1/2+y,1/2-z
1/2-x,1/2-y,-z
1/2+x,1/2+y,-z
1/2-x,1/2+y,1/2+z
1/2+x,1/2-y,1/2+z
loop_
_atom_site_type_symbol
_atom_site_label
_atom_site_fract_x
_atom_site_fract_y
_atom_site_fract_z
Si Si1 0.447283 0.572371 0.675733
Si Si2 0.608522 0.716886 0.827202
Si Si3 0.448784 0.856779 0.672642
Si Si4 0.198542 0.712016 0.824418
Si Si5 0.654723 0.924418 0.821980
O O1 0.424655 0.500000 0.750000
O O2 0.500000 0.591802 0.750000
O O3 0.455502 0.560409 0.500000
O O4 0.408983 0.636445 0.709136
O O5 0.563263 0.772693 0.794148
O O6 0.654878 0.732520 0.719737
O O7 0.625487 0.726251 0.000000
O O8 0.500000 0.881089 0.750000
O O9 0.457583 0.871542 0.500000
O O10 0.401791 0.904394 0.730096
O O11 0.250000 0.750000 0.777417
O O12 0.192912 0.636686 0.736040
O O13 0.196175 0.695410 0.000000
O O14 0.670639 0.000000 0.750000
O O15 0.658965 0.928613 0.000000
#
# Coordination Sequence:
#
# PCOD8275810 Si02
#       5
#    16  16  16  16  16
#     4  10  19  31  48  72 103 138 175 212 256 308
#     4   9  19  34  51  73 101 135 174 214 258 308
#     4   9  18  31  48  73 103 136 173 209 248 297
#     4  10  21  37  58  82 104 130 169 214 261 312
#     4  10  21  37  56  79 108 140 174 211 254 303
#
# _framework density 18.146637999999999
#
# number of rings (size 3 to 8) (size 9 to 14) (size 15 to 20)
#    0.000    2.400    0.000    4.200    0.000    7.600 
#    0.000    3.000    0.000    2.400    0.000    0.000 
#    0.000    0.000    0.000    0.000    0.000    0.000 
#
# Total GULP energy -496024.019729 kJ/mol
# GULP energy per Si atom -12400.600493 kJ/mol
# Density = 1.810534 g / cm^3
# Si number density = 18.146638 Si / 1000 Ang^3
#
#
#
# Elastic Constant Matrix: (Units=GPa)
#
#
# Indices 1 2 3 4 5 6 
#
# 1 90.7003 53.2533 43.3916 0.0000 0.0000 0.0000
# 2 53.2533 138.9552 55.3968 0.0000 0.0000 0.0000
# 3 43.3916 55.3968 80.2849 0.0000 0.0000 0.0000
# 4 0.0000 0.0000 0.0000 22.1507 0.0000 0.0000
# 5 0.0000 0.0000 0.0000 0.0000 29.4495 0.0000
# 6 0.0000 0.0000 0.0000 0.0000 0.0000 16.7817
#
#
#
# Elastic Compliance Matrix: (Units=1/GPa)
#
#
# Indices 1 2 3 4 5 6 
#
# 1 0.016167 -0.003742 -0.006156 0.000000 0.000000 0.000000
# 2 -0.003742 0.010793 -0.005425 0.000000 0.000000 0.000000
# 3 -0.006156 -0.005425 0.019526 0.000000 0.000000 0.000000
# 4 0.000000 0.000000 0.000000 0.045145 0.000000 0.000000
# 5 0.000000 0.000000 0.000000 0.000000 0.033956 0.000000
# 6 0.000000 0.000000 0.000000 0.000000 0.000000 0.059589
#
#
# Mechanical properties :
#
#
# Convention : Reuss Voigt Hill
#
# Bulk Modulus (GPa) = 63.12795 68.22489 65.67642
# Shear Modulus (GPa) = 22.61381 24.20296 23.40839
#
# Velocity S-wave (km/s) = 3.53394 3.65601 3.59549
# Velocity P-wave (km/s) = 7.17739 7.44983 7.31488
#
# Compressibility (1/GPa) = 0.01584084
#
# Stress axis : x y z
#
# Youngs Moduli (GPa) = 61.85295 92.64943 51.21311
#
# Poissons Ratio (x) = 0.34667 0.31528
# Poissons Ratio (y) = 0.23144 0.27784
# Poissons Ratio (z) = 0.38078 0.50264
#
# Static dielectric constant tensor:
#      x y z
#    x 3.173570 0.000000 0.000000 
#    y 0.000000 3.435230 0.000000 
#    z 0.000000 0.000000 3.357680 
# 
# 
# High freq. dielectric constant tensor:
#      x y z
#    x 1.682870 0.000000 0.000000 
#    y 0.000000 1.708680 0.000000 
#    z 0.000000 0.000000 1.710750 
# 
# From -- ./inp_files/6683.got.cif
#   From: 2010.03.12/outbox.cif.g09.slc.cpg/sg66_4_cif.got.tgz:6683.got - 2010.04.10 21:57:39.
