data_PCOD8275478
_publ_section_title
;
Structure prediction by ZEFSAII (Michael W. Deem and Ramdas Pophale) SiO2 
 PCOD8275478
Probable space group: C C C M
;
_chemical_formula_sum "Si O2"
_cell_formula_units_Z 80
_cell_length_a 28.471818
_cell_length_b 8.647599
_cell_length_c 16.844106
_cell_angle_alpha 90.000000
_cell_angle_beta 90.000000
_cell_angle_gamma 90.000000
_cell_volume 4147.235594
_symmetry_space_group_name_H-M "C C C M"
_symmetry_group_IT_number 66
_symmetry_cell_setting 'orthorhombic'
loop_
_space_group_symop_operation_xyz
x,y,z
-x,-y,z
x,-y,1/2-z
-x,y,1/2-z
-x,-y,-z
x,y,-z
-x,y,1/2+z
x,-y,1/2+z
1/2+x,1/2+y,z
1/2-x,1/2-y,z
1/2+x,1/2-y,1/2-z
1/2-x,1/2+y,1/2-z
1/2-x,1/2-y,-z
1/2+x,1/2+y,-z
1/2-x,1/2+y,1/2+z
1/2+x,1/2-y,1/2+z
loop_
_atom_site_type_symbol
_atom_site_label
_atom_site_fract_x
_atom_site_fract_y
_atom_site_fract_z
Si Si1 0.105281 0.804790 0.090483
Si Si2 0.445179 0.827553 0.765544
Si Si3 0.879255 0.101389 0.324405
Si Si4 0.298604 0.179350 0.163030
Si Si5 0.201545 0.669381 0.148414
O O1 0.068174 0.710677 0.143775
O O2 0.158896 0.757408 0.107366
O O3 0.100462 0.987197 0.108783
O O4 0.091800 0.771700 0.000000
O O5 0.500000 0.814865 0.750000
O O6 0.421134 0.709253 0.705535
O O7 0.426234 0.000000 0.750000
O O8 0.839728 0.206779 0.366140
O O9 0.858903 0.000000 0.250000
O O10 0.250000 0.250000 0.134141
O O11 0.303166 0.176546 0.257531
O O12 0.301485 0.010442 0.123314
O O13 0.250000 0.750000 0.120106
#
# Coordination Sequence:
#
# PCOD8275478 Si02
#       5
#    16  16  16  16  16
#     4  11  23  38  58  88 124 155 190 238 295 347
#     4  10  21  41  66  88 110 148 194 240 291 349
#     4  10  19  34  55  81 113 151 192 236 283 344
#     4  10  18  29  55  86 112 150 207 247 274 328
#     4  10  19  32  55  84 119 156 196 241 287 336
#
# _framework density 19.289959
#
# number of rings (size 3 to 8) (size 9 to 14) (size 15 to 20)
#    0.000    1.800    4.000    2.400    2.800    4.000 
#    0.000    8.000    0.000    2.400    0.000    0.000 
#    0.000    0.000    0.000    0.000    0.000    0.000 
#
# Total GULP energy -496006.256971 kJ/mol
# GULP energy per Si atom -12400.156424 kJ/mol
# Density = 1.924605 g / cm^3
# Si number density = 19.289959 Si / 1000 Ang^3
#
#
#
# Elastic Constant Matrix: (Units=GPa)
#
#
# Indices 1 2 3 4 5 6 
#
# 1 97.3705 55.4133 46.5950 0.0000 0.0000 0.0000
# 2 55.4133 165.6192 42.5633 0.0000 0.0000 0.0000
# 3 46.5950 42.5633 90.6375 0.0000 0.0000 0.0000
# 4 0.0000 0.0000 0.0000 12.2167 0.0000 0.0000
# 5 0.0000 0.0000 0.0000 0.0000 11.8479 0.0000
# 6 0.0000 0.0000 0.0000 0.0000 0.0000 34.3722
#
#
#
# Elastic Compliance Matrix: (Units=1/GPa)
#
#
# Indices 1 2 3 4 5 6 
#
# 1 0.015222 -0.003505 -0.006179 0.000000 0.000000 0.000000
# 2 -0.003505 0.007674 -0.001802 0.000000 0.000000 0.000000
# 3 -0.006179 -0.001802 0.015056 0.000000 0.000000 0.000000
# 4 0.000000 0.000000 0.000000 0.081855 0.000000 0.000000
# 5 0.000000 0.000000 0.000000 0.000000 0.084403 0.000000
# 6 0.000000 0.000000 0.000000 0.000000 0.000000 0.029093
#
#
# Mechanical properties :
#
#
# Convention : Reuss Voigt Hill
#
# Bulk Modulus (GPa) = 66.75915 71.41894 69.08905
# Shear Modulus (GPa) = 19.13749 25.62441 22.38095
#
# Velocity S-wave (km/s) = 3.15317 3.64865 3.40992
# Velocity P-wave (km/s) = 6.92387 7.40638 7.16919
#
# Compressibility (1/GPa) = 0.01497922
#
# Stress axis : x y z
#
# Youngs Moduli (GPa) = 65.69582 130.31602 66.41991
#
# Poissons Ratio (x) = 0.45674 0.41043
# Poissons Ratio (y) = 0.23025 0.11967
# Poissons Ratio (z) = 0.40595 0.23480
#
# Static dielectric constant tensor:
#      x y z
#    x 3.431180 0.000000 0.000000 
#    y 0.000000 4.052230 0.000000 
#    z 0.000000 0.000000 3.134890 
# 
# 
# High freq. dielectric constant tensor:
#      x y z
#    x 1.747200 0.000000 0.000000 
#    y 0.000000 1.776380 0.000000 
#    z 0.000000 0.000000 1.700870 
# 
# From -- ./inp_files/37138.got.cif
#   From: 2010.03.12/outbox.cif.g09.slc.cpg/sg66_19_cif.got.tgz:37138.got - 2010.04.10 21:57:39.
