data_PCOD8275082
_publ_section_title
;
Structure prediction by ZEFSAII (Michael W. Deem and Ramdas Pophale) SiO2 
 PCOD8275082
Probable space group: C M M M
;
_chemical_formula_sum "Si O2"
_cell_formula_units_Z 80
_cell_length_a 9.682045
_cell_length_b 19.841720
_cell_length_c 25.238417
_cell_angle_alpha 90.000000
_cell_angle_beta 90.000000
_cell_angle_gamma 90.000000
_cell_volume 4848.512563
_symmetry_space_group_name_H-M "C M M M"
_symmetry_group_IT_number 65
_symmetry_cell_setting 'orthorhombic'
loop_
_space_group_symop_operation_xyz
x,y,z
-x,-y,z
x,-y,-z
-x,y,-z
-x,-y,-z
x,y,-z
-x,y,z
x,-y,z
1/2+x,1/2+y,z
1/2-x,1/2-y,z
1/2+x,1/2-y,-z
1/2-x,1/2+y,-z
1/2-x,1/2-y,-z
1/2+x,1/2+y,-z
1/2-x,1/2+y,z
1/2+x,1/2-y,z
loop_
_atom_site_type_symbol
_atom_site_label
_atom_site_fract_x
_atom_site_fract_y
_atom_site_fract_z
Si Si1 0.846527 0.919882 0.241252
Si Si2 0.339979 0.922683 0.854204
Si Si3 0.664023 0.574628 0.642389
Si Si4 0.339694 0.685346 0.560774
Si Si5 0.340394 0.187032 0.060721
O O1 0.743844 0.893417 0.195926
O O2 0.791923 0.897429 0.299443
O O3 0.000000 0.890689 0.230171
O O4 0.852045 0.000000 0.240950
O O5 0.500000 0.916367 0.839497
O O6 0.301334 0.878738 0.905421
O O7 0.299867 0.000000 0.867014
O O8 0.500000 0.569487 0.640917
O O9 0.726858 0.500000 0.631920
O O10 0.717493 0.624706 0.596974
O O11 0.317774 0.663677 0.500000
O O12 0.500000 0.701517 0.572397
O O13 0.250000 0.750000 0.575414
O O14 0.500000 0.206855 0.068032
O O15 0.250000 0.250000 0.080455
O O16 0.306004 0.169055 0.000000
#
# Coordination Sequence:
#
# PCOD8275082 Si02
#       5
#    16  16  16  16  16
#     4   8  14  26  44  64  87 115 143 173 213 257
#     4   9  17  29  46  68  91 113 141 178 215 253
#     4   8  14  26  45  67  87 109 143 183 216 249
#     4   9  17  29  45  64  87 115 144 176 216 259
#     4   9  18  32  48  65  87 116 146 176 214 257
#
# _framework density 16.499905999999999
#
# number of rings (size 3 to 8) (size 9 to 14) (size 15 to 20)
#    0.000    3.400    0.000    1.200    0.000    1.600 
#    0.000    6.000    0.000    6.600    0.000    8.400 
#    0.000    0.000    0.000    0.000    0.000    0.000 
#
# Total GULP energy -495827.443570 kJ/mol
# GULP energy per Si atom -12395.686089 kJ/mol
# Density = 1.646235 g / cm^3
# Si number density = 16.499906 Si / 1000 Ang^3
#
#
#
# Elastic Constant Matrix: (Units=GPa)
#
#
# Indices 1 2 3 4 5 6 
#
# 1 48.5970 42.3187 49.2932 0.0000 0.0000 0.0000
# 2 42.3187 92.1585 76.3506 0.0000 0.0000 0.0000
# 3 49.2932 76.3506 124.3589 0.0000 0.0000 0.0000
# 4 0.0000 0.0000 0.0000 14.9164 0.0000 0.0000
# 5 0.0000 0.0000 0.0000 0.0000 23.5052 0.0000
# 6 0.0000 0.0000 0.0000 0.0000 0.0000 21.7690
#
#
#
# Elastic Compliance Matrix: (Units=1/GPa)
#
#
# Indices 1 2 3 4 5 6 
#
# 1 0.038686 -0.010299 -0.009011 0.000000 0.000000 0.000000
# 2 -0.010299 0.024825 -0.011159 0.000000 0.000000 0.000000
# 3 -0.009011 -0.011159 0.018464 0.000000 0.000000 0.000000
# 4 0.000000 0.000000 0.000000 0.067040 0.000000 0.000000
# 5 0.000000 0.000000 0.000000 0.000000 0.042544 0.000000
# 6 0.000000 0.000000 0.000000 0.000000 0.000000 0.045937
#
#
# Mechanical properties :
#
#
# Convention : Reuss Voigt Hill
#
# Bulk Modulus (GPa) = 47.53568 66.78216 57.15892
# Shear Modulus (GPa) = 16.36942 18.51493 17.44217
#
# Velocity S-wave (km/s) = 3.15317 3.35344 3.25485
# Velocity P-wave (km/s) = 6.49067 7.45361 6.98874
#
# Compressibility (1/GPa) = 0.02103683
#
# Stress axis : x y z
#
# Youngs Moduli (GPa) = 25.84908 40.28175 54.15814
#
# Poissons Ratio (x) = 0.41485 0.48804
# Poissons Ratio (y) = 0.26621 0.60437
# Poissons Ratio (z) = 0.23294 0.44952
#
# Static dielectric constant tensor:
#      x y z
#    x 3.022660 0.000000 0.000000 
#    y 0.000000 3.068750 0.000000 
#    z 0.000000 0.000000 3.368000 
# 
# 
# High freq. dielectric constant tensor:
#      x y z
#    x 1.613960 0.000000 0.000000 
#    y 0.000000 1.612840 0.000000 
#    z 0.000000 0.000000 1.642910 
# 
# From -- ./inp_files/68801.got.cif
#   From: 2010.03.12/outbox.cif.g09.slc.cpg/sg65_35_cif.got.tgz:68801.got - 2010.04.10 20:52:16.
