data_PCOD8275983
_publ_section_title
;
Structure prediction by ZEFSAII (Michael W. Deem and Ramdas Pophale) SiO2 
 PCOD8275983
Probable space group: C C C M
;
_chemical_formula_sum "Si O2"
_cell_formula_units_Z 96
_cell_length_a 20.422388
_cell_length_b 14.449648
_cell_length_c 16.581521
_cell_angle_alpha 90.000000
_cell_angle_beta 90.000000
_cell_angle_gamma 90.000000
_cell_volume 4893.145793
_symmetry_space_group_name_H-M "C C C M"
_symmetry_group_IT_number 66
_symmetry_cell_setting 'orthorhombic'
loop_
_space_group_symop_operation_xyz
x,y,z
-x,-y,z
x,-y,1/2-z
-x,y,1/2-z
-x,-y,-z
x,y,-z
-x,y,1/2+z
x,-y,1/2+z
1/2+x,1/2+y,z
1/2-x,1/2-y,z
1/2+x,1/2-y,1/2-z
1/2-x,1/2+y,1/2-z
1/2-x,1/2-y,-z
1/2+x,1/2+y,-z
1/2-x,1/2+y,1/2+z
1/2+x,1/2-y,1/2+z
loop_
_atom_site_type_symbol
_atom_site_label
_atom_site_fract_x
_atom_site_fract_y
_atom_site_fract_z
Si Si1 0.054446 0.129721 0.903678
Si Si2 0.773830 0.854397 0.590843
Si Si3 0.571513 0.965743 0.913665
Si Si4 0.087303 0.073752 0.405677
Si Si5 0.656821 0.915457 0.689669
Si Si6 0.569700 0.202746 0.706984
O O1 0.087561 0.208627 0.848234
O O2 0.978454 0.124040 0.874299
O O3 0.090430 0.033959 0.878877
O O4 0.061352 0.151420 0.000000
O O5 0.767744 0.896278 0.500000
O O6 0.750000 0.750000 0.588508
O O7 0.848768 0.868459 0.621415
O O8 0.729695 0.905173 0.656071
O O9 0.569127 0.884859 0.850176
O O10 0.500000 0.000000 0.929333
O O11 0.611190 0.055440 0.884414
O O12 0.600907 0.932020 0.000000
O O13 0.078740 0.072667 0.500000
O O14 0.627631 0.820352 0.728591
O O15 0.659725 0.000000 0.750000
O O16 0.500000 0.214072 0.750000
#
# Coordination Sequence:
#
# PCOD8275983 Si02
#       6
#    16  16  16  16  16  16
#     4   9  18  36  61  87 113 149 193 239 288 344
#     4  10  21  38  61  86 112 149 196 241 284 345
#     4  10  19  33  55  77 102 146 195 236 287 345
#     4   8  17  36  61  86 113 144 190 245 288 329
#     4  10  22  38  53  78 114 151 181 235 296 346
#     4  11  21  33  52  81 119 150 181 238 291 348
#
# _framework density 19.619281000000001
#
# number of rings (size 3 to 8) (size 9 to 14) (size 15 to 20)
#    0.000    2.333    1.667    2.000    2.333    0.000 
#    3.000    1.667    0.000    0.000    0.000    8.167 
#    0.000    0.000    0.000    0.000    0.000    0.000 
#
# Total GULP energy -594738.227190 kJ/mol
# GULP energy per Si atom -12390.379733 kJ/mol
# Density = 1.957463 g / cm^3
# Si number density = 19.619281 Si / 1000 Ang^3
#
#
#
# Elastic Constant Matrix: (Units=GPa)
#
#
# Indices 1 2 3 4 5 6 
#
# 1 98.2594 29.5025 24.2639 0.0000 0.0000 0.0000
# 2 29.5025 89.0858 23.2845 0.0000 0.0000 0.0000
# 3 24.2639 23.2845 67.2666 0.0000 0.0000 0.0000
# 4 0.0000 0.0000 0.0000 -420.3437 0.0000 0.0000
# 5 0.0000 0.0000 0.0000 0.0000 24.5822 0.0000
# 6 0.0000 0.0000 0.0000 0.0000 0.0000 24.0536
#
#
#
# Elastic Compliance Matrix: (Units=1/GPa)
#
#
# Indices 1 2 3 4 5 6 
#
# 1 0.011903 -0.003100 -0.003221 0.000000 0.000000 0.000000
# 2 -0.003100 0.013149 -0.003433 0.000000 0.000000 0.000000
# 3 -0.003221 -0.003433 0.017216 0.000000 0.000000 0.000000
# 4 0.000000 0.000000 0.000000 -0.002379 0.000000 0.000000
# 5 0.000000 0.000000 0.000000 0.000000 0.040680 0.000000
# 6 0.000000 0.000000 0.000000 0.000000 0.000000 0.041574
#
#
# Mechanical properties :
#
#
# Convention : Reuss Voigt Hill
#
# Bulk Modulus (GPa) = 43.93543 45.41261 44.67402
# Shear Modulus (GPa) = 33.50340 -62.50419 -14.50040
#
# Velocity S-wave (km/s) = 4.13689 -5.65046 -2.72157
# Velocity P-wave (km/s) = 6.72764 4.40149 3.59778
#
# Compressibility (1/GPa) = 0.02276067
#
# Stress axis : x y z
#
# Youngs Moduli (GPa) = 84.01066 76.05024 58.08429
#
# Poissons Ratio (x) = 0.23577 0.18706
# Poissons Ratio (y) = 0.26045 0.19942
# Poissons Ratio (z) = 0.27056 0.26111
#
# Static dielectric constant tensor:
#      x y z
#    x 3.689660 0.000000 0.000000 
#    y 0.000000 3.539920 0.000000 
#    z 0.000000 0.000000 4.032300 
# 
# 
# High freq. dielectric constant tensor:
#      x y z
#    x 1.745210 0.000000 0.000000 
#    y 0.000000 1.759340 0.000000 
#    z 0.000000 0.000000 1.768740 
# 
# From -- ./inp_files/31204.got.cif
#   From: 2010.03.12/outbox.cif.g09.slc.cpg/sg66_16_cif.got.tgz:31204.got - 2010.04.10 21:57:39.
