data_PCOD8275793
_publ_section_title
;
Structure prediction by ZEFSAII (Michael W. Deem and Ramdas Pophale) SiO2 
 PCOD8275793
Probable space group: C C C M
;
_chemical_formula_sum "Si O2"
_cell_formula_units_Z 88
_cell_length_a 5.211214
_cell_length_b 27.942526
_cell_length_c 33.672699
_cell_angle_alpha 90.000000
_cell_angle_beta 90.000000
_cell_angle_gamma 90.000000
_cell_volume 4903.232646
_symmetry_space_group_name_H-M "C C C M"
_symmetry_group_IT_number 66
_symmetry_cell_setting 'orthorhombic'
loop_
_space_group_symop_operation_xyz
x,y,z
-x,-y,z
x,-y,1/2-z
-x,y,1/2-z
-x,-y,-z
x,y,-z
-x,y,1/2+z
x,-y,1/2+z
1/2+x,1/2+y,z
1/2-x,1/2-y,z
1/2+x,1/2-y,1/2-z
1/2-x,1/2+y,1/2-z
1/2-x,1/2-y,-z
1/2+x,1/2+y,-z
1/2-x,1/2+y,1/2+z
1/2+x,1/2-y,1/2+z
loop_
_atom_site_type_symbol
_atom_site_label
_atom_site_fract_x
_atom_site_fract_y
_atom_site_fract_z
Si Si1 0.250000 0.250000 0.601386
Si Si2 0.308443 0.343393 0.359617
Si Si3 0.390794 0.798987 0.456898
Si Si4 0.749512 0.305403 0.775406
Si Si5 0.714567 0.877676 0.098973
Si Si6 0.746996 0.468699 0.544758
O O1 0.396840 0.288543 0.628744
O O2 0.388855 0.211917 0.573847
O O3 0.250140 0.341009 0.312962
O O4 0.555318 0.376292 0.368947
O O5 0.057931 0.365886 0.380740
O O6 0.492462 0.817371 0.500000
O O7 0.250000 0.750000 0.464384
O O8 0.217779 0.839540 0.436157
O O9 0.500000 0.317359 0.750000
O O10 0.750000 0.250000 0.788932
O O11 0.000000 0.317568 0.750000
O O12 0.711917 0.928672 0.077993
O O13 0.500000 0.500000 0.556576
O O14 0.709359 0.447513 0.500000
O O15 0.000000 0.500000 0.545717
#
# Coordination Sequence:
#
# PCOD8275793 Si02
#       6
#     8  16  16  16  16  16
#     4  10  19  32  44  68 102 150 180 224 256 302
#     4  11  21  34  53  76 112 140 184 220 269 319
#     4  10  19  31  45  67 103 145 188 218 252 303
#     4  10  20  34  52  76 106 150 191 222 260 320
#     4  11  22  35  54  81 106 144 183 228 278 323
#     4  10  21  39  60  81 109 144 186 238 287 329
#
# _framework density 17.947343
#
# number of rings (size 3 to 8) (size 9 to 14) (size 15 to 20)
#    0.000    1.636    2.727    3.000    0.000    0.000 
#    0.000    1.818    0.000    0.000    0.000    0.000 
#    0.000   50.909    0.000    0.000    0.000    0.000 
#
# Total GULP energy -545085.439845 kJ/mol
# GULP energy per Si atom -12388.305451 kJ/mol
# Density = 1.790649 g / cm^3
# Si number density = 17.947343 Si / 1000 Ang^3
#
#
#
# Elastic Constant Matrix: (Units=GPa)
#
#
# Indices 1 2 3 4 5 6 
#
# 1 121.4344 35.9338 45.3040 0.0000 0.0000 0.0000
# 2 35.9338 73.6811 51.8603 0.0000 0.0000 0.0000
# 3 45.3040 51.8603 119.4812 0.0000 0.0000 0.0000
# 4 0.0000 0.0000 0.0000 29.0025 0.0000 0.0000
# 5 0.0000 0.0000 0.0000 0.0000 17.2953 0.0000
# 6 0.0000 0.0000 0.0000 0.0000 0.0000 25.9545
#
#
#
# Elastic Compliance Matrix: (Units=1/GPa)
#
#
# Indices 1 2 3 4 5 6 
#
# 1 0.010093 -0.003209 -0.002434 0.000000 0.000000 0.000000
# 2 -0.003209 0.020562 -0.007708 0.000000 0.000000 0.000000
# 3 -0.002434 -0.007708 0.012638 0.000000 0.000000 0.000000
# 4 0.000000 0.000000 0.000000 0.034480 0.000000 0.000000
# 5 0.000000 0.000000 0.000000 0.000000 0.057819 0.000000
# 6 0.000000 0.000000 0.000000 0.000000 0.000000 0.038529
#
#
# Mechanical properties :
#
#
# Convention : Reuss Voigt Hill
#
# Bulk Modulus (GPa) = 60.27465 64.53255 62.40360
# Shear Modulus (GPa) = 24.23023 26.55036 25.39030
#
# Velocity S-wave (km/s) = 3.67832 3.85040 3.76534
# Velocity P-wave (km/s) = 7.19007 7.47008 7.33141
#
# Compressibility (1/GPa) = 0.01659072
#
# Stress axis : x y z
#
# Youngs Moduli (GPa) = 99.08343 48.63242 79.12538
#
# Poissons Ratio (x) = 0.15606 0.19259
# Poissons Ratio (y) = 0.31795 0.60992
# Poissons Ratio (z) = 0.24117 0.37487
#
# Static dielectric constant tensor:
#      x y z
#    x 3.166490 0.000000 0.000000 
#    y 0.000000 3.152260 0.000000 
#    z 0.000000 0.000000 3.478810 
# 
# 
# High freq. dielectric constant tensor:
#      x y z
#    x 1.697330 0.000000 0.000000 
#    y 0.000000 1.660880 0.000000 
#    z 0.000000 0.000000 1.697910 
# 
# From -- ./inp_files/67264.got.cif
#   From: 2010.03.12/outbox.cif.g09.slc.cpg/sg66_34_cif.got.tgz:67264.got - 2010.04.10 21:57:39.
