data_PCOD8275590
_publ_section_title
;
Structure prediction by ZEFSAII (Michael W. Deem and Ramdas Pophale) SiO2 
 PCOD8275590
Probable space group: C C C M
;
_chemical_formula_sum "Si O2"
_cell_formula_units_Z 112
_cell_length_a 14.727458
_cell_length_b 27.842861
_cell_length_c 15.288222
_cell_angle_alpha 90.000000
_cell_angle_beta 90.000000
_cell_angle_gamma 90.000000
_cell_volume 6269.005237
_symmetry_space_group_name_H-M "C C C M"
_symmetry_group_IT_number 66
_symmetry_cell_setting 'orthorhombic'
loop_
_space_group_symop_operation_xyz
x,y,z
-x,-y,z
x,-y,1/2-z
-x,y,1/2-z
-x,-y,-z
x,y,-z
-x,y,1/2+z
x,-y,1/2+z
1/2+x,1/2+y,z
1/2-x,1/2-y,z
1/2+x,1/2-y,1/2-z
1/2-x,1/2+y,1/2-z
1/2-x,1/2-y,-z
1/2+x,1/2+y,-z
1/2-x,1/2+y,1/2+z
1/2+x,1/2-y,1/2+z
loop_
_atom_site_type_symbol
_atom_site_label
_atom_site_fract_x
_atom_site_fract_y
_atom_site_fract_z
Si Si1 0.806238 0.795790 0.145746
Si Si2 0.332115 0.880890 0.902956
Si Si3 0.391762 0.944399 0.748834
Si Si4 0.326520 0.875933 0.401415
Si Si5 0.495122 0.284717 0.346761
Si Si6 0.500485 0.826715 0.847862
Si Si7 0.699285 0.702668 0.352980
O O1 0.750000 0.750000 0.107524
O O2 0.765882 0.847516 0.119787
O O3 0.810250 0.790044 0.249576
O O4 0.909018 0.795485 0.105325
O O5 0.342342 0.924000 0.834811
O O6 0.425262 0.851593 0.906893
O O7 0.251774 0.845719 0.874572
O O8 0.312986 0.901625 0.000000
O O9 0.500000 0.936653 0.750000
O O10 0.347256 0.920164 0.663025
O O11 0.366778 0.000000 0.750000
O O12 0.323431 0.896433 0.500000
O O13 0.402826 0.835043 0.392013
O O14 0.500000 0.307446 0.250000
O O15 0.477444 0.228361 0.340408
O O16 0.402864 0.303820 0.393656
O O17 0.500000 0.849749 0.750000
O O18 0.750000 0.750000 0.391960
#
# Coordination Sequence:
#
# PCOD8275590 Si02
#       7
#    16  16  16  16  16  16  16
#     4  10  18  32  53  78 113 154 191 224 263 315
#     4  12  22  35  56  82 110 149 188 221 271 329
#     4  11  24  42  61  81 109 141 177 230 285 331
#     4  12  22  35  56  82 110 149 188 221 271 329
#     4   9  18  29  51  79 111 157 196 225 256 306
#     4  11  17  33  53  75 114 153 186 222 264 312
#     4  10  18  32  53  78 113 154 191 224 263 315
#
# _framework density 17.865673999999999
#
# number of rings (size 3 to 8) (size 9 to 14) (size 15 to 20)
#    0.000    1.286    7.143    0.429    0.000    1.143 
#    0.000    2.143    0.000    0.000    0.000    2.000 
#    0.000    2.286    0.000    0.000    0.000    0.000 
#
# Total GULP energy -694053.548258 kJ/mol
# GULP energy per Si atom -12393.813362 kJ/mol
# Density = 1.782501 g / cm^3
# Si number density = 17.865674 Si / 1000 Ang^3
#
#
#
# Elastic Constant Matrix: (Units=GPa)
#
#
# Indices 1 2 3 4 5 6 
#
# 1 136.9123 50.5080 32.6361 0.0000 0.0000 0.0000
# 2 50.5080 104.7744 39.0621 0.0000 0.0000 0.0000
# 3 32.6361 39.0621 79.0355 0.0000 0.0000 0.0000
# 4 0.0000 0.0000 0.0000 5.7215 0.0000 0.0000
# 5 0.0000 0.0000 0.0000 0.0000 7.3674 0.0000
# 6 0.0000 0.0000 0.0000 0.0000 0.0000 21.1703
#
#
#
# Elastic Compliance Matrix: (Units=1/GPa)
#
#
# Indices 1 2 3 4 5 6 
#
# 1 0.009123 -0.003670 -0.001954 0.000000 0.000000 0.000000
# 2 -0.003670 0.013176 -0.004997 0.000000 0.000000 0.000000
# 3 -0.001954 -0.004997 0.015929 0.000000 0.000000 0.000000
# 4 0.000000 0.000000 0.000000 0.174780 0.000000 0.000000
# 5 0.000000 0.000000 0.000000 0.000000 0.135733 0.000000
# 6 0.000000 0.000000 0.000000 0.000000 0.000000 0.047236
#
#
# Mechanical properties :
#
#
# Convention : Reuss Voigt Hill
#
# Bulk Modulus (GPa) = 58.86441 62.79272 60.82856
# Shear Modulus (GPa) = 11.82367 20.08624 15.95496
#
# Velocity S-wave (km/s) = 2.57536 3.35668 2.99164
# Velocity P-wave (km/s) = 6.47017 7.08848 6.78637
#
# Compressibility (1/GPa) = 0.01698819
#
# Stress axis : x y z
#
# Youngs Moduli (GPa) = 109.60800 75.89395 62.77916
#
# Poissons Ratio (x) = 0.27851 0.12265
# Poissons Ratio (y) = 0.40223 0.31370
# Poissons Ratio (z) = 0.21413 0.37923
#
# Static dielectric constant tensor:
#      x y z
#    x 3.544730 0.000000 0.000000 
#    y 0.000000 2.975330 0.000000 
#    z 0.000000 0.000000 3.221230 
# 
# 
# High freq. dielectric constant tensor:
#      x y z
#    x 1.693810 0.000000 0.000000 
#    y 0.000000 1.650410 0.000000 
#    z 0.000000 0.000000 1.683620 
# 
# From -- ./inp_files/28898.got.cif
#   From: 2010.03.12/outbox.cif.g09.slc.cpg/sg66_15_cif.got.tgz:28898.got - 2010.04.10 21:57:39.
