data_PCOD8275652
_publ_section_title
;
Structure prediction by ZEFSAII (Michael W. Deem and Ramdas Pophale) SiO2 
 PCOD8275652
Probable space group: C C C M
;
_chemical_formula_sum "Si O2"
_cell_formula_units_Z 112
_cell_length_a 23.367876
_cell_length_b 12.644938
_cell_length_c 20.248815
_cell_angle_alpha 90.000000
_cell_angle_beta 90.000000
_cell_angle_gamma 90.000000
_cell_volume 5983.228050
_symmetry_space_group_name_H-M "C C C M"
_symmetry_group_IT_number 66
_symmetry_cell_setting 'orthorhombic'
loop_
_space_group_symop_operation_xyz
x,y,z
-x,-y,z
x,-y,1/2-z
-x,y,1/2-z
-x,-y,-z
x,y,-z
-x,y,1/2+z
x,-y,1/2+z
1/2+x,1/2+y,z
1/2-x,1/2-y,z
1/2+x,1/2-y,1/2-z
1/2-x,1/2+y,1/2-z
1/2-x,1/2-y,-z
1/2+x,1/2+y,-z
1/2-x,1/2+y,1/2+z
1/2+x,1/2-y,1/2+z
loop_
_atom_site_type_symbol
_atom_site_label
_atom_site_fract_x
_atom_site_fract_y
_atom_site_fract_z
Si Si1 0.915057 0.773314 0.801863
Si Si2 0.038721 0.790189 0.837216
Si Si3 0.314193 0.607830 0.925254
Si Si4 0.597038 0.495120 0.827220
Si Si5 0.797662 0.336974 0.294767
Si Si6 0.704079 0.933910 0.652196
Si Si7 0.620383 0.819872 0.573265
O O1 0.915379 0.777724 0.722443
O O2 0.914418 0.882719 0.843183
O O3 0.860446 0.701832 0.819186
O O4 0.978210 0.733465 0.822945
O O5 0.061179 0.730235 0.901395
O O6 0.041235 0.919814 0.842894
O O7 0.350996 0.541483 0.872992
O O8 0.249159 0.603480 0.902094
O O9 0.331456 0.729846 0.924916
O O10 0.320467 0.561946 0.000000
O O11 0.615531 0.500000 0.750000
O O12 0.750000 0.250000 0.313360
O O13 0.785230 0.443162 0.334594
O O14 0.793308 0.361985 0.217446
O O15 0.641579 0.916377 0.619320
O O16 0.609073 0.862914 0.500000
#
# Coordination Sequence:
#
# PCOD8275652 Si02
#       7
#    16  16  16  16  16  16  16
#     4  10  18  34  54  79 115 143 178 229 274 326
#     4   9  18  32  55  83 111 141 181 225 279 323
#     4  10  20  33  54  84 114 148 184 226 278 329
#     4   9  18  30  55  85 112 145 179 225 278 332
#     4  11  23  35  55  83 112 143 182 229 278 326
#     4  11  22  34  54  78 113 147 183 226 275 328
#     4  10  19  35  57  82 111 142 182 229 276 326
#
# _framework density 18.718992
#
# number of rings (size 3 to 8) (size 9 to 14) (size 15 to 20)
#    0.000    2.000    1.429    3.000    6.000    2.857 
#    0.000    1.429    0.000   13.714    0.000    0.000 
#    0.000    0.000    0.000    0.000    0.000    0.000 
#
# Total GULP energy -693792.515590 kJ/mol
# GULP energy per Si atom -12389.152064 kJ/mol
# Density = 1.867639 g / cm^3
# Si number density = 18.718992 Si / 1000 Ang^3
#
#
#
# Elastic Constant Matrix: (Units=GPa)
#
#
# Indices 1 2 3 4 5 6 
#
# 1 94.5822 34.7372 31.8217 0.0000 0.0000 0.0000
# 2 34.7372 65.9232 31.1276 0.0000 0.0000 0.0000
# 3 31.8217 31.1276 98.8095 0.0000 0.0000 0.0000
# 4 0.0000 0.0000 0.0000 18.6561 0.0000 0.0000
# 5 0.0000 0.0000 0.0000 0.0000 15.2459 0.0000
# 6 0.0000 0.0000 0.0000 0.0000 0.0000 22.0045
#
#
#
# Elastic Compliance Matrix: (Units=1/GPa)
#
#
# Indices 1 2 3 4 5 6 
#
# 1 0.013614 -0.005995 -0.002496 0.000000 0.000000 0.000000
# 2 -0.005995 0.020460 -0.004515 0.000000 0.000000 0.000000
# 3 -0.002496 -0.004515 0.012346 0.000000 0.000000 0.000000
# 4 0.000000 0.000000 0.000000 0.053602 0.000000 0.000000
# 5 0.000000 0.000000 0.000000 0.000000 0.065591 0.000000
# 6 0.000000 0.000000 0.000000 0.000000 0.000000 0.045445
#
#
# Mechanical properties :
#
#
# Convention : Reuss Voigt Hill
#
# Bulk Modulus (GPa) = 48.99741 50.52087 49.75914
# Shear Modulus (GPa) = 20.50237 21.95654 21.22946
#
# Velocity S-wave (km/s) = 3.31308 3.42856 3.37131
# Velocity P-wave (km/s) = 6.39276 6.53613 6.46484
#
# Compressibility (1/GPa) = 0.02040924
#
# Stress axis : x y z
#
# Youngs Moduli (GPa) = 73.45125 48.87560 80.99467
#
# Poissons Ratio (x) = 0.29303 0.20215
# Poissons Ratio (y) = 0.44037 0.36566
# Poissons Ratio (z) = 0.18332 0.22066
#
# Static dielectric constant tensor:
#      x y z
#    x 3.334980 0.000000 0.000000 
#    y 0.000000 3.310410 0.000000 
#    z 0.000000 0.000000 3.376960 
# 
# 
# High freq. dielectric constant tensor:
#      x y z
#    x 1.724610 0.000000 0.000000 
#    y 0.000000 1.707790 0.000000 
#    z 0.000000 0.000000 1.708360 
# 
# From -- ./inp_files/52574.got.cif
#   From: 2010.03.12/outbox.cif.g09.slc.cpg/sg66_27_cif.got.tgz:52574.got - 2010.04.10 21:57:39.
