data_PCOD8275536
_publ_section_title
;
Structure prediction by ZEFSAII (Michael W. Deem and Ramdas Pophale) SiO2 
 PCOD8275536
Probable space group: C C C M
;
_chemical_formula_sum "Si O2"
_cell_formula_units_Z 88
_cell_length_a 27.972335
_cell_length_b 20.121427
_cell_length_c 9.224213
_cell_angle_alpha 90.000000
_cell_angle_beta 90.000000
_cell_angle_gamma 90.000000
_cell_volume 5191.786455
_symmetry_space_group_name_H-M "C C C M"
_symmetry_group_IT_number 66
_symmetry_cell_setting 'orthorhombic'
loop_
_space_group_symop_operation_xyz
x,y,z
-x,-y,z
x,-y,1/2-z
-x,y,1/2-z
-x,-y,-z
x,y,-z
-x,y,1/2+z
x,-y,1/2+z
1/2+x,1/2+y,z
1/2-x,1/2-y,z
1/2+x,1/2-y,1/2-z
1/2-x,1/2+y,1/2-z
1/2-x,1/2-y,-z
1/2+x,1/2+y,-z
1/2-x,1/2+y,1/2+z
1/2+x,1/2-y,1/2+z
loop_
_atom_site_type_symbol
_atom_site_label
_atom_site_fract_x
_atom_site_fract_y
_atom_site_fract_z
Si Si1 0.208759 0.800710 0.669968
Si Si2 0.951453 0.367536 0.165168
Si Si3 0.817094 0.574647 0.153650
Si Si4 0.271676 0.563345 0.828984
Si Si5 0.871222 0.703763 0.161463
Si Si6 0.596403 0.000000 0.750000
O O1 0.215724 0.816121 0.500000
O O2 0.250000 0.750000 0.723858
O O3 0.210222 0.868537 0.760316
O O4 0.155327 0.772455 0.701630
O O5 0.911938 0.316527 0.225278
O O6 0.936293 0.444983 0.172524
O O7 0.000000 0.356145 0.250000
O O8 0.960485 0.348326 0.000000
O O9 0.785394 0.555462 0.293741
O O10 0.827181 0.652515 0.164755
O O11 0.868269 0.537994 0.140581
O O12 0.789612 0.560856 0.000000
O O13 0.297244 0.500000 0.750000
O O14 0.281003 0.562669 0.000000
O O15 0.893962 0.706894 0.000000
#
# Coordination Sequence:
#
# PCOD8275536 Si02
#       6
#    16  16  16  16  16   8
#     4  10  19  36  57  78 104 137 175 219 271 325
#     4  11  23  37  53  74 101 135 179 227 274 321
#     4  10  18  31  48  69  97 132 173 217 264 312
#     4  12  24  34  48  72 105 143 181 222 264 312
#     4   9  19  35  55  75  98 130 168 214 267 317
#     4  10  21  32  50  72  98 136 180 232 271 314
#
# _framework density 16.949850000000001
#
# number of rings (size 3 to 8) (size 9 to 14) (size 15 to 20)
#    0.000    1.636    2.727    3.000    0.000    6.909 
#    0.000    0.000    0.000    0.000    0.000    0.000 
#    0.000    0.727    0.000    7.636    0.000    3.273 
#
# Total GULP energy -545214.151744 kJ/mol
# GULP energy per Si atom -12391.230721 kJ/mol
# Density = 1.691127 g / cm^3
# Si number density = 16.949850 Si / 1000 Ang^3
#
#
#
# Elastic Constant Matrix: (Units=GPa)
#
#
# Indices 1 2 3 4 5 6 
#
# 1 64.9341 39.0263 41.3918 0.0000 0.0000 0.0000
# 2 39.0263 111.9820 60.4646 0.0000 0.0000 0.0000
# 3 41.3918 60.4646 133.6801 0.0000 0.0000 0.0000
# 4 0.0000 0.0000 0.0000 21.4860 0.0000 0.0000
# 5 0.0000 0.0000 0.0000 0.0000 22.7320 0.0000
# 6 0.0000 0.0000 0.0000 0.0000 0.0000 18.0305
#
#
#
# Elastic Compliance Matrix: (Units=1/GPa)
#
#
# Indices 1 2 3 4 5 6 
#
# 1 0.021166 -0.005078 -0.004257 0.000000 0.000000 0.000000
# 2 -0.005078 0.013034 -0.004323 0.000000 0.000000 0.000000
# 3 -0.004257 -0.004323 0.010754 0.000000 0.000000 0.000000
# 4 0.000000 0.000000 0.000000 0.046542 0.000000 0.000000
# 5 0.000000 0.000000 0.000000 0.000000 0.043991 0.000000
# 6 0.000000 0.000000 0.000000 0.000000 0.000000 0.055461
#
#
# Mechanical properties :
#
#
# Convention : Reuss Voigt Hill
#
# Bulk Modulus (GPa) = 56.69587 65.81795 61.25691
# Shear Modulus (GPa) = 22.30724 23.76394 23.03559
#
# Velocity S-wave (km/s) = 3.63171 3.74841 3.69052
# Velocity P-wave (km/s) = 7.14895 7.59272 7.37418
#
# Compressibility (1/GPa) = 0.01763797
#
# Stress axis : x y z
#
# Youngs Moduli (GPa) = 47.24649 76.72298 92.98904
#
# Poissons Ratio (x) = 0.38959 0.39584
# Poissons Ratio (y) = 0.23991 0.40200
# Poissons Ratio (z) = 0.20112 0.33168
#
# Static dielectric constant tensor:
#      x y z
#    x 2.888610 0.000000 0.000000 
#    y 0.000000 3.307840 0.000000 
#    z 0.000000 0.000000 3.106560 
# 
# 
# High freq. dielectric constant tensor:
#      x y z
#    x 1.614600 0.000000 0.000000 
#    y 0.000000 1.650100 0.000000 
#    z 0.000000 0.000000 1.656510 
# 
# From -- ./inp_files/11489.got.cif
#   From: 2010.03.12/outbox.cif.g09.slc.cpg/sg66_6_cif.got.tgz:11489.got - 2010.04.10 21:57:39.
