data_PCOD8275021
_publ_section_title
;
Structure prediction by ZEFSAII (Michael W. Deem and Ramdas Pophale) SiO2 
 PCOD8275021
Probable space group: C M M M
;
_chemical_formula_sum "Si O2"
_cell_formula_units_Z 112
_cell_length_a 28.136594
_cell_length_b 23.809737
_cell_length_c 10.332936
_cell_angle_alpha 90.000000
_cell_angle_beta 90.000000
_cell_angle_gamma 90.000000
_cell_volume 6922.291150
_symmetry_space_group_name_H-M "C M M M"
_symmetry_group_IT_number 65
_symmetry_cell_setting 'orthorhombic'
loop_
_space_group_symop_operation_xyz
x,y,z
-x,-y,z
x,-y,-z
-x,y,-z
-x,-y,-z
x,y,-z
-x,y,z
x,-y,z
1/2+x,1/2+y,z
1/2-x,1/2-y,z
1/2+x,1/2-y,-z
1/2-x,1/2+y,-z
1/2-x,1/2-y,-z
1/2+x,1/2+y,-z
1/2-x,1/2+y,z
1/2+x,1/2-y,z
loop_
_atom_site_type_symbol
_atom_site_label
_atom_site_fract_x
_atom_site_fract_y
_atom_site_fract_z
Si Si1 0.225219 0.695403 0.853254
Si Si2 0.819481 0.134787 0.856954
Si Si3 0.402587 0.282202 0.855119
Si Si4 0.874776 0.342092 0.148141
Si Si5 0.946845 0.852835 0.643846
Si Si6 0.446235 0.936227 0.153822
Si Si7 0.864341 0.935357 0.646230
O O1 0.250000 0.750000 0.784600
O O2 0.263737 0.646458 0.852546
O O3 0.177321 0.669876 0.785918
O O4 0.210866 0.713966 0.000000
O O5 0.850146 0.191415 0.828310
O O6 0.826566 0.087913 0.748170
O O7 0.833175 0.111691 0.000000
O O8 0.403607 0.215521 0.839461
O O9 0.439378 0.304675 0.749673
O O10 0.419505 0.298562 0.000000
O O11 0.906878 0.392177 0.212007
O O12 0.865695 0.359284 0.000000
O O13 0.936201 0.828340 0.500000
O O14 0.914465 0.906215 0.673681
O O15 0.000000 0.875489 0.653779
O O16 0.500000 0.922164 0.203839
O O17 0.432480 0.000000 0.195519
O O18 0.446423 0.931052 0.000000
O O19 0.846091 0.923975 0.500000
O O20 0.872441 0.000000 0.673090
#
# Coordination Sequence:
#
# PCOD8275021 Si02
#       7
#    16  16  16  16  16  16  16
#     4   9  14  23  40  62  87 115 143 170 209 260
#     4   9  16  27  44  65  89 115 141 174 218 264
#     4   9  16  26  42  64  88 113 141 173 215 266
#     4   9  15  23  39  63  86 112 146 178 209 255
#     4   9  18  31  45  62  86 114 144 184 230 267
#     4   8  14  24  35  48  74 112 144 172 212 254
#     4   9  18  32  48  63  82 114 153 187 220 263
#
# _framework density 16.179613
#
# number of rings (size 3 to 8) (size 9 to 14) (size 15 to 20)
#    0.000    3.143    1.429    0.429    0.000    1.429 
#    0.000    3.571    0.000    3.857    0.000    4.000 
#    0.000    0.571    0.000    3.143    0.000    2.571 
#
# Total GULP energy -693797.638864 kJ/mol
# GULP energy per Si atom -12389.243551 kJ/mol
# Density = 1.614279 g / cm^3
# Si number density = 16.179613 Si / 1000 Ang^3
#
#
#
# Elastic Constant Matrix: (Units=GPa)
#
#
# Indices 1 2 3 4 5 6 
#
# 1 95.1395 51.8191 28.1997 0.0000 0.0000 0.0000
# 2 51.8191 97.7228 39.2093 0.0000 0.0000 0.0000
# 3 28.1997 39.2093 56.3149 0.0000 0.0000 0.0000
# 4 0.0000 0.0000 0.0000 9.4459 0.0000 0.0000
# 5 0.0000 0.0000 0.0000 0.0000 11.7363 0.0000
# 6 0.0000 0.0000 0.0000 0.0000 0.0000 21.7209
#
#
#
# Elastic Compliance Matrix: (Units=1/GPa)
#
#
# Indices 1 2 3 4 5 6 
#
# 1 0.015081 -0.006892 -0.002753 0.000000 0.000000 0.000000
# 2 -0.006892 0.017350 -0.008628 0.000000 0.000000 0.000000
# 3 -0.002753 -0.008628 0.025143 0.000000 0.000000 0.000000
# 4 0.000000 0.000000 0.000000 0.105866 0.000000 0.000000
# 5 0.000000 0.000000 0.000000 0.000000 0.085206 0.000000
# 6 0.000000 0.000000 0.000000 0.000000 0.000000 0.046039
#
#
# Mechanical properties :
#
#
# Convention : Reuss Voigt Hill
#
# Bulk Modulus (GPa) = 47.55890 54.18149 50.87020
# Shear Modulus (GPa) = 14.78236 17.24388 16.01312
#
# Velocity S-wave (km/s) = 3.02593 3.26817 3.14938
# Velocity P-wave (km/s) = 6.45496 6.91386 6.68834
#
# Compressibility (1/GPa) = 0.02102656
#
# Stress axis : x y z
#
# Youngs Moduli (GPa) = 66.30916 57.63766 39.77190
#
# Poissons Ratio (x) = 0.39726 0.10949
# Poissons Ratio (y) = 0.45702 0.34317
# Poissons Ratio (z) = 0.18255 0.49732
#
# Static dielectric constant tensor:
#      x y z
#    x 3.174330 0.000000 0.000000 
#    y 0.000000 3.019430 0.000000 
#    z 0.000000 0.000000 2.802970 
# 
# 
# High freq. dielectric constant tensor:
#      x y z
#    x 1.622090 0.000000 0.000000 
#    y 0.000000 1.610760 0.000000 
#    z 0.000000 0.000000 1.573060 
# 
# From -- ./inp_files/31243.got.cif
#   From: 2010.03.12/outbox.cif.g09.slc.cpg/sg65_16_cif.got.tgz:31243.got - 2010.04.10 20:52:16.
