data_PCOD8275151
_publ_section_title
;
Structure prediction by ZEFSAII (Michael W. Deem and Ramdas Pophale) SiO2 
 PCOD8275151
Probable space group: C M M M
;
_chemical_formula_sum "Si O2"
_cell_formula_units_Z 88
_cell_length_a 27.458528
_cell_length_b 19.142860
_cell_length_c 9.633931
_cell_angle_alpha 90.000000
_cell_angle_beta 90.000000
_cell_angle_gamma 90.000000
_cell_volume 5063.928983
_symmetry_space_group_name_H-M "C M M M"
_symmetry_group_IT_number 65
_symmetry_cell_setting 'orthorhombic'
loop_
_space_group_symop_operation_xyz
x,y,z
-x,-y,z
x,-y,-z
-x,y,-z
-x,-y,-z
x,y,-z
-x,y,z
x,-y,z
1/2+x,1/2+y,z
1/2-x,1/2-y,z
1/2+x,1/2-y,-z
1/2-x,1/2+y,-z
1/2-x,1/2-y,-z
1/2+x,1/2+y,-z
1/2-x,1/2+y,z
1/2+x,1/2-y,z
loop_
_atom_site_type_symbol
_atom_site_label
_atom_site_fract_x
_atom_site_fract_y
_atom_site_fract_z
Si Si1 0.759714 0.921612 0.163948
Si Si2 0.500000 0.076171 0.334410
Si Si3 0.823512 0.683063 0.162843
Si Si4 0.587345 0.835949 0.342556
Si Si5 0.055630 0.178614 0.341957
Si Si6 0.647822 0.661036 0.162085
O O1 0.723624 0.860009 0.217486
O O2 0.814704 0.899971 0.204858
O O3 0.748742 0.000000 0.224421
O O4 0.755015 0.924404 0.000000
O O5 0.500000 0.079392 0.500000
O O6 0.451861 0.112183 0.278654
O O7 0.500000 0.000000 0.271339
O O8 0.867702 0.649380 0.244102
O O9 0.824189 0.765982 0.198550
O O10 0.830402 0.671875 0.000000
O O11 0.603010 0.852967 0.500000
O O12 0.562771 0.760811 0.333535
O O13 0.063135 0.152179 0.500000
O O14 0.097550 0.145597 0.244404
O O15 0.000000 0.160218 0.293208
O O16 0.634438 0.659640 0.000000
#
# Coordination Sequence:
#
# PCOD8275151 Si02
#       6
#    16   8  16  16  16  16
#     4   9  17  30  48  67  90 122 154 182 221 275
#     4   9  16  26  41  59  83 119 156 185 216 258
#     4   9  17  29  46  68  91 116 147 187 227 262
#     4   9  16  28  44  63  87 116 151 187 220 259
#     4   9  16  28  47  68  91 118 147 182 226 273
#     4   9  17  29  47  71  93 115 149 191 226 259
#
# _framework density 17.377811000000001
#
# number of rings (size 3 to 8) (size 9 to 14) (size 15 to 20)
#    0.000    3.000    0.909    0.545    0.000    3.273 
#    0.000    1.364    0.000    7.091    0.000    3.818 
#    0.000    0.000    0.000    0.000    0.000    0.000 
#
# Total GULP energy -545094.044421 kJ/mol
# GULP energy per Si atom -12388.501010 kJ/mol
# Density = 1.733826 g / cm^3
# Si number density = 17.377811 Si / 1000 Ang^3
#
#
#
# Elastic Constant Matrix: (Units=GPa)
#
#
# Indices 1 2 3 4 5 6 
#
# 1 127.6289 38.5112 37.0919 0.0000 0.0000 0.0000
# 2 38.5112 50.9649 15.4526 0.0000 0.0000 0.0000
# 3 37.0919 15.4526 32.3337 0.0000 0.0000 0.0000
# 4 0.0000 0.0000 0.0000 11.3360 0.0000 0.0000
# 5 0.0000 0.0000 0.0000 0.0000 131.6692 0.0000
# 6 0.0000 0.0000 0.0000 0.0000 0.0000 -10.4839
#
#
#
# Elastic Compliance Matrix: (Units=1/GPa)
#
#
# Indices 1 2 3 4 5 6 
#
# 1 0.013304 -0.006345 -0.012229 0.000000 0.000000 0.000000
# 2 -0.006345 0.025972 -0.005134 0.000000 0.000000 0.000000
# 3 -0.012229 -0.005134 0.047410 0.000000 0.000000 0.000000
# 4 0.000000 0.000000 0.000000 0.088215 0.000000 0.000000
# 5 0.000000 0.000000 0.000000 0.000000 0.007595 0.000000
# 6 0.000000 0.000000 0.000000 0.000000 0.000000 -0.095385
#
#
# Mechanical properties :
#
#
# Convention : Reuss Voigt Hill
#
# Bulk Modulus (GPa) = 25.46466 43.67099 34.56782
# Shear Modulus (GPa) = 33.87136 34.49572 34.18354
#
# Velocity S-wave (km/s) = 4.41967 4.46022 4.43999
# Velocity P-wave (km/s) = 6.38200 7.19094 6.79851
#
# Compressibility (1/GPa) = 0.03927011
#
# Stress axis : x y z
#
# Youngs Moduli (GPa) = 75.16575 38.50232 21.09262
#
# Poissons Ratio (x) = 0.24430 0.25795
# Poissons Ratio (y) = 0.47693 0.10828
# Poissons Ratio (z) = 0.91923 0.19766
#
# Static dielectric constant tensor:
#      x y z
#    x 3.388870 0.000000 0.000000 
#    y 0.000000 3.232230 0.000000 
#    z 0.000000 0.000000 3.005190 
# 
# 
# High freq. dielectric constant tensor:
#      x y z
#    x 1.680270 0.000000 0.000000 
#    y 0.000000 1.651430 0.000000 
#    z 0.000000 0.000000 1.636680 
# 
# From -- ./inp_files/18344.got.cif
#   From: 2010.03.12/outbox.cif.g09.slc.cpg/sg65_10_cif.got.tgz:18344.got - 2010.04.10 20:52:16.
