data_PCOD8275596
_publ_section_title
;
Structure prediction by ZEFSAII (Michael W. Deem and Ramdas Pophale) SiO2 
 PCOD8275596
Probable space group: C C C M
;
_chemical_formula_sum "Si O2"
_cell_formula_units_Z 80
_cell_length_a 31.075493
_cell_length_b 14.461849
_cell_length_c 8.586913
_cell_angle_alpha 90.000000
_cell_angle_beta 90.000000
_cell_angle_gamma 90.000000
_cell_volume 3859.036735
_symmetry_space_group_name_H-M "C C C M"
_symmetry_group_IT_number 66
_symmetry_cell_setting 'orthorhombic'
loop_
_space_group_symop_operation_xyz
x,y,z
-x,-y,z
x,-y,1/2-z
-x,y,1/2-z
-x,-y,-z
x,y,-z
-x,y,1/2+z
x,-y,1/2+z
1/2+x,1/2+y,z
1/2-x,1/2-y,z
1/2+x,1/2-y,1/2-z
1/2-x,1/2+y,1/2-z
1/2-x,1/2-y,-z
1/2+x,1/2+y,-z
1/2-x,1/2+y,1/2+z
1/2+x,1/2-y,1/2+z
loop_
_atom_site_type_symbol
_atom_site_label
_atom_site_fract_x
_atom_site_fract_y
_atom_site_fract_z
Si Si1 0.704329 0.770558 0.675210
Si Si2 0.651689 0.586448 0.324738
Si Si3 0.456525 0.790536 0.183173
Si Si4 0.128555 0.396969 0.686278
Si Si5 0.061231 0.096114 0.181166
O O1 0.714605 0.804591 0.500000
O O2 0.750000 0.750000 0.762970
O O3 0.681116 0.673899 0.674233
O O4 0.672105 0.846505 0.751650
O O5 0.678036 0.500000 0.250000
O O6 0.635042 0.565614 0.500000
O O7 0.612035 0.600706 0.209214
O O8 0.500000 0.838802 0.250000
O O9 0.413693 0.842032 0.248076
O O10 0.458842 0.683378 0.230810
O O11 0.456829 0.799171 0.000000
O O12 0.127361 0.500000 0.750000
O O13 0.129133 0.395955 0.500000
O O14 0.042145 0.000000 0.250000
O O15 0.050295 0.103586 0.000000
#
# Coordination Sequence:
#
# PCOD8275596 Si02
#       5
#    16  16  16  16  16
#     4   9  18  35  59  85 117 158 196 237 295 357
#     4  10  18  32  54  82 115 151 192 236 286 347
#     4  11  23  41  62  89 121 157 203 252 304 358
#     4  10  22  41  63  87 119 158 202 251 301 356
#     4  11  21  35  58  87 119 157 196 239 293 355
#
# _framework density 20.730561000000002
#
# number of rings (size 3 to 8) (size 9 to 14) (size 15 to 20)
#    0.000    1.800    2.000    4.200    0.000    3.200 
#    0.000    4.000    0.000    4.200    0.000    0.000 
#    0.000    0.000    0.000    0.000    0.000    0.000 
#
# Total GULP energy -495667.506373 kJ/mol
# GULP energy per Si atom -12391.687659 kJ/mol
# Density = 2.068338 g / cm^3
# Si number density = 20.730561 Si / 1000 Ang^3
#
#
#
# Elastic Constant Matrix: (Units=GPa)
#
#
# Indices 1 2 3 4 5 6 
#
# 1 151.7784 65.1628 23.6200 0.0000 0.0000 0.0000
# 2 65.1628 124.4014 21.5778 0.0000 0.0000 0.0000
# 3 23.6200 21.5778 53.5493 0.0000 0.0000 0.0000
# 4 0.0000 0.0000 0.0000 27.4438 0.0000 0.0000
# 5 0.0000 0.0000 0.0000 0.0000 18.1658 0.0000
# 6 0.0000 0.0000 0.0000 0.0000 0.0000 -6.5040
#
#
#
# Elastic Compliance Matrix: (Units=1/GPa)
#
#
# Indices 1 2 3 4 5 6 
#
# 1 0.008726 -0.004196 -0.002158 0.000000 0.000000 0.000000
# 2 -0.004196 0.010661 -0.002445 0.000000 0.000000 0.000000
# 3 -0.002158 -0.002445 0.020611 0.000000 0.000000 0.000000
# 4 0.000000 0.000000 0.000000 0.036438 0.000000 0.000000
# 5 0.000000 0.000000 0.000000 0.000000 0.055049 0.000000
# 6 0.000000 0.000000 0.000000 0.000000 0.000000 -0.153751
#
#
# Mechanical properties :
#
#
# Convention : Reuss Voigt Hill
#
# Bulk Modulus (GPa) = 44.64343 61.16112 52.90228
# Shear Modulus (GPa) = 1786.61716 22.44569 904.53142
#
# Velocity S-wave (km/s) = 29.38875 3.29406 20.91112
# Velocity P-wave (km/s) = 34.25172 6.63587 24.66997
#
# Compressibility (1/GPa) = 0.02239971
#
# Stress axis : x y z
#
# Youngs Moduli (GPa) = 114.59926 93.80235 48.51701
#
# Poissons Ratio (x) = 0.39364 0.10470
# Poissons Ratio (y) = 0.48092 0.11861
# Poissons Ratio (z) = 0.24730 0.22932
#
# Static dielectric constant tensor:
#      x y z
#    x 4.135470 0.000000 0.000000 
#    y 0.000000 3.978820 0.000000 
#    z 0.000000 0.000000 3.682770 
# 
# 
# High freq. dielectric constant tensor:
#      x y z
#    x 1.818560 0.000000 0.000000 
#    y 0.000000 1.813560 0.000000 
#    z 0.000000 0.000000 1.786030 
# 
# From -- ./inp_files/11359.got.cif
#   From: 2010.03.12/outbox.cif.g09.slc.cpg/sg66_6_cif.got.tgz:11359.got - 2010.04.10 21:57:39.
