data_PCOD8275297
_publ_section_title
;
Structure prediction by ZEFSAII (Michael W. Deem and Ramdas Pophale) SiO2 
 PCOD8275297
Probable space group: C C C M
;
_chemical_formula_sum "Si O2"
_cell_formula_units_Z 64
_cell_length_a 13.560760
_cell_length_b 34.580735
_cell_length_c 8.402710
_cell_angle_alpha 90.000000
_cell_angle_beta 90.000000
_cell_angle_gamma 90.000000
_cell_volume 3940.375633
_symmetry_space_group_name_H-M "C C C M"
_symmetry_group_IT_number 66
_symmetry_cell_setting 'orthorhombic'
loop_
_space_group_symop_operation_xyz
x,y,z
-x,-y,z
x,-y,1/2-z
-x,y,1/2-z
-x,-y,-z
x,y,-z
-x,y,1/2+z
x,-y,1/2+z
1/2+x,1/2+y,z
1/2-x,1/2-y,z
1/2+x,1/2-y,1/2-z
1/2-x,1/2+y,1/2-z
1/2-x,1/2-y,-z
1/2+x,1/2+y,-z
1/2-x,1/2+y,1/2+z
1/2+x,1/2-y,1/2+z
loop_
_atom_site_type_symbol
_atom_site_label
_atom_site_fract_x
_atom_site_fract_y
_atom_site_fract_z
Si Si1 0.395826 0.735734 0.685673
Si Si2 0.389006 0.880538 0.312480
Si Si3 0.785078 0.693391 0.685172
Si Si4 0.389140 0.960692 0.188655
O O1 0.500000 0.720397 0.750000
O O2 0.401277 0.744423 0.500000
O O3 0.314376 0.703049 0.718857
O O4 0.369729 0.775660 0.774231
O O5 0.500000 0.876392 0.250000
O O6 0.388710 0.874981 0.500000
O O7 0.320087 0.848982 0.231591
O O8 0.341706 0.922058 0.264188
O O9 0.760591 0.695365 0.500000
O O10 0.500000 0.962315 0.250000
O O11 0.334786 0.000000 0.250000
O O12 0.385380 0.958170 0.000000
#
# Coordination Sequence:
#
# PCOD8275297 Si02
#       4
#    16  16  16  16
#     4  11  21  35  51  69  91 120 152 188 229 272
#     4  11  20  31  45  65  91 122 155 191 228 269
#     4  11  21  34  49  69  92 119 153 191 228 270
#     4  10  17  27  41  60  85 117 151 185 222 267
#
# _framework density 16.242107000000001
#
# number of rings (size 3 to 8) (size 9 to 14) (size 15 to 20)
#    0.000    1.250    0.000   13.500    0.000    0.000 
#    0.000    0.000    0.000    0.000    0.000    0.000 
#    0.000    1.000    0.000   10.000    0.000    6.000 
#
# Total GULP energy -396821.413955 kJ/mol
# GULP energy per Si atom -12400.669186 kJ/mol
# Density = 1.620514 g / cm^3
# Si number density = 16.242107 Si / 1000 Ang^3
#
#
#
# Elastic Constant Matrix: (Units=GPa)
#
#
# Indices 1 2 3 4 5 6 
#
# 1 64.2321 31.2519 8.0767 0.0000 0.0000 0.0000
# 2 31.2519 124.5266 6.9612 0.0000 0.0000 0.0000
# 3 8.0767 6.9612 94.4944 0.0000 0.0000 0.0000
# 4 0.0000 0.0000 0.0000 31.2303 0.0000 0.0000
# 5 0.0000 0.0000 0.0000 0.0000 22.2469 0.0000
# 6 0.0000 0.0000 0.0000 0.0000 0.0000 21.8400
#
#
#
# Elastic Compliance Matrix: (Units=1/GPa)
#
#
# Indices 1 2 3 4 5 6 
#
# 1 0.017869 -0.004417 -0.001202 0.000000 0.000000 0.000000
# 2 -0.004417 0.009156 -0.000297 0.000000 0.000000 0.000000
# 3 -0.001202 -0.000297 0.010707 0.000000 0.000000 0.000000
# 4 0.000000 0.000000 0.000000 0.032020 0.000000 0.000000
# 5 0.000000 0.000000 0.000000 0.000000 0.044950 0.000000
# 6 0.000000 0.000000 0.000000 0.000000 0.000000 0.045788
#
#
# Mechanical properties :
#
#
# Convention : Reuss Voigt Hill
#
# Bulk Modulus (GPa) = 38.61073 41.75918 40.18495
# Shear Modulus (GPa) = 27.63120 30.86099 29.24609
#
# Velocity S-wave (km/s) = 4.12904 4.36370 4.24799
# Velocity P-wave (km/s) = 6.82317 7.15230 6.98967
#
# Compressibility (1/GPa) = 0.02589954
#
# Stress axis : x y z
#
# Youngs Moduli (GPa) = 55.96326 109.22284 93.39474
#
# Poissons Ratio (x) = 0.48247 0.11225
# Poissons Ratio (y) = 0.24721 0.02773
# Poissons Ratio (z) = 0.06726 0.03243
#
# Static dielectric constant tensor:
#      x y z
#    x 2.805260 0.000000 0.000000 
#    y 0.000000 3.918580 0.000000 
#    z 0.000000 0.000000 3.309870 
# 
# 
# High freq. dielectric constant tensor:
#      x y z
#    x 1.570650 0.000000 0.000000 
#    y 0.000000 1.632840 0.000000 
#    z 0.000000 0.000000 1.654620 
# 
# From -- ./inp_files/5469.got.cif
#   From: 2010.03.12/outbox.cif.g09.slc.cpg/sg66_3_cif.got.tgz:5469.got - 2010.04.10 21:57:39.
