data_PCOD8275589
_publ_section_title
;
Structure prediction by ZEFSAII (Michael W. Deem and Ramdas Pophale) SiO2 
 PCOD8275589
Probable space group: C C C M
;
_chemical_formula_sum "Si O2"
_cell_formula_units_Z 112
_cell_length_a 15.913002
_cell_length_b 14.148501
_cell_length_c 28.172749
_cell_angle_alpha 90.000000
_cell_angle_beta 90.000000
_cell_angle_gamma 90.000000
_cell_volume 6342.957087
_symmetry_space_group_name_H-M "C C C M"
_symmetry_group_IT_number 66
_symmetry_cell_setting 'orthorhombic'
loop_
_space_group_symop_operation_xyz
x,y,z
-x,-y,z
x,-y,1/2-z
-x,y,1/2-z
-x,-y,-z
x,y,-z
-x,y,1/2+z
x,-y,1/2+z
1/2+x,1/2+y,z
1/2-x,1/2-y,z
1/2+x,1/2-y,1/2-z
1/2-x,1/2+y,1/2-z
1/2-x,1/2-y,-z
1/2+x,1/2+y,-z
1/2-x,1/2+y,1/2+z
1/2+x,1/2-y,1/2+z
loop_
_atom_site_type_symbol
_atom_site_label
_atom_site_fract_x
_atom_site_fract_y
_atom_site_fract_z
Si Si1 0.821979 0.465475 0.119091
Si Si2 0.185648 0.428165 0.786521
Si Si3 0.814766 0.829279 0.637647
Si Si4 0.860277 0.104269 0.240250
Si Si5 0.547129 0.196715 0.882529
Si Si6 0.932665 0.417578 0.552824
Si Si7 0.946048 0.725278 0.209424
O O1 0.790610 0.515613 0.166457
O O2 0.738839 0.403887 0.105187
O O3 0.902638 0.399431 0.129818
O O4 0.849481 0.543661 0.080083
O O5 0.139219 0.500000 0.750000
O O6 0.266856 0.387231 0.760676
O O7 0.131361 0.340450 0.803256
O O8 0.750000 0.750000 0.656824
O O9 0.858783 0.874038 0.684015
O O10 0.885689 0.779386 0.603798
O O11 0.919345 0.174148 0.269489
O O12 0.896661 0.000000 0.250000
O O13 0.477126 0.173389 0.922494
O O14 0.500670 0.238763 0.837163
O O15 0.904417 0.386689 0.500000
O O16 0.000000 0.500000 0.549472
O O17 0.000000 0.672726 0.250000
#
# Coordination Sequence:
#
# PCOD8275589 Si02
#       7
#    16  16  16  16  16  16  16
#     4  10  18  32  53  75 103 137 173 218 275 325
#     4  11  20  31  49  72 101 138 177 215 264 318
#     4  10  18  33  49  70 106 144 174 213 263 328
#     4  11  22  34  46  66 104 150 184 214 253 310
#     4  10  20  32  50  76 106 135 174 221 270 323
#     4   9  18  34  55  79 107 136 173 229 288 333
#     4  12  22  31  46  72 105 139 177 219 260 315
#
# _framework density 17.657378999999999
#
# number of rings (size 3 to 8) (size 9 to 14) (size 15 to 20)
#    0.000    1.571    5.714    2.143    0.000    1.714 
#    0.000    0.714    0.000    4.286    0.000    2.000 
#    0.000    1.143    0.000    0.000    0.000    0.000 
#
# Total GULP energy -693896.803831 kJ/mol
# GULP energy per Si atom -12391.014354 kJ/mol
# Density = 1.761719 g / cm^3
# Si number density = 17.657379 Si / 1000 Ang^3
#
#
#
# Elastic Constant Matrix: (Units=GPa)
#
#
# Indices 1 2 3 4 5 6 
#
# 1 72.9873 45.7297 38.0422 0.0000 0.0000 0.0000
# 2 45.7297 77.6804 31.7482 0.0000 0.0000 0.0000
# 3 38.0422 31.7482 91.2016 0.0000 0.0000 0.0000
# 4 0.0000 0.0000 0.0000 -0.1542 0.0000 0.0000
# 5 0.0000 0.0000 0.0000 0.0000 10.6859 0.0000
# 6 0.0000 0.0000 0.0000 0.0000 0.0000 45.7939
#
#
#
# Elastic Compliance Matrix: (Units=1/GPa)
#
#
# Indices 1 2 3 4 5 6 
#
# 1 0.024225 -0.011812 -0.005993 0.000000 0.000000 0.000000
# 2 -0.011812 0.020768 -0.002303 0.000000 0.000000 0.000000
# 3 -0.005993 -0.002303 0.014266 0.000000 0.000000 0.000000
# 4 0.000000 0.000000 0.000000 -6.484790 0.000000 0.000000
# 5 0.000000 0.000000 0.000000 0.000000 0.093581 0.000000
# 6 0.000000 0.000000 0.000000 0.000000 0.000000 0.021837
#
#
# Mechanical properties :
#
#
# Convention : Reuss Voigt Hill
#
# Bulk Modulus (GPa) = 52.50896 52.54549 52.52723
# Shear Modulus (GPa) = -0.79827 19.68840 9.44506
#
# Velocity S-wave (km/s) = -0.67310 3.34282 2.31532
# Velocity P-wave (km/s) = 5.40353 6.68747 6.07949
#
# Compressibility (1/GPa) = 0.01904437
#
# Stress axis : x y z
#
# Youngs Moduli (GPa) = 41.27910 48.15148 70.09617
#
# Poissons Ratio (x) = 0.56876 0.42009
# Poissons Ratio (y) = 0.48758 0.16140
# Poissons Ratio (z) = 0.24739 0.11087
#
# Static dielectric constant tensor:
#      x y z
#    x 3.351410 0.000000 0.000000 
#    y 0.000000 3.356240 0.000000 
#    z 0.000000 0.000000 3.127030 
# 
# 
# High freq. dielectric constant tensor:
#      x y z
#    x 1.679920 0.000000 0.000000 
#    y 0.000000 1.675920 0.000000 
#    z 0.000000 0.000000 1.645410 
# 
# From -- ./inp_files/64654.got.cif
#   From: 2010.03.12/outbox.cif.g09.slc.cpg/sg66_33_cif.got.tgz:64654.got - 2010.04.10 21:57:39.
