data_PCOD8275333
_publ_section_title
;
Structure prediction by ZEFSAII (Michael W. Deem and Ramdas Pophale) SiO2 
 PCOD8275333
Probable space group: C C C M
;
_chemical_formula_sum "Si O2"
_cell_formula_units_Z 120
_cell_length_a 16.201334
_cell_length_b 22.280009
_cell_length_c 18.750853
_cell_angle_alpha 90.000000
_cell_angle_beta 90.000000
_cell_angle_gamma 90.000000
_cell_volume 6768.417916
_symmetry_space_group_name_H-M "C C C M"
_symmetry_group_IT_number 66
_symmetry_cell_setting 'orthorhombic'
loop_
_space_group_symop_operation_xyz
x,y,z
-x,-y,z
x,-y,1/2-z
-x,y,1/2-z
-x,-y,-z
x,y,-z
-x,y,1/2+z
x,-y,1/2+z
1/2+x,1/2+y,z
1/2-x,1/2-y,z
1/2+x,1/2-y,1/2-z
1/2-x,1/2+y,1/2-z
1/2-x,1/2-y,-z
1/2+x,1/2+y,-z
1/2-x,1/2+y,1/2+z
1/2+x,1/2-y,1/2+z
loop_
_atom_site_type_symbol
_atom_site_label
_atom_site_fract_x
_atom_site_fract_y
_atom_site_fract_z
Si Si1 0.923459 0.917186 0.200966
Si Si2 0.750000 0.250000 0.868890
Si Si3 0.671792 0.631350 0.670708
Si Si4 0.871368 0.477999 0.583743
Si Si5 0.483628 0.343798 0.584847
Si Si6 0.471657 0.908511 0.084697
Si Si7 0.426296 0.218459 0.419075
Si Si8 0.223170 0.002300 0.328147
O O1 0.868850 0.874269 0.251175
O O2 0.869582 0.974000 0.173893
O O3 0.000000 0.939603 0.250000
O O4 0.948964 0.879905 0.130669
O O5 0.728464 0.309233 0.822685
O O6 0.670648 0.233517 0.915859
O O7 0.607139 0.634034 0.605750
O O8 0.721899 0.571886 0.649095
O O9 0.857174 0.479437 0.500000
O O10 0.908535 0.540874 0.612883
O O11 0.782645 0.465554 0.619305
O O12 0.934352 0.424996 0.605618
O O13 0.498607 0.353244 0.500000
O O14 0.483935 0.273291 0.608319
O O15 0.448963 0.844133 0.120375
O O16 0.462893 0.908307 0.000000
O O17 0.450385 0.208513 0.500000
O O18 0.262940 0.000000 0.250000
#
# Coordination Sequence:
#
# PCOD8275333 Si02
#       8
#    16   8  16  16  16  16  16  16
#     4   9  19  36  52  67  94 133 164 194 243 299
#     4  10  17  28  48  74  99 122 156 204 240 280
#     4   9  19  32  48  69  96 126 155 190 242 296
#     4   9  17  30  49  73  97 124 163 204 240 286
#     4   9  18  31  48  71  95 121 159 199 237 287
#     4   8  15  29  48  68  98 136 161 188 245 307
#     4   9  16  27  46  72 100 128 155 192 245 296
#     4  10  20  33  50  71  95 126 162 200 243 292
#
# _framework density 17.729400999999999
#
# number of rings (size 3 to 8) (size 9 to 14) (size 15 to 20)
#    0.000    2.933    0.000    1.800    0.000    7.733 
#    0.000    4.667    0.000    3.200    0.000    4.200 
#    0.000    0.000    0.000    0.000    0.000    0.000 
#
# Total GULP energy -743320.929008 kJ/mol
# GULP energy per Si atom -12388.682150 kJ/mol
# Density = 1.768905 g / cm^3
# Si number density = 17.729401 Si / 1000 Ang^3
#
#
#
# Elastic Constant Matrix: (Units=GPa)
#
#
# Indices 1 2 3 4 5 6 
#
# 1 92.4193 46.1626 29.9752 0.0000 0.0000 0.0000
# 2 46.1626 122.0646 25.5881 0.0000 0.0000 0.0000
# 3 29.9752 25.5881 57.5531 0.0000 0.0000 0.0000
# 4 0.0000 0.0000 0.0000 18.6650 0.0000 0.0000
# 5 0.0000 0.0000 0.0000 0.0000 24.6729 0.0000
# 6 0.0000 0.0000 0.0000 0.0000 0.0000 31.1343
#
#
#
# Elastic Compliance Matrix: (Units=1/GPa)
#
#
# Indices 1 2 3 4 5 6 
#
# 1 0.014911 -0.004423 -0.005799 0.000000 0.000000 0.000000
# 2 -0.004423 0.010347 -0.002296 0.000000 0.000000 0.000000
# 3 -0.005799 -0.002296 0.021417 0.000000 0.000000 0.000000
# 4 0.000000 0.000000 0.000000 0.053576 0.000000 0.000000
# 5 0.000000 0.000000 0.000000 0.000000 0.040530 0.000000
# 6 0.000000 0.000000 0.000000 0.000000 0.000000 0.032119
#
#
# Mechanical properties :
#
#
# Convention : Reuss Voigt Hill
#
# Bulk Modulus (GPa) = 46.21910 52.83210 49.52560
# Shear Modulus (GPa) = 24.37258 26.24853 25.31055
#
# Velocity S-wave (km/s) = 3.71171 3.85191 3.78246
# Velocity P-wave (km/s) = 6.67045 7.04605 6.86082
#
# Compressibility (1/GPa) = 0.02163608
#
# Stress axis : x y z
#
# Youngs Moduli (GPa) = 67.06679 96.65076 46.69276
#
# Poissons Ratio (x) = 0.42751 0.27078
# Poissons Ratio (y) = 0.29665 0.10722
# Poissons Ratio (z) = 0.38894 0.22194
#
# Static dielectric constant tensor:
#      x y z
#    x 3.202690 0.000000 0.000000 
#    y 0.000000 3.759480 0.000000 
#    z 0.000000 0.000000 3.014750 
# 
# 
# High freq. dielectric constant tensor:
#      x y z
#    x 1.675080 0.000000 0.000000 
#    y 0.000000 1.695140 0.000000 
#    z 0.000000 0.000000 1.654260 
# 
# From -- ./inp_files/50252.got.cif
#   From: 2010.03.12/outbox.cif.g09.slc.cpg/sg66_26_cif.got.tgz:50252.got - 2010.04.10 21:57:39.
