data_PCOD8275749
_publ_section_title
;
Structure prediction by ZEFSAII (Michael W. Deem and Ramdas Pophale) SiO2 
 PCOD8275749
Probable space group: C C C M
;
_chemical_formula_sum "Si O2"
_cell_formula_units_Z 80
_cell_length_a 23.447761
_cell_length_b 24.499048
_cell_length_c 9.634836
_cell_angle_alpha 90.000000
_cell_angle_beta 90.000000
_cell_angle_gamma 90.000000
_cell_volume 5534.710558
_symmetry_space_group_name_H-M "C C C M"
_symmetry_group_IT_number 66
_symmetry_cell_setting 'orthorhombic'
loop_
_space_group_symop_operation_xyz
x,y,z
-x,-y,z
x,-y,1/2-z
-x,y,1/2-z
-x,-y,-z
x,y,-z
-x,y,1/2+z
x,-y,1/2+z
1/2+x,1/2+y,z
1/2-x,1/2-y,z
1/2+x,1/2-y,1/2-z
1/2-x,1/2+y,1/2-z
1/2-x,1/2-y,-z
1/2+x,1/2+y,-z
1/2-x,1/2+y,1/2+z
1/2+x,1/2-y,1/2+z
loop_
_atom_site_type_symbol
_atom_site_label
_atom_site_fract_x
_atom_site_fract_y
_atom_site_fract_z
Si Si1 0.337202 0.730513 0.835587
Si Si2 0.752769 0.949470 0.339717
Si Si3 0.943799 0.836135 0.663690
Si Si4 0.386208 0.550159 0.158627
Si Si5 0.272068 0.167747 0.664532
O O1 0.398135 0.708970 0.783061
O O2 0.325774 0.793904 0.791543
O O3 0.286206 0.693382 0.773451
O O4 0.335830 0.724567 0.000000
O O5 0.739559 0.962136 0.500000
O O6 0.819621 0.939212 0.314963
O O7 0.720293 0.894819 0.285565
O O8 0.729808 0.000000 0.250000
O O9 0.956163 0.830879 0.500000
O O10 0.920327 0.895886 0.701234
O O11 0.000000 0.823992 0.750000
O O12 0.409170 0.500000 0.250000
O O13 0.397709 0.534465 0.000000
O O14 0.265633 0.166760 0.500000
#
# Coordination Sequence:
#
# PCOD8275749 Si02
#       5
#    16  16  16  16  16
#     4   8  13  23  40  60  77  96 128 167 200 228
#     4   9  15  24  39  60  82 103 127 157 194 233
#     4  10  19  30  42  57  78 103 134 169 201 231
#     4   9  17  28  40  54  75 103 135 168 196 226
#     4   8  12  21  41  62  77  96 127 165 197 229
#
# _framework density 14.454234
#
# number of rings (size 3 to 8) (size 9 to 14) (size 15 to 20)
#    0.000    3.200    2.000    1.200    0.000    1.200 
#    0.000    2.000    0.000    1.200    0.000    2.800 
#    0.000    0.800    0.000   10.000    0.000    0.000 
#
# Total GULP energy -495649.719598 kJ/mol
# GULP energy per Si atom -12391.242990 kJ/mol
# Density = 1.442134 g / cm^3
# Si number density = 14.454234 Si / 1000 Ang^3
#
#
#
# Elastic Constant Matrix: (Units=GPa)
#
#
# Indices 1 2 3 4 5 6 
#
# 1 70.4464 65.4580 27.8975 0.0000 0.0000 0.0000
# 2 65.4580 142.8238 41.5590 0.0000 0.0000 0.0000
# 3 27.8975 41.5590 31.2945 0.0000 0.0000 0.0000
# 4 0.0000 0.0000 0.0000 16.2484 0.0000 0.0000
# 5 0.0000 0.0000 0.0000 0.0000 2.9168 0.0000
# 6 0.0000 0.0000 0.0000 0.0000 0.0000 21.8272
#
#
#
# Elastic Compliance Matrix: (Units=1/GPa)
#
#
# Indices 1 2 3 4 5 6 
#
# 1 0.027498 -0.008915 -0.012674 0.000000 0.000000 0.000000
# 2 -0.008915 0.014301 -0.011045 0.000000 0.000000 0.000000
# 3 -0.012674 -0.011045 0.057921 0.000000 0.000000 0.000000
# 4 0.000000 0.000000 0.000000 0.061545 0.000000 0.000000
# 5 0.000000 0.000000 0.000000 0.000000 0.342836 0.000000
# 6 0.000000 0.000000 0.000000 0.000000 0.000000 0.045814
#
#
# Mechanical properties :
#
#
# Convention : Reuss Voigt Hill
#
# Bulk Modulus (GPa) = 29.02604 57.15486 43.09045
# Shear Modulus (GPa) = 7.97873 15.50850 11.74361
#
# Velocity S-wave (km/s) = 2.35202 3.27913 2.85348
# Velocity P-wave (km/s) = 5.24413 7.34607 6.38222
#
# Compressibility (1/GPa) = 0.03445183
#
# Stress axis : x y z
#
# Youngs Moduli (GPa) = 36.36680 69.92435 17.26494
#
# Poissons Ratio (x) = 0.62334 0.21882
# Poissons Ratio (y) = 0.32419 0.19069
# Poissons Ratio (z) = 0.46092 0.77232
#
# Static dielectric constant tensor:
#      x y z
#    x 2.652680 0.000000 0.000000 
#    y 0.000000 3.131750 0.000000 
#    z 0.000000 0.000000 2.506190 
# 
# 
# High freq. dielectric constant tensor:
#      x y z
#    x 1.514900 0.000000 0.000000 
#    y 0.000000 1.559380 0.000000 
#    z 0.000000 0.000000 1.515730 
# 
# From -- ./inp_files/16345.got.cif
#   From: 2010.03.12/outbox.cif.g09.slc.cpg/sg66_9_cif.got.tgz:16345.got - 2010.04.10 21:57:39.
