data_PCOD8275898
_publ_section_title
;
Structure prediction by ZEFSAII (Michael W. Deem and Ramdas Pophale) SiO2 
 PCOD8275898
Probable space group: C C C M
;
_chemical_formula_sum "Si O2"
_cell_formula_units_Z 116
_cell_length_a 25.922194
_cell_length_b 26.610600
_cell_length_c 8.922593
_cell_angle_alpha 90.000000
_cell_angle_beta 90.000000
_cell_angle_gamma 90.000000
_cell_volume 6154.850475
_symmetry_space_group_name_H-M "C C C M"
_symmetry_group_IT_number 66
_symmetry_cell_setting 'orthorhombic'
loop_
_space_group_symop_operation_xyz
x,y,z
-x,-y,z
x,-y,1/2-z
-x,y,1/2-z
-x,-y,-z
x,y,-z
-x,y,1/2+z
x,-y,1/2+z
1/2+x,1/2+y,z
1/2-x,1/2-y,z
1/2+x,1/2-y,1/2-z
1/2-x,1/2+y,1/2-z
1/2-x,1/2-y,-z
1/2+x,1/2+y,-z
1/2-x,1/2+y,1/2+z
1/2+x,1/2-y,1/2+z
loop_
_atom_site_type_symbol
_atom_site_label
_atom_site_fract_x
_atom_site_fract_y
_atom_site_fract_z
Si Si1 0.173106 0.149819 0.172414
Si Si2 0.582116 0.077017 0.333506
Si Si3 0.790470 0.679032 0.172656
Si Si4 0.704165 0.551080 0.322543
Si Si5 0.643388 0.744595 0.676191
Si Si6 0.818816 0.419843 0.823947
Si Si7 0.000000 0.500000 0.750000
Si Si8 0.947766 0.320507 0.824138
O O1 0.229938 0.172142 0.189377
O O2 0.170374 0.096056 0.254043
O O3 0.134795 0.188700 0.255930
O O4 0.156634 0.143239 0.000000
O O5 0.595615 0.095434 0.500000
O O6 0.633642 0.052413 0.258871
O O7 0.565216 0.124363 0.235701
O O8 0.537034 0.035644 0.347823
O O9 0.806401 0.732509 0.241407
O O10 0.820840 0.637797 0.270269
O O11 0.807663 0.675431 0.000000
O O12 0.682885 0.500000 0.250000
O O13 0.697108 0.550525 0.500000
O O14 0.764362 0.556002 0.276436
O O15 0.653604 0.740710 0.500000
O O16 0.594748 0.779054 0.716484
O O17 0.827780 0.422168 0.000000
O O18 0.000000 0.300428 0.750000
O O19 0.955702 0.325903 0.000000
#
# Coordination Sequence:
#
# PCOD8275898 Si02
#       8
#    16  16  16  16  16  16   4  16
#     4  10  21  35  53  80 112 144 184 225 264 324
#     4  12  25  41  60  76  99 135 179 235 293 344
#     4  10  19  32  52  78 107 142 179 219 269 327
#     4  10  21  37  56  79 110 148 184 223 270 321
#     4  11  22  35  54  80 110 143 177 221 278 334
#     4  10  21  36  54  77 104 136 179 227 275 332
#     4  12  30  44  56  78 102 132 186 244 304 340
#     4  11  24  41  61  82 107 139 181 229 283 343
#
# _framework density 18.846924000000001
#
# number of rings (size 3 to 8) (size 9 to 14) (size 15 to 20)
#    0.000    1.379    2.069    3.517    0.966    8.276 
#    0.000    0.000    0.000    0.000    0.000    0.000 
#    0.000    0.552    0.000    5.793    0.000    3.172 
#
# Total GULP energy -719280.109249 kJ/mol
# GULP energy per Si atom -12401.381194 kJ/mol
# Density = 1.880403 g / cm^3
# Si number density = 18.846924 Si / 1000 Ang^3
#
#
#
# Elastic Constant Matrix: (Units=GPa)
#
#
# Indices 1 2 3 4 5 6 
#
# 1 40.5508 31.9956 28.3275 0.0000 0.0000 0.0000
# 2 31.9956 134.7290 50.7000 0.0000 0.0000 0.0000
# 3 28.3275 50.7000 104.3321 0.0000 0.0000 0.0000
# 4 0.0000 0.0000 0.0000 27.5299 0.0000 0.0000
# 5 0.0000 0.0000 0.0000 0.0000 20.4217 0.0000
# 6 0.0000 0.0000 0.0000 0.0000 0.0000 23.3609
#
#
#
# Elastic Compliance Matrix: (Units=1/GPa)
#
#
# Indices 1 2 3 4 5 6 
#
# 1 0.033511 -0.005549 -0.006402 0.000000 0.000000 0.000000
# 2 -0.005549 0.010002 -0.003354 0.000000 0.000000 0.000000
# 3 -0.006402 -0.003354 0.012953 0.000000 0.000000 0.000000
# 4 0.000000 0.000000 0.000000 0.036324 0.000000 0.000000
# 5 0.000000 0.000000 0.000000 0.000000 0.048967 0.000000
# 6 0.000000 0.000000 0.000000 0.000000 0.000000 0.042807
#
#
# Mechanical properties :
#
#
# Convention : Reuss Voigt Hill
#
# Bulk Modulus (GPa) = 38.67583 55.73981 47.20782
# Shear Modulus (GPa) = 22.34204 25.50174 23.92189
#
# Velocity S-wave (km/s) = 3.44677 3.68244 3.56655
# Velocity P-wave (km/s) = 6.03373 6.90794 6.48558
#
# Compressibility (1/GPa) = 0.02585594
#
# Stress axis : x y z
#
# Youngs Moduli (GPa) = 29.84088 99.97777 77.20300
#
# Poissons Ratio (x) = 0.55478 0.49426
# Poissons Ratio (y) = 0.16559 0.25893
# Poissons Ratio (z) = 0.19104 0.33532
#
# Static dielectric constant tensor:
#      x y z
#    x 3.437780 0.000000 0.000000 
#    y 0.000000 3.470500 0.000000 
#    z 0.000000 0.000000 3.498610 
# 
# 
# High freq. dielectric constant tensor:
#      x y z
#    x 1.690420 0.000000 0.000000 
#    y 0.000000 1.730590 0.000000 
#    z 0.000000 0.000000 1.748230 
# 
# From -- ./inp_files/9452.got.cif
#   From: 2010.03.12/outbox.cif.g09.slc.cpg/sg66_5_cif.got.tgz:9452.got - 2010.04.10 21:57:39.
