data_PCOD8275100
_publ_section_title
;
Structure prediction by ZEFSAII (Michael W. Deem and Ramdas Pophale) SiO2 
 PCOD8275100
Probable space group: C M M M
;
_chemical_formula_sum "Si O2"
_cell_formula_units_Z 64
_cell_length_a 38.204193
_cell_length_b 10.310031
_cell_length_c 9.573861
_cell_angle_alpha 90.000000
_cell_angle_beta 90.000000
_cell_angle_gamma 90.000000
_cell_volume 3771.013779
_symmetry_space_group_name_H-M "C M M M"
_symmetry_group_IT_number 65
_symmetry_cell_setting 'orthorhombic'
loop_
_space_group_symop_operation_xyz
x,y,z
-x,-y,z
x,-y,-z
-x,y,-z
-x,-y,-z
x,y,-z
-x,y,z
x,-y,z
1/2+x,1/2+y,z
1/2-x,1/2-y,z
1/2+x,1/2-y,-z
1/2-x,1/2+y,-z
1/2-x,1/2-y,-z
1/2+x,1/2+y,-z
1/2-x,1/2+y,z
1/2+x,1/2-y,z
loop_
_atom_site_type_symbol
_atom_site_label
_atom_site_fract_x
_atom_site_fract_y
_atom_site_fract_z
Si Si1 0.779542 0.851483 0.662888
Si Si2 0.460007 0.000000 0.833208
Si Si3 0.960685 0.000000 0.833109
Si Si4 0.920613 0.752161 0.165890
Si Si5 0.846981 0.150255 0.839911
O O1 0.787646 0.836329 0.500000
O O2 0.750000 0.750000 0.711085
O O3 0.814333 0.811827 0.744769
O O4 0.768159 0.000000 0.698189
O O5 0.438877 0.123464 0.773997
O O6 0.500000 0.000000 0.777523
O O7 0.460325 0.000000 0.000000
O O8 0.941552 0.873864 0.771861
O O9 0.000000 0.000000 0.776585
O O10 0.959660 0.000000 0.000000
O O11 0.879828 0.762153 0.209355
O O12 0.923293 0.754270 0.000000
O O13 0.857616 0.000000 0.822191
O O14 0.836899 0.179611 0.000000
#
# Coordination Sequence:
#
# PCOD8275100 Si02
#       5
#    16   8   8  16  16
#     4   9  18  33  51  69  90 116 146 181 219 260
#     4   9  16  24  34  52  84 121 148 176 219 263
#     4   9  14  20  34  54  76 107 146 180 209 251
#     4   9  15  24  36  54  82 114 146 178 215 256
#     4   9  16  28  46  66  91 120 147 180 221 263
#
# _framework density 16.971564999999998
#
# number of rings (size 3 to 8) (size 9 to 14) (size 15 to 20)
#    0.000    3.000    1.250    0.750    0.000    3.500 
#    2.250    0.000    0.000    0.000    0.000    0.000 
#    0.000    6.000    0.000    0.000    0.000    0.000 
#
# Total GULP energy -396684.162578 kJ/mol
# GULP energy per Si atom -12396.380081 kJ/mol
# Density = 1.693294 g / cm^3
# Si number density = 16.971565 Si / 1000 Ang^3
#
#
#
# Elastic Constant Matrix: (Units=GPa)
#
#
# Indices 1 2 3 4 5 6 
#
# 1 169.7552 96.4569 39.6302 0.0000 0.0000 0.0000
# 2 96.4569 136.8862 23.0372 0.0000 0.0000 0.0000
# 3 39.6302 23.0372 22.4237 0.0000 0.0000 0.0000
# 4 0.0000 0.0000 0.0000 9.8362 0.0000 0.0000
# 5 0.0000 0.0000 0.0000 0.0000 -1.3307 0.0000
# 6 0.0000 0.0000 0.0000 0.0000 0.0000 38.4302
#
#
#
# Elastic Compliance Matrix: (Units=1/GPa)
#
#
# Indices 1 2 3 4 5 6 
#
# 1 0.013837 -0.006812 -0.017455 0.000000 0.000000 0.000000
# 2 -0.006812 0.012187 -0.000480 0.000000 0.000000 0.000000
# 3 -0.017455 -0.000480 0.075938 0.000000 0.000000 0.000000
# 4 0.000000 0.000000 0.000000 0.101665 0.000000 0.000000
# 5 0.000000 0.000000 0.000000 0.000000 -0.751511 0.000000
# 6 0.000000 0.000000 0.000000 0.000000 0.000000 0.026021
#
#
# Mechanical properties :
#
#
# Convention : Reuss Voigt Hill
#
# Bulk Modulus (GPa) = 19.06005 71.92372 45.49188
# Shear Modulus (GPa) = -10.99194 20.71654 4.86230
#
# Velocity S-wave (km/s) = -2.54769 3.49759 1.69446
# Velocity P-wave (km/s) = 1.61265 7.66693 5.53996
#
# Compressibility (1/GPa) = 0.05246577
#
# Stress axis : x y z
#
# Youngs Moduli (GPa) = 72.27107 82.05783 13.16860
#
# Poissons Ratio (x) = 0.55902 0.22986
# Poissons Ratio (y) = 0.49234 0.00632
# Poissons Ratio (z) = 1.26152 0.03939
#
# Static dielectric constant tensor:
#      x y z
#    x 3.276460 0.000000 0.000000 
#    y 0.000000 3.352130 0.000000 
#    z 0.000000 0.000000 2.630380 
# 
# 
# High freq. dielectric constant tensor:
#      x y z
#    x 1.665510 0.000000 0.000000 
#    y 0.000000 1.654560 0.000000 
#    z 0.000000 0.000000 1.590320 
# 
# From -- ./inp_files/33239.got.cif
#   From: 2010.03.12/outbox.cif.g09.slc.cpg/sg65_17_cif.got.tgz:33239.got - 2010.04.10 20:52:16.
