data_PCOD8275763
_publ_section_title
;
Structure prediction by ZEFSAII (Michael W. Deem and Ramdas Pophale) SiO2 
 PCOD8275763
Probable space group: C C C M
;
_chemical_formula_sum "Si O2"
_cell_formula_units_Z 96
_cell_length_a 8.453271
_cell_length_b 24.001709
_cell_length_c 27.099900
_cell_angle_alpha 90.000000
_cell_angle_beta 90.000000
_cell_angle_gamma 90.000000
_cell_volume 5498.378673
_symmetry_space_group_name_H-M "C C C M"
_symmetry_group_IT_number 66
_symmetry_cell_setting 'orthorhombic'
loop_
_space_group_symop_operation_xyz
x,y,z
-x,-y,z
x,-y,1/2-z
-x,y,1/2-z
-x,-y,-z
x,y,-z
-x,y,1/2+z
x,-y,1/2+z
1/2+x,1/2+y,z
1/2-x,1/2-y,z
1/2+x,1/2-y,1/2-z
1/2-x,1/2+y,1/2-z
1/2-x,1/2-y,-z
1/2+x,1/2+y,-z
1/2-x,1/2+y,1/2+z
1/2+x,1/2-y,1/2+z
loop_
_atom_site_type_symbol
_atom_site_label
_atom_site_fract_x
_atom_site_fract_y
_atom_site_fract_z
Si Si1 0.834310 0.803526 0.556919
Si Si2 0.817223 0.579688 0.556024
Si Si3 0.186855 0.187923 0.056970
Si Si4 0.122234 0.593774 0.389206
Si Si5 0.821717 0.988787 0.639705
Si Si6 0.939965 0.439926 0.195376
O O1 0.865285 0.788949 0.500000
O O2 0.750000 0.750000 0.582317
O O3 0.717786 0.855145 0.563941
O O4 0.008843 0.815215 0.578886
O O5 0.788530 0.561142 0.500000
O O6 0.694081 0.545065 0.588780
O O7 0.000778 0.568801 0.570076
O O8 0.250000 0.250000 0.062012
O O9 0.294452 0.148708 0.090818
O O10 0.196218 0.167408 0.000000
O O11 0.249354 0.549257 0.371104
O O12 0.012390 0.607204 0.340849
O O13 0.747146 0.950476 0.684657
O O14 0.000000 0.000000 0.655309
O O15 0.000000 0.500000 0.177327
O O16 0.000000 0.425760 0.250000
#
# Coordination Sequence:
#
# PCOD8275763 Si02
#       6
#    16  16  16  16  16  16
#     4   9  17  29  44  63  90 126 166 201 232 273
#     4  10  19  30  45  66  97 136 168 196 235 285
#     4  10  19  30  46  70  99 130 164 200 237 282
#     4  10  19  31  48  69  94 126 162 200 242 289
#     4  10  20  32  48  73 101 127 160 200 243 293
#     4   8  16  33  52  70  94 122 155 196 246 296
#
# _framework density 17.459693999999999
#
# number of rings (size 3 to 8) (size 9 to 14) (size 15 to 20)
#    0.000    2.500    0.000    4.000    0.000    5.000 
#    0.000    6.667    0.000    0.000    0.000   11.667 
#    0.000    0.000    0.000    0.000    0.000    0.000 
#
# Total GULP energy -594657.621168 kJ/mol
# GULP energy per Si atom -12388.700441 kJ/mol
# Density = 1.741995 g / cm^3
# Si number density = 17.459694 Si / 1000 Ang^3
#
#
#
# Elastic Constant Matrix: (Units=GPa)
#
#
# Indices 1 2 3 4 5 6 
#
# 1 129.4086 28.4036 48.7614 0.0000 0.0000 0.0000
# 2 28.4036 54.4608 32.9014 0.0000 0.0000 0.0000
# 3 48.7614 32.9014 100.7020 0.0000 0.0000 0.0000
# 4 0.0000 0.0000 0.0000 12.6156 0.0000 0.0000
# 5 0.0000 0.0000 0.0000 0.0000 13.8674 0.0000
# 6 0.0000 0.0000 0.0000 0.0000 0.0000 29.1999
#
#
#
# Elastic Compliance Matrix: (Units=1/GPa)
#
#
# Indices 1 2 3 4 5 6 
#
# 1 0.009781 -0.002791 -0.003824 0.000000 0.000000 0.000000
# 2 -0.002791 0.023674 -0.006383 0.000000 0.000000 0.000000
# 3 -0.003824 -0.006383 0.013868 0.000000 0.000000 0.000000
# 4 0.000000 0.000000 0.000000 0.079267 0.000000 0.000000
# 5 0.000000 0.000000 0.000000 0.000000 0.072112 0.000000
# 6 0.000000 0.000000 0.000000 0.000000 0.000000 0.034247
#
#
# Mechanical properties :
#
#
# Convention : Reuss Voigt Hill
#
# Bulk Modulus (GPa) = 46.89227 56.07822 51.48525
# Shear Modulus (GPa) = 18.79323 22.77023 20.78173
#
# Velocity S-wave (km/s) = 3.28438 3.61523 3.45377
# Velocity P-wave (km/s) = 6.42640 7.04379 6.74216
#
# Compressibility (1/GPa) = 0.02132547
#
# Stress axis : x y z
#
# Youngs Moduli (GPa) = 102.23884 42.24089 72.11044
#
# Poissons Ratio (x) = 0.11789 0.27577
# Poissons Ratio (y) = 0.28533 0.46030
# Poissons Ratio (z) = 0.39099 0.26964
#
# Static dielectric constant tensor:
#      x y z
#    x 3.418690 0.000000 0.000000 
#    y 0.000000 3.083900 0.000000 
#    z 0.000000 0.000000 3.014140 
# 
# 
# High freq. dielectric constant tensor:
#      x y z
#    x 1.687670 0.000000 0.000000 
#    y 0.000000 1.657190 0.000000 
#    z 0.000000 0.000000 1.639650 
# 
# From -- ./inp_files/62788.got.cif
#   From: 2010.03.12/outbox.cif.g09.slc.cpg/sg66_32_cif.got.tgz:62788.got - 2010.04.10 21:57:39.
