data_PCOD8275845
_publ_section_title
;
Structure prediction by ZEFSAII (Michael W. Deem and Ramdas Pophale) SiO2 
 PCOD8275845
Probable space group: C C C M
;
_chemical_formula_sum "Si O2"
_cell_formula_units_Z 80
_cell_length_a 10.346645
_cell_length_b 26.244970
_cell_length_c 16.611755
_cell_angle_alpha 90.000000
_cell_angle_beta 90.000000
_cell_angle_gamma 90.000000
_cell_volume 4510.878674
_symmetry_space_group_name_H-M "C C C M"
_symmetry_group_IT_number 66
_symmetry_cell_setting 'orthorhombic'
loop_
_space_group_symop_operation_xyz
x,y,z
-x,-y,z
x,-y,1/2-z
-x,y,1/2-z
-x,-y,-z
x,y,-z
-x,y,1/2+z
x,-y,1/2+z
1/2+x,1/2+y,z
1/2-x,1/2-y,z
1/2+x,1/2-y,1/2-z
1/2-x,1/2+y,1/2-z
1/2-x,1/2-y,-z
1/2+x,1/2+y,-z
1/2-x,1/2+y,1/2+z
1/2+x,1/2-y,1/2+z
loop_
_atom_site_type_symbol
_atom_site_label
_atom_site_fract_x
_atom_site_fract_y
_atom_site_fract_z
Si Si1 0.181933 0.176515 0.500000
Si Si2 0.696990 0.198577 0.589250
Si Si3 0.959980 0.723968 0.500000
Si Si4 0.347532 0.504126 0.407845
Si Si5 0.830659 0.105506 0.328541
Si Si6 0.628904 0.395642 0.856380
O O1 0.059658 0.214843 0.500000
O O2 0.318894 0.202611 0.500000
O O3 0.182716 0.144867 0.581709
O O4 0.761983 0.195405 0.500000
O O5 0.750000 0.250000 0.632999
O O6 0.541088 0.205232 0.579081
O O7 0.733923 0.147618 0.636255
O O8 0.500000 0.500000 0.395535
O O9 0.308997 0.515057 0.500000
O O10 0.283067 0.548420 0.352591
O O11 0.300906 0.448823 0.378989
O O12 0.829590 0.116298 0.234129
O O13 0.974034 0.107387 0.365709
#
# Coordination Sequence:
#
# PCOD8275845 Si02
#       6
#     8  16   8  16  16  16
#     4  11  20  38  56  71 109 145 173 219 274 325
#     4   9  18  34  57  79  99 133 178 224 259 315
#     4   9  21  36  57  77  95 142 185 217 265 326
#     4   9  16  28  49  80 109 144 174 212 269 323
#     4  10  19  31  52  83 112 138 173 225 269 308
#     4  10  20  31  51  82 114 141 173 214 270 330
#
# _framework density 17.734904
#
# number of rings (size 3 to 8) (size 9 to 14) (size 15 to 20)
#    0.600    1.800    1.000    2.400    2.800    2.400 
#    3.600    1.000    0.000    2.400    0.000    2.800 
#    0.000    0.000    0.000    0.000    0.000    0.000 
#
# Total GULP energy -495539.191976 kJ/mol
# GULP energy per Si atom -12388.479799 kJ/mol
# Density = 1.769454 g / cm^3
# Si number density = 17.734904 Si / 1000 Ang^3
#
#
#
# Elastic Constant Matrix: (Units=GPa)
#
#
# Indices 1 2 3 4 5 6 
#
# 1 60.9943 45.4628 23.4149 0.0000 0.0000 0.0000
# 2 45.4628 149.9049 54.3456 0.0000 0.0000 0.0000
# 3 23.4149 54.3456 78.7834 0.0000 0.0000 0.0000
# 4 0.0000 0.0000 0.0000 -2.6108 0.0000 0.0000
# 5 0.0000 0.0000 0.0000 0.0000 7.1526 0.0000
# 6 0.0000 0.0000 0.0000 0.0000 0.0000 18.4409
#
#
#
# Elastic Compliance Matrix: (Units=1/GPa)
#
#
# Indices 1 2 3 4 5 6 
#
# 1 0.021555 -0.005620 -0.002529 0.000000 0.000000 0.000000
# 2 -0.005620 0.010361 -0.005477 0.000000 0.000000 0.000000
# 3 -0.002529 -0.005477 0.017223 0.000000 0.000000 0.000000
# 4 0.000000 0.000000 0.000000 -0.383023 0.000000 0.000000
# 5 0.000000 0.000000 0.000000 0.000000 0.139809 0.000000
# 6 0.000000 0.000000 0.000000 0.000000 0.000000 0.054227
#
#
# Mechanical properties :
#
#
# Convention : Reuss Voigt Hill
#
# Bulk Modulus (GPa) = 45.69129 59.56992 52.63060
# Shear Modulus (GPa) = -47.48316 15.69383 -15.89466
#
# Velocity S-wave (km/s) = -5.17996 2.97797 -2.99697
# Velocity P-wave (km/s) = 3.15540 6.74436 4.21485
#
# Compressibility (1/GPa) = 0.02188601
#
# Stress axis : x y z
#
# Youngs Moduli (GPa) = 46.39285 96.51716 58.06301
#
# Poissons Ratio (x) = 0.54244 0.14687
# Poissons Ratio (y) = 0.26074 0.31799
# Poissons Ratio (z) = 0.11735 0.52859
#
# Static dielectric constant tensor:
#      x y z
#    x 2.835160 0.000000 0.000000 
#    y 0.000000 3.605500 0.000000 
#    z 0.000000 0.000000 3.128390 
# 
# 
# High freq. dielectric constant tensor:
#      x y z
#    x 1.636500 0.000000 0.000000 
#    y 0.000000 1.704010 0.000000 
#    z 0.000000 0.000000 1.675970 
# 
# From -- ./inp_files/26723.got.cif
#   From: 2010.03.12/outbox.cif.g09.slc.cpg/sg66_14_cif.got.tgz:26723.got - 2010.04.10 21:57:39.
