data_PCOD8275377
_publ_section_title
;
Structure prediction by ZEFSAII (Michael W. Deem and Ramdas Pophale) SiO2 
 PCOD8275377
Probable space group: C C C M
;
_chemical_formula_sum "Si O2"
_cell_formula_units_Z 72
_cell_length_a 22.899250
_cell_length_b 7.261543
_cell_length_c 21.934256
_cell_angle_alpha 90.000000
_cell_angle_beta 90.000000
_cell_angle_gamma 90.000000
_cell_volume 3647.313380
_symmetry_space_group_name_H-M "C C C M"
_symmetry_group_IT_number 66
_symmetry_cell_setting 'orthorhombic'
loop_
_space_group_symop_operation_xyz
x,y,z
-x,-y,z
x,-y,1/2-z
-x,y,1/2-z
-x,-y,-z
x,y,-z
-x,y,1/2+z
x,-y,1/2+z
1/2+x,1/2+y,z
1/2-x,1/2-y,z
1/2+x,1/2-y,1/2-z
1/2-x,1/2+y,1/2-z
1/2-x,1/2-y,-z
1/2+x,1/2+y,-z
1/2-x,1/2+y,1/2+z
1/2+x,1/2-y,1/2+z
loop_
_atom_site_type_symbol
_atom_site_label
_atom_site_fract_x
_atom_site_fract_y
_atom_site_fract_z
Si Si1 0.000000 0.232544 0.250000
Si Si2 0.183216 0.209932 0.233300
Si Si3 0.912619 0.108920 0.347869
Si Si4 0.398881 0.808636 0.166691
Si Si5 0.935223 0.423048 0.568294
O O1 0.959286 0.106008 0.292965
O O2 0.957220 0.354356 0.206756
O O3 0.250000 0.250000 0.219049
O O4 0.144009 0.230719 0.172616
O O5 0.158257 0.333292 0.289557
O O6 0.173324 0.000000 0.250000
O O7 0.936934 0.212360 0.407622
O O8 0.899866 0.896099 0.362639
O O9 0.394369 0.951527 0.111406
O O10 0.909271 0.424662 0.500000
O O11 0.000000 0.500000 0.568819
#
# Coordination Sequence:
#
# PCOD8275377 Si02
#       5
#     8  16  16  16  16
#     4  10  17  31  54  79 109 138 173 205 286 347
#     4   9  20  34  55  89 111 135 175 221 286 341
#     4  10  20  35  54  79 113 144 173 225 275 336
#     4  10  20  35  54  79 113 144 173 225 275 336
#     4  11  24  36  52  82 110 148 198 222 257 320
#
# _framework density 19.740559999999999
#
# number of rings (size 3 to 8) (size 9 to 14) (size 15 to 20)
#    0.000    2.000    2.222    3.333    3.111    4.444 
#    0.000    2.222    0.000    1.333    0.000    0.000 
#    0.000    0.000    0.000    0.000    0.000    0.000 
#
# Total GULP energy -446252.196371 kJ/mol
# GULP energy per Si atom -12395.894344 kJ/mol
# Density = 1.969563 g / cm^3
# Si number density = 19.740560 Si / 1000 Ang^3
#
#
#
# Elastic Constant Matrix: (Units=GPa)
#
#
# Indices 1 2 3 4 5 6 
#
# 1 113.3161 11.4896 28.9203 0.0000 0.0000 0.0000
# 2 11.4896 63.9898 51.2676 0.0000 0.0000 0.0000
# 3 28.9203 51.2676 114.9673 0.0000 0.0000 0.0000
# 4 0.0000 0.0000 0.0000 19.6339 0.0000 0.0000
# 5 0.0000 0.0000 0.0000 0.0000 12.8788 0.0000
# 6 0.0000 0.0000 0.0000 0.0000 0.0000 24.0321
#
#
#
# Elastic Compliance Matrix: (Units=1/GPa)
#
#
# Indices 1 2 3 4 5 6 
#
# 1 0.009435 0.000323 -0.002517 0.000000 0.000000 0.000000
# 2 0.000323 0.024325 -0.010929 0.000000 0.000000 0.000000
# 3 -0.002517 -0.010929 0.014205 0.000000 0.000000 0.000000
# 4 0.000000 0.000000 0.000000 0.050932 0.000000 0.000000
# 5 0.000000 0.000000 0.000000 0.000000 0.077647 0.000000
# 6 0.000000 0.000000 0.000000 0.000000 0.000000 0.041611
#
#
# Mechanical properties :
#
#
# Convention : Reuss Voigt Hill
#
# Bulk Modulus (GPa) = 46.04371 52.84759 49.44565
# Shear Modulus (GPa) = 19.86958 24.68200 22.27579
#
# Velocity S-wave (km/s) = 3.17604 3.53982 3.36285
# Velocity P-wave (km/s) = 6.06833 6.59820 6.33881
#
# Compressibility (1/GPa) = 0.02171849
#
# Stress axis : x y z
#
# Youngs Moduli (GPa) = 105.99301 41.10924 70.39887
#
# Poissons Ratio (x) = -0.01327 0.17721
# Poissons Ratio (y) = -0.03421 0.76937
# Poissons Ratio (z) = 0.26681 0.44927
#
# Static dielectric constant tensor:
#      x y z
#    x 21.718200 0.000000 0.000000 
#    y 0.000000 3.544050 0.000000 
#    z 0.000000 0.000000 3.577500 
# 
# 
# High freq. dielectric constant tensor:
#      x y z
#    x 1.746120 0.000000 0.000000 
#    y 0.000000 1.786600 0.000000 
#    z 0.000000 0.000000 1.734640 
# 
# From -- ./inp_files/43423.got.cif
#   From: 2010.03.12/outbox.cif.g09.slc.cpg/sg66_22_cif.got.tgz:43423.got - 2010.04.10 21:57:39.
