data_PCOD8275879
_publ_section_title
;
Structure prediction by ZEFSAII (Michael W. Deem and Ramdas Pophale) SiO2 
 PCOD8275879
Probable space group: C C C M
;
_chemical_formula_sum "Si O2"
_cell_formula_units_Z 120
_cell_length_a 12.240491
_cell_length_b 20.440426
_cell_length_c 24.287468
_cell_angle_alpha 90.000000
_cell_angle_beta 90.000000
_cell_angle_gamma 90.000000
_cell_volume 6076.745150
_symmetry_space_group_name_H-M "C C C M"
_symmetry_group_IT_number 66
_symmetry_cell_setting 'orthorhombic'
loop_
_space_group_symop_operation_xyz
x,y,z
-x,-y,z
x,-y,1/2-z
-x,y,1/2-z
-x,-y,-z
x,y,-z
-x,y,1/2+z
x,-y,1/2+z
1/2+x,1/2+y,z
1/2-x,1/2-y,z
1/2+x,1/2-y,1/2-z
1/2-x,1/2+y,1/2-z
1/2-x,1/2-y,-z
1/2+x,1/2+y,-z
1/2-x,1/2+y,1/2+z
1/2+x,1/2-y,1/2+z
loop_
_atom_site_type_symbol
_atom_site_label
_atom_site_fract_x
_atom_site_fract_y
_atom_site_fract_z
Si Si1 0.333212 0.117431 0.061903
Si Si2 0.118256 0.481721 0.603478
Si Si3 0.707337 0.543266 0.303429
Si Si4 0.611486 0.297085 0.061488
Si Si5 0.908653 0.115050 0.436028
Si Si6 0.500000 0.500000 0.635495
Si Si7 0.260648 0.179440 0.667819
Si Si8 0.941944 0.657332 0.405976
O O1 0.212596 0.139151 0.082110
O O2 0.426223 0.152158 0.099111
O O3 0.341881 0.038345 0.062389
O O4 0.354834 0.141565 0.000000
O O5 0.204403 0.478181 0.652315
O O6 0.106695 0.412113 0.571062
O O7 0.000000 0.500000 0.629029
O O8 0.728258 0.500000 0.250000
O O9 0.585521 0.535049 0.325041
O O10 0.718056 0.621750 0.292395
O O11 0.494341 0.327852 0.076642
O O12 0.697516 0.319109 0.108166
O O13 0.595523 0.218889 0.057600
O O14 0.649889 0.319872 0.000000
O O15 0.906263 0.095464 0.500000
O O16 0.938116 0.050996 0.402480
O O17 0.250000 0.250000 0.697693
O O18 0.389047 0.167148 0.654806
#
# Coordination Sequence:
#
# PCOD8275879 Si02
#       8
#    16  16  16  16  16   8  16  16
#     4  10  19  32  50  76 111 150 188 226 271 328
#     4   9  19  36  54  79 112 143 177 228 282 336
#     4  11  22  37  61  88 103 138 190 241 295 340
#     4  10  19  32  51  79 114 154 194 223 267 338
#     4  10  21  34  53  77 111 153 186 225 275 333
#     4  12  20  38  58  80 112 138 184 238 286 336
#     4   9  19  37  57  83 117 150 180 233 291 341
#     4   9  19  31  50  77 110 146 185 222 270 329
#
# _framework density 19.747413999999999
#
# number of rings (size 3 to 8) (size 9 to 14) (size 15 to 20)
#    0.000    2.133    2.667    0.800    0.000    6.667 
#    0.000    4.000    0.000    3.200    3.467    0.000 
#    0.000    0.000    0.000    0.000    0.000    0.000 
#
# Total GULP energy -743414.622444 kJ/mol
# GULP energy per Si atom -12390.243707 kJ/mol
# Density = 1.970247 g / cm^3
# Si number density = 19.747414 Si / 1000 Ang^3
#
#
#
# Elastic Constant Matrix: (Units=GPa)
#
#
# Indices 1 2 3 4 5 6 
#
# 1 133.7649 34.0964 31.3001 0.0000 0.0000 0.0000
# 2 34.0964 117.0774 31.6322 0.0000 0.0000 0.0000
# 3 31.3001 31.6322 50.9073 0.0000 0.0000 0.0000
# 4 0.0000 0.0000 0.0000 26.4994 0.0000 0.0000
# 5 0.0000 0.0000 0.0000 0.0000 -9.7223 0.0000
# 6 0.0000 0.0000 0.0000 0.0000 0.0000 29.0477
#
#
#
# Elastic Compliance Matrix: (Units=1/GPa)
#
#
# Indices 1 2 3 4 5 6 
#
# 1 0.008903 -0.001339 -0.004642 0.000000 0.000000 0.000000
# 2 -0.001339 0.010466 -0.005680 0.000000 0.000000 0.000000
# 3 -0.004642 -0.005680 0.026027 0.000000 0.000000 0.000000
# 4 0.000000 0.000000 0.000000 0.037737 0.000000 0.000000
# 5 0.000000 0.000000 0.000000 0.000000 -0.102856 0.000000
# 6 0.000000 0.000000 0.000000 0.000000 0.000000 0.034426
#
#
# Mechanical properties :
#
#
# Convention : Reuss Voigt Hill
#
# Bulk Modulus (GPa) = 45.30161 55.08968 50.19565
# Shear Modulus (GPa) = 110.17147 22.81301 66.49224
#
# Velocity S-wave (km/s) = 7.47740 3.40257 5.80900
# Velocity P-wave (km/s) = 9.87618 6.58744 8.39444
#
# Compressibility (1/GPa) = 0.02207427
#
# Stress axis : x y z
#
# Youngs Moduli (GPa) = 112.31794 95.54870 38.42113
#
# Poissons Ratio (x) = 0.12790 0.17837
# Poissons Ratio (y) = 0.15035 0.21824
# Poissons Ratio (z) = 0.52142 0.54273
#
# Static dielectric constant tensor:
#      x y z
#    x 3.951830 0.000000 0.000000 
#    y 0.000000 3.890900 0.000000 
#    z 0.000000 0.000000 3.062210 
# 
# 
# High freq. dielectric constant tensor:
#      x y z
#    x 1.790980 0.000000 0.000000 
#    y 0.000000 1.779580 0.000000 
#    z 0.000000 0.000000 1.706650 
# 
# From -- ./inp_files/57224.got.cif
#   From: 2010.03.12/outbox.cif.g09.slc.cpg/sg66_29_cif.got.tgz:57224.got - 2010.04.10 21:57:39.
