data_PCOD8275376
_publ_section_title
;
Structure prediction by ZEFSAII (Michael W. Deem and Ramdas Pophale) SiO2 
 PCOD8275376
Probable space group: C C C M
;
_chemical_formula_sum "Si O2"
_cell_formula_units_Z 96
_cell_length_a 28.094430
_cell_length_b 9.727901
_cell_length_c 17.662847
_cell_angle_alpha 90.000000
_cell_angle_beta 90.000000
_cell_angle_gamma 90.000000
_cell_volume 4827.253148
_symmetry_space_group_name_H-M "C C C M"
_symmetry_group_IT_number 66
_symmetry_cell_setting 'orthorhombic'
loop_
_space_group_symop_operation_xyz
x,y,z
-x,-y,z
x,-y,1/2-z
-x,y,1/2-z
-x,-y,-z
x,y,-z
-x,y,1/2+z
x,-y,1/2+z
1/2+x,1/2+y,z
1/2-x,1/2-y,z
1/2+x,1/2-y,1/2-z
1/2-x,1/2+y,1/2-z
1/2-x,1/2-y,-z
1/2+x,1/2+y,-z
1/2-x,1/2+y,1/2+z
1/2+x,1/2-y,1/2+z
loop_
_atom_site_type_symbol
_atom_site_label
_atom_site_fract_x
_atom_site_fract_y
_atom_site_fract_z
Si Si1 0.274108 0.103129 0.083225
Si Si2 0.513649 0.344227 0.166035
Si Si3 0.615893 0.363326 0.202507
Si Si4 0.962125 0.613862 0.088080
Si Si5 0.673840 0.483000 0.588021
Si Si6 0.863559 0.701380 0.153926
O O1 0.250000 0.250000 0.075817
O O2 0.229823 0.010359 0.110087
O O3 0.318320 0.100119 0.141627
O O4 0.293068 0.058473 0.000000
O O5 0.500000 0.500000 0.151833
O O6 0.500000 0.293653 0.250000
O O7 0.569509 0.317266 0.156412
O O8 0.485985 0.260911 0.102035
O O9 0.602704 0.500000 0.250000
O O10 0.654983 0.392986 0.139235
O O11 0.633446 0.242013 0.257796
O O12 0.910946 0.617461 0.130065
O O13 0.000000 0.500000 0.119405
O O14 0.952469 0.589298 0.000000
O O15 0.666027 0.515398 0.500000
O O16 0.646203 0.339712 0.605104
#
# Coordination Sequence:
#
# PCOD8275376 Si02
#       6
#    16  16  16  16  16  16
#     4   8  14  26  48  77 107 140 180 228 283 340
#     4  11  19  36  57  81 112 151 191 242 296 350
#     4  10  18  30  52  79 111 143 183 239 292 344
#     4  11  24  38  55  84 118 153 198 245 286 349
#     4   9  17  29  51  85 115 142 180 236 301 353
#     4  10  17  31  53  78 110 151 189 234 287 344
#
# _framework density 19.887087000000001
#
# number of rings (size 3 to 8) (size 9 to 14) (size 15 to 20)
#    0.000    2.167    3.333    3.500    0.000    1.333 
#    0.000    0.000    0.000   16.000    0.000    0.000 
#    0.000   40.667    0.000    0.000    0.000    0.000 
#
# Total GULP energy -594858.161794 kJ/mol
# GULP energy per Si atom -12392.878371 kJ/mol
# Density = 1.984182 g / cm^3
# Si number density = 19.887087 Si / 1000 Ang^3
#
#
#
# Elastic Constant Matrix: (Units=GPa)
#
#
# Indices 1 2 3 4 5 6 
#
# 1 183.9061 43.0129 63.8205 0.0000 0.0000 0.0000
# 2 43.0129 40.9178 31.6172 0.0000 0.0000 0.0000
# 3 63.8205 31.6172 78.7421 0.0000 0.0000 0.0000
# 4 0.0000 0.0000 0.0000 19.8323 0.0000 0.0000
# 5 0.0000 0.0000 0.0000 0.0000 -20.1586 0.0000
# 6 0.0000 0.0000 0.0000 0.0000 0.0000 18.9058
#
#
#
# Elastic Compliance Matrix: (Units=1/GPa)
#
#
# Indices 1 2 3 4 5 6 
#
# 1 0.008233 -0.005072 -0.004636 0.000000 0.000000 0.000000
# 2 -0.005072 0.038557 -0.011371 0.000000 0.000000 0.000000
# 3 -0.004636 -0.011371 0.021023 0.000000 0.000000 0.000000
# 4 0.000000 0.000000 0.000000 0.050423 0.000000 0.000000
# 5 0.000000 0.000000 0.000000 0.000000 -0.049607 0.000000
# 6 0.000000 0.000000 0.000000 0.000000 0.000000 0.052894
#
#
# Mechanical properties :
#
#
# Convention : Reuss Voigt Hill
#
# Bulk Modulus (GPa) = 38.97889 64.49636 51.73762
# Shear Modulus (GPa) = 29.03049 14.72358 21.87704
#
# Velocity S-wave (km/s) = 3.82483 2.72391 3.32032
# Velocity P-wave (km/s) = 6.25687 6.51111 6.38526
#
# Compressibility (1/GPa) = 0.02565491
#
# Stress axis : x y z
#
# Youngs Moduli (GPa) = 121.46783 25.93546 47.56692
#
# Poissons Ratio (x) = 0.13154 0.22052
# Poissons Ratio (y) = 0.61607 0.54089
# Poissons Ratio (z) = 0.56313 0.29491
#
# Static dielectric constant tensor:
#      x y z
#    x 4.137460 0.000000 0.000000 
#    y 0.000000 3.235400 0.000000 
#    z 0.000000 0.000000 3.492640 
# 
# 
# High freq. dielectric constant tensor:
#      x y z
#    x 1.793550 0.000000 0.000000 
#    y 0.000000 1.726140 0.000000 
#    z 0.000000 0.000000 1.762030 
# 
# From -- ./inp_files/44238.got.cif
#   From: 2010.03.12/outbox.cif.g09.slc.cpg/sg66_23_cif.got.tgz:44238.got - 2010.04.10 21:57:39.
