data_PCOD8275729
_publ_section_title
;
Structure prediction by ZEFSAII (Michael W. Deem and Ramdas Pophale) SiO2 
 PCOD8275729
Probable space group: C C C M
;
_chemical_formula_sum "Si O2"
_cell_formula_units_Z 100
_cell_length_a 26.954630
_cell_length_b 28.307001
_cell_length_c 9.373169
_cell_angle_alpha 90.000000
_cell_angle_beta 90.000000
_cell_angle_gamma 90.000000
_cell_volume 7151.772360
_symmetry_space_group_name_H-M "C C C M"
_symmetry_group_IT_number 66
_symmetry_cell_setting 'orthorhombic'
loop_
_space_group_symop_operation_xyz
x,y,z
-x,-y,z
x,-y,1/2-z
-x,y,1/2-z
-x,-y,-z
x,y,-z
-x,y,1/2+z
x,-y,1/2+z
1/2+x,1/2+y,z
1/2-x,1/2-y,z
1/2+x,1/2-y,1/2-z
1/2-x,1/2+y,1/2-z
1/2-x,1/2-y,-z
1/2+x,1/2+y,-z
1/2-x,1/2+y,1/2+z
1/2+x,1/2-y,1/2+z
loop_
_atom_site_type_symbol
_atom_site_label
_atom_site_fract_x
_atom_site_fract_y
_atom_site_fract_z
Si Si1 0.279069 0.644747 0.333846
Si Si2 0.000000 0.000000 0.250000
Si Si3 0.649664 0.711871 0.664312
Si Si4 0.424944 0.425027 0.840003
Si Si5 0.953489 0.834058 0.334782
Si Si6 0.816123 0.044704 0.664844
Si Si7 0.202364 0.716485 0.342114
O O1 0.291314 0.654895 0.500000
O O2 0.321462 0.669984 0.242395
O O3 0.280442 0.589130 0.300853
O O4 0.223938 0.664924 0.296469
O O5 0.964792 0.032782 0.346649
O O6 0.666022 0.712532 0.500000
O O7 0.591403 0.702610 0.681905
O O8 0.661810 0.763270 0.732230
O O9 0.441568 0.385043 0.730487
O O10 0.372027 0.443961 0.785527
O O11 0.419549 0.403991 0.000000
O O12 0.967298 0.841942 0.500000
O O13 0.000000 0.811811 0.250000
O O14 0.814939 0.031251 0.500000
O O15 0.795049 0.000000 0.750000
O O16 0.178345 0.714482 0.500000
O O17 0.250000 0.750000 0.342027
#
# Coordination Sequence:
#
# PCOD8275729 Si02
#       7
#    16   4  16  16  16  16  16
#     4   9  17  30  45  61  81 106 134 163 200 249
#     4  12  22  32  44  62  74  92 142 184 218 256
#     4  10  19  29  43  64  84 101 126 166 208 246
#     4  11  22  33  45  57  74 100 132 175 218 251
#     4  11  23  34  45  60  79 103 134 169 208 251
#     4  10  20  32  44  59  79 106 136 170 210 250
#     4   8  15  27  44  63  81 103 129 157 195 247
#
# _framework density 13.982548
#
# number of rings (size 3 to 8) (size 9 to 14) (size 15 to 20)
#    0.000    2.080    3.200    2.160    0.000    6.720 
#    0.000    0.000    0.000    0.000    0.000    0.000 
#    0.000    0.000    0.000    0.000    0.000    0.800 
#
# Total GULP energy -619856.956334 kJ/mol
# GULP energy per Si atom -12397.139127 kJ/mol
# Density = 1.395072 g / cm^3
# Si number density = 13.982548 Si / 1000 Ang^3
#
#
#
# Elastic Constant Matrix: (Units=GPa)
#
#
# Indices 1 2 3 4 5 6 
#
# 1 50.8300 48.7405 40.1090 0.0000 0.0000 0.0000
# 2 48.7405 84.2742 42.0485 0.0000 0.0000 0.0000
# 3 40.1090 42.0485 87.5032 0.0000 0.0000 0.0000
# 4 0.0000 0.0000 0.0000 21.7210 0.0000 0.0000
# 5 0.0000 0.0000 0.0000 0.0000 19.1409 0.0000
# 6 0.0000 0.0000 0.0000 0.0000 0.0000 25.5329
#
#
#
# Elastic Compliance Matrix: (Units=1/GPa)
#
#
# Indices 1 2 3 4 5 6 
#
# 1 0.052930 -0.024344 -0.012564 0.000000 0.000000 0.000000
# 2 -0.024344 0.026805 -0.001722 0.000000 0.000000 0.000000
# 3 -0.012564 -0.001722 0.018014 0.000000 0.000000 0.000000
# 4 0.000000 0.000000 0.000000 0.046038 0.000000 0.000000
# 5 0.000000 0.000000 0.000000 0.000000 0.052244 0.000000
# 6 0.000000 0.000000 0.000000 0.000000 0.000000 0.039165
#
#
# Mechanical properties :
#
#
# Convention : Reuss Voigt Hill
#
# Bulk Modulus (GPa) = 48.80367 53.82260 51.31313
# Shear Modulus (GPa) = 15.65990 19.39292 17.52641
#
# Velocity S-wave (km/s) = 3.35021 3.72820 3.54425
# Velocity P-wave (km/s) = 7.06713 7.55704 7.31619
#
# Compressibility (1/GPa) = 0.02049026
#
# Stress axis : x y z
#
# Youngs Moduli (GPa) = 18.89272 37.30682 55.51090
#
# Poissons Ratio (x) = 0.90820 0.69742
# Poissons Ratio (y) = 0.45992 0.09559
# Poissons Ratio (z) = 0.23736 0.06424
#
# Static dielectric constant tensor:
#      x y z
#    x 2.751930 0.000000 0.000000 
#    y 0.000000 2.834200 0.000000 
#    z 0.000000 0.000000 2.829720 
# 
# 
# High freq. dielectric constant tensor:
#      x y z
#    x 1.500260 0.000000 0.000000 
#    y 0.000000 1.510790 0.000000 
#    z 0.000000 0.000000 1.544160 
# 
# From -- ./inp_files/10873.got.cif
#   From: 2010.03.12/outbox.cif.g09.slc.cpg/sg66_6_cif.got.tgz:10873.got - 2010.04.10 21:57:39.
