data_PCOD8275884
_publ_section_title
;
Structure prediction by ZEFSAII (Michael W. Deem and Ramdas Pophale) SiO2 
 PCOD8275884
Probable space group: C C C M
;
_chemical_formula_sum "Si O2"
_cell_formula_units_Z 64
_cell_length_a 30.367010
_cell_length_b 14.966116
_cell_length_c 8.667229
_cell_angle_alpha 90.000000
_cell_angle_beta 90.000000
_cell_angle_gamma 90.000000
_cell_volume 3939.049250
_symmetry_space_group_name_H-M "C C C M"
_symmetry_group_IT_number 66
_symmetry_cell_setting 'orthorhombic'
loop_
_space_group_symop_operation_xyz
x,y,z
-x,-y,z
x,-y,1/2-z
-x,y,1/2-z
-x,-y,-z
x,y,-z
-x,y,1/2+z
x,-y,1/2+z
1/2+x,1/2+y,z
1/2-x,1/2-y,z
1/2+x,1/2-y,1/2-z
1/2-x,1/2+y,1/2-z
1/2-x,1/2-y,-z
1/2+x,1/2+y,-z
1/2-x,1/2+y,1/2+z
1/2+x,1/2-y,1/2+z
loop_
_atom_site_type_symbol
_atom_site_label
_atom_site_fract_x
_atom_site_fract_y
_atom_site_fract_z
Si Si1 0.298622 0.239906 0.824906
Si Si2 0.614710 0.269771 0.180031
Si Si3 0.953197 0.094812 0.681835
Si Si4 0.363982 0.904067 0.325667
O O1 0.250000 0.250000 0.751241
O O2 0.334577 0.295514 0.724793
O O3 0.313882 0.135394 0.823864
O O4 0.298411 0.277453 0.000000
O O5 0.582597 0.331794 0.276357
O O6 0.605564 0.166480 0.230854
O O7 0.606367 0.282827 0.000000
O O8 0.957585 0.085811 0.500000
O O9 0.000000 0.124841 0.750000
O O10 0.938084 0.000000 0.750000
O O11 0.381834 0.911101 0.500000
O O12 0.365224 0.000000 0.250000
#
# Coordination Sequence:
#
# PCOD8275884 Si02
#       4
#    16  16  16  16
#     4   8  16  31  49  69  99 136 172 214 260 307
#     4  10  19  32  51  76 104 137 173 213 257 309
#     4  11  21  36  56  80 107 138 175 216 264 317
#     4   9  17  30  49  73  98 133 172 211 255 305
#
# _framework density 16.247575999999999
#
# number of rings (size 3 to 8) (size 9 to 14) (size 15 to 20)
#    1.500    1.000    0.000    5.250    0.000    0.500 
#    0.000    1.250    0.000    3.750    0.000    5.250 
#    0.000    0.000    0.000    0.000    0.000    0.000 
#
# Total GULP energy -396425.128808 kJ/mol
# GULP energy per Si atom -12388.285275 kJ/mol
# Density = 1.621060 g / cm^3
# Si number density = 16.247576 Si / 1000 Ang^3
#
#
#
# Elastic Constant Matrix: (Units=GPa)
#
#
# Indices 1 2 3 4 5 6 
#
# 1 86.4103 52.7351 33.3006 0.0000 0.0000 0.0000
# 2 52.7351 90.3666 33.5387 0.0000 0.0000 0.0000
# 3 33.3006 33.5387 119.9534 0.0000 0.0000 0.0000
# 4 0.0000 0.0000 0.0000 29.9536 0.0000 0.0000
# 5 0.0000 0.0000 0.0000 0.0000 25.5716 0.0000
# 6 0.0000 0.0000 0.0000 0.0000 0.0000 21.0664
#
#
#
# Elastic Compliance Matrix: (Units=1/GPa)
#
#
# Indices 1 2 3 4 5 6 
#
# 1 0.018559 -0.009951 -0.002370 0.000000 0.000000 0.000000
# 2 -0.009951 0.017683 -0.002182 0.000000 0.000000 0.000000
# 3 -0.002370 -0.002182 0.009604 0.000000 0.000000 0.000000
# 4 0.000000 0.000000 0.000000 0.033385 0.000000 0.000000
# 5 0.000000 0.000000 0.000000 0.000000 0.039106 0.000000
# 6 0.000000 0.000000 0.000000 0.000000 0.000000 0.047469
#
#
# Mechanical properties :
#
#
# Convention : Reuss Voigt Hill
#
# Bulk Modulus (GPa) = 59.37760 59.54213 59.45986
# Shear Modulus (GPa) = 24.94709 27.12872 26.03791
#
# Velocity S-wave (km/s) = 3.92271 4.09064 4.00756
# Velocity P-wave (km/s) = 7.55922 7.68358 7.62165
#
# Compressibility (1/GPa) = 0.01684137
#
# Stress axis : x y z
#
# Youngs Moduli (GPa) = 53.88268 56.55258 104.11829
#
# Poissons Ratio (x) = 0.56274 0.24676
# Poissons Ratio (y) = 0.53617 0.22714
# Poissons Ratio (z) = 0.12770 0.12337
#
# Static dielectric constant tensor:
#      x y z
#    x 2.923800 0.000000 0.000000 
#    y 0.000000 2.862760 0.000000 
#    z 0.000000 0.000000 3.104950 
# 
# 
# High freq. dielectric constant tensor:
#      x y z
#    x 1.603720 0.000000 0.000000 
#    y 0.000000 1.606060 0.000000 
#    z 0.000000 0.000000 1.640410 
# 
# From -- ./inp_files/5478.got.cif
#   From: 2010.03.12/outbox.cif.g09.slc.cpg/sg66_3_cif.got.tgz:5478.got - 2010.04.10 21:57:39.
