data_PCOD8275318
_publ_section_title
;
Structure prediction by ZEFSAII (Michael W. Deem and Ramdas Pophale) SiO2 
 PCOD8275318
Probable space group: C C C M
;
_chemical_formula_sum "Si O2"
_cell_formula_units_Z 80
_cell_length_a 28.041102
_cell_length_b 17.626386
_cell_length_c 8.672703
_cell_angle_alpha 90.000000
_cell_angle_beta 90.000000
_cell_angle_gamma 90.000000
_cell_volume 4286.598698
_symmetry_space_group_name_H-M "C C C M"
_symmetry_group_IT_number 66
_symmetry_cell_setting 'orthorhombic'
loop_
_space_group_symop_operation_xyz
x,y,z
-x,-y,z
x,-y,1/2-z
-x,y,1/2-z
-x,-y,-z
x,y,-z
-x,y,1/2+z
x,-y,1/2+z
1/2+x,1/2+y,z
1/2-x,1/2-y,z
1/2+x,1/2-y,1/2-z
1/2-x,1/2+y,1/2-z
1/2-x,1/2-y,-z
1/2+x,1/2+y,-z
1/2-x,1/2+y,1/2+z
1/2+x,1/2-y,1/2+z
loop_
_atom_site_type_symbol
_atom_site_label
_atom_site_fract_x
_atom_site_fract_y
_atom_site_fract_z
Si Si1 0.288066 0.683574 0.327485
Si Si2 0.051757 0.769837 0.318315
Si Si3 0.640234 0.210671 0.819847
Si Si4 0.552914 0.575106 0.683290
Si Si5 0.213959 0.418911 0.681602
O O1 0.305439 0.663195 0.500000
O O2 0.250000 0.750000 0.331970
O O3 0.332579 0.711853 0.226744
O O4 0.264193 0.609603 0.251065
O O5 0.046498 0.777574 0.500000
O O6 0.089845 0.705088 0.271163
O O7 0.074915 0.846769 0.246390
O O8 0.000000 0.749815 0.250000
O O9 0.671109 0.137516 0.771946
O O10 0.629672 0.212400 0.000000
O O11 0.579896 0.500000 0.750000
O O12 0.500000 0.574064 0.750000
O O13 0.553147 0.573734 0.500000
O O14 0.200498 0.500000 0.750000
O O15 0.220081 0.423876 0.500000
#
# Coordination Sequence:
#
# PCOD8275318 Si02
#       5
#    16  16  16  16  16
#     4   9  17  31  52  77 104 134 168 206 252 307
#     4  11  21  34  52  75 103 139 182 225 268 313
#     4  10  20  35  54  78 107 140 177 217 263 313
#     4  10  17  28  45  66  92 123 161 205 252 300
#     4  10  20  34  55  81 110 141 174 214 261 315
#
# _framework density 18.662814999999998
#
# number of rings (size 3 to 8) (size 9 to 14) (size 15 to 20)
#    0.000    2.000    0.000    7.200    0.000    4.800 
#    0.000    1.000    0.000    0.600    0.000    4.200 
#    0.000    0.000    0.000    0.000    0.000    0.000 
#
# Total GULP energy -495884.114882 kJ/mol
# GULP energy per Si atom -12397.102872 kJ/mol
# Density = 1.862034 g / cm^3
# Si number density = 18.662815 Si / 1000 Ang^3
#
#
#
# Elastic Constant Matrix: (Units=GPa)
#
#
# Indices 1 2 3 4 5 6 
#
# 1 87.3255 43.0121 37.0392 0.0000 0.0000 0.0000
# 2 43.0121 92.2049 43.9222 0.0000 0.0000 0.0000
# 3 37.0392 43.9222 139.9079 0.0000 0.0000 0.0000
# 4 0.0000 0.0000 0.0000 29.2977 0.0000 0.0000
# 5 0.0000 0.0000 0.0000 0.0000 30.2259 0.0000
# 6 0.0000 0.0000 0.0000 0.0000 0.0000 13.8885
#
#
#
# Elastic Compliance Matrix: (Units=1/GPa)
#
#
# Indices 1 2 3 4 5 6 
#
# 1 0.015394 -0.006161 -0.002141 0.000000 0.000000 0.000000
# 2 -0.006161 0.015218 -0.003146 0.000000 0.000000 0.000000
# 3 -0.002141 -0.003146 0.008702 0.000000 0.000000 0.000000
# 4 0.000000 0.000000 0.000000 0.034132 0.000000 0.000000
# 5 0.000000 0.000000 0.000000 0.000000 0.033084 0.000000
# 6 0.000000 0.000000 0.000000 0.000000 0.000000 0.072002
#
#
# Mechanical properties :
#
#
# Convention : Reuss Voigt Hill
#
# Bulk Modulus (GPa) = 60.91242 63.04281 61.97761
# Shear Modulus (GPa) = 24.16584 27.71341 25.93962
#
# Velocity S-wave (km/s) = 3.60233 3.85769 3.73219
# Velocity P-wave (km/s) = 7.07189 7.32773 7.20094
#
# Compressibility (1/GPa) = 0.01641701
#
# Stress axis : x y z
#
# Youngs Moduli (GPa) = 64.95907 65.71015 114.91299
#
# Poissons Ratio (x) = 0.40485 0.24606
# Poissons Ratio (y) = 0.40023 0.36157
# Poissons Ratio (z) = 0.13909 0.20676
#
# Static dielectric constant tensor:
#      x y z
#    x 3.311240 0.000000 0.000000 
#    y 0.000000 4.029240 0.000000 
#    z 0.000000 0.000000 3.552550 
# 
# 
# High freq. dielectric constant tensor:
#      x y z
#    x 1.706050 0.000000 0.000000 
#    y 0.000000 1.703120 0.000000 
#    z 0.000000 0.000000 1.744660 
# 
# From -- ./inp_files/10071.got.cif
#   From: 2010.03.12/outbox.cif.g09.slc.cpg/sg66_6_cif.got.tgz:10071.got - 2010.04.10 21:57:39.
