data_PCOD8275744
_publ_section_title
;
Structure prediction by ZEFSAII (Michael W. Deem and Ramdas Pophale) SiO2 
 PCOD8275744
Probable space group: C C C M
;
_chemical_formula_sum "Si O2"
_cell_formula_units_Z 72
_cell_length_a 19.781069
_cell_length_b 17.571625
_cell_length_c 10.003230
_cell_angle_alpha 90.000000
_cell_angle_beta 90.000000
_cell_angle_gamma 90.000000
_cell_volume 3476.977967
_symmetry_space_group_name_H-M "C C C M"
_symmetry_group_IT_number 66
_symmetry_cell_setting 'orthorhombic'
loop_
_space_group_symop_operation_xyz
x,y,z
-x,-y,z
x,-y,1/2-z
-x,y,1/2-z
-x,-y,-z
x,y,-z
-x,y,1/2+z
x,-y,1/2+z
1/2+x,1/2+y,z
1/2-x,1/2-y,z
1/2+x,1/2-y,1/2-z
1/2-x,1/2+y,1/2-z
1/2-x,1/2-y,-z
1/2+x,1/2+y,-z
1/2-x,1/2+y,1/2+z
1/2+x,1/2-y,1/2+z
loop_
_atom_site_type_symbol
_atom_site_label
_atom_site_fract_x
_atom_site_fract_y
_atom_site_fract_z
Si Si1 0.691240 0.810986 0.000000
Si Si2 0.397307 0.845423 0.000000
Si Si3 0.577943 0.678013 0.500000
Si Si4 0.464901 0.919970 0.500000
Si Si5 0.082709 0.183648 0.000000
Si Si6 0.080237 0.084911 0.751703
Si Si7 0.646507 0.914735 0.777763
O O1 0.750000 0.750000 0.000000
O O2 0.698102 0.863808 0.867000
O O3 0.618551 0.766600 0.000000
O O4 0.478187 0.855421 0.000000
O O5 0.364268 0.879568 0.867536
O O6 0.381871 0.756425 0.000000
O O7 0.497759 0.694188 0.500000
O O8 0.604717 0.629884 0.623406
O O9 0.422149 0.915356 0.635985
O O10 0.500000 0.000000 0.500000
O O11 0.107138 0.133628 0.124628
O O12 0.000000 0.078291 0.750000
O O13 0.111685 0.000000 0.750000
O O14 0.674103 0.000000 0.750000
#
# Coordination Sequence:
#
# PCOD8275744 Si02
#       7
#     8   8   8   8   8  16  16
#     4  11  25  45  62  77 107 157 207 264 313 351
#     4  12  21  31  55  91 131 160 191 235 284 370
#     4  10  19  29  47  81 116 143 174 221 282 354
#     4  11  20  33  54  94 141 173 190 215 284 390
#     4  10  19  34  51  76 105 141 188 225 284 355
#     4   9  17  30  50  75 108 142 174 217 278 349
#     4  11  22  38  60  88 123 163 202 239 298 374
#
# _framework density 20.707637999999999
#
# number of rings (size 3 to 8) (size 9 to 14) (size 15 to 20)
#    0.000    1.556    2.222    4.667    0.000    6.222 
#    0.000    1.667    0.000    0.000    0.000    0.000 
#    0.000    0.000    0.000    0.000    0.000    0.000 
#
# Total GULP energy -446284.754254 kJ/mol
# GULP energy per Si atom -12396.798729 kJ/mol
# Density = 2.066051 g / cm^3
# Si number density = 20.707638 Si / 1000 Ang^3
#
#
#
# Elastic Constant Matrix: (Units=GPa)
#
#
# Indices 1 2 3 4 5 6 
#
# 1 37.7932 20.9150 21.4889 0.0000 0.0000 0.0000
# 2 20.9150 196.1408 94.3603 0.0000 0.0000 0.0000
# 3 21.4889 94.3603 209.6026 0.0000 0.0000 0.0000
# 4 0.0000 0.0000 0.0000 40.6903 0.0000 0.0000
# 5 0.0000 0.0000 0.0000 0.0000 3.5230 0.0000
# 6 0.0000 0.0000 0.0000 0.0000 0.0000 30.7331
#
#
#
# Elastic Compliance Matrix: (Units=1/GPa)
#
#
# Indices 1 2 3 4 5 6 
#
# 1 0.028762 -0.002104 -0.002002 0.000000 0.000000 0.000000
# 2 -0.002104 0.006662 -0.002783 0.000000 0.000000 0.000000
# 3 -0.002002 -0.002783 0.006229 0.000000 0.000000 0.000000
# 4 0.000000 0.000000 0.000000 0.024576 0.000000 0.000000
# 5 0.000000 0.000000 0.000000 0.000000 0.283847 0.000000
# 6 0.000000 0.000000 0.000000 0.000000 0.000000 0.032538
#
#
# Mechanical properties :
#
#
# Convention : Reuss Voigt Hill
#
# Bulk Modulus (GPa) = 35.87410 79.67390 57.77400
# Shear Modulus (GPa) = 12.32487 35.44077 23.88282
#
# Velocity S-wave (km/s) = 2.44229 4.14150 3.39976
# Velocity P-wave (km/s) = 5.03137 7.83763 6.58571
#
# Compressibility (1/GPa) = 0.02787526
#
# Stress axis : x y z
#
# Youngs Moduli (GPa) = 34.76781 150.11061 160.53559
#
# Poissons Ratio (x) = 0.31584 0.32132
# Poissons Ratio (y) = 0.07315 0.44682
# Poissons Ratio (z) = 0.06959 0.41781
#
# Static dielectric constant tensor:
#      x y z
#    x 3.653340 0.000000 0.000000 
#    y 0.000000 4.122600 0.000000 
#    z 0.000000 0.000000 3.951550 
# 
# 
# High freq. dielectric constant tensor:
#      x y z
#    x 1.739390 0.000000 0.000000 
#    y 0.000000 1.838980 0.000000 
#    z 0.000000 0.000000 1.829360 
# 
# From -- ./inp_files/8854.got.cif
#   From: 2010.03.12/outbox.cif.g09.slc.cpg/sg66_5_cif.got.tgz:8854.got - 2010.04.10 21:57:39.
