data_PCOD8275759
_publ_section_title
;
Structure prediction by ZEFSAII (Michael W. Deem and Ramdas Pophale) SiO2 
 PCOD8275759
Probable space group: C C C M
;
_chemical_formula_sum "Si O2"
_cell_formula_units_Z 96
_cell_length_a 30.427538
_cell_length_b 20.660831
_cell_length_c 9.766022
_cell_angle_alpha 90.000000
_cell_angle_beta 90.000000
_cell_angle_gamma 90.000000
_cell_volume 6139.490011
_symmetry_space_group_name_H-M "C C C M"
_symmetry_group_IT_number 66
_symmetry_cell_setting 'orthorhombic'
loop_
_space_group_symop_operation_xyz
x,y,z
-x,-y,z
x,-y,1/2-z
-x,y,1/2-z
-x,-y,-z
x,y,-z
-x,y,1/2+z
x,-y,1/2+z
1/2+x,1/2+y,z
1/2-x,1/2-y,z
1/2+x,1/2-y,1/2-z
1/2-x,1/2+y,1/2-z
1/2-x,1/2-y,-z
1/2+x,1/2+y,-z
1/2-x,1/2+y,1/2+z
1/2+x,1/2-y,1/2+z
loop_
_atom_site_type_symbol
_atom_site_label
_atom_site_fract_x
_atom_site_fract_y
_atom_site_fract_z
Si Si1 0.133722 0.735916 0.337129
Si Si2 0.275975 0.439202 0.162571
Si Si3 0.462076 0.769005 0.346884
Si Si4 0.633762 0.620462 0.837948
Si Si5 0.962021 0.114333 0.653091
Si Si6 0.224654 0.312577 0.837596
O O1 0.133137 0.740863 0.500000
O O2 0.085995 0.708521 0.290417
O O3 0.141774 0.807854 0.275853
O O4 0.173669 0.689819 0.288075
O O5 0.259165 0.500000 0.250000
O O6 0.326570 0.426159 0.205989
O O7 0.246605 0.378836 0.212969
O O8 0.271205 0.452053 0.000000
O O9 0.500000 0.798076 0.250000
O O10 0.470397 0.795518 0.500000
O O11 0.463129 0.691692 0.347459
O O12 0.586175 0.592434 0.790572
O O13 0.632679 0.627663 0.000000
O O14 0.970400 0.087866 0.500000
O O15 0.000000 0.085239 0.750000
O O16 0.250000 0.250000 0.777051
O O17 0.227997 0.309906 0.000000
#
# Coordination Sequence:
#
# PCOD8275759 Si02
#       6
#    16  16  16  16  16  16
#     4   8  12  20  37  62  83 100 134 180 209 227
#     4  10  19  30  45  64  86 111 138 172 212 254
#     4   8  13  20  32  52  81 108 127 156 200 245
#     4   8  13  23  39  58  79 104 135 171 207 240
#     4   8  13  21  34  53  75  99 129 165 204 242
#     4   9  14  23  43  68  85 102 140 185 211 235
#
# _framework density 15.636478
#
# number of rings (size 3 to 8) (size 9 to 14) (size 15 to 20)
#    0.000    3.500    1.667    2.000    0.000    0.000 
#    0.000    0.833    0.000    3.000    0.000    3.500 
#    0.000    0.667    0.000    8.333    0.000    0.333 
#
# Total GULP energy -594635.280375 kJ/mol
# GULP energy per Si atom -12388.235008 kJ/mol
# Density = 1.560089 g / cm^3
# Si number density = 15.636478 Si / 1000 Ang^3
#
#
#
# Elastic Constant Matrix: (Units=GPa)
#
#
# Indices 1 2 3 4 5 6 
#
# 1 131.3740 46.6503 34.6067 0.0000 0.0000 0.0000
# 2 46.6503 65.9509 22.7789 0.0000 0.0000 0.0000
# 3 34.6067 22.7789 34.1260 0.0000 0.0000 0.0000
# 4 0.0000 0.0000 0.0000 11.0545 0.0000 0.0000
# 5 0.0000 0.0000 0.0000 0.0000 17.9690 0.0000
# 6 0.0000 0.0000 0.0000 0.0000 0.0000 12.7393
#
#
#
# Elastic Compliance Matrix: (Units=1/GPa)
#
#
# Indices 1 2 3 4 5 6 
#
# 1 0.011716 -0.005437 -0.008252 0.000000 0.000000 0.000000
# 2 -0.005437 0.022229 -0.009324 0.000000 0.000000 0.000000
# 3 -0.008252 -0.009324 0.043895 0.000000 0.000000 0.000000
# 4 0.000000 0.000000 0.000000 0.090461 0.000000 0.000000
# 5 0.000000 0.000000 0.000000 0.000000 0.055651 0.000000
# 6 0.000000 0.000000 0.000000 0.000000 0.000000 0.078497
#
#
# Mechanical properties :
#
#
# Convention : Reuss Voigt Hill
#
# Bulk Modulus (GPa) = 31.43261 48.83586 40.13423
# Shear Modulus (GPa) = 13.92442 16.84690 15.38566
#
# Velocity S-wave (km/s) = 2.98738 3.28595 3.14022
# Velocity P-wave (km/s) = 5.66083 6.75992 6.23464
#
# Compressibility (1/GPa) = 0.03181410
#
# Stress axis : x y z
#
# Youngs Moduli (GPa) = 85.35038 44.98550 22.78164
#
# Poissons Ratio (x) = 0.24461 0.18799
# Poissons Ratio (y) = 0.46409 0.21241
# Poissons Ratio (z) = 0.70431 0.41944
#
# Static dielectric constant tensor:
#      x y z
#    x 3.569780 0.000000 0.000000 
#    y 0.000000 2.586200 0.000000 
#    z 0.000000 0.000000 2.621110 
# 
# 
# High freq. dielectric constant tensor:
#      x y z
#    x 1.618700 0.000000 0.000000 
#    y 0.000000 1.545360 0.000000 
#    z 0.000000 0.000000 1.549230 
# 
# From -- ./inp_files/17972.got.cif
#   From: 2010.03.12/outbox.cif.g09.slc.cpg/sg66_9_cif.got.tgz:17972.got - 2010.04.10 21:57:39.
