data_PCOD8275306
_publ_section_title
;
Structure prediction by ZEFSAII (Michael W. Deem and Ramdas Pophale) SiO2 
 PCOD8275306
Probable space group: C C C M
;
_chemical_formula_sum "Si O2"
_cell_formula_units_Z 64
_cell_length_a 41.277712
_cell_length_b 9.850104
_cell_length_c 8.626318
_cell_angle_alpha 90.000000
_cell_angle_beta 90.000000
_cell_angle_gamma 90.000000
_cell_volume 3507.372532
_symmetry_space_group_name_H-M "C C C M"
_symmetry_group_IT_number 66
_symmetry_cell_setting 'orthorhombic'
loop_
_space_group_symop_operation_xyz
x,y,z
-x,-y,z
x,-y,1/2-z
-x,y,1/2-z
-x,-y,-z
x,y,-z
-x,y,1/2+z
x,-y,1/2+z
1/2+x,1/2+y,z
1/2-x,1/2-y,z
1/2+x,1/2-y,1/2-z
1/2-x,1/2+y,1/2-z
1/2-x,1/2-y,-z
1/2+x,1/2+y,-z
1/2-x,1/2+y,1/2+z
1/2+x,1/2-y,1/2+z
loop_
_atom_site_type_symbol
_atom_site_label
_atom_site_fract_x
_atom_site_fract_y
_atom_site_fract_z
Si Si1 0.967666 0.848831 0.683724
Si Si2 0.277286 0.145377 0.683290
Si Si3 0.845845 0.354664 0.317229
Si Si4 0.598092 0.351076 0.316954
O O1 0.968708 0.848627 0.500000
O O2 0.934378 0.781798 0.744831
O O3 0.000000 0.773832 0.750000
O O4 0.967344 0.000000 0.750000
O O5 0.279794 0.135732 0.500000
O O6 0.250000 0.250000 0.738338
O O7 0.311673 0.194906 0.749065
O O8 0.267446 0.000000 0.750000
O O9 0.856216 0.500000 0.250000
O O10 0.842623 0.368404 0.500000
O O11 0.872322 0.244330 0.267890
O O12 0.604919 0.500000 0.250000
O O13 0.593792 0.362085 0.500000
#
# Coordination Sequence:
#
# PCOD8275306 Si02
#       4
#    16  16  16  16
#     4  10  17  27  45  69  99 133 166 206 253 299
#     4  10  21  36  55  78 103 133 169 208 251 300
#     4  10  21  36  55  76 102 136 171 207 250 302
#     4  10  20  33  50  76 104 132 169 211 253 298
#
# _framework density 18.247278999999999
#
# number of rings (size 3 to 8) (size 9 to 14) (size 15 to 20)
#    0.000    2.000    0.000    8.250    0.000    7.000 
#    0.000    5.000    0.000    0.750    0.000    5.250 
#    0.000    0.000    0.000    0.000    0.000    0.000 
#
# Total GULP energy -396750.794739 kJ/mol
# GULP energy per Si atom -12398.462336 kJ/mol
# Density = 1.820575 g / cm^3
# Si number density = 18.247279 Si / 1000 Ang^3
#
#
#
# Elastic Constant Matrix: (Units=GPa)
#
#
# Indices 1 2 3 4 5 6 
#
# 1 194.2162 95.6582 77.7697 0.0000 0.0000 0.0000
# 2 95.6582 80.0891 44.3118 0.0000 0.0000 0.0000
# 3 77.7697 44.3118 122.2841 0.0000 0.0000 0.0000
# 4 0.0000 0.0000 0.0000 9.0720 0.0000 0.0000
# 5 0.0000 0.0000 0.0000 0.0000 94.5825 0.0000
# 6 0.0000 0.0000 0.0000 0.0000 0.0000 23.6551
#
#
#
# Elastic Compliance Matrix: (Units=1/GPa)
#
#
# Indices 1 2 3 4 5 6 
#
# 1 0.013578 -0.014308 -0.003450 0.000000 0.000000 0.000000
# 2 -0.014308 0.030695 -0.002023 0.000000 0.000000 0.000000
# 3 -0.003450 -0.002023 0.011105 0.000000 0.000000 0.000000
# 4 0.000000 0.000000 0.000000 0.110229 0.000000 0.000000
# 5 0.000000 0.000000 0.000000 0.000000 0.010573 0.000000
# 6 0.000000 0.000000 0.000000 0.000000 0.000000 0.042274
#
#
# Mechanical properties :
#
#
# Convention : Reuss Voigt Hill
#
# Bulk Modulus (GPa) = 63.23276 92.45209 77.84242
# Shear Modulus (GPa) = 18.99049 37.38524 28.18787
#
# Velocity S-wave (km/s) = 3.22953 4.53129 3.93462
# Velocity P-wave (km/s) = 6.97388 8.84042 7.96204
#
# Compressibility (1/GPa) = 0.01581459
#
# Stress axis : x y z
#
# Youngs Moduli (GPa) = 73.64915 32.57813 90.04843
#
# Poissons Ratio (x) = 0.46614 0.31069
# Poissons Ratio (y) = 1.05380 0.18219
# Poissons Ratio (z) = 0.25411 0.06591
#
# Static dielectric constant tensor:
#      x y z
#    x 4.235800 0.000000 0.000000 
#    y 0.000000 3.103050 0.000000 
#    z 0.000000 0.000000 3.484220 
# 
# 
# High freq. dielectric constant tensor:
#      x y z
#    x 1.729880 0.000000 0.000000 
#    y 0.000000 1.666770 0.000000 
#    z 0.000000 0.000000 1.728950 
# 
# From -- ./inp_files/11192.got.cif
#   From: 2010.03.12/outbox.cif.g09.slc.cpg/sg66_6_cif.got.tgz:11192.got - 2010.04.10 21:57:39.
