data_PCOD8275863
_publ_section_title
;
Structure prediction by ZEFSAII (Michael W. Deem and Ramdas Pophale) SiO2 
 PCOD8275863
Probable space group: C C C M
;
_chemical_formula_sum "Si O2"
_cell_formula_units_Z 80
_cell_length_a 20.604767
_cell_length_b 27.110299
_cell_length_c 8.938412
_cell_angle_alpha 90.000000
_cell_angle_beta 90.000000
_cell_angle_gamma 90.000000
_cell_volume 4993.009405
_symmetry_space_group_name_H-M "C C C M"
_symmetry_group_IT_number 66
_symmetry_cell_setting 'orthorhombic'
loop_
_space_group_symop_operation_xyz
x,y,z
-x,-y,z
x,-y,1/2-z
-x,y,1/2-z
-x,-y,-z
x,y,-z
-x,y,1/2+z
x,-y,1/2+z
1/2+x,1/2+y,z
1/2-x,1/2-y,z
1/2+x,1/2-y,1/2-z
1/2-x,1/2+y,1/2-z
1/2-x,1/2-y,-z
1/2+x,1/2+y,-z
1/2-x,1/2+y,1/2+z
1/2+x,1/2-y,1/2+z
loop_
_atom_site_type_symbol
_atom_site_label
_atom_site_fract_x
_atom_site_fract_y
_atom_site_fract_z
Si Si1 0.933357 0.674387 0.323887
Si Si2 0.683133 0.355715 0.177749
Si Si3 0.309724 0.135672 0.830850
Si Si4 0.781380 0.948273 0.830936
Si Si5 0.565936 0.287526 0.175181
O O1 0.937988 0.666584 0.500000
O O2 0.875954 0.641193 0.259193
O O3 0.919704 0.731107 0.280018
O O4 0.000000 0.656053 0.250000
O O5 0.750897 0.334917 0.247378
O O6 0.669971 0.411114 0.241776
O O7 0.625463 0.320456 0.233304
O O8 0.689038 0.356971 0.000000
O O9 0.290041 0.077483 0.831650
O O10 0.317530 0.155757 0.000000
O O11 0.777048 0.000000 0.750000
O O12 0.806959 0.955601 0.000000
O O13 0.500000 0.306765 0.250000
O O14 0.556730 0.293335 0.000000
#
# Coordination Sequence:
#
# PCOD8275863 Si02
#       5
#    16  16  16  16  16
#     4  10  19  32  49  69  97 132 165 197 236 281
#     4   9  17  31  49  71  97 126 160 198 239 281
#     4   9  19  32  47  72  97 124 161 198 239 284
#     4   9  18  31  50  73  96 122 156 195 243 290
#     4   9  19  32  48  70  97 132 166 196 235 284
#
# _framework density 16.022402
#
# number of rings (size 3 to 8) (size 9 to 14) (size 15 to 20)
#    1.200    1.600    0.000    1.800    0.000    3.200 
#    0.000    4.000    0.000    1.200    0.000    8.400 
#    0.000    0.000    0.000    0.000    0.000    0.000 
#
# Total GULP energy -495679.237724 kJ/mol
# GULP energy per Si atom -12391.980943 kJ/mol
# Density = 1.598593 g / cm^3
# Si number density = 16.022402 Si / 1000 Ang^3
#
#
#
# Elastic Constant Matrix: (Units=GPa)
#
#
# Indices 1 2 3 4 5 6 
#
# 1 23.8293 -16.3320 5.0162 0.0000 0.0000 0.0000
# 2 -16.3320 21.8816 3.8991 0.0000 0.0000 0.0000
# 3 5.0162 3.8991 75.4161 0.0000 0.0000 0.0000
# 4 0.0000 0.0000 0.0000 19.4902 0.0000 0.0000
# 5 0.0000 0.0000 0.0000 0.0000 30.4776 0.0000
# 6 0.0000 0.0000 0.0000 0.0000 0.0000 9.1140
#
#
#
# Elastic Compliance Matrix: (Units=1/GPa)
#
#
# Indices 1 2 3 4 5 6 
#
# 1 0.092605 0.070869 -0.009823 0.000000 0.000000 0.000000
# 2 0.070869 0.100360 -0.009902 0.000000 0.000000 0.000000
# 3 -0.009823 -0.009902 0.014425 0.000000 0.000000 0.000000
# 4 0.000000 0.000000 0.000000 0.051308 0.000000 0.000000
# 5 0.000000 0.000000 0.000000 0.000000 0.032811 0.000000
# 6 0.000000 0.000000 0.000000 0.000000 0.000000 0.109721
#
#
# Mechanical properties :
#
#
# Convention : Reuss Voigt Hill
#
# Bulk Modulus (GPa) = 3.22917 11.81038 7.51977
# Shear Modulus (GPa) = 12.43256 20.38594 16.40925
#
# Velocity S-wave (km/s) = 2.78861 3.57086 3.20370
# Velocity P-wave (km/s) = 3.51969 4.93847 4.28817
#
# Compressibility (1/GPa) = 0.30967699
#
# Stress axis : x y z
#
# Youngs Moduli (GPa) = 10.79853 9.96411 69.32347
#
# Poissons Ratio (x) = -0.70615 0.68100
# Poissons Ratio (y) = -0.76528 0.68647
# Poissons Ratio (z) = 0.10608 0.09867
#
# Static dielectric constant tensor:
#      x y z
#    x 2.937340 0.000000 0.000000 
#    y 0.000000 2.817520 0.000000 
#    z 0.000000 0.000000 3.109750 
# 
# 
# High freq. dielectric constant tensor:
#      x y z
#    x 1.601230 0.000000 0.000000 
#    y 0.000000 1.589200 0.000000 
#    z 0.000000 0.000000 1.634140 
# 
# From -- ./inp_files/6921.got.cif
#   From: 2010.03.12/outbox.cif.g09.slc.cpg/sg66_4_cif.got.tgz:6921.got - 2010.04.10 21:57:39.
