data_PCOD8275081
_publ_section_title
;
Structure prediction by ZEFSAII (Michael W. Deem and Ramdas Pophale) SiO2 
 PCOD8275081
Probable space group: C M M M
;
_chemical_formula_sum "Si O2"
_cell_formula_units_Z 80
_cell_length_a 19.827711
_cell_length_b 25.212046
_cell_length_c 9.699712
_cell_angle_alpha 90.000000
_cell_angle_beta 90.000000
_cell_angle_gamma 90.000000
_cell_volume 4848.858499
_symmetry_space_group_name_H-M "C M M M"
_symmetry_group_IT_number 65
_symmetry_cell_setting 'orthorhombic'
loop_
_space_group_symop_operation_xyz
x,y,z
-x,-y,z
x,-y,-z
-x,y,-z
-x,-y,-z
x,y,-z
-x,y,z
x,-y,z
1/2+x,1/2+y,z
1/2-x,1/2-y,z
1/2+x,1/2-y,-z
1/2-x,1/2+y,-z
1/2-x,1/2-y,-z
1/2+x,1/2+y,-z
1/2-x,1/2+y,z
1/2+x,1/2-y,z
loop_
_atom_site_type_symbol
_atom_site_label
_atom_site_fract_x
_atom_site_fract_y
_atom_site_fract_z
Si Si1 0.919851 0.756841 0.153166
Si Si2 0.425181 0.140078 0.163780
Si Si3 0.189033 0.561187 0.839438
Si Si4 0.077420 0.148359 0.659264
Si Si5 0.683836 0.560614 0.341352
O O1 0.898382 0.698507 0.208417
O O2 0.892545 0.802156 0.255138
O O3 0.000000 0.758162 0.147445
O O4 0.890269 0.767320 0.000000
O O5 0.500000 0.128656 0.225431
O O6 0.373594 0.095567 0.217249
O O7 0.430054 0.138662 0.000000
O O8 0.170705 0.500000 0.813084
O O9 0.254450 0.578512 0.754151
O O10 0.203515 0.572317 0.000000
O O11 0.084539 0.163743 0.500000
O O12 0.119276 0.095950 0.696609
O O13 0.000000 0.136392 0.698700
O O14 0.705543 0.568334 0.500000
O O15 0.663248 0.500000 0.311132
#
# Coordination Sequence:
#
# PCOD8275081 Si02
#       5
#    16  16  16  16  16
#     4   8  14  26  44  64  87 115 142 170 211 259
#     4   8  14  26  45  68  91 114 143 178 213 251
#     4   9  17  29  46  67  89 114 145 180 215 251
#     4   9  17  29  46  67  87 108 141 183 218 251
#     4   9  18  32  47  62  85 117 145 172 215 265
#
# _framework density 16.498729000000001
#
# number of rings (size 3 to 8) (size 9 to 14) (size 15 to 20)
#    0.000    3.400    0.000    1.200    0.000    1.600 
#    0.000    6.000    0.000    7.800    0.000    8.400 
#    0.000    0.000    0.000    0.000    0.000    0.000 
#
# Total GULP energy -495833.973550 kJ/mol
# GULP energy per Si atom -12395.849339 kJ/mol
# Density = 1.646118 g / cm^3
# Si number density = 16.498729 Si / 1000 Ang^3
#
#
#
# Elastic Constant Matrix: (Units=GPa)
#
#
# Indices 1 2 3 4 5 6 
#
# 1 91.1381 73.8322 42.7168 0.0000 0.0000 0.0000
# 2 73.8322 119.5757 49.2623 0.0000 0.0000 0.0000
# 3 42.7168 49.2623 50.1456 0.0000 0.0000 0.0000
# 4 0.0000 0.0000 0.0000 21.9540 0.0000 0.0000
# 5 0.0000 0.0000 0.0000 0.0000 20.5427 0.0000
# 6 0.0000 0.0000 0.0000 0.0000 0.0000 15.1146
#
#
#
# Elastic Compliance Matrix: (Units=1/GPa)
#
#
# Indices 1 2 3 4 5 6 
#
# 1 0.024702 -0.011059 -0.010178 0.000000 0.000000 0.000000
# 2 -0.011059 0.019000 -0.009244 0.000000 0.000000 0.000000
# 3 -0.010178 -0.009244 0.037694 0.000000 0.000000 0.000000
# 4 0.000000 0.000000 0.000000 0.045550 0.000000 0.000000
# 5 0.000000 0.000000 0.000000 0.000000 0.048679 0.000000
# 6 0.000000 0.000000 0.000000 0.000000 0.000000 0.066161
#
#
# Mechanical properties :
#
#
# Convention : Reuss Voigt Hill
#
# Bulk Modulus (GPa) = 48.94228 65.83134 57.38681
# Shear Modulus (GPa) = 16.15193 17.85880 17.00537
#
# Velocity S-wave (km/s) = 3.13226 3.29361 3.21395
# Velocity P-wave (km/s) = 6.54294 7.37911 6.97357
#
# Compressibility (1/GPa) = 0.02043223
#
# Stress axis : x y z
#
# Youngs Moduli (GPa) = 40.48225 52.63196 26.52948
#
# Poissons Ratio (x) = 0.58207 0.27003
# Poissons Ratio (y) = 0.44770 0.24525
# Poissons Ratio (z) = 0.41204 0.48655
#
# Static dielectric constant tensor:
#      x y z
#    x 3.055590 0.000000 0.000000 
#    y 0.000000 3.354700 0.000000 
#    z 0.000000 0.000000 3.035140 
# 
# 
# High freq. dielectric constant tensor:
#      x y z
#    x 1.612960 0.000000 0.000000 
#    y 0.000000 1.642610 0.000000 
#    z 0.000000 0.000000 1.613520 
# 
# From -- ./inp_files/9589.got.cif
#   From: 2010.03.12/outbox.cif.g09.slc.cpg/sg65_5_cif.got.tgz:9589.got - 2010.04.10 20:52:16.
