data_PCOD8275980
_publ_section_title
;
Structure prediction by ZEFSAII (Michael W. Deem and Ramdas Pophale) SiO2 
 PCOD8275980
Probable space group: C C C M
;
_chemical_formula_sum "Si O2"
_cell_formula_units_Z 120
_cell_length_a 18.316278
_cell_length_b 17.811488
_cell_length_c 18.577300
_cell_angle_alpha 90.000000
_cell_angle_beta 90.000000
_cell_angle_gamma 90.000000
_cell_volume 6060.661432
_symmetry_space_group_name_H-M "C C C M"
_symmetry_group_IT_number 66
_symmetry_cell_setting 'orthorhombic'
loop_
_space_group_symop_operation_xyz
x,y,z
-x,-y,z
x,-y,1/2-z
-x,y,1/2-z
-x,-y,-z
x,y,-z
-x,y,1/2+z
x,-y,1/2+z
1/2+x,1/2+y,z
1/2-x,1/2-y,z
1/2+x,1/2-y,1/2-z
1/2-x,1/2+y,1/2-z
1/2-x,1/2-y,-z
1/2+x,1/2+y,-z
1/2-x,1/2+y,1/2+z
1/2+x,1/2-y,1/2+z
loop_
_atom_site_type_symbol
_atom_site_label
_atom_site_fract_x
_atom_site_fract_y
_atom_site_fract_z
Si Si1 0.365572 0.645659 0.080285
Si Si2 0.825336 0.281424 0.840279
Si Si3 0.000000 0.205417 0.750000
Si Si4 0.849220 0.150292 0.418048
Si Si5 0.309783 0.088152 0.082711
Si Si6 0.135186 0.714322 0.682344
Si Si7 0.500409 0.415202 0.363232
Si Si8 0.712328 0.920364 0.584167
O O1 0.382201 0.718142 0.132552
O O2 0.437673 0.592655 0.075949
O O3 0.296743 0.595130 0.107376
O O4 0.350161 0.675941 0.000000
O O5 0.750000 0.250000 0.872625
O O6 0.817442 0.291095 0.754546
O O7 0.841418 0.362334 0.875151
O O8 0.945031 0.262228 0.709947
O O9 0.968632 0.145113 0.806570
O O10 0.863615 0.175485 0.500000
O O11 0.776588 0.101928 0.410983
O O12 0.833222 0.223236 0.370684
O O13 0.918481 0.103808 0.390067
O O14 0.360065 0.136672 0.137294
O O15 0.316981 0.001965 0.106825
O O16 0.335537 0.101916 0.000000
O O17 0.500000 0.500000 0.332919
O O18 0.703102 0.909356 0.500000
#
# Coordination Sequence:
#
# PCOD8275980 Si02
#       8
#    16  16   8  16  16  16  16  16
#     4  10  19  33  54  82 116 156 192 229 276 335
#     4  10  19  33  55  80 110 148 192 232 277 335
#     4  10  23  40  54  79 112 148 190 232 285 340
#     4  10  21  35  55  85 118 153 191 230 276 337
#     4  10  20  36  58  85 116 148 186 241 295 338
#     4  11  21  37  58  78 109 148 192 235 283 344
#     4  11  21  35  56  83 118 158 191 227 275 335
#     4   9  19  34  54  83 116 145 186 243 294 336
#
# _framework density 19.799817999999998
#
# number of rings (size 3 to 8) (size 9 to 14) (size 15 to 20)
#    0.000    1.867    1.333    3.400    0.000    5.333 
#    0.000    0.000    0.000    1.600    0.000    1.867 
#    0.000    0.000    0.000    0.000    0.000    0.000 
#
# Total GULP energy -743392.126271 kJ/mol
# GULP energy per Si atom -12389.868771 kJ/mol
# Density = 1.975475 g / cm^3
# Si number density = 19.799818 Si / 1000 Ang^3
#
#
#
# Elastic Constant Matrix: (Units=GPa)
#
#
# Indices 1 2 3 4 5 6 
#
# 1 56.7931 50.6118 21.5511 0.0000 0.0000 0.0000
# 2 50.6118 165.9391 75.7658 0.0000 0.0000 0.0000
# 3 21.5511 75.7658 100.8221 0.0000 0.0000 0.0000
# 4 0.0000 0.0000 0.0000 -3.0670 0.0000 0.0000
# 5 0.0000 0.0000 0.0000 0.0000 20.2015 0.0000
# 6 0.0000 0.0000 0.0000 0.0000 0.0000 23.6055
#
#
#
# Elastic Compliance Matrix: (Units=1/GPa)
#
#
# Indices 1 2 3 4 5 6 
#
# 1 0.024202 -0.007641 0.000569 0.000000 0.000000 0.000000
# 2 -0.007641 0.011587 -0.007074 0.000000 0.000000 0.000000
# 3 0.000569 -0.007074 0.015113 0.000000 0.000000 0.000000
# 4 0.000000 0.000000 0.000000 -0.326049 0.000000 0.000000
# 5 0.000000 0.000000 0.000000 0.000000 0.049501 0.000000
# 6 0.000000 0.000000 0.000000 0.000000 0.000000 0.042363
#
#
# Mechanical properties :
#
#
# Convention : Reuss Voigt Hill
#
# Bulk Modulus (GPa) = 44.23049 68.82350 56.52700
# Shear Modulus (GPa) = -33.90862 19.85637 -7.02613
#
# Velocity S-wave (km/s) = -4.14281 3.17023 -1.88581
# Velocity P-wave (km/s) = 0.70465 6.94518 4.88564
#
# Compressibility (1/GPa) = 0.02260884
#
# Stress axis : x y z
#
# Youngs Moduli (GPa) = 41.31973 86.30516 66.16971
#
# Poissons Ratio (x) = 0.65949 -0.03766
# Poissons Ratio (y) = 0.31574 0.46808
# Poissons Ratio (z) = -0.02352 0.61051
#
# Static dielectric constant tensor:
#      x y z
#    x 3.339850 0.000000 0.000000 
#    y 0.000000 3.678420 0.000000 
#    z 0.000000 0.000000 3.679510 
# 
# 
# High freq. dielectric constant tensor:
#      x y z
#    x 1.746920 0.000000 0.000000 
#    y 0.000000 1.771860 0.000000 
#    z 0.000000 0.000000 1.778960 
# 
# From -- ./inp_files/43113.got.cif
#   From: 2010.03.12/outbox.cif.g09.slc.cpg/sg66_22_cif.got.tgz:43113.got - 2010.04.10 21:57:39.
