data_PCOD8275647
_publ_section_title
;
Structure prediction by ZEFSAII (Michael W. Deem and Ramdas Pophale) SiO2 
 PCOD8275647
Probable space group: C C C M
;
_chemical_formula_sum "Si O2"
_cell_formula_units_Z 56
_cell_length_a 26.461468
_cell_length_b 13.726970
_cell_length_c 9.431623
_cell_angle_alpha 90.000000
_cell_angle_beta 90.000000
_cell_angle_gamma 90.000000
_cell_volume 3425.902912
_symmetry_space_group_name_H-M "C C C M"
_symmetry_group_IT_number 66
_symmetry_cell_setting 'orthorhombic'
loop_
_space_group_symop_operation_xyz
x,y,z
-x,-y,z
x,-y,1/2-z
-x,y,1/2-z
-x,-y,-z
x,y,-z
-x,y,1/2+z
x,-y,1/2+z
1/2+x,1/2+y,z
1/2-x,1/2-y,z
1/2+x,1/2-y,1/2-z
1/2-x,1/2+y,1/2-z
1/2-x,1/2-y,-z
1/2+x,1/2+y,-z
1/2-x,1/2+y,1/2+z
1/2+x,1/2-y,1/2+z
loop_
_atom_site_type_symbol
_atom_site_label
_atom_site_fract_x
_atom_site_fract_y
_atom_site_fract_z
Si Si1 0.452040 0.099437 0.832838
Si Si2 0.799087 0.183303 0.500000
Si Si3 0.654387 0.815680 0.793857
Si Si4 0.797254 0.676667 0.500000
Si Si5 0.784967 0.550583 0.000000
O O1 0.500000 0.146477 0.750000
O O2 0.404923 0.170828 0.817617
O O3 0.438817 0.000000 0.750000
O O4 0.463697 0.080651 0.000000
O O5 0.750000 0.250000 0.500000
O O6 0.831687 0.211030 0.637905
O O7 0.775559 0.075434 0.500000
O O8 0.666697 0.804162 0.631103
O O9 0.685892 0.905683 0.862887
O O10 0.750000 0.750000 0.500000
O O11 0.781441 0.564571 0.500000
#
# Coordination Sequence:
#
# PCOD8275647 Si02
#       5
#    16   8  16   8   8
#     4  11  21  32  47  70  98 131 168 202 244 294
#     4   8  16  34  49  64  88 130 168 191 227 295
#     4  10  20  32  49  68  97 131 166 195 241 283
#     4  12  22  30  46  77 102 124 160 211 239 286
#     4  10  18  34  51  64  94 137 164 187 245 296
#
# _framework density 16.346056000000001
#
# number of rings (size 3 to 8) (size 9 to 14) (size 15 to 20)
#    0.000    2.000    2.857    6.857    4.000    0.000 
#    0.000    0.000    0.000    0.000    0.000    0.000 
#    0.000    6.857    0.000    0.000    0.000    0.000 
#
# Total GULP energy -346894.436344 kJ/mol
# GULP energy per Si atom -12389.087012 kJ/mol
# Density = 1.630885 g / cm^3
# Si number density = 16.346056 Si / 1000 Ang^3
#
#
#
# Elastic Constant Matrix: (Units=GPa)
#
#
# Indices 1 2 3 4 5 6 
#
# 1 128.3572 35.6828 48.9669 0.0000 0.0000 0.0000
# 2 35.6828 43.8160 20.6605 0.0000 0.0000 0.0000
# 3 48.9669 20.6605 158.9206 0.0000 0.0000 0.0000
# 4 0.0000 0.0000 0.0000 -101.2150 0.0000 0.0000
# 5 0.0000 0.0000 0.0000 0.0000 30.4507 0.0000
# 6 0.0000 0.0000 0.0000 0.0000 0.0000 25.0779
#
#
#
# Elastic Compliance Matrix: (Units=1/GPa)
#
#
# Indices 1 2 3 4 5 6 
#
# 1 0.010826 -0.007716 -0.002332 0.000000 0.000000 0.000000
# 2 -0.007716 0.029813 -0.001498 0.000000 0.000000 0.000000
# 3 -0.002332 -0.001498 0.007206 0.000000 0.000000 0.000000
# 4 0.000000 0.000000 0.000000 -0.009880 0.000000 0.000000
# 5 0.000000 0.000000 0.000000 0.000000 0.032840 0.000000
# 6 0.000000 0.000000 0.000000 0.000000 0.000000 0.039876
#
#
# Mechanical properties :
#
#
# Convention : Reuss Voigt Hill
#
# Bulk Modulus (GPa) = 40.40309 60.19048 50.29678
# Shear Modulus (GPa) = 35.20503 5.91495 20.55999
#
# Velocity S-wave (km/s) = 4.64587 1.90432 3.55039
# Velocity P-wave (km/s) = 7.31777 6.46048 6.90245
#
# Compressibility (1/GPa) = 0.02475058
#
# Stress axis : x y z
#
# Youngs Moduli (GPa) = 92.37290 33.54216 138.77483
#
# Poissons Ratio (x) = 0.25882 0.32369
# Poissons Ratio (y) = 0.71278 0.20793
# Poissons Ratio (z) = 0.21546 0.05026
#
# Static dielectric constant tensor:
#      x y z
#    x 3.446980 0.000000 0.000000 
#    y 0.000000 3.220140 0.000000 
#    z 0.000000 0.000000 3.339170 
# 
# 
# High freq. dielectric constant tensor:
#      x y z
#    x 1.626890 0.000000 0.000000 
#    y 0.000000 1.578170 0.000000 
#    z 0.000000 0.000000 1.652520 
# 
# From -- ./inp_files/9837.got.cif
#   From: 2010.03.12/outbox.cif.g09.slc.cpg/sg66_5_cif.got.tgz:9837.got - 2010.04.10 21:57:39.
