data_PCOD8275164
_publ_section_title
;
Structure prediction by ZEFSAII (Michael W. Deem and Ramdas Pophale) SiO2 
 PCOD8275164
Probable space group: C M M M
;
_chemical_formula_sum "Si O2"
_cell_formula_units_Z 72
_cell_length_a 31.808376
_cell_length_b 13.319751
_cell_length_c 10.038687
_cell_angle_alpha 90.000000
_cell_angle_beta 90.000000
_cell_angle_gamma 90.000000
_cell_volume 4253.187375
_symmetry_space_group_name_H-M "C M M M"
_symmetry_group_IT_number 65
_symmetry_cell_setting 'orthorhombic'
loop_
_space_group_symop_operation_xyz
x,y,z
-x,-y,z
x,-y,-z
-x,y,-z
-x,-y,-z
x,y,-z
-x,y,z
x,-y,z
1/2+x,1/2+y,z
1/2-x,1/2-y,z
1/2+x,1/2-y,-z
1/2-x,1/2+y,-z
1/2-x,1/2-y,-z
1/2+x,1/2+y,-z
1/2-x,1/2+y,z
1/2+x,1/2-y,z
loop_
_atom_site_type_symbol
_atom_site_label
_atom_site_fract_x
_atom_site_fract_y
_atom_site_fract_z
Si Si1 0.922100 0.250658 0.348946
Si Si2 0.657870 0.888604 0.645112
Si Si3 0.126840 0.116847 0.845473
Si Si4 0.000000 0.384726 0.342070
Si Si5 0.201033 0.734387 0.149710
O O1 0.931332 0.210034 0.500000
O O2 0.882501 0.321095 0.350326
O O3 0.911041 0.160039 0.247059
O O4 0.960124 0.319189 0.293766
O O5 0.679678 0.880300 0.500000
O O6 0.691316 0.858335 0.755370
O O7 0.642131 0.000000 0.674752
O O8 0.172003 0.169090 0.814012
O O9 0.132399 0.000000 0.811687
O O10 0.114237 0.133164 0.000000
O O11 0.000000 0.500000 0.283630
O O12 0.000000 0.393890 0.500000
O O13 0.250000 0.750000 0.170100
O O14 0.190975 0.700752 0.000000
#
# Coordination Sequence:
#
# PCOD8275164 Si02
#       5
#    16  16  16   8  16
#     4   9  17  30  49  72  95 119 152 191 227 270
#     4   9  17  29  45  66  93 122 148 178 222 275
#     4   9  18  33  50  66  90 126 161 192 231 277
#     4   9  16  28  50  77 100 122 149 185 232 281
#     4   9  18  31  47  68  91 116 152 196 234 270
#
# _framework density 16.928481000000001
#
# number of rings (size 3 to 8) (size 9 to 14) (size 15 to 20)
#    0.000    3.000    0.000    0.667    0.000    4.889 
#    0.000    3.333    0.000    6.000    0.000    0.000 
#    0.000    0.000    0.000    0.000    0.000    0.000 
#
# Total GULP energy -446075.890819 kJ/mol
# GULP energy per Si atom -12390.996967 kJ/mol
# Density = 1.688995 g / cm^3
# Si number density = 16.928481 Si / 1000 Ang^3
#
#
#
# Elastic Constant Matrix: (Units=GPa)
#
#
# Indices 1 2 3 4 5 6 
#
# 1 69.9172 29.6918 39.9595 0.0000 0.0000 0.0000
# 2 29.6918 93.1224 46.6994 0.0000 0.0000 0.0000
# 3 39.9595 46.6994 69.1004 0.0000 0.0000 0.0000
# 4 0.0000 0.0000 0.0000 72.0843 0.0000 0.0000
# 5 0.0000 0.0000 0.0000 0.0000 6.8842 0.0000
# 6 0.0000 0.0000 0.0000 0.0000 0.0000 -6.0786
#
#
#
# Elastic Compliance Matrix: (Units=1/GPa)
#
#
# Indices 1 2 3 4 5 6 
#
# 1 0.021417 -0.000935 -0.011753 0.000000 0.000000 0.000000
# 2 -0.000935 0.016285 -0.010465 0.000000 0.000000 0.000000
# 3 -0.011753 -0.010465 0.028341 0.000000 0.000000 0.000000
# 4 0.000000 0.000000 0.000000 0.013873 0.000000 0.000000
# 5 0.000000 0.000000 0.000000 0.000000 0.145261 0.000000
# 6 0.000000 0.000000 0.000000 0.000000 0.000000 -0.164513
#
#
# Mechanical properties :
#
#
# Convention : Reuss Voigt Hill
#
# Bulk Modulus (GPa) = 50.66763 51.64905 51.15834
# Shear Modulus (GPa) = 44.03413 22.29727 33.16570
#
# Velocity S-wave (km/s) = 5.10572 3.63319 4.43105
# Velocity P-wave (km/s) = 8.04693 6.94093 7.51431
#
# Compressibility (1/GPa) = 0.01973647
#
# Stress axis : x y z
#
# Youngs Moduli (GPa) = 46.69214 61.40776 35.28465
#
# Poissons Ratio (x) = 0.05739 0.41471
# Poissons Ratio (y) = 0.04364 0.36925
# Poissons Ratio (z) = 0.54879 0.64263
#
# Static dielectric constant tensor:
#      x y z
#    x 3.185200 0.000000 0.000000 
#    y 0.000000 3.248280 0.000000 
#    z 0.000000 0.000000 3.590980 
# 
# 
# High freq. dielectric constant tensor:
#      x y z
#    x 1.642310 0.000000 0.000000 
#    y 0.000000 1.647870 0.000000 
#    z 0.000000 0.000000 1.647290 
# 
# From -- ./inp_files/17992.got.cif
#   From: 2010.03.12/outbox.cif.g09.slc.cpg/sg65_9_cif.got.tgz:17992.got - 2010.04.10 20:52:16.
