data_PCOD8275557
_publ_section_title
;
Structure prediction by ZEFSAII (Michael W. Deem and Ramdas Pophale) SiO2 
 PCOD8275557
Probable space group: C C C M
;
_chemical_formula_sum "Si O2"
_cell_formula_units_Z 64
_cell_length_a 22.616702
_cell_length_b 22.383724
_cell_length_c 7.457761
_cell_angle_alpha 90.000000
_cell_angle_beta 90.000000
_cell_angle_gamma 90.000000
_cell_volume 3775.461790
_symmetry_space_group_name_H-M "C C C M"
_symmetry_group_IT_number 66
_symmetry_cell_setting 'orthorhombic'
loop_
_space_group_symop_operation_xyz
x,y,z
-x,-y,z
x,-y,1/2-z
-x,y,1/2-z
-x,-y,-z
x,y,-z
-x,y,1/2+z
x,-y,1/2+z
1/2+x,1/2+y,z
1/2-x,1/2-y,z
1/2+x,1/2-y,1/2-z
1/2-x,1/2+y,1/2-z
1/2-x,1/2-y,-z
1/2+x,1/2+y,-z
1/2-x,1/2+y,1/2+z
1/2+x,1/2-y,1/2+z
loop_
_atom_site_type_symbol
_atom_site_label
_atom_site_fract_x
_atom_site_fract_y
_atom_site_fract_z
Si Si1 0.732460 0.152719 0.500000
Si Si2 0.845776 0.770189 0.000000
Si Si3 0.936891 0.389708 0.207502
Si Si4 0.813397 0.433358 0.790484
Si Si5 0.435402 0.244726 0.709556
O O1 0.798764 0.176831 0.500000
O O2 0.685539 0.205998 0.500000
O O3 0.725553 0.113205 0.679086
O O4 0.885514 0.779155 0.822038
O O5 0.881658 0.428175 0.280131
O O6 0.935869 0.322992 0.288544
O O7 0.000000 0.421278 0.250000
O O8 0.928451 0.382312 0.000000
O O9 0.791251 0.500000 0.750000
O O10 0.806439 0.417868 0.000000
O O11 0.500000 0.272801 0.750000
O O12 0.419432 0.249346 0.500000
#
# Coordination Sequence:
#
# PCOD8275557 Si02
#       5
#     8   8  16  16  16
#     4  11  24  38  54  78 112 148 188 221 270 325
#     4  11  22  36  56  81 113 149 177 223 274 327
#     4   9  19  29  46  73 103 139 184 227 264 303
#     4  11  22  37  55  75 103 145 191 232 267 312
#     4  10  18  31  53  80 110 143 179 219 268 322
#
# _framework density 16.951568000000002
#
# number of rings (size 3 to 8) (size 9 to 14) (size 15 to 20)
#    0.000    1.750    5.000    0.000    3.500    1.500 
#    0.000    5.000    0.000    0.000    0.000    0.000 
#    0.000    3.000    0.000    0.000    0.000    0.000 
#
# Total GULP energy -396713.728886 kJ/mol
# GULP energy per Si atom -12397.304028 kJ/mol
# Density = 1.691299 g / cm^3
# Si number density = 16.951568 Si / 1000 Ang^3
#
#
#
# Elastic Constant Matrix: (Units=GPa)
#
#
# Indices 1 2 3 4 5 6 
#
# 1 114.3619 53.9418 53.0634 0.0000 0.0000 0.0000
# 2 53.9418 73.6220 37.5470 0.0000 0.0000 0.0000
# 3 53.0634 37.5470 115.5755 0.0000 0.0000 0.0000
# 4 0.0000 0.0000 0.0000 10.8998 0.0000 0.0000
# 5 0.0000 0.0000 0.0000 0.0000 26.3471 0.0000
# 6 0.0000 0.0000 0.0000 0.0000 0.0000 21.5825
#
#
#
# Elastic Compliance Matrix: (Units=1/GPa)
#
#
# Indices 1 2 3 4 5 6 
#
# 1 0.014691 -0.008779 -0.003893 0.000000 0.000000 0.000000
# 2 -0.008779 0.021526 -0.002963 0.000000 0.000000 0.000000
# 3 -0.003893 -0.002963 0.011402 0.000000 0.000000 0.000000
# 4 0.000000 0.000000 0.000000 0.091745 0.000000 0.000000
# 5 0.000000 0.000000 0.000000 0.000000 0.037955 0.000000
# 6 0.000000 0.000000 0.000000 0.000000 0.000000 0.046334
#
#
# Mechanical properties :
#
#
# Convention : Reuss Voigt Hill
#
# Bulk Modulus (GPa) = 61.16017 65.85154 63.50586
# Shear Modulus (GPa) = 19.20331 22.36635 20.78483
#
# Velocity S-wave (km/s) = 3.36941 3.63633 3.50541
# Velocity P-wave (km/s) = 7.16205 7.52075 7.34359
#
# Compressibility (1/GPa) = 0.01635051
#
# Stress axis : x y z
#
# Youngs Moduli (GPa) = 68.06786 46.45597 87.70173
#
# Poissons Ratio (x) = 0.40782 0.34144
# Poissons Ratio (y) = 0.59754 0.25983
# Poissons Ratio (z) = 0.26500 0.13763
#
# Static dielectric constant tensor:
#      x y z
#    x 3.246920 0.000000 0.000000 
#    y 0.000000 2.830840 0.000000 
#    z 0.000000 0.000000 3.202150 
# 
# 
# High freq. dielectric constant tensor:
#      x y z
#    x 1.639890 0.000000 0.000000 
#    y 0.000000 1.603810 0.000000 
#    z 0.000000 0.000000 1.669580 
# 
# From -- ./inp_files/6201.got.cif
#   From: 2010.03.12/outbox.cif.g09.slc.cpg/sg66_4_cif.got.tgz:6201.got - 2010.04.10 21:57:39.
