data_PCOD8275640
_publ_section_title
;
Structure prediction by ZEFSAII (Michael W. Deem and Ramdas Pophale) SiO2 
 PCOD8275640
Probable space group: C C C M
;
_chemical_formula_sum "Si O2"
_cell_formula_units_Z 112
_cell_length_a 13.344922
_cell_length_b 27.823158
_cell_length_c 13.814460
_cell_angle_alpha 90.000000
_cell_angle_beta 90.000000
_cell_angle_gamma 90.000000
_cell_volume 5129.279619
_symmetry_space_group_name_H-M "C C C M"
_symmetry_group_IT_number 66
_symmetry_cell_setting 'orthorhombic'
loop_
_space_group_symop_operation_xyz
x,y,z
-x,-y,z
x,-y,1/2-z
-x,y,1/2-z
-x,-y,-z
x,y,-z
-x,y,1/2+z
x,-y,1/2+z
1/2+x,1/2+y,z
1/2-x,1/2-y,z
1/2+x,1/2-y,1/2-z
1/2-x,1/2+y,1/2-z
1/2-x,1/2-y,-z
1/2+x,1/2+y,-z
1/2-x,1/2+y,1/2+z
1/2+x,1/2-y,1/2+z
loop_
_atom_site_type_symbol
_atom_site_label
_atom_site_fract_x
_atom_site_fract_y
_atom_site_fract_z
Si Si1 0.947480 0.953246 0.390085
Si Si2 0.754804 0.945003 0.265045
Si Si3 0.810245 0.201233 0.113076
Si Si4 0.145239 0.358371 0.703547
Si Si5 0.869957 0.114470 0.610806
Si Si6 0.033737 0.210119 0.886415
Si Si7 0.053410 0.319360 0.887607
O O1 0.920537 0.965412 0.500000
O O2 0.844553 0.941396 0.339646
O O3 0.019539 0.907977 0.378909
O O4 0.000000 0.000000 0.342292
O O5 0.656696 0.916438 0.305104
O O6 0.788764 0.916885 0.168041
O O7 0.722574 0.000000 0.250000
O O8 0.750000 0.250000 0.129469
O O9 0.753660 0.160312 0.172228
O O10 0.922093 0.204610 0.159106
O O11 0.813270 0.187508 0.000000
O O12 0.060044 0.336447 0.634595
O O13 0.127929 0.347530 0.817378
O O14 0.833249 0.113734 0.500000
O O15 0.886105 0.169694 0.648347
O O16 0.071222 0.263530 0.861861
O O17 0.018705 0.204468 0.000000
O O18 0.077500 0.330102 0.000000
#
# Coordination Sequence:
#
# PCOD8275640 Si02
#       7
#    16  16  16  16  16  16  16
#     4  10  20  37  60  87 123 166 206 242 293 363
#     4  12  25  40  61  89 126 161 205 262 310 359
#     4  10  18  33  59  93 129 158 198 252 299 358
#     4  11  24  39  62  95 118 160 210 262 319 366
#     4  10  21  37  58  88 126 166 201 234 291 371
#     4   9  18  36  62  88 121 167 202 240 299 366
#     4  10  22  45  67  86 121 162 207 260 316 373
#
# _framework density 21.835425000000001
#
# number of rings (size 3 to 8) (size 9 to 14) (size 15 to 20)
#    0.000    1.714    2.857    1.714    0.000    4.000 
#    5.143    1.429    0.000    3.857    0.000    0.000 
#    0.000    0.000    0.000    0.000    0.000    0.000 
#
# Total GULP energy -694229.752438 kJ/mol
# GULP energy per Si atom -12396.959865 kJ/mol
# Density = 2.178573 g / cm^3
# Si number density = 21.835425 Si / 1000 Ang^3
#
#
#
# Elastic Constant Matrix: (Units=GPa)
#
#
# Indices 1 2 3 4 5 6 
#
# 1 34.5002 42.9497 2.8976 0.0000 0.0000 0.0000
# 2 42.9497 156.3802 31.6324 0.0000 0.0000 0.0000
# 3 2.8976 31.6324 62.1862 0.0000 0.0000 0.0000
# 4 0.0000 0.0000 0.0000 19.4796 0.0000 0.0000
# 5 0.0000 0.0000 0.0000 0.0000 14.6503 0.0000
# 6 0.0000 0.0000 0.0000 0.0000 0.0000 34.2373
#
#
#
# Elastic Compliance Matrix: (Units=1/GPa)
#
#
# Indices 1 2 3 4 5 6 
#
# 1 0.045243 -0.013376 0.004696 0.000000 0.000000 0.000000
# 2 -0.013376 0.011083 -0.005014 0.000000 0.000000 0.000000
# 3 0.004696 -0.005014 0.018412 0.000000 0.000000 0.000000
# 4 0.000000 0.000000 0.000000 0.051336 0.000000 0.000000
# 5 0.000000 0.000000 0.000000 0.000000 0.068258 0.000000
# 6 0.000000 0.000000 0.000000 0.000000 0.000000 0.029208
#
#
# Mechanical properties :
#
#
# Convention : Reuss Voigt Hill
#
# Bulk Modulus (GPa) = 21.11960 45.33622 33.22791
# Shear Modulus (GPa) = 18.74691 25.37922 22.06307
#
# Velocity S-wave (km/s) = 2.93329 3.41294 3.18217
# Velocity P-wave (km/s) = 4.60059 6.02816 5.36209
#
# Compressibility (1/GPa) = 0.04734939
#
# Stress axis : x y z
#
# Youngs Moduli (GPa) = 22.10309 90.23202 54.31097
#
# Poissons Ratio (x) = 1.20691 -0.25503
# Poissons Ratio (y) = 0.29564 0.27232
# Poissons Ratio (z) = -0.10379 0.45243
#
# Static dielectric constant tensor:
#      x y z
#    x 3.653080 0.000000 0.000000 
#    y 0.000000 4.521600 0.000000 
#    z 0.000000 0.000000 3.990760 
# 
# 
# High freq. dielectric constant tensor:
#      x y z
#    x 1.832030 0.000000 0.000000 
#    y 0.000000 1.862540 0.000000 
#    z 0.000000 0.000000 1.866200 
# 
# From -- ./inp_files/28747.got.cif
#   From: 2010.03.12/outbox.cif.g09.slc.cpg/sg66_15_cif.got.tgz:28747.got - 2010.04.10 21:57:39.
