data_PCOD8275315
_publ_section_title
;
Structure prediction by ZEFSAII (Michael W. Deem and Ramdas Pophale) SiO2 
 PCOD8275315
Probable space group: C C C M
;
_chemical_formula_sum "Si O2"
_cell_formula_units_Z 96
_cell_length_a 24.599812
_cell_length_b 16.133819
_cell_length_c 14.603842
_cell_angle_alpha 90.000000
_cell_angle_beta 90.000000
_cell_angle_gamma 90.000000
_cell_volume 5796.102995
_symmetry_space_group_name_H-M "C C C M"
_symmetry_group_IT_number 66
_symmetry_cell_setting 'orthorhombic'
loop_
_space_group_symop_operation_xyz
x,y,z
-x,-y,z
x,-y,1/2-z
-x,y,1/2-z
-x,-y,-z
x,y,-z
-x,y,1/2+z
x,-y,1/2+z
1/2+x,1/2+y,z
1/2-x,1/2-y,z
1/2+x,1/2-y,1/2-z
1/2-x,1/2+y,1/2-z
1/2-x,1/2-y,-z
1/2+x,1/2+y,-z
1/2-x,1/2+y,1/2+z
1/2+x,1/2-y,1/2+z
loop_
_atom_site_type_symbol
_atom_site_label
_atom_site_fract_x
_atom_site_fract_y
_atom_site_fract_z
Si Si1 0.543262 0.335318 0.605446
Si Si2 0.801434 0.070611 0.677615
Si Si3 0.907533 0.999796 0.897250
Si Si4 0.919101 0.181676 0.105968
Si Si5 0.863798 0.767970 0.775344
Si Si6 0.289239 0.827952 0.601124
O O1 0.562596 0.332778 0.500000
O O2 0.549316 0.431486 0.640052
O O3 0.482894 0.299928 0.616394
O O4 0.582659 0.278184 0.663555
O O5 0.847081 0.037598 0.607950
O O6 0.823017 0.154223 0.725067
O O7 0.745704 0.090135 0.624202
O O8 0.787765 0.000000 0.750000
O O9 0.910160 0.089547 0.848759
O O10 0.923853 0.022042 0.000000
O O11 0.883979 0.244467 0.169698
O O12 0.900074 0.191025 0.000000
O O13 0.833601 0.687689 0.818273
O O14 0.316325 0.840125 0.500000
O O15 0.250000 0.750000 0.595307
#
# Coordination Sequence:
#
# PCOD8275315 Si02
#       6
#    16  16  16  16  16  16
#     4   9  17  26  40  61  88 120 156 189 219 261
#     4  10  17  28  44  65  86 112 154 194 237 270
#     4   9  16  26  39  58  88 120 153 187 221 260
#     4  10  18  27  39  60  90 125 155 181 218 269
#     4  10  18  29  43  61  89 122 155 192 227 269
#     4   9  18  31  48  65  84 114 155 200 241 273
#
# _framework density 16.562853
#
# number of rings (size 3 to 8) (size 9 to 14) (size 15 to 20)
#    0.000    2.500    1.667    2.000    0.000    6.000 
#    0.000    1.667    0.000    6.500    0.000    0.000 
#    0.000    2.667    0.000   10.000    0.000    0.500 
#
# Total GULP energy -594712.410467 kJ/mol
# GULP energy per Si atom -12389.841885 kJ/mol
# Density = 1.652515 g / cm^3
# Si number density = 16.562853 Si / 1000 Ang^3
#
#
#
# Elastic Constant Matrix: (Units=GPa)
#
#
# Indices 1 2 3 4 5 6 
#
# 1 64.0761 19.2657 40.7536 0.0000 0.0000 0.0000
# 2 19.2657 22.2255 15.4671 0.0000 0.0000 0.0000
# 3 40.7536 15.4671 94.8996 0.0000 0.0000 0.0000
# 4 0.0000 0.0000 0.0000 16.0469 0.0000 0.0000
# 5 0.0000 0.0000 0.0000 0.0000 29.7292 0.0000
# 6 0.0000 0.0000 0.0000 0.0000 0.0000 20.9599
#
#
#
# Elastic Compliance Matrix: (Units=1/GPa)
#
#
# Indices 1 2 3 4 5 6 
#
# 1 0.025982 -0.016645 -0.008445 0.000000 0.000000 0.000000
# 2 -0.016645 0.061413 -0.002861 0.000000 0.000000 0.000000
# 3 -0.008445 -0.002861 0.014630 0.000000 0.000000 0.000000
# 4 0.000000 0.000000 0.000000 0.062317 0.000000 0.000000
# 5 0.000000 0.000000 0.000000 0.000000 0.033637 0.000000
# 6 0.000000 0.000000 0.000000 0.000000 0.000000 0.047710
#
#
# Mechanical properties :
#
#
# Convention : Reuss Voigt Hill
#
# Bulk Modulus (GPa) = 21.68113 36.90822 29.29467
# Shear Modulus (GPa) = 15.77450 20.39485 18.08467
#
# Velocity S-wave (km/s) = 3.08945 3.51288 3.30795
# Velocity P-wave (km/s) = 5.08379 6.22783 5.68466
#
# Compressibility (1/GPa) = 0.04612306
#
# Stress axis : x y z
#
# Youngs Moduli (GPa) = 38.48790 16.28315 68.35103
#
# Poissons Ratio (x) = 0.27104 0.57722
# Poissons Ratio (y) = 0.64064 0.19557
# Poissons Ratio (z) = 0.32503 0.04659
#
# Static dielectric constant tensor:
#      x y z
#    x 3.087540 0.000000 0.000000 
#    y 0.000000 2.719940 0.000000 
#    z 0.000000 0.000000 3.286210 
# 
# 
# High freq. dielectric constant tensor:
#      x y z
#    x 1.624750 0.000000 0.000000 
#    y 0.000000 1.570270 0.000000 
#    z 0.000000 0.000000 1.645880 
# 
# From -- ./inp_files/28972.got.cif
#   From: 2010.03.12/outbox.cif.g09.slc.cpg/sg66_15_cif.got.tgz:28972.got - 2010.04.10 21:57:39.
