data_PCOD8275892
_publ_section_title
;
Structure prediction by ZEFSAII (Michael W. Deem and Ramdas Pophale) SiO2 
 PCOD8275892
Probable space group: C C C M
;
_chemical_formula_sum "Si O2"
_cell_formula_units_Z 80
_cell_length_a 8.836542
_cell_length_b 29.230425
_cell_length_c 16.462812
_cell_angle_alpha 90.000000
_cell_angle_beta 90.000000
_cell_angle_gamma 90.000000
_cell_volume 4252.276483
_symmetry_space_group_name_H-M "C C C M"
_symmetry_group_IT_number 66
_symmetry_cell_setting 'orthorhombic'
loop_
_space_group_symop_operation_xyz
x,y,z
-x,-y,z
x,-y,1/2-z
-x,y,1/2-z
-x,-y,-z
x,y,-z
-x,y,1/2+z
x,-y,1/2+z
1/2+x,1/2+y,z
1/2-x,1/2-y,z
1/2+x,1/2-y,1/2-z
1/2-x,1/2+y,1/2-z
1/2-x,1/2-y,-z
1/2+x,1/2+y,-z
1/2-x,1/2+y,1/2+z
1/2+x,1/2-y,1/2+z
loop_
_atom_site_type_symbol
_atom_site_label
_atom_site_fract_x
_atom_site_fract_y
_atom_site_fract_z
Si Si1 0.323718 0.701097 0.590736
Si Si2 0.833676 0.205086 0.096384
Si Si3 0.114387 0.368086 0.824832
Si Si4 0.173297 0.612608 0.907625
Si Si5 0.322132 0.049401 0.263815
O O1 0.324940 0.678812 0.500000
O O2 0.250000 0.750000 0.584608
O O3 0.493007 0.705248 0.625568
O O4 0.226632 0.672616 0.654743
O O5 0.750000 0.250000 0.133458
O O6 0.755925 0.158195 0.126494
O O7 0.822432 0.207652 0.000000
O O8 0.222234 0.411689 0.802313
O O9 0.000000 0.356518 0.750000
O O10 0.007579 0.378975 0.902100
O O11 0.219081 0.568487 0.853454
O O12 0.219225 0.601819 0.000000
O O13 0.500000 0.042947 0.250000
O O14 0.241115 0.000000 0.250000
#
# Coordination Sequence:
#
# PCOD8275892 Si02
#       5
#    16  16  16  16  16
#     4  10  19  32  52  75 102 135 170 206 244 291
#     4   9  17  29  48  75 104 132 164 206 249 288
#     4   9  18  32  48  71 102 134 163 204 253 299
#     4   9  16  29  51  74  96 127 169 207 243 293
#     4   8  16  32  49  69 100 128 155 204 260 299
#
# _framework density 18.813452000000002
#
# number of rings (size 3 to 8) (size 9 to 14) (size 15 to 20)
#    0.000    3.400    0.000    1.800    0.000    3.200 
#    0.000   21.000    0.000    2.400    0.000    4.200 
#    0.000    0.000    0.000    0.000    0.000    0.200 
#
# Total GULP energy -495546.984171 kJ/mol
# GULP energy per Si atom -12388.674604 kJ/mol
# Density = 1.877063 g / cm^3
# Si number density = 18.813452 Si / 1000 Ang^3
#
#
#
# Elastic Constant Matrix: (Units=GPa)
#
#
# Indices 1 2 3 4 5 6 
#
# 1 80.1707 51.0230 29.2970 0.0000 0.0000 0.0000
# 2 51.0230 152.6385 61.8668 0.0000 0.0000 0.0000
# 3 29.2970 61.8668 63.7594 0.0000 0.0000 0.0000
# 4 0.0000 0.0000 0.0000 26.1581 0.0000 0.0000
# 5 0.0000 0.0000 0.0000 0.0000 18.3815 0.0000
# 6 0.0000 0.0000 0.0000 0.0000 0.0000 15.5948
#
#
#
# Elastic Compliance Matrix: (Units=1/GPa)
#
#
# Indices 1 2 3 4 5 6 
#
# 1 0.016341 -0.003987 -0.003640 0.000000 0.000000 0.000000
# 2 -0.003987 0.011771 -0.009590 0.000000 0.000000 0.000000
# 3 -0.003640 -0.009590 0.026661 0.000000 0.000000 0.000000
# 4 0.000000 0.000000 0.000000 0.038229 0.000000 0.000000
# 5 0.000000 0.000000 0.000000 0.000000 0.054403 0.000000
# 6 0.000000 0.000000 0.000000 0.000000 0.000000 0.064124
#
#
# Mechanical properties :
#
#
# Convention : Reuss Voigt Hill
#
# Bulk Modulus (GPa) = 49.16327 64.54913 56.85620
# Shear Modulus (GPa) = 19.78303 22.31901 21.05102
#
# Velocity S-wave (km/s) = 3.24626 3.44805 3.34868
# Velocity P-wave (km/s) = 6.34347 7.08778 6.72593
#
# Compressibility (1/GPa) = 0.02034039
#
# Stress axis : x y z
#
# Youngs Moduli (GPa) = 61.19574 84.95442 37.50746
#
# Poissons Ratio (x) = 0.33872 0.13652
# Poissons Ratio (y) = 0.24399 0.35968
# Poissons Ratio (z) = 0.22274 0.81468
#
# Static dielectric constant tensor:
#      x y z
#    x 3.277320 0.000000 0.000000 
#    y 0.000000 4.032800 0.000000 
#    z 0.000000 0.000000 3.351360 
# 
# 
# High freq. dielectric constant tensor:
#      x y z
#    x 1.701580 0.000000 0.000000 
#    y 0.000000 1.729110 0.000000 
#    z 0.000000 0.000000 1.715370 
# 
# From -- ./inp_files/37142.got.cif
#   From: 2010.03.12/outbox.cif.g09.slc.cpg/sg66_19_cif.got.tgz:37142.got - 2010.04.10 21:57:39.
