data_PCOD8275559
_publ_section_title
;
Structure prediction by ZEFSAII (Michael W. Deem and Ramdas Pophale) SiO2 
 PCOD8275559
Probable space group: C C C M
;
_chemical_formula_sum "Si O2"
_cell_formula_units_Z 104
_cell_length_a 21.357533
_cell_length_b 18.694047
_cell_length_c 13.680472
_cell_angle_alpha 90.000000
_cell_angle_beta 90.000000
_cell_angle_gamma 90.000000
_cell_volume 5462.047818
_symmetry_space_group_name_H-M "C C C M"
_symmetry_group_IT_number 66
_symmetry_cell_setting 'orthorhombic'
loop_
_space_group_symop_operation_xyz
x,y,z
-x,-y,z
x,-y,1/2-z
-x,y,1/2-z
-x,-y,-z
x,y,-z
-x,y,1/2+z
x,-y,1/2+z
1/2+x,1/2+y,z
1/2-x,1/2-y,z
1/2+x,1/2-y,1/2-z
1/2-x,1/2+y,1/2-z
1/2-x,1/2-y,-z
1/2+x,1/2+y,-z
1/2-x,1/2+y,1/2+z
1/2+x,1/2-y,1/2+z
loop_
_atom_site_type_symbol
_atom_site_label
_atom_site_fract_x
_atom_site_fract_y
_atom_site_fract_z
Si Si1 0.188652 0.459233 0.391257
Si Si2 0.707641 0.653495 0.892928
Si Si3 0.500000 0.681428 0.750000
Si Si4 0.957160 0.934708 0.392800
Si Si5 0.401909 0.759677 0.383746
Si Si6 0.172742 0.002460 0.636359
Si Si7 0.332041 0.887829 0.303479
O O1 0.164135 0.439470 0.500000
O O2 0.263979 0.455586 0.390737
O O3 0.167053 0.539099 0.364723
O O4 0.160208 0.403655 0.312459
O O5 0.658001 0.711669 0.857158
O O6 0.673065 0.577852 0.903532
O O7 0.765375 0.651545 0.818141
O O8 0.734198 0.674601 0.000000
O O9 0.542784 0.631040 0.682215
O O10 0.460265 0.730668 0.677332
O O11 0.983020 0.911197 0.500000
O O12 0.885769 0.957611 0.409624
O O13 0.000000 0.000000 0.352603
O O14 0.416365 0.759883 0.500000
O O15 0.388355 0.839461 0.343894
O O16 0.163791 0.000000 0.750000
#
# Coordination Sequence:
#
# PCOD8275559 Si02
#       7
#    16  16   8  16  16  16  16
#     4  10  19  33  56  87 115 139 174 225 294 356
#     4  10  18  31  53  83 112 143 188 233 279 331
#     4  12  25  38  54  77 112 156 198 236 278 325
#     4  11  22  35  52  77 111 154 202 239 272 319
#     4  11  23  39  58  79 110 151 195 237 277 332
#     4  11  17  30  51  78 112 149 181 227 278 329
#     4  10  19  35  58  86 114 145 183 233 290 341
#
# _framework density 19.040478
#
# number of rings (size 3 to 8) (size 9 to 14) (size 15 to 20)
#    0.000    1.385    3.077    7.615    0.000    3.692 
#    0.000    1.538    0.000    3.692    0.000    5.385 
#    0.000    0.000    0.000    0.000    0.000    0.000 
#
# Total GULP energy -644680.956307 kJ/mol
# GULP energy per Si atom -12397.710698 kJ/mol
# Density = 1.899714 g / cm^3
# Si number density = 19.040478 Si / 1000 Ang^3
#
#
#
# Elastic Constant Matrix: (Units=GPa)
#
#
# Indices 1 2 3 4 5 6 
#
# 1 54.8054 54.7147 39.9741 0.0000 0.0000 0.0000
# 2 54.7147 81.7418 44.3850 0.0000 0.0000 0.0000
# 3 39.9741 44.3850 154.8299 0.0000 0.0000 0.0000
# 4 0.0000 0.0000 0.0000 11.8444 0.0000 0.0000
# 5 0.0000 0.0000 0.0000 0.0000 22.2380 0.0000
# 6 0.0000 0.0000 0.0000 0.0000 0.0000 24.6261
#
#
#
# Elastic Compliance Matrix: (Units=1/GPa)
#
#
# Indices 1 2 3 4 5 6 
#
# 1 0.057552 -0.036069 -0.004519 0.000000 0.000000 0.000000
# 2 -0.036069 0.037095 -0.001321 0.000000 0.000000 0.000000
# 3 -0.004519 -0.001321 0.008004 0.000000 0.000000 0.000000
# 4 0.000000 0.000000 0.000000 0.084428 0.000000 0.000000
# 5 0.000000 0.000000 0.000000 0.000000 0.044968 0.000000
# 6 0.000000 0.000000 0.000000 0.000000 0.000000 0.040607
#
#
# Mechanical properties :
#
#
# Convention : Reuss Voigt Hill
#
# Bulk Modulus (GPa) = 53.10255 63.28051 58.19153
# Shear Modulus (GPa) = 13.78357 21.89526 17.83941
#
# Velocity S-wave (km/s) = 2.69347 3.39474 3.06424
# Velocity P-wave (km/s) = 6.13375 6.97657 6.56869
#
# Compressibility (1/GPa) = 0.01883149
#
# Stress axis : x y z
#
# Youngs Moduli (GPa) = 17.37555 26.95809 124.93431
#
# Poissons Ratio (x) = 0.97236 0.56456
# Poissons Ratio (y) = 0.62673 0.16510
# Poissons Ratio (z) = 0.07852 0.03562
#
# Static dielectric constant tensor:
#      x y z
#    x 3.348980 0.000000 0.000000 
#    y 0.000000 3.276500 0.000000 
#    z 0.000000 0.000000 3.718810 
# 
# 
# High freq. dielectric constant tensor:
#      x y z
#    x 1.706370 0.000000 0.000000 
#    y 0.000000 1.721910 0.000000 
#    z 0.000000 0.000000 1.759390 
# 
# From -- ./inp_files/31370.got.cif
#   From: 2010.03.12/outbox.cif.g09.slc.cpg/sg66_16_cif.got.tgz:31370.got - 2010.04.10 21:57:39.
