data_PCOD8275796
_publ_section_title
;
Structure prediction by ZEFSAII (Michael W. Deem and Ramdas Pophale) SiO2 
 PCOD8275796
Probable space group: C C C M
;
_chemical_formula_sum "Si O2"
_cell_formula_units_Z 96
_cell_length_a 31.726787
_cell_length_b 20.651782
_cell_length_c 9.010101
_cell_angle_alpha 90.000000
_cell_angle_beta 90.000000
_cell_angle_gamma 90.000000
_cell_volume 5903.550522
_symmetry_space_group_name_H-M "C C C M"
_symmetry_group_IT_number 66
_symmetry_cell_setting 'orthorhombic'
loop_
_space_group_symop_operation_xyz
x,y,z
-x,-y,z
x,-y,1/2-z
-x,y,1/2-z
-x,-y,-z
x,y,-z
-x,y,1/2+z
x,-y,1/2+z
1/2+x,1/2+y,z
1/2-x,1/2-y,z
1/2+x,1/2-y,1/2-z
1/2-x,1/2+y,1/2-z
1/2-x,1/2-y,-z
1/2+x,1/2+y,-z
1/2-x,1/2+y,1/2+z
1/2+x,1/2-y,1/2+z
loop_
_atom_site_type_symbol
_atom_site_label
_atom_site_fract_x
_atom_site_fract_y
_atom_site_fract_z
Si Si1 0.121124 0.078418 0.335465
Si Si2 0.374954 0.730104 0.834894
Si Si3 0.289900 0.292407 0.825103
Si Si4 0.459009 0.417701 0.166759
Si Si5 0.957729 0.236527 0.332696
Si Si6 0.705086 0.437919 0.673431
O O1 0.129434 0.049039 0.500000
O O2 0.117162 0.154691 0.349627
O O3 0.078514 0.051995 0.263539
O O4 0.156409 0.057166 0.218788
O O5 0.330697 0.740288 0.749950
O O6 0.414945 0.761623 0.748873
O O7 0.372009 0.761065 0.000000
O O8 0.250000 0.250000 0.778557
O O9 0.279730 0.366480 0.772514
O O10 0.298512 0.292151 0.000000
O O11 0.500000 0.443221 0.250000
O O12 0.457574 0.340455 0.162941
O O13 0.457400 0.445143 0.000000
O O14 0.957883 0.264492 0.500000
O O15 0.000000 0.261863 0.250000
O O16 0.728818 0.500000 0.750000
O O17 0.711501 0.445837 0.500000
#
# Coordination Sequence:
#
# PCOD8275796 Si02
#       6
#    16  16  16  16  16  16
#     4   9  16  26  39  55  75  99 129 166 207 249
#     4   9  16  25  38  57  80 105 135 172 213 255
#     4   9  18  32  48  65  86 113 144 177 214 256
#     4   9  15  22  33  50  71  96 127 164 207 251
#     4   9  15  22  33  50  74 103 135 171 210 252
#     4  10  19  31  47  65  84 106 134 169 208 250
#
# _framework density 16.261399999999998
#
# number of rings (size 3 to 8) (size 9 to 14) (size 15 to 20)
#    0.000    2.833    0.000    2.500    0.000    9.000 
#    0.000    0.000    0.000    0.500    0.000    3.500 
#    0.000    0.000    0.000    0.000    0.000    0.833 
#
# Total GULP energy -594791.052496 kJ/mol
# GULP energy per Si atom -12391.480260 kJ/mol
# Density = 1.622439 g / cm^3
# Si number density = 16.261400 Si / 1000 Ang^3
#
#
#
# Elastic Constant Matrix: (Units=GPa)
#
#
# Indices 1 2 3 4 5 6 
#
# 1 110.5326 34.8049 48.3850 0.0000 0.0000 0.0000
# 2 34.8049 40.6545 15.2571 0.0000 0.0000 0.0000
# 3 48.3850 15.2571 95.6823 0.0000 0.0000 0.0000
# 4 0.0000 0.0000 0.0000 11.3082 0.0000 0.0000
# 5 0.0000 0.0000 0.0000 0.0000 22.6668 0.0000
# 6 0.0000 0.0000 0.0000 0.0000 0.0000 -30.2522
#
#
#
# Elastic Compliance Matrix: (Units=1/GPa)
#
#
# Indices 1 2 3 4 5 6 
#
# 1 0.014955 -0.010600 -0.005873 0.000000 0.000000 0.000000
# 2 -0.010600 0.033676 -0.000010 0.000000 0.000000 0.000000
# 3 -0.005873 -0.000010 0.013422 0.000000 0.000000 0.000000
# 4 0.000000 0.000000 0.000000 0.088431 0.000000 0.000000
# 5 0.000000 0.000000 0.000000 0.000000 0.044117 0.000000
# 6 0.000000 0.000000 0.000000 0.000000 0.000000 -0.033055
#
#
# Mechanical properties :
#
#
# Convention : Reuss Voigt Hill
#
# Bulk Modulus (GPa) = 34.37640 49.30704 41.84172
# Shear Modulus (GPa) = 24.48494 10.63938 17.56216
#
# Velocity S-wave (km/s) = 3.88456 2.56065 3.28989
# Velocity P-wave (km/s) = 6.42693 6.25539 6.34174
#
# Compressibility (1/GPa) = 0.02908973
#
# Stress axis : x y z
#
# Youngs Moduli (GPa) = 66.86532 29.69502 74.50209
#
# Poissons Ratio (x) = 0.31476 0.43752
# Poissons Ratio (y) = 0.70875 0.00072
# Poissons Ratio (z) = 0.39267 0.00029
#
# Static dielectric constant tensor:
#      x y z
#    x 3.008950 0.000000 0.000000 
#    y 0.000000 2.756570 0.000000 
#    z 0.000000 0.000000 3.338900 
# 
# 
# High freq. dielectric constant tensor:
#      x y z
#    x 1.608000 0.000000 0.000000 
#    y 0.000000 1.558530 0.000000 
#    z 0.000000 0.000000 1.644740 
# 
# From -- ./inp_files/10490.got.cif
#   From: 2010.03.12/outbox.cif.g09.slc.cpg/sg66_6_cif.got.tgz:10490.got - 2010.04.10 21:57:39.
