data_PCOD8275756
_publ_section_title
;
Structure prediction by ZEFSAII (Michael W. Deem and Ramdas Pophale) SiO2 
 PCOD8275756
Probable space group: C C C M
;
_chemical_formula_sum "Si O2"
_cell_formula_units_Z 104
_cell_length_a 17.652467
_cell_length_b 21.792488
_cell_length_c 13.786806
_cell_angle_alpha 90.000000
_cell_angle_beta 90.000000
_cell_angle_gamma 90.000000
_cell_volume 5303.662603
_symmetry_space_group_name_H-M "C C C M"
_symmetry_group_IT_number 66
_symmetry_cell_setting 'orthorhombic'
loop_
_space_group_symop_operation_xyz
x,y,z
-x,-y,z
x,-y,1/2-z
-x,y,1/2-z
-x,-y,-z
x,y,-z
-x,y,1/2+z
x,-y,1/2+z
1/2+x,1/2+y,z
1/2-x,1/2-y,z
1/2+x,1/2-y,1/2-z
1/2-x,1/2+y,1/2-z
1/2-x,1/2-y,-z
1/2+x,1/2+y,-z
1/2-x,1/2+y,1/2+z
1/2+x,1/2-y,1/2+z
loop_
_atom_site_type_symbol
_atom_site_label
_atom_site_fract_x
_atom_site_fract_y
_atom_site_fract_z
Si Si1 0.705632 0.689311 0.895822
Si Si2 0.762274 0.000000 0.250000
Si Si3 0.510420 0.068411 0.386178
Si Si4 0.620497 0.155190 0.113884
Si Si5 0.665780 0.723202 0.300463
Si Si6 0.713688 0.396102 0.112022
Si Si7 0.820852 0.415228 0.612523
O O1 0.750000 0.750000 0.919842
O O2 0.644765 0.700195 0.809511
O O3 0.768434 0.641545 0.857145
O O4 0.668297 0.668188 0.000000
O O5 0.811506 0.948875 0.309685
O O6 0.708220 0.974550 0.167001
O O7 0.497252 0.065224 0.500000
O O8 0.446072 0.112776 0.342025
O O9 0.591926 0.097323 0.359427
O O10 0.500000 0.000000 0.342601
O O11 0.611708 0.222160 0.163958
O O12 0.699328 0.121059 0.136398
O O13 0.612007 0.166842 0.000000
O O14 0.750000 0.750000 0.298690
O O15 0.661743 0.664361 0.371714
O O16 0.703522 0.417565 0.000000
O O17 0.814372 0.430836 0.500000
#
# Coordination Sequence:
#
# PCOD8275756 Si02
#       7
#    16   8  16  16  16  16  16
#     4   9  17  31  50  67  86 119 164 212 258 298
#     4  12  20  30  45  66  94 136 173 204 244 304
#     4   9  17  31  48  69 101 137 168 201 244 298
#     4   9  17  30  50  71  92 124 165 210 261 308
#     4   9  16  29  49  68  89 113 162 215 263 308
#     4  10  19  30  44  65  92 123 163 213 261 303
#     4  10  20  33  49  68  94 131 173 212 249 298
#
# _framework density 19.609090999999999
#
# number of rings (size 3 to 8) (size 9 to 14) (size 15 to 20)
#    0.000    2.462    1.538    1.846    0.000    4.308 
#    0.000    3.462    0.000    0.000    0.000    0.000 
#    0.000    0.615    0.000    2.769    0.308   31.077 
#
# Total GULP energy -644302.755149 kJ/mol
# GULP energy per Si atom -12390.437599 kJ/mol
# Density = 1.956446 g / cm^3
# Si number density = 19.609091 Si / 1000 Ang^3
#
#
#
# Elastic Constant Matrix: (Units=GPa)
#
#
# Indices 1 2 3 4 5 6 
#
# 1 27.7695 39.6587 9.2885 0.0000 0.0000 0.0000
# 2 39.6587 140.8912 45.7104 0.0000 0.0000 0.0000
# 3 9.2885 45.7104 97.8171 0.0000 0.0000 0.0000
# 4 0.0000 0.0000 0.0000 35.1347 0.0000 0.0000
# 5 0.0000 0.0000 0.0000 0.0000 4.2506 0.0000
# 6 0.0000 0.0000 0.0000 0.0000 0.0000 30.2621
#
#
#
# Elastic Compliance Matrix: (Units=1/GPa)
#
#
# Indices 1 2 3 4 5 6 
#
# 1 0.060783 -0.017960 0.002621 0.000000 0.000000 0.000000
# 2 -0.017960 0.013673 -0.004684 0.000000 0.000000 0.000000
# 3 0.002621 -0.004684 0.012163 0.000000 0.000000 0.000000
# 4 0.000000 0.000000 0.000000 0.028462 0.000000 0.000000
# 5 0.000000 0.000000 0.000000 0.000000 0.235263 0.000000
# 6 0.000000 0.000000 0.000000 0.000000 0.000000 0.033045
#
#
# Mechanical properties :
#
#
# Convention : Reuss Voigt Hill
#
# Bulk Modulus (GPa) = 21.47155 50.64369 36.05762
# Shear Modulus (GPa) = 11.39058 25.38415 18.38737
#
# Velocity S-wave (km/s) = 2.41277 3.60183 3.06550
# Velocity P-wave (km/s) = 4.32845 6.57117 5.56398
#
# Compressibility (1/GPa) = 0.04657326
#
# Stress axis : x y z
#
# Youngs Moduli (GPa) = 16.45193 73.13831 82.21591
#
# Poissons Ratio (x) = 1.31355 -0.21548
# Poissons Ratio (y) = 0.29547 0.38509
# Poissons Ratio (z) = -0.04312 0.34257
#
# Static dielectric constant tensor:
#      x y z
#    x 2.962820 0.000000 0.000000 
#    y 0.000000 3.688940 0.000000 
#    z 0.000000 0.000000 3.958570 
# 
# 
# High freq. dielectric constant tensor:
#      x y z
#    x 1.669780 0.000000 0.000000 
#    y 0.000000 1.771970 0.000000 
#    z 0.000000 0.000000 1.796380 
# 
# From -- ./inp_files/31393.got.cif
#   From: 2010.03.12/outbox.cif.g09.slc.cpg/sg66_16_cif.got.tgz:31393.got - 2010.04.10 21:57:39.
