data_PCOD8275026
_publ_section_title
;
Structure prediction by ZEFSAII (Michael W. Deem and Ramdas Pophale) SiO2 
 PCOD8275026
Probable space group: C M M M
;
_chemical_formula_sum "Si O2"
_cell_formula_units_Z 104
_cell_length_a 34.979662
_cell_length_b 9.853215
_cell_length_c 18.478175
_cell_angle_alpha 90.000000
_cell_angle_beta 90.000000
_cell_angle_gamma 90.000000
_cell_volume 6368.727160
_symmetry_space_group_name_H-M "C M M M"
_symmetry_group_IT_number 65
_symmetry_cell_setting 'orthorhombic'
loop_
_space_group_symop_operation_xyz
x,y,z
-x,-y,z
x,-y,-z
-x,y,-z
-x,-y,-z
x,y,-z
-x,y,z
x,-y,z
1/2+x,1/2+y,z
1/2-x,1/2-y,z
1/2+x,1/2-y,-z
1/2-x,1/2+y,-z
1/2-x,1/2-y,-z
1/2+x,1/2+y,-z
1/2-x,1/2+y,z
1/2+x,1/2-y,z
loop_
_atom_site_type_symbol
_atom_site_label
_atom_site_fract_x
_atom_site_fract_y
_atom_site_fract_z
Si Si1 0.366333 0.850329 0.713724
Si Si2 0.685272 0.839116 0.921558
Si Si3 0.500000 0.338570 0.417939
Si Si4 0.956668 0.846492 0.161897
Si Si5 0.070950 0.154959 0.674583
Si Si6 0.104871 0.650453 0.875955
Si Si7 0.715427 0.839659 0.229823
O O1 0.390213 0.743173 0.665559
O O2 0.384740 0.857893 0.792173
O O3 0.321892 0.807025 0.721789
O O4 0.368783 0.000000 0.677616
O O5 0.641374 0.788202 0.918201
O O6 0.709395 0.785871 0.853160
O O7 0.683745 0.000000 0.914078
O O8 0.702625 0.793775 0.000000
O O9 0.500000 0.500000 0.412678
O O10 0.500000 0.285400 0.500000
O O11 0.538483 0.285302 0.378950
O O12 0.945754 0.834764 0.245469
O O13 0.930700 0.750440 0.111787
O O14 0.000000 0.798147 0.152114
O O15 0.951081 0.000000 0.134852
O O16 0.081518 0.000000 0.654933
O O17 0.093901 0.500000 0.904343
O O18 0.750000 0.750000 0.262053
O O19 0.725105 0.000000 0.232135
#
# Coordination Sequence:
#
# PCOD8275026 Si02
#       7
#    16  16   8  16  16  16  16
#     4   8  15  27  40  56  80 108 134 167 209 244
#     4   8  14  26  42  56  73 101 132 161 198 244
#     4   9  16  26  41  63  93 123 146 171 200 228
#     4   9  15  23  36  54  76  98 123 161 205 241
#     4   9  15  25  41  60  81 109 145 172 192 231
#     4   8  14  24  38  55  71  91 126 166 200 238
#     4   9  17  28  42  61  85 108 132 165 208 254
#
# _framework density 16.329792999999999
#
# number of rings (size 3 to 8) (size 9 to 14) (size 15 to 20)
#    0.000    3.462    0.769    1.846    0.000    1.231 
#    0.000    2.692    0.000    2.769    0.000    3.231 
#    0.000    0.615    0.000    1.385    0.000    2.154 
#
# Total GULP energy -644304.871496 kJ/mol
# GULP energy per Si atom -12390.478298 kJ/mol
# Density = 1.629263 g / cm^3
# Si number density = 16.329793 Si / 1000 Ang^3
#
#
#
# Elastic Constant Matrix: (Units=GPa)
#
#
# Indices 1 2 3 4 5 6 
#
# 1 126.5703 61.4445 18.6303 0.0000 0.0000 0.0000
# 2 61.4445 64.4231 13.1682 0.0000 0.0000 0.0000
# 3 18.6303 13.1682 30.8282 0.0000 0.0000 0.0000
# 4 0.0000 0.0000 0.0000 8.6461 0.0000 0.0000
# 5 0.0000 0.0000 0.0000 0.0000 9.2299 0.0000
# 6 0.0000 0.0000 0.0000 0.0000 0.0000 31.3945
#
#
#
# Elastic Compliance Matrix: (Units=1/GPa)
#
#
# Indices 1 2 3 4 5 6 
#
# 1 0.015002 -0.013647 -0.003237 0.000000 0.000000 0.000000
# 2 -0.013647 0.029421 -0.004320 0.000000 0.000000 0.000000
# 3 -0.003237 -0.004320 0.036239 0.000000 0.000000 0.000000
# 4 0.000000 0.000000 0.000000 0.115659 0.000000 0.000000
# 5 0.000000 0.000000 0.000000 0.000000 0.108343 0.000000
# 6 0.000000 0.000000 0.000000 0.000000 0.000000 0.031853
#
#
# Mechanical properties :
#
#
# Convention : Reuss Voigt Hill
#
# Bulk Modulus (GPa) = 26.14044 45.36753 35.75398
# Shear Modulus (GPa) = 12.76559 18.42601 15.59580
#
# Velocity S-wave (km/s) = 2.79899 3.36276 3.09374
# Velocity P-wave (km/s) = 5.14668 6.55133 5.89102
#
# Compressibility (1/GPa) = 0.03825490
#
# Stress axis : x y z
#
# Youngs Moduli (GPa) = 66.65682 33.98889 27.59435
#
# Poissons Ratio (x) = 0.46384 0.08932
# Poissons Ratio (y) = 0.90966 0.11921
# Poissons Ratio (z) = 0.21577 0.14684
#
# Static dielectric constant tensor:
#      x y z
#    x 3.165230 0.000000 0.000000 
#    y 0.000000 3.122610 0.000000 
#    z 0.000000 0.000000 2.745390 
# 
# 
# High freq. dielectric constant tensor:
#      x y z
#    x 1.629630 0.000000 0.000000 
#    y 0.000000 1.607710 0.000000 
#    z 0.000000 0.000000 1.575260 
# 
# From -- ./inp_files/58221.got.cif
#   From: 2010.03.12/outbox.cif.g09.slc.cpg/sg65_30_cif.got.tgz:58221.got - 2010.04.10 20:52:16.
