data_PCOD8275432
_publ_section_title
;
Structure prediction by ZEFSAII (Michael W. Deem and Ramdas Pophale) SiO2 
 PCOD8275432
Probable space group: C C C M
;
_chemical_formula_sum "Si O2"
_cell_formula_units_Z 80
_cell_length_a 18.746003
_cell_length_b 27.214560
_cell_length_c 8.894954
_cell_angle_alpha 90.000000
_cell_angle_beta 90.000000
_cell_angle_gamma 90.000000
_cell_volume 4537.887300
_symmetry_space_group_name_H-M "C C C M"
_symmetry_group_IT_number 66
_symmetry_cell_setting 'orthorhombic'
loop_
_space_group_symop_operation_xyz
x,y,z
-x,-y,z
x,-y,1/2-z
-x,y,1/2-z
-x,-y,-z
x,y,-z
-x,y,1/2+z
x,-y,1/2+z
1/2+x,1/2+y,z
1/2-x,1/2-y,z
1/2+x,1/2-y,1/2-z
1/2-x,1/2+y,1/2-z
1/2-x,1/2-y,-z
1/2+x,1/2+y,-z
1/2-x,1/2+y,1/2+z
1/2+x,1/2-y,1/2+z
loop_
_atom_site_type_symbol
_atom_site_label
_atom_site_fract_x
_atom_site_fract_y
_atom_site_fract_z
Si Si1 0.426163 0.848507 0.822766
Si Si2 0.071073 0.946761 0.179573
Si Si3 0.215660 0.100893 0.678253
Si Si4 0.718034 0.199697 0.178997
Si Si5 0.643342 0.050543 0.822810
O O1 0.500000 0.831316 0.750000
O O2 0.363612 0.810912 0.770031
O O3 0.407129 0.904219 0.772562
O O4 0.434450 0.846164 0.000000
O O5 0.137861 0.914616 0.234992
O O6 0.000000 0.922164 0.250000
O O7 0.081107 0.000000 0.250000
O O8 0.065214 0.950265 0.000000
O O9 0.218815 0.101789 0.500000
O O10 0.232424 0.155371 0.739673
O O11 0.276152 0.062594 0.733867
O O12 0.750000 0.250000 0.248424
O O13 0.720696 0.201761 0.000000
O O14 0.615980 0.000000 0.750000
O O15 0.640887 0.043885 0.000000
#
# Coordination Sequence:
#
# PCOD8275432 Si02
#       5
#    16  16  16  16  16
#     4   9  18  31  47  68  93 118 145 180 218 258
#     4  10  18  28  42  61  88 118 147 179 217 260
#     4   8  15  27  43  63  86 112 145 185 220 255
#     4   8  14  28  50  70  86 111 149 185 217 257
#     4   9  17  29  44  64  89 117 150 182 213 252
#
# _framework density 17.629349999999999
#
# number of rings (size 3 to 8) (size 9 to 14) (size 15 to 20)
#    0.000    3.200    0.000    4.200    0.000    1.200 
#    0.000    4.000    0.000    3.000    0.000    0.000 
#    0.000    0.000    0.000    0.000    0.000    0.000 
#
# Total GULP energy -495700.852021 kJ/mol
# GULP energy per Si atom -12392.521301 kJ/mol
# Density = 1.758922 g / cm^3
# Si number density = 17.629350 Si / 1000 Ang^3
#
#
#
# Elastic Constant Matrix: (Units=GPa)
#
#
# Indices 1 2 3 4 5 6 
#
# 1 157.1798 61.9311 27.7871 0.0000 0.0000 0.0000
# 2 61.9311 108.0251 17.2725 0.0000 0.0000 0.0000
# 3 27.7871 17.2725 28.2271 0.0000 0.0000 0.0000
# 4 0.0000 0.0000 0.0000 14.3502 0.0000 0.0000
# 5 0.0000 0.0000 0.0000 0.0000 24.3548 0.0000
# 6 0.0000 0.0000 0.0000 0.0000 0.0000 22.4297
#
#
#
# Elastic Compliance Matrix: (Units=1/GPa)
#
#
# Indices 1 2 3 4 5 6 
#
# 1 0.009165 -0.004225 -0.006437 0.000000 0.000000 0.000000
# 2 -0.004225 0.012209 -0.003312 0.000000 0.000000 0.000000
# 3 -0.006437 -0.003312 0.043790 0.000000 0.000000 0.000000
# 4 0.000000 0.000000 0.000000 0.069686 0.000000 0.000000
# 5 0.000000 0.000000 0.000000 0.000000 0.041060 0.000000
# 6 0.000000 0.000000 0.000000 0.000000 0.000000 0.044584
#
#
# Mechanical properties :
#
#
# Convention : Reuss Voigt Hill
#
# Bulk Modulus (GPa) = 26.86952 56.37927 41.62439
# Shear Modulus (GPa) = 19.16854 24.65636 21.91245
#
# Velocity S-wave (km/s) = 3.30101 3.74384 3.52938
# Velocity P-wave (km/s) = 5.45925 7.12308 6.34593
#
# Compressibility (1/GPa) = 0.03721690
#
# Stress axis : x y z
#
# Youngs Moduli (GPa) = 109.11384 81.90799 22.83644
#
# Poissons Ratio (x) = 0.34606 0.14699
# Poissons Ratio (y) = 0.46101 0.07563
# Poissons Ratio (z) = 0.70232 0.27125
#
# Static dielectric constant tensor:
#      x y z
#    x 3.703330 0.000000 0.000000 
#    y 0.000000 3.443350 0.000000 
#    z 0.000000 0.000000 2.838840 
# 
# 
# High freq. dielectric constant tensor:
#      x y z
#    x 1.690030 0.000000 0.000000 
#    y 0.000000 1.668180 0.000000 
#    z 0.000000 0.000000 1.641940 
# 
# From -- ./inp_files/6705.got.cif
#   From: 2010.03.12/outbox.cif.g09.slc.cpg/sg66_4_cif.got.tgz:6705.got - 2010.04.10 21:57:39.
