data_PCOD8275232
_publ_section_title
;
Structure prediction by ZEFSAII (Michael W. Deem and Ramdas Pophale) SiO2 
 PCOD8275232
Probable space group: C C C M
;
_chemical_formula_sum "Si O2"
_cell_formula_units_Z 80
_cell_length_a 9.115173
_cell_length_b 18.213564
_cell_length_c 27.169499
_cell_angle_alpha 90.000000
_cell_angle_beta 90.000000
_cell_angle_gamma 90.000000
_cell_volume 4510.674432
_symmetry_space_group_name_H-M "C C C M"
_symmetry_group_IT_number 66
_symmetry_cell_setting 'orthorhombic'
loop_
_space_group_symop_operation_xyz
x,y,z
-x,-y,z
x,-y,1/2-z
-x,y,1/2-z
-x,-y,-z
x,y,-z
-x,y,1/2+z
x,-y,1/2+z
1/2+x,1/2+y,z
1/2-x,1/2-y,z
1/2+x,1/2-y,1/2-z
1/2-x,1/2+y,1/2-z
1/2-x,1/2-y,-z
1/2+x,1/2+y,-z
1/2-x,1/2+y,1/2+z
1/2+x,1/2-y,1/2+z
loop_
_atom_site_type_symbol
_atom_site_label
_atom_site_fract_x
_atom_site_fract_y
_atom_site_fract_z
Si Si1 0.412226 0.575875 0.446119
Si Si2 0.841607 0.479806 0.384167
Si Si3 0.412208 0.575876 0.140917
Si Si4 0.645685 0.313940 0.773574
Si Si5 0.845548 0.574035 0.775366
O O1 0.500000 0.500000 0.451376
O O2 0.405903 0.614712 0.500000
O O3 0.246606 0.565626 0.425796
O O4 0.506998 0.618661 0.404631
O O5 0.754454 0.554956 0.372388
O O6 0.864625 0.434158 0.333869
O O7 0.000000 0.500000 0.406404
O O8 0.500000 0.500000 0.154343
O O9 0.411668 0.632167 0.184768
O O10 0.500000 0.278084 0.750000
O O11 0.750000 0.250000 0.794917
O O12 0.733261 0.359751 0.732523
O O13 0.781597 0.500000 0.750000
O O14 0.000000 0.592811 0.750000
#
# Coordination Sequence:
#
# PCOD8275232 Si02
#       5
#    16  16  16  16  16
#     4   8  16  29  45  68  98 128 171 229 274 312
#     4  10  16  26  47  75  98 131 174 215 261 317
#     4   9  18  32  52  71  94 137 185 211 257 332
#     4  12  24  34  49  75 111 141 179 223 268 311
#     4  11  19  32  52  74 105 143 178 217 251 321
#
# _framework density 17.735707000000001
#
# number of rings (size 3 to 8) (size 9 to 14) (size 15 to 20)
#    0.000    2.400    4.000    3.000    0.000    0.400 
#    0.000    0.000    0.000    0.600    0.000    0.000 
#    0.000   32.000    0.000    0.000    0.000    0.800 
#
# Total GULP energy -495595.739080 kJ/mol
# GULP energy per Si atom -12389.893477 kJ/mol
# Density = 1.769534 g / cm^3
# Si number density = 17.735707 Si / 1000 Ang^3
#
#
#
# Elastic Constant Matrix: (Units=GPa)
#
#
# Indices 1 2 3 4 5 6 
#
# 1 141.4164 25.2452 51.8147 0.0000 0.0000 0.0000
# 2 25.2452 47.2049 21.2636 0.0000 0.0000 0.0000
# 3 51.8147 21.2636 118.2433 0.0000 0.0000 0.0000
# 4 0.0000 0.0000 0.0000 0.8195 0.0000 0.0000
# 5 0.0000 0.0000 0.0000 0.0000 16.9028 0.0000
# 6 0.0000 0.0000 0.0000 0.0000 0.0000 21.2532
#
#
#
# Elastic Compliance Matrix: (Units=1/GPa)
#
#
# Indices 1 2 3 4 5 6 
#
# 1 0.008860 -0.003253 -0.003298 0.000000 0.000000 0.000000
# 2 -0.003253 0.024246 -0.002935 0.000000 0.000000 0.000000
# 3 -0.003298 -0.002935 0.010430 0.000000 0.000000 0.000000
# 4 0.000000 0.000000 0.000000 1.220325 0.000000 0.000000
# 5 0.000000 0.000000 0.000000 0.000000 0.059162 0.000000
# 6 0.000000 0.000000 0.000000 0.000000 0.000000 0.047052
#
#
# Mechanical properties :
#
#
# Convention : Reuss Voigt Hill
#
# Bulk Modulus (GPa) = 40.70754 55.94572 48.32663
# Shear Modulus (GPa) = 3.57850 21.69784 12.63817
#
# Velocity S-wave (km/s) = 1.42199 3.50151 2.67232
# Velocity P-wave (km/s) = 5.06934 6.92532 6.06870
#
# Compressibility (1/GPa) = 0.02456548
#
# Stress axis : x y z
#
# Youngs Moduli (GPa) = 112.86328 41.24415 95.87823
#
# Poissons Ratio (x) = 0.13417 0.31617
# Poissons Ratio (y) = 0.36715 0.28137
# Poissons Ratio (z) = 0.37218 0.12104
#
# Static dielectric constant tensor:
#      x y z
#    x 3.595930 0.000000 0.000000 
#    y 0.000000 2.814260 0.000000 
#    z 0.000000 0.000000 3.753630 
# 
# 
# High freq. dielectric constant tensor:
#      x y z
#    x 1.707340 0.000000 0.000000 
#    y 0.000000 1.620400 0.000000 
#    z 0.000000 0.000000 1.680650 
# 
# From -- ./inp_files/68114.got.cif
#   From: 2010.03.12/outbox.cif.g09.slc.cpg/sg66_35_cif.got.tgz:68114.got - 2010.04.10 21:57:39.
