data_PCOD8275331
_publ_section_title
;
Structure prediction by ZEFSAII (Michael W. Deem and Ramdas Pophale) SiO2 
 PCOD8275331
Probable space group: C C C M
;
_chemical_formula_sum "Si O2"
_cell_formula_units_Z 60
_cell_length_a 10.327993
_cell_length_b 20.729106
_cell_length_c 14.373574
_cell_angle_alpha 90.000000
_cell_angle_beta 90.000000
_cell_angle_gamma 90.000000
_cell_volume 3077.239344
_symmetry_space_group_name_H-M "C C C M"
_symmetry_group_IT_number 66
_symmetry_cell_setting 'orthorhombic'
loop_
_space_group_symop_operation_xyz
x,y,z
-x,-y,z
x,-y,1/2-z
-x,y,1/2-z
-x,-y,-z
x,y,-z
-x,y,1/2+z
x,-y,1/2+z
1/2+x,1/2+y,z
1/2-x,1/2-y,z
1/2+x,1/2-y,1/2-z
1/2-x,1/2+y,1/2-z
1/2-x,1/2-y,-z
1/2+x,1/2+y,-z
1/2-x,1/2+y,1/2+z
1/2+x,1/2-y,1/2+z
loop_
_atom_site_type_symbol
_atom_site_label
_atom_site_fract_x
_atom_site_fract_y
_atom_site_fract_z
Si Si1 0.867154 0.842933 0.787635
Si Si2 0.027395 0.274013 0.899903
Si Si3 0.750000 0.250000 0.153778
Si Si4 0.352412 0.092005 0.890042
Si Si5 0.500000 0.000000 0.250000
O O1 0.769841 0.818323 0.708102
O O2 0.795708 0.890757 0.859576
O O3 0.000000 0.876862 0.750000
O O4 0.906385 0.773916 0.829387
O O5 0.874440 0.263460 0.908712
O O6 0.056677 0.346942 0.870651
O O7 0.090545 0.260366 0.000000
O O8 0.405660 0.037942 0.820392
O O9 0.353253 0.071099 0.000000
#
# Coordination Sequence:
#
# PCOD8275331 Si02
#       5
#    16  16   8  16   4
#     4  10  19  32  57  86 117 148 186 238 301 354
#     4  10  19  31  53  84 117 149 184 237 295 350
#     4  10  17  28  47  82 122 150 180 218 290 354
#     4  11  22  39  60  84 115 157 207 248 291 352
#     4  12  26  40  62  82 116 160 206 252 288 342
#
# _framework density 19.497995
#
# number of rings (size 3 to 8) (size 9 to 14) (size 15 to 20)
#    0.000    1.600    2.667    3.200    1.867    2.133 
#    0.000    0.667    0.000    6.400    0.000    0.000 
#    0.000    0.000    0.000    0.000    0.000    0.000 
#
# Total GULP energy -371705.431252 kJ/mol
# GULP energy per Si atom -12390.181042 kJ/mol
# Density = 1.945362 g / cm^3
# Si number density = 19.497995 Si / 1000 Ang^3
#
#
#
# Elastic Constant Matrix: (Units=GPa)
#
#
# Indices 1 2 3 4 5 6 
#
# 1 107.4339 41.2536 41.6012 0.0000 0.0000 0.0000
# 2 41.2536 73.7288 51.6862 0.0000 0.0000 0.0000
# 3 41.6012 51.6862 117.5008 0.0000 0.0000 0.0000
# 4 0.0000 0.0000 0.0000 80.4680 0.0000 0.0000
# 5 0.0000 0.0000 0.0000 0.0000 27.2402 0.0000
# 6 0.0000 0.0000 0.0000 0.0000 0.0000 17.4676
#
#
#
# Elastic Compliance Matrix: (Units=1/GPa)
#
#
# Indices 1 2 3 4 5 6 
#
# 1 0.012140 -0.005465 -0.001894 0.000000 0.000000 0.000000
# 2 -0.005465 0.022070 -0.007774 0.000000 0.000000 0.000000
# 3 -0.001894 -0.007774 0.012601 0.000000 0.000000 0.000000
# 4 0.000000 0.000000 0.000000 0.012427 0.000000 0.000000
# 5 0.000000 0.000000 0.000000 0.000000 0.036710 0.000000
# 6 0.000000 0.000000 0.000000 0.000000 0.000000 0.057249
#
#
# Mechanical properties :
#
#
# Convention : Reuss Voigt Hill
#
# Bulk Modulus (GPa) = 60.43797 63.08281 61.76039
# Shear Modulus (GPa) = 26.45807 35.97666 31.21737
#
# Velocity S-wave (km/s) = 3.68770 4.30018 4.00566
# Velocity P-wave (km/s) = 7.01402 7.55507 7.28957
#
# Compressibility (1/GPa) = 0.01654589
#
# Stress axis : x y z
#
# Youngs Moduli (GPa) = 82.37245 45.30964 79.36071
#
# Poissons Ratio (x) = 0.24760 0.15034
# Poissons Ratio (y) = 0.45014 0.61691
# Poissons Ratio (z) = 0.15604 0.35222
#
# Static dielectric constant tensor:
#      x y z
#    x 3.943900 0.000000 0.000000 
#    y 0.000000 3.155250 0.000000 
#    z 0.000000 0.000000 3.679070 
# 
# 
# High freq. dielectric constant tensor:
#      x y z
#    x 1.772760 0.000000 0.000000 
#    y 0.000000 1.713090 0.000000 
#    z 0.000000 0.000000 1.773480 
# 
# From -- ./inp_files/25653.got.cif
#   From: 2010.03.12/outbox.cif.g09.slc.cpg/sg66_13_cif.got.tgz:25653.got - 2010.04.10 21:57:39.
