data_PCOD8275848
_publ_section_title
;
Structure prediction by ZEFSAII (Michael W. Deem and Ramdas Pophale) SiO2 
 PCOD8275848
Probable space group: C C C M
;
_chemical_formula_sum "Si O2"
_cell_formula_units_Z 68
_cell_length_a 13.335509
_cell_length_b 13.071332
_cell_length_c 21.048849
_cell_angle_alpha 90.000000
_cell_angle_beta 90.000000
_cell_angle_gamma 90.000000
_cell_volume 3669.085185
_symmetry_space_group_name_H-M "C C C M"
_symmetry_group_IT_number 66
_symmetry_cell_setting 'orthorhombic'
loop_
_space_group_symop_operation_xyz
x,y,z
-x,-y,z
x,-y,1/2-z
-x,y,1/2-z
-x,-y,-z
x,y,-z
-x,y,1/2+z
x,-y,1/2+z
1/2+x,1/2+y,z
1/2-x,1/2-y,z
1/2+x,1/2-y,1/2-z
1/2-x,1/2+y,1/2-z
1/2-x,1/2-y,-z
1/2+x,1/2+y,-z
1/2-x,1/2+y,1/2+z
1/2+x,1/2-y,1/2+z
loop_
_atom_site_type_symbol
_atom_site_label
_atom_site_fract_x
_atom_site_fract_y
_atom_site_fract_z
Si Si1 0.845940 0.193410 0.928108
Si Si2 0.000000 0.500000 0.750000
Si Si3 0.091307 0.566383 0.628936
Si Si4 0.564318 0.717884 0.924426
Si Si5 0.706276 0.464148 0.428014
O O1 0.750000 0.250000 0.894444
O O2 0.951716 0.221099 0.894848
O O3 0.849479 0.071472 0.927008
O O4 0.847522 0.235472 0.000000
O O5 0.070000 0.571496 0.704948
O O6 0.111652 0.676689 0.598476
O O7 0.197079 0.513012 0.615626
O O8 0.000000 0.500000 0.596830
O O9 0.632432 0.623376 0.899523
O O10 0.559373 0.709884 0.000000
O O11 0.738719 0.434760 0.500000
#
# Coordination Sequence:
#
# PCOD8275848 Si02
#       5
#    16   4  16  16  16
#     4   9  17  29  47  79 119 147 169 197 249 328
#     4   8  24  40  54  68  96 140 200 230 264 308
#     4  10  20  36  55  69 105 134 186 229 260 323
#     4  10  19  31  53  86 115 138 166 214 282 339
#     4  10  19  31  53  86 115 138 166 214 282 339
#
# _framework density 18.53323
#
# number of rings (size 3 to 8) (size 9 to 14) (size 15 to 20)
#    0.706    1.647    0.000    3.529    0.000    8.471 
#    0.000    0.000   10.353    0.000    0.000    0.000 
#    0.000    0.000    0.000    0.000    0.000    0.000 
#
# Total GULP energy -421195.118368 kJ/mol
# GULP energy per Si atom -12388.091717 kJ/mol
# Density = 1.849105 g / cm^3
# Si number density = 18.533230 Si / 1000 Ang^3
#
#
#
# Elastic Constant Matrix: (Units=GPa)
#
#
# Indices 1 2 3 4 5 6 
#
# 1 101.8341 9.7326 19.4695 0.0000 0.0000 0.0000
# 2 9.7326 79.4339 2.3737 0.0000 0.0000 0.0000
# 3 19.4695 2.3737 30.5722 0.0000 0.0000 0.0000
# 4 0.0000 0.0000 0.0000 0.2266 0.0000 0.0000
# 5 0.0000 0.0000 0.0000 0.0000 11.8401 0.0000
# 6 0.0000 0.0000 0.0000 0.0000 0.0000 34.8670
#
#
#
# Elastic Compliance Matrix: (Units=1/GPa)
#
#
# Indices 1 2 3 4 5 6 
#
# 1 0.011289 -0.001171 -0.007098 0.000000 0.000000 0.000000
# 2 -0.001171 0.012740 -0.000243 0.000000 0.000000 0.000000
# 3 -0.007098 -0.000243 0.037249 0.000000 0.000000 0.000000
# 4 0.000000 0.000000 0.000000 4.413574 0.000000 0.000000
# 5 0.000000 0.000000 0.000000 0.000000 0.084459 0.000000
# 6 0.000000 0.000000 0.000000 0.000000 0.000000 0.028680
#
#
# Mechanical properties :
#
#
# Convention : Reuss Voigt Hill
#
# Bulk Modulus (GPa) = 22.59776 30.55463 26.57620
# Shear Modulus (GPa) = 1.08231 21.40436 11.24333
#
# Velocity S-wave (km/s) = 0.76502 3.40210 2.46572
# Velocity P-wave (km/s) = 3.60554 5.65283 4.74101
#
# Compressibility (1/GPa) = 0.04425216
#
# Stress axis : x y z
#
# Youngs Moduli (GPa) = 88.58250 78.49387 26.84654
#
# Poissons Ratio (x) = 0.09192 0.19056
# Poissons Ratio (y) = 0.10374 0.00653
# Poissons Ratio (z) = 0.62878 0.01910
#
# Static dielectric constant tensor:
#      x y z
#    x 3.620640 0.000000 0.000000 
#    y 0.000000 3.290750 0.000000 
#    z 0.000000 0.000000 2.823690 
# 
# 
# High freq. dielectric constant tensor:
#      x y z
#    x 1.738510 0.000000 0.000000 
#    y 0.000000 1.726250 0.000000 
#    z 0.000000 0.000000 1.642110 
# 
# From -- ./inp_files/49643.got.cif
#   From: 2010.03.12/outbox.cif.g09.slc.cpg/sg66_25_cif.got.tgz:49643.got - 2010.04.10 21:57:39.
