data_PCOD8275600
_publ_section_title
;
Structure prediction by ZEFSAII (Michael W. Deem and Ramdas Pophale) SiO2 
 PCOD8275600
Probable space group: C C C M
;
_chemical_formula_sum "Si O2"
_cell_formula_units_Z 80
_cell_length_a 18.642105
_cell_length_b 13.681580
_cell_length_c 16.680539
_cell_angle_alpha 90.000000
_cell_angle_beta 90.000000
_cell_angle_gamma 90.000000
_cell_volume 4254.429035
_symmetry_space_group_name_H-M "C C C M"
_symmetry_group_IT_number 66
_symmetry_cell_setting 'orthorhombic'
loop_
_space_group_symop_operation_xyz
x,y,z
-x,-y,z
x,-y,1/2-z
-x,y,1/2-z
-x,-y,-z
x,y,-z
-x,y,1/2+z
x,-y,1/2+z
1/2+x,1/2+y,z
1/2-x,1/2-y,z
1/2+x,1/2-y,1/2-z
1/2-x,1/2+y,1/2-z
1/2-x,1/2-y,-z
1/2+x,1/2+y,-z
1/2-x,1/2+y,1/2+z
1/2+x,1/2-y,1/2+z
loop_
_atom_site_type_symbol
_atom_site_label
_atom_site_fract_x
_atom_site_fract_y
_atom_site_fract_z
Si Si1 0.105283 0.533409 0.159226
Si Si2 0.528848 0.860913 0.092928
Si Si3 0.966247 0.855949 0.094972
Si Si4 0.244584 0.636843 0.094747
Si Si5 0.390823 0.544756 0.904694
O O1 0.106663 0.500000 0.250000
O O2 0.039294 0.606897 0.145217
O O3 0.177943 0.587534 0.137925
O O4 0.094504 0.436138 0.104971
O O5 0.553255 0.753511 0.123037
O O6 0.505714 0.858727 0.000000
O O7 0.045107 0.885691 0.127442
O O8 0.906428 0.933607 0.125563
O O9 0.968090 0.862600 0.000000
O O10 0.250000 0.750000 0.118741
O O11 0.315188 0.582535 0.128859
O O12 0.235109 0.624657 0.000000
O O13 0.388171 0.549931 0.000000
#
# Coordination Sequence:
#
# PCOD8275600 Si02
#       5
#    16  16  16  16  16
#     4  11  22  35  49  72 105 135 165 209 265 318
#     4  10  18  32  55  77  97 128 173 215 253 306
#     4   8  14  26  48  77 102 125 157 206 260 299
#     4  10  19  33  55  79 102 135 180 223 259 303
#     4   8  14  26  46  75 106 127 156 207 258 298
#
# _framework density 18.803934000000002
#
# number of rings (size 3 to 8) (size 9 to 14) (size 15 to 20)
#    0.000    2.600    0.000    6.000    0.000    3.200 
#    0.000    3.000    0.000    4.800    0.000    7.000 
#    0.000    0.000    0.000    0.000    0.000    0.000 
#
# Total GULP energy -495802.356264 kJ/mol
# GULP energy per Si atom -12395.058907 kJ/mol
# Density = 1.876114 g / cm^3
# Si number density = 18.803934 Si / 1000 Ang^3
#
#
#
# Elastic Constant Matrix: (Units=GPa)
#
#
# Indices 1 2 3 4 5 6 
#
# 1 133.2446 81.2281 35.0142 0.0000 0.0000 0.0000
# 2 81.2281 182.0498 34.7003 0.0000 0.0000 0.0000
# 3 35.0142 34.7003 47.3876 0.0000 0.0000 0.0000
# 4 0.0000 0.0000 0.0000 9.0806 0.0000 0.0000
# 5 0.0000 0.0000 0.0000 0.0000 20.6815 0.0000
# 6 0.0000 0.0000 0.0000 0.0000 0.0000 28.8380
#
#
#
# Elastic Compliance Matrix: (Units=1/GPa)
#
#
# Indices 1 2 3 4 5 6 
#
# 1 0.011410 -0.004049 -0.005465 0.000000 0.000000 0.000000
# 2 -0.004049 0.007821 -0.002735 0.000000 0.000000 0.000000
# 3 -0.005465 -0.002735 0.027144 0.000000 0.000000 0.000000
# 4 0.000000 0.000000 0.000000 0.110125 0.000000 0.000000
# 5 0.000000 0.000000 0.000000 0.000000 0.048353 0.000000
# 6 0.000000 0.000000 0.000000 0.000000 0.000000 0.034676
#
#
# Mechanical properties :
#
#
# Convention : Reuss Voigt Hill
#
# Bulk Modulus (GPa) = 45.71441 73.84081 59.77761
# Shear Modulus (GPa) = 18.42846 25.83598 22.13222
#
# Velocity S-wave (km/s) = 3.13394 3.71073 3.43446
# Velocity P-wave (km/s) = 6.12040 7.59693 6.89829
#
# Compressibility (1/GPa) = 0.02187494
#
# Stress axis : x y z
#
# Youngs Moduli (GPa) = 87.64574 127.86121 36.84076
#
# Poissons Ratio (x) = 0.51771 0.20135
# Poissons Ratio (y) = 0.35488 0.10077
# Poissons Ratio (z) = 0.47902 0.34973
#
# Static dielectric constant tensor:
#      x y z
#    x 3.497260 0.000000 0.000000 
#    y 0.000000 3.933470 0.000000 
#    z 0.000000 0.000000 3.005600 
# 
# 
# High freq. dielectric constant tensor:
#      x y z
#    x 1.717620 0.000000 0.000000 
#    y 0.000000 1.748020 0.000000 
#    z 0.000000 0.000000 1.688940 
# 
# From -- ./inp_files/41472.got.cif
#   From: 2010.03.12/outbox.cif.g09.slc.cpg/sg66_21_cif.got.tgz:41472.got - 2010.04.10 21:57:39.
