data_PCOD8275427
_publ_section_title
;
Structure prediction by ZEFSAII (Michael W. Deem and Ramdas Pophale) SiO2 
 PCOD8275427
Probable space group: C C C M
;
_chemical_formula_sum "Si O2"
_cell_formula_units_Z 96
_cell_length_a 33.662433
_cell_length_b 29.836174
_cell_length_c 7.980193
_cell_angle_alpha 90.000000
_cell_angle_beta 90.000000
_cell_angle_gamma 90.000000
_cell_volume 8014.972343
_symmetry_space_group_name_H-M "C C C M"
_symmetry_group_IT_number 66
_symmetry_cell_setting 'orthorhombic'
loop_
_space_group_symop_operation_xyz
x,y,z
-x,-y,z
x,-y,1/2-z
-x,y,1/2-z
-x,-y,-z
x,y,-z
-x,y,1/2+z
x,-y,1/2+z
1/2+x,1/2+y,z
1/2-x,1/2-y,z
1/2+x,1/2-y,1/2-z
1/2-x,1/2+y,1/2-z
1/2-x,1/2-y,-z
1/2+x,1/2+y,-z
1/2-x,1/2+y,1/2+z
1/2+x,1/2-y,1/2+z
loop_
_atom_site_type_symbol
_atom_site_label
_atom_site_fract_x
_atom_site_fract_y
_atom_site_fract_z
Si Si1 0.242325 0.131357 0.313998
Si Si2 0.882176 0.896755 0.192688
Si Si3 0.809291 0.049457 0.193643
Si Si4 0.661426 0.314029 0.183720
Si Si5 0.043014 0.949254 0.303963
Si Si6 0.267871 0.821023 0.500000
Si Si7 0.313806 0.266551 0.000000
O O1 0.262419 0.134182 0.500000
O O2 0.229185 0.080544 0.272370
O O3 0.203514 0.161814 0.313517
O O4 0.271836 0.148609 0.167999
O O5 0.847102 0.933301 0.203012
O O6 0.872553 0.851374 0.292325
O O7 0.922376 0.917851 0.271952
O O8 0.887820 0.883450 0.000000
O O9 0.797288 0.000000 0.250000
O O10 0.821354 0.051182 0.000000
O O11 0.660548 0.277368 0.332709
O O12 0.654975 0.291346 0.000000
O O13 0.046768 0.947563 0.500000
O O14 0.000000 0.930860 0.250000
O O15 0.049612 0.000000 0.250000
O O16 0.304003 0.786031 0.500000
O O17 0.225961 0.795834 0.500000
#
# Coordination Sequence:
#
# PCOD8275427 Si02
#       7
#    16  16  16  16  16   8   8
#     4   8  16  26  34  49  67  85 110 130 156 193
#     4  10  18  28  40  52  67  85 106 135 170 205
#     4  10  19  26  36  52  66  85 111 139 167 199
#     4   9  16  26  39  52  69  86 101 131 160 190
#     4  10  20  30  40  51  66  85 108 138 165 202
#     4   9  16  24  40  48  66  94 100 128 164 181
#     4   9  16  26  36  56  68  81 112 126 150 201
#
# _framework density 11.977582999999999
#
# number of rings (size 3 to 8) (size 9 to 14) (size 15 to 20)
#    0.000    2.667    0.833    3.500    4.667    4.667 
#    0.000    3.333    0.000    0.000    0.000    0.000 
#    0.000    0.000    0.000    0.000    0.000    0.000 
#
# Total GULP energy -594932.603506 kJ/mol
# GULP energy per Si atom -12394.429240 kJ/mol
# Density = 1.195032 g / cm^3
# Si number density = 11.977583 Si / 1000 Ang^3
#
#
#
# Elastic Constant Matrix: (Units=GPa)
#
#
# Indices 1 2 3 4 5 6 
#
# 1 32.6280 33.6075 26.1260 0.0000 0.0000 0.0000
# 2 33.6075 58.6442 36.9937 0.0000 0.0000 0.0000
# 3 26.1260 36.9937 84.3331 0.0000 0.0000 0.0000
# 4 0.0000 0.0000 0.0000 14.8057 0.0000 0.0000
# 5 0.0000 0.0000 0.0000 0.0000 5.8480 0.0000
# 6 0.0000 0.0000 0.0000 0.0000 0.0000 17.2993
#
#
#
# Elastic Compliance Matrix: (Units=1/GPa)
#
#
# Indices 1 2 3 4 5 6 
#
# 1 0.077098 -0.040255 -0.006226 0.000000 0.000000 0.000000
# 2 -0.040255 0.044594 -0.007091 0.000000 0.000000 0.000000
# 3 -0.006226 -0.007091 0.016897 0.000000 0.000000 0.000000
# 4 0.000000 0.000000 0.000000 0.067542 0.000000 0.000000
# 5 0.000000 0.000000 0.000000 0.000000 0.170999 0.000000
# 6 0.000000 0.000000 0.000000 0.000000 0.000000 0.057806
#
#
# Mechanical properties :
#
#
# Convention : Reuss Voigt Hill
#
# Bulk Modulus (GPa) = 31.80197 41.00665 36.40431
# Shear Modulus (GPa) = 9.04875 12.84911 10.94893
#
# Velocity S-wave (km/s) = 2.75157 3.27886 3.02672
# Velocity P-wave (km/s) = 6.05836 6.97460 6.53256
#
# Compressibility (1/GPa) = 0.03144460
#
# Stress axis : x y z
#
# Youngs Moduli (GPa) = 12.97052 22.42433 59.18178
#
# Poissons Ratio (x) = 0.90270 0.36847
# Poissons Ratio (y) = 0.52213 0.41965
# Poissons Ratio (z) = 0.08076 0.15901
#
# Static dielectric constant tensor:
#      x y z
#    x 1.355430 0.000000 0.000000 
#    y 0.000000 2.379400 0.000000 
#    z 0.000000 0.000000 2.774330 
# 
# 
# High freq. dielectric constant tensor:
#      x y z
#    x 1.395170 0.000000 0.000000 
#    y 0.000000 1.427820 0.000000 
#    z 0.000000 0.000000 1.477810 
# 
# From -- ./inp_files/11834.got.cif
#   From: 2010.03.12/outbox.cif.g09.slc.cpg/sg66_6_cif.got.tgz:11834.got - 2010.04.10 21:57:39.
