data_PCOD8275788
_publ_section_title
;
Structure prediction by ZEFSAII (Michael W. Deem and Ramdas Pophale) SiO2 
 PCOD8275788
Probable space group: C C C M
;
_chemical_formula_sum "Si O2"
_cell_formula_units_Z 96
_cell_length_a 10.187270
_cell_length_b 25.333814
_cell_length_c 18.698611
_cell_angle_alpha 90.000000
_cell_angle_beta 90.000000
_cell_angle_gamma 90.000000
_cell_volume 4825.782466
_symmetry_space_group_name_H-M "C C C M"
_symmetry_group_IT_number 66
_symmetry_cell_setting 'orthorhombic'
loop_
_space_group_symop_operation_xyz
x,y,z
-x,-y,z
x,-y,1/2-z
-x,y,1/2-z
-x,-y,-z
x,y,-z
-x,y,1/2+z
x,-y,1/2+z
1/2+x,1/2+y,z
1/2-x,1/2-y,z
1/2+x,1/2-y,1/2-z
1/2-x,1/2+y,1/2-z
1/2-x,1/2-y,-z
1/2+x,1/2+y,-z
1/2-x,1/2+y,1/2+z
1/2+x,1/2-y,1/2+z
loop_
_atom_site_type_symbol
_atom_site_label
_atom_site_fract_x
_atom_site_fract_y
_atom_site_fract_z
Si Si1 0.099548 0.549428 0.000000
Si Si2 0.645246 0.521319 0.000000
Si Si3 0.076180 0.822822 0.080091
Si Si4 0.568218 0.581692 0.863039
Si Si5 0.841251 0.376075 0.877074
Si Si6 0.604793 0.767447 0.311265
Si Si7 0.817436 0.943513 0.721070
O O1 0.074801 0.588350 0.932504
O O2 0.000000 0.500000 0.000000
O O3 0.247421 0.525449 0.000000
O O4 0.500000 0.500000 0.000000
O O5 0.654525 0.553919 0.074461
O O6 0.214115 0.853134 0.083345
O O7 0.072775 0.768605 0.121621
O O8 0.963452 0.860381 0.109510
O O9 0.043598 0.807167 0.000000
O O10 0.648943 0.591391 0.790524
O O11 0.435420 0.550362 0.837638
O O12 0.915036 0.327176 0.839835
O O13 0.806613 0.416213 0.813886
O O14 0.500000 0.756451 0.250000
O O15 0.750000 0.750000 0.283404
O O16 0.775815 0.000000 0.750000
#
# Coordination Sequence:
#
# PCOD8275788 Si02
#       7
#     8   8  16  16  16  16  16
#     4  12  26  44  62  90 134 176 214 248 304 376
#     4  12  20  36  63  92 120 162 215 262 311 364
#     4  10  19  35  64  98 124 156 205 266 324 381
#     4  10  19  30  55  94 129 152 199 267 323 365
#     4  10  22  41  62  86 123 169 215 254 302 381
#     4  10  24  42  69  96 122 163 211 267 323 379
#     4  10  19  33  54  89 126 165 204 257 317 370
#
# _framework density 19.893146999999999
#
# number of rings (size 3 to 8) (size 9 to 14) (size 15 to 20)
#    0.000    1.667    1.667    5.000    8.167    1.000 
#    6.000    0.000    0.000    0.500    0.000    0.000 
#    0.000    0.000    0.000    0.000    0.000    0.000 
#
# Total GULP energy -594880.214239 kJ/mol
# GULP energy per Si atom -12393.337797 kJ/mol
# Density = 1.984787 g / cm^3
# Si number density = 19.893147 Si / 1000 Ang^3
#
#
#
# Elastic Constant Matrix: (Units=GPa)
#
#
# Indices 1 2 3 4 5 6 
#
# 1 51.3544 38.9655 38.4643 0.0000 0.0000 0.0000
# 2 38.9655 132.9293 61.1614 0.0000 0.0000 0.0000
# 3 38.4643 61.1614 149.9501 0.0000 0.0000 0.0000
# 4 0.0000 0.0000 0.0000 36.3353 0.0000 0.0000
# 5 0.0000 0.0000 0.0000 0.0000 17.1780 0.0000
# 6 0.0000 0.0000 0.0000 0.0000 0.0000 27.5083
#
#
#
# Elastic Compliance Matrix: (Units=1/GPa)
#
#
# Indices 1 2 3 4 5 6 
#
# 1 0.027420 -0.005911 -0.004623 0.000000 0.000000 0.000000
# 2 -0.005911 0.010535 -0.002781 0.000000 0.000000 0.000000
# 3 -0.004623 -0.002781 0.008989 0.000000 0.000000 0.000000
# 4 0.000000 0.000000 0.000000 0.027521 0.000000 0.000000
# 5 0.000000 0.000000 0.000000 0.000000 0.058214 0.000000
# 6 0.000000 0.000000 0.000000 0.000000 0.000000 0.036353
#
#
# Mechanical properties :
#
#
# Convention : Reuss Voigt Hill
#
# Bulk Modulus (GPa) = 49.22424 67.93513 58.57968
# Shear Modulus (GPa) = 24.69973 29.24716 26.97345
#
# Velocity S-wave (km/s) = 3.52749 3.83850 3.68627
# Velocity P-wave (km/s) = 6.43342 7.33959 6.90139
#
# Compressibility (1/GPa) = 0.02031519
#
# Stress axis : x y z
#
# Youngs Moduli (GPa) = 36.47020 94.92343 111.24835
#
# Poissons Ratio (x) = 0.56105 0.51427
# Poissons Ratio (y) = 0.21556 0.30936
# Poissons Ratio (z) = 0.16859 0.26396
#
# Static dielectric constant tensor:
#      x y z
#    x 3.258560 0.000000 0.000000 
#    y 0.000000 3.956230 0.000000 
#    z 0.000000 0.000000 3.966860 
# 
# 
# High freq. dielectric constant tensor:
#      x y z
#    x 1.717940 0.000000 0.000000 
#    y 0.000000 1.785350 0.000000 
#    z 0.000000 0.000000 1.797440 
# 
# From -- ./inp_files/38900.got.cif
#   From: 2010.03.12/outbox.cif.g09.slc.cpg/sg66_20_cif.got.tgz:38900.got - 2010.04.10 21:57:39.
