data_PCOD8275335
_publ_section_title
;
Structure prediction by ZEFSAII (Michael W. Deem and Ramdas Pophale) SiO2 
 PCOD8275335
Probable space group: C C C M
;
_chemical_formula_sum "Si O2"
_cell_formula_units_Z 112
_cell_length_a 25.081779
_cell_length_b 13.874626
_cell_length_c 18.966588
_cell_angle_alpha 90.000000
_cell_angle_beta 90.000000
_cell_angle_gamma 90.000000
_cell_volume 6600.378372
_symmetry_space_group_name_H-M "C C C M"
_symmetry_group_IT_number 66
_symmetry_cell_setting 'orthorhombic'
loop_
_space_group_symop_operation_xyz
x,y,z
-x,-y,z
x,-y,1/2-z
-x,y,1/2-z
-x,-y,-z
x,y,-z
-x,y,1/2+z
x,-y,1/2+z
1/2+x,1/2+y,z
1/2-x,1/2-y,z
1/2+x,1/2-y,1/2-z
1/2-x,1/2+y,1/2-z
1/2-x,1/2-y,-z
1/2+x,1/2+y,-z
1/2-x,1/2+y,1/2+z
1/2+x,1/2-y,1/2+z
loop_
_atom_site_type_symbol
_atom_site_label
_atom_site_fract_x
_atom_site_fract_y
_atom_site_fract_z
Si Si1 0.480666 0.247207 0.826478
Si Si2 0.942895 0.540807 0.173358
Si Si3 0.075367 0.740355 0.921661
Si Si4 0.248155 0.860420 0.084221
Si Si5 0.865066 0.923456 0.582979
Si Si6 0.548725 0.572248 0.917944
Si Si7 0.643795 0.944013 0.421456
O O1 0.500000 0.283325 0.750000
O O2 0.440984 0.156774 0.820069
O O3 0.529549 0.203110 0.870557
O O4 0.454054 0.334788 0.868528
O O5 0.931192 0.500000 0.250000
O O6 0.893776 0.513182 0.123597
O O7 0.000000 0.500000 0.145244
O O8 0.098469 0.837582 0.886804
O O9 0.121609 0.663368 0.925922
O O10 0.051690 0.760305 0.000000
O O11 0.250000 0.750000 0.112968
O O12 0.194943 0.914625 0.112979
O O13 0.297232 0.927215 0.111594
O O14 0.250831 0.857472 0.000000
O O15 0.862101 0.906805 0.500000
O O16 0.894370 0.023500 0.601459
O O17 0.500000 0.500000 0.901656
O O18 0.547275 0.602727 0.000000
O O19 0.646752 0.989254 0.500000
#
# Coordination Sequence:
#
# PCOD8275335 Si02
#       7
#    16  16  16  16  16  16  16
#     4  12  22  34  52  73 102 140 180 215 252 320
#     4  11  21  38  52  71 103 143 176 205 269 331
#     4  10  17  28  49  76 104 133 167 211 262 313
#     4   9  15  26  48  80 110 134 168 216 266 305
#     4   9  16  29  48  72 108 142 165 203 263 319
#     4  10  20  34  52  76 108 143 173 207 265 322
#     4  10  19  29  50  83 107 128 172 226 262 306
#
# _framework density 16.968724000000002
#
# number of rings (size 3 to 8) (size 9 to 14) (size 15 to 20)
#    0.000    1.857    5.714    0.429    0.000    1.714 
#    0.000    0.000    0.000    2.571    0.000    4.000 
#    0.000    0.000    0.000    0.000    0.000    0.000 
#
# Total GULP energy -694058.624118 kJ/mol
# GULP energy per Si atom -12393.904002 kJ/mol
# Density = 1.693010 g / cm^3
# Si number density = 16.968724 Si / 1000 Ang^3
#
#
#
# Elastic Constant Matrix: (Units=GPa)
#
#
# Indices 1 2 3 4 5 6 
#
# 1 115.3310 47.1728 42.5177 0.0000 0.0000 0.0000
# 2 47.1728 113.2412 43.7244 0.0000 0.0000 0.0000
# 3 42.5177 43.7244 68.0225 0.0000 0.0000 0.0000
# 4 0.0000 0.0000 0.0000 22.3964 0.0000 0.0000
# 5 0.0000 0.0000 0.0000 0.0000 6.4291 0.0000
# 6 0.0000 0.0000 0.0000 0.0000 0.0000 29.1586
#
#
#
# Elastic Compliance Matrix: (Units=1/GPa)
#
#
# Indices 1 2 3 4 5 6 
#
# 1 0.011886 -0.002770 -0.005649 0.000000 0.000000 0.000000
# 2 -0.002770 0.012392 -0.006234 0.000000 0.000000 0.000000
# 3 -0.005649 -0.006234 0.022239 0.000000 0.000000 0.000000
# 4 0.000000 0.000000 0.000000 0.044650 0.000000 0.000000
# 5 0.000000 0.000000 0.000000 0.000000 0.155543 0.000000
# 6 0.000000 0.000000 0.000000 0.000000 0.000000 0.034295
#
#
# Mechanical properties :
#
#
# Convention : Reuss Voigt Hill
#
# Bulk Modulus (GPa) = 58.10205 62.60274 60.35239
# Shear Modulus (GPa) = 15.82040 22.47547 19.14794
#
# Velocity S-wave (km/s) = 3.05672 3.64335 3.36285
# Velocity P-wave (km/s) = 6.83908 7.39404 7.12197
#
# Compressibility (1/GPa) = 0.01721110
#
# Stress axis : x y z
#
# Youngs Moduli (GPa) = 84.13035 80.69936 44.96655
#
# Poissons Ratio (x) = 0.22357 0.25401
# Poissons Ratio (y) = 0.23307 0.28031
# Poissons Ratio (z) = 0.47524 0.50305
#
# Static dielectric constant tensor:
#      x y z
#    x 3.327190 0.000000 0.000000 
#    y 0.000000 3.065340 0.000000 
#    z 0.000000 0.000000 2.909310 
# 
# 
# High freq. dielectric constant tensor:
#      x y z
#    x 1.649320 0.000000 0.000000 
#    y 0.000000 1.646330 0.000000 
#    z 0.000000 0.000000 1.619820 
# 
# From -- ./inp_files/53156.got.cif
#   From: 2010.03.12/outbox.cif.g09.slc.cpg/sg66_27_cif.got.tgz:53156.got - 2010.04.10 21:57:39.
