data_PCOD8275709
_publ_section_title
;
Structure prediction by ZEFSAII (Michael W. Deem and Ramdas Pophale) SiO2 
 PCOD8275709
Probable space group: C C C M
;
_chemical_formula_sum "Si O2"
_cell_formula_units_Z 72
_cell_length_a 25.515328
_cell_length_b 11.582359
_cell_length_c 13.066591
_cell_angle_alpha 90.000000
_cell_angle_beta 90.000000
_cell_angle_gamma 90.000000
_cell_volume 3861.539440
_symmetry_space_group_name_H-M "C C C M"
_symmetry_group_IT_number 66
_symmetry_cell_setting 'orthorhombic'
loop_
_space_group_symop_operation_xyz
x,y,z
-x,-y,z
x,-y,1/2-z
-x,y,1/2-z
-x,-y,-z
x,y,-z
-x,y,1/2+z
x,-y,1/2+z
1/2+x,1/2+y,z
1/2-x,1/2-y,z
1/2+x,1/2-y,1/2-z
1/2-x,1/2+y,1/2-z
1/2-x,1/2-y,-z
1/2+x,1/2+y,-z
1/2-x,1/2+y,1/2+z
1/2+x,1/2-y,1/2+z
loop_
_atom_site_type_symbol
_atom_site_label
_atom_site_fract_x
_atom_site_fract_y
_atom_site_fract_z
Si Si1 0.202472 0.674499 0.824461
Si Si2 0.688989 0.084220 0.387874
Si Si3 0.410419 0.788059 0.121462
Si Si4 0.500000 0.800825 0.250000
Si Si5 0.072194 0.547189 0.615652
O O1 0.250000 0.750000 0.869897
O O2 0.216142 0.652838 0.704442
O O3 0.198924 0.553284 0.883147
O O4 0.148543 0.746007 0.844701
O O5 0.709148 0.125978 0.500000
O O6 0.627539 0.112828 0.376199
O O7 0.455996 0.722627 0.188502
O O8 0.419866 0.919377 0.163645
O O9 0.417340 0.769078 0.000000
O O10 0.474277 0.880528 0.336411
O O11 0.055408 0.527566 0.500000
#
# Coordination Sequence:
#
# PCOD8275709 Si02
#       5
#    16  16  16   8  16
#     4  10  19  32  48  66  92 126 160 196 234 272
#     4   9  18  32  47  65  90 121 159 195 230 275
#     4  10  19  27  38  60  87 118 155 187 220 267
#     4  12  17  24  40  60  88 119 154 187 220 264
#     4   9  16  25  38  56  83 118 149 179 216 262
#
# _framework density 18.645413000000001
#
# number of rings (size 3 to 8) (size 9 to 14) (size 15 to 20)
#    0.000    2.222    2.222    4.667    0.000    4.000 
#    0.000    0.000    0.000    0.000    0.000    0.000 
#    0.000    3.556    0.000   10.000    0.000    3.778 
#
# Total GULP energy -446018.912615 kJ/mol
# GULP energy per Si atom -12389.414239 kJ/mol
# Density = 1.860297 g / cm^3
# Si number density = 18.645413 Si / 1000 Ang^3
#
#
#
# Elastic Constant Matrix: (Units=GPa)
#
#
# Indices 1 2 3 4 5 6 
#
# 1 135.3921 23.7095 27.4013 0.0000 0.0000 0.0000
# 2 23.7095 13.2263 1.7294 0.0000 0.0000 0.0000
# 3 27.4013 1.7294 77.4481 0.0000 0.0000 0.0000
# 4 0.0000 0.0000 0.0000 5.6864 0.0000 0.0000
# 5 0.0000 0.0000 0.0000 0.0000 20.2883 0.0000
# 6 0.0000 0.0000 0.0000 0.0000 0.0000 20.3290
#
#
#
# Elastic Compliance Matrix: (Units=1/GPa)
#
#
# Indices 1 2 3 4 5 6 
#
# 1 0.011731 -0.020547 -0.003692 0.000000 0.000000 0.000000
# 2 -0.020547 0.111815 0.004773 0.000000 0.000000 0.000000
# 3 -0.003692 0.004773 0.014111 0.000000 0.000000 0.000000
# 4 0.000000 0.000000 0.000000 0.175858 0.000000 0.000000
# 5 0.000000 0.000000 0.000000 0.000000 0.049289 0.000000
# 6 0.000000 0.000000 0.000000 0.000000 0.000000 0.049191
#
#
# Mechanical properties :
#
#
# Convention : Reuss Voigt Hill
#
# Bulk Modulus (GPa) = 10.12900 36.86076 23.49488
# Shear Modulus (GPa) = 10.33408 20.80917 15.57163
#
# Velocity S-wave (km/s) = 2.35679 3.34435 2.89302
# Velocity P-wave (km/s) = 3.58471 5.89281 4.87726
#
# Compressibility (1/GPa) = 0.09872640
#
# Stress axis : x y z
#
# Youngs Moduli (GPa) = 85.24270 8.94332 70.86441
#
# Poissons Ratio (x) = 0.18376 0.26161
# Poissons Ratio (y) = 1.75146 -0.33822
# Poissons Ratio (z) = 0.31469 -0.04268
#
# Static dielectric constant tensor:
#      x y z
#    x 3.667370 0.000000 0.000000 
#    y 0.000000 2.522330 0.000000 
#    z 0.000000 0.000000 3.709140 
# 
# 
# High freq. dielectric constant tensor:
#      x y z
#    x 1.737020 0.000000 0.000000 
#    y 0.000000 1.606710 0.000000 
#    z 0.000000 0.000000 1.758520 
# 
# From -- ./inp_files/24486.got.cif
#   From: 2010.03.12/outbox.cif.g09.slc.cpg/sg66_13_cif.got.tgz:24486.got - 2010.04.10 21:57:39.
