data_PCOD8275016
_publ_section_title
;
Structure prediction by ZEFSAII (Michael W. Deem and Ramdas Pophale) SiO2 
 PCOD8275016
Probable space group: C M M M
;
_chemical_formula_sum "Si O2"
_cell_formula_units_Z 104
_cell_length_a 20.314205
_cell_length_b 8.027683
_cell_length_c 35.105619
_cell_angle_alpha 90.000000
_cell_angle_beta 90.000000
_cell_angle_gamma 90.000000
_cell_volume 5724.883859
_symmetry_space_group_name_H-M "C M M M"
_symmetry_group_IT_number 65
_symmetry_cell_setting 'orthorhombic'
loop_
_space_group_symop_operation_xyz
x,y,z
-x,-y,z
x,-y,-z
-x,y,-z
-x,-y,-z
x,y,-z
-x,y,z
x,-y,z
1/2+x,1/2+y,z
1/2-x,1/2-y,z
1/2+x,1/2-y,-z
1/2-x,1/2+y,-z
1/2-x,1/2-y,-z
1/2+x,1/2+y,-z
1/2-x,1/2+y,z
1/2+x,1/2-y,z
loop_
_atom_site_type_symbol
_atom_site_label
_atom_site_fract_x
_atom_site_fract_y
_atom_site_fract_z
Si Si1 0.926513 0.198249 0.542464
Si Si2 0.426758 0.194583 0.825127
Si Si3 0.821320 0.196997 0.398499
Si Si4 0.578418 0.500000 0.956990
Si Si5 0.426043 0.693270 0.746028
Si Si6 0.078760 0.687406 0.908442
Si Si7 0.678436 0.302783 0.313156
O O1 0.907720 0.260969 0.500000
O O2 0.875732 0.274696 0.573102
O O3 0.000000 0.259398 0.553081
O O4 0.923884 0.000000 0.543380
O O5 0.500000 0.269921 0.827298
O O6 0.393320 0.278186 0.788042
O O7 0.392612 0.231169 0.866141
O O8 0.428305 0.000000 0.817840
O O9 0.750000 0.250000 0.413896
O O10 0.832728 0.268567 0.355856
O O11 0.827010 0.000000 0.397931
O O12 0.500000 0.500000 0.956155
O O13 0.604967 0.330720 0.936924
O O14 0.605307 0.500000 0.000000
O O15 0.500000 0.772876 0.743476
O O16 0.431353 0.500000 0.737632
O O17 0.377749 0.774310 0.714461
O O18 0.101953 0.500000 0.921052
O O19 0.000000 0.687029 0.906699
O O20 0.674050 0.500000 0.313186
O O21 0.750000 0.250000 0.297753
#
# Coordination Sequence:
#
# PCOD8275016 Si02
#       7
#    16  16  16   8  16  16  16
#     4   8  14  25  42  65  89 111 139 176 217 259
#     4   8  14  24  37  54  75  99 129 167 212 258
#     4   9  17  29  45  63  84 111 142 176 211 251
#     4   9  16  22  30  46  66  96 140 180 218 266
#     4   9  17  27  41  62  83 102 132 179 220 251
#     4   8  14  23  33  46  67  96 131 174 219 263
#     4   9  18  31  44  60  84 114 144 172 210 262
#
# _framework density 18.166307
#
# number of rings (size 3 to 8) (size 9 to 14) (size 15 to 20)
#    0.000    3.462    0.000    1.385    1.077    1.846 
#    0.000    4.615    0.000    0.462    0.000    5.385 
#    0.000    0.000    0.000    0.000    0.000    0.769 
#
# Total GULP energy -644190.169730 kJ/mol
# GULP energy per Si atom -12388.272495 kJ/mol
# Density = 1.812496 g / cm^3
# Si number density = 18.166307 Si / 1000 Ang^3
#
#
#
# Elastic Constant Matrix: (Units=GPa)
#
#
# Indices 1 2 3 4 5 6 
#
# 1 77.2190 18.7505 74.6333 0.0000 0.0000 0.0000
# 2 18.7505 42.0661 39.5413 0.0000 0.0000 0.0000
# 3 74.6333 39.5413 152.1711 0.0000 0.0000 0.0000
# 4 0.0000 0.0000 0.0000 15.8493 0.0000 0.0000
# 5 0.0000 0.0000 0.0000 0.0000 6.5901 0.0000
# 6 0.0000 0.0000 0.0000 0.0000 0.0000 13.4416
#
#
#
# Elastic Compliance Matrix: (Units=1/GPa)
#
#
# Indices 1 2 3 4 5 6 
#
# 1 0.024630 0.000498 -0.012209 0.000000 0.000000 0.000000
# 2 0.000498 0.031465 -0.008420 0.000000 0.000000 0.000000
# 3 -0.012209 -0.008420 0.014748 0.000000 0.000000 0.000000
# 4 0.000000 0.000000 0.000000 0.063094 0.000000 0.000000
# 5 0.000000 0.000000 0.000000 0.000000 0.151742 0.000000
# 6 0.000000 0.000000 0.000000 0.000000 0.000000 0.074396
#
#
# Mechanical properties :
#
#
# Convention : Reuss Voigt Hill
#
# Bulk Modulus (GPa) = 32.70187 59.70073 46.20130
# Shear Modulus (GPa) = 12.17935 16.41160 14.29548
#
# Velocity S-wave (km/s) = 2.59209 3.00894 2.80826
# Velocity P-wave (km/s) = 5.19606 6.70868 6.00023
#
# Compressibility (1/GPa) = 0.03057929
#
# Stress axis : x y z
#
# Youngs Moduli (GPa) = 40.60156 31.78114 67.80747
#
# Poissons Ratio (x) = -0.01583 0.82787
# Poissons Ratio (y) = -0.02022 0.57097
# Poissons Ratio (z) = 0.49571 0.26761
#
# Static dielectric constant tensor:
#      x y z
#    x 3.104030 0.000000 0.000000 
#    y 0.000000 3.135980 0.000000 
#    z 0.000000 0.000000 3.762090 
# 
# 
# High freq. dielectric constant tensor:
#      x y z
#    x 1.644710 0.000000 0.000000 
#    y 0.000000 1.685750 0.000000 
#    z 0.000000 0.000000 1.711900 
# 
# From -- ./inp_files/78349.got.cif
#   From: 2010.03.12/outbox.cif.g09.slc.cpg/sg65_40_cif.got.tgz:78349.got - 2010.04.10 20:52:16.
