data_PCOD8275208
_publ_section_title
;
Structure prediction by ZEFSAII (Michael W. Deem and Ramdas Pophale) SiO2 
 PCOD8275208
Probable space group: C M M M
;
_chemical_formula_sum "Si O2"
_cell_formula_units_Z 40
_cell_length_a 27.000000
_cell_length_b 9.000000
_cell_length_c 18.000000
_cell_angle_alpha 90.000000
_cell_angle_beta 90.000000
_cell_angle_gamma 90.000000
_cell_volume 4374.000000
_symmetry_space_group_name_H-M "C M M M"
_symmetry_group_IT_number 65
_symmetry_cell_setting 'orthorhombic'
loop_
_space_group_symop_operation_xyz
x,y,z
-x,-y,z
x,-y,-z
-x,y,-z
-x,-y,-z
x,y,-z
-x,y,z
x,-y,z
1/2+x,1/2+y,z
1/2-x,1/2-y,z
1/2+x,1/2-y,-z
1/2-x,1/2+y,-z
1/2-x,1/2-y,-z
1/2+x,1/2+y,-z
1/2-x,1/2+y,z
1/2+x,1/2-y,z
loop_
_atom_site_type_symbol
_atom_site_label
_atom_site_fract_x
_atom_site_fract_y
_atom_site_fract_z
Si Si1 0.396342 0.676702 0.643591
Si Si2 0.801965 0.673761 0.293510
Si Si3 0.055876 0.669724 0.222008
Si Si4 0.558666 0.827449 0.500000
Si Si5 0.650831 0.831682 0.135455
Si Si6 0.197163 0.826191 0.000000
O O1 0.392091 0.500000 0.637255
O O2 0.342199 0.746803 0.654687
O O3 0.432452 0.718648 0.711362
O O4 0.419635 0.744611 0.570513
O O5 0.799700 0.500000 0.313394
O O6 0.750000 0.750000 0.310530
O O7 0.815897 0.698157 0.207687
O O8 0.063467 0.500000 0.250897
O O9 0.093082 0.698530 0.153646
O O10 0.000000 0.696233 0.193692
O O11 0.500000 0.810766 0.500000
O O12 0.574448 0.000000 0.500000
O O13 0.666445 0.717512 0.072520
O O14 0.658596 0.000000 0.106959
O O15 0.250000 0.750000 0.000000
O O16 0.205941 0.000000 0.000000
#
# Coordination Sequence:
#
# PCOD8275208 Si02
#       6
#    16  16  16   8  16   8
#     4  11  22  35  54  82 113 143 178 220 266 317
#     4  10  20  36  58  82 108 141 180 221 266 316
#     4   9  18  35  58  81 106 140 180 220 264 314
#     4  11  23  39  58  79 108 145 181 221 269 317
#     4   9  19  35  55  79 107 138 176 219 261 313
#     4  12  24  36  53  76 105 139 174 217 269 320
#
# _framework density 9.1449470000000002
#
# number of rings (size 3 to 8) (size 9 to 14) (size 15 to 20)
#    0.000    1.900    0.000    6.000    0.000    9.200 
#    0.000    1.000    0.000    3.000    0.000    0.000 
#    0.000    0.000    0.000    0.000    0.000    0.000 
#
# Total GULP energy -496106.109135 kJ/mol
# GULP energy per Si atom -12402.652728 kJ/mol
# Density = 0.912413 g / cm^3
# Si number density = 9.144947 Si / 1000 Ang^3
#
#
#
# Elastic Constant Matrix: (Units=GPa)
#
#
# Indices 1 2 3 4 5 6 
#
# 1 152.3069 70.5399 51.3108 0.0000 0.0000 0.0000
# 2 70.5399 167.2590 65.4328 0.0000 0.0000 0.0000
# 3 51.3108 65.4328 87.6795 0.0000 0.0000 0.0000
# 4 0.0000 0.0000 0.0000 36.2906 0.0000 0.0000
# 5 0.0000 0.0000 0.0000 0.0000 16.9673 0.0000
# 6 0.0000 0.0000 0.0000 0.0000 0.0000 33.1447
#
#
#
# Elastic Compliance Matrix: (Units=1/GPa)
#
#
# Indices 1 2 3 4 5 6 
#
# 1 0.008811 -0.002399 -0.003366 0.000000 0.000000 0.000000
# 2 -0.002399 0.009097 -0.005385 0.000000 0.000000 0.000000
# 3 -0.003366 -0.005385 0.017393 0.000000 0.000000 0.000000
# 4 0.000000 0.000000 0.000000 0.027555 0.000000 0.000000
# 5 0.000000 0.000000 0.000000 0.000000 0.058937 0.000000
# 6 0.000000 0.000000 0.000000 0.000000 0.000000 0.030171
#
#
# Mechanical properties :
#
#
# Convention : Reuss Voigt Hill
#
# Bulk Modulus (GPa) = 76.91283 86.86804 81.89043
# Shear Modulus (GPa) = 27.99586 31.94464 29.97025
#
# Velocity S-wave (km/s) = 3.91663 4.18374 4.05238
# Velocity P-wave (km/s) = 7.91181 8.42238 8.17108
#
# Compressibility (1/GPa) = 0.01300173
#
# Stress axis : x y z
#
# Youngs Moduli (GPa) = 113.49818 109.92380 57.49289
#
# Poissons Ratio (x) = 0.26372 0.19350
# Poissons Ratio (y) = 0.27230 0.30960
# Poissons Ratio (z) = 0.38200 0.59194
#
# Static dielectric constant tensor:
#      x y z
#    x 3.554400 0.000000 0.000000 
#    y 0.000000 3.509630 0.000000 
#    z 0.000000 0.000000 3.275520 
# 
# 
# High freq. dielectric constant tensor:
#      x y z
#    x 1.723580 0.000000 0.000000 
#    y 0.000000 1.721010 0.000000 
#    z 0.000000 0.000000 1.692000 
# 
# From -- ./inp_files/57249.got.cif
#   From: 2010.03.12/outbox.ucp.g09.slc.cvg/sg65_29_cif.got.tgz:57249.got - 2010.05.04 19:44:54.
