data_PCOD8275462
_publ_section_title
;
Structure prediction by ZEFSAII (Michael W. Deem and Ramdas Pophale) SiO2 
 PCOD8275462
Probable space group: C C C M
;
_chemical_formula_sum "Si O2"
_cell_formula_units_Z 112
_cell_length_a 15.202369
_cell_length_b 15.202368
_cell_length_c 28.265237
_cell_angle_alpha 90.000000
_cell_angle_beta 90.000000
_cell_angle_gamma 90.000000
_cell_volume 6532.435680
_symmetry_space_group_name_H-M "C C C M"
_symmetry_group_IT_number 66
_symmetry_cell_setting 'orthorhombic'
loop_
_space_group_symop_operation_xyz
x,y,z
-x,-y,z
x,-y,1/2-z
-x,y,1/2-z
-x,-y,-z
x,y,-z
-x,y,1/2+z
x,-y,1/2+z
1/2+x,1/2+y,z
1/2-x,1/2-y,z
1/2+x,1/2-y,1/2-z
1/2-x,1/2+y,1/2-z
1/2-x,1/2-y,-z
1/2+x,1/2+y,-z
1/2-x,1/2+y,1/2+z
1/2+x,1/2-y,1/2+z
loop_
_atom_site_type_symbol
_atom_site_label
_atom_site_fract_x
_atom_site_fract_y
_atom_site_fract_z
Si Si1 0.811369 0.457987 0.115660
Si Si2 0.198524 0.558063 0.709935
Si Si3 0.677411 0.677411 0.630401
Si Si4 0.824164 0.175836 0.236841
Si Si5 0.542013 0.188631 0.884340
Si Si6 0.926110 0.426110 0.552962
Si Si7 0.941937 0.698524 0.209935
O O1 0.780886 0.499882 0.164603
O O2 0.723989 0.401994 0.100311
O O3 0.894610 0.394610 0.124268
O O4 0.839113 0.534006 0.078484
O O5 0.149598 0.500000 0.750000
O O6 0.288397 0.592508 0.733900
O O7 0.136451 0.636451 0.692794
O O8 0.750000 0.750000 0.639754
O O9 0.647635 0.647635 0.683401
O O10 0.598006 0.723989 0.600311
O O11 0.750000 0.250000 0.234747
O O12 0.907492 0.211603 0.266100
O O13 0.465994 0.160887 0.921516
O O14 0.500118 0.219114 0.835397
O O15 0.898406 0.398406 0.500000
O O16 0.000000 0.500000 0.551289
O O17 0.000000 0.649598 0.250000
#
# Coordination Sequence:
#
# PCOD8275462 Si02
#       7
#    16  16  16  16  16  16  16
#     4  10  18  29  47  68  92 121 157 196 242 285
#     4  11  19  27  42  65  92 123 157 194 231 280
#     4   9  16  28  41  62  95 130 154 183 230 296
#     4   9  18  28  38  59  94 131 156 184 232 279
#     4  10  18  29  47  68  92 121 157 196 242 285
#     4   9  18  32  48  69  97 123 155 206 257 290
#     4  11  19  27  42  65  92 123 157 194 231 280
#
# _framework density 17.145212999999998
#
# number of rings (size 3 to 8) (size 9 to 14) (size 15 to 20)
#    0.000    2.143    4.286    0.857    0.000    1.429 
#    0.000    0.714    0.000    7.286    0.000    2.000 
#    0.000    0.000    0.000    2.571    0.000    1.143 
#
# Total GULP energy -693732.857242 kJ/mol
# GULP energy per Si atom -12388.086736 kJ/mol
# Density = 1.710619 g / cm^3
# Si number density = 17.145213 Si / 1000 Ang^3
#
#
#
# Elastic Constant Matrix: (Units=GPa)
#
#
# Indices 1 2 3 4 5 6 
#
# 1 62.9511 42.9582 35.3835 0.0000 0.0000 0.0000
# 2 42.9582 62.9511 35.3835 0.0000 0.0000 0.0000
# 3 35.3835 35.3835 97.5714 0.0000 0.0000 0.0000
# 4 0.0000 0.0000 0.0000 10.4709 0.0000 0.0000
# 5 0.0000 0.0000 0.0000 0.0000 10.4709 0.0000
# 6 0.0000 0.0000 0.0000 0.0000 0.0000 32.7782
#
#
#
# Elastic Compliance Matrix: (Units=1/GPa)
#
#
# Indices 1 2 3 4 5 6 
#
# 1 0.031240 -0.018778 -0.004519 0.000000 0.000000 0.000000
# 2 -0.018778 0.031240 -0.004519 0.000000 0.000000 0.000000
# 3 -0.004519 -0.004519 0.013527 0.000000 0.000000 0.000000
# 4 0.000000 0.000000 0.000000 0.095502 0.000000 0.000000
# 5 0.000000 0.000000 0.000000 0.000000 0.095502 0.000000
# 6 0.000000 0.000000 0.000000 0.000000 0.000000 0.030508
#
#
# Mechanical properties :
#
#
# Convention : Reuss Voigt Hill
#
# Bulk Modulus (GPa) = 49.08368 50.10268 49.59318
# Shear Modulus (GPa) = 13.89110 18.06056 15.97583
#
# Velocity S-wave (km/s) = 2.84949 3.24911 3.05584
# Velocity P-wave (km/s) = 6.28622 6.58496 6.43732
#
# Compressibility (1/GPa) = 0.02037337
#
# Stress axis : x y z
#
# Youngs Moduli (GPa) = 32.01049 32.01049 73.92865
#
# Poissons Ratio (x) = 0.60110 0.33409
# Poissons Ratio (y) = 0.60110 0.33409
# Poissons Ratio (z) = 0.14466 0.14466
#
# Static dielectric constant tensor:
#      x y z
#    x 3.195100 0.000000 0.000000 
#    y 0.000000 3.195100 0.000000 
#    z 0.000000 0.000000 3.072620 
# 
# 
# High freq. dielectric constant tensor:
#      x y z
#    x 1.639940 0.000000 0.000000 
#    y 0.000000 1.639940 0.000000 
#    z 0.000000 0.000000 1.633910 
# 
# From -- ./inp_files/64660.got.cif
#   From: 2010.03.12/outbox.cif.g09.slc.cpg/sg66_33_cif.got.tgz:64660.got - 2010.04.10 21:57:39.
