data_PCOD8275041
_publ_section_title
;
Structure prediction by ZEFSAII (Michael W. Deem and Ramdas Pophale) SiO2 
 PCOD8275041
Probable space group: C M M M
;
_chemical_formula_sum "Si O2"
_cell_formula_units_Z 104
_cell_length_a 19.529061
_cell_length_b 26.116233
_cell_length_c 13.458239
_cell_angle_alpha 90.000000
_cell_angle_beta 90.000000
_cell_angle_gamma 90.000000
_cell_volume 6864.045174
_symmetry_space_group_name_H-M "C M M M"
_symmetry_group_IT_number 65
_symmetry_cell_setting 'orthorhombic'
loop_
_space_group_symop_operation_xyz
x,y,z
-x,-y,z
x,-y,-z
-x,y,-z
-x,-y,-z
x,y,-z
-x,y,z
x,-y,z
1/2+x,1/2+y,z
1/2-x,1/2-y,z
1/2+x,1/2-y,-z
1/2-x,1/2+y,-z
1/2-x,1/2-y,-z
1/2+x,1/2+y,-z
1/2-x,1/2+y,z
1/2+x,1/2-y,z
loop_
_atom_site_type_symbol
_atom_site_label
_atom_site_fract_x
_atom_site_fract_y
_atom_site_fract_z
Si Si1 0.921140 0.205843 0.385699
Si Si2 0.423248 0.056740 0.118007
Si Si3 0.826066 0.645594 0.884402
Si Si4 0.920468 0.101193 0.722258
Si Si5 0.828946 0.250999 0.774452
Si Si6 0.918629 0.000000 0.388620
Si Si7 0.168213 0.147707 0.114351
O O1 0.900395 0.211332 0.500000
O O2 0.906946 0.147649 0.353194
O O3 0.874868 0.244966 0.323469
O O4 0.000000 0.220416 0.367668
O O5 0.500000 0.071162 0.153182
O O6 0.369936 0.098414 0.159648
O O7 0.403626 0.000000 0.158008
O O8 0.419842 0.056254 0.000000
O O9 0.848939 0.695959 0.825751
O O10 0.746799 0.632340 0.867609
O O11 0.841431 0.655520 0.000000
O O12 0.878688 0.108887 0.823692
O O13 0.000000 0.096507 0.750609
O O14 0.892756 0.050124 0.669375
O O15 0.750000 0.250000 0.741583
O O16 0.844724 0.206128 0.852998
O O17 0.887783 0.000000 0.500000
O O18 0.000000 0.000000 0.395264
O O19 0.147162 0.142341 0.000000
#
# Coordination Sequence:
#
# PCOD8275041 Si02
#       7
#    16  16  16  16  16   8  16
#     4   9  17  29  44  62  85 110 136 174 223 265
#     4   8  14  25  40  58  81 106 133 170 212 247
#     4   9  16  27  43  62  85 114 145 172 203 248
#     4   9  17  29  44  62  83 109 144 182 215 251
#     4   9  17  28  43  62  85 111 144 176 208 250
#     4   9  16  28  47  65  79 101 139 184 224 258
#     4   9  17  29  42  59  86 119 147 172 206 248
#
# _framework density 15.151415
#
# number of rings (size 3 to 8) (size 9 to 14) (size 15 to 20)
#    0.000    3.154    0.000    1.385    0.000    4.923 
#    1.385    0.385    0.000    4.154    0.000    0.000 
#    0.000    0.000    0.000    3.385    0.000    0.154 
#
# Total GULP energy -644742.231930 kJ/mol
# GULP energy per Si atom -12398.889076 kJ/mol
# Density = 1.511693 g / cm^3
# Si number density = 15.151415 Si / 1000 Ang^3
#
#
#
# Elastic Constant Matrix: (Units=GPa)
#
#
# Indices 1 2 3 4 5 6 
#
# 1 67.7673 58.6434 53.7989 0.0000 0.0000 0.0000
# 2 58.6434 113.2846 56.1473 0.0000 0.0000 0.0000
# 3 53.7989 56.1473 106.6212 0.0000 0.0000 0.0000
# 4 0.0000 0.0000 0.0000 21.0651 0.0000 0.0000
# 5 0.0000 0.0000 0.0000 0.0000 22.9436 0.0000
# 6 0.0000 0.0000 0.0000 0.0000 0.0000 26.2526
#
#
#
# Elastic Compliance Matrix: (Units=1/GPa)
#
#
# Indices 1 2 3 4 5 6 
#
# 1 0.033732 -0.012214 -0.010589 0.000000 0.000000 0.000000
# 2 -0.012214 0.016367 -0.002456 0.000000 0.000000 0.000000
# 3 -0.010589 -0.002456 0.016015 0.000000 0.000000 0.000000
# 4 0.000000 0.000000 0.000000 0.047472 0.000000 0.000000
# 5 0.000000 0.000000 0.000000 0.000000 0.043585 0.000000
# 6 0.000000 0.000000 0.000000 0.000000 0.000000 0.038092
#
#
# Mechanical properties :
#
#
# Convention : Reuss Voigt Hill
#
# Bulk Modulus (GPa) = 64.11421 69.42803 66.77112
# Shear Modulus (GPa) = 19.92199 21.99116 20.95658
#
# Velocity S-wave (km/s) = 3.63003 3.81389 3.72310
# Velocity P-wave (km/s) = 7.74448 8.08187 7.91498
#
# Compressibility (1/GPa) = 0.01559717
#
# Stress axis : x y z
#
# Youngs Moduli (GPa) = 29.64573 61.09720 62.44034
#
# Poissons Ratio (x) = 0.74622 0.66115
# Poissons Ratio (y) = 0.36208 0.15338
# Poissons Ratio (z) = 0.31390 0.15008
#
# Static dielectric constant tensor:
#      x y z
#    x 2.899830 0.000000 0.000000 
#    y 0.000000 3.015120 0.000000 
#    z 0.000000 0.000000 2.761690 
# 
# 
# High freq. dielectric constant tensor:
#      x y z
#    x 1.571640 0.000000 0.000000 
#    y 0.000000 1.578990 0.000000 
#    z 0.000000 0.000000 1.558090 
# 
# From -- ./inp_files/27480.got.cif
#   From: 2010.03.12/outbox.cif.g09.slc.cpg/sg65_14_cif.got.tgz:27480.got - 2010.04.10 20:52:16.
