data_PCOD8275604
_publ_section_title
;
Structure prediction by ZEFSAII (Michael W. Deem and Ramdas Pophale) SiO2 
 PCOD8275604
Probable space group: C C C M
;
_chemical_formula_sum "Si O2"
_cell_formula_units_Z 96
_cell_length_a 17.105299
_cell_length_b 12.988584
_cell_length_c 21.434723
_cell_angle_alpha 90.000000
_cell_angle_beta 90.000000
_cell_angle_gamma 90.000000
_cell_volume 4762.229851
_symmetry_space_group_name_H-M "C C C M"
_symmetry_group_IT_number 66
_symmetry_cell_setting 'orthorhombic'
loop_
_space_group_symop_operation_xyz
x,y,z
-x,-y,z
x,-y,1/2-z
-x,y,1/2-z
-x,-y,-z
x,y,-z
-x,y,1/2+z
x,-y,1/2+z
1/2+x,1/2+y,z
1/2-x,1/2-y,z
1/2+x,1/2-y,1/2-z
1/2-x,1/2+y,1/2-z
1/2-x,1/2-y,-z
1/2+x,1/2+y,-z
1/2-x,1/2+y,1/2+z
1/2+x,1/2-y,1/2+z
loop_
_atom_site_type_symbol
_atom_site_label
_atom_site_fract_x
_atom_site_fract_y
_atom_site_fract_z
Si Si1 0.868474 0.561438 0.931533
Si Si2 0.378205 0.937733 0.189116
Si Si3 0.658142 0.734430 0.873144
Si Si4 0.314891 0.475216 0.069179
Si Si5 0.285908 0.639944 0.161997
Si Si6 0.413720 0.728230 0.758311
O O1 0.905968 0.492102 0.875749
O O2 0.880556 0.683430 0.920459
O O3 0.776534 0.544747 0.933594
O O4 0.904242 0.532312 0.000000
O O5 0.283946 0.928915 0.190000
O O6 0.418416 0.825863 0.194556
O O7 0.405465 0.000000 0.250000
O O8 0.750000 0.750000 0.866309
O O9 0.640405 0.618410 0.895866
O O10 0.619812 0.762619 0.807622
O O11 0.327530 0.583834 0.103845
O O12 0.350518 0.484618 0.000000
O O13 0.250000 0.750000 0.141218
O O14 0.353295 0.645897 0.213949
O O15 0.500000 0.679954 0.750000
#
# Coordination Sequence:
#
# PCOD8275604 Si02
#       6
#    16  16  16  16  16  16
#     4   9  17  30  53  87 116 139 176 230 283 331
#     4  10  18  34  59  86 109 142 180 228 281 331
#     4  10  18  32  56  81 111 143 182 231 281 330
#     4   9  18  31  54  83 108 141 182 233 282 331
#     4   9  20  34  55  81 109 140 186 229 282 330
#     4  11  23  36  52  80 112 148 188 228 280 329
#
# _framework density 20.158624
#
# number of rings (size 3 to 8) (size 9 to 14) (size 15 to 20)
#    0.000    2.333    1.667    2.000    4.667    2.667 
#    0.000    4.167    0.000    6.000    0.000    0.000 
#    0.000    0.000    0.000    0.000    0.000    0.000 
#
# Total GULP energy -594934.217688 kJ/mol
# GULP energy per Si atom -12394.462868 kJ/mol
# Density = 2.011274 g / cm^3
# Si number density = 20.158624 Si / 1000 Ang^3
#
#
#
# Elastic Constant Matrix: (Units=GPa)
#
#
# Indices 1 2 3 4 5 6 
#
# 1 46.1460 15.7509 17.1851 0.0000 0.0000 0.0000
# 2 15.7509 66.0335 47.3268 0.0000 0.0000 0.0000
# 3 17.1851 47.3268 153.4117 0.0000 0.0000 0.0000
# 4 0.0000 0.0000 0.0000 34.8753 0.0000 0.0000
# 5 0.0000 0.0000 0.0000 0.0000 -0.8805 0.0000
# 6 0.0000 0.0000 0.0000 0.0000 0.0000 8.8641
#
#
#
# Elastic Compliance Matrix: (Units=1/GPa)
#
#
# Indices 1 2 3 4 5 6 
#
# 1 0.023754 -0.004826 -0.001172 0.000000 0.000000 0.000000
# 2 -0.004826 0.020423 -0.005760 0.000000 0.000000 0.000000
# 3 -0.001172 -0.005760 0.008427 0.000000 0.000000 0.000000
# 4 0.000000 0.000000 0.000000 0.028674 0.000000 0.000000
# 5 0.000000 0.000000 0.000000 0.000000 -1.135677 0.000000
# 6 0.000000 0.000000 0.000000 0.000000 0.000000 0.112815
#
#
# Mechanical properties :
#
#
# Convention : Reuss Voigt Hill
#
# Bulk Modulus (GPa) = 34.37851 47.34629 40.86240
# Shear Modulus (GPa) = -5.50435 20.92700 7.71133
#
# Velocity S-wave (km/s) = -1.65422 3.22548 1.95797
# Velocity P-wave (km/s) = 3.66639 6.11633 5.04241
#
# Compressibility (1/GPa) = 0.02908794
#
# Stress axis : x y z
#
# Youngs Moduli (GPa) = 42.09799 48.96421 118.67192
#
# Poissons Ratio (x) = 0.23630 0.13910
# Poissons Ratio (y) = 0.20316 0.68353
# Poissons Ratio (z) = 0.04934 0.28203
#
# Static dielectric constant tensor:
#      x y z
#    x 3.224440 0.000000 0.000000 
#    y 0.000000 3.746150 0.000000 
#    z 0.000000 0.000000 3.969230 
# 
# 
# High freq. dielectric constant tensor:
#      x y z
#    x 1.738900 0.000000 0.000000 
#    y 0.000000 1.783530 0.000000 
#    z 0.000000 0.000000 1.790110 
# 
# From -- ./inp_files/58786.got.cif
#   From: 2010.03.12/outbox.cif.g09.slc.cpg/sg66_30_cif.got.tgz:58786.got - 2010.04.10 21:57:39.
