data_PCOD8275779
_publ_section_title
;
Structure prediction by ZEFSAII (Michael W. Deem and Ramdas Pophale) SiO2 
 PCOD8275779
Probable space group: C C C M
;
_chemical_formula_sum "Si O2"
_cell_formula_units_Z 52
_cell_length_a 21.634009
_cell_length_b 5.189215
_cell_length_c 27.062469
_cell_angle_alpha 90.000000
_cell_angle_beta 90.000000
_cell_angle_gamma 90.000000
_cell_volume 3038.128138
_symmetry_space_group_name_H-M "C C C M"
_symmetry_group_IT_number 66
_symmetry_cell_setting 'orthorhombic'
loop_
_space_group_symop_operation_xyz
x,y,z
-x,-y,z
x,-y,1/2-z
-x,y,1/2-z
-x,-y,-z
x,y,-z
-x,y,1/2+z
x,-y,1/2+z
1/2+x,1/2+y,z
1/2-x,1/2-y,z
1/2+x,1/2-y,1/2-z
1/2-x,1/2+y,1/2-z
1/2-x,1/2-y,-z
1/2+x,1/2+y,-z
1/2-x,1/2+y,1/2+z
1/2+x,1/2-y,1/2+z
loop_
_atom_site_type_symbol
_atom_site_label
_atom_site_fract_x
_atom_site_fract_y
_atom_site_fract_z
Si Si1 0.176600 0.749236 0.944622
Si Si2 0.000000 0.000000 0.250000
Si Si3 0.618126 0.739981 0.220497
Si Si4 0.323392 0.250620 0.886204
O O1 0.250000 0.750000 0.947428
O O2 0.153151 0.491931 0.917845
O O3 0.152900 0.994850 0.914061
O O4 0.149017 0.759012 0.000000
O O5 0.955808 0.817664 0.216285
O O6 0.649852 0.500000 0.250000
O O7 0.646012 0.765416 0.166824
O O8 0.631796 0.000000 0.250000
O O9 0.250000 0.250000 0.879724
#
# Coordination Sequence:
#
# PCOD8275779 Si02
#       4
#    16   4  16  16
#     4   9  17  30  47  70 103 136 166 197 234 294
#     4   8  22  36  54  68  96 128 178 206 238 292
#     4  10  20  34  51  72 100 127 170 206 242 291
#     4  10  19  30  48  76 104 133 163 196 251 297
#
# _framework density 17.115803
#
# number of rings (size 3 to 8) (size 9 to 14) (size 15 to 20)
#    0.923    1.538    0.000    3.231    0.000    4.923 
#    0.000    0.000    0.000    0.000    0.000    6.462 
#    0.000    0.000    0.000    0.000    0.000    0.000 
#
# Total GULP energy -322253.490512 kJ/mol
# GULP energy per Si atom -12394.365020 kJ/mol
# Density = 1.707685 g / cm^3
# Si number density = 17.115803 Si / 1000 Ang^3
#
#
#
# Elastic Constant Matrix: (Units=GPa)
#
#
# Indices 1 2 3 4 5 6 
#
# 1 31.1384 25.3538 38.0783 0.0000 0.0000 0.0000
# 2 25.3538 181.2920 95.0800 0.0000 0.0000 0.0000
# 3 38.0783 95.0800 181.0830 0.0000 0.0000 0.0000
# 4 0.0000 0.0000 0.0000 36.5313 0.0000 0.0000
# 5 0.0000 0.0000 0.0000 0.0000 -11.9751 0.0000
# 6 0.0000 0.0000 0.0000 0.0000 0.0000 7.1744
#
#
#
# Elastic Compliance Matrix: (Units=1/GPa)
#
#
# Indices 1 2 3 4 5 6 
#
# 1 0.043644 -0.001781 -0.008242 0.000000 0.000000 0.000000
# 2 -0.001781 0.007685 -0.003661 0.000000 0.000000 0.000000
# 3 -0.008242 -0.003661 0.009178 0.000000 0.000000 0.000000
# 4 0.000000 0.000000 0.000000 0.027374 0.000000 0.000000
# 5 0.000000 0.000000 0.000000 0.000000 -0.083507 0.000000
# 6 0.000000 0.000000 0.000000 0.000000 0.000000 0.139385
#
#
# Mechanical properties :
#
#
# Convention : Reuss Voigt Hill
#
# Bulk Modulus (GPa) = 30.17606 78.94864 54.56235
# Shear Modulus (GPa) = 27.44652 22.01287 24.72969
#
# Velocity S-wave (km/s) = 4.00881 3.59013 3.80524
# Velocity P-wave (km/s) = 6.25270 7.96315 7.15919
#
# Compressibility (1/GPa) = 0.03313885
#
# Stress axis : x y z
#
# Youngs Moduli (GPa) = 22.91257 130.12677 108.96116
#
# Poissons Ratio (x) = 0.23173 0.89811
# Poissons Ratio (y) = 0.04080 0.39886
# Poissons Ratio (z) = 0.18886 0.47633
#
# Static dielectric constant tensor:
#      x y z
#    x 2.737640 0.000000 0.000000 
#    y 0.000000 3.662630 0.000000 
#    z 0.000000 0.000000 3.230770 
# 
# 
# High freq. dielectric constant tensor:
#      x y z
#    x 1.602200 0.000000 0.000000 
#    y 0.000000 1.685300 0.000000 
#    z 0.000000 0.000000 1.665970 
# 
# From -- ./inp_files/44432.got.cif
#   From: 2010.03.12/outbox.cif.g09.slc.cpg/sg66_23_cif.got.tgz:44432.got - 2010.04.10 21:57:39.
