data_PCOD8275455
_publ_section_title
;
Structure prediction by ZEFSAII (Michael W. Deem and Ramdas Pophale) SiO2 
 PCOD8275455
Probable space group: C C C M
;
_chemical_formula_sum "Si O2"
_cell_formula_units_Z 96
_cell_length_a 28.809160
_cell_length_b 25.927606
_cell_length_c 8.719469
_cell_angle_alpha 90.000000
_cell_angle_beta 90.000000
_cell_angle_gamma 90.000000
_cell_volume 6513.029601
_symmetry_space_group_name_H-M "C C C M"
_symmetry_group_IT_number 66
_symmetry_cell_setting 'orthorhombic'
loop_
_space_group_symop_operation_xyz
x,y,z
-x,-y,z
x,-y,1/2-z
-x,y,1/2-z
-x,-y,-z
x,y,-z
-x,y,1/2+z
x,-y,1/2+z
1/2+x,1/2+y,z
1/2-x,1/2-y,z
1/2+x,1/2-y,1/2-z
1/2-x,1/2+y,1/2-z
1/2-x,1/2-y,-z
1/2+x,1/2+y,-z
1/2-x,1/2+y,1/2+z
1/2+x,1/2-y,1/2+z
loop_
_atom_site_type_symbol
_atom_site_label
_atom_site_fract_x
_atom_site_fract_y
_atom_site_fract_z
Si Si1 0.806532 0.145784 0.321153
Si Si2 0.548136 0.278718 0.679111
Si Si3 0.641318 0.258249 0.819126
Si Si4 0.451735 0.600882 0.320617
Si Si5 0.360354 0.445538 0.318832
Si Si6 0.725154 0.195182 0.169295
O O1 0.813564 0.136202 0.500000
O O2 0.839202 0.192587 0.270847
O O3 0.821244 0.094931 0.231024
O O4 0.752243 0.157661 0.285789
O O5 0.500000 0.258830 0.750000
O O6 0.548581 0.266708 0.500000
O O7 0.589263 0.247326 0.762267
O O8 0.555222 0.338912 0.715182
O O9 0.672024 0.207133 0.779931
O O10 0.642991 0.270213 0.000000
O O11 0.500000 0.581151 0.250000
O O12 0.451618 0.589426 0.500000
O O13 0.410797 0.569555 0.242621
O O14 0.345155 0.500000 0.250000
O O15 0.362476 0.448851 0.500000
O O16 0.750000 0.250000 0.163642
O O17 0.726515 0.169850 0.000000
#
# Coordination Sequence:
#
# PCOD8275455 Si02
#       6
#    16  16  16  16  16  16
#     4  11  20  31  46  65  86 108 136 172 213 257
#     4  10  19  29  44  63  87 113 143 176 213 257
#     4  10  18  29  46  65  87 112 140 172 210 251
#     4  10  20  34  49  65  82 105 138 177 220 264
#     4  12  24  37  51  64  82 107 138 178 221 265
#     4   8  16  29  44  64  86 110 136 166 207 251
#
# _framework density 14.739684
#
# number of rings (size 3 to 8) (size 9 to 14) (size 15 to 20)
#    0.000    1.833    1.667    5.500    0.000    5.333 
#    0.000    1.667    0.000    0.000    0.000    0.000 
#    0.000    0.000    0.000    0.000    0.000    0.833 
#
# Total GULP energy -595200.681330 kJ/mol
# GULP energy per Si atom -12400.014194 kJ/mol
# Density = 1.470614 g / cm^3
# Si number density = 14.739684 Si / 1000 Ang^3
#
#
#
# Elastic Constant Matrix: (Units=GPa)
#
#
# Indices 1 2 3 4 5 6 
#
# 1 104.7161 41.0302 39.2363 0.0000 0.0000 0.0000
# 2 41.0302 40.9635 24.9345 0.0000 0.0000 0.0000
# 3 39.2363 24.9345 89.2196 0.0000 0.0000 0.0000
# 4 0.0000 0.0000 0.0000 17.4667 0.0000 0.0000
# 5 0.0000 0.0000 0.0000 0.0000 24.9945 0.0000
# 6 0.0000 0.0000 0.0000 0.0000 0.0000 14.8735
#
#
#
# Elastic Compliance Matrix: (Units=1/GPa)
#
#
# Indices 1 2 3 4 5 6 
#
# 1 0.016428 -0.014529 -0.003164 0.000000 0.000000 0.000000
# 2 -0.014529 0.042265 -0.005423 0.000000 0.000000 0.000000
# 3 -0.003164 -0.005423 0.014115 0.000000 0.000000 0.000000
# 4 0.000000 0.000000 0.000000 0.057252 0.000000 0.000000
# 5 0.000000 0.000000 0.000000 0.000000 0.040009 0.000000
# 6 0.000000 0.000000 0.000000 0.000000 0.000000 0.067234
#
#
# Mechanical properties :
#
#
# Convention : Reuss Voigt Hill
#
# Bulk Modulus (GPa) = 37.62607 49.47791 43.55199
# Shear Modulus (GPa) = 17.10031 20.11349 18.60690
#
# Velocity S-wave (km/s) = 3.40980 3.69803 3.55684
# Velocity P-wave (km/s) = 6.40974 7.20240 6.81760
#
# Compressibility (1/GPa) = 0.02657732
#
# Stress axis : x y z
#
# Youngs Moduli (GPa) = 60.87217 23.66025 70.84513
#
# Poissons Ratio (x) = 0.34375 0.22417
# Poissons Ratio (y) = 0.88439 0.38417
# Poissons Ratio (z) = 0.19261 0.12830
#
# Static dielectric constant tensor:
#      x y z
#    x 3.163930 0.000000 0.000000 
#    y 0.000000 2.601080 0.000000 
#    z 0.000000 0.000000 2.965830 
# 
# 
# High freq. dielectric constant tensor:
#      x y z
#    x 1.564930 0.000000 0.000000 
#    y 0.000000 1.505040 0.000000 
#    z 0.000000 0.000000 1.582990 
# 
# From -- ./inp_files/10462.got.cif
#   From: 2010.03.12/outbox.cif.g09.slc.cpg/sg66_6_cif.got.tgz:10462.got - 2010.04.10 21:57:39.
