data_PCOD8275341
_publ_section_title
;
Structure prediction by ZEFSAII (Michael W. Deem and Ramdas Pophale) SiO2 
 PCOD8275341
Probable space group: C C C M
;
_chemical_formula_sum "Si O2"
_cell_formula_units_Z 80
_cell_length_a 19.827230
_cell_length_b 16.678105
_cell_length_c 12.995018
_cell_angle_alpha 90.000000
_cell_angle_beta 90.000000
_cell_angle_gamma 90.000000
_cell_volume 4297.200659
_symmetry_space_group_name_H-M "C C C M"
_symmetry_group_IT_number 66
_symmetry_cell_setting 'orthorhombic'
loop_
_space_group_symop_operation_xyz
x,y,z
-x,-y,z
x,-y,1/2-z
-x,y,1/2-z
-x,-y,-z
x,y,-z
-x,y,1/2+z
x,-y,1/2+z
1/2+x,1/2+y,z
1/2-x,1/2-y,z
1/2+x,1/2-y,1/2-z
1/2-x,1/2+y,1/2-z
1/2-x,1/2-y,-z
1/2+x,1/2+y,-z
1/2-x,1/2+y,1/2+z
1/2+x,1/2-y,1/2+z
loop_
_atom_site_type_symbol
_atom_site_label
_atom_site_fract_x
_atom_site_fract_y
_atom_site_fract_z
Si Si1 0.750993 0.049223 0.115246
Si Si2 0.597013 0.546732 0.622677
Si Si3 0.224777 0.375301 0.814235
Si Si4 0.152431 0.771400 0.620019
Si Si5 0.963030 0.881543 0.122152
O O1 0.827122 0.066003 0.155615
O O2 0.707245 0.100268 0.196104
O O3 0.733044 0.955159 0.117569
O O4 0.738681 0.081356 0.000000
O O5 0.594134 0.544113 0.500000
O O6 0.578313 0.458298 0.665902
O O7 0.541129 0.612950 0.663880
O O8 0.161270 0.322722 0.853742
O O9 0.292471 0.323043 0.819334
O O10 0.165530 0.786462 0.500000
O O11 0.077047 0.800337 0.652526
O O12 0.966564 0.888948 0.000000
#
# Coordination Sequence:
#
# PCOD8275341 Si02
#       5
#    16  16  16  16  16
#     4  10  18  30  43  61  94 126 157 203 248 293
#     4   8  13  23  40  62  87 119 155 192 239 291
#     4  10  19  27  43  65  86 121 171 202 240 293
#     4  10  17  29  45  62  86 119 164 216 251 276
#     4   8  13  22  41  63  85 118 160 201 241 282
#
# _framework density 18.616769999999999
#
# number of rings (size 3 to 8) (size 9 to 14) (size 15 to 20)
#    0.000    2.800    2.000    3.600    0.000    0.000 
#    0.000    3.000    0.000    0.000    0.000    0.000 
#    0.000    9.600    0.000   57.600    0.000  528.000 
#
# Total GULP energy -495664.338418 kJ/mol
# GULP energy per Si atom -12391.608460 kJ/mol
# Density = 1.857440 g / cm^3
# Si number density = 18.616770 Si / 1000 Ang^3
#
#
#
# Elastic Constant Matrix: (Units=GPa)
#
#
# Indices 1 2 3 4 5 6 
#
# 1 67.0825 48.1133 11.4829 0.0000 0.0000 0.0000
# 2 48.1133 89.3818 23.0359 0.0000 0.0000 0.0000
# 3 11.4829 23.0359 65.0364 0.0000 0.0000 0.0000
# 4 0.0000 0.0000 0.0000 22.9461 0.0000 0.0000
# 5 0.0000 0.0000 0.0000 0.0000 13.4903 0.0000
# 6 0.0000 0.0000 0.0000 0.0000 0.0000 38.2565
#
#
#
# Elastic Compliance Matrix: (Units=1/GPa)
#
#
# Indices 1 2 3 4 5 6 
#
# 1 0.024290 -0.013172 0.000377 0.000000 0.000000 0.000000
# 2 -0.013172 0.019455 -0.004565 0.000000 0.000000 0.000000
# 3 0.000377 -0.004565 0.016926 0.000000 0.000000 0.000000
# 4 0.000000 0.000000 0.000000 0.043580 0.000000 0.000000
# 5 0.000000 0.000000 0.000000 0.000000 0.074127 0.000000
# 6 0.000000 0.000000 0.000000 0.000000 0.000000 0.026139
#
#
# Mechanical properties :
#
#
# Convention : Reuss Voigt Hill
#
# Bulk Modulus (GPa) = 38.53510 42.97388 40.75449
# Shear Modulus (GPa) = 20.17027 24.19646 22.18337
#
# Velocity S-wave (km/s) = 3.29515 3.60906 3.45567
# Velocity P-wave (km/s) = 5.93476 6.36401 6.15313
#
# Compressibility (1/GPa) = 0.02595037
#
# Stress axis : x y z
#
# Youngs Moduli (GPa) = 41.16938 51.40076 59.07900
#
# Poissons Ratio (x) = 0.67706 -0.02227
# Poissons Ratio (y) = 0.54229 0.26971
# Poissons Ratio (z) = -0.01552 0.23466
#
# Static dielectric constant tensor:
#      x y z
#    x 3.482400 0.000000 0.000000 
#    y 0.000000 3.369900 0.000000 
#    z 0.000000 0.000000 3.511110 
# 
# 
# High freq. dielectric constant tensor:
#      x y z
#    x 1.678980 0.000000 0.000000 
#    y 0.000000 1.684070 0.000000 
#    z 0.000000 0.000000 1.750330 
# 
# From -- ./inp_files/28105.got.cif
#   From: 2010.03.12/outbox.cif.g09.slc.cpg/sg66_15_cif.got.tgz:28105.got - 2010.04.10 21:57:39.
