data_PCOD8275348
_publ_section_title
;
Structure prediction by ZEFSAII (Michael W. Deem and Ramdas Pophale) SiO2 
 PCOD8275348
Probable space group: C C C M
;
_chemical_formula_sum "Si O2"
_cell_formula_units_Z 112
_cell_length_a 19.066804
_cell_length_b 20.146045
_cell_length_c 18.378526
_cell_angle_alpha 90.000000
_cell_angle_beta 90.000000
_cell_angle_gamma 90.000000
_cell_volume 7059.572114
_symmetry_space_group_name_H-M "C C C M"
_symmetry_group_IT_number 66
_symmetry_cell_setting 'orthorhombic'
loop_
_space_group_symop_operation_xyz
x,y,z
-x,-y,z
x,-y,1/2-z
-x,y,1/2-z
-x,-y,-z
x,y,-z
-x,y,1/2+z
x,-y,1/2+z
1/2+x,1/2+y,z
1/2-x,1/2-y,z
1/2+x,1/2-y,1/2-z
1/2-x,1/2+y,1/2-z
1/2-x,1/2-y,-z
1/2+x,1/2+y,-z
1/2-x,1/2+y,1/2+z
1/2+x,1/2-y,1/2+z
loop_
_atom_site_type_symbol
_atom_site_label
_atom_site_fract_x
_atom_site_fract_y
_atom_site_fract_z
Si Si1 0.747661 0.848772 0.147311
Si Si2 0.337492 0.043226 0.080395
Si Si3 0.130312 0.394844 0.416373
Si Si4 0.435937 0.793313 0.708109
Si Si5 0.981264 0.573436 0.145684
Si Si6 0.356471 0.260684 0.914324
Si Si7 0.799725 0.693395 0.703169
O O1 0.720011 0.922786 0.132264
O O2 0.696049 0.798926 0.104678
O O3 0.824801 0.830877 0.115627
O O4 0.746390 0.843322 0.234760
O O5 0.418362 0.065376 0.088545
O O6 0.333264 0.965432 0.094277
O O7 0.314196 0.062723 0.000000
O O8 0.134325 0.370969 0.500000
O O9 0.176874 0.348717 0.365566
O O10 0.048946 0.394880 0.392892
O O11 0.500000 0.758650 0.750000
O O12 0.450994 0.873469 0.704192
O O13 0.428077 0.758100 0.629001
O O14 0.367357 0.778455 0.755224
O O15 0.000000 0.500000 0.179314
O O16 0.371973 0.265084 0.000000
O O17 0.750000 0.750000 0.670318
#
# Coordination Sequence:
#
# PCOD8275348 Si02
#       7
#    16  16  16  16  16  16  16
#     4  10  17  29  48  71  93 122 158 209 261 296
#     4  10  18  30  47  71 103 131 164 207 246 290
#     4  10  22  34  46  67  96 138 178 202 233 287
#     4  11  20  33  45  69  97 131 165 203 246 284
#     4  10  19  30  46  66  98 134 169 202 235 279
#     4  10  18  29  48  71  93 124 164 204 252 297
#     4  11  20  36  50  65  94 129 170 212 251 289
#
# _framework density 15.864985000000001
#
# number of rings (size 3 to 8) (size 9 to 14) (size 15 to 20)
#    0.000    1.714    7.143    2.143    0.000    3.429 
#    0.000    0.000    0.000    0.000    0.000    0.000 
#    0.000    2.286    0.000    4.571    0.000    0.000 
#
# Total GULP energy -693806.154641 kJ/mol
# GULP energy per Si atom -12389.395619 kJ/mol
# Density = 1.582888 g / cm^3
# Si number density = 15.864985 Si / 1000 Ang^3
#
#
#
# Elastic Constant Matrix: (Units=GPa)
#
#
# Indices 1 2 3 4 5 6 
#
# 1 70.4940 47.0027 49.3389 0.0000 0.0000 0.0000
# 2 47.0027 58.6173 42.7422 0.0000 0.0000 0.0000
# 3 49.3389 42.7422 111.1061 0.0000 0.0000 0.0000
# 4 0.0000 0.0000 0.0000 21.0067 0.0000 0.0000
# 5 0.0000 0.0000 0.0000 0.0000 26.9893 0.0000
# 6 0.0000 0.0000 0.0000 0.0000 0.0000 31.4656
#
#
#
# Elastic Compliance Matrix: (Units=1/GPa)
#
#
# Indices 1 2 3 4 5 6 
#
# 1 0.033372 -0.022174 -0.006289 0.000000 0.000000 0.000000
# 2 -0.022174 0.038444 -0.004943 0.000000 0.000000 0.000000
# 3 -0.006289 -0.004943 0.013695 0.000000 0.000000 0.000000
# 4 0.000000 0.000000 0.000000 0.047604 0.000000 0.000000
# 5 0.000000 0.000000 0.000000 0.000000 0.037052 0.000000
# 6 0.000000 0.000000 0.000000 0.000000 0.000000 0.031781
#
#
# Mechanical properties :
#
#
# Convention : Reuss Voigt Hill
#
# Bulk Modulus (GPa) = 53.47741 57.59831 55.53786
# Shear Modulus (GPa) = 18.18238 22.63456 20.40847
#
# Velocity S-wave (km/s) = 3.38904 3.78126 3.59051
# Velocity P-wave (km/s) = 7.00679 7.44635 7.22991
#
# Compressibility (1/GPa) = 0.01869948
#
# Stress axis : x y z
#
# Youngs Moduli (GPa) = 29.96517 26.01194 73.02055
#
# Poissons Ratio (x) = 0.57678 0.45926
# Poissons Ratio (y) = 0.66443 0.36091
# Poissons Ratio (z) = 0.18846 0.12857
#
# Static dielectric constant tensor:
#      x y z
#    x 3.060310 0.000000 0.000000 
#    y 0.000000 2.962650 0.000000 
#    z 0.000000 0.000000 3.105060 
# 
# 
# High freq. dielectric constant tensor:
#      x y z
#    x 1.583830 0.000000 0.000000 
#    y 0.000000 1.576370 0.000000 
#    z 0.000000 0.000000 1.617360 
# 
# From -- ./inp_files/43148.got.cif
#   From: 2010.03.12/outbox.cif.g09.slc.cpg/sg66_22_cif.got.tgz:43148.got - 2010.04.10 21:57:39.
