data_PCOD8275837
_publ_section_title
;
Structure prediction by ZEFSAII (Michael W. Deem and Ramdas Pophale) SiO2 
 PCOD8275837
Probable space group: C C C M
;
_chemical_formula_sum "Si O2"
_cell_formula_units_Z 80
_cell_length_a 12.004324
_cell_length_b 15.582380
_cell_length_c 23.600214
_cell_angle_alpha 90.000000
_cell_angle_beta 90.000000
_cell_angle_gamma 90.000000
_cell_volume 4414.560172
_symmetry_space_group_name_H-M "C C C M"
_symmetry_group_IT_number 66
_symmetry_cell_setting 'orthorhombic'
loop_
_space_group_symop_operation_xyz
x,y,z
-x,-y,z
x,-y,1/2-z
-x,y,1/2-z
-x,-y,-z
x,y,-z
-x,y,1/2+z
x,-y,1/2+z
1/2+x,1/2+y,z
1/2-x,1/2-y,z
1/2+x,1/2-y,1/2-z
1/2-x,1/2+y,1/2-z
1/2-x,1/2-y,-z
1/2+x,1/2+y,-z
1/2-x,1/2+y,1/2+z
1/2+x,1/2-y,1/2+z
loop_
_atom_site_type_symbol
_atom_site_label
_atom_site_fract_x
_atom_site_fract_y
_atom_site_fract_z
Si Si1 0.575522 0.299148 0.804080
Si Si2 0.681622 0.874639 0.290842
Si Si3 0.739273 0.849302 0.936834
Si Si4 0.068351 0.916015 0.376431
Si Si5 0.296716 0.940910 0.670282
O O1 0.500000 0.316171 0.750000
O O2 0.597478 0.197777 0.813820
O O3 0.691511 0.346963 0.796649
O O4 0.512324 0.338461 0.858037
O O5 0.655582 0.889756 0.224239
O O6 0.660864 0.960931 0.327056
O O7 0.750000 0.750000 0.921678
O O8 0.865027 0.887074 0.932861
O O9 0.662242 0.895875 0.888721
O O10 0.691053 0.864947 0.000000
O O11 0.160862 0.937630 0.327732
O O12 0.000000 0.000000 0.391684
#
# Coordination Sequence:
#
# PCOD8275837 Si02
#       5
#    16  16  16  16  16
#     4  11  19  28  49  75 105 139 171 204 260 314
#     4  10  20  31  48  76 109 141 168 209 263 325
#     4   9  19  34  56  79 100 133 178 223 264 304
#     4  10  19  31  51  78 101 132 171 218 257 307
#     4   9  19  33  49  71 107 134 168 215 259 311
#
# _framework density 18.121852000000001
#
# number of rings (size 3 to 8) (size 9 to 14) (size 15 to 20)
#    1.200    1.000    4.000    0.000    5.600    0.800 
#    0.000    2.000    0.000    1.200    0.000    7.000 
#    0.000    0.000    0.000    0.000    0.000    0.000 
#
# Total GULP energy -495570.363628 kJ/mol
# GULP energy per Si atom -12389.259091 kJ/mol
# Density = 1.808061 g / cm^3
# Si number density = 18.121852 Si / 1000 Ang^3
#
#
#
# Elastic Constant Matrix: (Units=GPa)
#
#
# Indices 1 2 3 4 5 6 
#
# 1 20.6668 7.8899 -3.4958 0.0000 0.0000 0.0000
# 2 7.8899 128.0433 53.4649 0.0000 0.0000 0.0000
# 3 -3.4958 53.4649 95.7973 0.0000 0.0000 0.0000
# 4 0.0000 0.0000 0.0000 18.4091 0.0000 0.0000
# 5 0.0000 0.0000 0.0000 0.0000 4.6302 0.0000
# 6 0.0000 0.0000 0.0000 0.0000 0.0000 18.5499
#
#
#
# Elastic Compliance Matrix: (Units=1/GPa)
#
#
# Indices 1 2 3 4 5 6 
#
# 1 0.051143 -0.005125 0.004727 0.000000 0.000000 0.000000
# 2 -0.005125 0.010696 -0.006157 0.000000 0.000000 0.000000
# 3 0.004727 -0.006157 0.014047 0.000000 0.000000 0.000000
# 4 0.000000 0.000000 0.000000 0.054321 0.000000 0.000000
# 5 0.000000 0.000000 0.000000 0.000000 0.215973 0.000000
# 6 0.000000 0.000000 0.000000 0.000000 0.000000 0.053909
#
#
# Mechanical properties :
#
#
# Convention : Reuss Voigt Hill
#
# Bulk Modulus (GPa) = 15.92958 40.02505 27.97732
# Shear Modulus (GPa) = 11.51742 20.76107 16.13924
#
# Velocity S-wave (km/s) = 2.52376 3.38840 2.98752
# Velocity P-wave (km/s) = 4.15954 6.11906 5.23186
#
# Compressibility (1/GPa) = 0.06277628
#
# Stress axis : x y z
#
# Youngs Moduli (GPa) = 19.55307 93.48919 71.18809
#
# Poissons Ratio (x) = 0.47913 -0.33648
# Poissons Ratio (y) = 0.10021 0.43829
# Poissons Ratio (z) = -0.09242 0.57559
#
# Static dielectric constant tensor:
#      x y z
#    x 3.128860 0.000000 0.000000 
#    y 0.000000 3.471560 0.000000 
#    z 0.000000 0.000000 2.976760 
# 
# 
# High freq. dielectric constant tensor:
#      x y z
#    x 1.680230 0.000000 0.000000 
#    y 0.000000 1.718720 0.000000 
#    z 0.000000 0.000000 1.663100 
# 
# From -- ./inp_files/63517.got.cif
#   From: 2010.03.12/outbox.cif.g09.slc.cpg/sg66_32_cif.got.tgz:63517.got - 2010.04.10 21:57:39.
