data_PCOD8275467
_publ_section_title
;
Structure prediction by ZEFSAII (Michael W. Deem and Ramdas Pophale) SiO2 
 PCOD8275467
Probable space group: C C C M
;
_chemical_formula_sum "Si O2"
_cell_formula_units_Z 96
_cell_length_a 23.407143
_cell_length_b 14.034821
_cell_length_c 16.819086
_cell_angle_alpha 90.000000
_cell_angle_beta 90.000000
_cell_angle_gamma 90.000000
_cell_volume 5525.323082
_symmetry_space_group_name_H-M "C C C M"
_symmetry_group_IT_number 66
_symmetry_cell_setting 'orthorhombic'
loop_
_space_group_symop_operation_xyz
x,y,z
-x,-y,z
x,-y,1/2-z
-x,y,1/2-z
-x,-y,-z
x,y,-z
-x,y,1/2+z
x,-y,1/2+z
1/2+x,1/2+y,z
1/2-x,1/2-y,z
1/2+x,1/2-y,1/2-z
1/2-x,1/2+y,1/2-z
1/2-x,1/2-y,-z
1/2+x,1/2+y,-z
1/2-x,1/2+y,1/2+z
1/2+x,1/2-y,1/2+z
loop_
_atom_site_type_symbol
_atom_site_label
_atom_site_fract_x
_atom_site_fract_y
_atom_site_fract_z
Si Si1 0.012963 0.892871 0.406625
Si Si2 0.878905 0.800389 0.830149
Si Si3 0.447892 0.753969 0.810549
Si Si4 0.941686 0.445658 0.093142
Si Si5 0.851808 0.602368 0.906793
Si Si6 0.270516 0.356871 0.912215
O O1 0.016516 0.881036 0.500000
O O2 0.072650 0.863895 0.369268
O O3 0.962434 0.826071 0.374996
O O4 0.000000 0.000000 0.380030
O O5 0.891895 0.784069 0.736734
O O6 0.878328 0.695931 0.867905
O O7 0.820411 0.859506 0.845959
O O8 0.500000 0.770576 0.750000
O O9 0.434493 0.851279 0.855558
O O10 0.888751 0.511735 0.119092
O O11 0.000000 0.500000 0.114460
O O12 0.940082 0.419569 0.000000
O O13 0.785223 0.583607 0.882879
O O14 0.856474 0.620327 0.000000
O O15 0.250000 0.250000 0.922724
O O16 0.291824 0.392670 0.000000
#
# Coordination Sequence:
#
# PCOD8275467 Si02
#       6
#    16  16  16  16  16  16
#     4  10  20  34  52  71  91 122 165 208 247 290
#     4  10  18  29  49  73 100 128 155 201 259 297
#     4  10  21  31  45  70 101 132 160 199 251 305
#     4  10  19  31  48  71 104 144 176 200 238 300
#     4   9  17  29  49  76 102 130 166 205 239 282
#     4   8  14  27  48  72  95 121 160 205 242 279
#
# _framework density 17.374549999999999
#
# number of rings (size 3 to 8) (size 9 to 14) (size 15 to 20)
#    0.000    2.500    0.000    5.000    0.000    6.667 
#    0.000    0.000    0.000   12.000    0.000    0.000 
#    0.000   18.667    0.000    0.667    0.000    0.000 
#
# Total GULP energy -594979.087668 kJ/mol
# GULP energy per Si atom -12395.397660 kJ/mol
# Density = 1.733500 g / cm^3
# Si number density = 17.374550 Si / 1000 Ang^3
#
#
#
# Elastic Constant Matrix: (Units=GPa)
#
#
# Indices 1 2 3 4 5 6 
#
# 1 123.4788 55.2397 47.1749 0.0000 0.0000 0.0000
# 2 55.2397 104.9294 45.2218 0.0000 0.0000 0.0000
# 3 47.1749 45.2218 53.7985 0.0000 0.0000 0.0000
# 4 0.0000 0.0000 0.0000 15.4326 0.0000 0.0000
# 5 0.0000 0.0000 0.0000 0.0000 28.3868 0.0000
# 6 0.0000 0.0000 0.0000 0.0000 0.0000 28.9829
#
#
#
# Elastic Compliance Matrix: (Units=1/GPa)
#
#
# Indices 1 2 3 4 5 6 
#
# 1 0.012742 -0.002968 -0.008678 0.000000 0.000000 0.000000
# 2 -0.002968 0.015635 -0.010540 0.000000 0.000000 0.000000
# 3 -0.008678 -0.010540 0.035058 0.000000 0.000000 0.000000
# 4 0.000000 0.000000 0.000000 0.064798 0.000000 0.000000
# 5 0.000000 0.000000 0.000000 0.000000 0.035228 0.000000
# 6 0.000000 0.000000 0.000000 0.000000 0.000000 0.034503
#
#
# Mechanical properties :
#
#
# Convention : Reuss Voigt Hill
#
# Bulk Modulus (GPa) = 52.46067 64.16438 58.31252
# Shear Modulus (GPa) = 20.10537 23.53182 21.81859
#
# Velocity S-wave (km/s) = 3.40542 3.68419 3.54754
# Velocity P-wave (km/s) = 6.76180 7.42347 7.10035
#
# Compressibility (1/GPa) = 0.01906190
#
# Stress axis : x y z
#
# Youngs Moduli (GPa) = 78.48201 63.95873 28.52439
#
# Poissons Ratio (x) = 0.18981 0.24755
# Poissons Ratio (y) = 0.23291 0.30065
# Poissons Ratio (z) = 0.68110 0.67414
#
# Static dielectric constant tensor:
#      x y z
#    x 3.858210 0.000000 0.000000 
#    y 0.000000 3.188250 0.000000 
#    z 0.000000 0.000000 3.282560 
# 
# 
# High freq. dielectric constant tensor:
#      x y z
#    x 1.667440 0.000000 0.000000 
#    y 0.000000 1.654720 0.000000 
#    z 0.000000 0.000000 1.664630 
# 
# From -- ./inp_files/43557.got.cif
#   From: 2010.03.12/outbox.cif.g09.slc.cpg/sg66_22_cif.got.tgz:43557.got - 2010.04.10 21:57:39.
