data_PCOD8275438
_publ_section_title
;
Structure prediction by ZEFSAII (Michael W. Deem and Ramdas Pophale) SiO2 
 PCOD8275438
Probable space group: C C C M
;
_chemical_formula_sum "Si O2"
_cell_formula_units_Z 68
_cell_length_a 5.291903
_cell_length_b 38.257239
_cell_length_c 16.396633
_cell_angle_alpha 90.000000
_cell_angle_beta 90.000000
_cell_angle_gamma 90.000000
_cell_volume 3319.557343
_symmetry_space_group_name_H-M "C C C M"
_symmetry_group_IT_number 66
_symmetry_cell_setting 'orthorhombic'
loop_
_space_group_symop_operation_xyz
x,y,z
-x,-y,z
x,-y,1/2-z
-x,y,1/2-z
-x,-y,-z
x,y,-z
-x,y,1/2+z
x,-y,1/2+z
1/2+x,1/2+y,z
1/2-x,1/2-y,z
1/2+x,1/2-y,1/2-z
1/2-x,1/2+y,1/2-z
1/2-x,1/2-y,-z
1/2+x,1/2+y,-z
1/2-x,1/2+y,1/2+z
1/2+x,1/2-y,1/2+z
loop_
_atom_site_type_symbol
_atom_site_label
_atom_site_fract_x
_atom_site_fract_y
_atom_site_fract_z
Si Si1 0.269585 0.063602 0.832350
Si Si2 0.740507 0.210743 0.403133
Si Si3 0.733425 0.407135 0.154994
Si Si4 0.741328 0.670943 0.596820
Si Si5 0.500000 0.000000 0.750000
O O1 0.509802 0.077047 0.885258
O O2 0.250452 0.087580 0.751809
O O3 0.007204 0.070566 0.880515
O O4 0.314803 0.023341 0.806424
O O5 0.725128 0.211968 0.500000
O O6 0.750000 0.250000 0.367695
O O7 0.493282 0.190261 0.370071
O O8 0.996270 0.192181 0.373816
O O9 0.711913 0.366733 0.136063
O O10 0.750229 0.667149 0.500000
#
# Coordination Sequence:
#
# PCOD8275438 Si02
#       5
#    16  16  16  16   4
#     4   9  18  29  48  68  88 112 142 184 220 255
#     4   9  17  28  42  63  88 114 148 187 223 256
#     4   9  17  29  42  68  91 113 145 174 220 263
#     4  10  18  28  45  66  91 118 143 178 223 267
#     4   8  16  30  48  74  90 106 144 190 236 252
#
# _framework density 20.484658
#
# number of rings (size 3 to 8) (size 9 to 14) (size 15 to 20)
#    0.000    3.059    0.000    2.118    0.000   10.353 
#    0.000    0.000    0.000    0.000    0.000   93.059 
#    0.000    0.000    0.000    0.000    0.000    0.000 
#
# Total GULP energy -421260.930013 kJ/mol
# GULP energy per Si atom -12390.027353 kJ/mol
# Density = 2.043803 g / cm^3
# Si number density = 20.484658 Si / 1000 Ang^3
#
#
#
# Elastic Constant Matrix: (Units=GPa)
#
#
# Indices 1 2 3 4 5 6 
#
# 1 237.9802 96.6435 9.0154 0.0000 0.0000 0.0000
# 2 96.6435 201.0805 17.7077 0.0000 0.0000 0.0000
# 3 9.0154 17.7077 9.3279 0.0000 0.0000 0.0000
# 4 0.0000 0.0000 0.0000 44.2635 0.0000 0.0000
# 5 0.0000 0.0000 0.0000 0.0000 5.7654 0.0000
# 6 0.0000 0.0000 0.0000 0.0000 0.0000 41.4384
#
#
#
# Elastic Compliance Matrix: (Units=1/GPa)
#
#
# Indices 1 2 3 4 5 6 
#
# 1 0.005222 -0.002480 -0.000339 0.000000 0.000000 0.000000
# 2 -0.002480 0.007149 -0.011175 0.000000 0.000000 0.000000
# 3 -0.000339 -0.011175 0.128746 0.000000 0.000000 0.000000
# 4 0.000000 0.000000 0.000000 0.022592 0.000000 0.000000
# 5 0.000000 0.000000 0.000000 0.000000 0.173450 0.000000
# 6 0.000000 0.000000 0.000000 0.000000 0.000000 0.024132
#
#
# Mechanical properties :
#
#
# Convention : Reuss Voigt Hill
#
# Bulk Modulus (GPa) = 8.83944 77.23574 43.03759
# Shear Modulus (GPa) = 11.70992 39.96159 25.83576
#
# Velocity S-wave (km/s) = 2.39350 4.42158 3.55523
# Velocity P-wave (km/s) = 3.45875 7.99082 6.15696
#
# Compressibility (1/GPa) = 0.11312936
#
# Stress axis : x y z
#
# Youngs Moduli (GPa) = 191.49847 139.87771 7.76724
#
# Poissons Ratio (x) = 0.34689 0.00264
# Poissons Ratio (y) = 0.47490 0.08680
# Poissons Ratio (z) = 0.06497 1.56308
#
# Static dielectric constant tensor:
#      x y z
#    x 6.183840 0.000000 0.000000 
#    y 0.000000 3.702830 0.000000 
#    z 0.000000 0.000000 2.926930 
# 
# 
# High freq. dielectric constant tensor:
#      x y z
#    x 1.839360 0.000000 0.000000 
#    y 0.000000 1.807610 0.000000 
#    z 0.000000 0.000000 1.715520 
# 
# From -- ./inp_files/54247.got.cif
#   From: 2010.03.12/outbox.cif.g09.slc.cpg/sg66_28_cif.got.tgz:54247.got - 2010.04.10 21:57:39.
