data_PCOD8275463
_publ_section_title
;
Structure prediction by ZEFSAII (Michael W. Deem and Ramdas Pophale) SiO2 
 PCOD8275463
Probable space group: C C C M
;
_chemical_formula_sum "Si O2"
_cell_formula_units_Z 116
_cell_length_a 14.434714
_cell_length_b 25.230475
_cell_length_c 18.530282
_cell_angle_alpha 90.000000
_cell_angle_beta 90.000000
_cell_angle_gamma 90.000000
_cell_volume 6748.630322
_symmetry_space_group_name_H-M "C C C M"
_symmetry_group_IT_number 66
_symmetry_cell_setting 'orthorhombic'
loop_
_space_group_symop_operation_xyz
x,y,z
-x,-y,z
x,-y,1/2-z
-x,y,1/2-z
-x,-y,-z
x,y,-z
-x,y,1/2+z
x,-y,1/2+z
1/2+x,1/2+y,z
1/2-x,1/2-y,z
1/2+x,1/2-y,1/2-z
1/2-x,1/2+y,1/2-z
1/2-x,1/2-y,-z
1/2+x,1/2+y,-z
1/2-x,1/2+y,1/2+z
1/2+x,1/2-y,1/2+z
loop_
_atom_site_type_symbol
_atom_site_label
_atom_site_fract_x
_atom_site_fract_y
_atom_site_fract_z
Si Si1 0.741148 0.633724 0.822406
Si Si2 0.704271 0.440811 0.081075
Si Si3 0.159497 0.714927 0.418079
Si Si4 0.532376 0.624161 0.419466
Si Si5 0.563999 0.704697 0.817361
Si Si6 0.133797 0.053682 0.080625
Si Si7 0.000000 0.500000 0.750000
Si Si8 0.176651 0.447149 0.285930
O O1 0.814334 0.661388 0.875899
O O2 0.660728 0.674965 0.795205
O O3 0.696302 0.585882 0.864865
O O4 0.798339 0.606800 0.757148
O O5 0.639171 0.390043 0.094330
O O6 0.641622 0.491941 0.097780
O O7 0.791452 0.438083 0.132820
O O8 0.743359 0.441487 0.000000
O O9 0.121887 0.703309 0.500000
O O10 0.250000 0.750000 0.426216
O O11 0.084191 0.745062 0.368548
O O12 0.518454 0.647735 0.500000
O O13 0.501773 0.666264 0.361612
O O14 0.472984 0.570379 0.411054
O O15 0.500000 0.722782 0.750000
O O16 0.169621 0.066565 0.000000
O O17 0.933514 0.540536 0.705822
O O18 0.223742 0.500000 0.250000
#
# Coordination Sequence:
#
# PCOD8275463 Si02
#       8
#    16  16  16  16  16  16   4  16
#     4  10  18  31  52  74 101 134 175 217 260 313
#     4  10  18  29  47  72 101 137 174 200 239 306
#     4   9  18  33  53  77 102 131 173 223 271 308
#     4   9  17  27  43  68 105 145 172 200 240 295
#     4  10  19  31  47  76 109 139 169 211 259 315
#     4   9  15  25  42  69 104 138 172 208 242 287
#     4   8  20  36  54  68  94 120 166 208 268 288
#     4  10  19  35  51  70  95 128 166 211 263 309
#
# _framework density 17.188673000000001
#
# number of rings (size 3 to 8) (size 9 to 14) (size 15 to 20)
#    0.414    2.069    1.379    2.069    0.000    4.966 
#    1.241    0.345    0.000    0.000    0.000    0.000 
#    0.000    7.172    0.000    0.000    0.000    0.000 
#
# Total GULP energy -718579.947715 kJ/mol
# GULP energy per Si atom -12389.309443 kJ/mol
# Density = 1.714955 g / cm^3
# Si number density = 17.188673 Si / 1000 Ang^3
#
#
#
# Elastic Constant Matrix: (Units=GPa)
#
#
# Indices 1 2 3 4 5 6 
#
# 1 86.7441 26.7299 60.5199 0.0000 0.0000 0.0000
# 2 26.7299 53.8210 39.4958 0.0000 0.0000 0.0000
# 3 60.5199 39.4958 114.8471 0.0000 0.0000 0.0000
# 4 0.0000 0.0000 0.0000 20.2052 0.0000 0.0000
# 5 0.0000 0.0000 0.0000 0.0000 17.6396 0.0000
# 6 0.0000 0.0000 0.0000 0.0000 0.0000 19.3670
#
#
#
# Elastic Compliance Matrix: (Units=1/GPa)
#
#
# Indices 1 2 3 4 5 6 
#
# 1 0.018525 -0.002724 -0.008825 0.000000 0.000000 0.000000
# 2 -0.002724 0.025252 -0.007249 0.000000 0.000000 0.000000
# 3 -0.008825 -0.007249 0.015850 0.000000 0.000000 0.000000
# 4 0.000000 0.000000 0.000000 0.049492 0.000000 0.000000
# 5 0.000000 0.000000 0.000000 0.000000 0.056691 0.000000
# 6 0.000000 0.000000 0.000000 0.000000 0.000000 0.051634
#
#
# Mechanical properties :
#
#
# Convention : Reuss Voigt Hill
#
# Bulk Modulus (GPa) = 45.38876 56.54482 50.96679
# Shear Modulus (GPa) = 19.05605 20.02015 19.53810
#
# Velocity S-wave (km/s) = 3.33324 3.41652 3.37513
# Velocity P-wave (km/s) = 6.42476 6.96645 6.70108
#
# Compressibility (1/GPa) = 0.02203188
#
# Stress axis : x y z
#
# Youngs Moduli (GPa) = 53.98236 39.60019 63.08965
#
# Poissons Ratio (x) = 0.10787 0.55676
# Poissons Ratio (y) = 0.14705 0.45732
# Poissons Ratio (z) = 0.47639 0.28705
#
# Static dielectric constant tensor:
#      x y z
#    x 2.993010 0.000000 0.000000 
#    y 0.000000 3.103840 0.000000 
#    z 0.000000 0.000000 3.252280 
# 
# 
# High freq. dielectric constant tensor:
#      x y z
#    x 1.635320 0.000000 0.000000 
#    y 0.000000 1.647420 0.000000 
#    z 0.000000 0.000000 1.662810 
# 
# From -- ./inp_files/40797.got.cif
#   From: 2010.03.12/outbox.cif.g09.slc.cpg/sg66_21_cif.got.tgz:40797.got - 2010.04.10 21:57:39.
