data_PCOD8275327
_publ_section_title
;
Structure prediction by ZEFSAII (Michael W. Deem and Ramdas Pophale) SiO2 
 PCOD8275327
Probable space group: C C C M
;
_chemical_formula_sum "Si O2"
_cell_formula_units_Z 104
_cell_length_a 17.430833
_cell_length_b 10.579707
_cell_length_c 29.251142
_cell_angle_alpha 90.000000
_cell_angle_beta 90.000000
_cell_angle_gamma 90.000000
_cell_volume 5394.293948
_symmetry_space_group_name_H-M "C C C M"
_symmetry_group_IT_number 66
_symmetry_cell_setting 'orthorhombic'
loop_
_space_group_symop_operation_xyz
x,y,z
-x,-y,z
x,-y,1/2-z
-x,y,1/2-z
-x,-y,-z
x,y,-z
-x,y,1/2+z
x,-y,1/2+z
1/2+x,1/2+y,z
1/2-x,1/2-y,z
1/2+x,1/2-y,1/2-z
1/2-x,1/2+y,1/2-z
1/2-x,1/2-y,-z
1/2+x,1/2+y,-z
1/2-x,1/2+y,1/2+z
1/2+x,1/2-y,1/2+z
loop_
_atom_site_type_symbol
_atom_site_label
_atom_site_fract_x
_atom_site_fract_y
_atom_site_fract_z
Si Si1 0.741005 0.037513 0.847315
Si Si2 0.750000 0.250000 0.779241
Si Si3 0.589758 0.014373 0.000000
Si Si4 0.950488 0.327172 0.364056
Si Si5 0.338772 0.733931 0.500000
Si Si6 0.363959 0.886053 0.282083
Si Si7 0.898244 0.592104 0.598423
Si Si8 0.675265 0.339784 0.402772
O O1 0.777186 0.130822 0.809696
O O2 0.682011 0.122171 0.877089
O O3 0.697803 0.925192 0.820665
O O4 0.803607 0.976542 0.881575
O O5 0.675223 0.222660 0.748290
O O6 0.613521 0.099152 0.043813
O O7 0.500000 0.000000 0.000000
O O8 0.624617 0.873634 0.000000
O O9 0.941622 0.344849 0.308951
O O10 0.921034 0.447789 0.391977
O O11 0.897348 0.208010 0.374364
O O12 0.038990 0.310283 0.380074
O O13 0.250000 0.750000 0.500000
O O14 0.357924 0.652604 0.454610
O O15 0.389060 0.000000 0.250000
O O16 0.750000 0.250000 0.400197
#
# Coordination Sequence:
#
# PCOD8275327 Si02
#       8
#    16   8   8  16   8  16  16  16
#     4  10  20  33  52  73 104 138 180 228 280 330
#     4  10  20  36  52  71  94 139 194 230 276 342
#     4  12  16  28  46  76 115 146 179 204 270 361
#     4  10  17  28  46  72 109 136 170 211 277 333
#     4  10  18  24  40  72 105 140 177 216 266 323
#     4   9  17  30  48  69  94 129 167 219 263 322
#     4  10  18  29  46  76 110 146 165 217 273 336
#     4  11  16  28  46  73 106 140 174 223 267 335
#
# _framework density 19.279630000000001
#
# number of rings (size 3 to 8) (size 9 to 14) (size 15 to 20)
#    0.000    1.846    6.154    1.846    0.000    0.000 
#    0.000   13.077    0.000    2.769    0.000    4.308 
#    0.000    3.692    0.000    0.000    0.000    0.000 
#
# Total GULP energy -644328.751202 kJ/mol
# GULP energy per Si atom -12390.937523 kJ/mol
# Density = 1.923575 g / cm^3
# Si number density = 19.279630 Si / 1000 Ang^3
#
#
#
# Elastic Constant Matrix: (Units=GPa)
#
#
# Indices 1 2 3 4 5 6 
#
# 1 88.5911 39.8126 52.9712 0.0000 0.0000 0.0000
# 2 39.8126 48.9140 44.2722 0.0000 0.0000 0.0000
# 3 52.9712 44.2722 169.1481 0.0000 0.0000 0.0000
# 4 0.0000 0.0000 0.0000 25.2095 0.0000 0.0000
# 5 0.0000 0.0000 0.0000 0.0000 20.8344 0.0000
# 6 0.0000 0.0000 0.0000 0.0000 0.0000 26.2086
#
#
#
# Elastic Compliance Matrix: (Units=1/GPa)
#
#
# Indices 1 2 3 4 5 6 
#
# 1 0.018531 -0.012882 -0.002431 0.000000 0.000000 0.000000
# 2 -0.012882 0.035746 -0.005322 0.000000 0.000000 0.000000
# 3 -0.002431 -0.005322 0.008066 0.000000 0.000000 0.000000
# 4 0.000000 0.000000 0.000000 0.039668 0.000000 0.000000
# 5 0.000000 0.000000 0.000000 0.000000 0.047997 0.000000
# 6 0.000000 0.000000 0.000000 0.000000 0.000000 0.038155
#
#
# Mechanical properties :
#
#
# Convention : Reuss Voigt Hill
#
# Bulk Modulus (GPa) = 47.45546 64.52946 55.99246
# Shear Modulus (GPa) = 21.14536 25.75698 23.45117
#
# Velocity S-wave (km/s) = 3.31535 3.65906 3.49143
# Velocity P-wave (km/s) = 6.27081 7.16900 6.73490
#
# Compressibility (1/GPa) = 0.02107239
#
# Stress axis : x y z
#
# Youngs Moduli (GPa) = 53.96408 27.97522 123.97189
#
# Poissons Ratio (x) = 0.36038 0.30144
# Poissons Ratio (y) = 0.69517 0.65975
# Poissons Ratio (z) = 0.13121 0.14888
#
# Static dielectric constant tensor:
#      x y z
#    x 3.521960 0.000000 0.000000 
#    y 0.000000 3.037520 0.000000 
#    z 0.000000 0.000000 5.235850 
# 
# 
# High freq. dielectric constant tensor:
#      x y z
#    x 1.721810 0.000000 0.000000 
#    y 0.000000 1.690710 0.000000 
#    z 0.000000 0.000000 1.778880 
# 
# From -- ./inp_files/65297.got.cif
#   From: 2010.03.12/outbox.cif.g09.slc.cpg/sg66_33_cif.got.tgz:65297.got - 2010.04.10 21:57:39.
