data_PCOD8275708
_publ_section_title
;
Structure prediction by ZEFSAII (Michael W. Deem and Ramdas Pophale) SiO2 
 PCOD8275708
Probable space group: C C C M
;
_chemical_formula_sum "Si O2"
_cell_formula_units_Z 80
_cell_length_a 28.570015
_cell_length_b 22.932324
_cell_length_c 8.900942
_cell_angle_alpha 90.000000
_cell_angle_beta 90.000000
_cell_angle_gamma 90.000000
_cell_volume 5831.691059
_symmetry_space_group_name_H-M "C C C M"
_symmetry_group_IT_number 66
_symmetry_cell_setting 'orthorhombic'
loop_
_space_group_symop_operation_xyz
x,y,z
-x,-y,z
x,-y,1/2-z
-x,y,1/2-z
-x,-y,-z
x,y,-z
-x,y,1/2+z
x,-y,1/2+z
1/2+x,1/2+y,z
1/2-x,1/2-y,z
1/2+x,1/2-y,1/2-z
1/2-x,1/2+y,1/2-z
1/2-x,1/2-y,-z
1/2+x,1/2+y,-z
1/2-x,1/2+y,1/2+z
1/2+x,1/2-y,1/2+z
loop_
_atom_site_type_symbol
_atom_site_label
_atom_site_fract_x
_atom_site_fract_y
_atom_site_fract_z
Si Si1 0.870609 0.131156 0.325076
Si Si2 0.223287 0.937994 0.674193
Si Si3 0.228394 0.340117 0.668647
Si Si4 0.823973 0.769526 0.330514
Si Si5 0.450422 0.438946 0.320724
O O1 0.883556 0.127780 0.500000
O O2 0.826377 0.090783 0.284533
O O3 0.860269 0.198439 0.280703
O O4 0.913648 0.110444 0.223831
O O5 0.228742 0.947756 0.500000
O O6 0.266217 0.896824 0.727003
O O7 0.227177 0.000000 0.750000
O O8 0.217793 0.361510 0.500000
O O9 0.186352 0.297106 0.723867
O O10 0.275818 0.304045 0.672196
O O11 0.844257 0.769202 0.500000
O O12 0.433288 0.500000 0.250000
O O13 0.500000 0.421152 0.250000
O O14 0.454396 0.444685 0.500000
#
# Coordination Sequence:
#
# PCOD8275708 Si02
#       5
#    16  16  16  16  16
#     4  10  19  29  41  58  76  96 124 158 192 227
#     4  10  19  27  37  53  74  99 127 158 191 224
#     4   8  14  25  39  53  72  95 121 151 185 223
#     4   8  14  25  40  56  72  94 120 150 187 223
#     4  11  21  33  46  58  74  96 123 156 194 235
#
# _framework density 13.718147
#
# number of rings (size 3 to 8) (size 9 to 14) (size 15 to 20)
#    0.000    2.600    0.000    5.400    0.000    4.800 
#    0.000    4.000    0.000    0.000    0.000    0.000 
#    0.000    0.000    0.000    0.000    0.000    1.000 
#
# Total GULP energy -495780.854202 kJ/mol
# GULP energy per Si atom -12394.521355 kJ/mol
# Density = 1.368692 g / cm^3
# Si number density = 13.718147 Si / 1000 Ang^3
#
#
#
# Elastic Constant Matrix: (Units=GPa)
#
#
# Indices 1 2 3 4 5 6 
#
# 1 46.6610 40.5212 35.4031 0.0000 0.0000 0.0000
# 2 40.5212 83.7651 50.3183 0.0000 0.0000 0.0000
# 3 35.4031 50.3183 80.8766 0.0000 0.0000 0.0000
# 4 0.0000 0.0000 0.0000 24.9338 0.0000 0.0000
# 5 0.0000 0.0000 0.0000 0.0000 16.3959 0.0000
# 6 0.0000 0.0000 0.0000 0.0000 0.0000 17.8766
#
#
#
# Elastic Compliance Matrix: (Units=1/GPa)
#
#
# Indices 1 2 3 4 5 6 
#
# 1 0.040579 -0.014307 -0.008862 0.000000 0.000000 0.000000
# 2 -0.014307 0.024106 -0.008735 0.000000 0.000000 0.000000
# 3 -0.008862 -0.008735 0.021679 0.000000 0.000000 0.000000
# 4 0.000000 0.000000 0.000000 0.040106 0.000000 0.000000
# 5 0.000000 0.000000 0.000000 0.000000 0.060991 0.000000
# 6 0.000000 0.000000 0.000000 0.000000 0.000000 0.055939
#
#
# Mechanical properties :
#
#
# Convention : Reuss Voigt Hill
#
# Bulk Modulus (GPa) = 44.33441 51.53199 47.93320
# Shear Modulus (GPa) = 15.88676 17.51195 16.69935
#
# Velocity S-wave (km/s) = 3.40675 3.57677 3.49279
# Velocity P-wave (km/s) = 6.91830 7.39622 7.16125
#
# Compressibility (1/GPa) = 0.02255584
#
# Stress axis : x y z
#
# Youngs Moduli (GPa) = 24.64312 41.48282 46.12805
#
# Poissons Ratio (x) = 0.59347 0.40880
# Poissons Ratio (y) = 0.35256 0.40295
# Poissons Ratio (z) = 0.21839 0.36237
#
# Static dielectric constant tensor:
#      x y z
#    x 2.506540 0.000000 0.000000 
#    y 0.000000 2.897820 0.000000 
#    z 0.000000 0.000000 2.836720 
# 
# 
# High freq. dielectric constant tensor:
#      x y z
#    x 1.474480 0.000000 0.000000 
#    y 0.000000 1.512010 0.000000 
#    z 0.000000 0.000000 1.535280 
# 
# From -- ./inp_files/8202.got.cif
#   From: 2010.03.12/outbox.cif.g09.slc.cpg/sg66_5_cif.got.tgz:8202.got - 2010.04.10 21:57:39.
