data_PCOD8275627
_publ_section_title
;
Structure prediction by ZEFSAII (Michael W. Deem and Ramdas Pophale) SiO2 
 PCOD8275627
Probable space group: C C C M
;
_chemical_formula_sum "Si O2"
_cell_formula_units_Z 88
_cell_length_a 22.183298
_cell_length_b 12.916580
_cell_length_c 15.646014
_cell_angle_alpha 90.000000
_cell_angle_beta 90.000000
_cell_angle_gamma 90.000000
_cell_volume 4483.089054
_symmetry_space_group_name_H-M "C C C M"
_symmetry_group_IT_number 66
_symmetry_cell_setting 'orthorhombic'
loop_
_space_group_symop_operation_xyz
x,y,z
-x,-y,z
x,-y,1/2-z
-x,y,1/2-z
-x,-y,-z
x,y,-z
-x,y,1/2+z
x,-y,1/2+z
1/2+x,1/2+y,z
1/2-x,1/2-y,z
1/2+x,1/2-y,1/2-z
1/2-x,1/2+y,1/2-z
1/2-x,1/2-y,-z
1/2+x,1/2+y,-z
1/2-x,1/2+y,1/2+z
1/2+x,1/2-y,1/2+z
loop_
_atom_site_type_symbol
_atom_site_label
_atom_site_fract_x
_atom_site_fract_y
_atom_site_fract_z
Si Si1 0.933699 0.277184 0.832785
Si Si2 0.431837 0.535955 0.155074
Si Si3 0.852617 0.271206 0.500000
Si Si4 0.639834 0.030441 0.157575
Si Si5 0.648173 0.461405 0.500000
Si Si6 0.718076 0.030932 0.500000
Si Si7 0.058981 0.658387 0.642707
O O1 0.924517 0.158564 0.859201
O O2 0.875940 0.348463 0.853119
O O3 0.941379 0.280201 0.731401
O O4 0.989607 0.327492 0.886570
O O5 0.500000 0.500000 0.137210
O O6 0.411863 0.500000 0.250000
O O7 0.388852 0.484478 0.085315
O O8 0.829302 0.155994 0.500000
O O9 0.794210 0.345443 0.500000
O O10 0.894242 0.285628 0.582168
O O11 0.668300 0.000000 0.250000
O O12 0.688343 0.011475 0.085597
O O13 0.578228 0.962097 0.149223
O O14 0.714029 0.513844 0.500000
#
# Coordination Sequence:
#
# PCOD8275627 Si02
#       7
#    16  16   8  16   8   8  16
#     4  10  18  33  54  81 115 148 173 215 277 331
#     4  11  23  39  58  84 114 143 177 221 268 327
#     4  10  19  36  57  79 104 140 185 233 270 305
#     4   9  19  35  56  82 112 143 181 225 272 320
#     4  12  24  39  58  81 108 146 188 222 264 320
#     4  10  23  39  57  80 108 140 185 233 268 313
#     4   9  17  31  56  85 110 139 178 224 273 326
#
# _framework density 19.629322999999999
#
# number of rings (size 3 to 8) (size 9 to 14) (size 15 to 20)
#    0.000    2.000    0.000    5.455    0.000    5.091 
#    0.000    4.545    0.000    0.000    0.000    0.000 
#    0.000    0.000    0.000    0.000    0.000    0.000 
#
# Total GULP energy -545273.986690 kJ/mol
# GULP energy per Si atom -12392.590607 kJ/mol
# Density = 1.958465 g / cm^3
# Si number density = 19.629323 Si / 1000 Ang^3
#
#
#
# Elastic Constant Matrix: (Units=GPa)
#
#
# Indices 1 2 3 4 5 6 
#
# 1 108.4663 33.8599 69.1727 0.0000 0.0000 0.0000
# 2 33.8599 126.8895 37.4260 0.0000 0.0000 0.0000
# 3 69.1727 37.4260 109.4380 0.0000 0.0000 0.0000
# 4 0.0000 0.0000 0.0000 22.4559 0.0000 0.0000
# 5 0.0000 0.0000 0.0000 0.0000 14.2347 0.0000
# 6 0.0000 0.0000 0.0000 0.0000 0.0000 14.5670
#
#
#
# Elastic Compliance Matrix: (Units=1/GPa)
#
#
# Indices 1 2 3 4 5 6 
#
# 1 0.015666 -0.001401 -0.009423 0.000000 0.000000 0.000000
# 2 -0.001401 0.008890 -0.002155 0.000000 0.000000 0.000000
# 3 -0.009423 -0.002155 0.015830 0.000000 0.000000 0.000000
# 4 0.000000 0.000000 0.000000 0.044532 0.000000 0.000000
# 5 0.000000 0.000000 0.000000 0.000000 0.070251 0.000000
# 6 0.000000 0.000000 0.000000 0.000000 0.000000 0.068648
#
#
# Mechanical properties :
#
#
# Convention : Reuss Voigt Hill
#
# Bulk Modulus (GPa) = 69.30357 69.52345 69.41351
# Shear Modulus (GPa) = 19.63978 23.87388 21.75683
#
# Velocity S-wave (km/s) = 3.16655 3.49124 3.33285
# Velocity P-wave (km/s) = 6.98228 7.19352 7.08868
#
# Compressibility (1/GPa) = 0.01442927
#
# Stress axis : x y z
#
# Youngs Moduli (GPa) = 63.83159 112.48226 63.16924
#
# Poissons Ratio (x) = 0.15760 0.59524
# Poissons Ratio (y) = 0.08944 0.13611
# Poissons Ratio (z) = 0.60149 0.24237
#
# Static dielectric constant tensor:
#      x y z
#    x 3.316390 0.000000 0.000000 
#    y 0.000000 3.628050 0.000000 
#    z 0.000000 0.000000 3.536620 
# 
# 
# High freq. dielectric constant tensor:
#      x y z
#    x 1.740040 0.000000 0.000000 
#    y 0.000000 1.769140 0.000000 
#    z 0.000000 0.000000 1.768740 
# 
# From -- ./inp_files/42811.got.cif
#   From: 2010.03.12/outbox.cif.g09.slc.cpg/sg66_22_cif.got.tgz:42811.got - 2010.04.10 21:57:39.
