data_PCOD8275695
_publ_section_title
;
Structure prediction by ZEFSAII (Michael W. Deem and Ramdas Pophale) SiO2 
 PCOD8275695
Probable space group: C C C M
;
_chemical_formula_sum "Si O2"
_cell_formula_units_Z 80
_cell_length_a 23.767272
_cell_length_b 15.916011
_cell_length_c 11.472876
_cell_angle_alpha 90.000000
_cell_angle_beta 90.000000
_cell_angle_gamma 90.000000
_cell_volume 4339.961399
_symmetry_space_group_name_H-M "C C C M"
_symmetry_group_IT_number 66
_symmetry_cell_setting 'orthorhombic'
loop_
_space_group_symop_operation_xyz
x,y,z
-x,-y,z
x,-y,1/2-z
-x,y,1/2-z
-x,-y,-z
x,y,-z
-x,y,1/2+z
x,-y,1/2+z
1/2+x,1/2+y,z
1/2-x,1/2-y,z
1/2+x,1/2-y,1/2-z
1/2-x,1/2+y,1/2-z
1/2-x,1/2-y,-z
1/2+x,1/2+y,-z
1/2-x,1/2+y,1/2+z
1/2+x,1/2-y,1/2+z
loop_
_atom_site_type_symbol
_atom_site_label
_atom_site_fract_x
_atom_site_fract_y
_atom_site_fract_z
Si Si1 0.740401 0.649814 0.000000
Si Si2 0.862081 0.332601 0.500000
Si Si3 0.714898 0.164858 0.130598
Si Si4 0.500000 0.183093 0.250000
Si Si5 0.520569 0.094261 0.500000
Si Si6 0.120764 0.748381 0.739233
Si Si7 0.189065 0.092889 0.236777
O O1 0.750000 0.750000 0.000000
O O2 0.705229 0.616467 0.892969
O O3 0.804273 0.613674 0.000000
O O4 0.911788 0.401010 0.500000
O O5 0.865369 0.267146 0.605332
O O6 0.750000 0.250000 0.143334
O O7 0.654341 0.175639 0.190892
O O8 0.753502 0.093335 0.187763
O O9 0.702782 0.137695 0.000000
O O10 0.500648 0.132941 0.374410
O O11 0.554431 0.242140 0.238424
O O12 0.500000 0.000000 0.500000
O O13 0.141787 0.840673 0.779840
O O14 0.162836 0.000000 0.250000
#
# Coordination Sequence:
#
# PCOD8275695 Si02
#       7
#     8   8  16   8   8  16  16
#     4  12  18  38  63  81 109 161 199 226 282 363
#     4  10  18  36  64  79 103 151 199 226 271 353
#     4   9  18  33  53  76 110 146 176 220 283 344
#     4  10  23  38  63  84 108 160 198 224 283 358
#     4  10  22  42  59  86 117 143 189 250 288 326
#     4  10  19  38  58  80 108 150 194 229 273 348
#     4  11  22  34  55  87 116 143 186 245 287 325
#
# _framework density 18.433344999999999
#
# number of rings (size 3 to 8) (size 9 to 14) (size 15 to 20)
#    0.000    1.800    4.000    0.900    2.800    0.000 
#    3.600    0.500    0.000    0.000    0.000    5.600 
#    0.000    0.000    0.000    0.000    0.000    0.000 
#
# Total GULP energy -495663.987425 kJ/mol
# GULP energy per Si atom -12391.599686 kJ/mol
# Density = 1.839139 g / cm^3
# Si number density = 18.433345 Si / 1000 Ang^3
#
#
#
# Elastic Constant Matrix: (Units=GPa)
#
#
# Indices 1 2 3 4 5 6 
#
# 1 133.1908 46.9169 34.1982 0.0000 0.0000 0.0000
# 2 46.9169 104.0914 29.3332 0.0000 0.0000 0.0000
# 3 34.1982 29.3332 135.6099 0.0000 0.0000 0.0000
# 4 0.0000 0.0000 0.0000 15.4348 0.0000 0.0000
# 5 0.0000 0.0000 0.0000 0.0000 14.3002 0.0000
# 6 0.0000 0.0000 0.0000 0.0000 0.0000 21.4270
#
#
#
# Elastic Compliance Matrix: (Units=1/GPa)
#
#
# Indices 1 2 3 4 5 6 
#
# 1 0.009209 -0.003723 -0.001517 0.000000 0.000000 0.000000
# 2 -0.003723 0.011736 -0.001600 0.000000 0.000000 0.000000
# 3 -0.001517 -0.001600 0.008103 0.000000 0.000000 0.000000
# 4 0.000000 0.000000 0.000000 0.064789 0.000000 0.000000
# 5 0.000000 0.000000 0.000000 0.000000 0.069929 0.000000
# 6 0.000000 0.000000 0.000000 0.000000 0.000000 0.046670
#
#
# Mechanical properties :
#
#
# Convention : Reuss Voigt Hill
#
# Bulk Modulus (GPa) = 65.07081 65.97652 65.52366
# Shear Modulus (GPa) = 21.81140 27.72864 24.77002
#
# Velocity S-wave (km/s) = 3.44358 3.88269 3.66971
# Velocity P-wave (km/s) = 7.15460 7.48131 7.31978
#
# Compressibility (1/GPa) = 0.01536787
#
# Stress axis : x y z
#
# Youngs Moduli (GPa) = 108.58855 85.20853 123.41640
#
# Poissons Ratio (x) = 0.31726 0.18722
# Poissons Ratio (y) = 0.40431 0.19742
# Poissons Ratio (z) = 0.16473 0.13630
#
# Static dielectric constant tensor:
#      x y z
#    x 3.567340 0.000000 0.000000 
#    y 0.000000 3.140580 0.000000 
#    z 0.000000 0.000000 3.693030 
# 
# 
# High freq. dielectric constant tensor:
#      x y z
#    x 1.710310 0.000000 0.000000 
#    y 0.000000 1.683290 0.000000 
#    z 0.000000 0.000000 1.734600 
# 
# From -- ./inp_files/16593.got.cif
#   From: 2010.03.12/outbox.cif.g09.slc.cpg/sg66_9_cif.got.tgz:16593.got - 2010.04.10 21:57:39.
