data_PCOD8275999
_publ_section_title
;
Structure prediction by ZEFSAII (Michael W. Deem and Ramdas Pophale) SiO2 
 PCOD8275999
Probable space group: C C C M
;
_chemical_formula_sum "Si O2"
_cell_formula_units_Z 52
_cell_length_a 7.230882
_cell_length_b 14.124683
_cell_length_c 28.007712
_cell_angle_alpha 90.000000
_cell_angle_beta 90.000000
_cell_angle_gamma 90.000000
_cell_volume 2860.537306
_symmetry_space_group_name_H-M "C C C M"
_symmetry_group_IT_number 66
_symmetry_cell_setting 'orthorhombic'
loop_
_space_group_symop_operation_xyz
x,y,z
-x,-y,z
x,-y,1/2-z
-x,y,1/2-z
-x,-y,-z
x,y,-z
-x,y,1/2+z
x,-y,1/2+z
1/2+x,1/2+y,z
1/2-x,1/2-y,z
1/2+x,1/2-y,1/2-z
1/2-x,1/2+y,1/2-z
1/2-x,1/2-y,-z
1/2+x,1/2+y,-z
1/2-x,1/2+y,1/2+z
1/2+x,1/2-y,1/2+z
loop_
_atom_site_type_symbol
_atom_site_label
_atom_site_fract_x
_atom_site_fract_y
_atom_site_fract_z
Si Si1 0.000000 0.000000 0.887768
Si Si2 0.851397 0.574135 0.841183
Si Si3 0.000000 0.500000 0.250000
Si Si4 0.250000 0.750000 0.394792
Si Si5 0.099710 0.826923 0.056116
O O1 0.872922 0.070765 0.919408
O O2 0.139878 0.052065 0.852765
O O3 0.875423 0.679941 0.861956
O O4 0.000000 0.500000 0.864558
O O5 0.876102 0.569200 0.783567
O O6 0.390915 0.699800 0.430543
O O7 0.250000 0.750000 0.074650
O O8 0.120916 0.839891 0.000000
#
# Coordination Sequence:
#
# PCOD8275999 Si02
#       5
#     8  16   4   8  16
#     4  10  19  33  56  76 102 148 174 211 273 320
#     4   9  19  36  54  76 107 135 175 223 269 321
#     4   8  20  38  52  72 104 134 164 234 272 312
#     4  10  19  34  56  78 102 146 176 212 275 320
#     4  10  20  33  51  79 110 139 179 219 255 314
#
# _framework density 18.178404
#
# number of rings (size 3 to 8) (size 9 to 14) (size 15 to 20)
#    0.923    1.538    0.000    2.769    0.000    0.615 
#    0.000    6.154    0.000   14.769    0.000    0.000 
#    0.000    0.000    0.000    0.000    0.000    0.000 
#
# Total GULP energy -322092.942257 kJ/mol
# GULP energy per Si atom -12388.190087 kJ/mol
# Density = 1.813703 g / cm^3
# Si number density = 18.178404 Si / 1000 Ang^3
#
#
#
# Elastic Constant Matrix: (Units=GPa)
#
#
# Indices 1 2 3 4 5 6 
#
# 1 62.7117 17.2474 28.3582 0.0000 0.0000 0.0000
# 2 17.2474 88.6675 26.5810 0.0000 0.0000 0.0000
# 3 28.3582 26.5810 86.6800 0.0000 0.0000 0.0000
# 4 0.0000 0.0000 0.0000 16.7652 0.0000 0.0000
# 5 0.0000 0.0000 0.0000 0.0000 23.5887 0.0000
# 6 0.0000 0.0000 0.0000 0.0000 0.0000 39.5256
#
#
#
# Elastic Compliance Matrix: (Units=1/GPa)
#
#
# Indices 1 2 3 4 5 6 
#
# 1 0.019038 -0.002022 -0.005609 0.000000 0.000000 0.000000
# 2 -0.002022 0.012635 -0.003213 0.000000 0.000000 0.000000
# 3 -0.005609 -0.003213 0.014357 0.000000 0.000000 0.000000
# 4 0.000000 0.000000 0.000000 0.059647 0.000000 0.000000
# 5 0.000000 0.000000 0.000000 0.000000 0.042393 0.000000
# 6 0.000000 0.000000 0.000000 0.000000 0.000000 0.025300
#
#
# Mechanical properties :
#
#
# Convention : Reuss Voigt Hill
#
# Bulk Modulus (GPa) = 41.07990 42.49250 41.78620
# Shear Modulus (GPa) = 24.60976 27.03406 25.82191
#
# Velocity S-wave (km/s) = 3.68338 3.86055 3.77300
# Velocity P-wave (km/s) = 6.38255 6.58010 6.48208
#
# Compressibility (1/GPa) = 0.02434281
#
# Stress axis : x y z
#
# Youngs Moduli (GPa) = 52.52588 79.14775 69.65317
#
# Poissons Ratio (x) = 0.16003 0.39065
# Poissons Ratio (y) = 0.10620 0.22379
# Poissons Ratio (z) = 0.29459 0.25430
#
# Static dielectric constant tensor:
#      x y z
#    x 3.168220 0.000000 0.000000 
#    y 0.000000 3.609720 0.000000 
#    z 0.000000 0.000000 3.154800 
# 
# 
# High freq. dielectric constant tensor:
#      x y z
#    x 1.701980 0.000000 0.000000 
#    y 0.000000 1.705440 0.000000 
#    z 0.000000 0.000000 1.690010 
# 
# From -- ./inp_files/61026.got.cif
#   From: 2010.03.12/outbox.cif.g09.slc.cpg/sg66_31_cif.got.tgz:61026.got - 2010.04.10 21:57:39.
