data_PCOD8275128
_publ_section_title
;
Structure prediction by ZEFSAII (Michael W. Deem and Ramdas Pophale) SiO2 
 PCOD8275128
Probable space group: C M M M
;
_chemical_formula_sum "Si O2"
_cell_formula_units_Z 88
_cell_length_a 9.688724
_cell_length_b 28.877747
_cell_length_c 18.185422
_cell_angle_alpha 90.000000
_cell_angle_beta 90.000000
_cell_angle_gamma 90.000000
_cell_volume 5088.072315
_symmetry_space_group_name_H-M "C M M M"
_symmetry_group_IT_number 65
_symmetry_cell_setting 'orthorhombic'
loop_
_space_group_symop_operation_xyz
x,y,z
-x,-y,z
x,-y,-z
-x,y,-z
-x,-y,-z
x,y,-z
-x,y,z
x,-y,z
1/2+x,1/2+y,z
1/2-x,1/2-y,z
1/2+x,1/2-y,-z
1/2-x,1/2+y,-z
1/2-x,1/2-y,-z
1/2+x,1/2+y,-z
1/2-x,1/2+y,z
1/2+x,1/2-y,z
loop_
_atom_site_type_symbol
_atom_site_label
_atom_site_fract_x
_atom_site_fract_y
_atom_site_fract_z
Si Si1 0.164829 0.052120 0.215632
Si Si2 0.835355 0.052751 0.500000
Si Si3 0.158242 0.207134 0.319600
Si Si4 0.664174 0.388484 0.081587
Si Si5 0.664123 0.606189 0.642801
Si Si6 0.341810 0.707566 0.146809
O O1 0.221973 0.074288 0.139913
O O2 0.223628 0.080982 0.284710
O O3 0.000000 0.052975 0.216376
O O4 0.221176 0.000000 0.221050
O O5 0.777991 0.079586 0.428565
O O6 0.000000 0.052759 0.500000
O O7 0.780068 0.000000 0.500000
O O8 0.250000 0.250000 0.347822
O O9 0.209657 0.160064 0.359371
O O10 0.176104 0.198745 0.233172
O O11 0.000000 0.218323 0.339566
O O12 0.500000 0.389647 0.083003
O O13 0.713653 0.337423 0.104499
O O14 0.720228 0.400486 0.000000
O O15 0.500000 0.603710 0.645211
O O16 0.500000 0.718486 0.127093
O O17 0.250000 0.750000 0.119038
#
# Coordination Sequence:
#
# PCOD8275128 Si02
#       6
#    16   8  16  16  16  16
#     4   9  15  23  36  53  76 108 141 170 206 255
#     4   9  16  24  37  60  87 113 141 173 210 253
#     4   9  16  27  44  63  86 115 145 175 210 253
#     4   9  16  25  36  53  79 108 138 173 211 250
#     4   9  15  25  39  57  83 112 139 171 212 252
#     4   9  16  27  42  60  83 112 143 175 212 252
#
# _framework density 17.295352000000001
#
# number of rings (size 3 to 8) (size 9 to 14) (size 15 to 20)
#    0.000    3.000    1.818    0.545    0.000    2.909 
#    0.000    2.273    0.000    0.000    0.000    0.000 
#    0.000    5.818    0.000    1.636    0.000    1.818 
#
# Total GULP energy -545432.709776 kJ/mol
# GULP energy per Si atom -12396.197949 kJ/mol
# Density = 1.725599 g / cm^3
# Si number density = 17.295352 Si / 1000 Ang^3
#
#
#
# Elastic Constant Matrix: (Units=GPa)
#
#
# Indices 1 2 3 4 5 6 
#
# 1 21.0843 31.1812 14.5079 0.0000 0.0000 0.0000
# 2 31.1812 172.8773 84.3432 0.0000 0.0000 0.0000
# 3 14.5079 84.3432 117.9082 0.0000 0.0000 0.0000
# 4 0.0000 0.0000 0.0000 28.2542 0.0000 0.0000
# 5 0.0000 0.0000 0.0000 0.0000 5.7581 0.0000
# 6 0.0000 0.0000 0.0000 0.0000 0.0000 18.4927
#
#
#
# Elastic Compliance Matrix: (Units=1/GPa)
#
#
# Indices 1 2 3 4 5 6 
#
# 1 0.064709 -0.011961 0.000594 0.000000 0.000000 0.000000
# 2 -0.011961 0.011096 -0.006466 0.000000 0.000000 0.000000
# 3 0.000594 -0.006466 0.013033 0.000000 0.000000 0.000000
# 4 0.000000 0.000000 0.000000 0.035393 0.000000 0.000000
# 5 0.000000 0.000000 0.000000 0.000000 0.173668 0.000000
# 6 0.000000 0.000000 0.000000 0.000000 0.000000 0.054076
#
#
# Mechanical properties :
#
#
# Convention : Reuss Voigt Hill
#
# Bulk Modulus (GPa) = 18.80657 63.54827 41.17742
# Shear Modulus (GPa) = 12.33455 22.62348 17.47901
#
# Velocity S-wave (km/s) = 2.67342 3.62064 3.18247
# Velocity P-wave (km/s) = 4.51962 7.36895 6.11263
#
# Compressibility (1/GPa) = 0.05317291
#
# Stress axis : x y z
#
# Youngs Moduli (GPa) = 15.45380 90.11944 76.72673
#
# Poissons Ratio (x) = 1.07794 -0.04559
# Poissons Ratio (y) = 0.18485 0.49610
# Poissons Ratio (z) = -0.00918 0.58270
#
# Static dielectric constant tensor:
#      x y z
#    x 2.565160 0.000000 0.000000 
#    y 0.000000 3.436510 0.000000 
#    z 0.000000 0.000000 3.353650 
# 
# 
# High freq. dielectric constant tensor:
#      x y z
#    x 1.582920 0.000000 0.000000 
#    y 0.000000 1.683350 0.000000 
#    z 0.000000 0.000000 1.666240 
# 
# From -- ./inp_files/50395.got.cif
#   From: 2010.03.12/outbox.cif.g09.slc.cpg/sg65_26_cif.got.tgz:50395.got - 2010.04.10 20:52:16.
