data_PCOD8275953
_publ_section_title
;
Structure prediction by ZEFSAII (Michael W. Deem and Ramdas Pophale) SiO2 
 PCOD8275953
Probable space group: C C C M
;
_chemical_formula_sum "Si O2"
_cell_formula_units_Z 56
_cell_length_a 24.438125
_cell_length_b 8.890664
_cell_length_c 14.345178
_cell_angle_alpha 90.000000
_cell_angle_beta 90.000000
_cell_angle_gamma 90.000000
_cell_volume 3116.793438
_symmetry_space_group_name_H-M "C C C M"
_symmetry_group_IT_number 66
_symmetry_cell_setting 'orthorhombic'
loop_
_space_group_symop_operation_xyz
x,y,z
-x,-y,z
x,-y,1/2-z
-x,y,1/2-z
-x,-y,-z
x,y,-z
-x,y,1/2+z
x,-y,1/2+z
1/2+x,1/2+y,z
1/2-x,1/2-y,z
1/2+x,1/2-y,1/2-z
1/2-x,1/2+y,1/2-z
1/2-x,1/2-y,-z
1/2+x,1/2+y,-z
1/2-x,1/2+y,1/2+z
1/2+x,1/2-y,1/2+z
loop_
_atom_site_type_symbol
_atom_site_label
_atom_site_fract_x
_atom_site_fract_y
_atom_site_fract_z
Si Si1 0.128496 0.040926 0.500000
Si Si2 0.909186 0.713112 0.000000
Si Si3 0.690165 0.233938 0.895583
Si Si4 0.464127 0.230798 0.500000
Si Si5 0.094720 0.533396 0.851973
O O1 0.160585 0.102642 0.592359
O O2 0.067397 0.110942 0.500000
O O3 0.127779 0.862089 0.500000
O O4 0.894673 0.621120 0.907098
O O5 0.972151 0.763337 0.000000
O O6 0.750000 0.250000 0.847944
O O7 0.652130 0.121415 0.837007
O O8 0.696423 0.162579 0.000000
O O9 0.448560 0.133915 0.591235
O O10 0.070283 0.500000 0.750000
#
# Coordination Sequence:
#
# PCOD8275953 Si02
#       5
#     8   8  16   8  16
#     4   8  16  31  52  73  96 129 164 206 244 294
#     4  11  19  31  51  76  95 128 173 209 240 295
#     4   8  15  34  56  68  98 139 160 190 266 302
#     4   9  19  34  50  69 103 135 160 197 265 297
#     4  10  19  33  51  74  99 128 169 207 241 297
#
# _framework density 17.967184
#
# number of rings (size 3 to 8) (size 9 to 14) (size 15 to 20)
#    0.857    2.000    2.857    2.143    0.000    2.286 
#    0.000   11.429    0.000    6.857    0.000    0.000 
#    0.000    0.000    0.000    0.000    0.000    0.000 
#
# Total GULP energy -346955.648398 kJ/mol
# GULP energy per Si atom -12391.273157 kJ/mol
# Density = 1.792629 g / cm^3
# Si number density = 17.967184 Si / 1000 Ang^3
#
#
#
# Elastic Constant Matrix: (Units=GPa)
#
#
# Indices 1 2 3 4 5 6 
#
# 1 99.7367 27.2502 3.5512 0.0000 0.0000 0.0000
# 2 27.2502 116.6223 23.9568 0.0000 0.0000 0.0000
# 3 3.5512 23.9568 93.1485 0.0000 0.0000 0.0000
# 4 0.0000 0.0000 0.0000 7.8830 0.0000 0.0000
# 5 0.0000 0.0000 0.0000 0.0000 7.6653 0.0000
# 6 0.0000 0.0000 0.0000 0.0000 0.0000 16.1109
#
#
#
# Elastic Compliance Matrix: (Units=1/GPa)
#
#
# Indices 1 2 3 4 5 6 
#
# 1 0.010716 -0.002555 0.000249 0.000000 0.000000 0.000000
# 2 -0.002555 0.009662 -0.002388 0.000000 0.000000 0.000000
# 3 0.000249 -0.002388 0.011340 0.000000 0.000000 0.000000
# 4 0.000000 0.000000 0.000000 0.126855 0.000000 0.000000
# 5 0.000000 0.000000 0.000000 0.000000 0.130458 0.000000
# 6 0.000000 0.000000 0.000000 0.000000 0.000000 0.062070
#
#
# Mechanical properties :
#
#
# Convention : Reuss Voigt Hill
#
# Bulk Modulus (GPa) = 44.78274 46.55822 45.67048
# Shear Modulus (GPa) = 13.58950 23.31514 18.45232
#
# Velocity S-wave (km/s) = 2.75317 3.60620 3.20816
# Velocity P-wave (km/s) = 5.92329 6.58094 6.26076
#
# Compressibility (1/GPa) = 0.02233003
#
# Stress axis : x y z
#
# Youngs Moduli (GPa) = 93.32186 103.49681 88.18243
#
# Poissons Ratio (x) = 0.26442 -0.02192
# Poissons Ratio (y) = 0.23843 0.21054
# Poissons Ratio (z) = -0.02320 0.24711
#
# Static dielectric constant tensor:
#      x y z
#    x 3.357320 0.000000 0.000000 
#    y 0.000000 3.099380 0.000000 
#    z 0.000000 0.000000 2.902440 
# 
# 
# High freq. dielectric constant tensor:
#      x y z
#    x 1.697800 0.000000 0.000000 
#    y 0.000000 1.680090 0.000000 
#    z 0.000000 0.000000 1.655330 
# 
# From -- ./inp_files/31854.got.cif
#   From: 2010.03.12/outbox.cif.g09.slc.cpg/sg66_16_cif.got.tgz:31854.got - 2010.04.10 21:57:39.
