data_PCOD8275799
_publ_section_title
;
Structure prediction by ZEFSAII (Michael W. Deem and Ramdas Pophale) SiO2 
 PCOD8275799
Probable space group: C C C M
;
_chemical_formula_sum "Si O2"
_cell_formula_units_Z 104
_cell_length_a 21.540705
_cell_length_b 17.141814
_cell_length_c 14.149013
_cell_angle_alpha 90.000000
_cell_angle_beta 90.000000
_cell_angle_gamma 90.000000
_cell_volume 5224.477187
_symmetry_space_group_name_H-M "C C C M"
_symmetry_group_IT_number 66
_symmetry_cell_setting 'orthorhombic'
loop_
_space_group_symop_operation_xyz
x,y,z
-x,-y,z
x,-y,1/2-z
-x,y,1/2-z
-x,-y,-z
x,y,-z
-x,y,1/2+z
x,-y,1/2+z
1/2+x,1/2+y,z
1/2-x,1/2-y,z
1/2+x,1/2-y,1/2-z
1/2-x,1/2+y,1/2-z
1/2-x,1/2-y,-z
1/2+x,1/2+y,-z
1/2-x,1/2+y,1/2+z
1/2+x,1/2-y,1/2+z
loop_
_atom_site_type_symbol
_atom_site_label
_atom_site_fract_x
_atom_site_fract_y
_atom_site_fract_z
Si Si1 0.396758 0.708317 0.888573
Si Si2 0.276538 0.662721 0.796136
Si Si3 0.417145 0.184202 0.105906
Si Si4 0.840920 0.627662 0.396052
Si Si5 0.500000 0.736688 0.750000
Si Si6 0.930444 0.509933 0.860223
Si Si7 0.309211 0.699579 0.601668
O O1 0.336140 0.655499 0.865297
O O2 0.381126 0.798104 0.862094
O O3 0.451979 0.684502 0.813790
O O4 0.414944 0.696857 0.000000
O O5 0.250000 0.750000 0.797099
O O6 0.219227 0.608898 0.830443
O O7 0.297382 0.639501 0.688505
O O8 0.472586 0.203358 0.174959
O O9 0.400481 0.093117 0.113619
O O10 0.360532 0.238985 0.136439
O O11 0.438225 0.204376 0.000000
O O12 0.814529 0.647379 0.500000
O O13 0.885365 0.553884 0.404055
O O14 0.932494 0.500000 0.750000
O O15 0.000000 0.500000 0.902757
O O16 0.326817 0.658298 0.500000
O O17 0.250000 0.750000 0.580114
#
# Coordination Sequence:
#
# PCOD8275799 Si02
#       7
#    16  16  16  16   8  16  16
#     4  10  19  31  47  68  95 128 170 219 266 307
#     4   9  17  31  52  69  91 119 168 226 270 308
#     4  11  22  35  51  71  99 137 177 216 258 308
#     4  10  20  33  50  71  94 130 180 224 263 310
#     4  12  20  32  47  70  98 140 179 212 250 308
#     4  11  23  35  49  71 106 148 183 213 249 303
#     4   9  18  32  52  72  90 121 167 216 267 315
#
# _framework density 19.906298
#
# number of rings (size 3 to 8) (size 9 to 14) (size 15 to 20)
#    0.000    1.846    1.538    4.154    4.308    4.308 
#    0.000    0.000    0.000    0.000    0.000    0.000 
#    0.000    0.000    0.000    6.231    0.308   40.615 
#
# Total GULP energy -644291.630484 kJ/mol
# GULP energy per Si atom -12390.223663 kJ/mol
# Density = 1.986099 g / cm^3
# Si number density = 19.906298 Si / 1000 Ang^3
#
#
#
# Elastic Constant Matrix: (Units=GPa)
#
#
# Indices 1 2 3 4 5 6 
#
# 1 121.0022 26.7950 59.3116 0.0000 0.0000 0.0000
# 2 26.7950 19.6252 12.0473 0.0000 0.0000 0.0000
# 3 59.3116 12.0473 140.2264 0.0000 0.0000 0.0000
# 4 0.0000 0.0000 0.0000 13.2036 0.0000 0.0000
# 5 0.0000 0.0000 0.0000 0.0000 49.8478 0.0000
# 6 0.0000 0.0000 0.0000 0.0000 0.0000 24.7804
#
#
#
# Elastic Compliance Matrix: (Units=1/GPa)
#
#
# Indices 1 2 3 4 5 6 
#
# 1 0.014167 -0.016536 -0.004572 0.000000 0.000000 0.000000
# 2 -0.016536 0.073094 0.000715 0.000000 0.000000 0.000000
# 3 -0.004572 0.000715 0.009004 0.000000 0.000000 0.000000
# 4 0.000000 0.000000 0.000000 0.075737 0.000000 0.000000
# 5 0.000000 0.000000 0.000000 0.000000 0.020061 0.000000
# 6 0.000000 0.000000 0.000000 0.000000 0.000000 0.040354
#
#
# Mechanical properties :
#
#
# Convention : Reuss Voigt Hill
#
# Bulk Modulus (GPa) = 18.02518 53.01794 35.52156
# Shear Modulus (GPa) = 17.14114 29.74637 23.44375
#
# Velocity S-wave (km/s) = 2.93762 3.86984 3.43549
# Velocity P-wave (km/s) = 4.53661 6.83075 5.79827
#
# Compressibility (1/GPa) = 0.05547794
#
# Stress axis : x y z
#
# Youngs Moduli (GPa) = 70.58669 13.68104 111.06737
#
# Poissons Ratio (x) = 0.22623 0.50775
# Poissons Ratio (y) = 1.16725 -0.07937
# Poissons Ratio (z) = 0.32269 -0.00978
#
# Static dielectric constant tensor:
#      x y z
#    x 3.745100 0.000000 0.000000 
#    y 0.000000 2.215320 0.000000 
#    z 0.000000 0.000000 4.120010 
# 
# 
# High freq. dielectric constant tensor:
#      x y z
#    x 1.782880 0.000000 0.000000 
#    y 0.000000 1.681290 0.000000 
#    z 0.000000 0.000000 1.813860 
# 
# From -- ./inp_files/31394.got.cif
#   From: 2010.03.12/outbox.cif.g09.slc.cpg/sg66_16_cif.got.tgz:31394.got - 2010.04.10 21:57:39.
