data_PCOD8275889
_publ_section_title
;
Structure prediction by ZEFSAII (Michael W. Deem and Ramdas Pophale) SiO2 
 PCOD8275889
Probable space group: C C C M
;
_chemical_formula_sum "Si O2"
_cell_formula_units_Z 116
_cell_length_a 26.246642
_cell_length_b 27.027180
_cell_length_c 9.365669
_cell_angle_alpha 90.000000
_cell_angle_beta 90.000000
_cell_angle_gamma 90.000000
_cell_volume 6643.750072
_symmetry_space_group_name_H-M "C C C M"
_symmetry_group_IT_number 66
_symmetry_cell_setting 'orthorhombic'
loop_
_space_group_symop_operation_xyz
x,y,z
-x,-y,z
x,-y,1/2-z
-x,y,1/2-z
-x,-y,-z
x,y,-z
-x,y,1/2+z
x,-y,1/2+z
1/2+x,1/2+y,z
1/2-x,1/2-y,z
1/2+x,1/2-y,1/2-z
1/2-x,1/2+y,1/2-z
1/2-x,1/2-y,-z
1/2+x,1/2+y,-z
1/2-x,1/2+y,1/2+z
1/2+x,1/2-y,1/2+z
loop_
_atom_site_type_symbol
_atom_site_label
_atom_site_fract_x
_atom_site_fract_y
_atom_site_fract_z
Si Si1 0.500000 0.000000 0.750000
Si Si2 0.689681 0.951707 0.169963
Si Si3 0.842067 0.186819 0.833882
Si Si4 0.815932 0.279233 0.657995
Si Si5 0.952759 0.220074 0.832369
Si Si6 0.236905 0.136449 0.837148
Si Si7 0.579876 0.077149 0.339546
Si Si8 0.574512 0.815908 0.837637
O O1 0.463674 0.964725 0.657557
O O2 0.727453 0.907866 0.217146
O O3 0.632549 0.941212 0.232025
O O4 0.710490 0.000000 0.250000
O O5 0.689569 0.960096 0.000000
O O6 0.818234 0.237860 0.778517
O O7 0.902617 0.187262 0.801629
O O8 0.815089 0.140392 0.755351
O O9 0.830699 0.182534 0.000000
O O10 0.814026 0.254141 0.500000
O O11 0.765957 0.311693 0.682815
O O12 0.864300 0.315206 0.666139
O O13 0.948189 0.275318 0.768653
O O14 0.000000 0.194013 0.750000
O O15 0.963775 0.224059 0.000000
O O16 0.221226 0.127077 0.000000
O O17 0.594969 0.090828 0.500000
O O18 0.559542 0.129469 0.275545
O O19 0.554549 0.806202 0.000000
#
# Coordination Sequence:
#
# PCOD8275889 Si02
#       8
#     4  16  16  16  16  16  16  16
#     4  12  22  32  48  70  96 124 170 228 280 304
#     4  10  20  37  55  73  98 130 169 214 260 311
#     4  10  21  33  47  73 107 130 159 205 251 296
#     4   9  16  29  49  70  94 130 169 201 243 300
#     4  10  21  36  51  72 100 133 166 202 244 294
#     4  10  19  32  52  73  97 132 171 204 246 305
#     4  10  20  35  50  66  92 125 166 217 270 310
#     4   9  17  32  51  68  92 128 168 211 252 300
#
# _framework density 17.460018000000002
#
# number of rings (size 3 to 8) (size 9 to 14) (size 15 to 20)
#    0.000    2.207    2.069    1.448    0.966    4.414 
#    0.000    1.379    0.000    0.000    0.000    0.000 
#    0.000    0.552    0.000    6.069    0.000    4.414 
#
# Total GULP energy -718910.471265 kJ/mol
# GULP energy per Si atom -12395.008125 kJ/mol
# Density = 1.742028 g / cm^3
# Si number density = 17.460018 Si / 1000 Ang^3
#
#
#
# Elastic Constant Matrix: (Units=GPa)
#
#
# Indices 1 2 3 4 5 6 
#
# 1 116.0781 49.2794 53.2923 0.0000 0.0000 0.0000
# 2 49.2794 59.7250 29.6147 0.0000 0.0000 0.0000
# 3 53.2923 29.6147 76.9966 0.0000 0.0000 0.0000
# 4 0.0000 0.0000 0.0000 23.1340 0.0000 0.0000
# 5 0.0000 0.0000 0.0000 0.0000 24.9922 0.0000
# 6 0.0000 0.0000 0.0000 0.0000 0.0000 28.7739
#
#
#
# Elastic Compliance Matrix: (Units=1/GPa)
#
#
# Indices 1 2 3 4 5 6 
#
# 1 0.016115 -0.009596 -0.007463 0.000000 0.000000 0.000000
# 2 -0.009596 0.026403 -0.003513 0.000000 0.000000 0.000000
# 3 -0.007463 -0.003513 0.019504 0.000000 0.000000 0.000000
# 4 0.000000 0.000000 0.000000 0.043226 0.000000 0.000000
# 5 0.000000 0.000000 0.000000 0.000000 0.040012 0.000000
# 6 0.000000 0.000000 0.000000 0.000000 0.000000 0.034754
#
#
# Mechanical properties :
#
#
# Convention : Reuss Voigt Hill
#
# Bulk Modulus (GPa) = 47.89815 57.46361 52.68088
# Shear Modulus (GPa) = 21.91830 23.42092 22.66961
#
# Velocity S-wave (km/s) = 3.54693 3.66649 3.60720
# Velocity P-wave (km/s) = 6.65333 7.13493 6.89833
#
# Compressibility (1/GPa) = 0.02087763
#
# Stress axis : x y z
#
# Youngs Moduli (GPa) = 62.05359 37.87395 51.27054
#
# Poissons Ratio (x) = 0.36344 0.38263
# Poissons Ratio (y) = 0.59547 0.18014
# Poissons Ratio (z) = 0.46311 0.13307
#
# Static dielectric constant tensor:
#      x y z
#    x 3.435020 0.000000 0.000000 
#    y 0.000000 3.026420 0.000000 
#    z 0.000000 0.000000 3.114410 
# 
# 
# High freq. dielectric constant tensor:
#      x y z
#    x 1.677940 0.000000 0.000000 
#    y 0.000000 1.640250 0.000000 
#    z 0.000000 0.000000 1.664250 
# 
# From -- ./inp_files/10750.got.cif
#   From: 2010.03.12/outbox.cif.g09.slc.cpg/sg66_6_cif.got.tgz:10750.got - 2010.04.10 21:57:39.
