data_PCOD8275562
_publ_section_title
;
Structure prediction by ZEFSAII (Michael W. Deem and Ramdas Pophale) SiO2 
 PCOD8275562
Probable space group: C C C M
;
_chemical_formula_sum "Si O2"
_cell_formula_units_Z 56
_cell_length_a 11.732302
_cell_length_b 13.374577
_cell_length_c 18.169663
_cell_angle_alpha 90.000000
_cell_angle_beta 90.000000
_cell_angle_gamma 90.000000
_cell_volume 2851.084975
_symmetry_space_group_name_H-M "C C C M"
_symmetry_group_IT_number 66
_symmetry_cell_setting 'orthorhombic'
loop_
_space_group_symop_operation_xyz
x,y,z
-x,-y,z
x,-y,1/2-z
-x,y,1/2-z
-x,-y,-z
x,y,-z
-x,y,1/2+z
x,-y,1/2+z
1/2+x,1/2+y,z
1/2-x,1/2-y,z
1/2+x,1/2-y,1/2-z
1/2-x,1/2+y,1/2-z
1/2-x,1/2-y,-z
1/2+x,1/2+y,-z
1/2-x,1/2+y,1/2+z
1/2+x,1/2-y,1/2+z
loop_
_atom_site_type_symbol
_atom_site_label
_atom_site_fract_x
_atom_site_fract_y
_atom_site_fract_z
Si Si1 0.192960 0.141587 0.417541
Si Si2 0.250000 0.250000 0.188989
Si Si3 0.004225 0.226773 0.831953
Si Si4 0.151592 0.594752 0.203787
O O1 0.187884 0.097711 0.500000
O O2 0.250000 0.250000 0.415558
O O3 0.064391 0.155364 0.387291
O O4 0.268684 0.066890 0.366958
O O5 0.364128 0.266788 0.140086
O O6 0.233409 0.343265 0.242823
O O7 0.955793 0.340508 0.825389
O O8 0.000000 0.179302 0.750000
O O9 0.107391 0.500000 0.250000
#
# Coordination Sequence:
#
# PCOD8275562 Si02
#       4
#    16   8  16  16
#     4   9  16  31  54  80 107 138 178 221 269 317
#     4  10  18  32  50  78 110 136 184 218 266 312
#     4   9  16  31  51  76 108 136 179 217 261 316
#     4  10  18  31  55  83 104 138 178 224 266 312
#
# _framework density 19.641646000000001
#
# number of rings (size 3 to 8) (size 9 to 14) (size 15 to 20)
#    0.000    2.571    7.143    0.000    0.000    5.143 
#    0.000    3.571    0.000   10.286    0.000   42.000 
#    0.000    0.000    0.000    0.000    0.000    0.000 
#
# Total GULP energy -346887.058525 kJ/mol
# GULP energy per Si atom -12388.823519 kJ/mol
# Density = 1.959694 g / cm^3
# Si number density = 19.641646 Si / 1000 Ang^3
#
#
#
# Elastic Constant Matrix: (Units=GPa)
#
#
# Indices 1 2 3 4 5 6 
#
# 1 169.7562 5.4417 39.0058 0.0000 0.0000 0.0000
# 2 5.4417 38.0047 7.0991 0.0000 0.0000 0.0000
# 3 39.0058 7.0991 92.6776 0.0000 0.0000 0.0000
# 4 0.0000 0.0000 0.0000 15.7559 0.0000 0.0000
# 5 0.0000 0.0000 0.0000 0.0000 28.4672 0.0000
# 6 0.0000 0.0000 0.0000 0.0000 0.0000 14.9777
#
#
#
# Elastic Compliance Matrix: (Units=1/GPa)
#
#
# Indices 1 2 3 4 5 6 
#
# 1 0.006528 -0.000428 -0.002715 0.000000 0.000000 0.000000
# 2 -0.000428 0.026722 -0.001867 0.000000 0.000000 0.000000
# 3 -0.002715 -0.001867 0.012076 0.000000 0.000000 0.000000
# 4 0.000000 0.000000 0.000000 0.063468 0.000000 0.000000
# 5 0.000000 0.000000 0.000000 0.000000 0.035128 0.000000
# 6 0.000000 0.000000 0.000000 0.000000 0.000000 0.066766
#
#
# Mechanical properties :
#
#
# Convention : Reuss Voigt Hill
#
# Bulk Modulus (GPa) = 28.32250 44.83687 36.57969
# Shear Modulus (GPa) = 21.50748 28.43294 24.97021
#
# Velocity S-wave (km/s) = 3.31266 3.80884 3.56938
# Velocity P-wave (km/s) = 5.39282 6.49769 5.97087
#
# Compressibility (1/GPa) = 0.03530761
#
# Stress axis : x y z
#
# Youngs Moduli (GPa) = 153.17881 37.42168 82.81077
#
# Poissons Ratio (x) = 0.01600 0.22482
# Poissons Ratio (y) = 0.06551 0.15460
# Poissons Ratio (z) = 0.41586 0.06986
#
# Static dielectric constant tensor:
#      x y z
#    x 3.917740 0.000000 0.000000 
#    y 0.000000 3.482940 0.000000 
#    z 0.000000 0.000000 3.605870 
# 
# 
# High freq. dielectric constant tensor:
#      x y z
#    x 1.786030 0.000000 0.000000 
#    y 0.000000 1.708640 0.000000 
#    z 0.000000 0.000000 1.730410 
# 
# From -- ./inp_files/37861.got.cif
#   From: 2010.03.12/outbox.cif.g09.slc.cpg/sg66_19_cif.got.tgz:37861.got - 2010.04.10 21:57:39.
