data_PCOD8275194
_publ_section_title
;
Structure prediction by ZEFSAII (Michael W. Deem and Ramdas Pophale) SiO2 
 PCOD8275194
Probable space group: C M M M
;
_chemical_formula_sum "Si O2"
_cell_formula_units_Z 36
_cell_length_a 15.000000
_cell_length_b 30.000000
_cell_length_c 9.000000
_cell_angle_alpha 90.000000
_cell_angle_beta 90.000000
_cell_angle_gamma 90.000000
_cell_volume 4050.000000
_symmetry_space_group_name_H-M "C M M M"
_symmetry_group_IT_number 65
_symmetry_cell_setting 'orthorhombic'
loop_
_space_group_symop_operation_xyz
x,y,z
-x,-y,z
x,-y,-z
-x,y,-z
-x,-y,-z
x,y,-z
-x,y,z
x,-y,z
1/2+x,1/2+y,z
1/2-x,1/2-y,z
1/2+x,1/2-y,-z
1/2-x,1/2+y,-z
1/2-x,1/2-y,-z
1/2+x,1/2+y,-z
1/2-x,1/2+y,z
1/2+x,1/2-y,z
loop_
_atom_site_type_symbol
_atom_site_label
_atom_site_fract_x
_atom_site_fract_y
_atom_site_fract_z
Si Si1 0.106420 0.500000 0.664937
Si Si2 0.227880 0.341115 0.172671
Si Si3 0.098199 0.736221 0.831721
Si Si4 0.902505 0.826893 0.327471
Si Si5 0.599822 0.084936 0.175638
O O1 0.145335 0.500000 0.500000
O O2 0.144285 0.458188 0.753006
O O3 0.000000 0.500000 0.667484
O O4 0.183198 0.293773 0.208596
O O5 0.323084 0.351610 0.244286
O O6 0.157550 0.375194 0.239428
O O7 0.240416 0.348436 0.000000
O O8 0.100965 0.775322 0.714260
O O9 0.000000 0.712136 0.822150
O O10 0.110710 0.754725 0.000000
O O11 0.885711 0.831900 0.500000
O O12 0.000000 0.846616 0.283055
O O13 0.500000 0.092445 0.233736
O O14 0.601850 0.080597 0.000000
#
# Coordination Sequence:
#
# PCOD8275194 Si02
#       5
#     8  16  16  16  16
#     4   9  17  29  45  67  96 127 154 177 207 256
#     4  10  19  30  47  70  91 115 151 191 228 266
#     4   9  17  30  47  66  90 119 150 186 227 270
#     4  10  21  34  45  60  86 121 158 193 230 270
#     4   9  17  30  48  70  96 123 149 179 218 265
#
# _framework density 8.8888890000000007
#
# number of rings (size 3 to 8) (size 9 to 14) (size 15 to 20)
#    0.000    2.556    0.000    2.333    0.000    9.778 
#    0.000    0.000    0.000    6.667    0.000    0.778 
#    0.000    6.222    0.000    0.000    0.000    0.000 
#
# Total GULP energy -445985.921382 kJ/mol
# GULP energy per Si atom -12388.497816 kJ/mol
# Density = 0.886866 g / cm^3
# Si number density = 8.888889 Si / 1000 Ang^3
#
#
#
# Elastic Constant Matrix: (Units=GPa)
#
#
# Indices 1 2 3 4 5 6 
#
# 1 112.0458 36.7527 41.9881 0.0000 0.0000 0.0000
# 2 36.7527 50.0017 22.2763 0.0000 0.0000 0.0000
# 3 41.9881 22.2763 3.9776 0.0000 0.0000 0.0000
# 4 0.0000 0.0000 0.0000 70.0259 0.0000 0.0000
# 5 0.0000 0.0000 0.0000 0.0000 19.5705 0.0000
# 6 0.0000 0.0000 0.0000 0.0000 0.0000 556.9449
#
#
#
# Elastic Compliance Matrix: (Units=1/GPa)
#
#
# Indices 1 2 3 4 5 6 
#
# 1 0.005119 -0.013585 0.022048 0.000000 0.000000 0.000000
# 2 -0.013585 0.022677 0.016402 0.000000 0.000000 0.000000
# 3 0.022048 0.016402 -0.073192 0.000000 0.000000 0.000000
# 4 0.000000 0.000000 0.000000 0.014280 0.000000 0.000000
# 5 0.000000 0.000000 0.000000 0.000000 0.051097 0.000000
# 6 0.000000 0.000000 0.000000 0.000000 0.000000 0.001796
#
#
# Mechanical properties :
#
#
# Convention : Reuss Voigt Hill
#
# Bulk Modulus (GPa) = 230.73695 40.89547 135.81621
# Shear Modulus (GPa) = -188.62424 133.64211 -27.49106
#
# Velocity S-wave (km/s) = -10.31172 8.67968 -3.93666
# Velocity P-wave (km/s) = 3.42111 11.11318 7.47659
#
# Compressibility (1/GPa) = 0.00433394
#
# Stress axis : x y z
#
# Youngs Moduli (GPa) = 195.35977 44.09668 -13.66268
#
# Poissons Ratio (x) = 0.59906 0.30123
# Poissons Ratio (y) = 2.65397 0.22410
# Poissons Ratio (z) = -4.30728 -0.72327
#
# Static dielectric constant tensor:
#      x y z
#    x 3.610390 0.000000 0.000000 
#    y 0.000000 2.871020 0.000000 
#    z 0.000000 0.000000 3.099910 
# 
# 
# High freq. dielectric constant tensor:
#      x y z
#    x 1.680920 0.000000 0.000000 
#    y 0.000000 1.636520 0.000000 
#    z 0.000000 0.000000 1.672890 
# 
# From -- ./inp_files/7670.got.cif
#   From: 2010.03.12/outbox.ucp.g09.slc.cvg/sg65_4_cif.got.tgz:7670.got - 2010.05.04 19:44:54.
